Name: Black tar paper
Type: manmade
Class: Roofing Material
Subclass: Roofing Paper
Particle Size: Solid
Sample No.: 0522UUUTAR
Owner: National Photographic Interpretation Center
Wavelength Range: All
Origin: Spectra obtained from the Noncoventional Exploitation FactorsData System of the National Photographic Interpretation Center.
Description: Extremely weathered black roofing paper. Paper was thickly tarred and deeply cracked. Original ASTER Spectral Library name was jhu.becknic.manmade.roofing.paper.solid.0522uuu.spectrum.txt
Measurement: Directional (10 Degree) Hemispherical Reflectance
X Units: Wavelength (micrometers)
Y Units: Reflectance (percent)
wavelength	value
0.3	2.19
0.304	2.19
0.308	2.19
0.312	2.18
0.316	2.18
0.32	2.17
0.324	2.17
0.328	2.17
0.332	2.17
0.336	2.17
0.34	2.18
0.344	2.18
0.348	2.18
0.352	2.19
0.356	2.19
0.36	2.19
0.364	2.2
0.368	2.2
0.372	2.21
0.376	2.22
0.38	2.22
0.384	2.23
0.388	2.24
0.392	2.25
0.396	2.25
0.4	2.26
0.404	2.27
0.408	2.28
0.412	2.28
0.416	2.29
0.42	2.3
0.424	2.31
0.428	2.31
0.432	2.32
0.436	2.33
0.44	2.34
0.444	2.34
0.448	2.34
0.452	2.35
0.456	2.36
0.46	2.37
0.464	2.38
0.468	2.38
0.472	2.38
0.476	2.39
0.48	2.39
0.484	2.38
0.488	2.38
0.492	2.39
0.496	2.41
0.5	2.43
0.504	2.44
0.508	2.45
0.512	2.45
0.516	2.45
0.52	2.46
0.524	2.47
0.528	2.47
0.532	2.48
0.536	2.49
0.54	2.49
0.544	2.5
0.548	2.51
0.552	2.51
0.556	2.52
0.56	2.53
0.564	2.54
0.568	2.55
0.572	2.55
0.576	2.56
0.58	2.57
0.584	2.57
0.588	2.58
0.592	2.59
0.596	2.6
0.6	2.6
0.604	2.61
0.608	2.62
0.612	2.62
0.616	2.63
0.62	2.63
0.624	2.64
0.628	2.64
0.632	2.65
0.636	2.66
0.64	2.66
0.644	2.67
0.648	2.67
0.652	2.68
0.656	2.68
0.66	2.69
0.664	2.7
0.668	2.7
0.672	2.71
0.676	2.72
0.68	2.72
0.684	2.73
0.688	2.73
0.692	2.74
0.696	2.75
0.7	2.75
0.704	2.76
0.708	2.76
0.712	2.77
0.716	2.78
0.72	2.78
0.724	2.79
0.728	2.8
0.732	2.8
0.736	2.81
0.74	2.82
0.744	2.82
0.748	2.83
0.752	2.84
0.756	2.84
0.76	2.85
0.764	2.85
0.768	2.86
0.772	2.87
0.776	2.87
0.78	2.88
0.784	2.89
0.788	2.89
0.792	2.9
0.796	2.91
0.8	2.91
0.84	2.97
0.88	3.06
0.92	3.13
0.96	3.18
1	3.21
1.04	3.27
1.08	3.3
1.12	3.33
1.16	3.35
1.2	3.37
1.24	3.39
1.28	3.4
1.32	3.4
1.36	3.39
1.4	3.41
1.44	3.43
1.48	3.44
1.52	3.44
1.56	3.45
1.6	3.46
1.64	3.46
1.68	3.44
1.72	3.46
1.76	3.45
1.8	3.46
1.84	3.46
1.88	3.46
1.92	3.41
1.96	3.46
2	3.47
2.04	3.48
2.08	3.48
2.12	3.49
2.16	3.44
2.2	3.45
2.24	3.42
2.28	3.9286
2.32	3.7261
2.36	3.606
2.4	3.7485
2.44	3.398
2.48	3.4476
2.52	3.5741
2.56	3.6042
2.6	3.5116
2.64	3.6249
2.68	3.5145
2.72	3.0905
2.76	2.8839
2.8	2.946
2.84	2.8622
2.88	2.902
2.92	2.7258
2.96	2.7764
3	3.0679
3.04	2.8895
3.08	3.0139
3.12	3.0431
3.16	2.9622
3.2	3.0666
3.24	2.9311
3.28	2.8843
3.32	2.8055
3.36	2.6625
3.4	2.3094
3.44	2.4997
3.48	2.3782
3.52	2.8006
3.56	2.6769
3.6	2.5993
3.64	2.6916
3.68	2.663
3.72	2.8461
3.76	2.808
3.8	2.811
3.84	2.9141
3.88	2.8391
3.92	2.9792
3.96	3.059
4	3.0719
4.04	3.1542
4.08	3.151
4.12	3.1986
4.16	3.4262
4.2	3.2665
4.24	3.3482
4.28	3.3489
4.32	3.308
4.36	3.3956
4.4	3.2488
4.44	3.3588
4.48	3.4436
4.52	3.3576
4.56	3.3782
4.6	3.3118
4.64	3.4383
4.68	3.3686
4.72	3.2632
4.76	3.3222
4.8	3.4181
4.84	3.2421
4.88	3.2198
4.92	3.0925
4.96	3.2005
5	3.0937
5.2	2.881
5.4	2.6396
5.6	2.1794
5.8	1.9364
6	2.0443
6.2	2.0236
6.4	2.1028
6.6	1.979
6.8	1.7447
7	1.6671
7.2	1.6547
7.4	1.677
7.6	1.6569
7.8	1.5904
8	1.7965
8.2	1.8028
8.4	2.0276
8.6	1.8903
8.8	2.2748
9	2.2069
9.2	2.5559
9.4	2.3886
9.6	2.5853
9.8	2.7618
10	2.5153
10.2	2.3826
10.4	2.6648
10.6	2.6394
10.8	2.6037
11	2.7061
11.2	2.8093
11.4	2.6826
11.6	2.7379
11.8	2.7633
12	2.733
12.2	3.4705
12.4	3.4893
