Name: White Marble
Type: manmade
Class: General Construction Material
Subclass: Marble
Particle Size: Solid
Sample No.: 0722UUUMBL
Owner: National Photographic Interpretation Center
Wavelength Range: All
Origin: Spectra obtained from the Noncoventional Exploitation FactorsData System of the National Photographic Interpretation Center.
Description: White weathered construction marble. Sample was beach sidewalk from Greece (Naxos). Original ASTER Spectral Library name was jhu.becknic.manmade.construction.marble.solid.0722uuu.spectrum.txt
Measurement: Directional (10 Degree) Hemispherical Reflectance
X Units: Wavelength (micrometers)
Y Units: Reflectance (percent)
wavelength	value
0.3	29.35
0.304	30.08
0.308	30.74
0.312	31.37
0.316	32
0.32	32.84
0.324	33.44
0.328	34.06
0.332	34.69
0.336	35.33
0.34	36.04
0.344	36.83
0.348	37.69
0.352	38.65
0.356	39.74
0.36	40.93
0.364	42.25
0.368	43.71
0.372	45.3
0.376	47.03
0.38	49.15
0.384	50.98
0.388	52.77
0.392	54.44
0.396	55.96
0.4	57.34
0.404	58.58
0.408	59.71
0.412	60.72
0.416	61.68
0.42	62.62
0.424	63.55
0.428	64.51
0.432	65.47
0.436	66.42
0.44	67.31
0.444	68.11
0.448	68.78
0.452	69.35
0.456	69.81
0.46	70.19
0.464	70.53
0.468	70.87
0.472	71.2
0.476	71.56
0.48	71.94
0.484	72.37
0.488	72.8
0.492	73.28
0.496	73.77
0.5	74.26
0.504	74.75
0.508	75.26
0.512	75.72
0.516	76.18
0.52	76.62
0.524	77.04
0.528	77.43
0.532	77.8
0.536	78.14
0.54	78.47
0.544	78.78
0.548	79.07
0.552	79.33
0.556	79.56
0.56	79.81
0.564	79.99
0.568	80.16
0.572	80.33
0.576	80.48
0.58	80.61
0.584	80.73
0.588	80.83
0.592	80.92
0.596	81
0.6	81.09
0.604	81.17
0.608	81.24
0.612	81.3
0.616	81.37
0.62	81.43
0.624	81.51
0.628	81.58
0.632	81.66
0.636	81.75
0.64	81.83
0.644	81.88
0.648	81.98
0.652	82.07
0.656	82.16
0.66	82.25
0.664	82.34
0.668	82.44
0.672	82.53
0.676	82.64
0.68	82.7
0.684	82.74
0.688	82.8
0.692	82.89
0.696	82.96
0.7	83.05
0.704	83.14
0.708	83.2
0.712	83.29
0.716	83.35
0.72	83.4
0.724	83.48
0.728	83.53
0.732	83.6
0.736	83.66
0.74	83.7
0.744	83.77
0.748	83.81
0.752	83.87
0.756	83.92
0.76	83.96
0.764	83.99
0.768	84.04
0.772	84.1
0.776	84.16
0.78	84.19
0.784	84.21
0.788	84.25
0.792	84.29
0.796	84.31
0.8	84.34
0.84	84.55
0.88	84.24
0.92	83.78
0.96	83.89
1	84.25
1.04	84.54
1.08	84.97
1.12	85.46
1.16	85.63
1.2	85.84
1.24	86.78
1.28	87.23
1.32	87.31
1.36	86.79
1.4	83.28
1.44	80.79
1.48	81.57
1.52	84.38
1.56	84.33
1.6	86.64
1.64	85.51
1.68	84.56
1.72	78.48
1.76	77.9
1.8	81.52
1.84	68.51
1.88	53.88
1.92	61.66
1.96	55.09
2	48.57
2.04	72.28
2.08	74.36
2.12	63.81
2.16	47.56
2.2	52.89
2.24	35.29
2.28	17.915
2.32	11.5688
2.36	15.2506
2.4	31.9066
2.44	20.0326
2.48	9.5806
2.52	7.4527
2.56	12.3993
2.6	28.8456
2.64	35.8284
2.68	28.6574
2.72	12.1138
2.76	7.6575
2.8	6.2643
2.84	7.2946
2.88	7.0273
2.92	6.8089
2.96	6.5817
3	6.3883
3.04	6.0225
3.08	5.6214
3.12	5.1745
3.16	5.2755
3.2	5.5884
3.24	5.2944
3.28	4.7768
3.32	4.105
3.36	3.573
3.4	3.542
3.44	3.5317
3.48	3.2713
3.52	3.7024
3.56	4.1729
3.6	4.6695
3.64	5.0399
3.68	5.2707
3.72	5.0222
3.76	4.6028
3.8	3.7004
3.84	3.2734
3.88	3.1554
3.92	3.2152
3.96	2.9266
4	3.0775
4.04	3.4322
4.08	3.8579
4.12	4.0267
4.16	4.3654
4.2	4.5724
4.24	4.7353
4.28	4.8444
4.32	4.6664
4.36	4.8886
4.4	4.9868
4.44	4.5485
4.48	4.0172
4.52	3.8427
4.56	3.7283
4.6	3.7044
4.64	3.334
4.68	3.1986
4.72	3.475
4.76	4.0241
4.8	4.213
4.84	4.1893
4.88	4.0535
4.92	3.8964
4.96	3.9422
5	3.9824
5.2	3.2499
5.4	2.3389
5.6	1.7833
5.8	1.5228
6	1.269
6.2	1.8628
6.4	17.2522
6.6	35.5396
6.8	26.4174
7	22.1327
7.2	16.2105
7.4	10.5317
7.6	8.6093
7.8	7.6333
8	6.9699
8.2	6.6184
8.4	6.2854
8.6	6.3899
8.8	6.7156
9	6.9348
9.2	7.0932
9.4	7.7748
9.6	8.884
9.8	8.8494
10	8.2366
10.2	7.0852
10.4	6.3115
10.6	5.6587
10.8	5.6011
11	5.8931
11.2	8.5919
11.4	11.9825
11.6	6.8562
11.8	5.646
12	5.2996
12.2	5.1268
12.4	4.9248
12.6	4.8335
12.8	4.6779
13	4.7905
13.2	4.7673
13.4	4.435
13.6	4.1862
13.8	3.88
14	3.2082
