Name: Brass plate
Type: Manmade
Class: Reflectance target
Subclass: None
Particle Size: Solid
Sample No.: ILF-17464-2-2-cl
Owner: JPL
Wavelength Range: TIR
Origin: Labsphere, P.O. Box 70, Shaker Street, North Sutton, NH 03260(603) 927-4266
Description: Measurement made at center left. Field Brass 1.Measured Oct. 29 1997. Original ASTER Spectral Library name was jpl.nicolet.manmade.target.none.solid.bp11097d.spectrum.txt
Measurement: Hemispherical Reflectance
X Units: Wavelength (micrometers)
Y Units: Reflectence (percent)
wavelength	value
15.3853	87.4008
15.1161	87.5448
14.8563	87.5029
14.6052	87.4427
14.3624	87.6579
14.1276	87.3699
13.9004	87.3379
13.6803	87.4431
13.4671	87.465
13.2604	87.6487
13.06	87.2652
12.8656	87.0471
12.6769	87.0055
12.4936	86.9377
12.3155	87.4155
12.1425	87.5681
11.9742	87.6435
11.8106	87.4503
11.6513	87.5071
11.4963	86.3939
11.3454	86.6642
11.1983	87.0306
11.0551	86.7093
10.9154	86.3331
10.7793	86.2404
10.6465	86.0165
10.5169	85.7402
10.3904	85.371
10.267	85.1699
10.1464	84.8796
10.0287	84.6296
9.9136	84.4361
9.8012	84.3784
9.6913	84.4774
9.5838	84.5533
9.4787	84.5596
9.3758	84.9549
9.2752	85.1607
9.1767	85.3337
9.0803	85.5359
8.9858	85.6914
8.8934	85.8526
8.8028	85.8314
8.714	85.7838
8.627	86.1483
8.5417	86.4984
8.4581	86.6619
8.3761	87.0223
8.2957	87.4026
8.2169	87.5348
8.1395	87.7914
8.0635	87.8974
7.989	88.0024
7.9158	88.4391
7.8439	88.7168
7.7734	88.9138
7.7041	88.9389
7.636	89.0398
7.5691	89.0245
7.5034	89.0529
7.4388	88.8174
7.3753	88.5735
7.3129	88.2195
7.2515	87.9349
7.1912	87.7941
7.1318	87.793
7.0734	87.6878
7.016	87.8652
6.9595	87.8981
6.9039	87.818
6.8492	87.8473
6.7953	87.992
6.7423	87.9413
6.6901	88.2336
6.6387	88.8476
6.5881	88.9196
6.5382	88.9216
6.4892	89.5468
6.4408	89.3083
6.3931	89.2054
6.3462	89.3479
6.2999	88.9132
6.2543	88.7962
6.2094	88.7501
6.1651	88.6373
6.1214	88.9829
6.0784	89.3157
6.0359	89.4392
5.994	89.6268
5.9527	89.4406
5.912	89.4926
5.8718	89.7635
5.8322	89.7773
5.7931	89.8199
5.7545	89.9212
5.7165	90.0081
5.6789	89.9333
5.6418	90.0884
5.6052	89.8651
5.5691	89.4638
5.5334	89.7932
5.4982	89.867
5.4635	90.1581
5.4291	90.1512
5.3952	90.0001
5.3618	90.0501
5.3287	90.0159
5.2961	89.9977
5.2638	90.1613
5.2319	90.2
5.2004	90.2734
5.1693	90.2298
5.1386	90.2084
5.1082	90.2071
5.0782	90.2204
5.0485	90.2622
5.0192	90.3097
4.9902	90.2717
4.9616	90.3152
4.9332	90.3378
4.9052	90.3338
4.8776	90.393
4.8502	90.3171
4.8231	90.3807
4.7963	90.4015
4.7699	90.3634
4.7437	90.3147
4.7178	90.33
4.6922	90.3063
4.6668	90.3838
4.6418	90.3515
4.617	90.2794
4.5924	90.3452
4.5681	90.3902
4.5441	90.3547
4.5203	90.3176
4.4968	90.2648
4.4735	90.3565
4.4505	90.3726
4.4277	90.2868
4.4051	90.3396
4.3828	90.3911
4.3607	90.321
4.3388	90.3053
4.3171	90.1093
4.2956	89.8459
4.2744	89.7064
4.2534	90.0989
4.2325	89.5352
4.2119	89.9881
4.1915	90.2943
4.1712	90.2974
4.1512	90.2219
4.1313	90.2741
4.1117	90.2062
4.0922	90.1277
4.0729	90.2059
4.0538	90.0966
4.0349	90.1002
4.0161	89.9036
3.9976	89.7529
3.9792	89.628
3.9609	89.5364
3.9428	89.7566
3.9249	89.858
3.9072	89.8896
3.8896	89.9277
3.8722	89.9888
3.8549	89.8127
3.8378	89.9611
3.8208	89.8921
3.804	89.9927
3.7873	89.9582
3.7708	90.0101
3.7544	89.9727
3.7382	90.0497
3.7221	90.0014
3.7061	90.0821
3.6903	90.0102
3.6746	89.9374
3.659	89.9547
3.6436	89.9612
3.6283	90.0416
3.6131	89.8989
3.5981	89.8323
3.5832	89.8921
3.5684	89.8059
3.5537	89.8809
3.5391	89.6934
3.5247	89.6425
3.5104	89.4704
3.4962	89.2696
3.4821	89.312
3.4681	89.2578
3.4543	89.3693
3.4405	89.2446
3.4269	89.1276
3.4133	89.1119
3.3999	89.0578
3.3866	89.2092
3.3733	89.1428
3.3602	89.2415
3.3472	89.2312
3.3343	89.3931
3.3215	89.4624
3.3088	89.3749
3.2961	89.441
3.2836	89.4505
3.2712	89.4395
3.2588	89.3359
3.2466	89.2664
3.2345	89.3181
3.2224	89.3808
3.2104	89.3013
3.1985	89.2311
3.1867	89.2603
3.175	89.2308
3.1634	89.1517
3.1519	89.1241
3.1404	89.1368
3.129	89.0299
3.1178	89.1728
3.1065	88.858
3.0954	88.8929
3.0844	88.8773
3.0734	88.9265
3.0625	88.86
3.0517	88.9522
3.041	88.7973
3.0303	88.8606
3.0197	88.7162
3.0092	88.9622
2.9987	88.6894
2.9884	88.8069
2.9781	88.748
2.9678	88.8443
2.9577	88.6872
2.9476	88.7111
2.9376	88.6793
2.9276	88.6466
2.9177	88.7339
2.9079	88.7933
2.8982	88.62
2.8885	88.8297
2.8789	88.7128
2.8693	88.8586
2.8598	88.7535
2.8504	88.5716
2.841	88.7312
2.8317	88.7292
2.8224	88.5402
2.8133	88.6727
2.8041	88.776
2.7951	88.5029
2.786	88.4539
2.7771	88.7689
2.7682	88.4487
2.7594	88.446
2.7506	88.5344
2.7418	89.0174
2.7332	88.9879
2.7246	89.3087
2.716	89.1619
2.7075	89.4017
2.699	89.4097
2.6906	89.6186
2.6823	89.8183
2.674	89.8882
2.6657	90.1484
2.6575	89.9007
2.6494	89.8786
2.6413	89.8941
2.6332	89.8106
2.6252	89.8673
2.6173	90.0814
2.6094	89.9063
2.6015	89.9108
2.5937	90.1223
2.5859	89.8563
2.5782	89.9358
2.5706	89.8544
2.5629	89.9688
2.5554	89.7622
2.5478	89.8992
2.5403	89.6477
2.5329	89.8492
2.5255	89.84
2.5181	89.7224
2.5108	89.5498
2.5035	89.7151
2.4963	89.7929
2.4891	89.6426
2.482	89.6956
2.4749	89.6827
2.4678	89.7393
2.4608	89.785
2.4538	89.5464
2.4468	89.6492
2.4399	89.6863
2.4331	89.705
2.4262	89.626
2.4194	89.6994
2.4127	89.6776
2.4059	89.8205
2.3993	89.7143
2.3926	89.5664
2.386	89.6262
2.3795	89.6966
2.3729	89.6161
2.3664	89.7465
2.36	89.7053
2.3535	89.5118
2.3471	89.5395
2.3408	89.5682
2.3345	89.5806
2.3282	89.4864
2.3219	89.7078
2.3157	89.5538
2.3095	89.6504
2.3034	89.6347
2.2972	89.5544
2.2911	89.7593
2.2851	89.4047
2.279	89.4088
2.2731	89.5523
2.2671	89.3761
2.2612	89.4425
2.2553	89.5205
2.2494	89.5038
2.2435	89.2809
2.2377	89.6396
2.232	89.4264
2.2262	89.6246
2.2205	89.7401
2.2148	89.4152
2.2091	89.5453
2.2035	89.4711
2.1979	89.1376
2.1923	89.4116
2.1868	89.3275
2.1812	89.5881
2.1758	89.4132
2.1703	89.4461
2.1649	89.3222
2.1595	89.3302
2.1541	89.4173
2.1487	89.2967
2.1434	89.6382
2.1381	89.2575
2.1328	89.4684
2.1275	89.2274
2.1223	89.6601
2.1171	89.3138
2.112	89.7066
2.1068	89.3781
2.1017	89.4071
2.0966	89.3515
2.0915	89.3808
2.0865	89.2953
2.0814	89.4199
2.0764	89.5048
2.0715	89.3797
2.0665	89.31
2.0616	89.2696
2.0567	89.2341
2.0518	89.297
2.0469	89.162
2.0421	89.146
2.0373	89.245
2.0325	89.1476
2.0277	89.2617
2.0229	89.2939
2.0182	89.1703
2.0135	89.2775
2.0088	89.17
2.0042	89.0573
