Name: Asphaltic concrete
Type: manmade
Class: Concrete
Subclass: Paving Concrete
Particle Size: Solid
Sample No.: 0425UUUASP
Owner: National Photographic Interpretation Center
Wavelength Range: All
Origin: Spectra obtained from the Noncoventional Exploitation FactorsData System of the National Photographic Interpretation Center.
Description: Variegated asphaltic concrete with mostly limestone and some quartz aggregate showing. Sample was rough and black in color. Concrete from runway side strips. Original ASTER Spectral Library name was jhu.becknic.manmade.concrete.paving.solid.0425uuu.spectrum.txt
Measurement: Directional (10 Degree) Hemispherical Reflectance
X Units: Wavelength (micrometers)
Y Units: Reflectance (percent)
wavelength	value
0.42	15.6055
0.424	13.1735
0.428	13.4751
0.432	12.9349
0.436	13.1639
0.44	13.5577
0.444	13.3755
0.448	13.4696
0.452	13.7662
0.456	13.8189
0.46	13.951
0.464	13.9938
0.468	14.1844
0.472	14.1963
0.476	14.3296
0.48	14.4397
0.484	14.582
0.488	14.725
0.492	14.9045
0.496	15.0655
0.5	15.2758
0.504	15.453
0.508	15.6748
0.512	15.8745
0.516	16.0762
0.52	16.2893
0.524	16.5001
0.528	16.7484
0.532	17.0136
0.536	17.266
0.54	17.4814
0.544	17.6571
0.548	17.8346
0.552	18.0332
0.556	18.2387
0.56	18.4343
0.564	18.5848
0.568	18.7927
0.572	18.9749
0.576	19.132
0.58	19.3251
0.584	19.4764
0.588	19.6536
0.592	19.8028
0.596	19.9788
0.6	20.0918
0.604	20.2378
0.608	20.3793
0.612	20.5163
0.616	20.6347
0.62	20.7694
0.624	20.9237
0.628	21.0354
0.632	21.1868
0.636	21.2962
0.64	21.4334
0.644	21.571
0.648	21.7147
0.652	21.8341
0.656	21.9751
0.66	22.1189
0.664	22.2544
0.668	22.3715
0.672	22.5098
0.676	22.6365
0.68	22.7707
0.684	22.9051
0.688	22.9993
0.692	23.1641
0.696	23.3119
0.7	23.4421
0.704	23.5804
0.708	23.7003
0.712	23.8321
0.716	23.9117
0.72	24.0456
0.724	24.1337
0.728	24.2454
0.732	24.3636
0.736	24.4667
0.74	24.5596
0.744	24.6666
0.748	24.7577
0.752	24.8707
0.756	24.964
0.76	25.0578
0.764	25.1768
0.768	25.2527
0.772	25.3416
0.776	25.4288
0.78	25.5167
0.784	25.6198
0.788	25.6923
0.792	25.7864
0.796	25.8896
0.8	25.9707
0.84	26.7017
0.88	27.3743
0.92	28.0185
0.96	28.6739
1	29.2636
1.04	29.8431
1.08	30.5112
1.12	31.2717
1.16	31.9448
1.2	32.5198
1.24	33.1393
1.28	33.7202
1.32	34.2892
1.36	34.6539
1.4	34.4296
1.44	34.4279
1.48	35.0778
1.52	35.7594
1.56	36.2701
1.6	36.7409
1.64	37
1.68	37.2313
1.72	37.0121
1.76	37.2143
1.8	37.6951
1.84	37.6118
1.88	36.3007
1.92	33.9715
1.96	34.2755
2	34.9691
2.04	36.7084
2.08	37.1403
2.12	37.0099
2.16	35.9732
2.2	35.9134
2.24	34.5864
2.28	29.9853
2.32	27.066
2.36	28.5487
2.4	31.5372
2.44	29.5812
2.48	24.7544
2.52	22.308
2.56	26.3392
2.6	30.2207
2.64	30.011
2.68	25.7884
2.72	12.6258
2.76	7.624
2.8	8.1791
2.84	8.1758
2.88	7.6567
2.92	7.2268
2.96	7.2068
3	7.3467
3.04	7.4047
3.08	7.462
3.12	7.6334
3.16	8.0877
3.2	8.7662
3.24	8.8353
3.28	8.6164
3.32	7.586
3.36	4.307
3.4	3.9593
3.44	4.1778
3.48	3.721
3.52	5.0103
3.56	9.3164
3.6	11.8573
3.64	13.1462
3.68	13.6428
3.72	13.4803
3.76	12.4089
3.8	8.7356
3.84	6.2475
3.88	5.9574
3.92	5.6925
3.96	4.4276
4	4.8456
4.04	7.5786
4.08	10.3194
4.12	11.9318
4.16	13.3649
4.2	14.0467
4.24	14.3583
4.28	14.1657
4.32	14.285
4.36	14.5436
4.4	14.2316
4.44	13.1342
4.48	11.8593
4.52	11.5473
4.56	11.7412
4.6	11.3473
4.64	9.305
4.68	7.9977
4.72	10.7615
4.76	12.5143
4.8	12.6765
4.84	12.1559
4.88	11.2302
4.92	9.8888
4.96	9.3879
5	8.9449
5.2	7.9645
5.4	5.0404
5.6	2.3394
5.8	2.1341
6	2.0155
6.2	2.4358
6.4	9.0724
6.6	14.5052
6.8	10.1851
7	8.6626
7.2	5.2982
7.4	4.7098
7.6	4.6684
7.8	5.2982
8	6.7288
8.2	9.4057
8.4	8.2982
8.6	6.7242
8.8	8.223
9	8.2384
9.2	8.3433
9.4	6.8955
9.6	5.2585
9.8	4.4774
10	4.2671
10.2	4.2916
10.4	4.6279
10.6	4.4861
10.8	4.8508
11	5.5629
11.2	7.6371
11.4	6.237
11.6	3.549
11.8	2.7966
12	3.0452
12.2	2.8286
12.4	3.2422
12.6	3.4775
12.8	3.7751
13	3.4405
13.2	3.3565
13.4	3.3221
13.6	2.9231
13.8	2.369
14	1.8386
