Name: Olive green paint
Type: manmade
Class: General Construction Material
Subclass: Paint
Particle Size: Solid
Sample No.: 0407UUUPNT
Owner: National Photographic Interpretation Center
Wavelength Range: All
Origin: Spectra obtained from the Noncoventional Exploitation FactorsData System of the National Photographic Interpretation Center.
Description: A smooth, slightly translucent coat of alkyd gloss paint on construction lumber (pine wood). Note cellulose spectral features. Olive green paint is from the Great Life series by Martin Senour Paints.  Original ASTER Spectral Library name was jhu.becknic.manmade.construction.paint.solid.0407uuu.spectrum.txt
Measurement: Directional (10 Degree) Hemispherical Reflectance
X Units: Wavelength (micrometers)
Y Units: Reflectance (percent)
wavelength	value
0.3	6.032
0.304	6.032
0.308	6.032
0.312	5.928
0.316	5.928
0.32	5.928
0.324	5.824
0.328	5.824
0.332	5.824
0.336	5.824
0.34	5.824
0.344	5.824
0.348	5.824
0.352	5.824
0.356	5.928
0.36	6.032
0.364	6.136
0.368	6.24
0.372	6.344
0.376	6.552
0.38	6.76
0.384	7.072
0.388	7.28
0.392	7.592
0.396	7.8
0.4	8.112
0.404	8.216
0.408	8.32
0.412	8.528
0.416	8.632
0.42	8.84
0.424	9.048
0.428	9.36
0.432	9.88
0.436	10.4
0.44	10.92
0.444	11.336
0.448	11.648
0.452	11.856
0.456	11.96
0.46	12.064
0.464	12.064
0.468	12.168
0.472	12.272
0.476	12.376
0.48	12.584
0.484	12.792
0.488	13.104
0.492	13.52
0.496	14.04
0.5	14.664
0.504	15.288
0.508	16.12
0.512	17.056
0.516	18.096
0.52	19.136
0.524	20.176
0.528	21.32
0.532	22.256
0.536	23.088
0.54	23.504
0.544	23.4
0.548	22.88
0.552	21.944
0.556	20.696
0.56	19.24
0.564	17.992
0.568	16.848
0.572	15.912
0.576	15.08
0.58	14.456
0.584	13.936
0.588	13.52
0.592	13.104
0.596	12.688
0.6	12.272
0.604	11.96
0.608	11.752
0.612	11.544
0.616	11.44
0.62	11.44
0.624	11.336
0.628	11.336
0.632	11.336
0.636	11.44
0.64	11.544
0.644	11.648
0.648	11.856
0.652	12.064
0.656	12.376
0.66	12.584
0.664	12.792
0.668	12.792
0.672	12.688
0.676	12.584
0.68	12.376
0.684	12.168
0.688	11.96
0.692	11.648
0.696	11.336
0.7	11.128
0.704	10.816
0.708	10.712
0.712	10.816
0.716	10.92
0.72	11.232
0.724	11.752
0.728	12.376
0.732	13.208
0.736	14.456
0.74	16.224
0.744	19.032
0.748	23.088
0.752	28.496
0.756	35.152
0.76	42.12
0.764	48.776
0.768	54.184
0.772	58.448
0.776	61.568
0.78	63.752
0.784	65.312
0.788	66.352
0.792	67.08
0.796	67.496
0.8	67.6
0.84	65.52
0.88	63.024
0.92	63.128
0.96	65.208
1	67.6
1.04	72.488
1.08	76.232
1.12	82.784
1.16	82.576
1.2	79.976
1.24	82.992
1.28	85.28
1.32	85.592
1.36	78.728
1.4	70.304
1.44	57.304
1.48	56.576
1.52	58.968
1.56	60.216
1.6	62.192
1.64	65.208
1.68	61.568
1.72	57.304
1.76	57.928
1.8	59.28
1.84	60.736
1.88	57.72
1.92	39.104
1.96	42.016
2	47.424
2.04	44.2
2.08	38.584
2.12	37.648
2.16	39.624
2.2	42.536
2.24	38.5195
2.28	29.0042
2.32	28.1748
2.36	27.8657
2.4	27.564
2.44	25.5069
2.48	21.2334
2.52	21.9631
2.56	24.1719
2.6	26.1216
2.64	26.121
2.68	23.3299
2.72	12.1134
2.76	6.893
2.8	5.8984
2.84	5.3496
2.88	4.8342
2.92	4.8751
2.96	4.6223
3	5.3082
3.04	4.9572
3.08	4.9759
3.12	5.0429
3.16	5.6058
3.2	5.6748
3.24	5.6564
3.28	5.6935
3.32	5.9917
3.36	5.6196
3.4	4.603
3.44	5.2826
3.48	5.0684
3.52	5.3469
3.56	6.2222
3.6	7.4646
3.64	7.3208
3.68	7.7868
3.72	8.0533
3.76	8.3979
3.8	8.8932
3.84	9.2892
3.88	9.7594
3.92	9.9009
3.96	10.595
4	11.9179
4.04	12.0033
4.08	12.8121
4.12	13.7597
4.16	14.4783
4.2	15.1026
4.24	15.5957
4.28	16.044
4.32	16.3655
4.36	16.2121
4.4	16.1005
4.44	15.9753
4.48	15.94
4.52	15.5454
4.56	15.1805
4.6	14.58
4.64	13.8316
4.68	13.6718
4.72	13.8221
4.76	13.9064
4.8	13.7732
4.84	13.5765
4.88	13.4532
4.92	13.6635
4.96	14.0161
5	13.8608
5.2	15.2176
5.4	13.8112
5.6	7.1863
5.8	5.7035
6	5.5107
6.2	5.427
6.4	6.8232
6.6	4.5409
6.8	3.8662
7	4.1661
7.2	3.8694
7.4	3.8437
7.6	3.258
7.8	3.5435
8	4.2104
8.2	4.2682
8.4	3.832
8.6	3.6175
8.8	3.8232
9	4.9781
9.2	6.2701
9.4	7.6188
9.6	6.7098
9.8	7.1735
10	6.7019
10.2	6.1998
10.4	5.9675
10.6	5.6363
10.8	4.8968
11	4.6669
11.2	5.2141
11.4	4.8396
11.6	4.9271
11.8	4.6288
12	4.2608
12.2	3.5835
12.4	2.5688
