Name: Olive green paint
Type: manmade
Class: General Construction Material
Subclass: Paint
Particle Size: Solid
Sample No.: 0408UUUPNT
Owner: National Photographic Interpretation Center
Wavelength Range: All
Origin: Spectra obtained from the Noncoventional Exploitation FactorsData System of the National Photographic Interpretation Center.
Description: Two smooth coats of alkyd gloss paint on construction lumber (pine wood). Paint coating was slightly translucent. Olive green paint from the Great Life series by Martin Senour Paints. Original ASTER Spectral Library name was jhu.becknic.manmade.construction.paint.solid.0408uuu.spectrum.txt
Measurement: Directional (10 Degree) Hemispherical Reflectance
X Units: Wavelength (micrometers)
Y Units: Reflectance (percent)
wavelength	value
0.3	5.52
0.304	5.49
0.308	5.45
0.312	5.42
0.316	5.39
0.32	5.36
0.324	5.33
0.328	5.31
0.332	5.29
0.336	5.28
0.34	5.28
0.344	5.29
0.348	5.31
0.352	5.36
0.356	5.43
0.36	5.51
0.364	5.6
0.368	5.71
0.372	5.85
0.376	6.01
0.38	6.26
0.384	6.51
0.388	6.79
0.392	7.06
0.396	7.31
0.4	7.52
0.404	7.69
0.408	7.82
0.412	7.96
0.416	8.11
0.42	8.3
0.424	8.55
0.428	8.88
0.432	9.29
0.436	9.8
0.44	10.32
0.444	10.79
0.448	11.13
0.452	11.32
0.456	11.41
0.46	11.46
0.464	11.53
0.468	11.6
0.472	11.69
0.476	11.82
0.48	11.98
0.484	12.24
0.488	12.58
0.492	13
0.496	13.47
0.5	14.03
0.504	14.71
0.508	15.51
0.512	16.4
0.516	17.38
0.52	18.42
0.524	19.5
0.528	20.56
0.532	21.52
0.536	22.23
0.54	22.62
0.544	22.56
0.548	22.05
0.552	21.1
0.556	19.87
0.56	18.54
0.564	17.26
0.568	16.15
0.572	15.2
0.576	14.42
0.58	13.8
0.584	13.31
0.588	12.88
0.592	12.48
0.596	12.07
0.6	11.69
0.604	11.36
0.608	11.11
0.612	10.95
0.616	10.86
0.62	10.82
0.624	10.8
0.628	10.79
0.632	10.79
0.636	10.83
0.64	10.93
0.644	11.08
0.648	11.26
0.652	11.49
0.656	11.75
0.66	12
0.664	12.14
0.668	12.17
0.672	12.09
0.676	11.94
0.68	11.77
0.684	11.59
0.688	11.36
0.692	11.09
0.696	10.8
0.7	10.51
0.704	10.28
0.708	10.16
0.712	10.21
0.716	10.39
0.72	10.7
0.724	11.16
0.728	11.76
0.732	12.61
0.736	13.81
0.74	15.6
0.744	18.24
0.748	22
0.752	27.01
0.756	32.96
0.76	39.26
0.764	45.22
0.768	50.19
0.772	54.11
0.776	56.97
0.78	59.07
0.784	60.51
0.788	61.53
0.792	62.19
0.796	62.51
0.8	62.63
0.84	60.39
0.88	57.55
0.92	57.81
0.96	59.91
1	62.32
1.04	66.97
1.08	70.8
1.12	77.59
1.16	78.53
1.2	76.41
1.24	79.35
1.28	81.7
1.32	82.05
1.36	75.86
1.4	68.01
1.44	56.37
1.48	55.47
1.52	57.42
1.56	58.57
1.6	60.53
1.64	63.22
1.68	59.8
1.72	55.17
1.76	55.91
1.8	57.33
1.84	58.72
1.88	55.95
1.92	39.32
1.96	41.75
2	46.63
2.04	43.08
2.08	37.5
2.12	36.39
2.16	38.33
2.2	41.23
2.24	36.5
2.28	28.9292
2.32	26.7984
2.36	26.2336
2.4	26.806
2.44	24.501
2.48	21.157
2.52	21.913
2.56	24.2194
2.6	25.7504
2.64	25.9214
2.68	23.5912
2.72	13.8182
2.76	7.2097
2.8	5.596
2.84	5.5453
2.88	5.1588
2.92	5.2212
2.96	5.362
3	5.669
3.04	5.3377
3.08	5.4007
3.12	5.4727
3.16	5.4101
3.2	5.3646
3.24	5.5768
3.28	5.6069
3.32	5.6798
3.36	4.8102
3.4	4.7345
3.44	5.3845
3.48	5.1936
3.52	5.4751
3.56	6.0728
3.6	6.6366
3.64	6.7724
3.68	6.9797
3.72	7.4764
3.76	7.5465
3.8	8.2013
3.84	8.3411
3.88	8.7259
3.92	9.2829
3.96	9.4646
4	10.4364
4.04	11.2328
4.08	12.0302
4.12	12.7472
4.16	13.3102
4.2	14.1004
4.24	14.4626
4.28	14.778
4.32	15.2716
4.36	15.338
4.4	15.2686
4.44	14.899
4.48	14.7704
4.52	14.7978
4.56	14.246
4.6	13.7532
4.64	13.0948
4.68	12.8826
4.72	12.9426
4.76	12.9444
4.8	12.9844
4.84	12.8452
4.88	12.5446
4.92	12.6528
4.96	12.851
5	13.022
5.2	13.9438
5.4	12.0053
5.6	5.9887
5.8	5.5295
6	5.4131
6.2	5.2336
6.4	6.162
6.6	4.8193
6.8	4.0753
7	4.3012
7.2	4.041
7.4	4.0053
7.6	3.552
7.8	3.5812
8	4.4632
8.2	4.3584
8.4	3.7526
8.6	3.547
8.8	3.7906
9	4.6745
9.2	5.7118
9.4	7.1736
9.6	6.6124
9.8	6.8431
10	6.6028
10.2	5.96
10.4	5.8102
10.6	5.6297
10.8	4.951
11	4.6798
11.2	4.8269
11.4	4.9857
11.6	4.7464
11.8	4.504
12	4.1706
12.2	3.4447
12.4	2.6773
