Name: Flat Black Paint
Type: Manmade
Class: General Construction Material
Subclass: Paint
Particle Size: Solid
Sample No.: 1249
Owner: JPL
Wavelength Range: TIR
Origin: The Testor Corp., 620 Buckbee St., Rockford, IL 61104
Description: Flat black spray enamel paintCollected by JPL Original ASTER Spectral Library name was jpl.nicolet.manmade.construction.paint.solid.1249.spectrum.txt
Measurement: Hemispherical reflectance
X Units: Wavelength (micrometers)
Y Units: Reflectance (percent)
wavelength	value
14.0131	6.3974
13.7895	6.6823
13.5729	7.0151
13.363	6.4847
13.1595	7.3859
12.9621	7.1182
12.7705	6.5847
12.5845	6.6919
12.4039	7.1485
12.2284	6.5741
12.0578	7.0534
11.8918	7.4016
11.7304	7.7527
11.5733	7.5807
11.4203	7.7772
11.2714	7.6937
11.1263	7.6479
10.9848	7.8411
10.8469	7.91
10.7125	7.9737
10.5813	8.3595
10.4533	8.5358
10.3284	8.849
10.2064	9.6818
10.0872	10.8087
9.9708	12.216
9.8571	14.4382
9.7459	12.556
9.6372	8.9699
9.5309	6.9236
9.427	6.4524
9.3252	6.0687
9.2257	5.922
9.1282	6.0104
9.0328	6.0715
8.9394	5.9672
8.8478	5.7171
8.7582	5.7542
8.6703	5.7367
8.5842	6.0468
8.4997	5.6576
8.4169	5.7719
8.3357	5.7526
8.2561	5.9522
8.178	5.9183
8.1013	6.033
8.0261	6.219
7.9522	5.8821
7.8797	5.8877
7.8085	5.4774
7.7386	5.2451
7.6699	5.1759
7.6024	5.2603
7.5361	5.5679
7.4709	5.6151
7.4069	5.5544
7.344	5.8041
7.2821	5.7925
7.2212	5.683
7.1614	5.8209
7.1025	5.8856
7.0446	5.8459
6.9877	5.9943
6.9316	5.9208
6.8764	5.8003
6.8221	5.6066
6.7687	5.6012
6.7161	5.793
6.6643	5.8434
6.6133	5.8136
6.5631	5.9017
6.5136	5.9945
6.4649	6.0197
6.4169	6.2067
6.3696	6.1239
6.323	5.9649
6.277	6.0778
6.2318	6.083
6.1871	5.9904
6.1432	6.0068
6.0998	6.2111
6.0571	6.1783
6.0149	6.3213
5.9733	6.3121
5.9323	6.3193
5.8919	6.3499
5.852	6.358
5.8126	6.411
5.7738	6.0528
5.7354	5.3106
5.6976	5.0974
5.6603	5.553
5.6235	5.8199
5.5871	5.7682
5.5512	5.773
5.5158	5.8663
5.4808	5.9136
5.4463	5.87
5.4121	5.8588
5.3785	5.9765
5.3452	5.945
5.3123	5.9762
5.2799	5.941
5.2478	6.0561
5.2161	5.9295
5.1848	5.8582
5.1539	5.9235
5.1234	5.9641
5.0932	5.9715
5.0633	6.0439
5.0338	6.0789
5.0047	5.9411
4.9759	6.0465
4.9474	6.0524
4.9192	5.9729
4.8914	6.0838
4.8638	6.0698
4.8366	6.0715
4.8097	6.0064
4.7831	6.0377
4.7567	6.1121
4.7307	6.1
4.7049	6.0401
4.6795	5.9795
4.6543	6.0308
4.6293	6.0682
4.6047	6.053
4.5802	6.0518
4.5561	6.1074
4.5322	6.1183
4.5085	6.129
4.4851	6.0052
4.462	6.0811
4.4391	6.0747
4.4164	6.0434
4.3939	6.1423
4.3717	6.0669
4.3497	6.0603
4.3279	6.0643
4.3063	6.0363
4.285	6.089
4.2638	6.0361
4.2429	6.0492
4.2222	6.1814
4.2016	6.0327
4.1813	6.0915
4.1612	6.1849
4.1412	6.0258
4.1215	6.0556
4.1019	6.09
4.0826	6.0914
4.0633	6.1112
4.0443	6.195
4.0255	6.2768
4.0068	6.0701
3.9883	5.9523
3.97	6.1575
3.9519	5.9915
3.9339	5.996
3.916	6.1112
3.8984	6.0396
3.8809	6.1104
3.8635	6.1942
3.8463	6.2008
3.8293	6.012
3.8124	6.0935
3.7956	6.0605
3.779	6.1936
3.7626	6.1288
3.7463	6.0987
3.7301	6.0636
3.7141	6.0665
3.6982	6.0863
3.6824	6.0575
3.6668	6.2065
3.6513	6.0754
3.6359	6.0338
3.6207	6.1606
3.6056	6.198
3.5906	6.1313
3.5758	6.2016
3.561	6.2502
3.5464	6.1807
3.5319	6.3957
3.5175	6.4161
3.5033	6.0532
3.4891	6.1819
3.4751	6.0898
3.4612	6.2281
3.4474	6.2085
3.4337	6.4295
3.4201	5.8497
3.4066	5.6928
3.3932	5.7775
3.3799	5.7513
3.3668	5.7109
3.3537	5.7469
3.3407	5.865
3.3279	5.8444
3.3151	5.7587
3.3024	5.8209
3.2899	5.6964
3.2774	5.823
3.265	5.8532
3.2527	5.9255
3.2405	5.7963
3.2284	5.9249
3.2164	5.865
3.2045	5.9409
3.1926	5.9414
3.1809	5.8974
3.1692	5.904
3.1576	6.0108
3.1461	6.0408
3.1347	5.9695
3.1234	6.0287
3.1121	5.9914
3.101	5.8678
3.0899	5.8355
3.0789	5.9409
3.068	5.8591
3.0571	6.0361
3.0463	5.8602
3.0356	5.9346
3.025	5.9211
3.0144	6.0497
3.004	6.0899
2.9935	5.9241
2.9832	6.1283
2.9729	5.9897
2.9628	5.9432
2.9526	6.1285
2.9426	6.0044
2.9326	5.918
2.9227	5.9338
2.9128	6.0611
2.903	5.9228
2.8933	5.8071
2.8837	5.7765
2.8741	5.8045
2.8645	5.8581
2.8551	6.1059
2.8457	5.8784
2.8363	5.8003
2.8271	5.8507
2.8178	5.7767
2.8087	5.9126
2.7996	5.7863
2.7906	5.9413
2.7816	5.768
2.7726	6.0289
2.7638	5.8651
2.755	5.9857
2.7462	5.8088
2.7375	5.9196
2.7289	5.8476
2.7203	5.6725
2.7117	5.8117
2.7033	5.9622
2.6948	5.7375
2.6864	5.8919
2.6781	5.8351
2.6698	5.8904
2.6616	5.7797
2.6534	5.7486
2.6453	5.7195
2.6372	5.8388
2.6292	5.9504
2.6212	5.721
2.6133	5.9093
2.6054	5.9373
2.5976	5.7304
2.5898	6.0238
2.5821	5.8009
2.5744	5.8814
2.5667	5.7687
2.5591	5.8511
2.5516	5.817
2.5441	5.7279
2.5366	5.8478
2.5292	5.7329
2.5218	5.7069
2.5145	5.6385
2.5072	5.7797
2.4999	5.8076
2.4927	5.9246
2.4855	5.7579
2.4784	5.7146
2.4713	5.7903
2.4643	5.8466
2.4573	5.7549
2.4503	5.7301
2.4434	5.7488
2.4365	5.6995
2.4296	5.8571
2.4228	5.6832
2.416	5.8238
2.4093	5.7746
2.4026	5.5891
2.396	5.6902
2.3893	5.7728
2.3827	5.8079
2.3762	5.8234
2.3697	5.6939
2.3632	5.7231
2.3567	5.6083
2.3503	5.6508
2.344	5.8304
2.3376	5.7919
2.3313	5.6612
2.325	5.873
2.3188	5.7717
2.3126	5.625
2.3064	5.7626
2.3003	5.9415
2.2942	5.8415
2.2881	5.5107
2.2821	5.5552
2.2761	5.837
2.2701	5.8237
2.2641	5.5593
2.2582	5.8189
2.2523	5.9527
2.2465	5.6877
2.2406	5.7529
2.2348	5.7121
2.2291	5.6786
2.2233	5.7883
2.2176	5.7349
2.212	5.5674
2.2063	5.5706
2.2007	5.4931
2.1951	5.7853
2.1895	5.8855
2.184	5.742
2.1785	5.6417
2.173	5.7505
2.1676	5.59
2.1622	5.7066
2.1568	5.468
2.1514	5.7235
2.146	5.636
2.1407	5.9271
2.1354	5.7844
2.1302	5.7053
2.1249	5.9107
2.1197	5.5279
2.1145	5.409
2.1094	5.5361
2.1042	5.6044
2.0991	5.3695
2.094	5.6096
2.089	5.8289
2.0839	6.1001
2.0789	6.0309
2.0739	5.551
2.069	5.6058
2.064	5.472
2.0591	5.4939
2.0542	5.8512
2.0493	5.5233
2.0445	5.6451
2.0397	5.4764
2.0349	5.8933
2.0301	5.4718
2.0253	5.7171
2.0206	5.8681
2.0159	5.7409
2.0112	5.5617
2.0065	5.7142
2.0019	5.6254
