Name: Gold plate
Type: Manmade
Class: Reflectance target
Subclass: None
Particle Size: Solid
Sample No.: 001682
Owner: JPL
Wavelength Range: TIR
Origin: Labsphere, P.O. Box 70, Shaker Street, North Sutton, NH 03260(603) 927-4266
Description: Measurement made at center. Field Gold.Oct. 29 1997 to Oct. 30 1997. Original ASTER Spectral Library name was jpl.nicolet.manmade.target.none.solid.fg11097j.spectrum.txt
Measurement: Hemispherical Reflectance
X Units: Wavelength (micrometers)
Y Units: Reflectence (percent)
wavelength	value
15.3853	89.9118
15.1161	89.972
14.8563	90.0547
14.6052	89.8931
14.3624	89.7649
14.1276	89.9894
13.9004	90.1673
13.6803	90.1745
13.4671	90.2207
13.2604	90.0841
13.06	90.119
12.8656	90.0223
12.6769	89.9464
12.4936	90.0902
12.3155	90.5471
12.1425	90.8285
11.9742	90.9215
11.8106	90.773
11.6513	90.6925
11.4963	90.0128
11.3454	90.0867
11.1983	90.1453
11.0551	89.6963
10.9154	89.2869
10.7793	89.2481
10.6465	89.0118
10.5169	88.8446
10.3904	88.3569
10.267	87.7195
10.1464	87.0494
10.0287	86.2858
9.9136	85.7789
9.8012	85.543
9.6913	85.4039
9.5838	85.561
9.4787	86.0023
9.3758	86.7038
9.2752	87.1002
9.1767	87.1541
9.0803	87.4479
8.9858	87.7127
8.8934	88.2477
8.8028	88.6664
8.714	88.9808
8.627	89.122
8.5417	89.4673
8.4581	90.0694
8.3761	90.4954
8.2957	90.7444
8.2169	90.8444
8.1395	91.1085
8.0635	91.1623
7.989	91.2354
7.9158	91.1888
7.8439	91.3182
7.7734	91.1443
7.7041	91.1948
7.636	91.054
7.5691	90.8431
7.5034	90.846
7.4388	90.7386
7.3753	90.6655
7.3129	90.3816
7.2515	90.3707
7.1912	90.3201
7.1318	90.1606
7.0734	89.9765
7.016	90.038
6.9595	90.542
6.9039	90.1609
6.8492	90.4363
6.7953	90.8032
6.7423	90.526
6.6901	90.9229
6.6387	92.1834
6.5881	91.5379
6.5382	91.2709
6.4892	92.3641
6.4408	91.343
6.3931	91.087
6.3462	91.4812
6.2999	90.6826
6.2543	90.5786
6.2094	90.6346
6.1651	90.837
6.1214	90.9395
6.0784	91.158
6.0359	91.0369
5.994	91.4909
5.9527	91.2576
5.912	91.5275
5.8718	91.9424
5.8322	92.1323
5.7931	91.7908
5.7545	92.0751
5.7165	92.4997
5.6789	92.4299
5.6418	92.8835
5.6052	92.2879
5.5691	92.1974
5.5334	92.3341
5.4982	92.3913
5.4635	92.7691
5.4291	92.6927
5.3952	92.4756
5.3618	92.5272
5.3287	92.4871
5.2961	92.5104
5.2638	92.4665
5.2319	92.6338
5.2004	92.661
5.1693	92.663
5.1386	92.6013
5.1082	92.6538
5.0782	92.5893
5.0485	92.6671
5.0192	92.6895
4.9902	92.634
4.9616	92.6154
4.9332	92.6613
4.9052	92.6135
4.8776	92.7145
4.8502	92.7028
4.8231	92.6365
4.7963	92.6211
4.7699	92.622
4.7437	92.7387
4.7178	92.5667
4.6922	92.6184
4.6668	92.605
4.6418	92.5882
4.617	92.6144
4.5924	92.5434
4.5681	92.6468
4.5441	92.5684
4.5203	92.631
4.4968	92.5204
4.4735	92.6236
4.4505	92.5516
4.4277	92.4862
4.4051	92.5178
4.3828	92.54
4.3607	92.5291
4.3388	92.5222
4.3171	92.5001
4.2956	92.1092
4.2744	92.1214
4.2534	92.2917
4.2325	91.9633
4.2119	92.287
4.1915	92.5052
4.1712	92.5037
4.1512	92.4047
4.1313	92.419
4.1117	92.3646
4.0922	92.3656
4.0729	92.3891
4.0538	92.281
4.0349	92.2716
4.0161	92.1171
3.9976	92.0505
3.9792	91.9758
3.9609	91.9539
3.9428	91.9797
3.9249	92.1044
3.9072	92.0522
3.8896	92.0558
3.8722	92.0388
3.8549	91.9908
3.8378	91.9584
3.8208	92.0489
3.804	91.869
3.7873	91.9851
3.7708	91.9701
3.7544	92.0256
3.7382	92.0045
3.7221	91.8947
3.7061	91.919
3.6903	91.8967
3.6746	91.8679
3.659	91.7665
3.6436	91.739
3.6283	91.7324
3.6131	91.726
3.5981	91.658
3.5832	91.5119
3.5684	91.5708
3.5537	91.5515
3.5391	91.4013
3.5247	91.2682
3.5104	90.775
3.4962	90.8146
3.4821	90.9057
3.4681	90.7293
3.4543	90.7027
3.4405	90.5976
3.4269	90.0835
3.4133	90.3235
3.3999	90.4437
3.3866	90.5107
3.3733	90.6088
3.3602	90.8425
3.3472	90.9062
3.3343	91.0143
3.3215	91.004
3.3088	90.9274
3.2961	90.857
3.2836	90.8045
3.2712	90.7901
3.2588	90.7779
3.2466	90.7533
3.2345	90.5726
3.2224	90.6081
3.2104	90.4724
3.1985	90.3697
3.1867	90.4621
3.175	90.211
3.1634	90.1543
3.1519	90.101
3.1404	90.0578
3.129	89.9903
3.1178	89.8747
3.1065	89.9206
3.0954	89.5849
3.0844	89.683
3.0734	89.6503
3.0625	89.578
3.0517	89.3492
3.041	89.4202
3.0303	89.2852
3.0197	89.3351
3.0092	89.2303
2.9987	89.2176
2.9884	89.2035
2.9781	89.1721
2.9678	89.2121
2.9577	89.2497
2.9476	89.2018
2.9376	89.2134
2.9276	89.2792
2.9177	89.1473
2.9079	89.2365
2.8982	89.3552
2.8885	89.272
2.8789	89.5664
2.8693	89.4876
2.8598	89.5869
2.8504	89.5028
2.841	89.5034
2.8317	89.5787
2.8224	89.568
2.8133	89.6979
2.8041	89.9026
2.7951	89.5975
2.786	90.0018
2.7771	89.6873
2.7682	89.9314
2.7594	89.3358
2.7506	89.619
2.7418	90.3643
2.7332	90.1915
2.7246	91.1519
2.716	90.6781
2.7075	90.5771
2.699	90.8802
2.6906	91.3601
2.6823	91.8749
2.674	91.7065
2.6657	92.5641
2.6575	91.6189
2.6494	91.5693
2.6413	91.5088
2.6332	91.8412
2.6252	91.6851
2.6173	92.1197
2.6094	91.8145
2.6015	91.5929
2.5937	92.4145
2.5859	91.7972
2.5782	91.7338
2.5706	91.6448
2.5629	91.8643
2.5554	91.5726
2.5478	91.5224
2.5403	91.4418
2.5329	91.4975
2.5255	91.5099
2.5181	91.4501
2.5108	91.4329
2.5035	91.4915
2.4963	91.3573
2.4891	91.4138
2.482	91.3354
2.4749	91.2939
2.4678	91.3398
2.4608	91.4461
2.4538	91.4126
2.4468	91.3169
2.4399	91.2967
2.4331	91.2687
2.4262	91.438
2.4194	91.3495
2.4127	91.3763
2.4059	91.4205
2.3993	91.2045
2.3926	91.2631
2.386	91.3575
2.3795	91.2386
2.3729	91.2122
2.3664	91.0221
2.36	91.1852
2.3535	91.2379
2.3471	91.1056
2.3408	91.1195
2.3345	91.2634
2.3282	91.0776
2.3219	91.1278
2.3157	91.3623
2.3095	91.1048
2.3034	91.0586
2.2972	91.1115
2.2911	91.109
2.2851	91.1692
2.279	91.2155
2.2731	91.22
2.2671	91.0195
2.2612	91.0103
2.2553	91.1255
2.2494	91.0331
2.2435	91.219
2.2377	90.9204
2.232	91.0875
2.2262	90.8927
2.2205	91.1302
2.2148	90.9893
2.2091	91.0696
2.2035	90.8692
2.1979	90.9086
2.1923	90.9381
2.1868	91.0709
2.1812	90.9513
2.1758	91.1089
2.1703	91.0179
2.1649	90.9408
2.1595	90.9601
2.1541	90.9296
2.1487	91.1761
2.1434	90.7399
2.1381	91.0851
2.1328	91.105
2.1275	90.938
2.1223	90.5733
2.1171	90.894
2.112	90.7949
2.1068	90.6739
2.1017	90.7956
2.0966	90.8097
2.0915	90.7825
2.0865	91.0358
2.0814	90.9627
2.0764	90.7664
2.0715	90.8813
2.0665	90.6831
2.0616	90.5874
2.0567	90.7946
2.0518	90.5637
2.0469	91.0007
2.0421	90.6022
2.0373	90.7827
2.0325	90.8543
2.0277	90.799
2.0229	90.9538
2.0182	90.6066
2.0135	90.6539
2.0088	90.381
2.0042	90.5723
