Name: Asphalt Shingle
Type: manmade
Class: Roofing Material
Subclass: Roofing Shingle
Particle Size: Solid
Sample No.: 0490UUUASP
Owner: National Photographic Interpretation Center
Wavelength Range: All
Origin: Spectra obtained from the Noncoventional Exploitation FactorsData System of the National Photographic Interpretation Center.
Description: White, granule-covered asphalt roofing shingle. Sample was tar paper, with a white sand coating over construction asphalt. Original ASTER Spectral Library name was jhu.becknic.manmade.roofing.shingle.solid.0490uuu.spectrum.txt
Measurement: Directional (10 Degree) Hemispherical Reflectance
X Units: Wavelength (micrometers)
Y Units: Reflectance (percent)
wavelength	value
0.3	3.88
0.304	3.91
0.308	3.93
0.312	3.92
0.316	3.92
0.32	3.9
0.324	3.87
0.328	3.85
0.332	3.85
0.336	3.87
0.34	3.92
0.344	4.01
0.348	4.17
0.352	4.38
0.356	4.65
0.36	4.99
0.364	5.39
0.368	5.89
0.372	6.49
0.376	7.26
0.38	8.48
0.384	10.02
0.388	12.22
0.392	15.18
0.396	18.61
0.4	21.94
0.404	24.63
0.408	26.34
0.412	27.22
0.416	27.66
0.42	27.9
0.424	28.06
0.428	28.2
0.432	28.33
0.436	28.47
0.44	28.59
0.444	28.7
0.448	28.81
0.452	28.9
0.456	28.99
0.46	29.07
0.464	29.13
0.468	29.18
0.472	29.22
0.476	29.27
0.48	29.29
0.484	29.34
0.488	29.39
0.492	29.43
0.496	29.51
0.5	29.56
0.504	29.58
0.508	29.64
0.512	29.67
0.516	29.72
0.52	29.76
0.524	29.81
0.528	29.85
0.532	29.9
0.536	29.96
0.54	30.01
0.544	30.06
0.548	30.12
0.552	30.17
0.556	30.25
0.56	30.3
0.564	30.38
0.568	30.43
0.572	30.49
0.576	30.52
0.58	30.56
0.584	30.59
0.588	30.62
0.592	30.63
0.596	30.65
0.6	30.64
0.604	30.63
0.608	30.62
0.612	30.6
0.616	30.59
0.62	30.57
0.624	30.54
0.628	30.51
0.632	30.48
0.636	30.44
0.64	30.4
0.644	30.38
0.648	30.33
0.652	30.29
0.656	30.26
0.66	30.22
0.664	30.19
0.668	30.15
0.672	30.12
0.676	30.07
0.68	30.03
0.684	29.99
0.688	29.94
0.692	29.9
0.696	29.88
0.7	29.83
0.704	29.79
0.708	29.75
0.712	29.72
0.716	29.7
0.72	29.66
0.724	29.62
0.728	29.59
0.732	29.56
0.736	29.51
0.74	29.48
0.744	29.46
0.748	29.41
0.752	29.38
0.756	29.35
0.76	29.34
0.764	29.31
0.768	29.27
0.772	29.24
0.776	29.21
0.78	29.19
0.784	29.16
0.788	29.14
0.792	29.1
0.796	29.04
0.8	29.02
0.84	28.55
0.88	28.15
0.92	27.71
0.96	27.28
1	26.89
1.04	26.39
1.08	25.91
1.12	25.49
1.16	25.05
1.2	24.66
1.24	24.35
1.28	24.04
1.32	23.72
1.36	23.42
1.4	22.88
1.44	22.78
1.48	22.58
1.52	22.38
1.56	22.14
1.6	21.93
1.64	21.66
1.68	21.38
1.72	21.24
1.76	20.98
1.8	20.75
1.84	20.47
1.88	20.13
1.92	19.44
1.96	19.43
2	20.033
2.04	19.617
2.08	19.645
2.12	19.178
2.16	18.933
2.2	17.9305
2.24	17.7945
2.28	17.238
2.32	16.532
2.36	16.251
2.4	16.0345
2.44	15.723
2.48	15.1855
2.52	16.493
2.56	16.057
2.6	15.922
2.64	15.229
2.68	12.603
2.72	6.09
2.76	4.62
2.8	5.11
2.84	5.57
2.88	4.96
2.92	5.2
2.96	4.73
3	5.31
3.04	5.48
3.08	5.53
3.12	5.8
3.16	5.98
3.2	6.36
3.24	6.62
3.28	7.05
3.32	7.48
3.36	7.37
3.4	6.91
3.44	7.32
3.48	7.16
3.52	8.2
3.56	8.79
3.6	9.2
3.64	9.12
3.68	9.54
3.72	9.39
3.76	9.32
3.8	9.69
3.84	9.41
3.88	9.55
3.92	9.27
3.96	9.7
4	9.32
4.04	9.31
4.08	9.41
4.12	9.2
4.16	9.11
4.2	8.88
4.24	8.16
4.28	8.23
4.32	8.46
4.36	8.11
4.4	7.62
4.44	7.34
4.48	7.26
4.52	7.41
4.56	7.01
4.6	6.94
4.64	6.6
4.68	6.27
4.72	6.41
4.76	6.1
4.8	5.79
4.84	5.5
4.88	5.26
4.92	4.82
4.96	4.7
5	4.47
5.2	4.08
5.4	3.73
5.6	3.3
5.8	2.92
6	2.64
6.2	2.36
6.4	2.38
6.6	2.13
6.8	1.72
7	1.47
7.2	1.31
7.4	1.3
7.6	1.31
7.8	1.29
8	1.44
8.2	1.76
8.4	1.83
8.6	2.09
8.8	2.99
9	3.78
9.2	4.87
9.4	5.52
9.6	5.86
9.8	5.13
10	5.08
10.2	4.49
10.4	4.2
10.6	3.88
10.8	3.61
11	3.86
11.2	3.59
11.4	3.31
11.6	2.99
11.8	2.71
12	2.38
12.2	2.02
12.4	1.91
12.6	1.98
12.8	1.9611
13	1.8875
13.2	1.8218
13.4	1.8513
13.6	1.8975
13.8	1.935
14	2.0309
14.2	2.0215
14.4	2.1777
14.6	2.0441
14.8	1.9456
15	1.6544
