Name: Brass plate
Type: Manmade
Class: Reflectance target
Subclass: None
Particle Size: Solid
Sample No.: ILF-17464-2-2-c
Owner: JPL
Wavelength Range: TIR
Origin: Labsphere, P.O. Box 70, Shaker Street, North Sutton, NH 03260(603) 927-4266
Description: Measurement made at center. Field Brass 1.Measured Oct. 29 1997 Original ASTER Spectral Library name was jpl.nicolet.manmade.target.none.solid.bp11097a.spectrum.txt
Measurement: Hemispherical Reflectance
X Units: Wavelength (micrometers)
Y Units: Reflectence (percent)
wavelength	value
15.3853	88.3067
15.1161	88.3903
14.8563	88.6056
14.6052	88.3576
14.3624	88.366
14.1276	88.1282
13.9004	88.1109
13.6803	88.2937
13.4671	88.3794
13.2604	88.3625
13.06	88.0819
12.8656	87.8106
12.6769	87.7536
12.4936	87.6012
12.3155	88.0051
12.1425	88.1443
11.9742	88.2501
11.8106	88.0623
11.6513	88.0118
11.4963	87.1877
11.3454	87.3308
11.1983	87.5039
11.0551	87.3014
10.9154	86.9988
10.7793	86.9231
10.6465	86.6763
10.5169	86.4148
10.3904	85.9918
10.267	85.7487
10.1464	85.5104
10.0287	85.2828
9.9136	85.0261
9.8012	85.1371
9.6913	85.1677
9.5838	85.1469
9.4787	85.2196
9.3758	85.5559
9.2752	85.8187
9.1767	85.9913
9.0803	86.1304
8.9858	86.3413
8.8934	86.5338
8.8028	86.5457
8.714	86.542
8.627	86.6911
8.5417	87.0253
8.4581	87.3092
8.3761	87.6044
8.2957	87.8607
8.2169	88.0765
8.1395	88.2325
8.0635	88.4592
7.989	88.5568
7.9158	88.947
7.8439	89.3835
7.7734	89.6121
7.7041	89.7059
7.636	89.7399
7.5691	89.7453
7.5034	89.7482
7.4388	89.5512
7.3753	89.2346
7.3129	88.9832
7.2515	88.7565
7.1912	88.6177
7.1318	88.5331
7.0734	88.5867
7.016	88.6346
6.9595	88.7635
6.9039	88.6941
6.8492	88.7542
6.7953	88.8683
6.7423	88.7701
6.6901	89.0816
6.6387	89.6795
6.5881	89.6596
6.5382	89.7234
6.4892	90.3095
6.4408	90.1286
6.3931	89.9891
6.3462	90.1726
6.2999	89.6419
6.2543	89.6384
6.2094	89.5496
6.1651	89.4673
6.1214	89.856
6.0784	90.0159
6.0359	90.1616
5.994	90.3824
5.9527	90.2528
5.912	90.2845
5.8718	90.4704
5.8322	90.4957
5.7931	90.4955
5.7545	90.6217
5.7165	90.6886
5.6789	90.6646
5.6418	90.834
5.6052	90.5873
5.5691	90.1895
5.5334	90.592
5.4982	90.5944
5.4635	90.848
5.4291	90.7523
5.3952	90.7611
5.3618	90.7
5.3287	90.6614
5.2961	90.7903
5.2638	90.7985
5.2319	90.8033
5.2004	90.9377
5.1693	90.9173
5.1386	90.8606
5.1082	90.8634
5.0782	90.8833
5.0485	90.9512
5.0192	90.9205
4.9902	90.8864
4.9616	90.9557
4.9332	91.0024
4.9052	91.0823
4.8776	91.0638
4.8502	91.0338
4.8231	91.1297
4.7963	91.0926
4.7699	91.0642
4.7437	91.1303
4.7178	91.0585
4.6922	91.0349
4.6668	90.9982
4.6418	91.0479
4.617	91.0104
4.5924	91.0053
4.5681	91.0654
4.5441	91.0883
4.5203	91.0743
4.4968	91.0181
4.4735	91.0771
4.4505	91.0416
4.4277	91.0186
4.4051	90.9238
4.3828	91.103
4.3607	91.1161
4.3388	91.0623
4.3171	91.0884
4.2956	91.2086
4.2744	91.1754
4.2534	91.1072
4.2325	91.2509
4.2119	91.0578
4.1915	91.0094
4.1712	90.8851
4.1512	90.9303
4.1313	90.9807
4.1117	90.9649
4.0922	90.8336
4.0729	90.965
4.0538	90.8642
4.0349	90.9097
4.0161	90.6709
3.9976	90.4478
3.9792	90.4513
3.9609	90.3337
3.9428	90.5134
3.9249	90.5741
3.9072	90.5906
3.8896	90.6988
3.8722	90.732
3.8549	90.5523
3.8378	90.6987
3.8208	90.7322
3.804	90.7097
3.7873	90.6888
3.7708	90.759
3.7544	90.7355
3.7382	90.7115
3.7221	90.7129
3.7061	90.8046
3.6903	90.7466
3.6746	90.7401
3.659	90.6569
3.6436	90.7179
3.6283	90.7507
3.6131	90.5938
3.5981	90.5753
3.5832	90.5739
3.5684	90.5269
3.5537	90.6304
3.5391	90.4425
3.5247	90.4811
3.5104	90.2255
3.4962	90.0884
3.4821	90.0433
3.4681	89.9926
3.4543	90.0492
3.4405	90.02
3.4269	89.833
3.4133	89.7981
3.3999	89.9585
3.3866	89.971
3.3733	89.9236
3.3602	90.058
3.3472	89.9757
3.3343	90.1697
3.3215	90.2231
3.3088	90.0661
3.2961	90.159
3.2836	90.1774
3.2712	90.2551
3.2588	90.0773
3.2466	89.9195
3.2345	89.9923
3.2224	90.0802
3.2104	90.0913
3.1985	90.0281
3.1867	89.9869
3.175	89.9704
3.1634	89.9117
3.1519	89.8315
3.1404	89.8431
3.129	89.8941
3.1178	89.8163
3.1065	89.6402
3.0954	89.7598
3.0844	89.6281
3.0734	89.5977
3.0625	89.621
3.0517	89.7598
3.041	89.6549
3.0303	89.6286
3.0197	89.382
3.0092	89.7702
2.9987	89.414
2.9884	89.6601
2.9781	89.4704
2.9678	89.5571
2.9577	89.5168
2.9476	89.4548
2.9376	89.4984
2.9276	89.4376
2.9177	89.4647
2.9079	89.4692
2.8982	89.4034
2.8885	89.5777
2.8789	89.5323
2.8693	89.6797
2.8598	89.4536
2.8504	89.4242
2.841	89.5222
2.8317	89.4249
2.8224	89.2917
2.8133	89.505
2.8041	89.2983
2.7951	89.4017
2.786	89.3904
2.7771	89.3088
2.7682	89.294
2.7594	89.3697
2.7506	89.3033
2.7418	89.6302
2.7332	89.7017
2.7246	90.1502
2.716	89.9128
2.7075	90.0713
2.699	90.2891
2.6906	90.4996
2.6823	90.6324
2.674	90.6048
2.6657	90.9496
2.6575	90.4871
2.6494	90.5678
2.6413	90.5612
2.6332	90.5622
2.6252	90.7006
2.6173	90.6801
2.6094	90.7125
2.6015	90.6955
2.5937	90.8864
2.5859	90.5697
2.5782	90.7079
2.5706	90.619
2.5629	90.7125
2.5554	90.5274
2.5478	90.5912
2.5403	90.6037
2.5329	90.5973
2.5255	90.6292
2.5181	90.3804
2.5108	90.4137
2.5035	90.4052
2.4963	90.5788
2.4891	90.4007
2.482	90.4133
2.4749	90.523
2.4678	90.513
2.4608	90.5059
2.4538	90.3497
2.4468	90.3388
2.4399	90.291
2.4331	90.41
2.4262	90.4741
2.4194	90.523
2.4127	90.2779
2.4059	90.66
2.3993	90.5643
2.3926	90.2825
2.386	90.4803
2.3795	90.4588
2.3729	90.4521
2.3664	90.4945
2.36	90.4688
2.3535	90.4371
2.3471	90.3445
2.3408	90.196
2.3345	90.2486
2.3282	90.4104
2.3219	90.3343
2.3157	90.1705
2.3095	90.2532
2.3034	90.4207
2.2972	90.3403
2.2911	90.2734
2.2851	90.2731
2.279	90.0908
2.2731	90.2485
2.2671	90.2046
2.2612	90.4221
2.2553	90.3575
2.2494	90.2548
2.2435	90.3307
2.2377	90.2985
2.232	90.2233
2.2262	90.3881
2.2205	90.4177
2.2148	90.163
2.2091	90.1675
2.2035	90.3065
2.1979	90.1433
2.1923	90.2122
2.1868	90.1919
2.1812	90.3339
2.1758	90.0619
2.1703	90.1312
2.1649	90.2224
2.1595	90.2922
2.1541	90.3798
2.1487	90.1021
2.1434	90.2775
2.1381	90.1154
2.1328	90.2116
2.1275	90.1722
2.1223	90.5286
2.1171	89.971
2.112	90.2928
2.1068	90.0392
2.1017	90.1441
2.0966	90.0556
2.0915	90.1289
2.0865	90.1454
2.0814	89.9016
2.0764	90.1473
2.0715	90.0907
2.0665	90.2209
2.0616	90.0994
2.0567	90.0718
2.0518	89.9323
2.0469	90.2454
2.0421	89.7522
2.0373	89.8986
2.0325	89.9774
2.0277	90.2936
2.0229	90.3282
2.0182	89.9493
2.0135	90.1335
2.0088	89.9581
2.0042	90.0963
