Name: Cinders, ashen
Type: manmade
Class: General Construction Material
Subclass: Cinder
Particle Size: Solid
Sample No.: 0101UUUCIN
Owner: National Photographic Interpretation Center
Wavelength Range: All
Origin: Spectra obtained from the Noncoventional Exploitation FactorsData System of the National Photographic Interpretation Center.
Description: Black, ashen construction cinders from a railroad bed in Rome, NY. Original ASTER Spectral Library name was jhu.becknic.manmade.construction.cinder.solid.0101uuu.spectrum.txt
Measurement: Directional (10 Degree) Hemispherical Reflectance
X Units: Wavelength (micrometers)
Y Units: Reflectance (percent)
wavelength	value
0.3	2.67
0.304	2.68
0.308	2.69
0.312	2.7
0.316	2.73
0.32	3.02
0.324	3.03
0.328	3.04
0.332	3.06
0.336	3.07
0.34	3.09
0.344	3.1
0.348	3.12
0.352	3.13
0.356	3.15
0.36	3.16
0.364	3.18
0.368	3.2
0.372	3.21
0.376	3.23
0.38	3.3
0.384	3.33
0.388	3.36
0.392	3.39
0.396	3.42
0.4	3.44
0.404	3.47
0.408	3.49
0.412	3.51
0.416	3.54
0.42	3.56
0.424	3.59
0.428	3.61
0.432	3.64
0.436	3.67
0.44	3.69
0.444	3.72
0.448	3.74
0.452	3.76
0.456	3.77
0.46	3.76
0.464	3.75
0.468	3.76
0.472	3.78
0.476	3.79
0.48	3.81
0.484	3.86
0.488	3.9
0.492	3.92
0.496	3.91
0.5	3.89
0.504	3.88
0.508	3.9
0.512	3.93
0.516	3.95
0.52	3.98
0.524	3.99
0.528	4.01
0.532	4.03
0.536	4.05
0.54	4.07
0.544	4.09
0.548	4.11
0.552	4.12
0.556	4.14
0.56	4.15
0.564	4.17
0.568	4.19
0.572	4.2
0.576	4.21
0.58	4.22
0.584	4.23
0.588	4.24
0.592	4.25
0.596	4.26
0.6	4.27
0.604	4.28
0.608	4.29
0.612	4.3
0.616	4.3
0.62	4.31
0.624	4.32
0.628	4.33
0.632	4.34
0.636	4.34
0.64	4.35
0.644	4.36
0.648	4.36
0.652	4.38
0.656	4.38
0.66	4.39
0.664	4.4
0.668	4.41
0.672	4.42
0.676	4.43
0.68	4.44
0.684	4.44
0.688	4.45
0.692	4.46
0.696	4.48
0.7	4.48
0.704	4.49
0.708	4.5
0.712	4.51
0.716	4.51
0.72	4.53
0.724	4.53
0.728	4.54
0.732	4.55
0.736	4.56
0.74	4.56
0.744	4.57
0.748	4.58
0.752	4.59
0.756	4.59
0.76	4.6
0.764	4.61
0.768	4.62
0.772	4.63
0.776	4.63
0.78	4.64
0.784	4.65
0.788	4.65
0.792	4.66
0.796	4.67
0.8	4.67
0.84	4.74
0.88	5
0.92	5.03
0.96	5.06
1	5.12
1.04	5.21
1.08	5.25
1.12	5.33
1.16	5.36
1.2	5.4
1.24	5.46
1.28	5.48
1.32	5.53
1.36	5.55
1.4	5.59
1.44	5.62
1.48	5.69
1.52	5.71
1.56	5.74
1.6	5.79
1.64	5.81
1.68	5.86
1.72	5.94
1.76	5.94
1.8	5.99
1.84	5.98
1.88	6.02
1.92	6.03
1.96	6.11
2	6.11
2.04	6.15
2.08	6.21
2.12	6.26
2.16	6.26
2.2	6.28
2.24	6.29
2.28	6.3521
2.32	6.1425
2.36	6.4179
2.4	6.2653
2.44	6.1811
2.48	6.2275
2.52	6.1829
2.56	6.1211
2.6	6.2232
2.64	6.2715
2.68	6.319
2.72	5.9412
2.76	5.9258
2.8	6.0585
2.84	5.7167
2.88	5.4708
2.92	5.7392
2.96	5.9357
3	6.0436
3.04	6.1528
3.08	6.2075
3.12	6.1041
3.16	6.1952
3.2	6.2803
3.24	6.1054
3.28	6.0404
3.32	6.3176
3.36	5.8599
3.4	5.8094
3.44	5.5702
3.48	5.7972
3.52	5.7961
3.56	5.841
3.6	6.3555
3.64	6.1217
3.68	6.3385
3.72	6.5544
3.76	6.5721
3.8	6.3833
3.84	6.5547
3.88	6.6565
3.92	6.8222
3.96	6.8527
4	7.0118
4.04	7.0204
4.08	7.1937
4.12	7.3693
4.16	7.5719
4.2	7.3892
4.24	7.6178
4.28	7.7388
4.32	7.6947
4.36	7.6899
4.4	7.7653
4.44	7.7912
4.48	7.7284
4.52	7.8986
4.56	7.9404
4.6	8.0271
4.64	8.288
4.68	8.0093
4.72	8.0488
4.76	8.0729
4.8	8.0021
4.84	8.2333
4.88	8.0039
4.92	7.9214
4.96	7.9531
5	8.0516
5.2	8.1049
5.4	8.0874
5.6	7.9431
5.8	7.763
6	7.3569
6.2	7.3371
6.4	7.625
6.6	7.6663
6.8	7.7842
7	7.798
7.2	7.9786
7.4	7.9734
7.6	8.2439
7.8	8.4559
8	8.6118
8.2	8.6899
8.4	8.7033
8.6	8.5523
8.8	8.832
9	8.6975
9.2	8.7932
9.4	8.5871
9.6	8.4603
9.8	8.3031
10	8.3342
10.2	8.1647
10.4	8.5642
10.6	8.9949
10.8	9.1987
11	8.5742
11.2	9.1781
11.4	8.9191
11.6	8.986
11.8	9.5186
12	9.6743
12.2	10.4969
12.4	10.7326
