Name: Black gloss paint
Type: manmade
Class: General Construction Material
Subclass: Paint
Particle Size: Solid
Sample No.: 0403UUUPNT
Owner: National Photographic Interpretation Center
Wavelength Range: All
Origin: Spectra obtained from the Noncoventional Exploitation FactorsData System of the National Photographic Interpretation Center.
Description: Two smooth coats of slightly translucent alkyd gloss paint on an aluminum surface. Black gloss paint is from the Great Life series by Martin Senour Paints. The paint is non-photochemically reactive. Original ASTER Spectral Library name was jhu.becknic.manmade.construction.paint.solid.0403uuu.spectrum.txt
Measurement: Directional (10 Degree) Hemispherical Reflectance
X Units: Wavelength (micrometers)
Y Units: Reflectance (percent)
wavelength	value
0.42	3.9083
0.424	4.5794
0.428	4.5205
0.432	4.5705
0.436	4.4647
0.44	4.5125
0.444	4.4935
0.448	4.4132
0.452	4.3743
0.456	4.3655
0.46	4.3602
0.464	4.3722
0.468	4.3765
0.472	4.3672
0.476	4.3736
0.48	4.3635
0.484	4.3673
0.488	4.3507
0.492	4.3619
0.496	4.3573
0.5	4.3382
0.504	4.3514
0.508	4.3524
0.512	4.3341
0.516	4.3351
0.52	4.3174
0.524	4.3166
0.528	4.3328
0.532	4.3454
0.536	4.3497
0.54	4.3464
0.544	4.3271
0.548	4.3044
0.552	4.2977
0.556	4.3168
0.56	4.3324
0.564	4.3055
0.568	4.2988
0.572	4.2653
0.576	4.2764
0.58	4.2442
0.584	4.2538
0.588	4.2533
0.592	4.2405
0.596	4.1994
0.6	4.1895
0.604	4.1686
0.608	4.1557
0.612	4.1516
0.616	4.1464
0.62	4.1605
0.624	4.1496
0.628	4.1813
0.632	4.1783
0.636	4.16
0.64	4.1799
0.644	4.1783
0.648	4.1815
0.652	4.1952
0.656	4.1591
0.66	4.1885
0.664	4.1615
0.668	4.1578
0.672	4.1861
0.676	4.1572
0.68	4.1359
0.684	4.1572
0.688	4.1681
0.692	4.1582
0.696	4.1557
0.7	4.1532
0.704	4.1607
0.708	4.1801
0.712	4.1619
0.716	4.1541
0.72	4.1597
0.724	4.1603
0.728	4.1543
0.732	4.1776
0.736	4.1583
0.74	4.1626
0.744	4.1589
0.748	4.1767
0.752	4.1711
0.756	4.1825
0.76	4.179
0.764	4.1758
0.768	4.1679
0.772	4.1849
0.776	4.1823
0.78	4.1846
0.784	4.1872
0.788	4.1915
0.792	4.2031
0.796	4.1998
0.8	4.2062
0.84	4.2324
0.88	4.2699
0.92	4.3013
0.96	4.3333
1	4.3381
1.04	4.3335
1.08	4.3312
1.12	4.3472
1.16	4.3614
1.2	4.4352
1.24	4.4755
1.28	4.4217
1.32	4.3768
1.36	4.5252
1.4	4.4663
1.44	4.4042
1.48	4.4824
1.52	4.4528
1.56	4.4623
1.6	4.4701
1.64	4.4492
1.68	4.4205
1.72	4.39
1.76	4.3884
1.8	4.4049
1.84	4.554
1.88	4.4648
1.92	4.4727
1.96	4.3825
2	4.4105
2.04	4.4187
2.08	4.4516
2.12	4.4936
2.16	4.4957
2.2	4.51
2.24	4.519
2.28	4.4961
2.32	4.5744
2.36	4.5217
2.4	4.6022
2.44	4.5035
2.48	4.4483
2.52	4.5647
2.56	4.5126
2.6	4.5267
2.64	4.5473
2.68	4.567
2.72	4.381
2.76	4.4162
2.8	4.2584
2.84	4.1613
2.88	4.1552
2.92	4.1162
2.96	4.2878
3	4.2048
3.04	4.2971
3.08	4.2661
3.12	4.2589
3.16	4.3445
3.2	4.2779
3.24	4.3014
3.28	4.2202
3.32	4.126
3.36	3.8622
3.4	3.8887
3.44	4.4499
3.48	4.2687
3.52	4.6572
3.56	4.702
3.6	4.7023
3.64	4.7147
3.68	4.6832
3.72	4.7171
3.76	4.6748
3.8	4.705
3.84	4.7562
3.88	4.7485
3.92	4.7529
3.96	4.7721
4	4.8224
4.04	4.8189
4.08	4.8387
4.12	4.8345
4.16	4.8133
4.2	4.8761
4.24	4.8799
4.28	4.9087
4.32	4.9173
4.36	4.9044
4.4	4.9441
4.44	4.9496
4.48	4.9169
4.52	4.966
4.56	4.921
4.6	4.9651
4.64	4.9573
4.68	4.9627
4.72	4.9626
4.76	4.971
4.8	4.9607
4.84	4.9662
4.88	4.9603
4.92	4.9618
4.96	4.9564
5	4.9279
5.2	4.9161
5.4	4.739
5.6	3.7894
5.8	5.3723
6	4.883
6.2	4.6798
6.4	4.8604
6.6	4.8714
6.8	3.7724
7	4.2048
7.2	4.0124
7.4	3.9485
7.6	3.3559
7.8	3.8926
8	4.909
8.2	4.4799
8.4	4.1244
8.6	4.4037
8.8	4.605
9	5.382
9.2	5.6037
9.4	6.7385
9.6	6.3379
9.8	6.3486
10	6.1762
10.2	6.0322
10.4	6.0983
10.6	6.0721
10.8	5.9629
11	6.0726
11.2	6.0711
11.4	6.1226
11.6	6.3151
11.8	6.3367
12	6.3997
12.2	6.1937
12.4	5.2042
12.6	5.433
12.8	5.3996
13	6.0637
13.2	6.0081
13.4	5.4209
13.6	6.1359
13.8	6.47
14	6.5264
