Name: Brass plate
Type: Manmade
Class: Reflectance target
Subclass: None
Particle Size: Solid
Sample No.: ILF-17464-2-2-tr
Owner: JPL
Wavelength Range: TIR
Origin: Labsphere, P.O. Box 70, Shaker Street, North Sutton, NH 03260(603) 927-4266
Description: Measurement made at top right. Field Brass 1.Measured Oct. 29 1997. Original ASTER Spectral Library name was jpl.nicolet.manmade.target.none.solid.bp11097i.spectrum.txt
Measurement: Hemispherical Reflectance
X Units: Wavelength (micrometers)
Y Units: Reflectence (percent)
wavelength	value
15.3853	86.2272
15.1161	86.4166
14.8563	86.542
14.6052	86.249
14.3624	86.4947
14.1276	86.2752
13.9004	86.3339
13.6803	86.4624
13.4671	86.4967
13.2604	86.3905
13.06	86.3742
12.8656	86.0572
12.6769	85.95
12.4936	85.9042
12.3155	86.168
12.1425	86.2872
11.9742	86.5145
11.8106	86.2755
11.6513	86.3223
11.4963	85.5908
11.3454	85.774
11.1983	86.0481
11.0551	85.7261
10.9154	85.4728
10.7793	85.3307
10.6465	85.2405
10.5169	84.9583
10.3904	84.6283
10.267	84.4591
10.1464	84.1385
10.0287	83.9915
9.9136	83.8005
9.8012	83.6644
9.6913	83.6459
9.5838	83.7527
9.4787	83.89
9.3758	84.0559
9.2752	84.3769
9.1767	84.563
9.0803	84.6369
8.9858	84.8868
8.8934	84.9884
8.8028	84.8241
8.714	84.9648
8.627	85.1567
8.5417	85.5321
8.4581	85.5364
8.3761	85.9338
8.2957	86.1159
8.2169	86.2618
8.1395	86.499
8.0635	86.6883
7.989	86.6944
7.9158	87.015
7.8439	87.371
7.7734	87.5781
7.7041	87.6626
7.636	87.7001
7.5691	87.7345
7.5034	87.7328
7.4388	87.5833
7.3753	87.4245
7.3129	87.1492
7.2515	86.8605
7.1912	86.8301
7.1318	86.7761
7.0734	86.7947
7.016	86.8704
6.9595	86.9954
6.9039	86.9023
6.8492	86.9067
6.7953	87.1091
6.7423	86.9646
6.6901	87.2535
6.6387	87.9313
6.5881	87.8272
6.5382	87.7307
6.4892	88.4295
6.4408	88.1257
6.3931	87.9549
6.3462	88.3181
6.2999	87.7741
6.2543	87.743
6.2094	87.698
6.1651	87.6276
6.1214	87.9771
6.0784	88.0731
6.0359	88.118
5.994	88.3761
5.9527	88.1438
5.912	88.2127
5.8718	88.4091
5.8322	88.4283
5.7931	88.3762
5.7545	88.495
5.7165	88.6031
5.6789	88.5156
5.6418	88.6869
5.6052	88.4115
5.5691	88.0937
5.5334	88.3908
5.4982	88.4233
5.4635	88.5925
5.4291	88.5585
5.3952	88.4241
5.3618	88.5306
5.3287	88.4466
5.2961	88.5099
5.2638	88.5627
5.2319	88.5792
5.2004	88.6996
5.1693	88.6131
5.1386	88.5991
5.1082	88.6467
5.0782	88.6191
5.0485	88.6418
5.0192	88.6245
4.9902	88.6069
4.9616	88.6308
4.9332	88.7002
4.9052	88.6472
4.8776	88.7793
4.8502	88.6666
4.8231	88.7414
4.7963	88.7448
4.7699	88.7165
4.7437	88.7692
4.7178	88.6646
4.6922	88.6866
4.6668	88.7451
4.6418	88.7797
4.617	88.6861
4.5924	88.6896
4.5681	88.7088
4.5441	88.7903
4.5203	88.7203
4.4968	88.7001
4.4735	88.715
4.4505	88.7149
4.4277	88.6676
4.4051	88.6953
4.3828	88.7431
4.3607	88.7448
4.3388	88.6694
4.3171	88.5731
4.2956	88.2036
4.2744	88.0075
4.2534	88.4228
4.2325	87.7893
4.2119	88.3806
4.1915	88.6772
4.1712	88.6062
4.1512	88.6
4.1313	88.6391
4.1117	88.6528
4.0922	88.4911
4.0729	88.6089
4.0538	88.5244
4.0349	88.6064
4.0161	88.4738
3.9976	88.2945
3.9792	88.2476
3.9609	88.1968
3.9428	88.3
3.9249	88.3301
3.9072	88.3517
3.8896	88.4521
3.8722	88.4665
3.8549	88.297
3.8378	88.4214
3.8208	88.3919
3.804	88.4448
3.7873	88.422
3.7708	88.4812
3.7544	88.4361
3.7382	88.4939
3.7221	88.5063
3.7061	88.5049
3.6903	88.4609
3.6746	88.466
3.659	88.4218
3.6436	88.508
3.6283	88.4921
3.6131	88.3266
3.5981	88.3623
3.5832	88.3486
3.5684	88.3449
3.5537	88.3546
3.5391	88.2044
3.5247	88.2342
3.5104	87.9712
3.4962	88.0027
3.4821	87.9752
3.4681	87.8499
3.4543	87.9074
3.4405	87.9319
3.4269	87.7922
3.4133	87.7743
3.3999	87.8081
3.3866	87.8874
3.3733	87.8724
3.3602	87.9506
3.3472	87.8274
3.3343	88.0817
3.3215	88.1164
3.3088	87.9999
3.2961	88.0894
3.2836	87.9994
3.2712	88.0355
3.2588	87.983
3.2466	87.886
3.2345	87.807
3.2224	87.9156
3.2104	87.9648
3.1985	87.8341
3.1867	87.9164
3.175	87.9125
3.1634	87.8312
3.1519	87.7474
3.1404	87.8008
3.129	87.7406
3.1178	87.8159
3.1065	87.5581
3.0954	87.6465
3.0844	87.6879
3.0734	87.4741
3.0625	87.4865
3.0517	87.6089
3.041	87.5284
3.0303	87.5934
3.0197	87.4675
3.0092	87.5968
2.9987	87.5735
2.9884	87.5552
2.9781	87.5061
2.9678	87.5095
2.9577	87.5577
2.9476	87.3694
2.9376	87.4259
2.9276	87.4884
2.9177	87.4594
2.9079	87.5846
2.8982	87.3764
2.8885	87.559
2.8789	87.4587
2.8693	87.6899
2.8598	87.6162
2.8504	87.3811
2.841	87.5145
2.8317	87.4308
2.8224	87.3816
2.8133	87.4679
2.8041	87.3331
2.7951	87.5502
2.786	87.4771
2.7771	87.5603
2.7682	87.5308
2.7594	87.4234
2.7506	87.3881
2.7418	87.7199
2.7332	87.7085
2.7246	88.1094
2.716	87.7967
2.7075	87.8723
2.699	88.0127
2.6906	88.1927
2.6823	88.3183
2.674	88.3659
2.6657	88.6894
2.6575	88.2528
2.6494	88.1293
2.6413	88.2215
2.6332	88.1568
2.6252	88.2171
2.6173	88.4804
2.6094	88.2067
2.6015	88.4268
2.5937	88.6589
2.5859	88.3773
2.5782	88.3574
2.5706	88.3013
2.5629	88.3872
2.5554	88.2184
2.5478	88.3159
2.5403	88.1225
2.5329	88.2546
2.5255	88.2564
2.5181	88.1882
2.5108	88.0594
2.5035	88.1194
2.4963	88.2203
2.4891	87.9719
2.482	88.0026
2.4749	88.2273
2.4678	88.1703
2.4608	87.9691
2.4538	87.8557
2.4468	88.1425
2.4399	88.0793
2.4331	88.1981
2.4262	88.0706
2.4194	88.1688
2.4127	87.9612
2.4059	88.1419
2.3993	87.9756
2.3926	87.8252
2.386	88.1224
2.3795	88.0794
2.3729	88.1004
2.3664	88.024
2.36	88.0346
2.3535	88.0016
2.3471	88.0255
2.3408	87.9882
2.3345	87.9959
2.3282	87.8903
2.3219	88.0856
2.3157	87.8877
2.3095	87.8747
2.3034	87.9476
2.2972	87.9758
2.2911	88.0035
2.2851	87.8634
2.279	87.6253
2.2731	87.8387
2.2671	87.7262
2.2612	87.8868
2.2553	88.0388
2.2494	87.8398
2.2435	87.9525
2.2377	87.952
2.232	87.672
2.2262	87.9442
2.2205	87.957
2.2148	87.8392
2.2091	87.8983
2.2035	87.7854
2.1979	87.6012
2.1923	87.7553
2.1868	87.6603
2.1812	87.6952
2.1758	87.8896
2.1703	87.5801
2.1649	87.6613
2.1595	87.7269
2.1541	87.8457
2.1487	87.6985
2.1434	88.0508
2.1381	87.5735
2.1328	87.8172
2.1275	87.4892
2.1223	87.9961
2.1171	87.6137
2.112	87.7104
2.1068	87.5191
2.1017	87.7422
2.0966	87.5485
2.0915	87.581
2.0865	87.697
2.0814	87.764
2.0764	87.7321
2.0715	87.8355
2.0665	87.8879
2.0616	88.1644
2.0567	87.7629
2.0518	87.3671
2.0469	87.5209
2.0421	87.6564
2.0373	87.4828
2.0325	87.7112
2.0277	87.687
2.0229	87.6539
2.0182	87.6615
2.0135	87.5058
2.0088	87.7288
2.0042	87.517
