Name: Black tar paper
Type: manmade
Class: Roofing Material
Subclass: Roofing Paper
Particle Size: Solid
Sample No.: 0523UUUTAR
Owner: National Photographic Interpretation Center
Wavelength Range: All
Origin: Spectra obtained from the Noncoventional Exploitation FactorsData System of the National Photographic Interpretation Center.
Description: Unweathered, black roofing paper, thickly tarred.  Original ASTER Spectral Library name was jhu.becknic.manmade.roofing.paper.solid.0523uuu.spectrum.txt
Measurement: Directional (10 Degree) Hemispherical Reflectance
X Units: Wavelength (micrometers)
Y Units: Reflectance (percent)
wavelength	value
0.3	4.4
0.304	4.39
0.308	4.38
0.312	4.38
0.316	4.37
0.32	4.34
0.324	4.34
0.328	4.33
0.332	4.33
0.336	4.33
0.34	4.32
0.344	4.32
0.348	4.31
0.352	4.31
0.356	4.3
0.36	4.3
0.364	4.29
0.368	4.28
0.372	4.28
0.376	4.28
0.38	4.26
0.384	4.25
0.388	4.25
0.392	4.24
0.396	4.24
0.4	4.24
0.404	4.23
0.408	4.23
0.412	4.22
0.416	4.22
0.42	4.22
0.424	4.22
0.428	4.21
0.432	4.21
0.436	4.21
0.44	4.21
0.444	4.2
0.448	4.2
0.452	4.2
0.456	4.2
0.46	4.2
0.464	4.2
0.468	4.2
0.472	4.2
0.476	4.19
0.48	4.19
0.484	4.18
0.488	4.18
0.492	4.18
0.496	4.18
0.5	4.19
0.504	4.19
0.508	4.19
0.512	4.19
0.516	4.18
0.52	4.18
0.524	4.18
0.528	4.18
0.532	4.18
0.536	4.18
0.54	4.18
0.544	4.18
0.548	4.18
0.552	4.17
0.556	4.17
0.56	4.17
0.564	4.18
0.568	4.18
0.572	4.18
0.576	4.18
0.58	4.18
0.584	4.18
0.588	4.18
0.592	4.18
0.596	4.18
0.6	4.18
0.604	4.18
0.608	4.18
0.612	4.18
0.616	4.18
0.62	4.18
0.624	4.18
0.628	4.18
0.632	4.18
0.636	4.18
0.64	4.18
0.644	4.18
0.648	4.18
0.652	4.18
0.656	4.18
0.66	4.18
0.664	4.18
0.668	4.19
0.672	4.19
0.676	4.19
0.68	4.19
0.684	4.19
0.688	4.19
0.692	4.19
0.696	4.19
0.7	4.19
0.704	4.2
0.708	4.2
0.712	4.2
0.716	4.2
0.72	4.2
0.724	4.2
0.728	4.21
0.732	4.21
0.736	4.21
0.74	4.21
0.744	4.21
0.748	4.22
0.752	4.22
0.756	4.22
0.76	4.22
0.764	4.22
0.768	4.22
0.772	4.23
0.776	4.23
0.78	4.23
0.784	4.23
0.788	4.23
0.792	4.24
0.796	4.24
0.8	4.24
0.84	4.27
0.88	4.34
0.92	4.43
0.96	4.48
1	4.53
1.04	4.59
1.08	4.65
1.12	4.72
1.16	4.78
1.2	4.85
1.24	4.93
1.28	5.01
1.32	5.09
1.36	5.17
1.4	5.26
1.44	5.37
1.48	5.49
1.52	5.6
1.56	5.72
1.6	5.85
1.64	5.97
1.68	6
1.72	6
1.76	6.14
1.8	6.36
1.84	6.49
1.88	6.68
1.92	6.67
1.96	6.9
2	7.07
2.04	7.18
2.08	7.29
2.12	7.38
2.16	7.25
2.2	7.38
2.24	7.2
2.28	6.366
2.32	5.8038
2.36	5.6677
2.4	5.6853
2.44	5.744
2.48	5.984
2.52	6.2957
2.56	6.4054
2.6	6.5456
2.64	6.7096
2.68	6.7704
2.72	6.2552
2.76	5.2439
2.8	4.8107
2.84	4.6084
2.88	4.4289
2.92	4.4503
2.96	4.3632
3	4.4878
3.04	4.3797
3.08	4.5469
3.12	4.4634
3.16	4.5281
3.2	4.5559
3.24	4.3217
3.28	4.2393
3.32	4.0427
3.36	3.5152
3.4	3.5496
3.44	5.5265
3.48	4.277
3.52	5.3143
3.56	4.6371
3.6	4.5697
3.64	4.6046
3.68	4.5894
3.72	4.7315
3.76	4.7029
3.8	4.7147
3.84	4.8248
3.88	4.9482
3.92	5.0231
3.96	5.2279
4	5.2878
4.04	5.4647
4.08	5.663
4.12	5.6806
4.16	5.8165
4.2	5.9024
4.24	6.0018
4.28	6.1221
4.32	6.141
4.36	6.2836
4.4	6.314
4.44	6.3827
4.48	6.532
4.52	6.5597
4.56	6.5476
4.6	6.565
4.64	6.656
4.68	6.6397
4.72	6.714
4.76	6.7596
4.8	6.6996
4.84	6.6623
4.88	6.5548
4.92	6.4584
4.96	6.3637
5	6.4886
5.2	6.0434
5.4	5.8098
5.6	5.0573
5.8	4.4831
6	4.4775
6.2	4.3641
6.4	4.5522
6.6	4.4528
6.8	4.1374
7	4.5269
7.2	4.3023
7.4	4.4363
7.6	4.4865
7.8	4.6933
8	5.1106
8.2	5.8626
8.4	6.1363
8.6	5.8128
8.8	6.1367
9	6.0698
9.2	6.326
9.4	6.0642
9.6	5.6239
9.8	5.5983
10	5.5524
10.2	5.4836
10.4	5.387
10.6	5.4776
10.8	5.2143
11	5.0198
11.2	5.0597
11.4	4.8139
11.6	4.8822
11.8	4.7591
12	4.5769
12.2	4.4894
12.4	4.3633
