Name: Weathered Red Brick
Type: manmade
Class: General Construction Material
Subclass: Brick
Particle Size: Solid
Sample No.: 0412UUUBRK
Owner: National Photographic Interpretation Center
Wavelength Range: All
Origin: Spectra obtained from the Noncoventional Exploitation FactorsData System of the National Photographic Interpretation Center.
Description: General fabrication construction brick. Brick was smooth, weathered, and red in color. Original ASTER Spectral Library name was jhu.becknic.manmade.construction.brick.solid.0412uuu.spectrum.txt
Measurement: Directional (10 Degree) Hemispherical Reflectance
X Units: Wavelength (micrometers)
Y Units: Reflectance (percent)
wavelength	value
0.3	2.78
0.304	2.81
0.308	2.83
0.312	2.86
0.316	2.88
0.32	2.83
0.324	2.85
0.328	2.87
0.332	2.89
0.336	2.91
0.34	2.92
0.344	2.94
0.348	2.96
0.352	2.98
0.356	3
0.36	3.03
0.364	3.05
0.368	3.08
0.372	3.11
0.376	3.14
0.38	3.16
0.384	3.19
0.388	3.22
0.392	3.26
0.396	3.29
0.4	3.32
0.404	3.36
0.408	3.39
0.412	3.43
0.416	3.46
0.42	3.5
0.424	3.54
0.428	3.59
0.432	3.63
0.436	3.68
0.44	3.74
0.444	3.78
0.448	3.83
0.452	3.88
0.456	3.92
0.46	3.96
0.464	4
0.468	4.03
0.472	4.06
0.476	4.09
0.48	4.13
0.484	4.18
0.488	4.23
0.492	4.3
0.496	4.37
0.5	4.44
0.504	4.51
0.508	4.58
0.512	4.65
0.516	4.73
0.52	4.82
0.524	4.93
0.528	5.06
0.532	5.22
0.536	5.42
0.54	5.66
0.544	5.96
0.548	6.33
0.552	6.78
0.556	7.32
0.56	7.96
0.564	8.7
0.568	9.51
0.572	10.39
0.576	11.32
0.58	12.25
0.584	13.18
0.588	14.05
0.592	14.84
0.596	15.55
0.6	16.15
0.604	16.67
0.608	17.09
0.612	17.44
0.616	17.73
0.62	17.97
0.624	18.18
0.628	18.36
0.632	18.54
0.636	18.71
0.64	18.87
0.644	19.04
0.648	19.21
0.652	19.4
0.656	19.61
0.66	19.82
0.664	20.05
0.668	20.29
0.672	20.55
0.676	20.83
0.68	21.12
0.684	21.42
0.688	21.73
0.692	22.06
0.696	22.4
0.7	22.76
0.704	23.12
0.708	23.48
0.712	23.85
0.716	24.21
0.72	24.55
0.724	24.9
0.728	25.21
0.732	25.52
0.736	25.78
0.74	26.02
0.744	26.23
0.748	26.41
0.752	26.54
0.756	26.64
0.76	26.71
0.764	26.74
0.768	26.76
0.772	26.73
0.776	26.68
0.78	26.62
0.784	26.52
0.788	26.41
0.792	26.28
0.796	26.13
0.8	25.99
0.84	24.5
0.88	24.28
0.92	25.6
0.96	28.47
1	32.94
1.04	37.72
1.08	41.81
1.12	45.23
1.16	47.89
1.2	49.7
1.24	50.79
1.28	51.49
1.32	51.88
1.36	52.01
1.4	51.62
1.44	51.73
1.48	52.09
1.52	52.33
1.56	52.51
1.6	52.74
1.64	53.06
1.68	53.38
1.72	53.44
1.76	53.27
1.8	53.22
1.84	53.23
1.88	52.47
1.92	47.88
1.96	50.26
2	52.43
2.04	53.59
2.08	53.77
2.12	54.26
2.16	54.13
2.2	53.79
2.24	53.67
2.28	53.7318
2.32	53.9126
2.36	53.44
2.4	52.1112
2.44	50.0244
2.48	48.037
2.52	46.9282
2.56	46.1942
2.6	45.8554
2.64	44.7648
2.68	39.544
2.72	22.5472
2.76	12.3942
2.8	11.4258
2.84	11.1768
2.88	11.5104
2.92	11.6454
2.96	12.0826
3	13.3844
3.04	14.4656
3.08	15.2664
3.12	17.2918
3.16	19.537
3.2	21.7082
3.24	23.7744
3.28	25.4846
3.32	27.4812
3.36	28.604
3.4	29.1748
3.44	30.2282
3.48	32.1414
3.52	33.2668
3.56	34.8948
3.6	35.8362
3.64	36.8456
3.68	37.6974
3.72	37.799
3.76	38.3614
3.8	39.05
3.84	38.9356
3.88	38.7134
3.92	38.9462
3.96	38.5788
4	38.1844
4.04	37.845
4.08	37.445
4.12	36.2742
4.16	35.2222
4.2	33.716
4.24	29.924
4.28	28.8244
4.32	29.2356
4.36	27.48
4.4	25.0316
4.44	23.138
4.48	21.908
4.52	22.1674
4.56	22.2112
4.6	21.944
4.64	21.0296
4.68	20.064
4.72	20.1258
4.76	20.0924
4.8	19.3768
4.84	18.1764
4.88	16.1154
4.92	12.4206
4.96	10.4479
5	8.4
5.2	7.2471
5.4	4.8364
5.6	4.7417
5.8	5.5036
6	3.7526
6.2	2.666
6.4	3.6852
6.6	2.9703
6.8	2.5621
7	1.7413
7.2	1.5255
7.4	1.2245
7.6	1.1229
7.8	0.9089
8	1.5605
8.2	3.3367
8.4	4.5857
8.6	5.0859
8.8	6.3444
9	7.5884
9.2	8.7328
9.4	8.1523
9.6	6.375
9.8	5.7148
10	5.0021
10.2	3.9376
10.4	3.3591
10.6	3.14
10.8	2.8418
11	2.4094
11.2	1.9165
11.4	1.7366
11.6	1.8419
11.8	1.2252
12	1.3095
12.2	1.4073
12.4	2.5593
