Name: Construction  Concrete
Type: manmade
Class: Concrete
Subclass: Paving Concrete
Particle Size: Solid
Sample No.: 0092UUU_CNC
Owner: National Photographic Interpretation Center
Wavelength Range: All
Origin: Spectra obtained from the Noncoventional Exploitation FactorsData System of the National Photographic Interpretation Center.
Description: Gray and white weathered runway concrete.  Sample had a flat surface, with a matte texture, and very little aggregate showing.  Original ASTER Spectral Library name was jhu.becknic.manmade.concrete.paving.solid.0092uuu.spectrum.txt
Measurement: Directional (10 Degree) Hemispherical Reflectance
X Units: Wavelength (micrometers)
Y Units: Reflectance (percent)
wavelength	value
0.42	29.1167
0.424	28.5691
0.428	28.7773
0.432	28.9063
0.436	29.0834
0.44	29.2105
0.444	29.4183
0.448	29.5759
0.452	29.7321
0.456	29.8912
0.46	29.9861
0.464	30.1039
0.468	30.2275
0.472	30.3486
0.476	30.4743
0.48	30.6003
0.484	30.7342
0.488	30.8718
0.492	31.026
0.496	31.1811
0.5	31.352
0.504	31.5194
0.508	31.678
0.512	31.8407
0.516	32.0157
0.52	32.1858
0.524	32.3475
0.528	32.4851
0.532	32.6064
0.536	32.7671
0.54	32.9183
0.544	33.078
0.548	33.2186
0.552	33.3438
0.556	33.4534
0.56	33.5747
0.564	33.8033
0.568	33.8068
0.572	33.7936
0.576	34.0071
0.58	34.102
0.584	34.1243
0.588	34.2621
0.592	34.3288
0.596	34.3808
0.6	34.6431
0.604	34.6924
0.608	34.5182
0.612	34.615
0.616	34.8086
0.62	34.8116
0.624	34.792
0.628	34.8242
0.632	34.9005
0.636	34.991
0.64	35.06
0.644	35.0951
0.648	35.0509
0.652	34.9071
0.656	35.0348
0.66	35.2068
0.664	35.0687
0.668	35.0756
0.672	35.3007
0.676	35.2912
0.68	35.1341
0.684	35.1501
0.688	35.311
0.692	35.4133
0.696	35.4642
0.7	35.5046
0.704	35.5517
0.708	35.588
0.712	35.6075
0.716	35.6577
0.72	35.6988
0.724	35.707
0.728	35.7457
0.732	35.7925
0.736	35.8049
0.74	35.827
0.744	35.8678
0.748	35.8783
0.752	35.9016
0.756	35.9416
0.76	35.9482
0.764	35.9827
0.768	35.9866
0.772	36.0107
0.776	36.0148
0.78	36.0264
0.784	36.0321
0.788	36.0376
0.792	36.0457
0.796	36.0497
0.8	36.0612
0.84	36.0785
0.88	36.0886
0.92	36.1736
0.96	36.2272
1	36.292
1.04	36.341
1.08	36.5191
1.12	36.8464
1.16	37.0854
1.2	37.4546
1.24	37.6579
1.28	37.8466
1.32	38.0873
1.36	38.4281
1.4	37.1987
1.44	36.6594
1.48	37.3803
1.52	38.3108
1.56	38.7823
1.6	39.2064
1.64	39.407
1.68	39.387
1.72	39.5085
1.76	39.2405
1.8	38.8966
1.84	38.7517
1.88	36.2798
1.92	30.1144
1.96	29.927
2	31.5938
2.04	33.5263
2.08	34.6135
2.12	35.0421
2.16	34.9477
2.2	33.4893
2.24	32.3159
2.28	31.5916
2.32	30.6511
2.36	29.4706
2.4	27.5595
2.44	24.968
2.48	22.9257
2.52	22.1859
2.56	22.2078
2.6	21.7913
2.64	20.0005
2.68	13.8946
2.72	6.206
2.76	2.9148
2.8	2.4544
2.84	2.202
2.88	2.0975
2.92	1.9646
2.96	1.9966
3	2.0927
3.04	2.1606
3.08	2.3002
3.12	2.4548
3.16	2.555
3.2	2.7274
3.24	2.9322
3.28	3.1146
3.32	3.3829
3.36	3.3364
3.4	3.5534
3.44	3.852
3.48	3.9382
3.52	4.7212
3.56	5.6088
3.6	6.135
3.64	6.6505
3.68	7.06
3.72	7.484
3.76	7.771
3.8	7.6554
3.84	6.8872
3.88	6.7606
3.92	6.3822
3.96	4.9529
4	5.3597
4.04	7.512
4.08	8.353
4.12	8.4403
4.16	8.3843
4.2	8.1666
4.24	7.9258
4.28	7.6653
4.32	7.4328
4.36	7.1932
4.4	6.835
4.44	6.5246
4.48	6.2534
4.52	6.3112
4.56	6.3057
4.6	6.134
4.64	5.8487
4.68	5.5507
4.72	5.7487
4.76	5.7052
4.8	5.611
4.84	5.458
4.88	5.193
4.92	4.8187
4.96	4.6656
5	4.5672
5.2	3.9993
5.4	3.3135
5.6	2.2463
5.8	1.8843
6	1.1306
6.2	1.1441
6.4	3.2287
6.6	5.0862
6.8	4.5092
7	4.9977
7.2	4.6902
7.4	5.1337
7.6	5.4522
7.8	5.5883
8	5.8343
8.2	6.1428
8.4	4.7843
8.6	3.7257
8.8	3.9341
9	3.9671
9.2	4.0161
9.4	3.6595
9.6	3.0711
9.8	2.8376
10	2.7289
10.2	2.6571
10.4	2.5368
10.6	2.4388
10.8	2.3357
11	2.235
11.2	2.2612
11.4	4.2103
11.6	2.7157
11.8	2.2183
12	2.0669
12.2	1.9222
12.4	2.2088
12.6	2.2478
12.8	2.4949
13	2.1383
13.2	1.6943
13.4	1.8627
13.6	1.4062
13.8	1.6151
14	1.5823
