Name: Construction Asphalt
Type: manmade
Class: Road
Subclass: Paving Asphalt
Particle Size: Solid
Sample No.: 0095UUUASP
Owner: National Photographic Interpretation Center
Wavelength Range: All
Origin: Spectra obtained from the Noncoventional Exploitation FactorsData System of the National Photographic Interpretation Center.
Description: Road Asphalts and Tar. Gray and black construction asphalt.  The sample was soiled and weathered, with some limestone and quartz aggregate showing. Original ASTER Spectral Library name was jhu.becknic.manmade.asphalt.paving.solid.0095uuu.spectrum.txt
Measurement: Directional (10 Degree) Hemispherical Reflectance
X Units: Wavelength (micrometers)
Y Units: Reflectance (percent)
wavelength	value
0.42	4.0837
0.424	4.7327
0.428	4.8321
0.432	4.9909
0.436	5.1138
0.44	5.1479
0.444	5.2626
0.448	5.3666
0.452	5.4261
0.456	5.4728
0.46	5.5251
0.464	5.5836
0.468	5.6231
0.472	5.699
0.476	5.7455
0.48	5.8272
0.484	5.9156
0.488	5.9997
0.492	6.0892
0.496	6.1689
0.5	6.2476
0.504	6.3245
0.508	6.4004
0.512	6.489
0.516	6.5664
0.52	6.6532
0.524	6.7408
0.528	6.8209
0.532	6.9056
0.536	6.9907
0.54	7.0655
0.544	7.1239
0.548	7.1798
0.552	7.2319
0.556	7.2837
0.56	7.339
0.564	7.1808
0.568	7.3188
0.572	7.5931
0.576	7.6353
0.58	7.7062
0.584	7.8685
0.588	8.0136
0.592	7.9282
0.596	7.8131
0.6	8.096
0.604	8.3707
0.608	8.4223
0.612	8.4387
0.616	8.5701
0.62	8.7567
0.624	8.6465
0.628	8.3906
0.632	8.3287
0.636	8.4379
0.64	8.6041
0.644	8.6995
0.648	8.7404
0.652	8.8964
0.656	8.9639
0.66	8.9708
0.664	9.0422
0.668	9.1168
0.672	9.2091
0.676	9.4129
0.68	9.4358
0.684	9.2081
0.688	9.2823
0.692	9.4127
0.696	9.4409
0.7	9.4958
0.704	9.5203
0.708	9.5731
0.712	9.6186
0.716	9.6413
0.72	9.6974
0.724	9.7546
0.728	9.7894
0.732	9.8454
0.736	9.8885
0.74	9.9204
0.744	9.9881
0.748	10.0296
0.752	10.0606
0.756	10.1053
0.76	10.157
0.764	10.2119
0.768	10.2296
0.772	10.2971
0.776	10.3346
0.78	10.3682
0.784	10.4168
0.788	10.4536
0.792	10.4855
0.796	10.518
0.8	10.5579
0.84	10.9059
0.88	11.211
0.92	11.5136
0.96	11.8029
1	12.0673
1.04	12.2973
1.08	12.5612
1.12	12.8595
1.16	13.138
1.2	13.4837
1.24	13.6885
1.28	13.8866
1.32	13.9926
1.36	14.2161
1.4	14.6079
1.44	14.8601
1.48	14.8954
1.52	14.9231
1.56	15.0158
1.6	15.068
1.64	15.107
1.68	15.1068
1.72	15.0719
1.76	15.1432
1.8	15.1991
1.84	15.2817
1.88	15.6366
1.92	15.5504
1.96	15.5052
2	15.411
2.04	15.3753
2.08	15.4746
2.12	15.5063
2.16	15.4071
2.2	15.2053
2.24	14.9895
2.28	14.3122
2.32	13.8205
2.36	13.9936
2.4	14.1132
2.44	14.0371
2.48	13.6799
2.52	13.4638
2.56	13.8446
2.6	14.1418
2.64	14.0128
2.68	13.2309
2.72	7.9597
2.76	4.4028
2.8	4.7089
2.84	4.6923
2.88	4.4018
2.92	4.191
2.96	4.1677
3	4.1406
3.04	4.264
3.08	4.497
3.12	4.8115
3.16	5.1805
3.2	5.5094
3.24	5.6896
3.28	5.7111
3.32	5.6823
3.36	4.5769
3.4	3.6542
3.44	4.0253
3.48	4.4389
3.52	5.2369
3.56	7.124
3.6	7.9344
3.64	8.3281
3.68	8.4656
3.72	8.6604
3.76	8.692
3.8	8.3293
3.84	7.9812
3.88	8.0728
3.92	8.0686
3.96	7.6471
4	7.9653
4.04	8.734
4.08	9.3295
4.12	9.5892
4.16	9.7033
4.2	9.8843
4.24	9.8667
4.28	9.8261
4.32	9.8305
4.36	9.8045
4.4	9.6296
4.44	9.3067
4.48	9.014
4.52	9.1139
4.56	9.1976
4.6	9.071
4.64	8.6019
4.68	8.235
4.72	8.6782
4.76	8.8206
4.8	8.7448
4.84	8.5554
4.88	8.0263
4.92	7.1976
4.96	6.8689
5	6.4274
5.2	6.3215
5.4	5.2659
5.6	3.9951
5.8	3.2957
6	2.4689
6.2	2.6214
6.4	4.6737
6.6	4.814
6.8	3.4984
7	3.485
7.2	3.1943
7.4	3.5097
7.6	3.6113
7.8	3.9249
8	4.9829
8.2	6.7554
8.4	5.8886
8.6	4.536
8.8	5.2961
9	5.4617
9.2	5.642
9.4	5.0759
9.6	4.5087
9.8	4.1859
10	3.9414
10.2	3.7305
10.4	3.515
10.6	3.3075
10.8	3.3577
11	3.4816
11.2	4.0364
11.4	3.1624
11.6	2.8954
11.8	2.3338
12	2.2619
12.2	2.0118
12.4	2.2339
12.6	2.5259
12.8	2.8657
13	2.5272
13.2	2.3912
13.4	2.0414
13.6	2.0509
13.8	1.5374
14	1.5884
