Name: Aluminum Metal
Type: manmade
Class: Roofing Material
Subclass: Metal
Particle Size: Solid
Sample No.: 0384UUUALM
Owner: National Photographic Interpretation Center
Wavelength Range: All
Origin: Spectra obtained from the Noncoventional Exploitation FactorsData System of the National Photographic Interpretation Center.
Description: Bare aluminum metal that is weathered and scratched/scored.  From electronics, roofings, switch covers. Original ASTER Spectral Library name was jhu.becknic.manmade.roofing.metal.solid.0384uuu.spectrum.txt
Measurement: Directional (10 Degree) Hemispherical Reflectance
X Units: Wavelength (micrometers)
Y Units: Reflectance (percent)
wavelength	value
0.3	29.07
0.304	29.49
0.308	29.92
0.312	30.39
0.316	30.88
0.32	31.35
0.324	31.9
0.328	32.46
0.332	33.03
0.336	33.61
0.34	34.17
0.344	34.73
0.348	35.25
0.352	35.75
0.356	36.22
0.36	36.64
0.364	37.04
0.368	37.41
0.372	37.77
0.376	38.12
0.38	38.54
0.384	38.89
0.388	39.26
0.392	39.62
0.396	39.97
0.4	40.35
0.404	40.7
0.408	41.07
0.412	41.43
0.416	41.79
0.42	42.16
0.424	42.51
0.428	42.87
0.432	43.22
0.436	43.56
0.44	43.89
0.444	44.22
0.448	44.54
0.452	44.85
0.456	45.13
0.46	45.39
0.464	45.64
0.468	45.89
0.472	46.14
0.476	46.36
0.48	46.61
0.484	46.88
0.488	47.13
0.492	47.34
0.496	47.5
0.5	47.65
0.504	47.81
0.508	48
0.512	48.19
0.516	48.38
0.52	48.56
0.524	48.73
0.528	48.91
0.532	49.07
0.536	49.24
0.54	49.39
0.544	49.56
0.548	49.72
0.552	49.88
0.556	50.02
0.56	50.19
0.564	50.32
0.568	50.45
0.572	50.59
0.576	50.73
0.58	50.86
0.584	50.99
0.588	51.12
0.592	51.23
0.596	51.35
0.6	51.48
0.604	51.6
0.608	51.71
0.612	51.82
0.616	51.92
0.62	52.03
0.624	52.14
0.628	52.24
0.632	52.34
0.636	52.43
0.64	52.52
0.644	52.59
0.648	52.69
0.652	52.76
0.656	52.85
0.66	52.94
0.664	53
0.668	53.08
0.672	53.15
0.676	53.22
0.68	53.27
0.684	53.33
0.688	53.39
0.692	53.44
0.696	53.49
0.7	53.54
0.704	53.58
0.708	53.62
0.712	53.66
0.716	53.68
0.72	53.69
0.724	53.71
0.728	53.71
0.732	53.73
0.736	53.72
0.74	53.71
0.744	53.7
0.748	53.68
0.752	53.63
0.756	53.58
0.76	53.54
0.764	53.48
0.768	53.41
0.772	53.35
0.776	53.28
0.78	53.2
0.784	53.1
0.788	53.04
0.792	52.96
0.796	52.88
0.8	52.8
0.84	53.16
0.88	56.63
0.92	60.98
0.96	64.5
1	67.45
1.04	69.74
1.08	71.62
1.12	73.23
1.16	74.47
1.2	75.54
1.24	76.5
1.28	77.36
1.32	78.06
1.36	78.72
1.4	79.25
1.44	79.88
1.48	80.41
1.52	80.94
1.56	81.43
1.6	81.94
1.64	82.47
1.68	82.95
1.72	83.47
1.76	83.61
1.8	83.96
1.84	84.06
1.88	84.4
1.92	84.6
1.96	84.81
2	85.7
2.04	86.11
2.08	86.39
2.12	87.04
2.16	86.97
2.2	86.94
2.24	86.81
2.28	87.5076
2.32	87.7238
2.36	87.895
2.4	87.956
2.44	88.1052
2.48	88.2456
2.52	88.5156
2.56	88.4936
2.6	88.682
2.64	88.9508
2.68	88.9912
2.72	88.9086
2.76	88.7052
2.8	88.7874
2.84	88.6304
2.88	88.3994
2.92	88.4886
2.96	88.7914
3	88.5814
3.04	88.839
3.08	88.6044
3.12	89.0744
3.16	89.4472
3.2	89.741
3.24	89.5722
3.28	89.9184
3.32	89.7338
3.36	89.9394
3.4	89.548
3.44	89.7208
3.48	90.4152
3.52	90.5946
3.56	90.8106
3.6	90.9222
3.64	91.0476
3.68	90.9554
3.72	91.2972
3.76	91.3616
3.8	91.4932
3.84	91.617
3.88	91.6788
3.92	91.6822
3.96	91.6846
4	91.886
4.04	92.0602
4.08	92.2506
4.12	92.0784
4.16	92.2774
4.2	92.3986
4.24	92.5372
4.28	92.6928
4.32	92.6452
4.36	92.6554
4.4	92.6886
4.44	92.6854
4.48	92.7256
4.52	92.9172
4.56	92.9932
4.6	92.8088
4.64	93.0082
4.68	93.0416
4.72	93.159
4.76	93.0698
4.8	93.3644
4.84	93.3058
4.88	93.3236
4.92	93.3322
4.96	93.2756
5	93.3924
5.2	93.6453
5.4	93.7438
5.6	93.7833
5.8	93.093
6	92.7923
6.2	92.9773
6.4	93.3846
6.6	93.7912
6.8	93.6404
7	93.8781
7.2	93.8933
7.4	94.1378
7.6	94.1957
7.8	94.2816
8	94.444
8.2	94.6197
8.4	94.7201
8.6	94.6684
8.8	94.774
9	94.7398
9.2	94.653
9.4	94.7071
9.6	94.6768
9.8	94.7056
10	94.7756
10.2	94.9481
10.4	95.2419
10.6	95.2029
10.8	95.0152
11	95.1951
11.2	95.396
11.4	95.5404
11.6	95.7522
11.8	95.5003
12	95.644
12.2	95.3235
12.4	94.423
