Name: Brass plate
Type: Manmade
Class: Reflectance target
Subclass: None
Particle Size: Solid
Sample No.: ILF-17464-2-1-tc
Owner: JPL
Wavelength Range: TIR
Origin: Labsphere, P.O. Box 70, Shaker Street, North Sutton, NH 03260(603) 927-4266
Description: Measurement made at top center. Field Brass 2.Measured Oct. 30th 1997 to Nov. 2nd 1997. Original ASTER Spectral Library name was jpl.nicolet.manmade.target.none.solid.bp21097b.spectrum.txt
Measurement: Hemispherical Reflectance
X Units: Wavelength (micrometers)
Y Units: Reflectence (percent)
wavelength	value
15.3853	88.6796
15.1161	88.7525
14.8563	88.7164
14.6052	88.685
14.3624	88.6583
14.1276	88.5251
13.9004	88.7296
13.6803	88.6997
13.4671	88.5723
13.2604	88.6971
13.06	88.4916
12.8656	88.4193
12.6769	88.3822
12.4936	88.2554
12.3155	88.2621
12.1425	88.1224
11.9742	88.2072
11.8106	88.2757
11.6513	88.1869
11.4963	88.284
11.3454	88.1779
11.1983	88.1019
11.0551	88.0566
10.9154	87.986
10.7793	87.9714
10.6465	87.9752
10.5169	88.019
10.3904	87.9214
10.267	87.9792
10.1464	87.9809
10.0287	87.8873
9.9136	87.7263
9.8012	87.7369
9.6913	87.7037
9.5838	87.6644
9.4787	87.678
9.3758	87.7501
9.2752	87.8725
9.1767	87.7445
9.0803	88.0408
8.9858	88.1692
8.8934	88.2382
8.8028	88.1356
8.714	88.0381
8.627	88.0106
8.5417	88.09
8.4581	88.0469
8.3761	88.1492
8.2957	88.1087
8.2169	88.1747
8.1395	88.0437
8.0635	88.253
7.989	88.3916
7.9158	88.4931
7.8439	88.8808
7.7734	89.1715
7.7041	89.2303
7.636	89.3382
7.5691	89.4451
7.5034	89.399
7.4388	89.4276
7.3753	89.4989
7.3129	89.5029
7.2515	89.4695
7.1912	89.4619
7.1318	89.3731
7.0734	89.4297
7.016	89.5098
6.9595	89.9068
6.9039	89.6449
6.8492	89.7682
6.7953	89.7769
6.7423	89.4428
6.6901	89.5941
6.6387	90.1732
6.5881	89.6644
6.5382	89.628
6.4892	90.1087
6.4408	89.4832
6.3931	89.404
6.3462	89.5609
6.2999	89.2008
6.2543	89.1841
6.2094	89.1798
6.1651	89.2411
6.1214	89.4217
6.0784	89.6694
6.0359	89.5791
5.994	89.6647
5.9527	89.5091
5.912	89.5576
5.8718	89.6686
5.8322	89.7918
5.7931	89.4685
5.7545	89.6341
5.7165	89.6414
5.6789	89.5147
5.6418	89.5964
5.6052	89.391
5.5691	89.4739
5.5334	89.3011
5.4982	89.3253
5.4635	89.4323
5.4291	89.302
5.3952	89.3115
5.3618	89.2231
5.3287	89.261
5.2961	89.2552
5.2638	89.2594
5.2319	89.2294
5.2004	89.2935
5.1693	89.2421
5.1386	89.2753
5.1082	89.3188
5.0782	89.2993
5.0485	89.2908
5.0192	89.4
4.9902	89.2911
4.9616	89.3389
4.9332	89.2885
4.9052	89.3087
4.8776	89.3634
4.8502	89.342
4.8231	89.3579
4.7963	89.3259
4.7699	89.3512
4.7437	89.3303
4.7178	89.3765
4.6922	89.2917
4.6668	89.376
4.6418	89.4195
4.617	89.3152
4.5924	89.3959
4.5681	89.3163
4.5441	89.3022
4.5203	89.3775
4.4968	89.3752
4.4735	89.3532
4.4505	89.3318
4.4277	89.3274
4.4051	89.2726
4.3828	89.3691
4.3607	89.2742
4.3388	89.2651
4.3171	89.0258
4.2956	88.5736
4.2744	88.4275
4.2534	88.8926
4.2325	88.0111
4.2119	88.8777
4.1915	89.3023
4.1712	89.2407
4.1512	89.3833
4.1313	89.2694
4.1117	89.2816
4.0922	89.2783
4.0729	89.2054
4.0538	89.3067
4.0349	89.3596
4.0161	89.3678
3.9976	89.3261
3.9792	89.331
3.9609	89.3134
3.9428	89.3005
3.9249	89.245
3.9072	89.2906
3.8896	89.3072
3.8722	89.1713
3.8549	89.1802
3.8378	89.279
3.8208	89.198
3.804	89.2576
3.7873	89.2908
3.7708	89.3161
3.7544	89.2697
3.7382	89.3246
3.7221	89.2492
3.7061	89.1789
3.6903	89.2017
3.6746	89.2572
3.659	89.2967
3.6436	89.3312
3.6283	89.28
3.6131	89.4097
3.5981	89.2209
3.5832	89.2374
3.5684	89.2476
3.5537	89.3215
3.5391	89.3411
3.5247	89.358
3.5104	89.4184
3.4962	89.4229
3.4821	89.3753
3.4681	89.3418
3.4543	89.4124
3.4405	89.4228
3.4269	89.4222
3.4133	89.4261
3.3999	89.5412
3.3866	89.4432
3.3733	89.2973
3.3602	89.3775
3.3472	89.2477
3.3343	89.2894
3.3215	89.364
3.3088	89.3384
3.2961	89.3213
3.2836	89.1427
3.2712	89.2936
3.2588	89.2439
3.2466	89.3616
3.2345	89.2679
3.2224	89.3263
3.2104	89.3446
3.1985	89.2854
3.1867	89.2927
3.175	89.2707
3.1634	89.2938
3.1519	89.3891
3.1404	89.447
3.129	89.3691
3.1178	89.2891
3.1065	89.3417
3.0954	89.3778
3.0844	89.3285
3.0734	89.412
3.0625	89.3369
3.0517	89.3533
3.041	89.4823
3.0303	89.2012
3.0197	89.4036
3.0092	89.4711
2.9987	89.3344
2.9884	89.5284
2.9781	89.4536
2.9678	89.4134
2.9577	89.5012
2.9476	89.35
2.9376	89.4262
2.9276	89.3677
2.9177	89.3442
2.9079	89.3735
2.8982	89.4639
2.8885	89.4222
2.8789	89.3638
2.8693	89.4286
2.8598	89.4606
2.8504	89.3492
2.841	89.4308
2.8317	89.3883
2.8224	89.3409
2.8133	89.2188
2.8041	89.5935
2.7951	89.4541
2.786	89.2714
2.7771	89.2325
2.7682	89.2765
2.7594	89.3534
2.7506	89.3259
2.7418	89.4484
2.7332	89.2283
2.7246	89.7877
2.716	89.3736
2.7075	89.3745
2.699	89.0935
2.6906	89.2365
2.6823	89.2066
2.674	89.0886
2.6657	89.6918
2.6575	89.1544
2.6494	89.2444
2.6413	89.3799
2.6332	89.2537
2.6252	89.2877
2.6173	89.4872
2.6094	89.3617
2.6015	89.2001
2.5937	89.6319
2.5859	89.2018
2.5782	89.1723
2.5706	89.3001
2.5629	89.4066
2.5554	89.1942
2.5478	89.2793
2.5403	89.1355
2.5329	89.2986
2.5255	89.2018
2.5181	89.1314
2.5108	89.1159
2.5035	89.1568
2.4963	89.3586
2.4891	88.953
2.482	89.0482
2.4749	89.0694
2.4678	89.1319
2.4608	89.1542
2.4538	89.1713
2.4468	89.1938
2.4399	89.1868
2.4331	89.0673
2.4262	88.9526
2.4194	89.2286
2.4127	89.0849
2.4059	89.1533
2.3993	89.1549
2.3926	89.1646
2.386	89.1504
2.3795	89.0348
2.3729	88.9183
2.3664	89.3216
2.36	89.1979
2.3535	89.1035
2.3471	89.1896
2.3408	88.9957
2.3345	88.9591
2.3282	89.0961
2.3219	88.9852
2.3157	89.0196
2.3095	89.203
2.3034	89.1046
2.2972	89.1303
2.2911	89.0107
2.2851	89.0503
2.279	89.2176
2.2731	89.0978
2.2671	89.0476
2.2612	89.0957
2.2553	88.9623
2.2494	89.3367
2.2435	89.1813
2.2377	89.0889
2.232	89.1784
2.2262	89.17
2.2205	89.0477
2.2148	89.2112
2.2091	88.9865
2.2035	89.0204
2.1979	88.8086
2.1923	88.9975
2.1868	89.1525
2.1812	89.1519
2.1758	89.2268
2.1703	89.1375
2.1649	89.0824
2.1595	88.9642
2.1541	89.0534
2.1487	88.7984
2.1434	89.2153
2.1381	89.2677
2.1328	89.227
2.1275	88.9934
2.1223	89.1826
2.1171	89.0667
2.112	89.0577
2.1068	88.9424
2.1017	88.9651
2.0966	89.0574
2.0915	88.7858
2.0865	89.2501
2.0814	88.996
2.0764	89.3951
2.0715	88.8936
2.0665	88.8459
2.0616	89.4178
2.0567	88.7699
2.0518	89.1635
2.0469	89.0399
2.0421	89.0224
2.0373	88.912
2.0325	89.0419
2.0277	89.1368
2.0229	88.9671
2.0182	88.5928
2.0135	89.1859
2.0088	88.9505
2.0042	88.9616
