Name: Brass plate
Type: Manmade
Class: Reflectance target
Subclass: None
Particle Size: Solid
Sample No.: ILF-17464-2-2-bl
Owner: JPL
Wavelength Range: TIR
Origin: Labsphere, P.O. Box 70, Shaker Street, North Sutton, NH 03260(603) 927-4266
Description: Measurement made at bottom left. Field Brass 1.Measured Oct. 29 1997. Original ASTER Spectral Library name was jpl.nicolet.manmade.target.none.solid.bp11097e.spectrum.txt
Measurement: Hemispherical Reflectance
X Units: Wavelength (micrometers)
Y Units: Reflectence (percent)
wavelength	value
15.3853	80.5175
15.1161	80.6263
14.8563	80.8205
14.6052	80.4254
14.3624	80.5368
14.1276	80.5716
13.9004	80.446
13.6803	80.5507
13.4671	80.7413
13.2604	80.4928
13.06	80.6761
12.8656	80.2709
12.6769	80.1702
12.4936	80.0264
12.3155	80.6337
12.1425	80.9324
11.9742	81.0259
11.8106	80.6345
11.6513	80.7685
11.4963	79.6157
11.3454	79.8544
11.1983	80.2929
11.0551	79.8642
10.9154	79.6351
10.7793	79.5322
10.6465	79.2734
10.5169	79.0068
10.3904	78.5959
10.267	78.304
10.1464	78.0665
10.0287	77.8381
9.9136	77.7395
9.8012	77.7698
9.6913	77.7778
9.5838	78.002
9.4787	78.0625
9.3758	78.286
9.2752	78.6658
9.1767	78.8831
9.0803	78.9839
8.9858	79.3611
8.8934	79.4186
8.8028	79.3276
8.714	79.6161
8.627	79.7771
8.5417	80.1079
8.4581	80.2623
8.3761	80.7102
8.2957	80.9894
8.2169	81.2558
8.1395	81.4926
8.0635	81.6905
7.989	81.7696
7.9158	82.1305
7.8439	82.4559
7.7734	82.5863
7.7041	82.7705
7.636	82.6853
7.5691	82.6777
7.5034	82.7123
7.4388	82.504
7.3753	82.2108
7.3129	81.9133
7.2515	81.6716
7.1912	81.4573
7.1318	81.3429
7.0734	81.3417
7.016	81.3859
6.9595	81.493
6.9039	81.2907
6.8492	81.3871
6.7953	81.574
6.7423	81.3635
6.6901	81.6983
6.6387	82.7245
6.5881	82.5604
6.5382	82.5739
6.4892	83.5855
6.4408	83.2287
6.3931	83.118
6.3462	83.4259
6.2999	82.8187
6.2543	82.6319
6.2094	82.5619
6.1651	82.5634
6.1214	82.8756
6.0784	83.1882
6.0359	83.1627
5.994	83.5364
5.9527	83.2527
5.912	83.3768
5.8718	83.6564
5.8322	83.671
5.7931	83.5675
5.7545	83.7495
5.7165	83.907
5.6789	83.8727
5.6418	84.1957
5.6052	83.6821
5.5691	83.0737
5.5334	83.7134
5.4982	83.7371
5.4635	84.0482
5.4291	84.0936
5.3952	83.8936
5.3618	83.9917
5.3287	83.9716
5.2961	84.0055
5.2638	84.08
5.2319	84.1256
5.2004	84.2912
5.1693	84.2136
5.1386	84.2538
5.1082	84.2917
5.0782	84.2295
5.0485	84.3231
5.0192	84.2754
4.9902	84.3244
4.9616	84.3751
4.9332	84.4021
4.9052	84.4489
4.8776	84.4236
4.8502	84.4389
4.8231	84.4454
4.7963	84.5391
4.7699	84.4465
4.7437	84.5132
4.7178	84.4115
4.6922	84.458
4.6668	84.3948
4.6418	84.4905
4.617	84.379
4.5924	84.4542
4.5681	84.4678
4.5441	84.4708
4.5203	84.4698
4.4968	84.4102
4.4735	84.5504
4.4505	84.4647
4.4277	84.4315
4.4051	84.4482
4.3828	84.4477
4.3607	84.4203
4.3388	84.4695
4.3171	84.1312
4.2956	83.806
4.2744	83.6652
4.2534	84.0883
4.2325	83.334
4.2119	84.0508
4.1915	84.4404
4.1712	84.4795
4.1512	84.3896
4.1313	84.4726
4.1117	84.3956
4.0922	84.326
4.0729	84.4416
4.0538	84.2564
4.0349	84.2424
4.0161	84.0155
3.9976	83.8104
3.9792	83.6108
3.9609	83.5276
3.9428	83.7399
3.9249	83.873
3.9072	83.8605
3.8896	84.0711
3.8722	84.045
3.8549	83.9783
3.8378	84.0542
3.8208	84.0968
3.804	84.1857
3.7873	84.164
3.7708	84.2234
3.7544	84.2089
3.7382	84.2573
3.7221	84.1495
3.7061	84.2184
3.6903	84.1944
3.6746	84.2316
3.659	84.1678
3.6436	84.1235
3.6283	84.2197
3.6131	83.9698
3.5981	84.1047
3.5832	84.0458
3.5684	83.9632
3.5537	84.0002
3.5391	83.857
3.5247	83.7678
3.5104	83.4547
3.4962	83.2516
3.4821	83.2348
3.4681	83.2437
3.4543	83.3711
3.4405	83.1421
3.4269	83.168
3.4133	83.1111
3.3999	83.0993
3.3866	83.088
3.3733	83.2293
3.3602	83.2894
3.3472	83.2479
3.3343	83.4489
3.3215	83.5263
3.3088	83.4394
3.2961	83.4362
3.2836	83.4376
3.2712	83.5097
3.2588	83.4579
3.2466	83.2577
3.2345	83.4001
3.2224	83.3399
3.2104	83.2395
3.1985	83.2341
3.1867	83.2529
3.175	83.1475
3.1634	83.153
3.1519	83.054
3.1404	83.1538
3.129	82.9652
3.1178	83.0558
3.1065	82.7489
3.0954	82.7725
3.0844	82.775
3.0734	82.7514
3.0625	82.6167
3.0517	82.7313
3.041	82.6794
3.0303	82.6558
3.0197	82.5377
3.0092	82.8679
2.9987	82.5261
2.9884	82.6073
2.9781	82.6198
2.9678	82.6335
2.9577	82.4635
2.9476	82.3425
2.9376	82.481
2.9276	82.464
2.9177	82.4526
2.9079	82.5608
2.8982	82.548
2.8885	82.5318
2.8789	82.4211
2.8693	82.5729
2.8598	82.5064
2.8504	82.1685
2.841	82.4227
2.8317	82.4372
2.8224	82.3298
2.8133	82.3771
2.8041	82.3946
2.7951	82.0457
2.786	82.0097
2.7771	82.4982
2.7682	82.0361
2.7594	81.9917
2.7506	82.2597
2.7418	82.5782
2.7332	82.6489
2.7246	83.2818
2.716	83.0037
2.7075	83.2967
2.699	83.5982
2.6906	83.7988
2.6823	84.0607
2.674	84.0569
2.6657	84.7579
2.6575	83.9965
2.6494	83.8842
2.6413	83.9436
2.6332	83.9851
2.6252	84.0289
2.6173	84.2608
2.6094	84.1384
2.6015	84.3133
2.5937	84.7465
2.5859	84.0214
2.5782	84.2218
2.5706	84.1272
2.5629	84.1911
2.5554	83.8942
2.5478	84.1253
2.5403	84.0553
2.5329	84.1325
2.5255	83.8441
2.5181	83.9235
2.5108	83.7935
2.5035	83.7893
2.4963	84.0361
2.4891	83.8933
2.482	83.9873
2.4749	83.9653
2.4678	83.9385
2.4608	83.8383
2.4538	83.855
2.4468	83.825
2.4399	83.9266
2.4331	83.8703
2.4262	83.8919
2.4194	83.9255
2.4127	83.6824
2.4059	83.9456
2.3993	83.6907
2.3926	83.7657
2.386	83.933
2.3795	83.9088
2.3729	83.8916
2.3664	83.9799
2.36	83.8079
2.3535	83.7192
2.3471	83.682
2.3408	83.9174
2.3345	83.7013
2.3282	83.7566
2.3219	83.9605
2.3157	83.6692
2.3095	83.6721
2.3034	83.8316
2.2972	83.7971
2.2911	83.6172
2.2851	83.6657
2.279	83.4273
2.2731	83.5917
2.2671	83.6422
2.2612	83.8376
2.2553	83.7273
2.2494	83.6591
2.2435	83.6152
2.2377	83.6075
2.232	83.4579
2.2262	83.7515
2.2205	83.712
2.2148	83.4288
2.2091	83.5382
2.2035	83.5453
2.1979	83.5138
2.1923	83.6074
2.1868	83.4625
2.1812	83.5734
2.1758	83.5385
2.1703	83.4909
2.1649	83.5302
2.1595	83.59
2.1541	83.5251
2.1487	83.5033
2.1434	83.5099
2.1381	83.2914
2.1328	83.3754
2.1275	83.5519
2.1223	83.6104
2.1171	83.3922
2.112	83.7267
2.1068	83.4044
2.1017	83.5063
2.0966	83.4346
2.0915	83.1971
2.0865	83.3537
2.0814	83.3782
2.0764	83.6468
2.0715	83.3586
2.0665	83.3136
2.0616	83.9099
2.0567	83.3889
2.0518	83.1615
2.0469	83.4571
2.0421	83.1617
2.0373	83.4023
2.0325	83.174
2.0277	83.3433
2.0229	83.2302
2.0182	83.109
2.0135	83.1971
2.0088	83.4231
2.0042	83.252
