Name: White rubberized coating
Type: manmade
Class: Roofing Material
Subclass: Rubber
Particle Size: Solid
Sample No.: 0795UUURBR
Owner: National Photographic Interpretation Center
Wavelength Range: All
Origin: Spectra obtained from the Noncoventional Exploitation FactorsData System of the National Photographic Interpretation Center.
Description: Unspecified rubberized coating from a building roof. Sample was white, weathered, and five years old.  Original ASTER Spectral Library name was jhu.becknic.manmade.roofing.rubber.solid.0795uuu.spectrum.txt
Measurement: Directional (10 Degree) Hemispherical Reflectance
X Units: Wavelength (micrometers)
Y Units: Reflectance (percent)
wavelength	value
0.3	5.49
0.304	5.56
0.308	5.59
0.312	5.61
0.316	5.6
0.32	5.54
0.324	5.5
0.328	5.45
0.332	5.42
0.336	5.39
0.34	5.39
0.344	5.43
0.348	5.53
0.352	5.7
0.356	5.94
0.36	6.25
0.364	6.66
0.368	7.17
0.372	7.83
0.376	8.67
0.38	9.99
0.384	11.67
0.388	14.09
0.392	17.33
0.396	21.26
0.4	25.45
0.404	29.39
0.408	32.6
0.412	34.9
0.416	36.46
0.42	37.6
0.424	38.51
0.428	39.33
0.432	40.11
0.436	40.84
0.44	41.51
0.444	42.05
0.448	42.52
0.452	42.91
0.456	43.24
0.46	43.57
0.464	43.88
0.468	44.17
0.472	44.46
0.476	44.8
0.48	45.12
0.484	45.45
0.488	45.82
0.492	46.23
0.496	46.71
0.5	47.17
0.504	47.6
0.508	48.02
0.512	48.39
0.516	48.78
0.52	49.13
0.524	49.49
0.528	49.85
0.532	50.18
0.536	50.52
0.54	50.83
0.544	51.14
0.548	51.45
0.552	51.74
0.556	52.02
0.56	52.28
0.564	52.51
0.568	52.76
0.572	53.01
0.576	53.22
0.58	53.42
0.584	53.62
0.588	53.8
0.592	53.96
0.596	54.13
0.6	54.27
0.604	54.43
0.608	54.56
0.612	54.7
0.616	54.82
0.62	54.96
0.624	55.09
0.628	55.21
0.632	55.33
0.636	55.45
0.64	55.57
0.644	55.68
0.648	55.8
0.652	55.92
0.656	56.04
0.66	56.15
0.664	56.28
0.668	56.37
0.672	56.47
0.676	56.61
0.68	56.68
0.684	56.8
0.688	56.89
0.692	57
0.696	57.11
0.7	57.22
0.704	57.33
0.708	57.42
0.712	57.52
0.716	57.61
0.72	57.7
0.724	57.82
0.728	57.88
0.732	57.99
0.736	58.07
0.74	58.13
0.744	58.24
0.748	58.31
0.752	58.38
0.756	58.46
0.76	58.54
0.764	58.62
0.768	58.71
0.772	58.81
0.776	58.88
0.78	59
0.784	59.08
0.788	59.15
0.792	59.22
0.796	59.29
0.8	59.34
0.84	59.93
0.88	60.06
0.92	59.76
0.96	60.62
1	61.34
1.04	61.76
1.08	62.55
1.12	63.03
1.16	62.08
1.2	58.86
1.24	62.06
1.28	63.81
1.32	64.27
1.36	63.45
1.4	58.72
1.44	57.99
1.48	59.48
1.52	60.83
1.56	61.58
1.6	61.88
1.64	61.52
1.68	58.72
1.72	44
1.76	45.9
1.8	49.52
1.84	50.37
1.88	50.81
1.92	45.11
1.96	43.18
2	44.32
2.04	46.03
2.08	47.24
2.12	47.92
2.16	47.38
2.2	46.08
2.24	41.2
2.28	28.7233
2.32	21.2992
2.36	20.0399
2.4	19.7492
2.44	20.818
2.48	21.5242
2.52	21.9471
2.56	22.6884
2.6	22.9013
2.64	22.9274
2.68	20.4807
2.72	11.3161
2.76	7.4682
2.8	6.3518
2.84	5.8281
2.88	5.3679
2.92	5.5345
2.96	5.4444
3	5.4966
3.04	5.6827
3.08	5.8326
3.12	5.8644
3.16	5.9961
3.2	6.1538
3.24	6.4145
3.28	6.263
3.32	6.198
3.36	5.2759
3.4	4.0545
3.44	4.3004
3.48	4.7238
3.52	4.859
3.56	6.1946
3.6	6.9795
3.64	7.2849
3.68	7.3865
3.72	7.333
3.76	7.4532
3.8	7.292
3.84	6.8792
3.88	6.8063
3.92	6.7213
3.96	5.985
4	6.0539
4.04	7.3959
4.08	8.2852
4.12	8.3809
4.16	8.5009
4.2	8.3622
4.24	8.11
4.28	8.0596
4.32	7.8795
4.36	7.9797
4.4	7.9324
4.44	8.0249
4.48	7.8261
4.52	7.8752
4.56	7.7792
4.6	7.6898
4.64	7.4839
4.68	7.3574
4.72	7.8194
4.76	7.9925
4.8	8.1561
4.84	8.0319
4.88	7.9542
4.92	7.9711
4.96	8.1442
5	8.559
5.2	8.9573
5.4	8.9996
5.6	5.3604
5.8	4.7967
6	4.8192
6.2	4.9551
6.4	7.5556
6.6	8.0626
6.8	4.6616
7	4.4698
7.2	5.2233
7.4	6.9177
7.6	5.6015
7.8	5.1435
8	4.1884
8.2	3.6756
8.4	3.3064
8.6	3.1691
8.8	3.5386
9	3.766
9.2	3.8672
9.4	3.7484
9.6	4.128
9.8	4.7594
10	4.348
10.2	3.7655
10.4	3.3506
10.6	3.0962
10.8	2.8938
11	2.6499
11.2	2.9883
11.4	2.6873
11.6	2.3353
11.8	1.8522
12	1.7168
12.2	1.6074
12.4	1.5814
12.6	2.0522
12.8	2.3137
13	2.8414
13.2	3.9291
13.4	3.9869
13.6	4.7411
13.8	5.5131
14	6.0407
