Name: Construction Asphalt
Type: manmade
Class: Road
Subclass: Paving Asphalt
Particle Size: Solid
Sample No.: 0096UUUASP
Owner: National Photographic Interpretation Center
Wavelength Range: All
Origin: Spectra obtained from the Noncoventional Exploitation FactorsData System of the National Photographic Interpretation Center.
Description: Road Asphalts and Tar. Gray and black construction asphalt. Sample was soiled and weathered, with some limestone and quartz aggregate showing. Original ASTER Spectral Library name was jhu.becknic.manmade.asphalt.paving.solid.0096uuu.spectrum.txt
Measurement: Directional (10 Degree) Hemispherical Reflectance
X Units: Wavelength (micrometers)
Y Units: Reflectance (percent)
wavelength	value
0.42	5.5973
0.424	5.1458
0.428	5.1968
0.432	5.3268
0.436	5.4313
0.44	5.4745
0.444	5.565
0.448	5.62
0.452	5.6835
0.456	5.7376
0.46	5.8014
0.464	5.8694
0.468	5.9028
0.472	5.9541
0.476	6.0083
0.48	6.0706
0.484	6.1523
0.488	6.2203
0.492	6.3026
0.496	6.3716
0.5	6.4424
0.504	6.4978
0.508	6.5699
0.512	6.6374
0.516	6.7179
0.52	6.7839
0.524	6.8527
0.528	6.9213
0.532	6.9971
0.536	7.0634
0.54	7.1228
0.544	7.1783
0.548	7.2237
0.552	7.256
0.556	7.302
0.56	7.3488
0.564	7.2953
0.568	7.2476
0.572	7.3781
0.576	7.6711
0.58	7.7813
0.584	7.7122
0.588	7.6467
0.592	7.6758
0.596	7.8218
0.6	8.0261
0.604	8.0974
0.608	8.0357
0.612	8.0397
0.616	8.0744
0.62	8.0883
0.624	8.215
0.628	8.3891
0.632	8.4675
0.636	8.4564
0.64	8.3994
0.644	8.3003
0.648	8.2109
0.652	8.3361
0.656	8.5016
0.66	8.5845
0.664	8.5706
0.668	8.6572
0.672	8.7808
0.676	8.644
0.68	8.6572
0.684	9.0086
0.688	8.9814
0.692	8.9488
0.696	8.992
0.7	9.0068
0.704	9.0335
0.708	9.0672
0.712	9.1132
0.716	9.137
0.72	9.2056
0.724	9.2273
0.728	9.2636
0.732	9.3105
0.736	9.3373
0.74	9.3899
0.744	9.4018
0.748	9.4482
0.752	9.4883
0.756	9.531
0.76	9.5726
0.764	9.5873
0.768	9.645
0.772	9.6619
0.776	9.7048
0.78	9.7291
0.784	9.7597
0.788	9.795
0.792	9.828
0.796	9.8529
0.8	9.8831
0.84	10.1668
0.88	10.4228
0.92	10.6607
0.96	10.8866
1	11.0766
1.04	11.2555
1.08	11.4576
1.12	11.7147
1.16	11.9642
1.2	12.2529
1.24	12.4564
1.28	12.6254
1.32	12.6995
1.36	12.884
1.4	13.273
1.44	13.5099
1.48	13.5076
1.52	13.5601
1.56	13.6305
1.6	13.6729
1.64	13.6905
1.68	13.679
1.72	13.6106
1.76	13.6671
1.8	13.7189
1.84	13.7876
1.88	14.1071
1.92	14.1097
1.96	14.0041
2	13.9501
2.04	13.9401
2.08	13.9683
2.12	13.9631
2.16	13.899
2.2	13.7727
2.24	13.5255
2.28	12.6358
2.32	11.7493
2.36	12.1008
2.4	12.4777
2.44	12.2267
2.48	11.4829
2.52	10.9094
2.56	11.7899
2.6	12.5422
2.64	12.5447
2.68	11.8862
2.72	7.0735
2.76	4.0441
2.8	4.3137
2.84	4.2482
2.88	4.065
2.92	3.926
2.96	3.8761
3	3.9043
3.04	4.0495
3.08	4.2392
3.12	4.4423
3.16	4.6851
3.2	4.9844
3.24	5.0893
3.28	5.0258
3.32	4.7413
3.36	3.6941
3.4	3.1572
3.44	3.4294
3.48	3.5294
3.52	4.1856
3.56	5.7059
3.6	6.5981
3.64	6.9918
3.68	7.1
3.72	7.0849
3.76	6.8191
3.8	5.9022
3.84	5.2566
3.88	5.1951
3.92	5.109
3.96	4.63
4	4.8404
4.04	5.7087
4.08	6.5274
4.12	6.9977
4.16	7.4063
4.2	7.5637
4.24	7.6228
4.28	7.6188
4.32	7.5519
4.36	7.6179
4.4	7.5041
4.44	7.2002
4.48	6.821
4.52	6.7027
4.56	6.6476
4.6	6.4905
4.64	5.9143
4.68	5.5662
4.72	6.2925
4.76	6.7155
4.8	6.7435
4.84	6.6083
4.88	6.3306
4.92	5.937
4.96	5.7645
5	5.5344
5.2	5.35
5.4	4.4976
5.6	3.1402
5.8	2.9901
6	2.7678
6.2	3.3511
6.4	6.5452
6.6	6.8247
6.8	4.6967
7	4.6921
7.2	4.0616
7.4	4.3318
7.6	4.3085
7.8	4.5653
8	4.9967
8.2	5.6821
8.4	4.8306
8.6	3.9758
8.8	4.5133
9	4.4275
9.2	4.4415
9.4	4.1309
9.6	3.9397
9.8	3.8539
10	3.7083
10.2	3.5816
10.4	3.4456
10.6	3.3433
10.8	3.4734
11	3.6216
11.2	4.7325
11.4	3.6776
11.6	3.084
11.8	2.5595
12	2.5434
12.2	2.3507
12.4	2.413
12.6	2.5522
12.8	2.7387
13	2.582
13.2	2.6473
13.4	2.3731
13.6	2.262
13.8	2.3629
14	2.96
