Name: Reddish asphalt Shingle
Type: manmade
Class: Roofing Material
Subclass: Shingle
Particle Size: Solid
Sample No.: 0683UUUASP
Owner: National Photographic Interpretation Center
Wavelength Range: All
Origin: Spectra obtained from the Noncoventional Exploitation FactorsData System of the National Photographic Interpretation Center.
Description: Construction asphalt roofing shingle. Sample was reddish, granule-covered, and unweathered. Original ASTER Spectral Library name was jhu.becknic.manmade.roofing.shingle.solid.0683uuu.spectrum.txt
Measurement: Directional (10 Degree) Hemispherical Reflectance
X Units: Wavelength (micrometers)
Y Units: Reflectance (percent)
wavelength	value
0.3	5.06
0.304	5.12
0.308	5.18
0.312	5.23
0.316	5.28
0.32	5.4
0.324	5.43
0.328	5.47
0.332	5.51
0.336	5.55
0.34	5.59
0.344	5.63
0.348	5.66
0.352	5.69
0.356	5.72
0.36	5.74
0.364	5.76
0.368	5.77
0.372	5.78
0.376	5.78
0.38	5.82
0.384	5.83
0.388	5.84
0.392	5.85
0.396	5.85
0.4	5.86
0.404	5.85
0.408	5.85
0.412	5.85
0.416	5.85
0.42	5.85
0.424	5.85
0.428	5.85
0.432	5.85
0.436	5.86
0.44	5.86
0.444	5.86
0.448	5.87
0.452	5.88
0.456	5.88
0.46	5.88
0.464	5.89
0.468	5.89
0.472	5.9
0.476	5.91
0.48	5.92
0.484	5.94
0.488	5.96
0.492	5.98
0.496	6
0.5	6
0.504	6.01
0.508	6.03
0.512	6.06
0.516	6.09
0.52	6.12
0.524	6.16
0.528	6.21
0.532	6.28
0.536	6.36
0.54	6.47
0.544	6.62
0.548	6.82
0.552	7.09
0.556	7.45
0.56	7.93
0.564	8.56
0.568	9.31
0.572	10.18
0.576	11.14
0.58	12.15
0.584	13.18
0.588	14.14
0.592	15.01
0.596	15.76
0.6	16.38
0.604	16.87
0.608	17.25
0.612	17.53
0.616	17.75
0.62	17.92
0.624	18.06
0.628	18.16
0.632	18.26
0.636	18.36
0.64	18.44
0.644	18.53
0.648	18.64
0.652	18.74
0.656	18.85
0.66	18.97
0.664	19.1
0.668	19.24
0.672	19.38
0.676	19.53
0.68	19.68
0.684	19.83
0.688	19.98
0.692	20.15
0.696	20.3
0.7	20.45
0.704	20.6
0.708	20.73
0.712	20.85
0.716	20.96
0.72	21.05
0.724	21.12
0.728	21.18
0.732	21.22
0.736	21.23
0.74	21.23
0.744	21.21
0.748	21.17
0.752	21.11
0.756	21.04
0.76	20.95
0.764	20.86
0.768	20.76
0.772	20.65
0.776	20.54
0.78	20.42
0.784	20.3
0.788	20.17
0.792	20.05
0.796	19.92
0.8	19.81
0.84	18.78
0.88	18.49
0.92	18.89
0.96	19.49
1	19.85
1.04	19.67
1.08	19.28
1.12	18.86
1.16	18.48
1.2	18.12
1.24	17.81
1.28	17.53
1.32	17.26
1.36	16.97
1.4	16.5
1.44	16.46
1.48	16.37
1.52	16.19
1.56	16.03
1.6	15.89
1.64	15.78
1.68	15.65
1.72	15.53
1.76	15.37
1.8	15.27
1.84	15.11
1.88	14.97
1.92	14.69
1.96	14.64
2	14.62
2.04	14.57
2.08	14.45
2.12	14.27
2.16	13.84
2.2	13.12
2.24	12.58
2.28	12.7852
2.32	12.3564
2.36	11.7688
2.4	11.9672
2.44	11.4026
2.48	11.383
2.52	11.3328
2.56	11.0414
2.6	10.841
2.64	10.5412
2.68	8.9831
2.72	4.1028
2.76	3.5262
2.8	4.3108
2.84	4.8468
2.88	4.9378
2.92	4.7196
2.96	4.828
3	5.1773
3.04	5.2233
3.08	5.4396
3.12	5.8655
3.16	6.107
3.2	6.4488
3.24	6.826
3.28	6.8673
3.32	6.8749
3.36	6.2371
3.4	5.0747
3.44	5.0674
3.48	5.7421
3.52	5.8972
3.56	7.3093
3.6	7.699
3.64	7.8277
3.68	7.8718
3.72	7.9436
3.76	7.8831
3.8	7.9039
3.84	7.7511
3.88	7.7974
3.92	7.9449
3.96	7.7707
4	7.7227
4.04	8.0116
4.08	8.0833
4.12	8.0658
4.16	8.0539
4.2	7.7952
4.24	7.3559
4.28	7.2589
4.32	7.5284
4.36	7.6108
4.4	7.1913
4.44	6.9824
4.48	6.7477
4.52	6.7342
4.56	6.716
4.6	6.3268
4.64	5.9827
4.68	5.8476
4.72	5.6596
4.76	5.5189
4.8	5.3593
4.84	5.223
4.88	4.871
4.92	4.4023
4.96	4.1996
5	3.9854
5.2	3.6727
5.4	3.1369
5.6	2.8582
5.8	2.7761
6	2.4849
6.2	2.2485
6.4	2.6473
6.6	2.6788
6.8	2.2071
7	2.2261
7.2	2.2436
7.4	2.2132
7.6	2.3808
7.8	2.2455
8	2.0061
8.2	2.3212
8.4	2.7426
8.6	3.2301
8.8	4.9262
9	6.4676
9.2	7.4239
9.4	7.0542
9.6	7.8788
9.8	6.7249
10	6.4842
10.2	5.2048
10.4	4.6099
10.6	4.1744
10.8	3.9393
11	4.4682
11.2	3.9472
11.4	3.2657
11.6	2.8992
11.8	2.6759
12	2.3864
12.2	2.1479
12.4	1.8058
