Name: Ultra Flat Black Paint
Type: Manmade
Class: General Construction Material
Subclass: Paint
Particle Size: Solid
Sample No.: 1602
Owner: JPL
Wavelength Range: TIR
Origin: The Sherwin-Williams Co., Solon, OH 44139
Description: Ultra flat black interior/exterior spray paint.Krylon #1602.Collected by JPL Original ASTER Spectral Library name was jpl.nicolet.manmade.construction.paint.solid.1602.spectrum.txt
Measurement: Hemispherical reflectance
X Units: Wavelength (micrometers)
Y Units: Reflectance (percent)
wavelength	value
14.0131	4.8134
13.7895	5.0703
13.5729	4.7521
13.363	5.1014
13.1595	4.5687
12.9621	4.6944
12.7705	4.75
12.5845	4.4924
12.4039	4.4827
12.2284	4.6641
12.0578	4.7885
11.8918	4.8401
11.7304	4.6603
11.5733	4.7573
11.4203	4.6985
11.2714	4.7185
11.1263	4.7762
10.9848	4.8076
10.8469	4.7044
10.7125	4.8435
10.5813	4.7815
10.4533	4.7305
10.3284	4.7911
10.2064	5.0238
10.0872	4.9477
9.9708	4.9945
9.8571	4.9816
9.7459	5.0165
9.6372	4.7942
9.5309	5.0564
9.427	5.005
9.3252	4.9275
9.2257	4.9542
9.1282	5.0278
9.0328	4.9077
8.9394	4.9903
8.8478	5.2526
8.7582	5.2237
8.6703	5.1275
8.5842	4.3919
8.4997	4.2302
8.4169	3.6435
8.3357	3.12
8.2561	3.2043
8.178	3.4541
8.1013	3.4619
8.0261	3.1855
7.9522	3.16
7.8797	3.1669
7.8085	3.1172
7.7386	3.131
7.6699	3.1917
7.6024	3.282
7.5361	3.4308
7.4709	3.3916
7.4069	3.576
7.344	3.7045
7.2821	3.7529
7.2212	3.436
7.1614	3.4394
7.1025	3.6544
7.0446	3.852
6.9877	3.8328
6.9316	3.7628
6.8764	3.4284
6.8221	3.3011
6.7687	3.4062
6.7161	3.378
6.6643	3.5098
6.6133	3.7372
6.5631	3.6725
6.5136	3.8289
6.4649	3.8613
6.4169	3.7485
6.3696	3.8343
6.323	3.7831
6.277	3.9064
6.2318	3.8518
6.1871	3.9459
6.1432	4.0056
6.0998	4.1103
6.0571	4.0918
6.0149	4.1101
5.9733	4.2663
5.9323	4.3341
5.8919	4.3487
5.852	4.8525
5.8126	6.1597
5.7738	6.0198
5.7354	2.6268
5.6976	2.3859
5.6603	2.8713
5.6235	3.1619
5.5871	3.2229
5.5512	3.3096
5.5158	3.479
5.4808	3.4377
5.4463	3.4894
5.4121	3.5928
5.3785	3.5801
5.3452	3.5718
5.3123	3.6056
5.2799	3.5828
5.2478	3.5991
5.2161	3.6837
5.1848	3.7336
5.1539	3.6331
5.1234	3.6578
5.0932	3.721
5.0633	3.772
5.0338	3.6126
5.0047	3.7658
4.9759	3.6107
4.9474	3.7683
4.9192	3.7379
4.8914	3.618
4.8638	3.6633
4.8366	3.7342
4.8097	3.6837
4.7831	3.673
4.7567	3.7089
4.7307	3.6709
4.7049	3.8247
4.6795	3.6864
4.6543	3.749
4.6293	3.8135
4.6047	3.7991
4.5802	3.7298
4.5561	3.7601
4.5322	3.8202
4.5085	3.7218
4.4851	3.6903
4.462	3.8907
4.4391	3.7257
4.4164	3.7613
4.3939	3.764
4.3717	3.8043
4.3497	3.8334
4.3279	3.8255
4.3063	3.7461
4.285	3.7713
4.2638	3.7
4.2429	3.708
4.2222	3.7521
4.2016	3.7556
4.1813	3.7471
4.1612	3.6537
4.1412	3.7423
4.1215	3.74
4.1019	3.861
4.0826	3.706
4.0633	3.8111
4.0443	3.9017
4.0255	3.755
4.0068	3.8543
3.9883	3.7317
3.97	3.8115
3.9519	3.7978
3.9339	3.7666
3.916	3.7618
3.8984	3.7726
3.8809	3.9112
3.8635	3.8839
3.8463	3.7331
3.8293	3.7755
3.8124	3.814
3.7956	3.8306
3.779	3.7009
3.7626	3.804
3.7463	3.8859
3.7301	3.8715
3.7141	3.8304
3.6982	3.7816
3.6824	3.8566
3.6668	3.7903
3.6513	3.8591
3.6359	3.7579
3.6207	3.854
3.6056	3.8217
3.5906	3.8398
3.5758	3.8567
3.561	3.6611
3.5464	3.988
3.5319	3.7515
3.5175	3.8706
3.5033	3.6903
3.4891	3.7711
3.4751	3.7976
3.4612	3.9548
3.4474	3.9078
3.4337	3.8418
3.4201	3.8068
3.4066	3.7259
3.3932	3.4039
3.3799	3.5887
3.3668	3.4039
3.3537	3.4101
3.3407	3.3368
3.3279	3.4756
3.3151	3.5331
3.3024	3.5516
3.2899	3.6692
3.2774	3.6665
3.265	3.6519
3.2527	3.6391
3.2405	3.5914
3.2284	3.5929
3.2164	3.9155
3.2045	3.5953
3.1926	3.7828
3.1809	3.6544
3.1692	3.7645
3.1576	3.657
3.1461	3.7166
3.1347	3.7182
3.1234	3.6117
3.1121	3.7825
3.101	3.8346
3.0899	3.7218
3.0789	3.7614
3.068	3.6117
3.0571	3.7111
3.0463	3.8176
3.0356	3.8231
3.025	3.8171
3.0144	3.8522
3.004	3.5942
2.9935	3.8624
2.9832	3.7123
2.9729	3.5782
2.9628	3.8883
2.9526	3.7362
2.9426	3.7969
2.9326	3.7255
2.9227	3.6005
2.9128	3.7212
2.903	3.6895
2.8933	3.6191
2.8837	3.6494
2.8741	3.7496
2.8645	3.7568
2.8551	3.8182
2.8457	3.7237
2.8363	3.6467
2.8271	3.8083
2.8178	3.7571
2.8087	3.6876
2.7996	3.7907
2.7906	3.6453
2.7816	3.7463
2.7726	3.8793
2.7638	3.6621
2.755	3.5293
2.7462	3.5219
2.7375	3.7798
2.7289	3.7507
2.7203	3.8054
2.7117	3.8946
2.7033	3.6036
2.6948	3.9311
2.6864	3.6787
2.6781	3.9628
2.6698	3.8251
2.6616	3.7763
2.6534	3.7316
2.6453	3.8593
2.6372	3.7576
2.6292	3.8372
2.6212	3.8781
2.6133	3.9196
2.6054	3.5192
2.5976	3.7299
2.5898	3.9174
2.5821	3.7333
2.5744	3.6545
2.5667	3.8984
2.5591	3.7525
2.5516	3.896
2.5441	3.7169
2.5366	3.8454
2.5292	3.8555
2.5218	3.5715
2.5145	3.6381
2.5072	3.8337
2.4999	3.9685
2.4927	3.7167
2.4855	3.8115
2.4784	3.8007
2.4713	3.7367
2.4643	3.9537
2.4573	3.7126
2.4503	3.8441
2.4434	3.7433
2.4365	3.6966
2.4296	3.593
2.4228	3.6297
2.416	3.7006
2.4093	3.7121
2.4026	3.7784
2.396	3.6583
2.3893	3.8958
2.3827	3.7446
2.3762	3.6327
2.3697	3.6878
2.3632	3.7746
2.3567	3.5969
2.3503	3.6392
2.344	3.9047
2.3376	3.7731
2.3313	3.8437
2.325	3.8345
2.3188	3.9495
2.3126	3.7474
2.3064	3.387
2.3003	3.638
2.2942	3.8518
2.2881	3.6931
2.2821	3.6951
2.2761	3.9663
2.2701	3.8106
2.2641	3.8075
2.2582	4.0133
2.2523	3.7021
2.2465	3.5182
2.2406	3.5851
2.2348	3.6998
2.2291	3.7992
2.2233	3.847
2.2176	3.9023
2.212	3.5867
2.2063	3.9044
2.2007	3.6151
2.1951	3.8967
2.1895	3.9253
2.184	3.7418
2.1785	3.6049
2.173	3.7773
2.1676	3.9348
2.1622	3.6441
2.1568	3.7515
2.1514	3.7264
2.146	3.6405
2.1407	3.7186
2.1354	3.7142
2.1302	4.0202
2.1249	3.6967
2.1197	3.7228
2.1145	3.9844
2.1094	3.9389
2.1042	3.7772
2.0991	3.7176
2.094	3.6785
2.089	3.6046
2.0839	4.0245
2.0789	4.3682
2.0739	4.0029
2.069	3.6466
2.064	3.6123
2.0591	3.7819
2.0542	3.8529
2.0493	3.7635
2.0445	3.7796
2.0397	3.7019
2.0349	3.5139
2.0301	3.5003
2.0253	3.6459
2.0206	3.6393
2.0159	3.6296
2.0112	3.5501
2.0065	3.6647
2.0019	3.8318
