Name: Olive green gloss paint
Type: manmade
Class: General Construction Material
Subclass: Paint
Particle Size: Solid
Sample No.: 0385UUUPNT
Owner: National Photographic Interpretation Center
Wavelength Range: All
Origin: Spectra obtained from the Noncoventional Exploitation FactorsData System of the National Photographic Interpretation Center.
Description: A single coat of olive green alkyd gloss paint, on an aluminum surface. The paint is non-photochemically reactive. From the Great Life series by Martin Senour Paints. Original ASTER Spectral Library name was jhu.becknic.manmade.construction.paint.solid.0385uuu.spectrum.txt
Measurement: Directional (10 Degree) Hemispherical Reflectance
X Units: Wavelength (micrometers)
Y Units: Reflectance (percent)
wavelength	value
0.3	5.58
0.304	5.55
0.308	5.52
0.312	5.49
0.316	5.45
0.32	5.38
0.324	5.35
0.328	5.33
0.332	5.32
0.336	5.31
0.34	5.31
0.344	5.32
0.348	5.35
0.352	5.39
0.356	5.44
0.36	5.51
0.364	5.6
0.368	5.71
0.372	5.84
0.376	5.99
0.38	6.21
0.384	6.45
0.388	6.72
0.392	6.99
0.396	7.24
0.4	7.44
0.404	7.6
0.408	7.75
0.412	7.88
0.416	8.03
0.42	8.23
0.424	8.48
0.428	8.8
0.432	9.21
0.436	9.72
0.44	10.24
0.444	10.71
0.448	11.05
0.452	11.25
0.456	11.34
0.46	11.41
0.464	11.48
0.468	11.56
0.472	11.66
0.476	11.79
0.48	11.96
0.484	12.22
0.488	12.56
0.492	12.99
0.496	13.47
0.5	14.04
0.504	14.73
0.508	15.53
0.512	16.43
0.516	17.42
0.52	18.47
0.524	19.55
0.528	20.62
0.532	21.57
0.536	22.3
0.54	22.68
0.544	22.65
0.548	22.16
0.552	21.26
0.556	20.05
0.56	18.76
0.564	17.5
0.568	16.41
0.572	15.47
0.576	14.69
0.58	14.06
0.584	13.57
0.588	13.14
0.592	12.72
0.596	12.32
0.6	11.93
0.604	11.59
0.608	11.35
0.612	11.18
0.616	11.09
0.62	11.04
0.624	11.01
0.628	11
0.632	11
0.636	11.03
0.64	11.12
0.644	11.26
0.648	11.44
0.652	11.67
0.656	11.92
0.66	12.15
0.664	12.3
0.668	12.32
0.672	12.23
0.676	12.09
0.68	11.91
0.684	11.72
0.688	11.49
0.692	11.23
0.696	10.93
0.7	10.65
0.704	10.41
0.708	10.3
0.712	10.34
0.716	10.52
0.72	10.83
0.724	11.27
0.728	11.86
0.732	12.68
0.736	13.84
0.74	15.54
0.744	18
0.748	21.37
0.752	25.5
0.756	29.93
0.76	34
0.764	37.3
0.768	39.7
0.772	41.33
0.776	42.39
0.78	43.07
0.784	43.47
0.788	43.67
0.792	43.75
0.796	43.71
0.8	43.63
0.84	41.84
0.88	41.1
0.92	41.83
0.96	43.63
1	45.75
1.04	48.28
1.08	50.32
1.12	53.59
1.16	55.9
1.2	57.06
1.24	58.54
1.28	59.48
1.32	60.21
1.36	60.7
1.4	60.8
1.44	61.19
1.48	62.24
1.52	63.09
1.56	63.72
1.6	64.37
1.64	64.72
1.68	63.99
1.72	62.51
1.76	63.92
1.8	65.55
1.84	66.31
1.88	67.09
1.92	66.87
1.96	67.69
2	68.78
2.04	68.59
2.08	68.7
2.12	68.83
2.16	68.76
2.2	69.42
2.24	67.21
2.28	61.929
2.32	59.7144
2.36	59.707
2.4	60.9536
2.44	62.1888
2.48	62.7176
2.52	64.1966
2.56	66.2374
2.6	67.3966
2.64	68.2414
2.68	68.194
2.72	60.109
2.76	50.3302
2.8	32.7712
2.84	16.7084
2.88	13.1584
2.92	13.519
2.96	14.6158
3	15.6264
3.04	16.7612
3.08	16.3778
3.12	15.3082
3.16	13.4508
3.2	13.7996
3.24	16.227
3.28	20.5388
3.32	19.5384
3.36	9.3216
3.4	4.5359
3.44	5.6285
3.48	7.2649
3.52	11.581
3.56	30.7912
3.6	37.8742
3.64	40.8178
3.68	42.8878
3.72	44.211
3.76	45.2666
3.8	46.6928
3.84	48.6606
3.88	50.4036
3.92	52.6188
3.96	54.813
4	57.0464
4.04	59.0386
4.08	60.9478
4.12	61.7424
4.16	62.7856
4.2	63.8104
4.24	64.5542
4.28	64.5924
4.32	65.9248
4.36	66.8566
4.4	67.555
4.44	67.7372
4.48	68.3058
4.52	68.8262
4.56	68.7444
4.6	68.7414
4.64	68.5076
4.68	68.2632
4.72	68.0126
4.76	67.482
4.8	67.615
4.84	67.6298
4.88	67.1976
4.92	65.9328
4.96	65.1292
5	63.2978
5.2	63.0455
5.4	57.3834
5.6	27.1965
5.8	5.1389
6	18.6533
6.2	28.1355
6.4	39.8166
6.6	44.3792
6.8	10.9186
7	14.1105
7.2	8.3241
7.4	9.8733
7.6	5.5991
7.8	3.9855
8	4.9118
8.2	5.3362
8.4	4.2178
8.6	4.1374
8.8	4.1456
9	4.9966
9.2	5.3935
9.4	7.0886
9.6	6.428
9.8	6.6189
10	7.753
10.2	8.7497
10.4	11.9253
10.6	14.8999
10.8	12.2399
11	8.2731
11.2	9.4875
11.4	16.491
11.6	22.0133
11.8	23.1795
12	21.6081
12.2	14.7637
12.4	3.3431
