Name: Pine Wood
Type: manmade
Class: General Construction Material
Subclass: Wood
Particle Size: Solid
Sample No.: 0404UUUWOD
Owner: National Photographic Interpretation Center
Wavelength Range: All
Origin: Spectra obtained from the Noncoventional Exploitation FactorsData System of the National Photographic Interpretation Center.
Description: General construction pine wood lumber. Sample was bare and weathered. Original ASTER Spectral Library name was jhu.becknic.manmade.construction.wood.solid.0404uuu.spectrum.txt
Measurement: Directional (10 Degree) Hemispherical Reflectance
X Units: Wavelength (micrometers)
Y Units: Reflectance (percent)
wavelength	value
0.3	3.9064
0.304	3.9064
0.308	3.9064
0.312	3.9064
0.316	4.0092
0.32	4.0092
0.324	4.112
0.328	4.112
0.332	4.2148
0.336	4.3176
0.34	4.4204
0.344	4.626
0.348	4.7288
0.352	4.9344
0.356	5.14
0.36	5.3456
0.364	5.5512
0.368	5.8596
0.372	6.168
0.376	6.5792
0.38	7.0932
0.384	7.6072
0.388	8.3268
0.392	9.0464
0.396	9.8688
0.4	10.794
0.404	11.822
0.408	12.85
0.412	13.878
0.416	15.0088
0.42	16.1396
0.424	17.1676
0.428	18.1956
0.432	19.3264
0.436	20.3544
0.44	21.2796
0.444	22.3076
0.448	23.3356
0.452	24.3636
0.456	25.2888
0.46	26.214
0.464	27.242
0.468	28.27
0.472	29.1952
0.476	30.2232
0.48	31.1484
0.484	32.2792
0.488	33.3072
0.492	34.3352
0.496	35.2604
0.5	36.1856
0.504	37.1108
0.508	38.1388
0.512	39.2696
0.516	40.2976
0.52	41.3256
0.524	42.4564
0.528	43.5872
0.532	44.718
0.536	45.746
0.54	46.8768
0.544	48.0076
0.548	49.1384
0.552	50.2692
0.556	51.4
0.56	52.5308
0.564	53.7644
0.568	54.8952
0.572	56.026
0.576	57.1568
0.58	58.2876
0.584	59.4184
0.588	60.5492
0.592	61.68
0.596	62.708
0.6	63.8388
0.604	64.8668
0.608	65.8948
0.612	66.9228
0.616	67.9508
0.62	68.9788
0.624	69.904
0.628	70.8292
0.632	71.7544
0.636	72.6796
0.64	73.6048
0.644	74.4272
0.648	75.2496
0.652	76.072
0.656	76.8944
0.66	77.614
0.664	78.3336
0.668	78.9504
0.672	79.67
0.676	80.2868
0.68	80.9036
0.684	81.5204
0.688	82.0344
0.692	82.5484
0.696	83.0624
0.7	83.5764
0.704	83.9876
0.708	84.5016
0.712	84.9128
0.716	85.324
0.72	85.7352
0.724	86.0436
0.728	86.352
0.732	86.7632
0.736	86.9688
0.74	87.2772
0.744	87.4828
0.748	87.6884
0.752	87.894
0.756	88.0996
0.76	88.3052
0.764	88.408
0.768	88.6136
0.772	88.8192
0.776	88.922
0.78	89.2304
0.784	89.3332
0.788	89.5388
0.792	89.7444
0.796	89.8472
0.8	89.95
0.84	91.3892
0.88	92.3144
0.92	91.5948
0.96	90.6696
1	88.7164
1.04	89.8472
1.08	90.978
1.12	90.8752
1.16	85.1184
1.2	80.5952
1.24	82.0344
1.28	84.0904
1.32	84.3988
1.36	76.8944
1.4	68.362
1.44	53.97
1.48	52.7364
1.52	55.2036
1.56	56.9512
1.6	59.624
1.64	63.8388
1.68	62.3996
1.72	60.7548
1.76	60.138
1.8	60.138
1.84	61.2688
1.88	57.8764
1.92	38.7556
1.96	42.0452
2	47.802
2.04	45.0264
2.08	39.064
2.12	38.55
2.16	41.12
2.2	44.204
2.24	41.5142
2.28	35.0187
2.32	33.9221
2.36	33.974
2.4	34.166
2.44	31.1005
2.48	25.1948
2.52	25.8197
2.56	28.2209
2.6	30.6618
2.64	31.1154
2.68	28.2503
2.72	19.645
2.76	8.709
2.8	4.94
2.84	3.4121
2.88	3.0586
2.92	3.0436
2.96	3.8385
3	4.4489
3.04	4.7969
3.08	5.002
3.12	5.8237
3.16	6.5779
3.2	7.4426
3.24	8.5963
3.28	8.8207
3.32	9.2892
3.36	7.2594
3.4	5.1835
3.44	5.3399
3.48	5.2407
3.52	6.6577
3.56	9.729
3.6	10.5082
3.64	10.3321
3.68	10.9095
3.72	11.701
3.76	12.01
3.8	13.1157
3.84	13.7239
3.88	14.2215
3.92	14.3275
3.96	15.046
4	15.4288
4.04	16.719
4.08	17.2945
4.12	18.1283
4.16	19.6074
4.2	20.7468
4.24	21.2985
4.28	22.0299
4.32	22.1362
4.36	22.0061
4.4	21.7175
4.44	21.238
4.48	20.953
4.52	21.1402
4.56	20.6028
4.6	19.5876
4.64	19.1335
4.68	18.5623
4.72	18.9393
4.76	18.9903
4.8	18.9497
4.84	18.9253
4.88	18.8056
4.92	19.4329
4.96	20.3045
5	20.4548
5.2	23.0022
5.4	22.1171
5.6	14.7851
5.8	5.3484
6	6.579
6.2	6.115
6.4	9.4849
6.6	4.3419
6.8	4.1904
7	3.5682
7.2	3.5743
7.4	3.8224
7.6	3.4101
7.8	3.1102
8	3.2933
8.2	3.1467
8.4	2.9267
8.6	3.1066
8.8	2.344
9	2.5554
9.2	2.8075
9.4	4.8408
9.6	5.0982
9.8	6.004
10	6.3411
10.2	7.2884
10.4	8.0692
10.6	8.5823
10.8	8.7788
11	7.6877
11.2	7.2225
11.4	7.7668
11.6	7.8767
11.8	8.0816
12	7.9354
12.2	6.3774
12.4	5.4894
