Name: Brass plate
Type: Manmade
Class: Reflectance target
Subclass: None
Particle Size: Solid
Sample No.: ILF-17464-2-1-tl
Owner: JPL
Wavelength Range: TIR
Origin: Labsphere, P.O. Box 70, Shaker Street, North Sutton, NH 03260(603) 927-4266
Description: Measurement made at top left. Field Brass 2.Measured Oct. 30th 1997 to Nov. 2nd 1997. Original ASTER Spectral Library name was jpl.nicolet.manmade.target.none.solid.bp21097c.spectrum.txt
Measurement: Hemispherical Reflectance
X Units: Wavelength (micrometers)
Y Units: Reflectence (percent)
wavelength	value
15.3853	90.3695
15.1161	90.7377
14.8563	90.4305
14.6052	90.4617
14.3624	90.5369
14.1276	90.4643
13.9004	90.4861
13.6803	90.4817
13.4671	90.3741
13.2604	90.4152
13.06	90.4521
12.8656	90.213
12.6769	90.0815
12.4936	90.0698
12.3155	90.1442
12.1425	89.9922
11.9742	90.0342
11.8106	89.9043
11.6513	89.9288
11.4963	90.0856
11.3454	89.9481
11.1983	89.9274
11.0551	89.8544
10.9154	89.8749
10.7793	89.6465
10.6465	89.8174
10.5169	89.7486
10.3904	89.6563
10.267	89.7162
10.1464	89.6722
10.0287	89.7506
9.9136	89.5317
9.8012	89.5115
9.6913	89.399
9.5838	89.4939
9.4787	89.4795
9.3758	89.476
9.2752	89.5865
9.1767	89.5571
9.0803	89.808
8.9858	89.9462
8.8934	90.0004
8.8028	89.871
8.714	89.5845
8.627	89.771
8.5417	89.6837
8.4581	89.8466
8.3761	89.7384
8.2957	89.884
8.2169	89.9031
8.1395	89.865
8.0635	89.9115
7.989	90.1276
7.9158	90.3668
7.8439	90.638
7.7734	90.8771
7.7041	91.0039
7.636	91.0158
7.5691	91.1769
7.5034	91.1113
7.4388	91.1136
7.3753	91.2529
7.3129	91.212
7.2515	91.1148
7.1912	91.1383
7.1318	91.0908
7.0734	91.0994
7.016	91.2511
6.9595	91.555
6.9039	91.4259
6.8492	91.4715
6.7953	91.4991
6.7423	91.1705
6.6901	91.2846
6.6387	91.7577
6.5881	91.428
6.5382	91.3023
6.4892	91.6418
6.4408	91.2293
6.3931	91.1179
6.3462	91.1323
6.2999	90.8101
6.2543	90.6738
6.2094	90.7767
6.1651	90.649
6.1214	91.0084
6.0784	91.3513
6.0359	91.2609
5.994	91.4549
5.9527	91.2538
5.912	91.3447
5.8718	91.3732
5.8322	91.422
5.7931	91.2366
5.7545	91.3467
5.7165	91.3307
5.6789	91.2018
5.6418	91.2722
5.6052	91.1147
5.5691	91.1359
5.5334	91.0062
5.4982	90.9653
5.4635	91.0589
5.4291	91.0248
5.3952	90.9637
5.3618	90.9403
5.3287	90.8911
5.2961	90.945
5.2638	90.926
5.2319	90.9129
5.2004	90.9129
5.1693	90.9629
5.1386	90.9539
5.1082	91.021
5.0782	91.017
5.0485	90.9548
5.0192	91.0671
4.9902	90.9331
4.9616	91.0318
4.9332	90.9981
4.9052	90.9754
4.8776	91.0965
4.8502	91.0413
4.8231	91.0247
4.7963	90.9974
4.7699	91.0261
4.7437	91.0608
4.7178	91.066
4.6922	91.0396
4.6668	91.0482
4.6418	91.0303
4.617	91.0403
4.5924	91.0054
4.5681	90.982
4.5441	91.0436
4.5203	91.0474
4.4968	91.0627
4.4735	91.0263
4.4505	91.0403
4.4277	90.9913
4.4051	90.9652
4.3828	91.0359
4.3607	90.9644
4.3388	90.8998
4.3171	90.6034
4.2956	90.1105
4.2744	89.8012
4.2534	90.4662
4.2325	89.3226
4.2119	90.4745
4.1915	90.9652
4.1712	90.9655
4.1512	90.971
4.1313	90.9865
4.1117	90.9549
4.0922	90.9627
4.0729	90.8936
4.0538	90.9482
4.0349	90.9593
4.0161	90.9878
3.9976	90.953
3.9792	90.9559
3.9609	90.9924
3.9428	90.9581
3.9249	90.927
3.9072	90.9261
3.8896	90.9804
3.8722	90.9129
3.8549	90.8574
3.8378	90.8789
3.8208	90.8832
3.804	90.9258
3.7873	90.9278
3.7708	90.9678
3.7544	90.9018
3.7382	90.9681
3.7221	90.9352
3.7061	90.9373
3.6903	90.9069
3.6746	90.9349
3.659	90.9325
3.6436	90.9162
3.6283	91.0146
3.6131	90.9955
3.5981	90.928
3.5832	90.8639
3.5684	90.9296
3.5537	90.9916
3.5391	90.961
3.5247	90.9617
3.5104	91.1654
3.4962	91.0296
3.4821	91.036
3.4681	90.9864
3.4543	90.9885
3.4405	91.0272
3.4269	91.1324
3.4133	91.0471
3.3999	91.1585
3.3866	91.0913
3.3733	90.9952
3.3602	91.0493
3.3472	90.9395
3.3343	90.9074
3.3215	90.9386
3.3088	90.8981
3.2961	90.9605
3.2836	90.8085
3.2712	91.0106
3.2588	90.877
3.2466	90.9171
3.2345	90.9071
3.2224	90.8625
3.2104	90.9932
3.1985	90.9595
3.1867	91.0648
3.175	90.9037
3.1634	90.9388
3.1519	90.9335
3.1404	90.9551
3.129	90.9751
3.1178	90.9622
3.1065	90.9036
3.0954	90.9962
3.0844	91.0351
3.0734	91.0853
3.0625	91.0453
3.0517	91.0466
3.041	91.0604
3.0303	90.9655
3.0197	91.0154
3.0092	91.0634
2.9987	90.9587
2.9884	91.0516
2.9781	91.0833
2.9678	91.0367
2.9577	90.9435
2.9476	91.1201
2.9376	91.0842
2.9276	90.9653
2.9177	90.9834
2.9079	90.9672
2.8982	91.0157
2.8885	91.0487
2.8789	90.996
2.8693	90.9924
2.8598	90.9235
2.8504	90.962
2.841	91.1117
2.8317	90.9409
2.8224	90.9145
2.8133	90.7189
2.8041	90.934
2.7951	90.9789
2.786	90.7568
2.7771	90.8778
2.7682	90.7904
2.7594	90.8467
2.7506	90.793
2.7418	90.9266
2.7332	90.8247
2.7246	91.1484
2.716	90.7546
2.7075	90.9029
2.699	90.7149
2.6906	90.8679
2.6823	90.8368
2.674	90.7815
2.6657	91.1071
2.6575	90.657
2.6494	90.7747
2.6413	90.9472
2.6332	90.729
2.6252	90.7862
2.6173	91.0592
2.6094	90.9435
2.6015	90.8205
2.5937	90.9742
2.5859	90.8596
2.5782	90.7154
2.5706	90.8131
2.5629	90.8733
2.5554	90.7363
2.5478	90.6873
2.5403	90.6558
2.5329	90.8341
2.5255	90.6949
2.5181	90.7204
2.5108	90.6616
2.5035	90.8678
2.4963	90.8377
2.4891	90.5694
2.482	90.6351
2.4749	90.6923
2.4678	90.7025
2.4608	90.7309
2.4538	90.8736
2.4468	90.7651
2.4399	90.6597
2.4331	90.7438
2.4262	90.5084
2.4194	90.7327
2.4127	90.6719
2.4059	90.5334
2.3993	90.6586
2.3926	90.7086
2.386	90.5567
2.3795	90.7047
2.3729	90.5029
2.3664	90.7777
2.36	90.5129
2.3535	90.7235
2.3471	90.7584
2.3408	90.5638
2.3345	90.6606
2.3282	90.6459
2.3219	90.7081
2.3157	90.5401
2.3095	90.6611
2.3034	90.8262
2.2972	90.6699
2.2911	90.5833
2.2851	90.5296
2.279	90.738
2.2731	90.5717
2.2671	90.6279
2.2612	90.4101
2.2553	90.5287
2.2494	90.733
2.2435	90.7258
2.2377	90.539
2.232	90.5463
2.2262	90.5945
2.2205	90.5779
2.2148	90.6391
2.2091	90.4345
2.2035	90.5995
2.1979	90.6099
2.1923	90.5062
2.1868	90.4577
2.1812	90.5649
2.1758	90.5844
2.1703	90.4939
2.1649	90.582
2.1595	90.3955
2.1541	90.7347
2.1487	90.5978
2.1434	90.6374
2.1381	90.3189
2.1328	90.7426
2.1275	90.5685
2.1223	90.5907
2.1171	90.4339
2.112	90.4618
2.1068	90.5711
2.1017	90.6554
2.0966	90.5925
2.0915	90.3224
2.0865	90.7526
2.0814	90.2119
2.0764	90.7005
2.0715	90.6535
2.0665	90.5632
2.0616	90.645
2.0567	90.4177
2.0518	90.5327
2.0469	90.4706
2.0421	90.4352
2.0373	90.4589
2.0325	90.518
2.0277	90.638
2.0229	90.3591
2.0182	90.3048
2.0135	90.7183
2.0088	90.493
2.0042	90.6663
