Name: Construction Concrete
Type: manmade
Class: Concrete
Subclass: Paving Concrete
Particle Size: Solid
Sample No.: 0397UUUCNC
Owner: National Photographic Interpretation Center
Wavelength Range: All
Origin: Spectra obtained from the Noncoventional Exploitation FactorsData System of the National Photographic Interpretation Center.
Description: Variegated bridge construction concrete, with quartz aggregate showing. Sample was gray, smooth, and clean. Original ASTER Spectral Library name was jhu.becknic.manmade.concrete.paving.solid.0397uuu.spectrum.txt
Measurement: Directional (10 Degree) Hemispherical Reflectance
X Units: Wavelength (micrometers)
Y Units: Reflectance (percent)
wavelength	value
0.42	28.6098
0.424	28.091
0.428	28.5108
0.432	28.8213
0.436	29.126
0.44	29.3232
0.444	29.5451
0.448	29.7345
0.452	29.8491
0.456	29.9942
0.46	30.0988
0.464	30.1976
0.468	30.2745
0.472	30.3433
0.476	30.4248
0.48	30.5113
0.484	30.6318
0.488	30.7777
0.492	30.9363
0.496	31.1004
0.5	31.2691
0.504	31.4301
0.508	31.5707
0.512	31.7441
0.516	31.9504
0.52	32.1496
0.524	32.3443
0.528	32.5267
0.532	32.716
0.536	32.9094
0.54	33.0794
0.544	33.2227
0.548	33.3409
0.552	33.4496
0.556	33.5767
0.56	33.7103
0.564	33.8266
0.568	33.9029
0.572	33.9638
0.576	34.0536
0.58	34.1259
0.584	34.1984
0.588	34.2486
0.592	34.2675
0.596	34.2967
0.6	34.2966
0.604	34.3322
0.608	34.3377
0.612	34.3371
0.616	34.3122
0.62	34.3715
0.624	34.3471
0.628	34.3444
0.632	34.3558
0.636	34.3659
0.64	34.3987
0.644	34.3819
0.648	34.4237
0.652	34.4594
0.656	34.5036
0.66	34.5428
0.664	34.5999
0.668	34.6611
0.672	34.7117
0.676	34.7768
0.68	34.744
0.684	34.8401
0.688	34.8902
0.692	34.8756
0.696	34.8795
0.7	34.9072
0.704	34.9315
0.708	34.9636
0.712	35.0109
0.716	35.0621
0.72	35.1037
0.724	35.1411
0.728	35.1789
0.732	35.2217
0.736	35.2584
0.74	35.2872
0.744	35.3185
0.748	35.3485
0.752	35.3656
0.756	35.3902
0.76	35.4074
0.764	35.4188
0.768	35.4166
0.772	35.4144
0.776	35.4004
0.78	35.3819
0.784	35.363
0.788	35.346
0.792	35.3146
0.796	35.2983
0.8	35.2678
0.84	34.7849
0.88	34.1963
0.92	33.8148
0.96	33.661
1	33.7431
1.04	33.9339
1.08	34.2956
1.12	34.6078
1.16	34.3644
1.2	34.3496
1.24	34.3843
1.28	34.1534
1.32	33.8962
1.36	34.0029
1.4	31.2513
1.44	29.9355
1.48	30.198
1.52	30.634
1.56	30.7231
1.6	30.5147
1.64	30.284
1.68	29.7637
1.72	29.0991
1.76	28.28
1.8	27.5461
1.84	27.3657
1.88	24.6702
1.92	20.6628
1.96	20.5568
2	21.4649
2.04	22.1891
2.08	22.6621
2.12	22.9172
2.16	22.9217
2.2	22.2127
2.24	21.4501
2.28	21.1006
2.32	20.6724
2.36	20.1803
2.4	19.3492
2.44	18.279
2.48	17.4631
2.52	16.6412
2.56	16.415
2.6	16.3676
2.64	15.6356
2.68	12.8284
2.72	8.0032
2.76	6.3363
2.8	5.9762
2.84	5.6855
2.88	5.5914
2.92	5.5179
2.96	5.5438
3	5.5592
3.04	5.6955
3.08	5.7117
3.12	5.8206
3.16	5.9146
3.2	6.0366
3.24	6.1418
3.28	6.2356
3.32	6.311
3.36	6.3033
3.4	6.2629
3.44	6.3696
3.48	6.4608
3.52	6.6304
3.56	6.7877
3.6	6.9081
3.64	6.9642
3.68	7.0614
3.72	7.0635
3.76	7.1121
3.8	7.041
3.84	7.0117
3.88	6.9257
3.92	6.7623
3.96	6.5197
4	6.4193
4.04	6.751
4.08	6.9662
4.12	6.984
4.16	6.8934
4.2	6.7922
4.24	6.6571
4.28	6.5249
4.32	6.4031
4.36	6.2507
4.4	6.0253
4.44	5.8417
4.48	5.6884
4.52	5.7579
4.56	5.7896
4.6	5.6635
4.64	5.5185
4.68	5.3047
4.72	5.2904
4.76	5.1699
4.8	5.0517
4.84	4.8855
4.88	4.6313
4.92	4.2977
4.96	4.122
5	3.9671
5.2	3.7157
5.4	3.3309
5.6	2.9668
5.8	2.7572
6	2.1765
6.2	1.9242
6.4	2.0014
6.6	2.6028
6.8	3.009
7	2.8785
7.2	2.6598
7.4	2.3053
7.6	2.288
7.8	2.6807
8	5.1857
8.2	10.9379
8.4	11.8405
8.6	9.9797
8.8	13.2739
9	16.0822
9.2	15.9703
9.4	12.3345
9.6	9.0858
9.8	8.496
10	7.9359
10.2	7.6685
10.4	7.967
10.6	7.6739
10.8	7.4751
11	6.9012
11.2	6.7414
11.4	7.2822
11.6	5.8263
11.8	4.876
12	4.1701
12.2	3.4913
12.4	4.5726
12.6	4.608
12.8	5.3845
13	4.1934
13.2	3.7731
13.4	3.5976
13.6	3.3891
13.8	3.341
14	3.0595
