Name: Bare Red Brick
Type: manmade
Class: General Construction Material
Subclass: Brick
Particle Size: Solid
Sample No.: 0413UUUBRK
Owner: National Photographic Interpretation Center
Wavelength Range: All
Origin: Spectra obtained from the Noncoventional Exploitation FactorsData System of the National Photographic Interpretation Center.
Description: General fabrication construction brick. Brick surface was smooth, bare, and red in color. Original ASTER Spectral Library name was jhu.becknic.manmade.construction.brick.solid.0413uuu.spectrum.txt
Measurement: Directional (10 Degree) Hemispherical Reflectance
X Units: Wavelength (micrometers)
Y Units: Reflectance (percent)
wavelength	value
0.3	3.06
0.304	3.1
0.308	3.13
0.312	3.16
0.316	3.19
0.32	3.25
0.324	3.28
0.328	3.3
0.332	3.32
0.336	3.35
0.34	3.36
0.344	3.38
0.348	3.41
0.352	3.43
0.356	3.45
0.36	3.48
0.364	3.51
0.368	3.53
0.372	3.56
0.376	3.59
0.38	3.63
0.384	3.67
0.388	3.7
0.392	3.74
0.396	3.78
0.4	3.81
0.404	3.85
0.408	3.89
0.412	3.92
0.416	3.96
0.42	4
0.424	4.05
0.428	4.09
0.432	4.14
0.436	4.19
0.44	4.25
0.444	4.3
0.448	4.36
0.452	4.4
0.456	4.45
0.46	4.48
0.464	4.51
0.468	4.54
0.472	4.57
0.476	4.61
0.48	4.65
0.484	4.71
0.488	4.78
0.492	4.85
0.496	4.92
0.5	4.97
0.504	5.03
0.508	5.1
0.512	5.17
0.516	5.25
0.52	5.35
0.524	5.46
0.528	5.6
0.532	5.76
0.536	5.96
0.54	6.2
0.544	6.5
0.548	6.88
0.552	7.33
0.556	7.87
0.56	8.5
0.564	9.24
0.568	10.05
0.572	10.93
0.576	11.86
0.58	12.79
0.584	13.71
0.588	14.58
0.592	15.38
0.596	16.08
0.6	16.68
0.604	17.2
0.608	17.63
0.612	17.98
0.616	18.27
0.62	18.51
0.624	18.72
0.628	18.91
0.632	19.08
0.636	19.25
0.64	19.42
0.644	19.58
0.648	19.77
0.652	19.96
0.656	20.16
0.66	20.38
0.664	20.61
0.668	20.86
0.672	21.12
0.676	21.4
0.68	21.69
0.684	22
0.688	22.32
0.692	22.66
0.696	23
0.7	23.36
0.704	23.73
0.708	24.1
0.712	24.47
0.716	24.84
0.72	25.19
0.724	25.54
0.728	25.87
0.732	26.18
0.736	26.45
0.74	26.71
0.744	26.93
0.748	27.11
0.752	27.26
0.756	27.38
0.76	27.45
0.764	27.51
0.768	27.52
0.772	27.52
0.776	27.48
0.78	27.42
0.784	27.35
0.788	27.24
0.792	27.13
0.796	26.99
0.8	26.85
0.84	25.39
0.88	25.13
0.92	26.71
0.96	30.11
1	35.13
1.04	40.4
1.08	44.87
1.12	48.62
1.16	51.53
1.2	53.47
1.24	54.68
1.28	55.44
1.32	55.82
1.36	55.9
1.4	55.44
1.44	55.6
1.48	55.95
1.52	56.17
1.56	56.31
1.6	56.51
1.64	56.74
1.68	56.77
1.72	56.93
1.76	56.69
1.8	56.58
1.84	56.27
1.88	55.19
1.92	50.47
1.96	53.5
2	55.34
2.04	56.06
2.08	56.13
2.12	56.5
2.16	56.32
2.2	55.99
2.24	55.83
2.28	56.1938
2.32	55.993
2.36	55.614
2.4	54.2672
2.44	51.9938
2.48	50.096
2.52	48.8886
2.56	48.2834
2.6	47.8736
2.64	46.7204
2.68	41.4024
2.72	23.7238
2.76	13.643
2.8	12.7478
2.84	12.9798
2.88	13.7984
2.92	14.1544
2.96	14.8378
3	16.1174
3.04	17.3876
3.08	18.281
3.12	20.1002
3.16	21.9848
3.2	24.0028
3.24	25.978
3.28	27.4426
3.32	29.4898
3.36	30.4254
3.4	31.369
3.44	32.69
3.48	34.1142
3.52	35.247
3.56	36.664
3.6	37.7658
3.64	38.5062
3.68	39.215
3.72	39.8668
3.76	39.995
3.8	40.4908
3.84	40.6148
3.88	40.3848
3.92	40.7996
3.96	40.3758
4	39.7842
4.04	39.665
4.08	39.1164
4.12	37.9692
4.16	36.771
4.2	35.2638
4.24	31.8128
4.28	30.6
4.32	31.3064
4.36	29.8062
4.4	27.227
4.44	25.3376
4.48	23.9264
4.52	24.1852
4.56	24.0614
4.6	23.4
4.64	22.437
4.68	21.282
4.72	21.5664
4.76	21.3532
4.8	20.6008
4.84	19.3652
4.88	16.9788
4.92	13.1052
4.96	10.948
5	8.8983
5.2	7.5914
5.4	5.103
5.6	4.978
5.8	5.7812
6	4.0191
6.2	2.7766
6.4	3.7941
6.6	3.1633
6.8	2.4926
7	1.9455
7.2	1.5513
7.4	1.1216
7.6	1.0292
7.8	0.7643
8	1.5651
8.2	3.8758
8.4	4.9353
8.6	5.4314
8.8	6.6566
9	8.3527
9.2	10.28
9.4	9.3405
9.6	7.2865
9.8	6.6164
10	5.4004
10.2	4.5124
10.4	3.7742
10.6	3.1796
10.8	2.8104
11	2.4207
11.2	2.0889
11.4	2.1922
11.6	1.7606
11.8	1.2768
12	1.0018
12.2	1.1917
12.4	2.8807
