Name: Olive green gloss paint
Type: manmade
Class: General Construction Material
Subclass: Paint
Particle Size: Solid
Sample No.: 0386UUUPNT
Owner: National Photographic Interpretation Center
Wavelength Range: All
Origin: Spectra obtained from the Noncoventional Exploitation FactorsData System of the National Photographic Interpretation Center.
Description: Two coats of olive green alkyd gloss paint on an aluminum surface. The paint is non-photochemically reactive. From the Great Life series by Martin Senour Paints. Original ASTER Spectral Library name was jhu.becknic.manmade.construction.paint.solid.0386uuu.spectrum.txt
Measurement: Directional (10 Degree) Hemispherical Reflectance
X Units: Wavelength (micrometers)
Y Units: Reflectance (percent)
wavelength	value
0.3	5.57
0.304	5.54
0.308	5.51
0.312	5.48
0.316	5.45
0.32	5.41
0.324	5.38
0.328	5.36
0.332	5.35
0.336	5.34
0.34	5.34
0.344	5.36
0.348	5.39
0.352	5.43
0.356	5.49
0.36	5.56
0.364	5.65
0.368	5.76
0.372	5.89
0.376	6.05
0.38	6.28
0.384	6.52
0.388	6.79
0.392	7.06
0.396	7.31
0.4	7.51
0.404	7.67
0.408	7.82
0.412	7.96
0.416	8.11
0.42	8.31
0.424	8.56
0.428	8.89
0.432	9.31
0.436	9.81
0.44	10.33
0.444	10.81
0.448	11.16
0.452	11.36
0.456	11.45
0.46	11.51
0.464	11.59
0.468	11.67
0.472	11.78
0.476	11.9
0.48	12.08
0.484	12.34
0.488	12.7
0.492	13.12
0.496	13.61
0.5	14.18
0.504	14.87
0.508	15.68
0.512	16.59
0.516	17.58
0.52	18.64
0.524	19.74
0.528	20.81
0.532	21.78
0.536	22.51
0.54	22.9
0.544	22.86
0.548	22.37
0.552	21.45
0.556	20.24
0.56	18.93
0.564	17.65
0.568	16.55
0.572	15.61
0.576	14.82
0.58	14.2
0.584	13.69
0.588	13.26
0.592	12.85
0.596	12.44
0.6	12.05
0.604	11.71
0.608	11.47
0.612	11.3
0.616	11.21
0.62	11.16
0.624	11.14
0.628	11.13
0.632	11.13
0.636	11.16
0.64	11.25
0.644	11.4
0.648	11.58
0.652	11.8
0.656	12.06
0.66	12.29
0.664	12.44
0.668	12.46
0.672	12.37
0.676	12.22
0.68	12.05
0.684	11.86
0.688	11.63
0.692	11.36
0.696	11.07
0.7	10.78
0.704	10.55
0.708	10.43
0.712	10.47
0.716	10.66
0.72	10.97
0.724	11.41
0.728	12
0.732	12.82
0.736	13.97
0.74	15.64
0.744	18.06
0.748	21.38
0.752	25.56
0.756	30.23
0.76	34.83
0.764	38.92
0.768	42.17
0.772	44.62
0.776	46.36
0.78	47.57
0.784	48.36
0.788	48.85
0.792	49.11
0.796	49.18
0.8	49.15
0.84	46.58
0.88	44.51
0.92	44.03
0.96	45.29
1	47.14
1.04	49.9
1.08	52.07
1.12	57.25
1.16	61
1.2	62.06
1.24	64.36
1.28	65.26
1.32	65.58
1.36	65.19
1.4	63.63
1.44	62.73
1.48	64.07
1.52	65.02
1.56	65.23
1.6	65.48
1.64	64.81
1.68	61.03
1.72	55.4
1.76	57.94
1.8	61.17
1.84	62.43
1.88	63.16
1.92	60.67
1.96	61.77
2	63.03
2.04	61.08
2.08	60.17
2.12	59.01
2.16	58.52
2.2	59.95
2.24	54.18
2.28	43.2522
2.32	39.8198
2.36	39.7728
2.4	40.8708
2.44	42.6128
2.48	43.0716
2.52	45.3014
2.56	48.5092
2.6	50.633
2.64	51.295
2.68	50.9308
2.72	37.8298
2.76	26.013
2.8	14.764
2.84	8.4987
2.88	7.3641
2.92	7.4778
2.96	7.7453
3	8.2405
3.04	8.8378
3.08	8.4786
3.12	8.1421
3.16	7.7085
3.2	7.7828
3.24	8.4484
3.28	9.8362
3.32	9.4935
3.36	5.9713
3.4	4.7663
3.44	5.4326
3.48	5.5215
3.52	7.0597
3.56	13.792
3.6	17.667
3.64	19.5906
3.68	20.977
3.72	21.7496
3.76	22.468
3.8	23.7606
3.84	25.2482
3.88	26.7432
3.92	28.7904
3.96	30.8316
4	33.149
4.04	35.6618
4.08	37.5374
4.12	38.649
4.16	39.9564
4.2	40.9102
4.24	41.7502
4.28	42.0438
4.32	43.6638
4.36	44.85
4.4	45.6226
4.44	46.0252
4.48	46.5818
4.52	47.2298
4.56	47.1908
4.6	46.9952
4.64	46.3462
4.68	45.8434
4.72	45.566
4.76	44.9418
4.8	45.0142
4.84	44.8472
4.88	44.0754
4.92	42.347
4.96	41.25
5	38.9778
5.2	38.6994
5.4	32.0343
5.6	11.7644
5.8	5.2606
6	9.3078
6.2	12.3189
6.4	18.1614
6.6	20.8555
6.8	6.0128
7	7.0331
7.2	5.2968
7.4	5.7495
7.6	4.165
7.8	3.7954
8	4.8819
8.2	4.74
8.4	3.9965
8.6	4.0648
8.8	3.9303
9	4.719
9.2	5.306
9.4	6.5283
9.6	6.1901
9.8	6.767
10	6.8542
10.2	6.6173
10.4	7.5915
10.6	8.344
10.8	7.1908
11	5.6428
11.2	6.3249
11.4	8.1812
11.6	9.6917
11.8	9.7199
12	9.0386
12.2	6.8908
12.4	3.7356
