Name: Construction  Concrete
Type: manmade
Class: Concrete
Subclass: Paving Concrete
Particle Size: Solid
Sample No.: 0424UUUCNC
Owner: National Photographic Interpretation Center
Wavelength Range: All
Origin: Spectra obtained from the Noncoventional Exploitation FactorsData System of the National Photographic Interpretation Center.
Description: Variegated construction concrete, with quartz and limestone aggregate showing. Sample was gray, and slightly soiled. Concrete was from runway side strips. Original ASTER Spectral Library name was jhu.becknic.manmade.concrete.paving.solid.0424uuu.spectrum.txt
Measurement: Directional (10 Degree) Hemispherical Reflectance
X Units: Wavelength (micrometers)
Y Units: Reflectance (percent)
wavelength	value
0.42	18.1754
0.424	19.8154
0.428	19.6716
0.432	20.2566
0.436	19.834
0.44	20.5496
0.444	20.6132
0.448	20.7265
0.452	20.899
0.456	20.9858
0.46	21.1351
0.464	21.2291
0.468	21.2427
0.472	21.326
0.476	21.4317
0.48	21.5077
0.484	21.5622
0.488	21.6501
0.492	21.7683
0.496	21.8447
0.5	21.9951
0.504	22.14
0.508	22.338
0.512	22.5362
0.516	22.733
0.52	22.9059
0.524	22.9793
0.528	23.1943
0.532	23.49
0.536	23.8071
0.54	24.1443
0.544	24.4277
0.548	24.6305
0.552	24.8189
0.556	25.134
0.56	25.4972
0.564	26.064
0.568	26.5876
0.572	27.0634
0.576	27.5048
0.58	27.9163
0.584	28.3023
0.588	28.6806
0.592	28.9528
0.596	29.2107
0.6	29.4654
0.604	29.6809
0.608	29.9097
0.612	30.0998
0.616	30.2082
0.62	30.3939
0.624	30.5366
0.628	30.6391
0.632	30.7699
0.636	30.9253
0.64	31.0305
0.644	31.1601
0.648	31.2312
0.652	31.3702
0.656	31.4656
0.66	31.6138
0.664	31.732
0.668	31.8442
0.672	31.9503
0.676	32.0603
0.68	32.1831
0.684	32.2568
0.688	32.3547
0.692	32.485
0.696	32.7039
0.7	32.8492
0.704	33.0229
0.708	33.1803
0.712	33.3414
0.716	33.4372
0.72	33.5924
0.724	33.6957
0.728	33.8369
0.732	33.9509
0.736	34.0263
0.74	34.1721
0.744	34.2816
0.748	34.376
0.752	34.4787
0.756	34.5693
0.76	34.6743
0.764	34.7676
0.768	34.8551
0.772	34.9445
0.776	35.0168
0.78	35.0849
0.784	35.16
0.788	35.2417
0.792	35.3138
0.796	35.3786
0.8	35.439
0.84	35.8837
0.88	36.1484
0.92	36.5443
0.96	36.9909
1	37.4284
1.04	37.8604
1.08	38.4787
1.12	39.308
1.16	39.9078
1.2	40.4764
1.24	41.166
1.28	41.5707
1.32	41.6721
1.36	41.504
1.4	37.9853
1.44	37.4143
1.48	38.4545
1.52	39.8198
1.56	40.7009
1.6	41.2935
1.64	41.4736
1.68	41.4715
1.72	40.9881
1.76	40.0765
1.8	39.4307
1.84	38.5311
1.88	34.4236
1.92	26.9272
1.96	27.4026
2	28.9634
2.04	30.6924
2.08	31.67
2.12	31.9133
2.16	31.1704
2.2	29.6312
2.24	28.5034
2.28	26.6391
2.32	23.3154
2.36	23.4852
2.4	24.5618
2.44	22.2863
2.48	18.7369
2.52	17.0168
2.56	18.7622
2.6	20.4028
2.64	19.5766
2.68	15.6341
2.72	7.921
2.76	5.4815
2.8	5.4768
2.84	5.3593
2.88	5.1538
2.92	5.0629
2.96	4.9631
3	5.0378
3.04	5.0372
3.08	4.9871
3.12	5.1153
3.16	5.2999
3.2	5.5766
3.24	5.7662
3.28	5.8187
3.32	5.5466
3.36	4.2797
3.4	4.5331
3.44	4.51
3.48	3.924
3.52	4.9307
3.56	6.3879
3.6	7.2235
3.64	7.6171
3.68	7.791
3.72	7.7985
3.76	7.4571
3.8	6.2337
3.84	4.9521
3.88	4.7255
3.92	4.5406
3.96	3.5208
4	3.8379
4.04	5.6116
4.08	6.6616
4.12	7.1164
4.16	7.5306
4.2	7.6786
4.24	7.6412
4.28	7.4963
4.32	7.5407
4.36	7.5208
4.4	7.3429
4.44	6.9048
4.48	6.4717
4.52	6.3897
4.56	6.4197
4.6	6.2186
4.64	5.5412
4.68	5.1236
4.72	5.8765
4.76	6.2877
4.8	6.2296
4.84	6.0541
4.88	5.7078
4.92	5.1624
4.96	4.947
5	4.7076
5.2	4.3887
5.4	3.254
5.6	2.0097
5.8	2.0388
6	1.6219
6.2	1.8744
6.4	6.6386
6.6	9.2499
6.8	6.8147
7	5.9124
7.2	4.0126
7.4	4.2138
7.6	4.6295
7.8	5.5301
8	7.425
8.2	10.6025
8.4	9.3523
8.6	7.4925
8.8	9.0868
9	9.3301
9.2	9.5307
9.4	7.8253
9.6	5.8504
9.8	5.0714
10	4.6996
10.2	4.3961
10.4	4.3105
10.6	4.0828
10.8	4.1933
11	4.4414
11.2	5.1259
11.4	4.7756
11.6	3.4958
11.8	2.8131
12	2.9528
12.2	2.528
12.4	3.1679
12.6	3.4425
12.8	3.9669
13	3.3955
13.2	3.3459
13.4	3.1562
13.6	2.8338
13.8	2.3784
14	1.7063
