Name: Brass plate
Type: Manmade
Class: Reflectance target
Subclass: None
Particle Size: Solid
Sample No.: ILF-17464-2-1-bc
Owner: JPL
Wavelength Range: TIR
Origin: Labsphere, P.O. Box 70, Shaker Street, North Sutton, NH 03260(603) 927-4266
Description: Measurement made at bottom center. Field Brass 2.Measured Oct. 30th 1997 to Nov. 2nd 1997. Original ASTER Spectral Library name was jpl.nicolet.manmade.target.none.solid.bp21097.spectrum.txt
Measurement: Hemispherical Reflectance
X Units: Wavelength (micrometers)
Y Units: Reflectence (percent)
wavelength	value
15.3853	86.4328
15.1161	86.5694
14.8563	86.3418
14.6052	86.3945
14.3624	86.6566
14.1276	86.4207
13.9004	86.4017
13.6803	86.3203
13.4671	86.3347
13.2604	86.3308
13.06	86.2281
12.8656	86.1665
12.6769	85.9254
12.4936	85.8591
12.3155	85.9038
12.1425	85.8637
11.9742	86.0474
11.8106	85.904
11.6513	85.9379
11.4963	86.0688
11.3454	85.9288
11.1983	85.665
11.0551	85.6631
10.9154	85.5861
10.7793	85.5615
10.6465	85.7163
10.5169	85.5089
10.3904	85.5486
10.267	85.6305
10.1464	85.478
10.0287	85.48
9.9136	85.3623
9.8012	85.2921
9.6913	85.333
9.5838	85.1955
9.4787	85.2687
9.3758	85.286
9.2752	85.409
9.1767	85.4749
9.0803	85.5431
8.9858	85.7578
8.8934	85.662
8.8028	85.5258
8.714	85.5623
8.627	85.5051
8.5417	85.5048
8.4581	85.5345
8.3761	85.6009
8.2957	85.528
8.2169	85.5669
8.1395	85.6464
8.0635	85.7377
7.989	85.8964
7.9158	86.1511
7.8439	86.3759
7.7734	86.729
7.7041	86.7276
7.636	86.8637
7.5691	86.9926
7.5034	86.9849
7.4388	87.0874
7.3753	87.0455
7.3129	87.0105
7.2515	87.027
7.1912	87.0246
7.1318	87.0179
7.0734	86.9743
7.016	87.0992
6.9595	87.6128
6.9039	87.3131
6.8492	87.4184
6.7953	87.6584
6.7423	87.1193
6.6901	87.2944
6.6387	88.4663
6.5881	87.5874
6.5382	87.2301
6.4892	88.4102
6.4408	87.2753
6.3931	86.9326
6.3462	87.54
6.2999	86.7074
6.2543	86.7078
6.2094	86.709
6.1651	86.9184
6.1214	87.1706
6.0784	87.4984
6.0359	87.176
5.994	87.5189
5.9527	87.2123
5.912	87.1375
5.8718	87.4356
5.8322	87.4713
5.7931	87.1135
5.7545	87.2468
5.7165	87.3345
5.6789	87.1507
5.6418	87.4327
5.6052	86.9789
5.5691	86.9719
5.5334	86.8307
5.4982	86.9164
5.4635	87.0756
5.4291	86.8329
5.3952	86.8135
5.3618	86.7773
5.3287	86.7809
5.2961	86.8754
5.2638	86.7925
5.2319	86.7937
5.2004	86.7978
5.1693	86.8362
5.1386	86.7824
5.1082	86.8361
5.0782	86.8032
5.0485	86.7829
5.0192	86.799
4.9902	86.7608
4.9616	86.8217
4.9332	86.8662
4.9052	86.866
4.8776	86.8152
4.8502	86.8226
4.8231	86.9442
4.7963	86.7641
4.7699	86.8465
4.7437	86.86
4.7178	86.8391
4.6922	86.7808
4.6668	86.8523
4.6418	86.8504
4.617	86.8586
4.5924	86.8319
4.5681	86.8576
4.5441	86.7832
4.5203	86.8385
4.4968	86.8026
4.4735	86.8088
4.4505	86.7913
4.4277	86.8638
4.4051	86.7282
4.3828	86.8231
4.3607	86.7504
4.3388	86.8225
4.3171	86.9012
4.2956	86.8361
4.2744	86.9029
4.2534	86.885
4.2325	86.9083
4.2119	86.8886
4.1915	86.811
4.1712	86.7244
4.1512	86.7327
4.1313	86.7097
4.1117	86.6645
4.0922	86.7237
4.0729	86.7368
4.0538	86.7576
4.0349	86.6705
4.0161	86.6896
3.9976	86.6413
3.9792	86.746
3.9609	86.7507
3.9428	86.6756
3.9249	86.7504
3.9072	86.6379
3.8896	86.6799
3.8722	86.6326
3.8549	86.6102
3.8378	86.7343
3.8208	86.6207
3.804	86.6368
3.7873	86.7152
3.7708	86.6612
3.7544	86.536
3.7382	86.6044
3.7221	86.5972
3.7061	86.5716
3.6903	86.6104
3.6746	86.6494
3.659	86.6394
3.6436	86.6301
3.6283	86.651
3.6131	86.5759
3.5981	86.5819
3.5832	86.6869
3.5684	86.5667
3.5537	86.5312
3.5391	86.5512
3.5247	86.5485
3.5104	86.712
3.4962	86.6998
3.4821	86.5631
3.4681	86.6458
3.4543	86.5591
3.4405	86.6487
3.4269	86.8175
3.4133	86.667
3.3999	86.6406
3.3866	86.5597
3.3733	86.6026
3.3602	86.6208
3.3472	86.5076
3.3343	86.6356
3.3215	86.5747
3.3088	86.4836
3.2961	86.533
3.2836	86.5292
3.2712	86.6186
3.2588	86.5649
3.2466	86.5522
3.2345	86.6406
3.2224	86.5983
3.2104	86.4888
3.1985	86.5401
3.1867	86.5389
3.175	86.5108
3.1634	86.5109
3.1519	86.6172
3.1404	86.5626
3.129	86.5829
3.1178	86.5333
3.1065	86.5501
3.0954	86.5358
3.0844	86.6309
3.0734	86.6116
3.0625	86.3907
3.0517	86.6316
3.041	86.5467
3.0303	86.6151
3.0197	86.4502
3.0092	86.5534
2.9987	86.4764
2.9884	86.4712
2.9781	86.5691
2.9678	86.5328
2.9577	86.586
2.9476	86.4628
2.9376	86.5786
2.9276	86.4926
2.9177	86.5144
2.9079	86.5201
2.8982	86.3737
2.8885	86.4767
2.8789	86.4718
2.8693	86.5161
2.8598	86.5041
2.8504	86.3904
2.841	86.3914
2.8317	86.5314
2.8224	86.4624
2.8133	86.3306
2.8041	86.6931
2.7951	86.3226
2.786	86.7151
2.7771	86.1024
2.7682	86.6959
2.7594	86.3473
2.7506	86.2913
2.7418	86.7458
2.7332	86.4131
2.7246	86.8183
2.716	86.1391
2.7075	86.2582
2.699	86.3493
2.6906	86.2064
2.6823	86.3294
2.674	86.404
2.6657	87.1467
2.6575	86.1838
2.6494	86.1144
2.6413	86.1534
2.6332	86.3857
2.6252	86.3694
2.6173	86.7189
2.6094	86.4467
2.6015	86.3348
2.5937	87.0067
2.5859	86.1938
2.5782	86.1518
2.5706	86.2298
2.5629	86.4394
2.5554	86.1641
2.5478	86.1474
2.5403	86.0189
2.5329	86.1659
2.5255	86.058
2.5181	86.0738
2.5108	86.0235
2.5035	86.0421
2.4963	86.0797
2.4891	86.0553
2.482	85.9923
2.4749	85.9425
2.4678	85.9887
2.4608	85.9398
2.4538	85.9282
2.4468	85.9253
2.4399	85.9916
2.4331	85.9899
2.4262	85.7633
2.4194	86.055
2.4127	85.8971
2.4059	85.8678
2.3993	86.0382
2.3926	85.96
2.386	85.8115
2.3795	85.9918
2.3729	85.8125
2.3664	85.9461
2.36	85.9095
2.3535	85.947
2.3471	85.926
2.3408	85.8131
2.3345	85.6927
2.3282	85.8384
2.3219	86.013
2.3157	85.8739
2.3095	85.7586
2.3034	85.8454
2.2972	85.8724
2.2911	85.6558
2.2851	85.7675
2.279	85.888
2.2731	85.8168
2.2671	85.6072
2.2612	85.7673
2.2553	85.7044
2.2494	85.6131
2.2435	85.6839
2.2377	85.7676
2.232	85.6634
2.2262	85.854
2.2205	85.5935
2.2148	85.6566
2.2091	85.6307
2.2035	85.726
2.1979	85.7198
2.1923	85.5576
2.1868	85.7161
2.1812	85.4998
2.1758	85.6274
2.1703	85.5704
2.1649	85.5086
2.1595	85.6226
2.1541	85.6756
2.1487	85.4844
2.1434	85.61
2.1381	85.6152
2.1328	85.4405
2.1275	85.8281
2.1223	85.5264
2.1171	85.5597
2.112	85.6044
2.1068	85.5222
2.1017	85.2576
2.0966	85.5066
2.0915	85.7395
2.0865	85.6291
2.0814	85.3854
2.0764	85.547
2.0715	85.5729
2.0665	85.7405
2.0616	85.464
2.0567	85.3568
2.0518	85.5242
2.0469	85.5894
2.0421	85.5628
2.0373	85.3805
2.0325	85.386
2.0277	85.8111
2.0229	85.448
2.0182	85.2386
2.0135	85.5928
2.0088	85.218
2.0042	85.4523
