Name: Brass plate
Type: Manmade
Class: Reflectance target
Subclass: None
Particle Size: Solid
Sample No.: ILF-17464-2-1-c
Owner: JPL
Wavelength Range: TIR
Origin: Labsphere, P.O. Box 70, Shaker Street, North Sutton, NH 03260(603) 927-4266
Description: Measurement made at center. Field Brass 2.Measured Oct. 30th 1997 to Nov. 2nd 1997. Original ASTER Spectral Library name was jpl.nicolet.manmade.target.none.solid.bp21097a.spectrum.txt
Measurement: Hemispherical Reflectance
X Units: Wavelength (micrometers)
Y Units: Reflectence (percent)
wavelength	value
15.3853	88.117
15.1161	88.3343
14.8563	87.9176
14.6052	88.0985
14.3624	88.2137
14.1276	88.1142
13.9004	88.1693
13.6803	87.9724
13.4671	88.0182
13.2604	87.991
13.06	87.8262
12.8656	87.8027
12.6769	87.6553
12.4936	87.4799
12.3155	87.6235
12.1425	87.4888
11.9742	87.4921
11.8106	87.5104
11.6513	87.4547
11.4963	87.5253
11.3454	87.3565
11.1983	87.386
11.0551	87.2905
10.9154	87.1708
10.7793	87.1911
10.6465	87.1718
10.5169	87.1998
10.3904	87.1386
10.267	87.1338
10.1464	87.2891
10.0287	87.2532
9.9136	86.8904
9.8012	87.0234
9.6913	86.9644
9.5838	86.8569
9.4787	86.9305
9.3758	86.8906
9.2752	87.11
9.1767	86.9586
9.0803	87.1994
8.9858	87.4092
8.8934	87.4198
8.8028	87.2541
8.714	87.187
8.627	87.1661
8.5417	87.3333
8.4581	87.32
8.3761	87.3476
8.2957	87.3301
8.2169	87.3065
8.1395	87.3157
8.0635	87.4437
7.989	87.6101
7.9158	87.9
7.8439	88.286
7.7734	88.5039
7.7041	88.7083
7.636	88.726
7.5691	88.8122
7.5034	88.8002
7.4388	88.8669
7.3753	88.9434
7.3129	88.9077
7.2515	88.8462
7.1912	88.8913
7.1318	88.8074
7.0734	88.8467
7.016	89.0132
6.9595	89.3652
6.9039	89.1459
6.8492	89.2301
6.7953	89.2486
6.7423	88.9054
6.6901	88.968
6.6387	89.6942
6.5881	89.1979
6.5382	89.0092
6.4892	89.6266
6.4408	89.0087
6.3931	88.822
6.3462	88.9627
6.2999	88.5641
6.2543	88.5006
6.2094	88.5341
6.1651	88.5642
6.1214	88.8861
6.0784	89.2066
6.0359	89.0514
5.994	89.2122
5.9527	89.0778
5.912	89.0306
5.8718	89.1162
5.8322	89.1673
5.7931	88.8822
5.7545	89.0193
5.7165	89.0348
5.6789	88.9237
5.6418	89.0465
5.6052	88.7086
5.5691	88.846
5.5334	88.6641
5.4982	88.652
5.4635	88.8267
5.4291	88.5974
5.3952	88.6488
5.3618	88.6042
5.3287	88.624
5.2961	88.6305
5.2638	88.5529
5.2319	88.6214
5.2004	88.6018
5.1693	88.6382
5.1386	88.6476
5.1082	88.6574
5.0782	88.7319
5.0485	88.6379
5.0192	88.6823
4.9902	88.6343
4.9616	88.6542
4.9332	88.6786
4.9052	88.6994
4.8776	88.7636
4.8502	88.7012
4.8231	88.79
4.7963	88.7129
4.7699	88.7487
4.7437	88.7433
4.7178	88.7418
4.6922	88.7072
4.6668	88.7392
4.6418	88.739
4.617	88.6865
4.5924	88.7953
4.5681	88.6598
4.5441	88.7345
4.5203	88.7436
4.4968	88.8281
4.4735	88.7702
4.4505	88.6878
4.4277	88.7902
4.4051	88.6379
4.3828	88.7064
4.3607	88.6873
4.3388	88.6192
4.3171	88.5097
4.2956	88.2798
4.2744	88.1025
4.2534	88.4912
4.2325	87.8076
4.2119	88.4613
4.1915	88.7391
4.1712	88.6297
4.1512	88.6902
4.1313	88.678
4.1117	88.6991
4.0922	88.7532
4.0729	88.5426
4.0538	88.714
4.0349	88.7328
4.0161	88.7066
3.9976	88.7378
3.9792	88.639
3.9609	88.6649
3.9428	88.6687
3.9249	88.6557
3.9072	88.6297
3.8896	88.671
3.8722	88.6036
3.8549	88.6093
3.8378	88.5921
3.8208	88.646
3.804	88.6116
3.7873	88.6558
3.7708	88.6559
3.7544	88.6801
3.7382	88.632
3.7221	88.6249
3.7061	88.6456
3.6903	88.6987
3.6746	88.6444
3.659	88.7277
3.6436	88.7466
3.6283	88.6578
3.6131	88.6798
3.5981	88.7091
3.5832	88.6323
3.5684	88.5579
3.5537	88.7276
3.5391	88.6821
3.5247	88.7232
3.5104	88.9059
3.4962	88.8298
3.4821	88.8
3.4681	88.7922
3.4543	88.7817
3.4405	88.8389
3.4269	88.9329
3.4133	88.8093
3.3999	88.9015
3.3866	88.7818
3.3733	88.7373
3.3602	88.7495
3.3472	88.6759
3.3343	88.6394
3.3215	88.6129
3.3088	88.74
3.2961	88.7731
3.2836	88.5715
3.2712	88.8008
3.2588	88.7108
3.2466	88.7454
3.2345	88.6485
3.2224	88.6355
3.2104	88.7072
3.1985	88.7222
3.1867	88.7632
3.175	88.7587
3.1634	88.7176
3.1519	88.7741
3.1404	88.8136
3.129	88.8438
3.1178	88.8094
3.1065	88.67
3.0954	88.8397
3.0844	88.8044
3.0734	88.8563
3.0625	88.8798
3.0517	88.9053
3.041	88.87
3.0303	88.8704
3.0197	88.8596
3.0092	88.9552
2.9987	88.8264
2.9884	89.0062
2.9781	88.957
2.9678	88.7977
2.9577	88.893
2.9476	88.911
2.9376	88.9679
2.9276	88.7954
2.9177	88.8581
2.9079	88.9002
2.8982	88.9986
2.8885	88.7325
2.8789	88.8283
2.8693	88.8941
2.8598	88.8066
2.8504	88.6599
2.841	88.9453
2.8317	88.7045
2.8224	88.814
2.8133	88.6996
2.8041	88.847
2.7951	88.7326
2.786	88.9857
2.7771	88.8235
2.7682	88.5571
2.7594	88.8632
2.7506	88.6032
2.7418	88.8138
2.7332	88.6152
2.7246	89.1522
2.716	88.661
2.7075	88.6098
2.699	88.5301
2.6906	88.6206
2.6823	88.5824
2.674	88.6378
2.6657	89.0847
2.6575	88.5239
2.6494	88.5593
2.6413	88.8198
2.6332	88.6443
2.6252	88.5187
2.6173	88.8871
2.6094	88.6787
2.6015	88.599
2.5937	88.95
2.5859	88.8387
2.5782	88.563
2.5706	88.686
2.5629	88.8485
2.5554	88.5591
2.5478	88.6008
2.5403	88.5182
2.5329	88.7165
2.5255	88.4643
2.5181	88.4867
2.5108	88.6768
2.5035	88.4918
2.4963	88.5023
2.4891	88.4822
2.482	88.4776
2.4749	88.4905
2.4678	88.3756
2.4608	88.3923
2.4538	88.7013
2.4468	88.5291
2.4399	88.6147
2.4331	88.5048
2.4262	88.3512
2.4194	88.5973
2.4127	88.535
2.4059	88.3905
2.3993	88.4667
2.3926	88.4747
2.386	88.4896
2.3795	88.4534
2.3729	88.349
2.3664	88.6007
2.36	88.3767
2.3535	88.4988
2.3471	88.363
2.3408	88.3875
2.3345	88.419
2.3282	88.3475
2.3219	88.4369
2.3157	88.4232
2.3095	88.4529
2.3034	88.5602
2.2972	88.5194
2.2911	88.4042
2.2851	88.4318
2.279	88.6026
2.2731	88.4384
2.2671	88.4716
2.2612	88.3612
2.2553	88.2439
2.2494	88.5697
2.2435	88.4757
2.2377	88.419
2.232	88.3812
2.2262	88.4238
2.2205	88.4831
2.2148	88.3541
2.2091	88.4175
2.2035	88.2795
2.1979	88.4535
2.1923	88.5009
2.1868	88.2605
2.1812	88.6018
2.1758	88.3932
2.1703	88.3444
2.1649	88.554
2.1595	88.2706
2.1541	88.5412
2.1487	88.3572
2.1434	88.3584
2.1381	88.46
2.1328	88.4648
2.1275	88.3161
2.1223	88.4282
2.1171	88.2918
2.112	88.3577
2.1068	88.2688
2.1017	88.4917
2.0966	88.4015
2.0915	88.245
2.0865	88.367
2.0814	88.1762
2.0764	88.5322
2.0715	88.3267
2.0665	88.0965
2.0616	88.6081
2.0567	88.4612
2.0518	88.5833
2.0469	88.3876
2.0421	88.3037
2.0373	88.4807
2.0325	88.5621
2.0277	88.2757
2.0229	88.3438
2.0182	88.2749
2.0135	88.4542
2.0088	88.2395
2.0042	88.2008
