Name: Copper Metal
Type: manmade
Class: Roofing Material
Subclass: Metal
Particle Size: Solid
Sample No.: 0682UUUCOP
Owner: National Photographic Interpretation Center
Wavelength Range: All
Origin: Spectra obtained from the Noncoventional Exploitation FactorsData System of the National Photographic Interpretation Center.
Description: Ten year old copper metal from building roof flashing. Sample was weathered and bare. Original ASTER Spectral Library name was jhu.becknic.manmade.roofing.metal.solid.0682uuu.spectrum.txt
Measurement: Directional (10 Degree) Hemispherical Reflectance
X Units: Wavelength (micrometers)
Y Units: Reflectance (percent)
wavelength	value
0.3	7.67
0.304	7.54
0.308	7.46
0.312	7.44
0.316	7.46
0.32	7.5
0.324	7.59
0.328	7.72
0.332	7.85
0.336	7.98
0.34	8.08
0.344	8.15
0.348	8.15
0.352	8.09
0.356	7.98
0.36	7.84
0.364	7.67
0.368	7.49
0.372	7.31
0.376	7.15
0.38	6.96
0.384	6.82
0.388	6.69
0.392	6.58
0.396	6.49
0.4	6.42
0.404	6.37
0.408	6.32
0.412	6.3
0.416	6.28
0.42	6.28
0.424	6.29
0.428	6.31
0.432	6.34
0.436	6.37
0.44	6.43
0.444	6.5
0.448	6.61
0.452	6.73
0.456	6.88
0.46	7.06
0.464	7.27
0.468	7.53
0.472	7.82
0.476	8.14
0.48	8.5
0.484	8.9
0.488	9.31
0.492	9.69
0.496	10.04
0.5	10.36
0.504	10.68
0.508	11.01
0.512	11.34
0.516	11.65
0.52	11.96
0.524	12.26
0.528	12.58
0.532	12.91
0.536	13.28
0.54	13.69
0.544	14.18
0.548	14.79
0.552	15.54
0.556	16.49
0.56	17.66
0.564	19.08
0.568	20.66
0.572	22.34
0.576	24.01
0.58	25.58
0.584	27
0.588	28.28
0.592	29.39
0.596	30.37
0.6	31.21
0.604	31.91
0.608	32.51
0.612	33
0.616	33.43
0.62	33.8
0.624	34.13
0.628	34.44
0.632	34.72
0.636	34.99
0.64	35.24
0.644	35.48
0.648	35.72
0.652	35.96
0.656	36.21
0.66	36.45
0.664	36.69
0.668	36.95
0.672	37.19
0.676	37.47
0.68	37.71
0.684	37.98
0.688	38.24
0.692	38.51
0.696	38.77
0.7	39.07
0.704	39.36
0.708	39.64
0.712	39.93
0.716	40.23
0.72	40.52
0.724	40.83
0.728	41.13
0.732	41.45
0.736	41.75
0.74	42.06
0.744	42.38
0.748	42.69
0.752	43
0.756	43.31
0.76	43.63
0.764	43.96
0.768	44.25
0.772	44.59
0.776	44.91
0.78	45.23
0.784	45.55
0.788	45.86
0.792	46.18
0.796	46.53
0.8	46.83
0.84	49.91
0.88	52.8
0.92	55.18
0.96	58.02
1	60.53
1.04	62.81
1.08	64.81
1.12	66.69
1.16	68.29
1.2	69.74
1.24	71.14
1.28	72.29
1.32	73.35
1.36	74.33
1.4	75.11
1.44	76.01
1.48	76.84
1.52	77.56
1.56	78.29
1.6	78.93
1.64	79.66
1.68	80.25
1.72	80.82
1.76	81.18
1.8	81.68
1.84	81.85
1.88	82.19
1.92	82.41
1.96	82.76
2	83.61
2.04	83.82
2.08	83.93
2.12	84.41
2.16	84.6
2.2	85.09
2.24	85.19
2.28	86.296
2.32	86.7792
2.36	87.2298
2.4	87.1142
2.44	87.5774
2.48	88.072
2.52	87.9614
2.56	88.4034
2.6	88.7554
2.64	88.9234
2.68	89.0898
2.72	89.0728
2.76	88.7974
2.8	87.8418
2.84	87.362
2.88	86.679
2.92	87.036
2.96	87.0188
3	87.4106
3.04	87.5684
3.08	87.4662
3.12	87.8598
3.16	88.3484
3.2	88.7354
3.24	89.1824
3.28	89.103
3.32	89.1014
3.36	87.8494
3.4	83.4548
3.44	77.216
3.48	86.4428
3.52	83.5596
3.56	90.6574
3.6	91.43
3.64	91.409
3.68	91.8652
3.72	92.0144
3.76	92.1148
3.8	92.4382
3.84	92.6916
3.88	93.0526
3.92	93.2688
3.96	93.5708
4	93.3222
4.04	93.6068
4.08	93.6762
4.12	93.798
4.16	93.8944
4.2	94.238
4.24	94.4062
4.28	94.5648
4.32	94.4704
4.36	94.4362
4.4	94.5524
4.44	94.6674
4.48	94.8774
4.52	94.8988
4.56	95.0326
4.6	95.0276
4.64	95.1084
4.68	95.0958
4.72	95.2914
4.76	95.215
4.8	95.3682
4.84	95.5508
4.88	95.603
4.92	95.659
4.96	95.8032
5	95.8478
5.2	96.0841
5.4	96.4215
5.6	96.5528
5.8	95.0777
6	93.5472
6.2	94.0341
6.4	94.1055
6.6	96.3819
6.8	95.545
7	94.941
7.2	96.2928
7.4	96.2688
7.6	96.5002
7.8	97.3988
8	97.5072
8.2	97.5724
8.4	97.7426
8.6	97.6651
8.8	97.891
9	97.9146
9.2	97.9583
9.4	98.3918
9.6	98.1107
9.8	98.4648
10	98.3991
10.2	98.5355
10.4	98.3909
10.6	98.6703
10.8	98.6564
11	99.0132
11.2	98.6542
11.4	98.7261
11.6	98.7764
11.8	98.9528
12	98.8426
12.2	98.411
12.4	98.7981
