Name: Black unspecified rubber
Type: manmade
Class: Roofing Material
Subclass: Rubber
Particle Size: Solid
Sample No.: 0833UUURBR
Owner: National Photographic Interpretation Center
Wavelength Range: All
Origin: Spectra obtained from the Noncoventional Exploitation FactorsData System of the National Photographic Interpretation Center.
Description: Unspecified rubber from a building roof. Sample was black and weathered  Original ASTER Spectral Library name was jhu.becknic.manmade.roofing.rubber.solid.0833uuu.spectrum.txt
Measurement: Directional (10 Degree) Hemispherical Reflectance
X Units: Wavelength (micrometers)
Y Units: Reflectance (percent)
wavelength	value
0.3	4.95
0.304	4.98
0.308	5.01
0.312	5.04
0.316	5.07
0.32	5.09
0.324	5.11
0.328	5.14
0.332	5.16
0.336	5.18
0.34	5.21
0.344	5.23
0.348	5.25
0.352	5.27
0.356	5.29
0.36	5.32
0.364	5.35
0.368	5.38
0.372	5.42
0.376	5.47
0.38	5.51
0.384	5.55
0.388	5.59
0.392	5.64
0.396	5.67
0.4	5.71
0.404	5.74
0.408	5.76
0.412	5.79
0.416	5.81
0.42	5.84
0.424	5.87
0.428	5.9
0.432	5.92
0.436	5.95
0.44	5.97
0.444	5.98
0.448	6
0.452	6
0.456	6.01
0.46	6.02
0.464	6.03
0.468	6.04
0.472	6.04
0.476	6.05
0.48	6.06
0.484	6.06
0.488	6.06
0.492	6.07
0.496	6.09
0.5	6.12
0.504	6.13
0.508	6.15
0.512	6.16
0.516	6.16
0.52	6.18
0.524	6.18
0.528	6.19
0.532	6.2
0.536	6.21
0.54	6.22
0.544	6.22
0.548	6.23
0.552	6.24
0.556	6.25
0.56	6.25
0.564	6.26
0.568	6.26
0.572	6.27
0.576	6.27
0.58	6.28
0.584	6.28
0.588	6.28
0.592	6.29
0.596	6.29
0.6	6.29
0.604	6.29
0.608	6.29
0.612	6.29
0.616	6.29
0.62	6.3
0.624	6.3
0.628	6.3
0.632	6.3
0.636	6.3
0.64	6.3
0.644	6.3
0.648	6.31
0.652	6.31
0.656	6.31
0.66	6.31
0.664	6.31
0.668	6.32
0.672	6.32
0.676	6.32
0.68	6.32
0.684	6.32
0.688	6.32
0.692	6.33
0.696	6.33
0.7	6.33
0.704	6.33
0.708	6.33
0.712	6.34
0.716	6.34
0.72	6.34
0.724	6.34
0.728	6.34
0.732	6.35
0.736	6.35
0.74	6.35
0.744	6.35
0.748	6.35
0.752	6.36
0.756	6.36
0.76	6.36
0.764	6.36
0.768	6.36
0.772	6.36
0.776	6.37
0.78	6.37
0.784	6.37
0.788	6.37
0.792	6.37
0.796	6.38
0.8	6.37
0.84	6.37
0.88	6.64
0.92	6.65
0.96	6.38
1	6.41
1.04	6.43
1.08	6.44
1.12	6.44
1.16	6.43
1.2	6.45
1.24	6.44
1.28	6.42
1.32	6.43
1.36	6.38
1.4	6.38
1.44	6.37
1.48	6.39
1.52	6.36
1.56	6.39
1.6	6.4
1.64	6.37
1.68	6.36
1.72	6.38
1.76	6.34
1.8	6.34
1.84	6.35
1.88	6.3
1.92	6.25
1.96	6.3
2	6.31
2.04	6.29
2.08	6.23
2.12	6.25
2.16	6.29
2.2	6.26
2.24	6.23
2.28	6.4455
2.32	6.4244
2.36	6.5247
2.4	6.4306
2.44	6.2221
2.48	6.2694
2.52	6.4773
2.56	6.3319
2.6	6.2168
2.64	6.2221
2.68	6.2391
2.72	5.613
2.76	5.2231
2.8	6.0064
2.84	5.9504
2.88	5.8879
2.92	6.006
2.96	5.9782
3	5.9094
3.04	5.8514
3.08	5.964
3.12	5.9127
3.16	6.033
3.2	6.1764
3.24	6.143
3.28	6.0118
3.32	6.045
3.36	5.8712
3.4	5.432
3.44	5.7859
3.48	5.9111
3.52	6.0675
3.56	6.2296
3.6	6.2818
3.64	6.2851
3.68	6.1404
3.72	6.2083
3.76	6.2069
3.8	6.2126
3.84	6.2571
3.88	6.2474
3.92	6.2781
3.96	6.2364
4	6.1676
4.04	6.2693
4.08	6.2563
4.12	6.2238
4.16	6.2676
4.2	6.2468
4.24	6.2709
4.28	6.2644
4.32	6.2177
4.36	6.249
4.4	6.2511
4.44	6.2762
4.48	6.2296
4.52	6.2387
4.56	6.2673
4.6	6.2201
4.64	6.224
4.68	6.2599
4.72	6.2635
4.76	6.2441
4.8	6.2346
4.84	6.2326
4.88	6.2874
4.92	6.2432
4.96	6.2352
5	6.2247
5.2	6.2038
5.4	6.1302
5.6	6.0219
5.8	5.9184
6	5.9663
6.2	5.9801
6.4	6.2265
6.6	6.3248
6.8	6.1071
7	6.3328
7.2	6.3843
7.4	6.5085
7.6	6.7572
7.8	6.9392
8	7.2954
8.2	7.7081
8.4	8.1242
8.6	8.5337
8.8	9.6777
9	10.3448
9.2	11.8152
9.4	11.4394
9.6	13.5397
9.8	12.3264
10	11.3216
10.2	10.298
10.4	8.697
10.6	7.6926
10.8	7.7804
11	7.9878
11.2	7.7005
11.4	7.5618
11.6	7.3477
11.8	7.3289
12	7.169
12.2	7.1607
12.4	6.8733
12.6	7.0634
12.8	7.3163
13	6.9467
13.2	7.0567
13.4	7.1122
13.6	7.1356
13.8	7.1169
14	7.1558
