Name: Asphalt roofing shingle
Type: manmade
Class: Roofing Material
Subclass: Shingle
Particle Size: Solid
Sample No.: 0597UUUASP
Owner: National Photographic Interpretation Center
Wavelength Range: All
Origin: Spectra obtained from the Noncoventional Exploitation FactorsData System of the National Photographic Interpretation Center.
Description: Fifteen year old construction asphalt from roofing shingle. Sample was weathered and soiled, gray in color, and granule-covered. Original ASTER Spectral Library name was jhu.becknic.manmade.roofing.shingle.solid.0597uuu.spectrum.txt
Measurement: Directional (10 Degree) Hemispherical Reflectance
X Units: Wavelength (micrometers)
Y Units: Reflectance (percent)
wavelength	value
0.3	5.01
0.304	5.14
0.308	5.26
0.312	5.36
0.316	5.46
0.32	5.57
0.324	5.66
0.328	5.76
0.332	5.86
0.336	5.98
0.34	6.11
0.344	6.27
0.348	6.47
0.352	6.7
0.356	6.98
0.36	7.29
0.364	7.65
0.368	8.07
0.372	8.56
0.376	9.17
0.38	10.12
0.384	11.25
0.388	12.78
0.392	14.72
0.396	16.88
0.4	18.9
0.404	20.49
0.408	21.56
0.412	22.2
0.416	22.59
0.42	22.88
0.424	23.13
0.428	23.36
0.432	23.6
0.436	23.83
0.44	24.05
0.444	24.28
0.448	24.5
0.452	24.69
0.456	24.83
0.46	24.93
0.464	25.04
0.468	25.16
0.472	25.26
0.476	25.37
0.48	25.49
0.484	25.64
0.488	25.79
0.492	25.92
0.496	26
0.5	26.1
0.504	26.2
0.508	26.31
0.512	26.43
0.516	26.54
0.52	26.66
0.524	26.78
0.528	26.9
0.532	27.02
0.536	27.15
0.54	27.28
0.544	27.42
0.548	27.56
0.552	27.71
0.556	27.85
0.56	28.01
0.564	28.16
0.568	28.29
0.572	28.42
0.576	28.53
0.58	28.62
0.584	28.7
0.588	28.78
0.592	28.84
0.596	28.88
0.6	28.93
0.604	28.96
0.608	28.98
0.612	28.99
0.616	29.01
0.62	29.02
0.624	29.03
0.628	29.03
0.632	29.03
0.636	29.04
0.64	29.04
0.644	29.04
0.648	29.04
0.652	29.04
0.656	29.04
0.66	29.04
0.664	29.04
0.668	29.04
0.672	29.04
0.676	29.04
0.68	29.03
0.684	29.02
0.688	29.01
0.692	29.02
0.696	29.01
0.7	29.02
0.704	29.02
0.708	29
0.712	29.01
0.716	29
0.72	28.98
0.724	28.99
0.728	28.98
0.732	28.97
0.736	28.97
0.74	28.96
0.744	28.95
0.748	28.94
0.752	28.92
0.756	28.92
0.76	28.9
0.764	28.9
0.768	28.88
0.772	28.87
0.776	28.86
0.78	28.85
0.784	28.83
0.788	28.82
0.792	28.8
0.796	28.79
0.8	28.78
0.84	28.54
0.88	28.46
0.92	28.31
0.96	27.89
1	27.57
1.04	27.24
1.08	26.93
1.12	26.56
1.16	26.2
1.2	25.92
1.24	25.7
1.28	25.43
1.32	25.14
1.36	24.9
1.4	24.3
1.44	24.3
1.48	24.28
1.52	24.2
1.56	24.12
1.6	24
1.64	23.9
1.68	23.79
1.72	23.66
1.76	23.44
1.8	23.3
1.84	23.17
1.88	22.8
1.92	21.35
1.96	21.94
2	22.27
2.04	22.33
2.08	22.14
2.12	21.94
2.16	21.47
2.2	20.83
2.24	20.95
2.28	19.9024
2.32	19.2654
2.36	19.061
2.4	18.6228
2.44	18.084
2.48	17.5462
2.52	17.1502
2.56	17.1994
2.6	16.8322
2.64	16.3284
2.68	13.632
2.72	6.0246
2.76	4.1598
2.8	4.9041
2.84	4.8497
2.88	4.7394
2.92	4.8764
2.96	4.9416
3	5.1513
3.04	5.2716
3.08	5.4849
3.12	5.8284
3.16	5.9905
3.2	6.5359
3.24	6.7947
3.28	7.1071
3.32	7.1674
3.36	6.9176
3.4	6.2081
3.44	6.5363
3.48	7.0483
3.52	7.4299
3.56	9.0143
3.6	9.596
3.64	9.9071
3.68	10.3092
3.72	10.5294
3.76	10.7174
3.8	10.7944
3.84	10.6822
3.88	10.6886
3.92	10.592
3.96	10.3926
4	10.4546
4.04	11.1384
4.08	11.3536
4.12	11.3764
4.16	11.2392
4.2	11.0838
4.24	9.9336
4.28	9.7295
4.32	10.3822
4.36	10.507
4.4	10.2398
4.44	10.0562
4.48	9.7257
4.52	9.5593
4.56	9.2776
4.6	8.926
4.64	8.6835
4.68	8.5422
4.72	8.4214
4.76	8.207
4.8	8.0886
4.84	8.0116
4.88	7.701
4.92	7.29
4.96	7.0451
5	6.7122
5.2	5.7377
5.4	4.8535
5.6	3.9753
5.8	3.4717
6	2.7573
6.2	2.5801
6.4	2.8713
6.6	2.7565
6.8	2.233
7	1.9834
7.2	1.7839
7.4	1.7724
7.6	1.6084
7.8	1.5106
8	1.6156
8.2	2.6685
8.4	3.4019
8.6	4.208
8.8	5.6824
9	7.2612
9.2	8.6896
9.4	9.3775
9.6	9.9566
9.8	8.7056
10	7.7323
10.2	6.2272
10.4	5.072
10.6	4.5482
10.8	4.3074
11	4.537
11.2	4.1986
11.4	3.8543
11.6	3.5613
11.8	3.1846
12	2.7996
12.2	2.4739
12.4	2.2551
12.6	2.346
12.8	2.376
13	2.2902
13.2	2.263
13.4	2.2789
13.6	2.336
13.8	2.4133
14	2.4821
14.2	2.3571
14.4	2.5115
14.6	2.5141
14.8	2.0415
15	1.7153
