Name: Galvanized Steel Metal
Type: manmade
Class: Roofing Material
Subclass: Metal
Particle Size: Solid
Sample No.: 0525UUUSTLa
Owner: National Photographic Interpretation Center
Wavelength Range: All
Origin: Spectra obtained from the Noncoventional Exploitation FactorsData System of the National Photographic Interpretation Center.
Description: Weathered, galvanized steel from roof and vent covers. Original ASTER Spectral Library name was jhu.becknic.manmade.roofing.metal.solid.0525uuua.spectrum.txt
Measurement: Directional (10 Degree) Hemispherical Reflectance
X Units: Wavelength (micrometers)
Y Units: Reflectance (percent)
wavelength	value
0.3	2
0.304	2.01
0.308	2.03
0.312	2.05
0.316	2.05
0.32	2.06
0.324	2.07
0.328	2.08
0.332	2.09
0.336	2.1
0.34	2.12
0.344	2.14
0.348	2.16
0.352	2.19
0.356	2.21
0.36	2.24
0.364	2.26
0.368	2.29
0.372	2.31
0.376	2.32
0.38	2.33
0.384	2.34
0.388	2.34
0.392	2.34
0.396	2.34
0.4	2.35
0.404	2.35
0.408	2.35
0.412	2.35
0.416	2.36
0.42	2.37
0.424	2.38
0.428	2.39
0.432	2.4
0.436	2.41
0.44	2.41
0.444	2.41
0.448	2.41
0.452	2.41
0.456	2.41
0.46	2.4
0.464	2.4
0.468	2.39
0.472	2.38
0.476	2.38
0.48	2.38
0.484	2.39
0.488	2.4
0.492	2.43
0.496	2.46
0.5	2.49
0.504	2.52
0.508	2.56
0.512	2.6
0.516	2.65
0.52	2.7
0.524	2.77
0.528	2.86
0.532	2.95
0.536	3.07
0.54	3.21
0.544	3.37
0.548	3.57
0.552	3.79
0.556	4.04
0.56	4.32
0.564	4.64
0.568	4.97
0.572	5.32
0.576	5.67
0.58	6.02
0.584	6.36
0.588	6.68
0.592	6.97
0.596	7.24
0.6	7.45
0.604	7.64
0.608	7.8
0.612	7.92
0.616	8.01
0.62	8.08
0.624	8.13
0.628	8.16
0.632	8.18
0.636	8.19
0.64	8.2
0.644	8.2
0.648	8.2
0.652	8.2
0.656	8.2
0.66	8.2
0.664	8.21
0.668	8.23
0.672	8.25
0.676	8.28
0.68	8.31
0.684	8.35
0.688	8.4
0.692	8.46
0.696	8.52
0.7	8.59
0.704	8.67
0.708	8.74
0.712	8.83
0.716	8.91
0.72	8.99
0.724	9.08
0.728	9.16
0.732	9.24
0.736	9.32
0.74	9.39
0.744	9.46
0.748	9.52
0.752	9.57
0.756	9.61
0.76	9.64
0.764	9.65
0.768	9.66
0.772	9.65
0.776	9.62
0.78	9.59
0.784	9.54
0.788	9.47
0.792	9.39
0.796	9.31
0.8	9.21
0.84	7.88
0.88	6.76
0.92	6.3
0.96	6.28
1	6.59
1.04	7.19
1.08	8.18
1.12	9.65
1.16	11.51
1.2	13.49
1.24	15.17
1.28	16.31
1.32	16.94
1.36	17.18
1.4	17.01
1.44	16.44
1.48	16.44
1.52	16.51
1.56	16.49
1.6	16.32
1.64	16.04
1.68	15.68
1.72	15.41
1.76	14.98
1.8	14.66
1.84	14.42
1.88	14.18
1.92	13.21
1.96	13.14
2	13.5
2.04	13.7
2.08	13.84
2.12	13.95
2.16	13.85
2.2	13.7
2.24	13.36
2.28	13.5608
2.32	12.9618
2.36	12.5042
2.4	11.7784
2.44	11.4398
2.48	11.3318
2.52	11.0544
2.56	10.9722
2.6	10.7476
2.64	10.0975
2.68	9.1616
2.72	6.9154
2.76	4.9906
2.8	4.4361
2.84	4.3567
2.88	4.5297
2.92	4.5264
2.96	4.6689
3	4.528
3.04	4.6233
3.08	4.6256
3.12	4.711
3.16	4.8151
3.2	5.1138
3.24	5.1782
3.28	5.3676
3.32	5.5069
3.36	5.2168
3.4	5.3499
3.44	5.5261
3.48	5.4478
3.52	5.3221
3.56	5.608
3.6	5.5463
3.64	5.618
3.68	5.6048
3.72	5.8112
3.76	5.7607
3.8	5.9559
3.84	5.8182
3.88	5.9125
3.92	5.9904
3.96	5.9622
4	6.1058
4.04	6.2729
4.08	6.3079
4.12	6.4243
4.16	6.3897
4.2	6.4521
4.24	6.4969
4.28	6.4668
4.32	6.5022
4.36	6.6163
4.4	6.4603
4.44	6.5678
4.48	6.5842
4.52	6.6092
4.56	6.5112
4.6	6.4957
4.64	6.5533
4.68	6.5194
4.72	6.4857
4.76	6.5694
4.8	6.4072
4.84	6.3658
4.88	6.3281
4.92	6.2826
4.96	6.2555
5	6.3072
5.2	6.3096
5.4	6.3084
5.6	6.3151
5.8	6.3119
6	6.0398
6.2	6.1256
6.4	6.2068
6.6	6.2303
6.8	6.0886
7	6.0368
7.2	6.0446
7.4	5.9268
7.6	5.9002
7.8	5.8318
8	5.4013
8.2	4.9696
8.4	4.4431
8.6	4.4241
8.8	4.5566
9	4.6971
9.2	4.8604
9.4	4.582
9.6	4.405
9.8	4.7442
10	4.9838
10.2	4.7785
10.4	4.5868
10.6	4.3808
10.8	4.0761
11	4.0833
11.2	4.1062
11.4	4.4944
11.6	4.2362
11.8	4.0293
12	3.7713
12.2	3.4749
12.4	2.8141
