Name: Reddish Asphalt roofing shingle
Type: manmade
Class: Roofing Material
Subclass: Shingle
Particle Size: Solid
Sample No.: 0672UUUASP
Owner: National Photographic Interpretation Center
Wavelength Range: All
Origin: Spectra obtained from the Noncoventional Exploitation FactorsData System of the National Photographic Interpretation Center.
Description: Weathered asphalt roofing shingle. Sample was reddish and granule-covered. Original ASTER Spectral Library name was jhu.becknic.manmade.roofing.shingle.solid.0672uuu.spectrum.txt
Measurement: Directional (10 Degree) Hemispherical Reflectance
X Units: Wavelength (micrometers)
Y Units: Reflectance (percent)
wavelength	value
0.3	2.89
0.304	2.88
0.308	2.88
0.312	2.88
0.316	2.88
0.32	2.86
0.324	2.86
0.328	2.87
0.332	2.87
0.336	2.87
0.34	2.88
0.344	2.88
0.348	2.89
0.352	2.9
0.356	2.91
0.36	2.92
0.364	2.93
0.368	2.94
0.372	2.96
0.376	2.97
0.38	2.99
0.384	3
0.388	3.02
0.392	3.03
0.396	3.05
0.4	3.06
0.404	3.07
0.408	3.08
0.412	3.1
0.416	3.11
0.42	3.12
0.424	3.13
0.428	3.15
0.432	3.16
0.436	3.17
0.44	3.19
0.444	3.2
0.448	3.21
0.452	3.22
0.456	3.24
0.46	3.25
0.464	3.26
0.468	3.27
0.472	3.28
0.476	3.29
0.48	3.31
0.484	3.32
0.488	3.34
0.492	3.36
0.496	3.39
0.5	3.41
0.504	3.43
0.508	3.45
0.512	3.48
0.516	3.51
0.52	3.54
0.524	3.57
0.528	3.61
0.532	3.65
0.536	3.69
0.54	3.73
0.544	3.79
0.548	3.84
0.552	3.91
0.556	3.98
0.56	4.06
0.564	4.17
0.568	4.28
0.572	4.4
0.576	4.53
0.58	4.67
0.584	4.8
0.588	4.93
0.592	5.04
0.596	5.15
0.6	5.25
0.604	5.34
0.608	5.41
0.612	5.48
0.616	5.54
0.62	5.6
0.624	5.65
0.628	5.69
0.632	5.74
0.636	5.79
0.64	5.84
0.644	5.88
0.648	5.94
0.652	5.99
0.656	6.05
0.66	6.11
0.664	6.16
0.668	6.22
0.672	6.28
0.676	6.33
0.68	6.38
0.684	6.43
0.688	6.47
0.692	6.52
0.696	6.56
0.7	6.6
0.704	6.63
0.708	6.67
0.712	6.7
0.716	6.73
0.72	6.75
0.724	6.78
0.728	6.8
0.732	6.82
0.736	6.83
0.74	6.85
0.744	6.85
0.748	6.86
0.752	6.87
0.756	6.87
0.76	6.87
0.764	6.87
0.768	6.87
0.772	6.87
0.776	6.87
0.78	6.87
0.784	6.86
0.788	6.85
0.792	6.84
0.796	6.83
0.8	6.82
0.84	6.72
0.88	6.97
0.92	6.94
0.96	6.76
1	6.82
1.04	6.84
1.08	6.8
1.12	6.8
1.16	6.79
1.2	6.79
1.24	6.82
1.28	6.81
1.32	6.82
1.36	6.85
1.4	6.81
1.44	6.85
1.48	6.94
1.52	6.99
1.56	7.03
1.6	7.08
1.64	7.14
1.68	7.17
1.72	7.2
1.76	7.24
1.8	7.32
1.84	7.35
1.88	7.36
1.92	7.3
1.96	7.39
2	7.48
2.04	7.57
2.08	7.58
2.12	7.57
2.16	7.63
2.2	7.41
2.24	7.35
2.28	7.775
2.32	7.288
2.36	6.9747
2.4	7.247
2.44	7.18
2.48	7.2999
2.52	7.5158
2.56	7.5409
2.6	7.2863
2.64	7.3401
2.68	6.8749
2.72	4.9903
2.76	3.6619
2.8	3.6503
2.84	3.8444
2.88	3.8211
2.92	3.4062
2.96	3.5962
3	4.0091
3.04	3.9082
3.08	3.9715
3.12	4.0912
3.16	4.0673
3.2	4.4993
3.24	4.4458
3.28	4.6125
3.32	4.2987
3.36	4.1303
3.4	3.3857
3.44	3.5116
3.48	3.835
3.52	4.0173
3.56	5.0213
3.6	5.2726
3.64	5.4391
3.68	5.6695
3.72	5.5381
3.76	5.7077
3.8	5.7745
3.84	5.8452
3.88	5.8983
3.92	5.9553
3.96	5.8682
4	5.9967
4.04	6.2641
4.08	6.3999
4.12	6.374
4.16	6.4115
4.2	6.4479
4.24	6.3692
4.28	6.3128
4.32	6.364
4.36	6.4194
4.4	6.2734
4.44	6.164
4.48	6.073
4.52	6.0741
4.56	6.0421
4.6	5.9226
4.64	5.7935
4.68	5.6886
4.72	5.7102
4.76	5.6365
4.8	5.5192
4.84	5.5128
4.88	5.3016
4.92	5.0163
4.96	4.9504
5	4.6597
5.2	4.4084
5.4	3.9867
5.6	3.3497
5.8	2.8591
6	2.5292
6.2	2.4284
6.4	2.7156
6.6	2.6974
6.8	2.2092
7	2.23
7.2	2.2134
7.4	2.1552
7.6	2.2396
7.8	2.1652
8	2.1617
8.2	2.7177
8.4	3.5231
8.6	4.0249
8.8	5.0365
9	6.976
9.2	8.323
9.4	7.6038
9.6	6.7366
9.8	5.966
10	5.744
10.2	5.2904
10.4	4.8791
10.6	4.6012
10.8	4.2725
11	4.1032
11.2	3.9807
11.4	3.5932
11.6	3.4722
11.8	3.0194
12	3.0408
12.2	2.9917
12.4	2.9147
