Name: Glossy Black Paint
Type: Manmade
Class: General Construction Material
Subclass: Paint
Particle Size: Solid
Sample No.: 1601
Owner: JPL
Wavelength Range: TIR
Origin: The Sherwin-Williams Co., Solon, OH 44139
Description: Glossy black interior/exterior spray paint.Krylon #1601.Collected by JPL Original ASTER Spectral Library name was jpl.nicolet.manmade.construction.paint.solid.1601.spectrum.txt
Measurement: Hemispherical reflectance
X Units: Wavelength (micrometers)
Y Units: Reflectance (percent)
wavelength	value
14.0131	4.9934
13.7895	5.5006
13.5729	4.5025
13.363	4.6347
13.1595	4.518
12.9621	4.648
12.7705	4.8686
12.5845	4.5531
12.4039	4.7188
12.2284	4.9306
12.0578	4.9884
11.8918	5.0156
11.7304	4.8196
11.5733	4.9738
11.4203	5.1837
11.2714	5.1435
11.1263	5.0023
10.9848	5.0596
10.8469	5.0825
10.7125	5.0391
10.5813	5.267
10.4533	5.2552
10.3284	5.1958
10.2064	5.1111
10.0872	5.0014
9.9708	4.9903
9.8571	5.2676
9.7459	5.4314
9.6372	5.7632
9.5309	5.5
9.427	5.6437
9.3252	5.6167
9.2257	4.6052
9.1282	4.8757
9.0328	5.133
8.9394	5.4402
8.8478	5.4753
8.7582	5.3434
8.6703	5.1803
8.5842	4.914
8.4997	4.712
8.4169	4.4007
8.3357	4.1349
8.2561	4.3964
8.178	5.1696
8.1013	5.2241
8.0261	4.1596
7.9522	3.7792
7.8797	3.6374
7.8085	3.307
7.7386	2.8198
7.6699	2.7672
7.6024	2.3888
7.5361	2.9246
7.4709	3.204
7.4069	3.5231
7.344	3.6923
7.2821	3.6038
7.2212	3.1003
7.1614	3.4215
7.1025	3.4108
7.0446	3.4849
6.9877	3.7529
6.9316	3.6855
6.8764	3.6185
6.8221	3.509
6.7687	3.2531
6.7161	3.28
6.6643	3.5429
6.6133	3.7462
6.5631	3.767
6.5136	3.8148
6.4649	3.8024
6.4169	3.9269
6.3696	3.9517
6.323	3.8247
6.277	3.803
6.2318	3.9053
6.1871	3.9393
6.1432	4.1023
6.0998	4.1906
6.0571	4.1264
6.0149	4.227
5.9733	4.3522
5.9323	4.4349
5.8919	4.7671
5.852	5.1954
5.8126	5.7683
5.7738	4.4378
5.7354	2.6007
5.6976	2.7061
5.6603	2.4195
5.6235	2.9377
5.5871	3.1867
5.5512	3.3136
5.5158	3.3685
5.4808	3.392
5.4463	3.4869
5.4121	3.5472
5.3785	3.5981
5.3452	3.6553
5.3123	3.6935
5.2799	3.7686
5.2478	3.6721
5.2161	3.7403
5.1848	3.7364
5.1539	3.7988
5.1234	3.7184
5.0932	3.757
5.0633	3.8087
5.0338	3.7321
5.0047	3.7709
4.9759	3.8682
4.9474	3.719
4.9192	3.9187
4.8914	3.8297
4.8638	3.8683
4.8366	3.8683
4.8097	3.7794
4.7831	3.884
4.7567	3.8842
4.7307	3.7961
4.7049	3.9488
4.6795	3.7685
4.6543	3.8218
4.6293	3.8279
4.6047	3.8783
4.5802	3.9306
4.5561	3.859
4.5322	3.9004
4.5085	3.8906
4.4851	3.9829
4.462	3.8626
4.4391	3.9242
4.4164	3.7829
4.3939	3.9504
4.3717	3.8075
4.3497	3.9471
4.3279	3.8796
4.3063	4.0561
4.285	3.8407
4.2638	3.8953
4.2429	3.9137
4.2222	3.9244
4.2016	3.9517
4.1813	3.8704
4.1612	3.8896
4.1412	3.7862
4.1215	3.8997
4.1019	3.8219
4.0826	3.9981
4.0633	3.8376
4.0443	3.9908
4.0255	3.9364
4.0068	3.8718
3.9883	3.8676
3.97	3.8847
3.9519	3.9378
3.9339	3.9762
3.916	3.9268
3.8984	3.8548
3.8809	3.9125
3.8635	4.0039
3.8463	3.9424
3.8293	3.8824
3.8124	4.0003
3.7956	3.9679
3.779	3.7723
3.7626	3.926
3.7463	3.9664
3.7301	3.8837
3.7141	3.9786
3.6982	3.9584
3.6824	4.0028
3.6668	3.9527
3.6513	3.8967
3.6359	3.9343
3.6207	3.903
3.6056	4.0254
3.5906	3.9796
3.5758	4.0991
3.561	3.8956
3.5464	4.0221
3.5319	3.9356
3.5175	4.0358
3.5033	3.91
3.4891	3.9011
3.4751	3.8766
3.4612	4.0034
3.4474	3.8142
3.4337	3.8217
3.4201	3.8913
3.4066	3.7632
3.3932	3.6183
3.3799	3.5703
3.3668	3.3661
3.3537	3.3568
3.3407	3.6563
3.3279	3.4135
3.3151	3.7001
3.3024	3.5865
3.2899	3.7132
3.2774	3.8795
3.265	3.8758
3.2527	3.7309
3.2405	3.8378
3.2284	3.7977
3.2164	3.9391
3.2045	3.7073
3.1926	3.7532
3.1809	3.7724
3.1692	3.8994
3.1576	3.9892
3.1461	3.7937
3.1347	3.8293
3.1234	3.7597
3.1121	3.8096
3.101	3.9368
3.0899	3.9303
3.0789	3.9738
3.068	3.9896
3.0571	3.8809
3.0463	3.8504
3.0356	3.8495
3.025	3.8054
3.0144	3.8977
3.004	4.0393
2.9935	3.932
2.9832	3.8719
2.9729	3.8968
2.9628	3.9549
2.9526	4.0086
2.9426	3.8431
2.9326	3.9685
2.9227	3.8731
2.9128	3.8939
2.903	3.9584
2.8933	3.8561
2.8837	3.8018
2.8741	3.7002
2.8645	4.0323
2.8551	3.6997
2.8457	3.7735
2.8363	3.9581
2.8271	3.6523
2.8178	3.5171
2.8087	3.8593
2.7996	3.8053
2.7906	3.9631
2.7816	3.8992
2.7726	3.7011
2.7638	3.9543
2.755	3.8899
2.7462	3.8723
2.7375	3.9557
2.7289	3.8592
2.7203	3.9283
2.7117	3.8218
2.7033	3.7768
2.6948	4.0318
2.6864	3.8935
2.6781	3.9795
2.6698	3.942
2.6616	3.9965
2.6534	3.751
2.6453	3.7826
2.6372	3.608
2.6292	3.9534
2.6212	3.7976
2.6133	3.9374
2.6054	3.74
2.5976	3.9919
2.5898	3.899
2.5821	3.8915
2.5744	3.9559
2.5667	3.6349
2.5591	3.9834
2.5516	3.8515
2.5441	3.9306
2.5366	3.7031
2.5292	3.8244
2.5218	3.9541
2.5145	3.7985
2.5072	4.0344
2.4999	3.8609
2.4927	3.8954
2.4855	3.9845
2.4784	3.9136
2.4713	3.7689
2.4643	3.8145
2.4573	3.9409
2.4503	3.8659
2.4434	3.8951
2.4365	3.9712
2.4296	3.9469
2.4228	3.9248
2.416	3.8176
2.4093	3.9238
2.4026	3.6962
2.396	3.679
2.3893	3.8667
2.3827	3.9477
2.3762	4.1217
2.3697	4.0225
2.3632	3.8316
2.3567	3.7506
2.3503	4.1078
2.344	3.8608
2.3376	3.9354
2.3313	4.0133
2.325	3.8454
2.3188	3.9308
2.3126	3.4999
2.3064	3.7184
2.3003	3.909
2.2942	4.0723
2.2881	3.7408
2.2821	3.8396
2.2761	4.0815
2.2701	4.0723
2.2641	3.897
2.2582	3.8188
2.2523	4.0003
2.2465	3.8954
2.2406	3.7777
2.2348	3.8987
2.2291	3.8766
2.2233	3.8166
2.2176	3.9381
2.212	3.8868
2.2063	3.8798
2.2007	3.9517
2.1951	3.9382
2.1895	3.9075
2.184	3.8839
2.1785	3.8608
2.173	3.9912
2.1676	4.0083
2.1622	4.0645
2.1568	3.9393
2.1514	3.9085
2.146	4.0344
2.1407	4.0165
2.1354	3.7999
2.1302	3.9979
2.1249	3.7584
2.1197	3.6178
2.1145	3.8994
2.1094	3.9353
2.1042	3.9545
2.0991	3.9556
2.094	3.9232
2.089	3.7937
2.0839	4.1304
2.0789	3.8328
2.0739	3.7472
2.069	3.9272
2.064	3.7076
2.0591	3.8999
2.0542	4.2024
2.0493	4.1019
2.0445	3.8089
2.0397	4.1191
2.0349	4.1798
2.0301	4.22
2.0253	3.9303
2.0206	3.9945
2.0159	3.7831
2.0112	3.9515
2.0065	3.7468
2.0019	3.9622
