Name: Red smooth-faced Brick
Type: manmade
Class: General Construction Material
Subclass: Brick
Particle Size: Solid
Sample No.: 0097UUUBRK
Owner: National Photographic Interpretation Center
Wavelength Range: All
Origin: Spectra obtained from the Noncoventional Exploitation FactorsData System of the National Photographic Interpretation Center.
Description: Smooth-faced red building construction brick. Original ASTER Spectral Library name was jhu.becknic.manmade.construction.brick.solid.0097uuu.spectrum.txt
Measurement: Directional (10 Degree) Hemispherical Reflectance
X Units: Wavelength (micrometers)
Y Units: Reflectance (percent)
wavelength	value
0.3	5.77
0.304	5.89
0.308	6
0.312	6.12
0.316	6.26
0.32	6.62
0.324	6.74
0.328	6.85
0.332	6.95
0.336	7.06
0.34	7.17
0.344	7.29
0.348	7.42
0.352	7.56
0.356	7.71
0.36	7.86
0.364	8.02
0.368	8.18
0.372	8.33
0.376	8.5
0.38	8.76
0.384	8.93
0.388	9.11
0.392	9.27
0.396	9.43
0.4	9.58
0.404	9.71
0.408	9.84
0.412	9.96
0.416	10.07
0.42	10.16
0.424	10.24
0.428	10.3
0.432	10.36
0.436	10.39
0.44	10.42
0.444	10.44
0.448	10.47
0.452	10.51
0.456	10.53
0.46	10.56
0.464	10.6
0.468	10.65
0.472	10.7
0.476	10.75
0.48	10.82
0.484	10.93
0.488	11.03
0.492	11.12
0.496	11.19
0.5	11.28
0.504	11.37
0.508	11.49
0.512	11.6
0.516	11.72
0.52	11.84
0.524	11.96
0.528	12.1
0.532	12.26
0.536	12.45
0.54	12.66
0.544	12.91
0.548	13.2
0.552	13.53
0.556	13.92
0.56	14.36
0.564	14.86
0.568	15.39
0.572	15.96
0.576	16.54
0.58	17.1
0.584	17.65
0.588	18.16
0.592	18.62
0.596	19.03
0.6	19.38
0.604	19.7
0.608	19.97
0.612	20.19
0.616	20.4
0.62	20.59
0.624	20.75
0.628	20.9
0.632	21.05
0.636	21.2
0.64	21.34
0.644	21.47
0.648	21.62
0.652	21.77
0.656	21.92
0.66	22.09
0.664	22.26
0.668	22.43
0.672	22.61
0.676	22.8
0.68	22.98
0.684	23.16
0.688	23.35
0.692	23.56
0.696	23.77
0.7	23.99
0.704	24.21
0.708	24.41
0.712	24.64
0.716	24.84
0.72	25.04
0.724	25.26
0.728	25.44
0.732	25.65
0.736	25.82
0.74	26.01
0.744	26.17
0.748	26.31
0.752	26.45
0.756	26.57
0.76	26.69
0.764	26.8
0.768	26.89
0.772	26.98
0.776	27.05
0.78	27.13
0.784	27.18
0.788	27.21
0.792	27.26
0.796	27.28
0.8	27.3
0.84	27.26
0.88	27.48
0.92	28.16
0.96	29.42
1	30.94
1.04	32.16
1.08	32.91
1.12	33.4
1.16	33.64
1.2	33.73
1.24	33.79
1.28	33.8
1.32	33.79
1.36	33.74
1.4	33.69
1.44	33.85
1.48	33.95
1.52	34.02
1.56	34.08
1.6	34.16
1.64	34.24
1.68	34.31
1.72	34.43
1.76	34.36
1.8	34.33
1.84	34.11
1.88	34.19
1.92	33.94
1.96	34.22
2	34.53
2.04	34.43
2.08	34.27
2.12	34.34
2.16	34.39
2.2	35.13
2.24	35.25
2.28	35.578
2.32	35.5772
2.36	35.8254
2.4	35.7376
2.44	35.3302
2.48	34.6546
2.52	34.5322
2.56	33.8386
2.6	33.6936
2.64	33.845
2.68	31.0956
2.72	22.7246
2.76	16.4044
2.8	16.3538
2.84	17.1144
2.88	17.2156
2.92	17.341
2.96	18.503
3	19.7372
3.04	20.5104
3.08	21.0414
3.12	22.2058
3.16	23.5744
3.2	25.0232
3.24	26.1572
3.28	26.9578
3.32	28.2698
3.36	28.9736
3.4	29.2058
3.44	30.125
3.48	31.3532
3.52	31.8214
3.56	33.116
3.6	34.219
3.64	34.4912
3.68	35.0652
3.72	35.3016
3.76	35.4314
3.8	35.7292
3.84	35.755
3.88	36.0098
3.92	36.112
3.96	36.255
4	36.2148
4.04	36.2174
4.08	35.6122
4.12	35.1872
4.16	34.6154
4.2	33.2216
4.24	31.4548
4.28	30.641
4.32	30.565
4.36	29.4546
4.4	28.1962
4.44	26.6824
4.48	25.744
4.52	26.4308
4.56	26.5142
4.6	25.987
4.64	25.563
4.68	24.551
4.72	24.5414
4.76	23.9346
4.8	23.1114
4.84	21.14
4.88	18.7338
4.92	15.297
4.96	12.9422
5	11.0832
5.2	9.8768
5.4	7.5918
5.6	7.5136
5.8	8.0668
6	6.1415
6.2	4.8742
6.4	5.9329
6.6	4.9952
6.8	4.7507
7	4.5466
7.2	3.9519
7.4	3.6407
7.6	3.0883
7.8	2.9628
8	3.4434
8.2	4.8916
8.4	5.9983
8.6	6.6659
8.8	8.9557
9	11.813
9.2	14.7839
9.4	14.607
9.6	12.7817
9.8	11.8207
10	10.2898
10.2	9.0713
10.4	7.8126
10.6	6.7608
10.8	5.8338
11	5.259
11.2	4.6817
11.4	4.0738
11.6	3.7356
11.8	3.3397
12	2.8504
12.2	2.8284
12.4	3.3107
