Name: Black Nextel Paint
Type: Manmade
Class: General Construction Material
Subclass: Paint
Particle Size: Solid
Sample No.: 3101-c10
Owner: JPL
Wavelength Range: TIR
Origin: Red Spot Paint & Varnish Co., 1111 Louisiana St.,P.O. Box 418, Evansville, Indiana 47703-0418
Description: Black Nextel Suede Urethane paint. Original ASTER Spectral Library name was jpl.nicolet.manmade.construction.paint.solid.3101c10a.spectrum.txt
Measurement: Hemispherical reflectance
X Units: Wavelength (micrometers)
Y Units: Reflectance (percent)
wavelength	value
15.3853	2.1796
15.1161	2.5086
14.8563	2.3609
14.6052	2.5052
14.3624	2.7773
14.1276	2.5883
13.9004	2.8538
13.6803	2.5925
13.4671	2.5002
13.2604	2.6317
13.06	2.4203
12.8656	2.7049
12.6769	2.8434
12.4936	2.6222
12.3155	2.6396
12.1425	2.7531
11.9742	2.6463
11.8106	2.7524
11.6513	2.8205
11.4963	2.7601
11.3454	2.7952
11.1983	2.8778
11.0551	2.9934
10.9154	2.9426
10.7793	2.7999
10.6465	3.0383
10.5169	2.9446
10.3904	2.9883
10.267	2.9912
10.1464	3.1729
10.0287	3.1991
9.9136	3.2135
9.8012	3.5029
9.6913	3.5052
9.5838	3.5227
9.4787	3.3448
9.3758	3.3034
9.2752	3.0799
9.1767	3.0484
9.0803	3.1726
8.9858	3.3233
8.8934	3.5588
8.8028	3.2383
8.714	3.0753
8.627	3.2725
8.5417	3.2877
8.4581	2.9679
8.3761	2.7615
8.2957	2.8101
8.2169	2.9668
8.1395	2.4503
8.0635	2.2321
7.989	2.1104
7.9158	2.087
7.8439	2.0588
7.7734	2.0263
7.7041	2.0992
7.636	2.0945
7.5691	2.2152
7.5034	2.3532
7.4388	2.3997
7.3753	2.3873
7.3129	2.547
7.2515	2.5787
7.1912	2.4244
7.1318	2.5263
7.0734	2.5499
7.016	2.5299
6.9595	2.6314
6.9039	2.6341
6.8492	2.4139
6.7953	2.5069
6.7423	2.6473
6.6901	2.7406
6.6387	2.7514
6.5881	2.778
6.5382	2.786
6.4892	2.5055
6.4408	2.279
6.3931	2.4178
6.3462	2.7053
6.2999	2.7969
6.2543	2.6276
6.2094	2.7238
6.1651	2.8568
6.1214	2.9567
6.0784	2.8865
6.0359	3.1064
5.994	3.1594
5.9527	3.2146
5.912	3.1749
5.8718	3.3126
5.8322	3.6121
5.7931	3.8628
5.7545	2.9261
5.7165	1.378
5.6789	1.7811
5.6418	2.3052
5.6052	2.6336
5.5691	2.975
5.5334	3.0715
5.4982	3.2087
5.4635	3.3191
5.4291	3.4345
5.3952	3.5016
5.3618	3.5415
5.3287	3.5242
5.2961	3.5741
5.2638	3.566
5.2319	3.5887
5.2004	3.5521
5.1693	3.6317
5.1386	3.6267
5.1082	3.6897
5.0782	3.6358
5.0485	3.6583
5.0192	3.7301
4.9902	3.6474
4.9616	3.7355
4.9332	3.6584
4.9052	3.7522
4.8776	3.671
4.8502	3.7145
4.8231	3.695
4.7963	3.8636
4.7699	3.8226
4.7437	3.7612
4.7178	3.8473
4.6922	3.7933
4.6668	3.8775
4.6418	3.77
4.617	3.7744
4.5924	3.9572
4.5681	3.8889
4.5441	3.8201
4.5203	3.8616
4.4968	3.9185
4.4735	3.7782
4.4505	3.7993
4.4277	3.8361
4.4051	3.8005
4.3828	3.9533
4.3607	3.7465
4.3388	3.8997
4.3171	3.858
4.2956	3.9317
4.2744	3.8222
4.2534	3.847
4.2325	3.9533
4.2119	3.8982
4.1915	3.862
4.1712	3.8869
4.1512	3.8946
4.1313	3.9013
4.1117	4.0128
4.0922	3.8046
4.0729	3.8676
4.0538	3.909
4.0349	3.9157
4.0161	3.8596
3.9976	4.0068
3.9792	3.7464
3.9609	3.8943
3.9428	3.8809
3.9249	3.9655
3.9072	3.8824
3.8896	3.7068
3.8722	3.9412
3.8549	3.8509
3.8378	3.8368
3.8208	3.8451
3.804	3.9181
3.7873	3.9126
3.7708	3.9776
3.7544	3.9309
3.7382	3.8724
3.7221	3.9335
3.7061	3.79
3.6903	3.8264
3.6746	3.9571
3.659	3.7279
3.6436	3.7938
3.6283	3.8567
3.6131	3.7393
3.5981	3.8041
3.5832	3.9232
3.5684	3.7119
3.5537	3.7327
3.5391	3.6348
3.5247	3.8083
3.5104	3.7409
3.4962	3.5016
3.4821	3.2999
3.4681	3.2616
3.4543	3.3462
3.4405	3.4006
3.4269	3.1953
3.4133	3.1146
3.3999	3.0606
3.3866	3.0196
3.3733	2.9051
3.3602	3.0417
3.3472	3.0806
3.3343	3.4635
3.3215	3.5697
3.3088	3.4338
3.2961	3.5455
3.2836	3.4073
3.2712	3.5878
3.2588	3.5819
3.2466	3.5402
3.2345	3.7352
3.2224	3.6523
3.2104	3.6267
3.1985	3.58
3.1867	3.7251
3.175	3.7385
3.1634	3.6255
3.1519	3.7514
3.1404	3.6973
3.129	3.7449
3.1178	3.6289
3.1065	3.5707
3.0954	3.6307
3.0844	3.4345
3.0734	3.3726
3.0625	3.3982
3.0517	3.4036
3.041	3.1809
3.0303	3.072
3.0197	3.2238
3.0092	3.1177
2.9987	3.1834
2.9884	3.2194
2.9781	2.9941
2.9678	3.2155
2.9577	3.484
2.9476	3.3876
2.9376	3.3614
2.9276	3.5199
2.9177	3.6426
2.9079	3.5688
2.8982	3.4772
2.8885	3.577
2.8789	3.792
2.8693	3.7106
2.8598	3.6545
2.8504	3.6817
2.841	3.6165
2.8317	3.7757
2.8224	3.5908
2.8133	3.7763
2.8041	3.6618
2.7951	3.8684
2.786	4.0991
2.7771	3.7518
2.7682	3.6862
2.7594	3.7581
2.7506	3.7079
2.7418	3.7798
2.7332	3.7465
2.7246	3.8153
2.716	3.7714
2.7075	3.7732
2.699	3.7359
2.6906	3.6799
2.6823	3.642
2.674	3.9223
2.6657	3.6435
2.6575	3.7471
2.6494	3.8491
2.6413	3.7969
2.6332	3.79
2.6252	3.6836
2.6173	3.8161
2.6094	3.6785
2.6015	3.5221
2.5937	3.7919
2.5859	3.586
2.5782	3.5966
2.5706	3.506
2.5629	3.6343
2.5554	3.3819
2.5478	3.7675
2.5403	3.7402
2.5329	3.4699
2.5255	3.6298
2.5181	3.7123
2.5108	3.5517
2.5035	3.6244
2.4963	3.7617
2.4891	3.6418
2.482	3.5673
2.4749	3.6214
2.4678	3.7246
2.4608	3.7533
2.4538	3.6657
2.4468	3.5899
2.4399	3.6514
2.4331	3.6866
2.4262	3.8008
2.4194	3.3843
2.4127	3.5287
2.4059	3.5242
2.3993	3.5271
2.3926	3.4176
2.386	3.3939
2.3795	3.6217
2.3729	3.606
2.3664	3.3167
2.36	3.7541
2.3535	3.6869
2.3471	3.6325
2.3408	3.5702
2.3345	3.6131
2.3282	3.7033
2.3219	3.3572
2.3157	3.5547
2.3095	3.5602
2.3034	3.4206
2.2972	3.5531
2.2911	3.403
2.2851	3.6281
2.279	3.5629
2.2731	3.5741
2.2671	3.6316
2.2612	3.4087
2.2553	3.6658
2.2494	3.6907
2.2435	3.6694
2.2377	3.5971
2.232	3.5891
2.2262	3.713
2.2205	3.5889
2.2148	3.3567
2.2091	3.4652
2.2035	3.6131
2.1979	3.4815
2.1923	3.4694
2.1868	3.5125
2.1812	3.5958
2.1758	3.3691
2.1703	3.7523
2.1649	3.4541
2.1595	3.5722
2.1541	3.7066
2.1487	3.5346
2.1434	3.6986
2.1381	3.6682
2.1328	3.5223
2.1275	3.6037
2.1223	3.241
2.1171	3.6747
2.112	3.7262
2.1068	3.3341
2.1017	3.4297
2.0966	3.7241
2.0915	3.4093
2.0865	3.4901
2.0814	3.4315
2.0764	3.3998
2.0715	3.4744
2.0665	3.0389
2.0616	3.8724
2.0567	3.5401
2.0518	2.9861
2.0469	3.3967
2.0421	3.5086
2.0373	3.4672
2.0325	3.4519
2.0277	3.6696
2.0229	3.4652
2.0182	3.4666
2.0135	3.6009
2.0088	3.5107
2.0042	3.3081
