Name: Construction Asphalt
Type: manmade
Class: Road
Subclass: Paving Asphalt
Particle Size: Solid
Sample No.: 0674UUUASP
Owner: National Photographic Interpretation Center
Wavelength Range: All
Origin: Spectra obtained from the Noncoventional Exploitation FactorsData System of the National Photographic Interpretation Center.
Description: Road Asphalts and Tar. Weathered runway construction asphalt. Sample was black with little aggregate showing. Original ASTER Spectral Library name was jhu.becknic.manmade.asphalt.paving.solid.0674uuu.spectrum.txt
Measurement: Directional (10 Degree) Hemispherical Reflectance
X Units: Wavelength (micrometers)
Y Units: Reflectance (percent)
wavelength	value
0.3	5.94
0.304	5.97
0.308	6
0.312	6.04
0.316	6.07
0.32	6.06
0.324	6.09
0.328	6.13
0.332	6.16
0.336	6.18
0.34	6.21
0.344	6.25
0.348	6.28
0.352	6.31
0.356	6.33
0.36	6.35
0.364	6.38
0.368	6.41
0.372	6.44
0.376	6.48
0.38	6.5
0.384	6.53
0.388	6.56
0.392	6.6
0.396	6.63
0.4	6.67
0.404	6.7
0.408	6.72
0.412	6.75
0.416	6.78
0.42	6.81
0.424	6.84
0.428	6.87
0.432	6.9
0.436	6.93
0.44	6.96
0.444	6.99
0.448	7.01
0.452	7.03
0.456	7.07
0.46	7.1
0.464	7.12
0.468	7.14
0.472	7.16
0.476	7.18
0.48	7.2
0.484	7.2
0.488	7.21
0.492	7.23
0.496	7.27
0.5	7.31
0.504	7.34
0.508	7.37
0.512	7.38
0.516	7.4
0.52	7.42
0.524	7.44
0.528	7.46
0.532	7.48
0.536	7.51
0.54	7.52
0.544	7.55
0.548	7.57
0.552	7.58
0.556	7.6
0.56	7.62
0.564	7.64
0.568	7.66
0.572	7.67
0.576	7.69
0.58	7.7
0.584	7.72
0.588	7.73
0.592	7.75
0.596	7.76
0.6	7.77
0.604	7.79
0.608	7.8
0.612	7.81
0.616	7.82
0.62	7.84
0.624	7.85
0.628	7.86
0.632	7.87
0.636	7.88
0.64	7.89
0.644	7.9
0.648	7.91
0.652	7.93
0.656	7.94
0.66	7.95
0.664	7.96
0.668	7.97
0.672	7.98
0.676	8
0.68	8
0.684	8.01
0.688	8.02
0.692	8.02
0.696	8.04
0.7	8.05
0.704	8.06
0.708	8.07
0.712	8.08
0.716	8.08
0.72	8.09
0.724	8.1
0.728	8.11
0.732	8.12
0.736	8.13
0.74	8.14
0.744	8.15
0.748	8.16
0.752	8.16
0.756	8.17
0.76	8.18
0.764	8.19
0.768	8.19
0.772	8.2
0.776	8.21
0.78	8.22
0.784	8.22
0.788	8.23
0.792	8.24
0.796	8.24
0.8	8.24
0.84	8.29
0.88	8.47
0.92	8.61
0.96	8.38
1	8.36
1.04	8.38
1.08	8.37
1.12	8.4
1.16	8.43
1.2	8.37
1.24	8.42
1.28	8.42
1.32	8.41
1.36	8.41
1.4	8.38
1.44	8.37
1.48	8.36
1.52	8.37
1.56	8.36
1.6	8.35
1.64	8.37
1.68	8.35
1.72	8.34
1.76	8.31
1.8	8.31
1.84	8.29
1.88	8.28
1.92	8.17
1.96	8.15
2	8.19
2.04	8.23
2.08	8.21
2.12	8.08
2.16	8.04
2.2	8.03
2.24	7.96
2.28	7.9975
2.32	7.5924
2.36	7.4788
2.4	7.3668
2.44	7.1358
2.48	7.0942
2.52	6.8975
2.56	7.0763
2.6	6.92
2.64	6.8776
2.68	6.5895
2.72	5.4517
2.76	5.0278
2.8	5.3148
2.84	5.2593
2.88	5.149
2.92	5.1004
2.96	5.091
3	5.1962
3.04	5.2413
3.08	5.429
3.12	5.5389
3.16	5.4801
3.2	5.5511
3.24	5.3671
3.28	5.3233
3.32	5.1841
3.36	4.9843
3.4	4.5746
3.44	4.5616
3.48	4.6568
3.52	4.8384
3.56	5.2559
3.6	5.3288
3.64	5.5275
3.68	5.3742
3.72	5.3637
3.76	5.0802
3.8	4.8686
3.84	5.0698
3.88	4.9062
3.92	4.6286
3.96	4.6794
4	5.129
4.04	5.5455
4.08	5.7915
4.12	5.8194
4.16	5.8877
4.2	5.997
4.24	5.9182
4.28	5.9407
4.32	5.9983
4.36	6.0602
4.4	6.0171
4.44	5.8453
4.48	5.9193
4.52	5.9923
4.56	5.8914
4.6	5.8238
4.64	5.8175
4.68	5.8935
4.72	5.9244
4.76	5.9691
4.8	5.8559
4.84	5.8459
4.88	5.732
4.92	5.6358
4.96	5.5357
5	5.3059
5.2	4.9356
5.4	4.5091
5.6	3.8417
5.8	3.3342
6	3.2298
6.2	3.1772
6.4	4.8467
6.6	4.5986
6.8	3.9732
7	3.8616
7.2	3.7637
7.4	4.0959
7.6	4.1235
7.8	4.3243
8	5.4669
8.2	7.4678
8.4	7.3043
8.6	6.3627
8.8	6.9248
9	7.023
9.2	7.6542
9.4	7.0192
9.6	6.6802
9.8	6.1426
10	6.4337
10.2	5.0866
10.4	4.4228
10.6	4.1778
10.8	4.1864
11	4.7025
11.2	4.6658
11.4	3.7523
11.6	3.6424
11.8	3.3813
12	3.2735
12.2	3.2687
12.4	3.5413
