Name: Brass plate
Type: Manmade
Class: Reflectance target
Subclass: None
Particle Size: Solid
Sample No.: SN
Owner: JPL
Wavelength Range: TIR
Origin: Labsphere, P.O. Box 70, Shaker Street, North Sutton, NH 03260(603) 927-4266
Description: Measurement made at top right. Field Brass 2.Measured Oct. 30th 1997 to Nov. 2nd 1997. Original ASTER Spectral Library name was jpl.nicolet.manmade.target.none.solid.bp21097i.spectrum.txt
Measurement: Hemispherical Reflectance
X Units: Wavelength (micrometers)
Y Units: Reflectence (percent)
wavelength	value
15.3853	87.4219
15.1161	87.3928
14.8563	87.426
14.6052	87.6611
14.3624	87.6156
14.1276	87.6572
13.9004	87.5448
13.6803	87.3104
13.4671	87.3217
13.2604	87.4021
13.06	87.22
12.8656	87.1575
12.6769	87.0227
12.4936	87.0257
12.3155	86.9375
12.1425	86.9091
11.9742	87.0448
11.8106	86.9652
11.6513	87.0632
11.4963	87.2063
11.3454	87.0564
11.1983	86.8375
11.0551	86.8832
10.9154	86.8967
10.7793	86.8033
10.6465	86.9527
10.5169	86.6219
10.3904	86.7718
10.267	86.817
10.1464	86.7508
10.0287	86.6281
9.9136	86.5532
9.8012	86.5692
9.6913	86.5386
9.5838	86.6175
9.4787	86.6354
9.3758	86.5025
9.2752	86.7113
9.1767	86.7152
9.0803	86.8754
8.9858	87.0094
8.8934	86.8875
8.8028	86.8164
8.714	86.7977
8.627	86.7192
8.5417	86.7423
8.4581	86.7966
8.3761	86.8545
8.2957	86.8904
8.2169	86.7788
8.1395	86.7902
8.0635	86.8708
7.989	87.1004
7.9158	87.2999
7.8439	87.5216
7.7734	87.7556
7.7041	87.86
7.636	87.9392
7.5691	88.1015
7.5034	88.094
7.4388	88.1385
7.3753	88.1636
7.3129	88.1023
7.2515	88.0377
7.1912	88.1083
7.1318	88.1697
7.0734	88.0885
7.016	88.2158
6.9595	88.6171
6.9039	88.3679
6.8492	88.459
6.7953	88.6139
6.7423	88.1998
6.6901	88.3706
6.6387	89.1506
6.5881	88.5287
6.5382	88.2589
6.4892	89.0483
6.4408	88.2835
6.3931	88.0102
6.3462	88.4458
6.2999	87.907
6.2543	87.8676
6.2094	87.8714
6.1651	88.08
6.1214	88.2122
6.0784	88.4005
6.0359	88.1846
5.994	88.4403
5.9527	88.2742
5.912	88.1722
5.8718	88.3905
5.8322	88.4751
5.7931	88.1625
5.7545	88.2292
5.7165	88.3235
5.6789	88.172
5.6418	88.3469
5.6052	88.0336
5.5691	88.0365
5.5334	87.9117
5.4982	87.9592
5.4635	88.0165
5.4291	87.9424
5.3952	87.8705
5.3618	87.8862
5.3287	87.9015
5.2961	87.899
5.2638	87.8349
5.2319	87.9384
5.2004	87.8786
5.1693	87.9266
5.1386	87.8887
5.1082	87.908
5.0782	87.9062
5.0485	87.8661
5.0192	87.889
4.9902	87.8908
4.9616	87.9606
4.9332	87.9807
4.9052	87.9413
4.8776	87.9316
4.8502	87.9097
4.8231	88.0238
4.7963	87.9404
4.7699	87.9658
4.7437	88.0655
4.7178	88.0204
4.6922	87.9825
4.6668	87.9051
4.6418	87.9594
4.617	87.9688
4.5924	87.9539
4.5681	87.9966
4.5441	87.9128
4.5203	87.9887
4.4968	87.9284
4.4735	87.9229
4.4505	87.9333
4.4277	87.9941
4.4051	87.9806
4.3828	87.9839
4.3607	87.9606
4.3388	87.9032
4.3171	88.0839
4.2956	88.0828
4.2744	88.1233
4.2534	88.0223
4.2325	88.1904
4.2119	88.0653
4.1915	87.9754
4.1712	87.9087
4.1512	87.9243
4.1313	87.9018
4.1117	87.8366
4.0922	87.9032
4.0729	87.9445
4.0538	87.9317
4.0349	87.8761
4.0161	87.9052
3.9976	87.8535
3.9792	87.9233
3.9609	87.881
3.9428	87.8577
3.9249	87.873
3.9072	87.8725
3.8896	87.8605
3.8722	87.8508
3.8549	87.9035
3.8378	87.8823
3.8208	87.8123
3.804	87.8578
3.7873	87.8419
3.7708	87.9537
3.7544	87.775
3.7382	87.8744
3.7221	87.8296
3.7061	87.8648
3.6903	87.8682
3.6746	87.9465
3.659	87.85
3.6436	87.8905
3.6283	87.9296
3.6131	87.8627
3.5981	87.8212
3.5832	87.8851
3.5684	87.916
3.5537	87.8551
3.5391	87.8603
3.5247	87.9388
3.5104	88.0616
3.4962	87.9392
3.4821	87.9187
3.4681	88.0024
3.4543	87.8748
3.4405	87.9537
3.4269	88.1252
3.4133	87.9646
3.3999	87.9622
3.3866	87.9205
3.3733	87.9132
3.3602	87.9891
3.3472	87.8756
3.3343	87.8772
3.3215	87.9558
3.3088	87.8578
3.2961	87.8523
3.2836	87.779
3.2712	87.848
3.2588	87.8274
3.2466	87.9412
3.2345	87.8589
3.2224	87.8732
3.2104	87.8987
3.1985	87.9007
3.1867	87.9417
3.175	87.9381
3.1634	87.9447
3.1519	87.9249
3.1404	87.8793
3.129	87.9652
3.1178	87.932
3.1065	87.8785
3.0954	87.8754
3.0844	87.8906
3.0734	88.0228
3.0625	87.9239
3.0517	87.9692
3.041	88.0339
3.0303	88.0141
3.0197	87.9949
3.0092	87.9802
2.9987	87.914
2.9884	87.9646
2.9781	87.9044
2.9678	87.9109
2.9577	87.9848
2.9476	87.893
2.9376	87.996
2.9276	88.0364
2.9177	87.9372
2.9079	87.844
2.8982	87.8798
2.8885	88.0041
2.8789	87.8861
2.8693	88.0329
2.8598	87.9083
2.8504	87.8512
2.841	87.9587
2.8317	87.9296
2.8224	87.9547
2.8133	87.8197
2.8041	87.9791
2.7951	87.7109
2.786	88.1235
2.7771	87.5386
2.7682	87.998
2.7594	87.7278
2.7506	87.8141
2.7418	87.9763
2.7332	87.8782
2.7246	88.1377
2.716	87.6114
2.7075	87.7617
2.699	87.7679
2.6906	87.7608
2.6823	87.7277
2.674	87.775
2.6657	88.4217
2.6575	87.6279
2.6494	87.5372
2.6413	87.5558
2.6332	87.6368
2.6252	87.8222
2.6173	88.1222
2.6094	87.832
2.6015	87.751
2.5937	88.3562
2.5859	87.6614
2.5782	87.4681
2.5706	87.8346
2.5629	87.8758
2.5554	87.6652
2.5478	87.6422
2.5403	87.5722
2.5329	87.7232
2.5255	87.5306
2.5181	87.5592
2.5108	87.4752
2.5035	87.4691
2.4963	87.5245
2.4891	87.6465
2.482	87.666
2.4749	87.4715
2.4678	87.5732
2.4608	87.4236
2.4538	87.4673
2.4468	87.3997
2.4399	87.5341
2.4331	87.5723
2.4262	87.4906
2.4194	87.6104
2.4127	87.4063
2.4059	87.4989
2.3993	87.6328
2.3926	87.5795
2.386	87.4419
2.3795	87.67
2.3729	87.3524
2.3664	87.5142
2.36	87.515
2.3535	87.5806
2.3471	87.5585
2.3408	87.4887
2.3345	87.3317
2.3282	87.3544
2.3219	87.463
2.3157	87.532
2.3095	87.2963
2.3034	87.3265
2.2972	87.5359
2.2911	87.3023
2.2851	87.4093
2.279	87.4773
2.2731	87.4307
2.2671	87.4763
2.2612	87.4333
2.2553	87.4816
2.2494	87.3291
2.2435	87.4392
2.2377	87.5647
2.232	87.3653
2.2262	87.4423
2.2205	87.3363
2.2148	87.2883
2.2091	87.2958
2.2035	87.3663
2.1979	87.3086
2.1923	87.4473
2.1868	87.4196
2.1812	87.2411
2.1758	87.2406
2.1703	87.2692
2.1649	87.325
2.1595	87.3234
2.1541	87.4132
2.1487	87.3317
2.1434	87.481
2.1381	87.2952
2.1328	87.3924
2.1275	87.5253
2.1223	87.2647
2.1171	87.448
2.112	87.4465
2.1068	87.4188
2.1017	87.2083
2.0966	87.3128
2.0915	87.4715
2.0865	87.4854
2.0814	87.1421
2.0764	87.5558
2.0715	87.3566
2.0665	87.3094
2.0616	87.0959
2.0567	87.3022
2.0518	87.4053
2.0469	87.2693
2.0421	87.2893
2.0373	87.2345
2.0325	87.1083
2.0277	87.514
2.0229	87.3665
2.0182	87.2509
2.0135	87.3546
2.0088	87.1332
2.0042	87.1587
