Name: Flat Black Paint
Type: Manmade
Class: General Construction Material
Subclass: Paint
Particle Size: Solid
Sample No.: 7211
Owner: JPL
Wavelength Range: TIR
Origin: The Sherwin-Williams Co., Solon, OH 44139
Description: Flat black latex enamel spray paint.Krylon #7211.Collected by JPL Original ASTER Spectral Library name was jpl.nicolet.manmade.construction.paint.solid.7211.spectrum.txt
Measurement: Hemispherical reflectance
X Units: Wavelength (micrometers)
Y Units: Reflectance (percent)
wavelength	value
14.0131	3.6896
13.7895	4.5203
13.5729	4.7782
13.363	5.1061
13.1595	4.7384
12.9621	4.5367
12.7705	4.8596
12.5845	4.7906
12.4039	4.782
12.2284	5.2391
12.0578	5.2754
11.8918	5.4462
11.7304	5.7138
11.5733	5.87
11.4203	6.2087
11.2714	6.5314
11.1263	7.0915
10.9848	7.4455
10.8469	5.5249
10.7125	5.4199
10.5813	4.7336
10.4533	5.1808
10.3284	6.0621
10.2064	6.9691
10.0872	8.2714
9.9708	9.8213
9.8571	6.8159
9.7459	8.7082
9.6372	7.4771
9.5309	4.6193
9.427	4.5122
9.3252	4.83
9.2257	4.5218
9.1282	4.3769
9.0328	4.091
8.9394	3.7113
8.8478	4.5257
8.7582	4.8383
8.6703	4.6516
8.5842	4.4599
8.4997	4.3012
8.4169	4.5996
8.3357	4.2887
8.2561	4.3868
8.178	4.4795
8.1013	4.3127
8.0261	4.2244
7.9522	4.2919
7.8797	4.2963
7.8085	4.3616
7.7386	4.4513
7.6699	4.5338
7.6024	4.5213
7.5361	4.5648
7.4709	4.657
7.4069	4.5498
7.344	4.6736
7.2821	4.6623
7.2212	4.4123
7.1614	4.4143
7.1025	4.5266
7.0446	4.8243
6.9877	4.8855
6.9316	4.7384
6.8764	4.4747
6.8221	4.4215
6.7687	4.2431
6.7161	4.5927
6.6643	4.3248
6.6133	4.5039
6.5631	4.6413
6.5136	4.6696
6.4649	4.4933
6.4169	4.6082
6.3696	4.6909
6.323	4.6945
6.277	4.7083
6.2318	4.5345
6.1871	4.7657
6.1432	4.6669
6.0998	4.8206
6.0571	4.937
6.0149	4.934
5.9733	5.1446
5.9323	5.0855
5.8919	5.1361
5.852	5.2088
5.8126	5.4657
5.7738	4.6622
5.7354	3.6307
5.6976	4.1426
5.6603	4.5158
5.6235	4.5141
5.5871	4.5922
5.5512	4.6159
5.5158	4.6638
5.4808	4.6784
5.4463	4.7025
5.4121	4.813
5.3785	4.7646
5.3452	4.8872
5.3123	4.8304
5.2799	4.7248
5.2478	4.902
5.2161	4.8801
5.1848	4.9246
5.1539	4.8992
5.1234	4.8543
5.0932	4.8494
5.0633	4.8848
5.0338	4.9486
5.0047	4.959
4.9759	4.9219
4.9474	4.9041
4.9192	4.906
4.8914	4.938
4.8638	4.9834
4.8366	4.9
4.8097	4.9812
4.7831	4.9722
4.7567	4.9654
4.7307	4.9909
4.7049	4.9796
4.6795	4.9001
4.6543	4.9195
4.6293	5.0944
4.6047	4.9791
4.5802	4.9716
4.5561	4.9692
4.5322	5.0661
4.5085	4.9785
4.4851	5.025
4.462	5.1114
4.4391	5.0557
4.4164	5.0028
4.3939	5.0206
4.3717	5.012
4.3497	5.0615
4.3279	5.0702
4.3063	4.9703
4.285	5.0702
4.2638	4.9941
4.2429	5.0573
4.2222	4.9941
4.2016	5.1076
4.1813	4.9268
4.1612	5.0913
4.1412	5.0049
4.1215	5.0052
4.1019	5.0459
4.0826	5.099
4.0633	5.1947
4.0443	5.0098
4.0255	5.0916
4.0068	5.075
3.9883	5.0928
3.97	5.1107
3.9519	5.1428
3.9339	5.1247
3.916	5.0483
3.8984	5.0692
3.8809	5.0355
3.8635	5.0216
3.8463	5.1882
3.8293	5.1181
3.8124	5.1141
3.7956	5.0767
3.779	5.1049
3.7626	4.9728
3.7463	4.9749
3.7301	5.0484
3.7141	5.1252
3.6982	4.9773
3.6824	5.1132
3.6668	5.1558
3.6513	5.1363
3.6359	5.1461
3.6207	5.023
3.6056	5.1717
3.5906	5.0701
3.5758	5.2593
3.561	5.231
3.5464	5.2375
3.5319	5.04
3.5175	5.2307
3.5033	5.0794
3.4891	5.2371
3.4751	5.0968
3.4612	5.0331
3.4474	5.0836
3.4337	5.08
3.4201	5.0931
3.4066	4.7998
3.3932	4.7305
3.3799	4.7256
3.3668	4.6183
3.3537	4.5871
3.3407	4.6811
3.3279	4.7984
3.3151	4.9201
3.3024	4.7417
3.2899	4.6499
3.2774	4.9324
3.265	4.8294
3.2527	4.7381
3.2405	4.7923
3.2284	4.9316
3.2164	4.7795
3.2045	4.9255
3.1926	4.8874
3.1809	4.9232
3.1692	4.9595
3.1576	4.8455
3.1461	4.9693
3.1347	5.0075
3.1234	5.0097
3.1121	4.9822
3.101	4.9856
3.0899	4.9216
3.0789	5.0328
3.068	5.1698
3.0571	4.8804
3.0463	5.2045
3.0356	5.0159
3.025	5.0702
3.0144	5.0826
3.004	4.8935
2.9935	5.1378
2.9832	5.0214
2.9729	5.1009
2.9628	5.0292
2.9526	5.1892
2.9426	4.9499
2.9326	5.0026
2.9227	5.1747
2.9128	5.0346
2.903	5.0148
2.8933	5.1313
2.8837	5.0516
2.8741	5.0777
2.8645	4.8509
2.8551	5.0483
2.8457	5.2299
2.8363	4.9988
2.8271	4.8897
2.8178	5.1413
2.8087	4.9886
2.7996	5.0316
2.7906	5.0788
2.7816	4.9869
2.7726	4.7914
2.7638	4.9098
2.755	4.9151
2.7462	4.7982
2.7375	4.6742
2.7289	4.632
2.7203	4.9628
2.7117	4.7368
2.7033	4.764
2.6948	4.9619
2.6864	5.0691
2.6781	5.0139
2.6698	5.1809
2.6616	5.2099
2.6534	4.9815
2.6453	5.0803
2.6372	5.2677
2.6292	4.9898
2.6212	5.0061
2.6133	4.9707
2.6054	5.2129
2.5976	4.8777
2.5898	5.1163
2.5821	5.1182
2.5744	5.2747
2.5667	5.1061
2.5591	4.9991
2.5516	5.0433
2.5441	5.1192
2.5366	5.0925
2.5292	5.0088
2.5218	5.0902
2.5145	4.9934
2.5072	5.1669
2.4999	5.1205
2.4927	5.3193
2.4855	5.2288
2.4784	5.1061
2.4713	5.0963
2.4643	5.1296
2.4573	5.2188
2.4503	5.0892
2.4434	5.1523
2.4365	5.1673
2.4296	4.9976
2.4228	4.8934
2.416	4.9617
2.4093	5.1383
2.4026	5.2464
2.396	5.0593
2.3893	5.128
2.3827	5.1875
2.3762	5.0921
2.3697	4.9415
2.3632	5.2327
2.3567	5.1414
2.3503	5.2426
2.344	4.9559
2.3376	5.1023
2.3313	5.1887
2.325	5.2089
2.3188	5.2376
2.3126	5.2213
2.3064	4.9871
2.3003	5.2702
2.2942	5.0191
2.2881	5.3034
2.2821	5.1628
2.2761	5.2508
2.2701	5.1375
2.2641	4.8472
2.2582	5.1104
2.2523	5.1142
2.2465	5.0889
2.2406	4.9586
2.2348	5.066
2.2291	5.0701
2.2233	5.2848
2.2176	5.1345
2.212	5.3644
2.2063	5.1182
2.2007	4.9902
2.1951	5.1916
2.1895	5.239
2.184	5.09
2.1785	5.325
2.173	4.9542
2.1676	5.1776
2.1622	4.9458
2.1568	5.096
2.1514	4.9775
2.146	4.7966
2.1407	5.2691
2.1354	5.1034
2.1302	5.4411
2.1249	4.8028
2.1197	5.3022
2.1145	5.0192
2.1094	5.1126
2.1042	5.099
2.0991	4.8967
2.094	4.963
2.089	5.1545
2.0839	5.0888
2.0789	5.4569
2.0739	4.4032
2.069	4.9596
2.064	5.0389
2.0591	5.2354
2.0542	5.1843
2.0493	5.1534
2.0445	5.2218
2.0397	5.1345
2.0349	5.3036
2.0301	5.409
2.0253	4.8321
2.0206	4.9614
2.0159	5.0016
2.0112	4.8724
2.0065	4.9572
2.0019	5.4173
