Name: Brass plate
Type: Manmade
Class: Reflectance target
Subclass: None
Particle Size: Solid
Sample No.: ILF-17464-2-1-cl
Owner: JPL
Wavelength Range: TIR
Origin: Labsphere, P.O. Box 70, Shaker Street, North Sutton, NH 03260(603) 927-4266
Description: Measurement made at center left. Field Brass 2.Measured Oct. 30th 1997 to Nov. 2nd 1997. Original ASTER Spectral Library name was jpl.nicolet.manmade.target.none.solid.bp21097d.spectrum.txt
Measurement: Hemispherical Reflectance
X Units: Wavelength (micrometers)
Y Units: Reflectence (percent)
wavelength	value
15.3853	90.9359
15.1161	91.1937
14.8563	91.0864
14.6052	91.0066
14.3624	91.0184
14.1276	91.1142
13.9004	91.0991
13.6803	90.9655
13.4671	90.7567
13.2604	91.0763
13.06	90.8003
12.8656	90.7987
12.6769	90.6232
12.4936	90.544
12.3155	90.608
12.1425	90.499
11.9742	90.5151
11.8106	90.5509
11.6513	90.4022
11.4963	90.6221
11.3454	90.5575
11.1983	90.3971
11.0551	90.3669
10.9154	90.4145
10.7793	90.1909
10.6465	90.2635
10.5169	90.2459
10.3904	90.2018
10.267	90.1409
10.1464	90.177
10.0287	90.2271
9.9136	90.0011
9.8012	90.007
9.6913	89.9486
9.5838	89.8597
9.4787	89.976
9.3758	89.9769
9.2752	90.1158
9.1767	89.9422
9.0803	90.2617
8.9858	90.3917
8.8934	90.485
8.8028	90.3025
8.714	90.0908
8.627	90.1698
8.5417	90.2962
8.4581	90.3813
8.3761	90.2586
8.2957	90.3081
8.2169	90.2719
8.1395	90.2243
8.0635	90.355
7.989	90.6681
7.9158	90.7666
7.8439	91.1818
7.7734	91.3532
7.7041	91.5115
7.636	91.5753
7.5691	91.6073
7.5034	91.5828
7.4388	91.7004
7.3753	91.7792
7.3129	91.7317
7.2515	91.7155
7.1912	91.7355
7.1318	91.6072
7.0734	91.6204
7.016	91.8174
6.9595	92.066
6.9039	91.9278
6.8492	91.9439
6.7953	92.0418
6.7423	91.7856
6.6901	91.8669
6.6387	92.2889
6.5881	91.8838
6.5382	91.8548
6.4892	92.2538
6.4408	91.8128
6.3931	91.6594
6.3462	91.7307
6.2999	91.3431
6.2543	91.2947
6.2094	91.3142
6.1651	91.2631
6.1214	91.569
6.0784	91.8203
6.0359	91.7824
5.994	91.8612
5.9527	91.7924
5.912	91.8099
5.8718	91.8897
5.8322	91.9336
5.7931	91.6655
5.7545	91.869
5.7165	91.8405
5.6789	91.6725
5.6418	91.7933
5.6052	91.6365
5.5691	91.6627
5.5334	91.5481
5.4982	91.5208
5.4635	91.6208
5.4291	91.5493
5.3952	91.4692
5.3618	91.4562
5.3287	91.5081
5.2961	91.4383
5.2638	91.5071
5.2319	91.4324
5.2004	91.5501
5.1693	91.4842
5.1386	91.5334
5.1082	91.5729
5.0782	91.5044
5.0485	91.5351
5.0192	91.5348
4.9902	91.5044
4.9616	91.5804
4.9332	91.5249
4.9052	91.5639
4.8776	91.5928
4.8502	91.6003
4.8231	91.5573
4.7963	91.5605
4.7699	91.5512
4.7437	91.5555
4.7178	91.5932
4.6922	91.5327
4.6668	91.5961
4.6418	91.5626
4.617	91.5434
4.5924	91.6343
4.5681	91.5252
4.5441	91.5932
4.5203	91.6629
4.4968	91.5766
4.4735	91.5751
4.4505	91.5488
4.4277	91.5412
4.4051	91.4728
4.3828	91.525
4.3607	91.4603
4.3388	91.3825
4.3171	91.1597
4.2956	90.6285
4.2744	90.4429
4.2534	91.0486
4.2325	90.0206
4.2119	91.0637
4.1915	91.4502
4.1712	91.4713
4.1512	91.5234
4.1313	91.4978
4.1117	91.4161
4.0922	91.4819
4.0729	91.3253
4.0538	91.4999
4.0349	91.5076
4.0161	91.4692
3.9976	91.4999
3.9792	91.4378
3.9609	91.4663
3.9428	91.5384
3.9249	91.4405
3.9072	91.3863
3.8896	91.5501
3.8722	91.4002
3.8549	91.3551
3.8378	91.3864
3.8208	91.3653
3.804	91.5137
3.7873	91.4359
3.7708	91.4729
3.7544	91.4362
3.7382	91.4782
3.7221	91.3568
3.7061	91.4266
3.6903	91.4287
3.6746	91.4094
3.659	91.4635
3.6436	91.4179
3.6283	91.4093
3.6131	91.5873
3.5981	91.3569
3.5832	91.3763
3.5684	91.3529
3.5537	91.4462
3.5391	91.409
3.5247	91.4529
3.5104	91.6824
3.4962	91.5344
3.4821	91.4757
3.4681	91.4782
3.4543	91.4902
3.4405	91.53
3.4269	91.6187
3.4133	91.4877
3.3999	91.6222
3.3866	91.5857
3.3733	91.384
3.3602	91.4635
3.3472	91.3876
3.3343	91.3314
3.3215	91.4312
3.3088	91.4585
3.2961	91.5116
3.2836	91.3005
3.2712	91.4109
3.2588	91.4126
3.2466	91.4661
3.2345	91.3833
3.2224	91.3979
3.2104	91.418
3.1985	91.3832
3.1867	91.4772
3.175	91.5461
3.1634	91.4146
3.1519	91.4446
3.1404	91.4643
3.129	91.4873
3.1178	91.4157
3.1065	91.3753
3.0954	91.4295
3.0844	91.4861
3.0734	91.4149
3.0625	91.5419
3.0517	91.4617
3.041	91.5677
3.0303	91.4083
3.0197	91.4884
3.0092	91.5176
2.9987	91.3975
2.9884	91.5354
2.9781	91.5395
2.9678	91.5425
2.9577	91.4908
2.9476	91.5009
2.9376	91.4273
2.9276	91.5121
2.9177	91.4075
2.9079	91.4677
2.8982	91.4437
2.8885	91.4791
2.8789	91.4721
2.8693	91.4494
2.8598	91.3895
2.8504	91.3667
2.841	91.5713
2.8317	91.4532
2.8224	91.4272
2.8133	91.2111
2.8041	91.346
2.7951	91.2978
2.786	91.3023
2.7771	91.3686
2.7682	91.301
2.7594	91.3574
2.7506	91.1626
2.7418	91.4863
2.7332	91.3462
2.7246	91.6452
2.716	91.2736
2.7075	91.313
2.699	91.1871
2.6906	91.368
2.6823	91.2385
2.674	91.2243
2.6657	91.5298
2.6575	91.2139
2.6494	91.2894
2.6413	91.2959
2.6332	91.254
2.6252	91.3124
2.6173	91.5286
2.6094	91.324
2.6015	91.2807
2.5937	91.5514
2.5859	91.3598
2.5782	91.0848
2.5706	91.2963
2.5629	91.3976
2.5554	91.144
2.5478	91.3513
2.5403	91.1049
2.5329	91.0653
2.5255	91.1946
2.5181	91.2024
2.5108	91.2185
2.5035	91.1416
2.4963	91.3047
2.4891	91.2113
2.482	91.1202
2.4749	91.1345
2.4678	91.1183
2.4608	91.0916
2.4538	91.213
2.4468	91.1316
2.4399	91.1488
2.4331	91.0402
2.4262	91.1619
2.4194	91.208
2.4127	91.0968
2.4059	91.0222
2.3993	91.1096
2.3926	91.1007
2.386	91.0978
2.3795	91.0981
2.3729	90.9462
2.3664	91.1711
2.36	91.1316
2.3535	91.1185
2.3471	90.9341
2.3408	90.975
2.3345	90.9508
2.3282	91.1364
2.3219	90.9997
2.3157	91.0685
2.3095	90.9849
2.3034	91.1018
2.2972	91.0411
2.2911	90.9397
2.2851	90.9602
2.279	91.2399
2.2731	91.0311
2.2671	90.9717
2.2612	90.8881
2.2553	90.9102
2.2494	91.0676
2.2435	91.2209
2.2377	91.0579
2.232	90.9055
2.2262	91.0616
2.2205	90.8829
2.2148	91.1962
2.2091	90.9417
2.2035	90.9605
2.1979	90.9933
2.1923	90.8044
2.1868	90.9517
2.1812	91.0321
2.1758	90.9837
2.1703	90.8729
2.1649	90.902
2.1595	90.7567
2.1541	90.8655
2.1487	90.7881
2.1434	90.8839
2.1381	91.0396
2.1328	91.1288
2.1275	90.7319
2.1223	91.0203
2.1171	90.8117
2.112	90.939
2.1068	91.036
2.1017	91.0026
2.0966	90.9939
2.0915	90.7026
2.0865	90.8816
2.0814	90.8013
2.0764	90.9073
2.0715	90.8
2.0665	90.8517
2.0616	91.1399
2.0567	90.7236
2.0518	91.0563
2.0469	90.9108
2.0421	90.8944
2.0373	90.8807
2.0325	91.0478
2.0277	91.1727
2.0229	90.7913
2.0182	90.759
2.0135	90.967
2.0088	91.0276
2.0042	91.0552
