Name: Flat Black Paint
Type: Manmade
Class: General Construction Material
Subclass: Paint
Particle Size: Solid
Sample No.: 1949
Owner: JPL
Wavelength Range: TIR
Origin: The Testor Corp., 620 Buckbee St., Rockford, IL 61104
Description: Flat black custom (FS37038) spray enamel paintCollected by JPL Original ASTER Spectral Library name was jpl.nicolet.manmade.construction.paint.solid.1949.spectrum.txt
Measurement: Hemispherical reflectance
X Units: Wavelength (micrometers)
Y Units: Reflectance (percent)
wavelength	value
14.0131	7.1686
13.7895	7.6772
13.5729	7.1259
13.363	7.0838
13.1595	8.2553
12.9621	8.0889
12.7705	6.6698
12.5845	7.1006
12.4039	7.5308
12.2284	6.8993
12.0578	7.975
11.8918	8.2316
11.7304	8.5073
11.5733	8.3841
11.4203	8.2731
11.2714	7.8434
11.1263	7.9335
10.9848	8.0407
10.8469	7.9696
10.7125	7.9325
10.5813	7.8503
10.4533	7.9027
10.3284	8.1138
10.2064	8.5436
10.0872	9.3474
9.9708	10.2281
9.8571	10.7068
9.7459	8.5753
9.6372	6.45
9.5309	5.7784
9.427	5.758
9.3252	5.7427
9.2257	5.7776
9.1282	6.1543
9.0328	6.4543
8.9394	6.2552
8.8478	5.9508
8.7582	5.8151
8.6703	6.2039
8.5842	6.0267
8.4997	5.9237
8.4169	5.8369
8.3357	6.0384
8.2561	5.9997
8.178	6.1409
8.1013	6.2854
8.0261	6.4853
7.9522	6.2304
7.8797	5.9691
7.8085	5.8019
7.7386	5.0508
7.6699	5.0284
7.6024	5.1745
7.5361	5.5612
7.4709	5.6907
7.4069	5.84
7.344	5.8718
7.2821	5.8527
7.2212	5.7448
7.1614	5.8597
7.1025	5.9532
7.0446	6.095
6.9877	6.0327
6.9316	5.9493
6.8764	5.7217
6.8221	5.5315
6.7687	5.7058
6.7161	5.7483
6.6643	6.0127
6.6133	5.7633
6.5631	6.1552
6.5136	6.2806
6.4649	6.3579
6.4169	6.4567
6.3696	6.3498
6.323	6.1152
6.277	6.2467
6.2318	5.9751
6.1871	6.2791
6.1432	6.3607
6.0998	6.2777
6.0571	6.3962
6.0149	6.3767
5.9733	6.4563
5.9323	6.5076
5.8919	6.4599
5.852	6.6274
5.8126	6.531
5.7738	6.0193
5.7354	4.8481
5.6976	4.7593
5.6603	5.3995
5.6235	5.6662
5.5871	5.8741
5.5512	5.8049
5.5158	5.9249
5.4808	5.8995
5.4463	6.0338
5.4121	5.9504
5.3785	6.0472
5.3452	5.9966
5.3123	6.074
5.2799	5.9857
5.2478	6.1009
5.2161	6.0277
5.1848	6.1175
5.1539	6.0419
5.1234	6.0932
5.0932	6.1221
5.0633	6.0056
5.0338	5.9976
5.0047	6.1525
4.9759	6.1167
4.9474	6.1524
4.9192	6.1005
4.8914	6.1286
4.8638	6.146
4.8366	6.1194
4.8097	6.0862
4.7831	6.0176
4.7567	6.1068
4.7307	6.0839
4.7049	6.1121
4.6795	6.189
4.6543	6.0761
4.6293	6.0648
4.6047	6.1503
4.5802	6.1221
4.5561	6.1081
4.5322	6.1017
4.5085	6.0563
4.4851	6.0599
4.462	6.0856
4.4391	6.1489
4.4164	6.0793
4.3939	6.0976
4.3717	5.9225
4.3497	6.0951
4.3279	6.1369
4.3063	6.0147
4.285	6.0717
4.2638	5.9886
4.2429	6.0828
4.2222	6.1126
4.2016	6.0086
4.1813	5.9819
4.1612	6.078
4.1412	5.9477
4.1215	6.0088
4.1019	5.9967
4.0826	5.9879
4.0633	6.0581
4.0443	6.0851
4.0255	6.0562
4.0068	6.075
3.9883	5.9737
3.97	5.9711
3.9519	6.0022
3.9339	5.9869
3.916	6.0583
3.8984	5.9439
3.8809	6.0713
3.8635	5.997
3.8463	6.0091
3.8293	5.9651
3.8124	6.0314
3.7956	6.105
3.779	5.9624
3.7626	6.0397
3.7463	6.005
3.7301	5.9697
3.7141	5.974
3.6982	5.9709
3.6824	6.0414
3.6668	6.1013
3.6513	6.0085
3.6359	6.0545
3.6207	5.8258
3.6056	6.0808
3.5906	6.1029
3.5758	6.1627
3.561	6.1061
3.5464	6.0988
3.5319	6.2595
3.5175	6.2251
3.5033	5.9781
3.4891	5.8347
3.4751	5.889
3.4612	6.0228
3.4474	5.9998
3.4337	6.11
3.4201	5.8493
3.4066	5.4529
3.3932	5.4957
3.3799	5.528
3.3668	5.5282
3.3537	5.5903
3.3407	5.5453
3.3279	5.6887
3.3151	5.6409
3.3024	5.6083
3.2899	5.6837
3.2774	5.6354
3.265	5.7221
3.2527	5.6597
3.2405	5.7378
3.2284	5.7229
3.2164	5.682
3.2045	5.8313
3.1926	5.8498
3.1809	5.794
3.1692	5.8354
3.1576	5.7241
3.1461	5.7886
3.1347	5.9039
3.1234	5.9594
3.1121	5.8802
3.101	5.8075
3.0899	5.8931
3.0789	5.8255
3.068	5.8161
3.0571	5.8951
3.0463	5.7829
3.0356	5.7878
3.025	5.7682
3.0144	5.9931
3.004	5.7592
2.9935	6.0408
2.9832	5.6624
2.9729	5.6448
2.9628	5.9607
2.9526	5.7368
2.9426	5.8556
2.9326	5.6776
2.9227	5.759
2.9128	5.8564
2.903	5.8112
2.8933	5.7507
2.8837	5.7279
2.8741	5.7266
2.8645	5.7976
2.8551	5.8133
2.8457	5.7567
2.8363	5.4494
2.8271	5.6289
2.8178	5.8779
2.8087	5.7641
2.7996	5.8371
2.7906	5.7546
2.7816	5.895
2.7726	5.743
2.7638	5.6612
2.755	5.6276
2.7462	5.5925
2.7375	5.8199
2.7289	5.6136
2.7203	5.7046
2.7117	5.8586
2.7033	5.8827
2.6948	5.7313
2.6864	5.7072
2.6781	5.5238
2.6698	5.8657
2.6616	5.7458
2.6534	5.8012
2.6453	5.8114
2.6372	5.5854
2.6292	5.4986
2.6212	5.7609
2.6133	5.8607
2.6054	5.7453
2.5976	5.7144
2.5898	5.7721
2.5821	5.6641
2.5744	5.7762
2.5667	5.759
2.5591	5.7733
2.5516	5.6572
2.5441	5.7467
2.5366	5.6922
2.5292	5.7329
2.5218	5.6472
2.5145	5.8981
2.5072	5.812
2.4999	5.6271
2.4927	5.8383
2.4855	5.9314
2.4784	5.7268
2.4713	5.6289
2.4643	5.698
2.4573	5.7277
2.4503	5.592
2.4434	5.7434
2.4365	5.5385
2.4296	5.8847
2.4228	5.6017
2.416	5.8501
2.4093	5.7093
2.4026	5.6313
2.396	5.6554
2.3893	5.809
2.3827	5.9021
2.3762	5.6806
2.3697	5.796
2.3632	5.6596
2.3567	5.6314
2.3503	5.6293
2.344	5.6767
2.3376	5.6218
2.3313	5.729
2.325	5.7829
2.3188	5.7069
2.3126	5.9014
2.3064	5.5439
2.3003	5.7791
2.2942	5.4929
2.2881	5.7177
2.2821	5.5464
2.2761	5.9001
2.2701	5.7442
2.2641	5.5918
2.2582	5.6386
2.2523	5.8032
2.2465	5.8097
2.2406	5.7733
2.2348	5.6995
2.2291	5.6583
2.2233	5.7228
2.2176	5.7454
2.212	6.0632
2.2063	5.4435
2.2007	5.7412
2.1951	5.8028
2.1895	5.7859
2.184	5.5468
2.1785	5.9369
2.173	5.7523
2.1676	5.854
2.1622	5.7056
2.1568	5.9183
2.1514	5.7168
2.146	5.8378
2.1407	5.6321
2.1354	5.7072
2.1302	5.7745
2.1249	5.7149
2.1197	5.6171
2.1145	5.9572
2.1094	5.8139
2.1042	5.6837
2.0991	5.6454
2.094	5.331
2.089	5.6458
2.0839	5.6055
2.0789	5.7022
2.0739	5.3641
2.069	5.3479
2.064	5.6673
2.0591	5.9201
2.0542	5.7882
2.0493	5.8487
2.0445	5.8577
2.0397	5.5933
2.0349	5.8714
2.0301	5.5282
2.0253	5.4437
2.0206	5.637
2.0159	5.5688
2.0112	5.7619
2.0065	5.3669
2.0019	5.7083
