Name: Galvanized Steel Metal
Type: manmade
Class: Roofing Material
Subclass: Metal
Particle Size: Solid
Sample No.: 0525UUUSTLb
Owner: National Photographic Interpretation Center
Wavelength Range: All
Origin: Spectra obtained from the Noncoventional Exploitation FactorsData System of the National Photographic Interpretation Center.
Description: Galvanized steel from roof and vent covers. Sample was weathered. Original ASTER Spectral Library name was jhu.becknic.manmade.roofing.metal.solid.0525uuub.spectrum.txt
Measurement: Directional (10 Degree) Hemispherical Reflectance
X Units: Wavelength (micrometers)
Y Units: Reflectance (percent)
wavelength	value
0.3	19.65
0.304	19.93
0.308	20.17
0.312	20.38
0.316	20.59
0.32	20.85
0.324	21.03
0.328	21.22
0.332	21.42
0.336	21.64
0.34	21.92
0.344	22.26
0.348	22.68
0.352	23.2
0.356	23.82
0.36	24.52
0.364	25.27
0.368	25.99
0.372	26.6
0.376	27.06
0.38	27.41
0.384	27.64
0.388	27.85
0.392	28.04
0.396	28.21
0.4	28.37
0.404	28.52
0.408	28.65
0.412	28.79
0.416	28.9
0.42	29.03
0.424	29.13
0.428	29.24
0.432	29.35
0.436	29.45
0.44	29.54
0.444	29.62
0.448	29.7
0.452	29.78
0.456	29.86
0.46	29.92
0.464	29.99
0.468	30.04
0.472	30.09
0.476	30.14
0.48	30.18
0.484	30.21
0.488	30.25
0.492	30.28
0.496	30.33
0.5	30.37
0.504	30.39
0.508	30.41
0.512	30.42
0.516	30.43
0.52	30.44
0.524	30.43
0.528	30.42
0.532	30.41
0.536	30.38
0.54	30.35
0.544	30.31
0.548	30.28
0.552	30.23
0.556	30.16
0.56	30.1
0.564	30.02
0.568	29.93
0.572	29.84
0.576	29.73
0.58	29.62
0.584	29.51
0.588	29.4
0.592	29.29
0.596	29.18
0.6	29.07
0.604	28.96
0.608	28.85
0.612	28.75
0.616	28.65
0.62	28.56
0.624	28.46
0.628	28.38
0.632	28.28
0.636	28.2
0.64	28.13
0.644	28.04
0.648	27.97
0.652	27.89
0.656	27.82
0.66	27.75
0.664	27.68
0.668	27.61
0.672	27.54
0.676	27.48
0.68	27.41
0.684	27.33
0.688	27.26
0.692	27.19
0.696	27.12
0.7	27.06
0.704	27
0.708	26.92
0.712	26.85
0.716	26.78
0.72	26.71
0.724	26.64
0.728	26.57
0.732	26.49
0.736	26.42
0.74	26.35
0.744	26.27
0.748	26.19
0.752	26.11
0.756	26.02
0.76	25.94
0.764	25.85
0.768	25.76
0.772	25.67
0.776	25.58
0.78	25.49
0.784	25.4
0.788	25.29
0.792	25.19
0.796	25.09
0.8	24.99
0.84	23.95
0.88	22.86
0.92	21.44
0.96	19.63
1	18.21
1.04	18.52
1.08	21.66
1.12	26.09
1.16	30.04
1.2	33.19
1.24	35.63
1.28	37.62
1.32	39.34
1.36	40.88
1.4	42.38
1.44	43.92
1.48	45.42
1.52	46.73
1.56	47.98
1.6	49.08
1.64	50.1
1.68	51.02
1.72	51.98
1.76	52.58
1.8	53.2
1.84	53.62
1.88	54.26
1.92	54.33
1.96	54.51
2	55.47
2.04	56.24
2.08	56.8
2.12	57.51
2.16	57.61
2.2	57.68
2.24	57.67
2.28	56.3768
2.32	56.4222
2.36	56.5784
2.4	57.2618
2.44	57.183
2.48	57.1484
2.52	57.0762
2.56	57.1268
2.6	57.237
2.64	57.0612
2.68	56.5572
2.72	53.9878
2.76	38.5216
2.8	30.9986
2.84	26.0982
2.88	22.8782
2.92	19.9394
2.96	18.0038
3	17.7036
3.04	18.5308
3.08	19.9942
3.12	22.195
3.16	24.9254
3.2	27.2232
3.24	29.3716
3.28	31.5206
3.32	33.8526
3.36	35.9168
3.4	38.2884
3.44	39.6212
3.48	42.215
3.52	44.0576
3.56	45.9476
3.6	47.4496
3.64	48.5502
3.68	49.9916
3.72	51.0892
3.76	51.8812
3.8	52.5282
3.84	52.953
3.88	53.4338
3.92	53.9922
3.96	54.252
4	54.4766
4.04	54.6034
4.08	54.61
4.12	54.7938
4.16	54.8194
4.2	54.7708
4.24	54.603
4.28	54.6406
4.32	54.5202
4.36	54.5412
4.4	54.6184
4.44	54.6196
4.48	54.4544
4.52	54.1562
4.56	53.9808
4.6	53.7752
4.64	53.5854
4.68	53.4442
4.72	53.3632
4.76	53.3868
4.8	53.3814
4.84	53.4174
4.88	53.7194
4.92	53.9866
4.96	54.0722
5	54.2188
5.2	55.5519
5.4	55.6552
5.6	55.0011
5.8	53.391
6	45.0067
6.2	41.7543
6.4	46.4419
6.6	52.1932
6.8	50.2204
7	47.7547
7.2	51.94
7.4	54.2107
7.6	52.2487
7.8	56.4373
8	57.6851
8.2	51.9028
8.4	39.8574
8.6	30.9756
8.8	27.0533
9	23.8204
9.2	30.3423
9.4	30.3807
9.6	31.6101
9.8	32.6799
10	33.7296
10.2	34.6266
10.4	35.2878
10.6	38.5303
10.8	41.6298
11	42.7548
11.2	43.628
11.4	44.192
11.6	44.3592
11.8	44.4446
12	44.1097
12.2	43.5428
12.4	43.7329
