Name: Black gloss paint
Type: manmade
Class: General Construction Material
Subclass: Paint
Particle Size: Solid
Sample No.: 0402UUUPNT
Owner: National Photographic Interpretation Center
Wavelength Range: All
Origin: Spectra obtained from the Noncoventional Exploitation FactorsData System of the National Photographic Interpretation Center.
Description: A single, slightly translucent coat of alkyd gloss paint on an aluminum surface. Painted surface was smooth and glossy. Black gloss paint is from the Great Life series, by Martin Senour Paints. The paint is non-photochemically reactive. Original ASTER Spectral Library name was jhu.becknic.manmade.construction.paint.solid.0402uuu.spectrum.txt
Measurement: Directional (10 Degree) Hemispherical Reflectance
X Units: Wavelength (micrometers)
Y Units: Reflectance (percent)
wavelength	value
0.42	2.8167
0.424	3.9057
0.428	3.8497
0.432	3.8502
0.436	3.9207
0.44	3.8697
0.444	3.8385
0.448	3.8319
0.452	3.8073
0.456	3.8156
0.46	3.8031
0.464	3.7844
0.468	3.8007
0.472	3.7985
0.476	3.8031
0.48	3.8075
0.484	3.8234
0.488	3.8159
0.492	3.8167
0.496	3.8257
0.5	3.8246
0.504	3.8291
0.508	3.8244
0.512	3.822
0.516	3.8141
0.52	3.8146
0.524	3.8101
0.528	3.8187
0.532	3.8305
0.536	3.8414
0.54	3.8318
0.544	3.8103
0.548	3.7867
0.552	3.7858
0.556	3.799
0.56	3.8153
0.564	3.7584
0.568	3.7981
0.572	3.7547
0.576	3.8022
0.58	3.7716
0.584	3.7325
0.588	3.7076
0.592	3.7206
0.596	3.6943
0.6	3.7058
0.604	3.6127
0.608	3.6438
0.612	3.6167
0.616	3.611
0.62	3.5896
0.624	3.6034
0.628	3.6136
0.632	3.6205
0.636	3.5848
0.64	3.6026
0.644	3.604
0.648	3.6178
0.652	3.6249
0.656	3.6557
0.66	3.598
0.664	3.6385
0.668	3.6182
0.672	3.6116
0.676	3.6315
0.68	3.6392
0.684	3.6574
0.688	3.6487
0.692	3.6306
0.696	3.6449
0.7	3.6489
0.704	3.6483
0.708	3.6352
0.712	3.6489
0.716	3.6686
0.72	3.6495
0.724	3.6595
0.728	3.6658
0.732	3.6667
0.736	3.6601
0.74	3.6658
0.744	3.6664
0.748	3.6685
0.752	3.6742
0.756	3.6735
0.76	3.6802
0.764	3.6807
0.768	3.6685
0.772	3.6747
0.776	3.6688
0.78	3.6779
0.784	3.6784
0.788	3.6845
0.792	3.6834
0.796	3.6824
0.8	3.6849
0.84	3.7135
0.88	3.7594
0.92	3.7983
0.96	3.8322
1	3.845
1.04	3.8535
1.08	3.8777
1.12	3.9091
1.16	3.9543
1.2	3.9915
1.24	4.0622
1.28	3.9954
1.32	4.0548
1.36	4.2371
1.4	4.1806
1.44	4.2072
1.48	4.2846
1.52	4.2883
1.56	4.3482
1.6	4.3736
1.64	4.4313
1.68	4.4259
1.72	4.4579
1.76	4.4784
1.8	4.53
1.84	4.7196
1.88	4.6753
1.92	4.7244
1.96	4.7012
2	4.7582
2.04	4.8391
2.08	4.8772
2.12	4.968
2.16	5.0577
2.2	5.0823
2.24	5.108
2.28	5.0879
2.32	5.1033
2.36	5.1552
2.4	5.3559
2.44	5.3964
2.48	5.3645
2.52	5.4283
2.56	5.5143
2.6	5.5377
2.64	5.6482
2.68	5.6201
2.72	5.5116
2.76	5.311
2.8	4.9367
2.84	4.4809
2.88	4.3718
2.92	4.4783
2.96	4.6309
3	4.6961
3.04	4.7512
3.08	4.8567
3.12	4.9148
3.16	4.9905
3.2	5.0036
3.24	4.9873
3.28	4.9246
3.32	4.816
3.36	4.0354
3.4	3.7899
3.44	4.4532
3.48	4.3443
3.52	4.9792
3.56	5.6816
3.6	5.9426
3.64	6.008
3.68	6.1034
3.72	6.1343
3.76	6.2897
3.8	6.3014
3.84	6.3453
3.88	6.4722
3.92	6.5313
3.96	6.6131
4	6.8105
4.04	6.9408
4.08	6.9881
4.12	7.0649
4.16	7.1614
4.2	7.1888
4.24	7.3055
4.28	7.3491
4.32	7.4245
4.36	7.5044
4.4	7.5964
4.44	7.6153
4.48	7.6985
4.52	7.7257
4.56	7.7959
4.6	7.8121
4.64	7.8008
4.68	7.8696
4.72	7.9117
4.76	7.9186
4.8	8.0079
4.84	8.0473
4.88	8.0467
4.92	8.0213
4.96	8.0318
5	7.9848
5.2	8.1782
5.4	7.9213
5.6	5.3472
5.8	5.3219
6	5.7158
6.2	6.1772
6.4	7.0572
6.6	7.5284
6.8	4.066
7	4.7687
7.2	4.2523
7.4	4.417
7.6	3.5325
7.8	3.9226
8	4.9389
8.2	4.5663
8.4	4.2408
8.6	4.462
8.8	4.6629
9	5.4758
9.2	5.6659
9.4	6.8561
9.6	6.4455
9.8	6.4663
10	6.6562
10.2	6.8176
10.4	7.5286
10.6	8.1705
10.8	8.0028
11	8.4977
11.2	8.6882
11.4	8.7638
11.6	9.9454
11.8	10.2824
12	10.8112
12.2	10.3585
12.4	7.2177
12.6	6.3774
12.8	6.4337
13	8.464
13.2	9.2516
13.4	6.6252
13.6	8.6045
13.8	10.3034
14	10.815
