Name: Brass plate
Type: Manmade
Class: Reflectance target
Subclass: None
Particle Size: Solid
Sample No.: ILF-17464-2-2-bc
Owner: JPL
Wavelength Range: TIR
Origin: Labsphere, P.O. Box 70, Shaker Street, North Sutton, NH 03260(603) 927-4266
Description: Measurement made at bottom center. Field Brass 1.Measured Oct. 29 1997. Original ASTER Spectral Library name was jpl.nicolet.manmade.target.none.solid.bp11097j.spectrum.txt
Measurement: Hemispherical Reflectance
X Units: Wavelength (micrometers)
Y Units: Reflectence (percent)
wavelength	value
15.3853	84.5717
15.1161	84.6663
14.8563	84.5233
14.6052	84.5626
14.3624	84.4428
14.1276	84.3179
13.9004	84.3109
13.6803	84.4166
13.4671	84.5619
13.2604	84.529
13.06	84.2816
12.8656	83.9489
12.6769	83.9831
12.4936	83.923
12.3155	84.3359
12.1425	84.5187
11.9742	84.5194
11.8106	84.2952
11.6513	84.3546
11.4963	83.372
11.3454	83.6584
11.1983	83.8556
11.0551	83.6016
10.9154	83.3026
10.7793	83.2192
10.6465	83.0322
10.5169	82.7108
10.3904	82.3636
10.267	82.1389
10.1464	81.8666
10.0287	81.7522
9.9136	81.6509
9.8012	81.5684
9.6913	81.6945
9.5838	81.7808
9.4787	81.7519
9.3758	82.0608
9.2752	82.4082
9.1767	82.5095
9.0803	82.6433
8.9858	83.0026
8.8934	83.0765
8.8028	83.0862
8.714	83.1061
8.627	83.3418
8.5417	83.6175
8.4581	83.7952
8.3761	84.1459
8.2957	84.3288
8.2169	84.6025
8.1395	84.7514
8.0635	84.8986
7.989	84.9923
7.9158	85.3884
7.8439	85.7916
7.7734	86.0334
7.7041	86.0923
7.636	86.0947
7.5691	86.1538
7.5034	86.0766
7.4388	85.9422
7.3753	85.6694
7.3129	85.3965
7.2515	85.182
7.1912	84.9852
7.1318	85.0206
7.0734	84.9683
7.016	85.1091
6.9595	85.3257
6.9039	85.0942
6.8492	85.1444
6.7953	85.3352
6.7423	85.1577
6.6901	85.4609
6.6387	86.3931
6.5881	86.2158
6.5382	86.0914
6.4892	87.0429
6.4408	86.5644
6.3931	86.3429
6.3462	86.6723
6.2999	86.0591
6.2543	85.9901
6.2094	86.0236
6.1651	85.9614
6.1214	86.2674
6.0784	86.6056
6.0359	86.6303
5.994	86.8529
5.9527	86.6476
5.912	86.6919
5.8718	87.0506
5.8322	86.947
5.7931	86.8022
5.7545	86.9871
5.7165	87.212
5.6789	87.1248
5.6418	87.3799
5.6052	86.9761
5.5691	86.5027
5.5334	87.0179
5.4982	86.9818
5.4635	87.1969
5.4291	87.2263
5.3952	87.0771
5.3618	87.0618
5.3287	87.0822
5.2961	87.1015
5.2638	87.2541
5.2319	87.2608
5.2004	87.3758
5.1693	87.2876
5.1386	87.2795
5.1082	87.2864
5.0782	87.3241
5.0485	87.3283
5.0192	87.362
4.9902	87.3715
4.9616	87.2666
4.9332	87.4044
4.9052	87.4358
4.8776	87.4548
4.8502	87.4989
4.8231	87.4865
4.7963	87.5073
4.7699	87.4398
4.7437	87.5038
4.7178	87.4448
4.6922	87.4632
4.6668	87.4626
4.6418	87.5392
4.617	87.4534
4.5924	87.451
4.5681	87.476
4.5441	87.4976
4.5203	87.5479
4.4968	87.3809
4.4735	87.4949
4.4505	87.4688
4.4277	87.4429
4.4051	87.3961
4.3828	87.5009
4.3607	87.3676
4.3388	87.3643
4.3171	87.0896
4.2956	86.4932
4.2744	86.3311
4.2534	86.9429
4.2325	85.9133
4.2119	86.8045
4.1915	87.4144
4.1712	87.3653
4.1512	87.3697
4.1313	87.4032
4.1117	87.308
4.0922	87.3605
4.0729	87.3475
4.0538	87.314
4.0349	87.1813
4.0161	87.084
3.9976	86.8588
3.9792	86.7356
3.9609	86.6648
3.9428	86.8552
3.9249	86.9606
3.9072	86.9249
3.8896	86.9842
3.8722	87.0274
3.8549	86.9105
3.8378	87.1318
3.8208	87.0311
3.804	87.0542
3.7873	87.1298
3.7708	87.0903
3.7544	87.1245
3.7382	87.1552
3.7221	87.0998
3.7061	87.1615
3.6903	87.1225
3.6746	87.0945
3.659	87.0226
3.6436	87.0801
3.6283	87.0654
3.6131	86.9581
3.5981	87.0875
3.5832	86.896
3.5684	86.8886
3.5537	86.985
3.5391	86.7933
3.5247	86.845
3.5104	86.5576
3.4962	86.3623
3.4821	86.3646
3.4681	86.2925
3.4543	86.3154
3.4405	86.3067
3.4269	86.2091
3.4133	86.1451
3.3999	86.1764
3.3866	86.2424
3.3733	86.2475
3.3602	86.3127
3.3472	86.2659
3.3343	86.4961
3.3215	86.5652
3.3088	86.4865
3.2961	86.5079
3.2836	86.5112
3.2712	86.5005
3.2588	86.3674
3.2466	86.4414
3.2345	86.4014
3.2224	86.3903
3.2104	86.3214
3.1985	86.2939
3.1867	86.3225
3.175	86.3129
3.1634	86.2369
3.1519	86.1743
3.1404	86.2062
3.129	86.1456
3.1178	86.1997
3.1065	86.0474
3.0954	85.9999
3.0844	86.1438
3.0734	85.8078
3.0625	85.8871
3.0517	86.1365
3.041	85.9224
3.0303	85.9065
3.0197	85.8294
3.0092	85.9122
2.9987	85.8472
2.9884	85.9475
2.9781	85.752
2.9678	85.9645
2.9577	85.6684
2.9476	85.6989
2.9376	85.9255
2.9276	85.7848
2.9177	85.8081
2.9079	85.9097
2.8982	85.6858
2.8885	85.9241
2.8789	85.7647
2.8693	85.8819
2.8598	85.7426
2.8504	85.7094
2.841	85.5865
2.8317	85.7875
2.8224	85.5703
2.8133	85.7229
2.8041	85.813
2.7951	85.3963
2.786	85.5671
2.7771	85.6818
2.7682	85.6258
2.7594	85.4673
2.7506	85.4859
2.7418	85.9832
2.7332	85.8781
2.7246	86.3783
2.716	86.212
2.7075	86.3253
2.699	86.4583
2.6906	86.6818
2.6823	86.8674
2.674	86.8653
2.6657	87.3661
2.6575	86.8021
2.6494	86.7944
2.6413	86.9013
2.6332	86.9322
2.6252	86.91
2.6173	87.1607
2.6094	87.0595
2.6015	86.9648
2.5937	87.2972
2.5859	86.936
2.5782	86.9282
2.5706	86.8875
2.5629	87.1339
2.5554	86.7644
2.5478	86.8411
2.5403	86.6597
2.5329	86.7623
2.5255	86.7717
2.5181	86.6794
2.5108	86.5351
2.5035	86.6697
2.4963	86.7203
2.4891	86.6424
2.482	86.6464
2.4749	86.584
2.4678	86.6656
2.4608	86.6735
2.4538	86.4497
2.4468	86.8207
2.4399	86.5286
2.4331	86.8444
2.4262	86.7767
2.4194	86.6433
2.4127	86.5555
2.4059	86.6681
2.3993	86.5812
2.3926	86.544
2.386	86.603
2.3795	86.5841
2.3729	86.509
2.3664	86.6827
2.36	86.6464
2.3535	86.5051
2.3471	86.5835
2.3408	86.5059
2.3345	86.4764
2.3282	86.6767
2.3219	86.5633
2.3157	86.3998
2.3095	86.5761
2.3034	86.457
2.2972	86.5949
2.2911	86.3893
2.2851	86.5077
2.279	86.147
2.2731	86.3822
2.2671	86.4345
2.2612	86.4703
2.2553	86.4903
2.2494	86.4106
2.2435	86.4846
2.2377	86.5041
2.232	86.2731
2.2262	86.4759
2.2205	86.4491
2.2148	86.1445
2.2091	86.2951
2.2035	86.4559
2.1979	86.2308
2.1923	86.4526
2.1868	86.1768
2.1812	86.1779
2.1758	86.2007
2.1703	86.2177
2.1649	86.2537
2.1595	86.1897
2.1541	86.2356
2.1487	86.1618
2.1434	86.3676
2.1381	86.2314
2.1328	86.2186
2.1275	86.1894
2.1223	86.345
2.1171	86.0084
2.112	86.074
2.1068	86.1203
2.1017	86.2342
2.0966	86.0488
2.0915	86.2681
2.0865	86.0296
2.0814	86.2176
2.0764	86.044
2.0715	86.2107
2.0665	86.4489
2.0616	85.9063
2.0567	85.8742
2.0518	86.0056
2.0469	86.1086
2.0421	86.014
2.0373	86.2773
2.0325	86.1632
2.0277	85.9848
2.0229	85.9935
2.0182	86.1456
2.0135	86.0946
2.0088	86.0688
2.0042	85.8717
