Name: Flat Black Paint
Type: Manmade
Class: General Construction Material
Subclass: Paint
Particle Size: Solid
Sample No.: DM725
Owner: JPL
Wavelength Range: TIR
Origin: Design Master, P.O. Box 601, Boulder, CO 80306
Description: Flat black spray paintCollected by JPL Original ASTER Spectral Library name was jpl.nicolet.manmade.construction.paint.solid.dm725.spectrum.txt
Measurement: Hemispherical reflectance
X Units: Wavelength (micrometers)
Y Units: Reflectance (percent)
wavelength	value
14.0131	24.7156
13.7895	24.3035
13.5729	23.3714
13.363	18.713
13.1595	22.1319
12.9621	25.4337
12.7705	24.1569
12.5845	22.1783
12.4039	18.9676
12.2284	12.6604
12.0578	9.6822
11.8918	8.6438
11.7304	8.2671
11.5733	9.0626
11.4203	12.0293
11.2714	14.031
11.1263	14.2685
10.9848	14.0226
10.8469	13.5956
10.7125	14.457
10.5813	13.8309
10.4533	14.28
10.3284	13.2081
10.2064	12.1369
10.0872	10.95
9.9708	11.0641
9.8571	11.4826
9.7459	9.0772
9.6372	7.8025
9.5309	7.4607
9.427	7.1514
9.3252	6.7281
9.2257	5.9947
9.1282	6.3271
9.0328	6.6418
8.9394	6.4715
8.8478	6.7312
8.7582	6.8046
8.6703	6.0878
8.5842	5.4307
8.4997	7.2741
8.4169	7.0607
8.3357	7.5731
8.2561	8.1141
8.178	7.9073
8.1013	7.7962
8.0261	7.6829
7.9522	7.7428
7.8797	7.846
7.8085	7.0682
7.7386	4.031
7.6699	6.7775
7.6024	8.197
7.5361	8.5429
7.4709	8.7218
7.4069	8.7445
7.344	8.9037
7.2821	7.8426
7.2212	7.6447
7.1614	8.9038
7.1025	10.4263
7.0446	9.9616
6.9877	9.6339
6.9316	9.4318
6.8764	8.1508
6.8221	7.7422
6.7687	9.6707
6.7161	11.5594
6.6643	12.2269
6.6133	12.3692
6.5631	12.276
6.5136	11.853
6.4649	12.0864
6.4169	12.3078
6.3696	12.0407
6.323	11.6775
6.277	11.576
6.2318	11.2512
6.1871	10.7756
6.1432	8.8831
6.0998	7.6173
6.0571	6.7342
6.0149	5.5339
5.9733	4.3291
5.9323	7.4418
5.8919	8.9421
5.852	7.4332
5.8126	6.1591
5.7738	5.6593
5.7354	4.9627
5.6976	4.489
5.6603	7.5488
5.6235	10.168
5.5871	10.7561
5.5512	10.997
5.5158	11.1648
5.4808	11.0397
5.4463	11.1947
5.4121	11.2135
5.3785	11.1549
5.3452	11.0094
5.3123	11.0847
5.2799	11.0356
5.2478	10.8827
5.2161	10.8059
5.1848	10.7838
5.1539	10.7501
5.1234	10.6656
5.0932	10.5827
5.0633	10.528
5.0338	10.408
5.0047	10.4616
4.9759	10.2886
4.9474	10.2171
4.9192	10.1023
4.8914	10.1585
4.8638	10.0329
4.8366	10.0606
4.8097	9.9445
4.7831	9.9664
4.7567	9.7963
4.7307	9.765
4.7049	9.6977
4.6795	9.6817
4.6543	9.5895
4.6293	9.5078
4.6047	9.4881
4.5802	9.4264
4.5561	9.3921
4.5322	9.4051
4.5085	9.3228
4.4851	9.3475
4.462	9.0823
4.4391	9.2051
4.4164	9.055
4.3939	9.0975
4.3717	8.9883
4.3497	8.8856
4.3279	8.9444
4.3063	8.8735
4.285	8.8522
4.2638	8.7503
4.2429	8.8377
4.2222	8.7195
4.2016	8.6674
4.1813	8.603
4.1612	8.601
4.1412	8.5436
4.1215	8.6806
4.1019	8.4794
4.0826	8.4431
4.0633	8.4234
4.0443	8.3393
4.0255	8.243
4.0068	8.1341
3.9883	8.219
3.97	8.2201
3.9519	8.0811
3.9339	8.0692
3.916	7.8614
3.8984	8.0527
3.8809	7.9611
3.8635	7.8452
3.8463	7.9328
3.8293	7.8482
3.8124	7.6574
3.7956	7.9112
3.779	7.7055
3.7626	7.7684
3.7463	7.7324
3.7301	7.7671
3.7141	7.668
3.6982	7.6662
3.6824	7.7047
3.6668	7.5082
3.6513	7.6661
3.6359	7.5649
3.6207	7.4482
3.6056	7.5093
3.5906	7.3458
3.5758	7.5163
3.561	7.3717
3.5464	7.2129
3.5319	7.3785
3.5175	6.7715
3.5033	6.3319
3.4891	6.3279
3.4751	6.4276
3.4612	6.4222
3.4474	6.3783
3.4337	6.0907
3.4201	5.7582
3.4066	5.6392
3.3932	5.6611
3.3799	5.7473
3.3668	5.64
3.3537	5.5283
3.3407	6.0711
3.3279	6.3503
3.3151	6.5738
3.3024	6.5802
3.2899	6.7027
3.2774	6.7782
3.265	6.8096
3.2527	6.762
3.2405	6.8931
3.2284	6.6669
3.2164	6.8236
3.2045	6.8725
3.1926	6.6531
3.1809	6.6275
3.1692	6.7774
3.1576	6.7244
3.1461	6.6922
3.1347	6.7809
3.1234	6.6345
3.1121	6.6184
3.101	6.6136
3.0899	6.7318
3.0789	6.6498
3.068	6.6239
3.0571	6.6074
3.0463	6.5821
3.0356	6.5496
3.025	6.5553
3.0144	6.4407
3.004	6.43
2.9935	6.1985
2.9832	6.3417
2.9729	6.3147
2.9628	6.3495
2.9526	6.1885
2.9426	6.29
2.9326	6.2483
2.9227	6.1383
2.9128	6.1976
2.903	6.1976
2.8933	6.1483
2.8837	6.0774
2.8741	6.0588
2.8645	5.9623
2.8551	5.9243
2.8457	6.2289
2.8363	6.3121
2.8271	5.9384
2.8178	6.157
2.8087	6.2446
2.7996	6.0414
2.7906	6.1517
2.7816	6.0429
2.7726	6.0719
2.7638	6.1891
2.755	6.3102
2.7462	6.1789
2.7375	5.9939
2.7289	6.3587
2.7203	6.0647
2.7117	6.3985
2.7033	6.1336
2.6948	6.1858
2.6864	6.1764
2.6781	6.1475
2.6698	6.1615
2.6616	6.0602
2.6534	6.0828
2.6453	6.0879
2.6372	6.1067
2.6292	6.0598
2.6212	6.0282
2.6133	6.0683
2.6054	6.0158
2.5976	5.9813
2.5898	6.1904
2.5821	5.9663
2.5744	6.05
2.5667	5.9242
2.5591	5.9706
2.5516	6.2328
2.5441	6.0332
2.5366	5.9873
2.5292	5.9382
2.5218	6.03
2.5145	5.8379
2.5072	5.999
2.4999	5.8923
2.4927	5.8039
2.4855	5.8195
2.4784	5.9104
2.4713	5.9643
2.4643	6.0351
2.4573	5.876
2.4503	5.6888
2.4434	5.8847
2.4365	5.7261
2.4296	5.7401
2.4228	5.7296
2.416	5.8495
2.4093	5.9471
2.4026	5.7737
2.396	5.9169
2.3893	5.9227
2.3827	5.7898
2.3762	5.6512
2.3697	5.7778
2.3632	5.851
2.3567	5.9763
2.3503	5.8385
2.344	5.779
2.3376	5.7528
2.3313	5.6606
2.325	5.6491
2.3188	5.5438
2.3126	5.651
2.3064	5.7332
2.3003	5.6467
2.2942	5.6283
2.2881	5.4318
2.2821	5.6712
2.2761	5.649
2.2701	5.5447
2.2641	5.6854
2.2582	5.7329
2.2523	5.4859
2.2465	5.8828
2.2406	5.7348
2.2348	5.7617
2.2291	5.6301
2.2233	5.8547
2.2176	5.5731
2.212	5.6445
2.2063	5.6664
2.2007	5.7055
2.1951	5.6616
2.1895	5.7332
2.184	5.4859
2.1785	5.7511
2.173	5.9385
2.1676	5.4995
2.1622	5.5651
2.1568	5.4204
2.1514	5.5744
2.146	5.2773
2.1407	5.5857
2.1354	5.5748
2.1302	5.6428
2.1249	5.7221
2.1197	5.5477
2.1145	5.4669
2.1094	5.5683
2.1042	5.681
2.0991	5.8974
2.094	5.5077
2.089	5.3056
2.0839	5.9779
2.0789	5.3775
2.0739	5.6932
2.069	5.4597
2.064	5.7546
2.0591	5.2643
2.0542	5.4686
2.0493	5.7383
2.0445	5.5467
2.0397	5.0862
2.0349	5.3794
2.0301	5.4299
2.0253	5.6281
2.0206	5.5903
2.0159	5.6894
2.0112	5.4298
2.0065	5.5484
2.0019	5.3529
