Name: Brass plate
Type: Manmade
Class: Reflectance target
Subclass: None
Particle Size: Solid
Sample No.: ILF-17464-2-2-tl
Owner: JPL
Wavelength Range: TIR
Origin: Labsphere, P.O. Box 70, Shaker Street, North Sutton, NH 03260(603) 927-4266
Description: Measurement made at top left. Field Brass 1.Measured Oct. 29 1997. Original ASTER Spectral Library name was jpl.nicolet.manmade.target.none.solid.bp11097c.spectrum.txt
Measurement: Hemispherical Reflectance
X Units: Wavelength (micrometers)
Y Units: Reflectence (percent)
wavelength	value
15.3853	87.7272
15.1161	87.7687
14.8563	87.7979
14.6052	87.7108
14.3624	87.6412
14.1276	87.4639
13.9004	87.6008
13.6803	87.6755
13.4671	87.748
13.2604	87.6195
13.06	87.5539
12.8656	87.261
12.6769	87.3295
12.4936	87.1066
12.3155	87.5082
12.1425	87.7088
11.9742	87.8324
11.8106	87.5589
11.6513	87.5445
11.4963	86.7401
11.3454	86.9524
11.1983	87.1969
11.0551	86.9478
10.9154	86.6612
10.7793	86.6275
10.6465	86.3947
10.5169	86.1745
10.3904	85.8075
10.267	85.4939
10.1464	85.3811
10.0287	85.1934
9.9136	84.9393
9.8012	84.8048
9.6913	84.95
9.5838	85.0121
9.4787	85.0461
9.3758	85.213
9.2752	85.4866
9.1767	85.7145
9.0803	85.8971
8.9858	86.0873
8.8934	86.211
8.8028	86.061
8.714	86.1277
8.627	86.3778
8.5417	86.5692
8.4581	86.8193
8.3761	87.2362
8.2957	87.275
8.2169	87.6275
8.1395	87.7205
8.0635	87.9286
7.989	87.9208
7.9158	88.3952
7.8439	88.7019
7.7734	88.8895
7.7041	88.9429
7.636	88.942
7.5691	88.9996
7.5034	88.9386
7.4388	88.7817
7.3753	88.5046
7.3129	88.2156
7.2515	87.9538
7.1912	87.8617
7.1318	87.7899
7.0734	87.8415
7.016	87.8625
6.9595	88.1341
6.9039	87.9719
6.8492	88.0077
6.7953	88.1449
6.7423	88.1471
6.6901	88.3414
6.6387	88.9773
6.5881	88.9467
6.5382	88.9492
6.4892	89.5186
6.4408	89.2384
6.3931	89.1492
6.3462	89.3584
6.2999	88.9449
6.2543	88.8817
6.2094	88.8242
6.1651	88.7769
6.1214	89.048
6.0784	89.2909
6.0359	89.3246
5.994	89.5974
5.9527	89.4401
5.912	89.4957
5.8718	89.6211
5.8322	89.6681
5.7931	89.6437
5.7545	89.8026
5.7165	89.8714
5.6789	89.8245
5.6418	90.0195
5.6052	89.7592
5.5691	89.3675
5.5334	89.8126
5.4982	89.8222
5.4635	89.9768
5.4291	89.9252
5.3952	89.8547
5.3618	89.8765
5.3287	89.834
5.2961	89.9156
5.2638	89.8938
5.2319	90.0514
5.2004	90.0846
5.1693	90.0256
5.1386	90.0293
5.1082	90.082
5.0782	89.9651
5.0485	90.0339
5.0192	90.0769
4.9902	90.0915
4.9616	90.1379
4.9332	90.0311
4.9052	90.165
4.8776	90.1661
4.8502	90.1526
4.8231	90.1635
4.7963	90.1401
4.7699	90.1424
4.7437	90.1274
4.7178	90.1339
4.6922	90.0962
4.6668	90.1549
4.6418	90.154
4.617	90.0653
4.5924	90.0717
4.5681	90.1677
4.5441	90.1619
4.5203	90.0822
4.4968	90.0667
4.4735	90.1564
4.4505	90.1336
4.4277	90.0354
4.4051	90.027
4.3828	90.1492
4.3607	90.1483
4.3388	90.0875
4.3171	89.9467
4.2956	89.6559
4.2744	89.498
4.2534	89.8316
4.2325	89.284
4.2119	89.8049
4.1915	90.1089
4.1712	89.9573
4.1512	90.0715
4.1313	90.0502
4.1117	90.0649
4.0922	89.9546
4.0729	89.9876
4.0538	89.9207
4.0349	89.931
4.0161	89.7475
3.9976	89.6907
3.9792	89.5146
3.9609	89.4749
3.9428	89.6111
3.9249	89.6558
3.9072	89.7257
3.8896	89.7625
3.8722	89.8015
3.8549	89.7527
3.8378	89.8339
3.8208	89.7541
3.804	89.8647
3.7873	89.8132
3.7708	89.8789
3.7544	89.7916
3.7382	89.8096
3.7221	89.7768
3.7061	89.8201
3.6903	89.8443
3.6746	89.7996
3.659	89.7597
3.6436	89.7696
3.6283	89.8175
3.6131	89.6922
3.5981	89.7395
3.5832	89.7429
3.5684	89.6199
3.5537	89.7186
3.5391	89.5234
3.5247	89.5857
3.5104	89.3677
3.4962	89.2759
3.4821	89.3076
3.4681	89.257
3.4543	89.3051
3.4405	89.175
3.4269	89.0821
3.4133	89.0822
3.3999	88.9946
3.3866	89.0876
3.3733	89.1516
3.3602	89.2145
3.3472	89.1719
3.3343	89.3163
3.3215	89.4779
3.3088	89.3076
3.2961	89.3899
3.2836	89.4021
3.2712	89.4109
3.2588	89.39
3.2466	89.2355
3.2345	89.2468
3.2224	89.3116
3.2104	89.1307
3.1985	89.2738
3.1867	89.2107
3.175	89.1972
3.1634	89.1043
3.1519	89.0835
3.1404	89.094
3.129	89.0132
3.1178	89.0861
3.1065	88.8801
3.0954	88.9766
3.0844	88.8933
3.0734	88.8392
3.0625	88.7706
3.0517	88.9901
3.041	88.8238
3.0303	88.8705
3.0197	88.8085
3.0092	88.934
2.9987	88.7805
2.9884	88.8689
2.9781	88.7428
2.9678	88.9543
2.9577	88.7317
2.9476	88.6775
2.9376	88.7942
2.9276	88.739
2.9177	88.8074
2.9079	88.7902
2.8982	88.7565
2.8885	88.9087
2.8789	88.7475
2.8693	88.8449
2.8598	88.7826
2.8504	88.6946
2.841	88.7135
2.8317	88.9124
2.8224	88.7084
2.8133	88.8263
2.8041	88.8082
2.7951	88.5184
2.786	88.31
2.7771	88.8548
2.7682	88.4945
2.7594	88.5931
2.7506	88.6914
2.7418	89.0279
2.7332	88.8828
2.7246	89.2535
2.716	89.1559
2.7075	89.2434
2.699	89.5174
2.6906	89.4957
2.6823	89.8208
2.674	89.8176
2.6657	90.0353
2.6575	89.6743
2.6494	89.7868
2.6413	89.8036
2.6332	89.5885
2.6252	89.6856
2.6173	89.9545
2.6094	89.6515
2.6015	89.8017
2.5937	90.1344
2.5859	89.8204
2.5782	89.903
2.5706	89.8133
2.5629	89.9151
2.5554	89.654
2.5478	89.7692
2.5403	89.6072
2.5329	89.7932
2.5255	89.7589
2.5181	89.6571
2.5108	89.5596
2.5035	89.5866
2.4963	89.7449
2.4891	89.5925
2.482	89.6253
2.4749	89.6172
2.4678	89.6724
2.4608	89.6638
2.4538	89.5348
2.4468	89.5665
2.4399	89.6504
2.4331	89.8296
2.4262	89.5516
2.4194	89.8834
2.4127	89.503
2.4059	89.7397
2.3993	89.5635
2.3926	89.5498
2.386	89.7492
2.3795	89.688
2.3729	89.6405
2.3664	89.5555
2.36	89.5021
2.3535	89.3766
2.3471	89.423
2.3408	89.7007
2.3345	89.5235
2.3282	89.4069
2.3219	89.6396
2.3157	89.3943
2.3095	89.6085
2.3034	89.5028
2.2972	89.5109
2.2911	89.5643
2.2851	89.4354
2.279	89.2447
2.2731	89.4709
2.2671	89.2976
2.2612	89.5539
2.2553	89.5303
2.2494	89.4066
2.2435	89.4478
2.2377	89.4013
2.232	89.31
2.2262	89.5497
2.2205	89.5721
2.2148	89.3661
2.2091	89.4662
2.2035	89.3228
2.1979	89.0242
2.1923	89.386
2.1868	89.1622
2.1812	89.5035
2.1758	89.3877
2.1703	89.2059
2.1649	89.3118
2.1595	89.2456
2.1541	89.3434
2.1487	89.3258
2.1434	89.3716
2.1381	89.0641
2.1328	89.2959
2.1275	89.272
2.1223	89.5948
2.1171	89.1548
2.112	89.3986
2.1068	89.1911
2.1017	89.1609
2.0966	89.1338
2.0915	89.3353
2.0865	89.2878
2.0814	89.1612
2.0764	89.4311
2.0715	89.3365
2.0665	89.3831
2.0616	89.3892
2.0567	89.1747
2.0518	89.3789
2.0469	89.0869
2.0421	89.0779
2.0373	89.1126
2.0325	88.9367
2.0277	89.1933
2.0229	88.9035
2.0182	89.1749
2.0135	89.3714
2.0088	89.0839
2.0042	88.9803
