Name: Oxidized Galvanized Steel Metal
Type: manmade
Class: Roofing Material
Subclass: Metal
Particle Size: Solid
Sample No.: 0526UUUSTLa
Owner: National Photographic Interpretation Center
Wavelength Range: All
Origin: Spectra obtained from the Noncoventional Exploitation FactorsData System of the National Photographic Interpretation Center.
Description: Weathered, galvanized bare steel from roof and vent covers. Sample was completely oxidized. Original ASTER Spectral Library name was jhu.becknic.manmade.roofing.metal.solid.0526uuu.spectrum.txt
Measurement: Directional (10 Degree) Hemispherical Reflectance
X Units: Wavelength (micrometers)
Y Units: Reflectance (percent)
wavelength	value
0.3	25.35
0.304	25.8
0.308	26.2
0.312	26.57
0.316	26.88
0.32	27.02
0.324	27.23
0.328	27.4
0.332	27.54
0.336	27.62
0.34	27.68
0.344	27.73
0.348	27.78
0.352	27.84
0.356	27.92
0.36	28.03
0.364	28.19
0.368	28.37
0.372	28.61
0.376	28.86
0.38	28.97
0.384	29.03
0.388	29.05
0.392	29.02
0.396	28.99
0.4	28.96
0.404	28.91
0.408	28.86
0.412	28.8
0.416	28.74
0.42	28.7
0.424	28.63
0.428	28.57
0.432	28.52
0.436	28.46
0.44	28.39
0.444	28.31
0.448	28.23
0.452	28.16
0.456	28.1
0.46	28.07
0.464	28.01
0.468	27.94
0.472	27.86
0.476	27.79
0.48	27.69
0.484	27.56
0.488	27.44
0.492	27.36
0.496	27.35
0.5	27.35
0.504	27.3
0.508	27.22
0.512	27.13
0.516	27.03
0.52	26.95
0.524	26.86
0.528	26.77
0.532	26.68
0.536	26.59
0.54	26.49
0.544	26.4
0.548	26.3
0.552	26.21
0.556	26.1
0.56	26
0.564	25.88
0.568	25.77
0.572	25.65
0.576	25.54
0.58	25.41
0.584	25.29
0.588	25.17
0.592	25.05
0.596	24.93
0.6	24.8
0.604	24.68
0.608	24.56
0.612	24.44
0.616	24.33
0.62	24.21
0.624	24.1
0.628	23.99
0.632	23.88
0.636	23.78
0.64	23.67
0.644	23.56
0.648	23.46
0.652	23.36
0.656	23.26
0.66	23.17
0.664	23.07
0.668	22.97
0.672	22.88
0.676	22.78
0.68	22.69
0.684	22.58
0.688	22.49
0.692	22.4
0.696	22.3
0.7	22.21
0.704	22.13
0.708	22.03
0.712	21.94
0.716	21.85
0.72	21.75
0.724	21.66
0.728	21.57
0.732	21.48
0.736	21.39
0.74	21.3
0.744	21.21
0.748	21.12
0.752	21.02
0.756	20.92
0.76	20.83
0.764	20.73
0.768	20.64
0.772	20.54
0.776	20.45
0.78	20.35
0.784	20.26
0.788	20.15
0.792	20.05
0.796	19.95
0.8	19.85
0.84	18.86
0.88	17.88
0.92	16.79
0.96	15.67
1	14.76
1.04	14.51
1.08	15.41
1.12	16.95
1.16	18.51
1.2	19.84
1.24	21
1.28	21.98
1.32	22.84
1.36	23.64
1.4	24.42
1.44	25.22
1.48	26.07
1.52	26.9
1.56	27.65
1.6	28.36
1.64	29.03
1.68	29.58
1.72	30.21
1.76	30.65
1.8	31.1
1.84	31.4
1.88	31.76
1.92	31.84
1.96	32.11
2	32.72
2.04	33.13
2.08	33.48
2.12	34.03
2.16	34.16
2.2	34.38
2.24	34.34
2.28	33.7544
2.32	33.5394
2.36	33.6238
2.4	33.8818
2.44	34.1428
2.48	34.4924
2.52	34.7036
2.56	34.9572
2.6	34.9186
2.64	35.0448
2.68	35.0112
2.72	32.6764
2.76	21.1182
2.8	13.2596
2.84	10.5818
2.88	8.5788
2.92	7.5105
2.96	7.4699
3	7.2989
3.04	7.8648
3.08	9.2201
3.12	10.3881
3.16	12.3548
3.2	13.9618
3.24	15.4594
3.28	16.7556
3.32	18.1104
3.36	19.0068
3.4	19.7294
3.44	20.2482
3.48	21.8176
3.52	23.4048
3.56	25.1884
3.6	26.8528
3.64	28.0282
3.68	29.3036
3.72	30.27
3.76	31.1618
3.8	31.8484
3.84	31.842
3.88	32.1632
3.92	32.8352
3.96	33.4602
4	34.235
4.04	34.344
4.08	34.3094
4.12	34.7138
4.16	34.633
4.2	34.5832
4.24	34.8402
4.28	35.1402
4.32	35.293
4.36	35.1576
4.4	35.2416
4.44	35.185
4.48	35.0116
4.52	34.9566
4.56	34.8438
4.6	34.6032
4.64	34.5926
4.68	34.3884
4.72	34.2056
4.76	34.2988
4.8	34.3118
4.84	34.7832
4.88	35.2494
4.92	35.804
4.96	36.2086
5	36.6484
5.2	38.4269
5.4	39.1599
5.6	38.7395
5.8	38.9522
6	33.4029
6.2	26.8374
6.4	11.8285
6.6	7.0762
6.8	11.5805
7	13.872
7.2	9.1882
7.4	12.3764
7.6	20.6402
7.8	35.436
8	41.2702
8.2	38.44
8.4	29.8695
8.6	23.7691
8.8	19.9238
9	17.9001
9.2	18.9017
9.4	16.4236
9.6	13.4273
9.8	16.778
10	19.1079
10.2	20.112
10.4	19.1945
10.6	18.9808
10.8	20.893
11	21.8397
11.2	22.2725
11.4	22.5252
11.6	21.8108
11.8	19.5423
12	13.456
12.2	17.5047
12.4	20.044
