Name: Terra cotta Tiles
Type: manmade
Class: Roofing Material
Subclass: Tile
Particle Size: Solid
Sample No.: 0484UUUPOT
Owner: National Photographic Interpretation Center
Wavelength Range: All
Origin: Spectra obtained from the Noncoventional Exploitation FactorsData System of the National Photographic Interpretation Center.
Description: Weathered terra cotta roofing tile of ceramic composite construction. Tile was baked clay, orange in color. Original ASTER Spectral Library name was jhu.becknic.manmade.roofing.tile.solid.0484uuu.spectrum.txt
Measurement: Directional (10 Degree) Hemispherical Reflectance
X Units: Wavelength (micrometers)
Y Units: Reflectance (percent)
wavelength	value
0.3	5.5
0.304	5.61
0.308	5.71
0.312	5.81
0.316	5.92
0.32	6.04
0.324	6.13
0.328	6.23
0.332	6.32
0.336	6.41
0.34	6.5
0.344	6.57
0.348	6.65
0.352	6.72
0.356	6.8
0.36	6.88
0.364	6.96
0.368	7.04
0.372	7.14
0.376	7.24
0.38	7.32
0.384	7.43
0.388	7.53
0.392	7.63
0.396	7.73
0.4	7.81
0.404	7.9
0.408	7.97
0.412	8.05
0.416	8.12
0.42	8.21
0.424	8.29
0.428	8.38
0.432	8.47
0.436	8.56
0.44	8.65
0.444	8.72
0.448	8.78
0.452	8.84
0.456	8.9
0.46	8.97
0.464	9.03
0.468	9.08
0.472	9.12
0.476	9.18
0.48	9.23
0.484	9.27
0.488	9.33
0.492	9.41
0.496	9.53
0.5	9.67
0.504	9.79
0.508	9.89
0.512	10
0.516	10.1
0.52	10.21
0.524	10.32
0.528	10.43
0.532	10.55
0.536	10.67
0.54	10.79
0.544	10.92
0.548	11.06
0.552	11.21
0.556	11.38
0.56	11.57
0.564	11.76
0.568	11.97
0.572	12.19
0.576	12.42
0.58	12.63
0.584	12.84
0.588	13.03
0.592	13.2
0.596	13.35
0.6	13.48
0.604	13.58
0.608	13.66
0.612	13.73
0.616	13.78
0.62	13.83
0.624	13.87
0.628	13.91
0.632	13.96
0.636	13.99
0.64	14.01
0.644	14.02
0.648	14.04
0.652	14.06
0.656	14.09
0.66	14.1
0.664	14.12
0.668	14.13
0.672	14.17
0.676	14.21
0.68	14.25
0.684	14.33
0.688	14.45
0.692	14.62
0.696	14.81
0.7	15
0.704	15.17
0.708	15.31
0.712	15.44
0.716	15.54
0.72	15.62
0.724	15.7
0.728	15.76
0.732	15.82
0.736	15.86
0.74	15.91
0.744	15.95
0.748	15.98
0.752	16.01
0.756	16.03
0.76	16.05
0.764	16.07
0.768	16.09
0.772	16.1
0.776	16.12
0.78	16.14
0.784	16.15
0.788	16.15
0.792	16.17
0.796	16.17
0.8	16.19
0.84	16.27
0.88	16.39
0.92	16.57
0.96	16.8
1	17.04
1.04	17.16
1.08	17.25
1.12	17.32
1.16	17.4
1.2	17.45
1.24	17.52
1.28	17.59
1.32	17.64
1.36	17.65
1.4	17.52
1.44	17.49
1.48	17.61
1.52	17.78
1.56	17.93
1.6	18.07
1.64	18.23
1.68	18.32
1.72	18.38
1.76	18.37
1.8	18.44
1.84	18.46
1.88	18.24
1.92	16.79
1.96	16.96
2	17.53
2.04	17.77
2.08	17.79
2.12	17.94
2.16	17.81
2.2	17.63
2.24	17.51
2.28	17.373
2.32	16.7394
2.36	16.4482
2.4	16.4274
2.44	15.8024
2.48	15.2166
2.52	15.1658
2.56	15.1832
2.6	14.9568
2.64	14.7314
2.68	13.3642
2.72	9.1187
2.76	5.4271
2.8	4.3355
2.84	3.9487
2.88	3.4771
2.92	3.5186
2.96	3.2766
3	3.459
3.04	3.7543
3.08	3.7378
3.12	3.8581
3.16	4.0747
3.2	4.6116
3.24	4.872
3.28	5.2002
3.32	5.3454
3.36	5.4293
3.4	5.1715
3.44	5.3768
3.48	5.5647
3.52	6.2987
3.56	6.9953
3.6	7.212
3.64	7.6111
3.68	7.9448
3.72	8.0501
3.76	8.2893
3.8	8.6985
3.84	8.767
3.88	8.8509
3.92	9.0372
3.96	8.9232
4	9.0455
4.04	9.4984
4.08	9.9388
4.12	9.782
4.16	9.8624
4.2	9.8543
4.24	9.8573
4.28	9.7115
4.32	9.8369
4.36	9.7224
4.4	9.556
4.44	9.5084
4.48	9.2145
4.52	9.3654
4.56	9.4601
4.6	9.4089
4.64	9.268
4.68	8.9575
4.72	9.1802
4.76	9.1072
4.8	8.8411
4.84	8.7456
4.88	8.3272
4.92	7.9605
4.96	7.8627
5	7.7256
5.2	7.5503
5.4	6.9493
5.6	5.9101
5.8	3.9448
6	2.0727
6.2	2.2737
6.4	2.5279
6.6	2.5344
6.8	2.3326
7	2.131
7.2	1.9698
7.4	2.2381
7.6	2.4295
7.8	3.0032
8	5.55
8.2	9.9441
8.4	9.3866
8.6	7.6407
8.8	9.141
9	10.1286
9.2	10.7799
9.4	8.8987
9.6	6.0682
9.8	5.4416
10	4.6983
10.2	4.0793
10.4	3.8246
10.6	3.4124
10.8	3.2223
11	3.0137
11.2	2.7702
11.4	2.4708
11.6	2.3598
11.8	2.3304
12	1.6964
12.2	1.6696
12.4	2.2998
