Name: Construction Tar
Type: manmade
Class: Road
Subclass: Tar
Particle Size: Solid
Sample No.: 0099UUUTAR
Owner: National Photographic Interpretation Center
Wavelength Range: All
Origin: Spectra obtained from the Noncoventional Exploitation FactorsData System of the National Photographic Interpretation Center.
Description: Road Asphalts and Tar. Black matte construction tar. Sample was weathered. Original ASTER Spectral Library name was jhu.becknic.manmade.asphalt.tar.solid.0099uuu.spectrum.txt
Measurement: Directional (10 Degree) Hemispherical Reflectance
X Units: Wavelength (micrometers)
Y Units: Reflectance (percent)
wavelength	value
0.42	4.522
0.424	5.1938
0.428	5.3123
0.432	5.1935
0.436	5.2101
0.44	5.2248
0.444	5.2392
0.448	5.2635
0.452	5.2365
0.456	5.2518
0.46	5.23
0.464	5.2403
0.468	5.2447
0.472	5.2323
0.476	5.2086
0.48	5.2132
0.484	5.1932
0.488	5.2044
0.492	5.1949
0.496	5.1802
0.5	5.1817
0.504	5.1722
0.508	5.1732
0.512	5.164
0.516	5.1547
0.52	5.155
0.524	5.1456
0.528	5.1395
0.532	5.1372
0.536	5.1375
0.54	5.138
0.544	5.1335
0.548	5.1245
0.552	5.1154
0.556	5.1059
0.56	5.1113
0.564	5.1182
0.568	5.0939
0.572	5.063
0.576	5.0692
0.58	5.0634
0.584	5.0602
0.588	5.0926
0.592	5.0824
0.596	5.0338
0.6	5.0214
0.604	5.0236
0.608	5.0155
0.612	5.0018
0.616	4.9895
0.62	4.9798
0.624	4.9638
0.628	4.9503
0.632	4.9524
0.636	4.9624
0.64	4.9692
0.644	4.9614
0.648	4.9476
0.652	4.9464
0.656	4.936
0.66	4.9327
0.664	4.9589
0.668	4.9574
0.672	4.9197
0.676	4.9114
0.68	4.8787
0.684	4.8236
0.688	4.8595
0.692	4.8671
0.696	4.882
0.7	4.8881
0.704	4.8767
0.708	4.8785
0.712	4.8968
0.716	4.9087
0.72	4.9077
0.724	4.9212
0.728	4.9135
0.732	4.9294
0.736	4.9297
0.74	4.9207
0.744	4.9436
0.748	4.9475
0.752	4.9417
0.756	4.9576
0.76	4.9636
0.764	4.9525
0.768	4.9675
0.772	4.9674
0.776	4.9719
0.78	4.9782
0.784	4.9796
0.788	4.9784
0.792	4.9955
0.796	4.983
0.8	4.9999
0.84	5.0203
0.88	5.0659
0.92	5.0974
0.96	5.1005
1	5.1012
1.04	5.0959
1.08	5.1096
1.12	5.1387
1.16	5.2318
1.2	5.2985
1.24	5.3479
1.28	5.3648
1.32	5.2882
1.36	5.3069
1.4	5.4844
1.44	5.5296
1.48	5.4509
1.52	5.3527
1.56	5.3884
1.6	5.4268
1.64	5.4345
1.68	5.375
1.72	5.3713
1.76	5.3553
1.8	5.3767
1.84	5.4358
1.88	5.5329
1.92	5.5721
1.96	5.5363
2	5.4296
2.04	5.4048
2.08	5.4075
2.12	5.4321
2.16	5.4504
2.2	5.4806
2.24	5.4545
2.28	5.4344
2.32	5.4148
2.36	5.4037
2.4	5.4429
2.44	5.4302
2.48	5.4196
2.52	5.3932
2.56	5.4226
2.6	5.3528
2.64	5.3739
2.68	5.359
2.72	5.3184
2.76	5.1699
2.8	5.1315
2.84	5.0174
2.88	4.9464
2.92	4.8527
2.96	4.7908
3	4.7505
3.04	4.7102
3.08	4.7247
3.12	4.7039
3.16	4.7357
3.2	4.7172
3.24	4.5366
3.28	4.4034
3.32	4.5976
3.36	4.6442
3.4	4.5772
3.44	4.6286
3.48	4.7
3.52	4.7964
3.56	4.881
3.6	4.8815
3.64	4.8748
3.68	4.8977
3.72	4.9151
3.76	4.91
3.8	4.8933
3.84	4.9021
3.88	4.9059
3.92	4.9108
3.96	4.9075
4	4.9292
4.04	4.9413
4.08	4.9519
4.12	4.9664
4.16	4.9883
4.2	5.0101
4.24	4.9977
4.28	5.0324
4.32	5.0249
4.36	5.0348
4.4	5.0406
4.44	5.0395
4.48	5.0237
4.52	5.0543
4.56	5.0435
4.6	5.0474
4.64	5.0394
4.68	5.033
4.72	5.0174
4.76	5.0089
4.8	4.9981
4.84	4.9844
4.88	4.9563
4.92	4.9658
4.96	4.9293
5	4.9214
5.2	4.5807
5.4	4.6228
5.6	4.1435
5.8	3.6808
6	3.7218
6.2	3.7103
6.4	4.0494
6.6	3.918
6.8	3.7445
7	3.8699
7.2	3.8951
7.4	3.8643
7.6	3.7885
7.8	3.792
8	3.9422
8.2	4.0341
8.4	4.0905
8.6	4.1531
8.8	4.2839
9	4.3432
9.2	4.4408
9.4	4.3888
9.6	4.3084
9.8	4.3176
10	4.3203
10.2	4.2758
10.4	4.2072
10.6	4.2062
10.8	4.2165
11	4.1305
11.2	4.0064
11.4	3.9746
11.6	4.0151
11.8	3.8958
12	3.8984
12.2	3.9156
12.4	3.9768
12.6	3.9644
12.8	3.8018
13	3.7806
13.2	3.8455
13.4	4.2173
13.6	4.3789
13.8	4.3346
14	4.029
