Name: Brass plate
Type: Manmade
Class: Reflectance target
Subclass: None
Particle Size: Solid
Sample No.: ILF-17464-2-2-tc
Owner: JPL
Wavelength Range: TIR
Origin: Labsphere, P.O. Box 70, Shaker Street, North Sutton, NH 03260(603) 927-4266
Description: Measurement made at top center. Field Brass 1.Measured Oct. 29 1997. Original ASTER Spectral Library name was jpl.nicolet.manmade.target.none.solid.bp11097b.spectrum.txt
Measurement: Hemispherical Reflectance
X Units: Wavelength (micrometers)
Y Units: Reflectence (percent)
wavelength	value
15.3853	86.8933
15.1161	87.0626
14.8563	87.0661
14.6052	86.8615
14.3624	86.9757
14.1276	86.9872
13.9004	86.9376
13.6803	87.0675
13.4671	87.0647
13.2604	87.0547
13.06	86.7784
12.8656	86.7249
12.6769	86.564
12.4936	86.461
12.3155	86.8044
12.1425	86.9581
11.9742	87.0342
11.8106	86.9703
11.6513	87.0337
11.4963	86.1212
11.3454	86.3663
11.1983	86.564
11.0551	86.2894
10.9154	86.1332
10.7793	85.9636
10.6465	85.7853
10.5169	85.5362
10.3904	85.186
10.267	85.0212
10.1464	84.6633
10.0287	84.6587
9.9136	84.2882
9.8012	84.2564
9.6913	84.2588
9.5838	84.3455
9.4787	84.2834
9.3758	84.4138
9.2752	84.7399
9.1767	84.9738
9.0803	85.1086
8.9858	85.297
8.8934	85.3485
8.8028	85.2005
8.714	85.3037
8.627	85.5733
8.5417	85.9071
8.4581	85.9514
8.3761	86.163
8.2957	86.3568
8.2169	86.6147
8.1395	86.83
8.0635	86.9897
7.989	87.1836
7.9158	87.5992
7.8439	87.9582
7.7734	88.1186
7.7041	88.1557
7.636	88.2763
7.5691	88.3676
7.5034	88.3221
7.4388	88.1964
7.3753	87.9858
7.3129	87.7487
7.2515	87.5
7.1912	87.325
7.1318	87.3559
7.0734	87.2219
7.016	87.4181
6.9595	87.5653
6.9039	87.448
6.8492	87.494
6.7953	87.6647
6.7423	87.5738
6.6901	87.8701
6.6387	88.4639
6.5881	88.4007
6.5382	88.392
6.4892	89.0199
6.4408	88.6006
6.3931	88.542
6.3462	88.7925
6.2999	88.3337
6.2543	88.3111
6.2094	88.2483
6.1651	88.1857
6.1214	88.5042
6.0784	88.6467
6.0359	88.672
5.994	88.9561
5.9527	88.7507
5.912	88.8123
5.8718	89.0741
5.8322	88.9565
5.7931	88.9776
5.7545	89.1219
5.7165	89.2262
5.6789	89.1122
5.6418	89.4023
5.6052	89.081
5.5691	88.7347
5.5334	89.069
5.4982	89.0633
5.4635	89.2752
5.4291	89.2272
5.3952	89.1514
5.3618	89.1351
5.3287	89.0943
5.2961	89.2304
5.2638	89.2016
5.2319	89.3376
5.2004	89.3756
5.1693	89.2857
5.1386	89.2665
5.1082	89.2846
5.0782	89.3259
5.0485	89.3747
5.0192	89.3665
4.9902	89.3291
4.9616	89.3834
4.9332	89.3751
4.9052	89.4089
4.8776	89.4401
4.8502	89.4088
4.8231	89.4671
4.7963	89.4839
4.7699	89.4233
4.7437	89.4267
4.7178	89.4249
4.6922	89.3842
4.6668	89.3626
4.6418	89.4592
4.617	89.3278
4.5924	89.4015
4.5681	89.4484
4.5441	89.4355
4.5203	89.411
4.4968	89.4451
4.4735	89.4902
4.4505	89.4323
4.4277	89.3557
4.4051	89.3728
4.3828	89.4278
4.3607	89.4542
4.3388	89.3959
4.3171	89.3477
4.2956	89.2688
4.2744	89.2394
4.2534	89.3738
4.2325	89.2452
4.2119	89.2245
4.1915	89.4242
4.1712	89.3073
4.1512	89.3425
4.1313	89.3272
4.1117	89.3415
4.0922	89.2006
4.0729	89.3344
4.0538	89.2789
4.0349	89.2733
4.0161	89.1575
3.9976	88.9809
3.9792	88.8935
3.9609	88.8448
3.9428	88.9403
3.9249	89.0139
3.9072	89.0455
3.8896	89.0384
3.8722	89.1492
3.8549	89.0326
3.8378	89.1225
3.8208	89.0407
3.804	89.1585
3.7873	89.1395
3.7708	89.2013
3.7544	89.1021
3.7382	89.163
3.7221	89.1886
3.7061	89.1284
3.6903	89.1569
3.6746	89.1619
3.659	89.1341
3.6436	89.0451
3.6283	89.1638
3.6131	89.0395
3.5981	89.024
3.5832	89.0635
3.5684	88.9473
3.5537	89.0382
3.5391	88.9162
3.5247	88.8698
3.5104	88.6966
3.4962	88.5528
3.4821	88.4862
3.4681	88.6256
3.4543	88.5306
3.4405	88.6494
3.4269	88.3767
3.4133	88.4836
3.3999	88.4117
3.3866	88.4309
3.3733	88.5295
3.3602	88.545
3.3472	88.5485
3.3343	88.7466
3.3215	88.7558
3.3088	88.6529
3.2961	88.6557
3.2836	88.6905
3.2712	88.6289
3.2588	88.6079
3.2466	88.6047
3.2345	88.6961
3.2224	88.5826
3.2104	88.6203
3.1985	88.5172
3.1867	88.4651
3.175	88.5272
3.1634	88.4603
3.1519	88.4173
3.1404	88.4169
3.129	88.3796
3.1178	88.4829
3.1065	88.2368
3.0954	88.3608
3.0844	88.2521
3.0734	88.1953
3.0625	88.2176
3.0517	88.25
3.041	88.1517
3.0303	88.2446
3.0197	88.1339
3.0092	88.3179
2.9987	88.0231
2.9884	88.2452
2.9781	88.2042
2.9678	88.1685
2.9577	88.1325
2.9476	88.0841
2.9376	88.1629
2.9276	88.0717
2.9177	87.9985
2.9079	88.218
2.8982	88.0269
2.8885	88.2888
2.8789	88.1024
2.8693	88.2627
2.8598	87.9907
2.8504	88.0758
2.841	88.1149
2.8317	88.2022
2.8224	88.0547
2.8133	88.107
2.8041	88.185
2.7951	88.1798
2.786	88.1483
2.7771	88.4193
2.7682	87.8609
2.7594	88.0584
2.7506	88.2075
2.7418	88.4352
2.7332	88.4174
2.7246	88.8495
2.716	88.6361
2.7075	88.7409
2.699	88.9427
2.6906	88.8382
2.6823	89.0626
2.674	89.1841
2.6657	89.5009
2.6575	89.0463
2.6494	89.0394
2.6413	89.0383
2.6332	89.08
2.6252	89.1408
2.6173	89.3082
2.6094	89.1669
2.6015	89.2194
2.5937	89.5883
2.5859	89.0911
2.5782	89.1552
2.5706	89.0649
2.5629	89.3091
2.5554	89.0777
2.5478	89.041
2.5403	89.0055
2.5329	88.9707
2.5255	89.079
2.5181	88.8948
2.5108	88.7776
2.5035	89.0008
2.4963	88.9851
2.4891	88.7694
2.482	88.8613
2.4749	88.9477
2.4678	89.0984
2.4608	89.0058
2.4538	88.8107
2.4468	88.9392
2.4399	88.945
2.4331	88.8987
2.4262	88.9419
2.4194	89.1756
2.4127	88.922
2.4059	89.058
2.3993	88.8867
2.3926	88.7627
2.386	88.9852
2.3795	88.8725
2.3729	88.9825
2.3664	88.9365
2.36	88.9704
2.3535	88.8964
2.3471	88.722
2.3408	89.0222
2.3345	88.8656
2.3282	88.7849
2.3219	88.8719
2.3157	88.7817
2.3095	88.7905
2.3034	88.8767
2.2972	88.9009
2.2911	88.7215
2.2851	88.829
2.279	88.4826
2.2731	88.6357
2.2671	88.5889
2.2612	88.833
2.2553	88.858
2.2494	88.7071
2.2435	88.8043
2.2377	88.9406
2.232	88.6678
2.2262	88.8481
2.2205	88.8541
2.2148	88.5055
2.2091	88.7176
2.2035	88.943
2.1979	88.6153
2.1923	88.6837
2.1868	88.716
2.1812	88.8429
2.1758	88.7533
2.1703	88.6631
2.1649	88.4997
2.1595	88.5524
2.1541	88.6372
2.1487	88.8503
2.1434	88.8943
2.1381	88.61
2.1328	88.5067
2.1275	88.5407
2.1223	88.9595
2.1171	88.5201
2.112	88.7854
2.1068	88.597
2.1017	88.5956
2.0966	88.5006
2.0915	88.8044
2.0865	88.8109
2.0814	88.5119
2.0764	88.5375
2.0715	88.5558
2.0665	88.8351
2.0616	88.7474
2.0567	88.5691
2.0518	88.2292
2.0469	88.5868
2.0421	88.4005
2.0373	88.2291
2.0325	88.7438
2.0277	88.5866
2.0229	88.6203
2.0182	88.8278
2.0135	88.4769
2.0088	88.7639
2.0042	88.3988
