Name: White fiberglass unspecified rubber
Type: manmade
Class: Roofing Material
Subclass: Rubber
Particle Size: Solid
Sample No.: 0834UUURBR
Owner: National Photographic Interpretation Center
Wavelength Range: All
Origin: Spectra obtained from the Noncoventional Exploitation FactorsData System of the National Photographic Interpretation Center. Original filename 0834UUURBR.
Description: Unspecified fiberglass-reinforced rubber from a building roof. Sample was white and weathered. Original ASTER Spectral Library name was jhu.becknic.manmade.roofing.rubber.solid.0834uuu.spectrum.txt
Measurement: Directional (10 Degree) Hemispherical Reflectance
X Units: Wavelength (micrometers)
Y Units: Reflectance (percent)
wavelength	value
0.3	6.77
0.304	6.82
0.308	6.85
0.312	6.84
0.316	6.79
0.32	6.69
0.324	6.61
0.328	6.52
0.332	6.44
0.336	6.38
0.34	6.35
0.344	6.38
0.348	6.48
0.352	6.65
0.356	6.92
0.36	7.28
0.364	7.75
0.368	8.33
0.372	9.08
0.376	10.07
0.38	11.66
0.384	13.76
0.388	16.88
0.392	21.31
0.396	26.9
0.4	33.2
0.404	39.41
0.408	44.61
0.412	48.36
0.416	50.81
0.42	52.39
0.424	53.49
0.428	54.38
0.432	55.16
0.436	55.86
0.44	56.49
0.444	57.04
0.448	57.51
0.452	57.9
0.456	58.23
0.46	58.55
0.464	58.84
0.468	59.13
0.472	59.42
0.476	59.75
0.48	60.08
0.484	60.48
0.488	60.83
0.492	61.2
0.496	61.55
0.5	61.9
0.504	62.23
0.508	62.59
0.512	62.92
0.516	63.25
0.52	63.56
0.524	63.87
0.528	64.17
0.532	64.45
0.536	64.74
0.54	65
0.544	65.27
0.548	65.52
0.552	65.75
0.556	65.98
0.56	66.22
0.564	66.43
0.568	66.63
0.572	66.83
0.576	67.03
0.58	67.18
0.584	67.35
0.588	67.51
0.592	67.64
0.596	67.77
0.6	67.91
0.604	68.05
0.608	68.18
0.612	68.29
0.616	68.41
0.62	68.53
0.624	68.64
0.628	68.74
0.632	68.86
0.636	68.98
0.64	69.09
0.644	69.17
0.648	69.29
0.652	69.39
0.656	69.49
0.66	69.61
0.664	69.7
0.668	69.79
0.672	69.9
0.676	70
0.68	70.1
0.684	70.18
0.688	70.25
0.692	70.36
0.696	70.46
0.7	70.57
0.704	70.66
0.708	70.74
0.712	70.83
0.716	70.92
0.72	70.99
0.724	71.1
0.728	71.16
0.732	71.25
0.736	71.33
0.74	71.4
0.744	71.5
0.748	71.56
0.752	71.63
0.756	71.65
0.76	71.74
0.764	71.79
0.768	71.89
0.772	71.98
0.776	72.08
0.78	72.14
0.784	72.2
0.788	72.25
0.792	72.31
0.796	72.38
0.8	72.46
0.84	72.91
0.88	73.42
0.92	73.35
0.96	73.9
1	74.36
1.04	74.48
1.08	74.96
1.12	75.35
1.16	73.69
1.2	69.03
1.24	73.05
1.28	74.99
1.32	75.29
1.36	74.21
1.4	68.08
1.44	67.12
1.48	68.97
1.52	70.34
1.56	71.02
1.6	71.19
1.64	70.47
1.68	66.73
1.72	48.57
1.76	50.74
1.8	55
1.84	56.27
1.88	57.03
1.92	51.24
1.96	48.95
2	50.04
2.04	51.95
2.08	53.31
2.12	54.08
2.16	53.25
2.2	51.28
2.24	45.31
2.28	31.3789
2.32	23.1184
2.36	21.711
2.4	21.4631
2.44	22.7542
2.48	23.4033
2.52	24.0846
2.56	24.8517
2.6	25.478
2.64	25.3918
2.68	23.2603
2.72	14.0352
2.76	9.8693
2.8	8.5695
2.84	8.0612
2.88	7.761
2.92	7.5177
2.96	7.6455
3	7.5379
3.04	7.6164
3.08	7.8864
3.12	7.8004
3.16	8.1631
3.2	8.2908
3.24	8.296
3.28	8.3783
3.32	8.0363
3.36	6.754
3.4	5.3061
3.44	5.8137
3.48	6.4056
3.52	6.3239
3.56	7.8011
3.6	8.6326
3.64	8.901
3.68	8.9126
3.72	8.9562
3.76	8.9928
3.8	8.7417
3.84	8.4294
3.88	8.2375
3.92	7.9566
3.96	7.3524
4	7.4103
4.04	8.9198
4.08	10.0572
4.12	10.2417
4.16	10.1803
4.2	10.1131
4.24	9.894
4.28	9.7291
4.32	9.659
4.36	9.7204
4.4	9.6821
4.44	9.6414
4.48	9.6486
4.52	9.589
4.56	9.529
4.6	9.4445
4.64	9.0946
4.68	9.0157
4.72	9.5865
4.76	9.8017
4.8	9.8932
4.84	9.8775
4.88	9.889
4.92	9.8197
4.96	9.9879
5	10.4492
5.2	10.8356
5.4	10.781
5.6	6.8637
5.8	6.4442
6	6.4035
6.2	6.6432
6.4	10.0284
6.6	10.1288
6.8	6.6958
7	6.8303
7.2	7.2521
7.4	8.6415
7.6	6.8362
7.8	6.8581
8	5.7676
8.2	5.3113
8.4	4.8734
8.6	4.8672
8.8	5.2749
9	5.3485
9.2	5.2121
9.4	4.7766
9.6	5.0371
9.8	5.6222
10	5.4233
10.2	4.8486
10.4	4.3669
10.6	3.99
10.8	3.7676
11	3.7478
11.2	4.3551
11.4	3.306
11.6	3.3542
11.8	2.7352
12	2.6433
12.2	2.5242
12.4	2.7461
12.6	2.8428
12.8	3.4859
13	3.7127
13.2	4.3512
13.4	5.0664
13.6	5.8812
13.8	6.6231
14	6.9796
