Name: Pine Wood
Type: manmade
Class: General Construction Material
Subclass: Wood
Particle Size: Solid
Sample No.: 0410UUUWOD
Owner: National Photographic Interpretation Center
Wavelength Range: All
Origin: Spectra obtained from the Noncoventional Exploitation FactorsData System of the National Photographic Interpretation Center.
Description: Bare pine wood construction lumber. Wood surface was sanded and buffed. Original ASTER Spectral Library name was jhu.becknic.manmade.construction.wood.solid.0410uuu.spectrum.txt
Measurement: Directional (10 Degree) Hemispherical Reflectance
X Units: Wavelength (micrometers)
Y Units: Reflectance (percent)
wavelength	value
0.42	17.6754
0.424	18.1817
0.428	18.5446
0.432	19.675
0.436	20.8081
0.44	22.0385
0.444	23.0292
0.448	23.8627
0.452	24.569
0.456	25.5345
0.46	26.0876
0.464	26.7943
0.468	27.4764
0.472	28.1645
0.476	28.9308
0.48	29.7468
0.484	30.5939
0.488	31.5494
0.492	32.5836
0.496	33.6438
0.5	34.5886
0.504	35.4392
0.508	36.3227
0.512	37.2091
0.516	38.15
0.52	39.137
0.524	40.1899
0.528	41.2868
0.532	42.3968
0.536	43.4775
0.54	44.4836
0.544	45.4257
0.548	46.341
0.552	47.2299
0.556	48.1114
0.56	48.985
0.564	50.0583
0.568	51.074
0.572	52.1996
0.576	53.3089
0.58	54.3817
0.584	55.4627
0.588	56.473
0.592	57.5295
0.596	58.5708
0.6	59.492
0.604	60.507
0.608	61.3791
0.612	62.3542
0.616	63.2766
0.62	64.0895
0.624	65.0021
0.628	65.8045
0.632	66.6088
0.636	67.44
0.64	68.2087
0.644	69.0627
0.648	69.8069
0.652	70.5873
0.656	71.3053
0.66	71.9948
0.664	72.6584
0.668	73.2406
0.672	73.9119
0.676	74.5029
0.68	75.1097
0.684	75.7364
0.688	76.19
0.692	76.8461
0.696	77.4215
0.7	77.9733
0.704	78.5219
0.708	79.0253
0.712	79.4863
0.716	79.9494
0.72	80.3603
0.724	80.8188
0.728	81.2096
0.732	81.5488
0.736	81.8666
0.74	82.1965
0.744	82.4811
0.748	82.6964
0.752	82.9458
0.756	83.1919
0.76	83.4276
0.764	83.6415
0.768	83.8605
0.772	84.0935
0.776	84.252
0.78	84.4573
0.784	84.6888
0.788	84.8673
0.792	85.055
0.796	85.2626
0.8	85.4492
0.84	87.0408
0.88	87.9464
0.92	87.0948
0.96	86.0412
1	83.8412
1.04	85.4157
1.08	86.7293
1.12	85.8522
1.16	79.7186
1.2	75.8097
1.24	77.3879
1.28	79.4661
1.32	79.0523
1.36	72.1911
1.4	62.903
1.44	49.7859
1.48	48.989
1.52	51.5444
1.56	53.124
1.6	55.4751
1.64	59.1314
1.68	57.5183
1.72	56.0274
1.76	55.4181
1.8	55.1208
1.84	56.559
1.88	51.6891
1.92	34.5737
1.96	37.1708
2	42.4704
2.04	40.3039
2.08	35.5054
2.12	35.099
2.16	37.4585
2.2	40.5025
2.24	37.7015
2.28	31.8319
2.32	30.8021
2.36	30.2827
2.4	30.4837
2.44	27.0652
2.48	22.1155
2.52	22.4712
2.56	24.2694
2.6	26.3096
2.64	26.3771
2.68	23.1604
2.72	13.356
2.76	5.8796
2.8	3.6867
2.84	2.9842
2.88	2.8084
2.92	2.8746
2.96	3.0364
3	3.3925
3.04	3.5644
3.08	3.9313
3.12	4.3288
3.16	4.8408
3.2	5.5468
3.24	6.2533
3.28	6.9584
3.32	6.9941
3.36	5.6537
3.4	4.3183
3.44	4.4702
3.48	4.8026
3.52	5.8108
3.56	7.7528
3.6	8.7106
3.64	9.036
3.68	9.4449
3.72	10.2858
3.76	10.983
3.8	11.6208
3.84	12.2796
3.88	12.6995
3.92	12.86
3.96	13.2222
4	13.9307
4.04	14.7789
4.08	15.5335
4.12	16.4077
4.16	17.2876
4.2	18.0173
4.24	18.4824
4.28	18.8413
4.32	18.9546
4.36	18.6802
4.4	18.3232
4.44	17.8232
4.48	17.5363
4.52	17.33
4.56	16.735
4.6	15.9671
4.64	15.4013
4.68	15.0916
4.72	15.2439
4.76	15.3896
4.8	15.4639
4.84	15.217
4.88	15.23
4.92	15.747
4.96	16.4675
5	16.9482
5.2	19.0136
5.4	18.6694
5.6	14.218
5.8	5.6954
6	5.0174
6.2	4.7441
6.4	7.8099
6.6	3.3442
6.8	3.3624
7	3.1409
7.2	3.2808
7.4	3.3575
7.6	3.1804
7.8	2.8405
8	3.0989
8.2	3.0812
8.4	2.9637
8.6	3.0549
8.8	2.5692
9	2.9472
9.2	3.0558
9.4	4.8718
9.6	5.1819
9.8	5.9875
10	5.9234
10.2	6.6666
10.4	7.0035
10.6	7.4648
10.8	7.6988
11	6.9462
11.2	6.5004
11.4	6.7991
11.6	6.8038
11.8	7.0873
12	6.5907
12.2	6.0451
12.4	5.7876
12.6	5.8426
12.8	5.4871
13	5.3004
13.2	5.1104
13.4	4.9181
13.6	4.7237
13.8	4.4615
14	4.3891
