Name: Glossy Black Paint
Type: Manmade
Class: General Construction Material
Subclass: Paint
Particle Size: Solid
Sample No.: DM625
Owner: JPL
Wavelength Range: TIR
Origin: Design Master, P.O. Box 601, Boulder, CO 80306
Description: Glossy black spray paintCollected by JPL Original ASTER Spectral Library name was jpl.nicolet.manmade.construction.paint.solid.dm625.spectrum.txt
Measurement: Hemispherical reflectance
X Units: Wavelength (micrometers)
Y Units: Reflectance (percent)
wavelength	value
14.0131	25.7645
13.7895	22.442
13.5729	17.6442
13.363	10.0939
13.1595	13.3195
12.9621	15.0289
12.7705	12.6474
12.5845	12.7895
12.4039	14.4148
12.2284	11.6385
12.0578	8.0319
11.8918	6.6229
11.7304	4.7525
11.5733	3.5463
11.4203	3.3074
11.2714	6.8874
11.1263	10.954
10.9848	13.2084
10.8469	12.6199
10.7125	15.4374
10.5813	13.404
10.4533	11.9985
10.3284	8.5228
10.2064	6.1941
10.0872	5.6021
9.9708	5.7391
9.8571	5.7868
9.7459	5.781
9.6372	5.4632
9.5309	5.5423
9.427	6.0107
9.3252	5.6397
9.2257	4.993
9.1282	4.4701
9.0328	4.3904
8.9394	4.968
8.8478	4.7887
8.7582	5.3076
8.6703	4.842
8.5842	3.7321
8.4997	3.4251
8.4169	4.4755
8.3357	4.1825
8.2561	4.7663
8.178	5.1482
8.1013	4.8995
8.0261	5.0788
7.9522	5.1588
7.8797	5.5053
7.8085	6.0778
7.7386	2.3769
7.6699	3.6836
7.6024	6.1193
7.5361	6.1657
7.4709	5.7378
7.4069	5.1474
7.344	4.7915
7.2821	3.9695
7.2212	3.6375
7.1614	4.6297
7.1025	5.9767
7.0446	6.2302
6.9877	6.4342
6.9316	7.0105
6.8764	5.834
6.8221	5.5171
6.7687	6.3178
6.7161	11.6052
6.6643	13.059
6.6133	13.1842
6.5631	12.8945
6.5136	12.3278
6.4649	11.2924
6.4169	10.4729
6.3696	9.7525
6.323	9.2223
6.277	9.5091
6.2318	9.8264
6.1871	9.6733
6.1432	6.7823
6.0998	6.1699
6.0571	5.597
6.0149	4.5263
5.9733	3.0987
5.9323	3.832
5.8919	5.7575
5.852	5.3347
5.8126	4.5284
5.7738	4.3595
5.7354	3.8746
5.6976	2.7879
5.6603	3.0949
5.6235	7.1934
5.5871	9.7907
5.5512	10.8669
5.5158	11.4463
5.4808	11.5127
5.4463	11.3401
5.4121	11.0124
5.3785	10.7853
5.3452	10.5215
5.3123	10.1927
5.2799	10.1683
5.2478	10.1229
5.2161	10.0974
5.1848	10.2045
5.1539	10.3746
5.1234	10.3898
5.0932	10.5007
5.0633	10.6205
5.0338	10.6083
5.0047	10.631
4.9759	10.3772
4.9474	10.2613
4.9192	10.1751
4.8914	9.8656
4.8638	9.649
4.8366	9.4816
4.8097	9.2165
4.7831	9.1701
4.7567	8.9323
4.7307	8.7552
4.7049	8.7452
4.6795	8.7758
4.6543	8.7721
4.6293	8.7809
4.6047	8.7873
4.5802	8.8246
4.5561	8.8404
4.5322	8.9713
4.5085	8.9432
4.4851	8.9224
4.462	8.8235
4.4391	8.8909
4.4164	8.6729
4.3939	8.5135
4.3717	8.452
4.3497	8.1735
4.3279	8.2014
4.3063	7.9926
4.285	7.9281
4.2638	7.8153
4.2429	7.7758
4.2222	7.6602
4.2016	7.8084
4.1813	7.8788
4.1612	7.7424
4.1412	7.7717
4.1215	7.698
4.1019	7.6961
4.0826	7.5904
4.0633	7.7312
4.0443	7.6072
4.0255	7.5394
4.0068	7.4277
3.9883	7.3666
3.97	7.4038
3.9519	7.3801
3.9339	7.0249
3.916	6.8582
3.8984	7.019
3.8809	6.9668
3.8635	6.8856
3.8463	7.0721
3.8293	6.8392
3.8124	6.7818
3.7956	6.7261
3.779	6.8126
3.7626	6.7056
3.7463	6.6416
3.7301	6.7282
3.7141	6.6428
3.6982	6.7152
3.6824	6.5987
3.6668	6.5081
3.6513	6.545
3.6359	6.3555
3.6207	6.4867
3.6056	6.4536
3.5906	6.3662
3.5758	6.3744
3.561	6.1058
3.5464	6.0738
3.5319	5.8467
3.5175	5.5552
3.5033	4.9604
3.4891	4.8851
3.4751	4.5653
3.4612	4.5833
3.4474	4.5891
3.4337	4.3919
3.4201	4.0757
3.4066	4.0221
3.3932	3.9902
3.3799	4.1341
3.3668	3.9483
3.3537	3.7365
3.3407	3.9841
3.3279	4.8037
3.3151	5.2969
3.3024	5.3228
3.2899	5.3729
3.2774	5.4698
3.265	5.4872
3.2527	5.5704
3.2405	5.6598
3.2284	5.5085
3.2164	5.6134
3.2045	5.5524
3.1926	5.4677
3.1809	5.5865
3.1692	5.4963
3.1576	5.324
3.1461	5.4186
3.1347	5.5261
3.1234	5.5683
3.1121	5.389
3.101	5.3359
3.0899	5.2675
3.0789	5.1999
3.068	5.287
3.0571	5.2344
3.0463	5.205
3.0356	4.9686
3.025	5.1711
3.0144	5.0991
3.004	5.0971
2.9935	5.0684
2.9832	4.8565
2.9729	4.8598
2.9628	4.686
2.9526	4.8107
2.9426	4.8294
2.9326	4.5919
2.9227	4.6752
2.9128	4.547
2.903	4.5329
2.8933	4.4311
2.8837	4.3092
2.8741	4.2348
2.8645	4.2744
2.8551	4.3997
2.8457	4.331
2.8363	4.3679
2.8271	4.4369
2.8178	4.5425
2.8087	4.4554
2.7996	4.6859
2.7906	4.6198
2.7816	4.7868
2.7726	4.562
2.7638	4.9691
2.755	4.8293
2.7462	4.871
2.7375	4.8526
2.7289	4.5847
2.7203	4.9728
2.7117	4.7831
2.7033	4.6029
2.6948	4.838
2.6864	4.6794
2.6781	4.6442
2.6698	4.7756
2.6616	4.6335
2.6534	4.7496
2.6453	4.5904
2.6372	4.7273
2.6292	4.5384
2.6212	4.8299
2.6133	4.6523
2.6054	4.4302
2.5976	4.697
2.5898	4.666
2.5821	4.541
2.5744	4.6456
2.5667	4.6437
2.5591	4.6974
2.5516	4.5048
2.5441	4.6291
2.5366	4.6014
2.5292	4.2595
2.5218	4.4867
2.5145	4.6803
2.5072	4.5745
2.4999	4.4795
2.4927	4.2558
2.4855	4.4151
2.4784	4.3742
2.4713	4.4088
2.4643	4.3644
2.4573	4.3827
2.4503	4.1692
2.4434	4.2368
2.4365	4.4006
2.4296	4.2899
2.4228	4.2405
2.416	4.1566
2.4093	4.4168
2.4026	4.2611
2.396	4.3823
2.3893	4.1842
2.3827	4.2462
2.3762	4.2665
2.3697	4.1535
2.3632	4.1955
2.3567	4.2442
2.3503	4.3132
2.344	4.338
2.3376	4.2242
2.3313	4.0212
2.325	4.2345
2.3188	4.3636
2.3126	4.2019
2.3064	4.0602
2.3003	4.0523
2.2942	4.2875
2.2881	3.9559
2.2821	3.9866
2.2761	4.1799
2.2701	4.063
2.2641	3.9819
2.2582	4.2134
2.2523	4.0846
2.2465	4.0351
2.2406	4.149
2.2348	4.2248
2.2291	3.8204
2.2233	4.0664
2.2176	4.3272
2.212	4.1655
2.2063	3.8534
2.2007	4.2671
2.1951	4.0153
2.1895	3.975
2.184	4.1552
2.1785	4.0925
2.173	4.1098
2.1676	3.9139
2.1622	3.8994
2.1568	4.0463
2.1514	3.9417
2.146	4.0222
2.1407	3.9171
2.1354	3.8651
2.1302	4.0835
2.1249	3.9618
2.1197	3.753
2.1145	3.7798
2.1094	4.0876
2.1042	3.9754
2.0991	4.1861
2.094	4.1066
2.089	3.9825
2.0839	3.7675
2.0789	3.4066
2.0739	3.5363
2.069	4.3119
2.064	3.9832
2.0591	4.1494
2.0542	3.6367
2.0493	4.0468
2.0445	3.9379
2.0397	3.6403
2.0349	4.0525
2.0301	4.0806
2.0253	3.9283
2.0206	4.1317
2.0159	3.7117
2.0112	3.8483
2.0065	3.8498
2.0019	4.0478
