Name: Lamp (Ebony) Black Paint
Type: Manmade
Class: General Construction Material
Subclass: Paint
Particle Size: Solid
Sample No.: DA67
Owner: JPL
Wavelength Range: TIR
Origin: DecoArt, P.O. Box 386, Stanford, KY 40084
Description: Lamp (ebony) black acrylic paint.  Liquid format, paint appliedwith a brush.Collected by JPL Original ASTER Spectral Library name was jpl.nicolet.manmade.construction.paint.solid.da67.spectrum.txt
Measurement: Hemispherical reflectance
X Units: Wavelength (micrometers)
Y Units: Reflectance (percent)
wavelength	value
14.0131	6.7896
13.7895	9.4794
13.5729	9.7874
13.363	9.2268
13.1595	9.6182
12.9621	9.7056
12.7705	9.4099
12.5845	8.7519
12.4039	8.7314
12.2284	9.1439
12.0578	9.2211
11.8918	9.4557
11.7304	9.5238
11.5733	8.6623
11.4203	7.2227
11.2714	8.2296
11.1263	8.4098
10.9848	8.2734
10.8469	8.1253
10.7125	7.6425
10.5813	6.92
10.4533	8.093
10.3284	8.7081
10.2064	8.7552
10.0872	8.3526
9.9708	8.2272
9.8571	7.6672
9.7459	7.1444
9.6372	7.0323
9.5309	6.876
9.427	6.7088
9.3252	6.7626
9.2257	6.7368
9.1282	6.5411
9.0328	6.1541
8.9394	5.9669
8.8478	5.8442
8.7582	5.9019
8.6703	6.3222
8.5842	6.5269
8.4997	6.3609
8.4169	6.7263
8.3357	6.9698
8.2561	7.2293
8.178	7.6798
8.1013	8.0895
8.0261	6.7115
7.9522	4.7
7.8797	3.7842
7.8085	5.2389
7.7386	6.6892
7.6699	7.1779
7.6024	7.5499
7.5361	7.7579
7.4709	7.7113
7.4069	7.1531
7.344	6.5853
7.2821	6.0161
7.2212	5.9983
7.1614	7.0123
7.1025	7.8981
7.0446	7.8387
6.9877	7.3117
6.9316	6.8887
6.8764	6.8785
6.8221	6.9618
6.7687	7.2369
6.7161	7.9865
6.6643	8.6449
6.6133	9.208
6.5631	9.8911
6.5136	10.0842
6.4649	10.4268
6.4169	9.9141
6.3696	8.9428
6.323	8.1816
6.277	8.1276
6.2318	8.1877
6.1871	8.2142
6.1432	8.2686
6.0998	8.2979
6.0571	8.4037
6.0149	8.4088
5.9733	8.3028
5.9323	8.0343
5.8919	7.5128
5.852	7.264
5.8126	6.656
5.7738	7.172
5.7354	4.9696
5.6976	2.8265
5.6603	6.9997
5.6235	8.1712
5.5871	7.1369
5.5512	7.0039
5.5158	8.6275
5.4808	9.0311
5.4463	9.076
5.4121	9.3103
5.3785	9.2377
5.3452	9.3779
5.3123	9.3565
5.2799	9.5326
5.2478	9.5475
5.2161	9.5077
5.1848	9.5848
5.1539	9.5268
5.1234	9.4626
5.0932	9.3591
5.0633	9.3374
5.0338	9.4152
5.0047	9.3038
4.9759	9.264
4.9474	9.0775
4.9192	9.161
4.8914	9.0852
4.8638	9.124
4.8366	9.1228
4.8097	9.097
4.7831	9.0541
4.7567	9.0884
4.7307	8.9791
4.7049	8.8346
4.6795	8.6382
4.6543	8.7553
4.6293	8.6936
4.6047	8.6486
4.5802	8.6958
4.5561	8.5312
4.5322	8.6401
4.5085	8.4837
4.4851	8.4518
4.462	8.4275
4.4391	8.4401
4.4164	8.4307
4.3939	8.3488
4.3717	8.3493
4.3497	8.3043
4.3279	8.3281
4.3063	8.1409
4.285	8.2112
4.2638	8.1403
4.2429	8.2042
4.2222	8.0156
4.2016	7.9979
4.1813	7.9688
4.1612	7.884
4.1412	7.9711
4.1215	7.8761
4.1019	7.8484
4.0826	7.6974
4.0633	7.646
4.0443	7.4721
4.0255	7.1937
4.0068	6.8639
3.9883	6.2356
3.97	6.1956
3.9519	6.488
3.9339	6.8928
3.916	6.9222
3.8984	6.9699
3.8809	6.8352
3.8635	6.9277
3.8463	6.892
3.8293	7.1159
3.8124	7.1206
3.7956	7.1622
3.779	7.3294
3.7626	7.1368
3.7463	7.2024
3.7301	7.0702
3.7141	7.1741
3.6982	7.064
3.6824	7.1017
3.6668	6.869
3.6513	7.1165
3.6359	6.9113
3.6207	6.8745
3.6056	6.825
3.5906	6.784
3.5758	6.6971
3.561	6.6359
3.5464	6.6932
3.5319	6.4604
3.5175	6.1076
3.5033	5.7575
3.4891	5.4673
3.4751	5.3373
3.4612	5.7441
3.4474	5.5295
3.4337	5.3382
3.4201	5.2198
3.4066	5.0666
3.3932	5.1776
3.3799	5.105
3.3668	4.9363
3.3537	5.3289
3.3407	5.727
3.3279	6.0198
3.3151	6.1443
3.3024	6.0659
3.2899	6.3116
3.2774	6.3964
3.265	6.3823
3.2527	6.3961
3.2405	6.2292
3.2284	6.2934
3.2164	6.181
3.2045	6.3027
3.1926	6.4491
3.1809	6.2905
3.1692	6.4523
3.1576	6.3031
3.1461	6.317
3.1347	6.2236
3.1234	6.0415
3.1121	6.184
3.101	6.1832
3.0899	6.286
3.0789	6.1194
3.068	6.2195
3.0571	6.1769
3.0463	6.1801
3.0356	6.1337
3.025	6.1205
3.0144	6.0893
3.004	6.0269
2.9935	5.9555
2.9832	6.1202
2.9729	6.0303
2.9628	5.9197
2.9526	6.0646
2.9426	5.9383
2.9326	5.9999
2.9227	6.0458
2.9128	6.0857
2.903	5.8153
2.8933	5.7355
2.8837	5.8713
2.8741	5.8908
2.8645	5.8791
2.8551	6.027
2.8457	5.8397
2.8363	5.8268
2.8271	6.0967
2.8178	5.9694
2.8087	5.9981
2.7996	6.0177
2.7906	5.7011
2.7816	5.8853
2.7726	5.6918
2.7638	5.5189
2.755	5.5809
2.7462	5.6391
2.7375	5.4432
2.7289	5.7241
2.7203	5.756
2.7117	5.857
2.7033	5.8649
2.6948	5.873
2.6864	5.6249
2.6781	5.9884
2.6698	6.022
2.6616	5.7616
2.6534	5.9171
2.6453	5.93
2.6372	5.7901
2.6292	5.6971
2.6212	5.7022
2.6133	5.5401
2.6054	5.997
2.5976	5.9576
2.5898	5.5626
2.5821	5.7314
2.5744	5.8143
2.5667	5.8665
2.5591	5.7338
2.5516	5.769
2.5441	5.7587
2.5366	5.5341
2.5292	5.6207
2.5218	5.7212
2.5145	5.6513
2.5072	5.7264
2.4999	5.5909
2.4927	5.6254
2.4855	5.6708
2.4784	5.7015
2.4713	5.7025
2.4643	5.5374
2.4573	5.6863
2.4503	5.6485
2.4434	5.5489
2.4365	5.917
2.4296	5.7717
2.4228	5.8036
2.416	5.5673
2.4093	5.6423
2.4026	5.4012
2.396	5.4619
2.3893	5.3432
2.3827	5.6088
2.3762	5.5277
2.3697	5.5912
2.3632	5.5991
2.3567	5.5031
2.3503	5.6425
2.344	5.6232
2.3376	5.7219
2.3313	5.4905
2.325	5.6881
2.3188	5.3682
2.3126	5.4358
2.3064	5.34
2.3003	5.7474
2.2942	5.2894
2.2881	5.591
2.2821	5.6775
2.2761	5.5386
2.2701	5.5189
2.2641	5.4384
2.2582	5.3157
2.2523	5.319
2.2465	5.4824
2.2406	5.4288
2.2348	5.5228
2.2291	5.4023
2.2233	5.3068
2.2176	5.5041
2.212	5.4569
2.2063	5.47
2.2007	5.531
2.1951	5.6249
2.1895	5.194
2.184	5.2779
2.1785	5.5348
2.173	5.3884
2.1676	5.508
2.1622	5.1597
2.1568	5.7831
2.1514	5.1806
2.146	5.3054
2.1407	5.6653
2.1354	5.013
2.1302	5.4803
2.1249	5.347
2.1197	5.3526
2.1145	5.2447
2.1094	5.2196
2.1042	5.5562
2.0991	5.3383
2.094	5.3261
2.089	5.2749
2.0839	5.2161
2.0789	5.3931
2.0739	5.2743
2.069	5.425
2.064	5.6604
2.0591	4.7102
2.0542	5.5082
2.0493	5.5811
2.0445	5.3031
2.0397	5.3882
2.0349	5.3932
2.0301	5.3346
2.0253	5.2727
2.0206	5.105
2.0159	5.3192
2.0112	5.161
2.0065	5.2742
2.0019	5.4856
