Name: Slate stone Shingle
Type: manmade
Class: Roofing Material
Subclass: Shingle
Particle Size: Solid
Sample No.: 0680UUUSTO
Owner: National Photographic Interpretation Center
Wavelength Range: All
Origin: Spectra obtained from the Noncoventional Exploitation FactorsData System of the National Photographic Interpretation Center.
Description: Weathered slate roofing shingle from government building roofing shingle. Sample was gray. Original ASTER Spectral Library name was jhu.becknic.manmade.roofing.shingle.solid.0680uuu.spectrum.txt
Measurement: Directional (10 Degree) Hemispherical Reflectance
X Units: Wavelength (micrometers)
Y Units: Reflectance (percent)
wavelength	value
0.3	10.23
0.304	10.48
0.308	10.69
0.312	10.87
0.316	11.05
0.32	11.55
0.324	11.65
0.328	11.74
0.332	11.82
0.336	11.89
0.34	11.96
0.344	12.04
0.348	12.14
0.352	12.23
0.356	12.35
0.36	12.48
0.364	12.61
0.368	12.75
0.372	12.91
0.376	13.1
0.38	13.4
0.384	13.64
0.388	13.91
0.392	14.18
0.396	14.41
0.4	14.61
0.404	14.76
0.408	14.9
0.412	15.03
0.416	15.17
0.42	15.29
0.424	15.42
0.428	15.54
0.432	15.66
0.436	15.77
0.44	15.87
0.444	15.98
0.448	16.06
0.452	16.13
0.456	16.17
0.46	16.22
0.464	16.27
0.468	16.32
0.472	16.37
0.476	16.41
0.48	16.46
0.484	16.5
0.488	16.53
0.492	16.55
0.496	16.57
0.5	16.62
0.504	16.66
0.508	16.7
0.512	16.72
0.516	16.74
0.52	16.76
0.524	16.78
0.528	16.79
0.532	16.81
0.536	16.83
0.54	16.85
0.544	16.88
0.548	16.92
0.552	16.97
0.556	17.03
0.56	17.1
0.564	17.16
0.568	17.26
0.572	17.38
0.576	17.5
0.58	17.61
0.584	17.72
0.588	17.82
0.592	17.91
0.596	17.98
0.6	18.03
0.604	18.08
0.608	18.11
0.612	18.13
0.616	18.14
0.62	18.15
0.624	18.15
0.628	18.15
0.632	18.14
0.636	18.14
0.64	18.14
0.644	18.13
0.648	18.13
0.652	18.13
0.656	18.13
0.66	18.13
0.664	18.14
0.668	18.15
0.672	18.16
0.676	18.18
0.68	18.21
0.684	18.22
0.688	18.25
0.692	18.32
0.696	18.36
0.7	18.4
0.704	18.45
0.708	18.5
0.712	18.56
0.716	18.62
0.72	18.67
0.724	18.74
0.728	18.8
0.732	18.88
0.736	18.95
0.74	19.01
0.744	19.08
0.748	19.14
0.752	19.2
0.756	19.26
0.76	19.31
0.764	19.36
0.768	19.4
0.772	19.44
0.776	19.48
0.78	19.5
0.784	19.53
0.788	19.54
0.792	19.55
0.796	19.55
0.8	19.54
0.84	19.15
0.88	18.96
0.92	18.99
0.96	18.76
1	19.08
1.04	18.96
1.08	18.55
1.12	18.25
1.16	17.99
1.2	17.88
1.24	17.84
1.28	17.84
1.32	17.76
1.36	17.69
1.4	17.24
1.44	17.48
1.48	17.45
1.52	17.33
1.56	17.27
1.6	17.21
1.64	17.24
1.68	17.18
1.72	17.22
1.76	17.16
1.8	17.18
1.84	17.12
1.88	17.05
1.92	16.94
1.96	16.99
2	17.04
2.04	17.09
2.08	17.24
2.12	17.31
2.16	17.22
2.2	16.37
2.24	16.8
2.28	16.5641
2.32	16.4696
2.36	15.5766
2.4	15.6927
2.44	15.5135
2.48	15.5552
2.52	15.8918
2.56	16.0483
2.6	15.8841
2.64	15.5692
2.68	15.0018
2.72	8.3402
2.76	4.7577
2.8	6.5263
2.84	7.3411
2.88	6.9055
2.92	6.6766
2.96	6.7923
3	7.2302
3.04	7.381
3.08	8.264
3.12	8.7834
3.16	9.7312
3.2	10.1956
3.24	10.7334
3.28	10.2873
3.32	10.8543
3.36	11.1716
3.4	11.4674
3.44	12.1562
3.48	12.9718
3.52	13.3268
3.56	13.8025
3.6	14.7225
3.64	15.2152
3.68	15.6125
3.72	15.8825
3.76	16.2565
3.8	16.2813
3.84	16.6145
3.88	16.8324
3.92	16.8669
3.96	16.9416
4	16.9159
4.04	17.0373
4.08	17.1459
4.12	17.0432
4.16	16.7642
4.2	16.5582
4.24	16.5908
4.28	16.4677
4.32	16.3842
4.36	16.3634
4.4	15.8203
4.44	15.3277
4.48	15.0419
4.52	15.0693
4.56	14.8831
4.6	14.5314
4.64	13.7922
4.68	13.2499
4.72	12.9793
4.76	12.385
4.8	11.9458
4.84	11.3614
4.88	10.8083
4.92	9.7621
4.96	8.9945
5	8.1378
5.2	7.8368
5.4	6.1833
5.6	6.0035
5.8	6.3483
6	5.8071
6.2	5.2364
6.4	6.5621
6.6	6.0583
6.8	5.9332
7	5.5606
7.2	6.7349
7.4	7.5221
7.6	8.285
7.8	8.9345
8	12.383
8.2	18.1141
8.4	20.5378
8.6	21.3495
8.8	28.3847
9	31.2044
9.2	32.1031
9.4	26.4374
9.6	27.6825
9.8	23.3028
10	21.2883
10.2	18.0778
10.4	13.6782
10.6	10.9698
10.8	9.8774
11	9.6079
11.2	8.2424
11.4	7.2855
11.6	6.6181
11.8	5.493
12	4.9415
12.2	4.1917
12.4	5.0678
12.6	6.3559
12.8	7.0082
13	6.941
13.2	6.6969
13.4	6.6765
13.6	6.0438
13.8	5.601
14	5.3297
