Name: Black paint
Type: manmade
Class: General Construction Material
Subclass: Paint
Particle Size: Solid
Sample No.: 0406UUUPNT
Owner: National Photographic Interpretation Center
Wavelength Range: All
Origin: Spectra obtained from the Noncoventional Exploitation FactorsData System of the National Photographic Interpretation Center.
Description: Two smooth, slightly translucent coats of alkyd gloss paint on construction lumber (pine wood).  Black paint from the Great Life series by Martin Senour Paints. Original ASTER Spectral Library name was jhu.becknic.manmade.construction.paint.solid.0406uuu.spectrum.txt
Measurement: Directional (10 Degree) Hemispherical Reflectance
X Units: Wavelength (micrometers)
Y Units: Reflectance (percent)
wavelength	value
0.42	2.8308
0.424	3.9648
0.428	3.1461
0.432	3.3862
0.436	3.3264
0.44	3.3325
0.444	3.2552
0.448	3.3824
0.452	3.3119
0.456	3.369
0.46	3.4482
0.464	3.3992
0.468	3.3982
0.472	3.4892
0.476	3.497
0.48	3.4797
0.484	3.5105
0.488	3.4759
0.492	3.4808
0.496	3.4839
0.5	3.5068
0.504	3.5207
0.508	3.5292
0.512	3.526
0.516	3.5336
0.52	3.5379
0.524	3.5381
0.528	3.5385
0.532	3.5465
0.536	3.5688
0.54	3.5737
0.544	3.5687
0.548	3.5845
0.552	3.5963
0.556	3.6072
0.56	3.6234
0.564	3.6147
0.568	3.5967
0.572	3.6393
0.576	3.5981
0.58	3.5959
0.584	3.5846
0.588	3.6055
0.592	3.5815
0.596	3.5692
0.6	3.564
0.604	3.5299
0.608	3.5462
0.612	3.5174
0.616	3.468
0.62	3.5105
0.624	3.5099
0.628	3.5197
0.632	3.539
0.636	3.5408
0.64	3.5705
0.644	3.5976
0.648	3.5859
0.652	3.6076
0.656	3.6236
0.66	3.652
0.664	3.6479
0.668	3.652
0.672	3.6582
0.676	3.6724
0.68	3.6508
0.684	3.6406
0.688	3.6616
0.692	3.6645
0.696	3.6572
0.7	3.6768
0.704	3.6509
0.708	3.6583
0.712	3.6793
0.716	3.6626
0.72	3.6718
0.724	3.6823
0.728	3.6648
0.732	3.6476
0.736	3.6869
0.74	3.6546
0.744	3.6673
0.748	3.6977
0.752	3.6893
0.756	3.7071
0.76	3.6697
0.764	3.6818
0.768	3.6773
0.772	3.7056
0.776	3.6874
0.78	3.6591
0.784	3.6947
0.788	3.6899
0.792	3.7096
0.796	3.6831
0.8	3.7068
0.84	3.7177
0.88	3.7754
0.92	3.8056
0.96	3.8472
1	3.87
1.04	3.8748
1.08	3.8894
1.12	3.8851
1.16	3.8903
1.2	3.9269
1.24	3.9879
1.28	3.9714
1.32	3.9578
1.36	4.0837
1.4	4.0039
1.44	3.9716
1.48	3.9975
1.52	4.0314
1.56	4.0611
1.6	4.0375
1.64	4.0709
1.68	4.0546
1.72	4.0501
1.76	4.0425
1.8	4.0618
1.84	4.2201
1.88	4.1345
1.92	4.0918
1.96	4.0382
2	4.0937
2.04	4.0951
2.08	4.1016
2.12	4.1107
2.16	4.1794
2.2	4.196
2.24	4.1811
2.28	4.0933
2.32	4.1849
2.36	4.2698
2.4	4.2907
2.44	4.1069
2.48	4.09
2.52	4.171
2.56	4.1882
2.6	4.1654
2.64	4.2568
2.68	4.0268
2.72	4.0132
2.76	3.9724
2.8	3.8681
2.84	3.8097
2.88	3.8986
2.92	3.8916
2.96	3.9529
3	3.9632
3.04	3.9604
3.08	3.9358
3.12	3.9089
3.16	3.9311
3.2	3.9278
3.24	3.8885
3.28	3.8893
3.32	3.7958
3.36	3.6804
3.4	3.6813
3.44	4.2697
3.48	4.0945
3.52	4.3555
3.56	4.2713
3.6	4.234
3.64	4.2649
3.68	4.2416
3.72	4.2093
3.76	4.2462
3.8	4.2378
3.84	4.2306
3.88	4.2247
3.92	4.2705
3.96	4.2636
4	4.2508
4.04	4.298
4.08	4.2797
4.12	4.2814
4.16	4.2818
4.2	4.3038
4.24	4.3276
4.28	4.3026
4.32	4.3419
4.36	4.3102
4.4	4.3068
4.44	4.2821
4.48	4.2784
4.52	4.293
4.56	4.2652
4.6	4.2542
4.64	4.255
4.68	4.2449
4.72	4.2446
4.76	4.2386
4.8	4.2326
4.84	4.1915
4.88	4.196
4.92	4.2063
4.96	4.2264
5	4.1942
5.2	4.1916
5.4	4.0422
5.6	3.3891
5.8	5.1119
6	4.4218
6.2	4.1772
6.4	4.2253
6.6	4.0363
6.8	3.565
7	3.8928
7.2	3.7711
7.4	3.6638
7.6	3.188
7.8	3.7182
8	4.6683
8.2	4.3023
8.4	3.953
8.6	4.2307
8.8	4.405
9	5.1533
9.2	5.3437
9.4	6.556
9.6	6.1093
9.8	6.1445
10	5.8941
10.2	5.6381
10.4	5.5382
10.6	5.3391
10.8	5.278
11	5.237
11.2	5.1752
11.4	5.1663
11.6	5.1009
11.8	5.0343
12	4.9661
12.2	4.7988
12.4	4.5227
12.6	4.9915
12.8	4.9396
13	5.1183
13.2	4.868
13.4	4.9006
13.6	5.2942
13.8	5.0838
14	4.9587
