Name: Construction Tar
Type: manmade
Class: Road
Subclass: Tar
Particle Size: Solid
Sample No.: 0100UUUTAR
Owner: National Photographic Interpretation Center
Wavelength Range: All
Origin: Spectra obtained from the Noncoventional Exploitation FactorsData System of the National Photographic Interpretation Center.
Description: Road Asphalts and Tar. Black, glossy construction tar. Original ASTER Spectral Library name was jhu.becknic.manmade.asphalt.tar.solid.0100uuu.spectrum.txt
Measurement: Directional (10 Degree) Hemispherical Reflectance
X Units: Wavelength (micrometers)
Y Units: Reflectance (percent)
wavelength	value
0.42	8.632
0.424	8.0031
0.428	7.9981
0.432	7.8694
0.436	7.9223
0.44	7.8762
0.444	7.786
0.448	7.8268
0.452	7.7961
0.456	7.7984
0.46	7.7677
0.464	7.7314
0.468	7.6934
0.472	7.6788
0.476	7.6493
0.48	7.645
0.484	7.6127
0.488	7.5922
0.492	7.572
0.496	7.5415
0.5	7.5236
0.504	7.4906
0.508	7.476
0.512	7.4597
0.516	7.4449
0.52	7.4132
0.524	7.3927
0.528	7.3803
0.532	7.3661
0.536	7.3533
0.54	7.3406
0.544	7.3251
0.548	7.2988
0.552	7.2663
0.556	7.2554
0.56	7.2457
0.564	7.2083
0.568	7.0725
0.572	7.0062
0.576	7.1524
0.58	7.2548
0.584	7.2236
0.588	7.1546
0.592	7.1956
0.596	7.2648
0.6	7.1547
0.604	7.0347
0.608	7.0435
0.612	7.1381
0.616	7.1527
0.62	7.0213
0.624	6.9243
0.628	6.9111
0.632	6.9411
0.636	6.9912
0.64	7.042
0.644	6.9984
0.648	6.8253
0.652	6.9026
0.656	6.9949
0.66	7.0334
0.664	7.0748
0.668	7.0519
0.672	6.9853
0.676	7.0188
0.68	7.0398
0.684	6.9734
0.688	6.9924
0.692	7.0278
0.696	7.0326
0.7	7.0204
0.704	7.0258
0.708	6.9965
0.712	6.9962
0.716	7.013
0.72	7.0133
0.724	6.9866
0.728	6.9765
0.732	6.9712
0.736	6.9938
0.74	6.9775
0.744	6.9755
0.748	6.9661
0.752	6.9832
0.756	6.9747
0.76	6.9753
0.764	6.9681
0.768	6.9813
0.772	6.9716
0.776	6.9667
0.78	6.9536
0.784	6.9617
0.788	6.9749
0.792	6.9637
0.796	6.9634
0.8	6.9636
0.84	6.9753
0.88	6.97
0.92	6.977
0.96	6.9803
1	6.9605
1.04	6.9445
1.08	6.9496
1.12	6.9476
1.16	7.0392
1.2	7.087
1.24	7.1636
1.28	7.1734
1.32	7.0782
1.36	7.1096
1.4	7.3375
1.44	7.3746
1.48	7.2887
1.52	7.1821
1.56	7.2026
1.6	7.2419
1.64	7.2468
1.68	7.1955
1.72	7.1832
1.76	7.1754
1.8	7.1796
1.84	7.2394
1.88	7.3739
1.92	7.3971
1.96	7.3529
2	7.2703
2.04	7.266
2.08	7.2068
2.12	7.3053
2.16	7.3136
2.2	7.3768
2.24	7.3162
2.28	7.2645
2.32	7.214
2.36	7.2086
2.4	7.0837
2.44	7.1157
2.48	7.1298
2.52	7.12
2.56	7.1259
2.6	7.1307
2.64	7.1024
2.68	7.1053
2.72	7.1055
2.76	7.06
2.8	7.0699
2.84	7.0582
2.88	7.0767
2.92	6.9568
2.96	7.0501
3	7.0202
3.04	7.0114
3.08	6.9623
3.12	6.9583
3.16	6.9486
3.2	6.9345
3.24	6.798
3.28	6.6389
3.32	6.8504
3.36	6.9055
3.4	6.9393
3.44	7.046
3.48	7.0254
3.52	7.0929
3.56	7.1113
3.6	7.096
3.64	7.1042
3.68	7.1028
3.72	7.1179
3.76	7.132
3.8	7.1266
3.84	7.1382
3.88	7.1203
3.92	7.1389
3.96	7.1564
4	7.1537
4.04	7.1701
4.08	7.1787
4.12	7.1879
4.16	7.219
4.2	7.2051
4.24	7.2055
4.28	7.2152
4.32	7.2224
4.36	7.2305
4.4	7.2487
4.44	7.2525
4.48	7.2437
4.52	7.2391
4.56	7.268
4.6	7.2669
4.64	7.2848
4.68	7.2634
4.72	7.2733
4.76	7.2629
4.8	7.2714
4.84	7.2686
4.88	7.2631
4.92	7.2595
4.96	7.2534
5	7.2547
5.2	7.0333
5.4	7.1038
5.6	6.9582
5.8	6.7507
6	6.5163
6.2	6.3916
6.4	6.7093
6.6	6.5709
6.8	6.4726
7	6.6981
7.2	6.6631
7.4	6.6483
7.6	6.6648
7.8	6.6466
8	6.7307
8.2	6.7905
8.4	6.8119
8.6	6.9327
8.8	7.0501
9	7.1643
9.2	7.1914
9.4	7.1681
9.6	7.1309
9.8	7.2171
10	7.1644
10.2	7.0676
10.4	6.9013
10.6	6.8761
10.8	6.815
11	6.6398
11.2	6.4444
11.4	6.5204
11.6	6.5654
11.8	6.3457
12	6.503
12.2	6.5017
12.4	6.7435
12.6	6.6599
12.8	6.4015
13	6.4494
13.2	6.5552
13.4	7.2009
13.6	7.5672
13.8	7.4309
14	7.1509
