Name: Copper Metal
Type: manmade
Class: Roofing Material
Subclass: Metal
Particle Size: Solid
Sample No.: 0681UUUCOP
Owner: National Photographic Interpretation Center
Wavelength Range: All
Origin: Spectra obtained from the Noncoventional Exploitation FactorsData System of the National Photographic Interpretation Center.
Description: Slightly weathered bare copper metal from government building roof flashing. Original ASTER Spectral Library name was jhu.becknic.manmade.roofing.metal.solid.0681uuu.spectrum.txt
Measurement: Directional (10 Degree) Hemispherical Reflectance
X Units: Wavelength (micrometers)
Y Units: Reflectance (percent)
wavelength	value
0.3	6.74
0.304	6.85
0.308	6.94
0.312	7.03
0.316	7.15
0.32	7.47
0.324	7.57
0.328	7.67
0.332	7.77
0.336	7.88
0.34	7.98
0.344	8.08
0.348	8.2
0.352	8.31
0.356	8.45
0.36	8.58
0.364	8.73
0.368	8.89
0.372	9.06
0.376	9.25
0.38	9.41
0.384	9.61
0.388	9.83
0.392	10.04
0.396	10.23
0.4	10.42
0.404	10.59
0.408	10.75
0.412	10.9
0.416	11.06
0.42	11.22
0.424	11.39
0.428	11.55
0.432	11.73
0.436	11.9
0.44	12.06
0.444	12.2
0.448	12.34
0.452	12.46
0.456	12.57
0.46	12.67
0.464	12.76
0.468	12.83
0.472	12.91
0.476	13
0.48	13.1
0.484	13.19
0.488	13.3
0.492	13.42
0.496	13.55
0.5	13.7
0.504	13.84
0.508	13.99
0.512	14.14
0.516	14.28
0.52	14.43
0.524	14.58
0.528	14.73
0.532	14.89
0.536	15.04
0.54	15.19
0.544	15.34
0.548	15.49
0.552	15.65
0.556	15.8
0.56	15.95
0.564	16.1
0.568	16.23
0.572	16.35
0.576	16.47
0.58	16.57
0.584	16.66
0.588	16.75
0.592	16.82
0.596	16.89
0.6	16.94
0.604	16.99
0.608	17.01
0.612	17.04
0.616	17.06
0.62	17.07
0.624	17.08
0.628	17.08
0.632	17.08
0.636	17.07
0.64	17.06
0.644	17.05
0.648	17.03
0.652	17.02
0.656	17
0.66	16.98
0.664	16.96
0.668	16.94
0.672	16.92
0.676	16.9
0.68	16.87
0.684	16.84
0.688	16.81
0.692	16.78
0.696	16.76
0.7	16.75
0.704	16.73
0.708	16.71
0.712	16.69
0.716	16.66
0.72	16.65
0.724	16.62
0.728	16.61
0.732	16.59
0.736	16.57
0.74	16.55
0.744	16.54
0.748	16.52
0.752	16.5
0.756	16.48
0.76	16.47
0.764	16.45
0.768	16.43
0.772	16.41
0.776	16.4
0.78	16.38
0.784	16.37
0.788	16.34
0.792	16.33
0.796	16.3
0.8	16.29
0.84	16.09
0.88	16.1
0.92	15.62
0.96	15.5
1	15.43
1.04	15.28
1.08	15.1
1.12	14.95
1.16	14.76
1.2	14.56
1.24	14.35
1.28	14.11
1.32	13.88
1.36	13.64
1.4	13.39
1.44	13.12
1.48	12.9
1.52	12.78
1.56	12.56
1.6	12.4
1.64	12.27
1.68	12.05
1.72	11.97
1.76	11.78
1.8	11.67
1.84	11.46
1.88	11.34
1.92	10.98
1.96	10.91
2	10.94
2.04	10.88
2.08	10.79
2.12	10.73
2.16	10.63
2.2	10.47
2.24	10.32
2.28	10.3094
2.32	10.3191
2.36	10.1605
2.4	9.9288
2.44	9.7475
2.48	9.7133
2.52	9.5939
2.56	9.5636
2.6	9.5198
2.64	9.3511
2.68	8.9824
2.72	7.3921
2.76	6.0363
2.8	5.2891
2.84	4.6672
2.88	4.4571
2.92	4.2472
2.96	4.1663
3	4.3114
3.04	4.413
3.08	4.5625
3.12	4.7884
3.16	4.6885
3.2	5.0305
3.24	5.1052
3.28	5.2786
3.32	5.1653
3.36	4.9373
3.4	4.5655
3.44	4.5959
3.48	4.7048
3.52	5.2096
3.56	5.5205
3.6	5.8248
3.64	5.9478
3.68	6.0759
3.72	6.1366
3.76	6.3601
3.8	6.3485
3.84	6.4284
3.88	6.5915
3.92	6.8493
3.96	6.7443
4	6.9426
4.04	7.1547
4.08	7.2333
4.12	7.3033
4.16	7.3817
4.2	7.4331
4.24	7.4535
4.28	7.1919
4.32	7.4392
4.36	7.4755
4.4	7.3929
4.44	7.3778
4.48	7.3848
4.52	7.3634
4.56	7.2511
4.6	7.1436
4.64	7.1954
4.68	7.146
4.72	7.118
4.76	7.1097
4.8	7.0633
4.84	6.9754
4.88	6.9393
4.92	6.887
4.96	6.8674
5	6.8769
5.2	6.9266
5.4	6.8294
5.6	6.3518
5.8	4.9691
6	3.6013
6.2	3.3822
6.4	3.509
6.6	3.7482
6.8	3.6175
7	3.4787
7.2	3.6826
7.4	3.9865
7.6	4.1978
7.8	4.3783
8	4.2933
8.2	3.9206
8.4	3.1299
8.6	2.6675
8.8	2.5693
9	3.0222
9.2	3.7161
9.4	3.8434
9.6	4.5806
9.8	4.6829
10	4.7042
10.2	4.3481
10.4	4.3722
10.6	4.322
10.8	4.0893
11	3.9013
11.2	3.7588
11.4	3.4593
11.6	3.179
11.8	2.9526
12	2.9865
12.2	2.8814
12.4	3.5866
