Name: Gloss Black Paint
Type: Manmade
Class: General Construction Material
Subclass: Paint
Particle Size: Solid
Sample No.: 1247
Owner: JPL
Wavelength Range: TIR
Origin: The Testor Corp., 620 Buckbee St., Rockford, IL 61104
Description: Glossy black spray enamel paintCollected by JPL Original ASTER Spectral Library name was jpl.nicolet.manmade.construction.paint.solid.1247.spectrum.txt
Measurement: Hemispherical reflectance
X Units: Wavelength (micrometers)
Y Units: Reflectance (percent)
wavelength	value
14.0131	7.7728
13.7895	8.4706
13.5729	7.7176
13.363	6.996
13.1595	8.9846
12.9621	8.4277
12.7705	6.1096
12.5845	7.6552
12.4039	7.8528
12.2284	6.1683
12.0578	8.0329
11.8918	7.9964
11.7304	7.7166
11.5733	7.6456
11.4203	7.9138
11.2714	7.8267
11.1263	8.0142
10.9848	8.5786
10.8469	8.7839
10.7125	8.4746
10.5813	7.7607
10.4533	6.8566
10.3284	6.052
10.2064	5.9022
10.0872	5.9479
9.9708	5.7982
9.8571	6.3143
9.7459	6.285
9.6372	6.1013
9.5309	6.2662
9.427	6.2027
9.3252	5.699
9.2257	5.702
9.1282	6.1947
9.0328	6.0439
8.9394	5.5597
8.8478	5.2381
8.7582	5.1345
8.6703	5.1958
8.5842	5.1013
8.4997	5.1113
8.4169	5.2478
8.3357	5.2467
8.2561	5.4948
8.178	5.9932
8.1013	5.6666
8.0261	5.7309
7.9522	5.6165
7.8797	5.3571
7.8085	4.9517
7.7386	4.5742
7.6699	4.4643
7.6024	4.5761
7.5361	4.8854
7.4709	4.8697
7.4069	4.8034
7.344	4.8403
7.2821	4.9012
7.2212	4.7475
7.1614	5.025
7.1025	5.2852
7.0446	5.3941
6.9877	5.4301
6.9316	5.0429
6.8764	4.9265
6.8221	4.634
6.7687	4.8003
6.7161	4.7341
6.6643	5.1203
6.6133	4.7148
6.5631	5.232
6.5136	5.3716
6.4649	5.6427
6.4169	5.7742
6.3696	5.916
6.323	5.42
6.277	5.5755
6.2318	5.03
6.1871	5.5606
6.1432	5.3304
6.0998	5.4193
6.0571	5.3296
6.0149	5.3994
5.9733	5.3977
5.9323	5.5366
5.8919	5.3712
5.852	5.2821
5.8126	5.2886
5.7738	4.9589
5.7354	3.8689
5.6976	3.9266
5.6603	4.6511
5.6235	5.0953
5.5871	5.2299
5.5512	5.172
5.5158	5.1705
5.4808	5.027
5.4463	5.076
5.4121	5.1266
5.3785	5.1731
5.3452	5.2341
5.3123	5.3034
5.2799	5.4021
5.2478	5.3228
5.2161	5.3212
5.1848	5.1851
5.1539	5.1939
5.1234	5.1348
5.0932	5.1909
5.0633	5.1497
5.0338	5.0363
5.0047	5.1605
4.9759	5.1601
4.9474	5.1628
4.9192	5.0967
4.8914	4.9795
4.8638	5.2554
4.8366	5.1566
4.8097	5.0351
4.7831	5.1265
4.7567	5.0322
4.7307	5.0414
4.7049	5.0342
4.6795	4.9534
4.6543	5.043
4.6293	5.0241
4.6047	5.0897
4.5802	5.0222
4.5561	5.0945
4.5322	5.047
4.5085	4.9549
4.4851	5.0166
4.462	4.9292
4.4391	4.9262
4.4164	4.8998
4.3939	4.8103
4.3717	4.8905
4.3497	4.8777
4.3279	4.8394
4.3063	4.7347
4.285	4.757
4.2638	4.7972
4.2429	4.9148
4.2222	4.864
4.2016	4.8665
4.1813	4.8408
4.1612	4.9442
4.1412	4.9222
4.1215	4.9167
4.1019	4.8462
4.0826	4.8191
4.0633	4.8282
4.0443	4.7793
4.0255	4.7963
4.0068	4.8499
3.9883	4.8365
3.97	4.8039
3.9519	4.7427
3.9339	4.8117
3.916	4.7838
3.8984	4.8176
3.8809	4.7909
3.8635	4.8159
3.8463	4.7397
3.8293	4.7193
3.8124	4.7639
3.7956	4.7632
3.779	4.7841
3.7626	4.7694
3.7463	4.7709
3.7301	4.7744
3.7141	4.6628
3.6982	4.8201
3.6824	4.8738
3.6668	4.7671
3.6513	4.8726
3.6359	4.7358
3.6207	4.7582
3.6056	4.81
3.5906	4.7031
3.5758	4.7375
3.561	4.775
3.5464	4.785
3.5319	4.8592
3.5175	4.712
3.5033	4.5312
3.4891	4.6311
3.4751	4.6238
3.4612	4.5748
3.4474	4.5726
3.4337	4.6774
3.4201	4.4873
3.4066	4.145
3.3932	4.204
3.3799	4.0363
3.3668	4.1309
3.3537	4.3013
3.3407	4.4158
3.3279	4.3897
3.3151	4.1928
3.3024	4.3531
3.2899	4.3343
3.2774	4.3124
3.265	4.5846
3.2527	4.5191
3.2405	4.3468
3.2284	4.4597
3.2164	4.4506
3.2045	4.5563
3.1926	4.5066
3.1809	4.4858
3.1692	4.5789
3.1576	4.6492
3.1461	4.5725
3.1347	4.5008
3.1234	4.6798
3.1121	4.5239
3.101	4.4885
3.0899	4.6412
3.0789	4.4887
3.068	4.6535
3.0571	4.5498
3.0463	4.5438
3.0356	4.3954
3.025	4.5668
3.0144	4.3682
3.004	4.4175
2.9935	4.5101
2.9832	4.5057
2.9729	4.4142
2.9628	4.4761
2.9526	4.4996
2.9426	4.6022
2.9326	4.6193
2.9227	4.6221
2.9128	4.5321
2.903	4.3678
2.8933	4.5841
2.8837	4.7805
2.8741	4.3442
2.8645	4.3663
2.8551	4.4582
2.8457	4.2557
2.8363	4.4718
2.8271	4.5169
2.8178	4.2177
2.8087	4.4265
2.7996	4.4515
2.7906	4.5733
2.7816	4.6661
2.7726	4.4607
2.7638	4.5861
2.755	4.6417
2.7462	4.3123
2.7375	4.4995
2.7289	4.4963
2.7203	4.4389
2.7117	4.6507
2.7033	4.6137
2.6948	4.352
2.6864	4.4902
2.6781	4.7002
2.6698	4.5279
2.6616	4.3849
2.6534	4.3718
2.6453	4.5798
2.6372	4.3885
2.6292	4.4575
2.6212	4.6295
2.6133	4.5602
2.6054	4.532
2.5976	4.3403
2.5898	4.5521
2.5821	4.5156
2.5744	4.4853
2.5667	4.4554
2.5591	4.3852
2.5516	4.3985
2.5441	4.419
2.5366	4.6863
2.5292	4.4026
2.5218	4.7184
2.5145	4.4192
2.5072	4.6737
2.4999	4.5807
2.4927	4.4657
2.4855	4.6487
2.4784	4.4716
2.4713	4.4772
2.4643	4.5589
2.4573	4.5317
2.4503	4.4958
2.4434	4.5785
2.4365	4.2703
2.4296	4.4863
2.4228	4.4961
2.416	4.2932
2.4093	4.463
2.4026	4.4369
2.396	4.5094
2.3893	4.2844
2.3827	4.4645
2.3762	4.4191
2.3697	4.5115
2.3632	4.5757
2.3567	4.5466
2.3503	4.3915
2.344	4.5232
2.3376	4.4781
2.3313	4.4949
2.325	4.4457
2.3188	4.5318
2.3126	4.6873
2.3064	4.404
2.3003	4.4666
2.2942	4.593
2.2881	4.6117
2.2821	4.5485
2.2761	4.3417
2.2701	4.4957
2.2641	4.5881
2.2582	4.4875
2.2523	4.5964
2.2465	4.5078
2.2406	4.8579
2.2348	4.6855
2.2291	4.2654
2.2233	4.4948
2.2176	4.5248
2.212	4.5089
2.2063	4.4184
2.2007	4.4344
2.1951	4.554
2.1895	4.534
2.184	4.2607
2.1785	4.5362
2.173	4.8267
2.1676	4.4863
2.1622	4.3457
2.1568	4.4105
2.1514	4.8337
2.146	4.7874
2.1407	4.3238
2.1354	4.3284
2.1302	4.5465
2.1249	4.5672
2.1197	4.8479
2.1145	4.1862
2.1094	4.3379
2.1042	4.7856
2.0991	4.7043
2.094	4.3064
2.089	4.4736
2.0839	4.5461
2.0789	4.0339
2.0739	4.2334
2.069	4.3722
2.064	4.4959
2.0591	4.2892
2.0542	4.6949
2.0493	4.4226
2.0445	4.5112
2.0397	4.3426
2.0349	4.9189
2.0301	4.6134
2.0253	4.3364
2.0206	4.576
2.0159	4.5026
2.0112	4.6724
2.0065	4.3991
2.0019	4.6268
