Name: Metallic Silver Paint
Type: Manmade
Class: General Construction Material
Subclass: Paint
Particle Size: Solid
Sample No.: 1246
Owner: JPL
Wavelength Range: TIR
Origin: The Testor Corp., 620 Buckbee St., Rockford, IL 61104
Description: Metallic silver spray enamel paintCollected by JPL Original ASTER Spectral Library name was jpl.nicolet.manmade.construction.paint.solid.1246.spectrum.txt
Measurement: Hemispherical reflectance
X Units: Wavelength (micrometers)
Y Units: Reflectance (percent)
wavelength	value
14.0131	60.8621
13.7895	60.7526
13.5729	60.6443
13.363	60.5802
13.1595	60.5072
12.9621	60.4678
12.7705	60.3363
12.5845	60.2312
12.4039	60.2598
12.2284	60.2453
12.0578	60.0103
11.8918	59.9034
11.7304	59.8866
11.5733	59.6546
11.4203	59.486
11.2714	59.5602
11.1263	59.3323
10.9848	59.1815
10.8469	59.0541
10.7125	58.7902
10.5813	58.6191
10.4533	58.3812
10.3284	58.5214
10.2064	58.443
10.0872	58.5545
9.9708	58.5533
9.8571	58.5883
9.7459	58.5036
9.6372	58.3396
9.5309	58.1576
9.427	58.01
9.3252	58
9.2257	57.8853
9.1282	57.9371
9.0328	57.8433
8.9394	58.087
8.8478	58.1213
8.7582	58.0941
8.6703	57.8106
8.5842	57.4478
8.4997	57.2019
8.4169	57.1909
8.3357	57.2793
8.2561	57.7736
8.178	58.0939
8.1013	57.9197
8.0261	57.7604
7.9522	57.6606
7.8797	57.9574
7.8085	57.9879
7.7386	58.1691
7.6699	58.0555
7.6024	58.2993
7.5361	58.565
7.4709	58.6276
7.4069	58.328
7.344	58.2077
7.2821	58.2289
7.2212	57.9876
7.1614	58.8149
7.1025	58.7738
7.0446	58.6037
6.9877	58.664
6.9316	58.3061
6.8764	57.945
6.8221	57.8687
6.7687	58.7007
6.7161	59.2992
6.6643	59.46
6.6133	59.6421
6.5631	59.7266
6.5136	59.6827
6.4649	59.7538
6.4169	60.0499
6.3696	59.704
6.323	59.5206
6.277	59.6087
6.2318	59.6619
6.1871	59.7648
6.1432	59.7598
6.0998	59.7129
6.0571	59.7833
6.0149	59.5183
5.9733	59.4106
5.9323	58.9559
5.8919	58.2399
5.852	57.6389
5.8126	57.3737
5.7738	56.4609
5.7354	55.1696
5.6976	55.084
5.6603	57.5928
5.6235	59.2528
5.5871	59.5104
5.5512	59.6628
5.5158	59.7837
5.4808	59.7498
5.4463	59.8817
5.4121	59.835
5.3785	59.8983
5.3452	59.955
5.3123	59.9741
5.2799	59.9895
5.2478	60.0044
5.2161	60.1436
5.1848	59.9596
5.1539	60.029
5.1234	60.0761
5.0932	60.0278
5.0633	60.1122
5.0338	60.1834
5.0047	60.0471
4.9759	60.1614
4.9474	60.0723
4.9192	60.1369
4.8914	60.179
4.8638	60.191
4.8366	60.1051
4.8097	60.1882
4.7831	60.174
4.7567	60.1849
4.7307	60.2326
4.7049	60.2529
4.6795	60.354
4.6543	60.3051
4.6293	60.3477
4.6047	60.3129
4.5802	60.3295
4.5561	60.3728
4.5322	60.3536
4.5085	60.3799
4.4851	60.4685
4.462	60.4074
4.4391	60.3637
4.4164	60.414
4.3939	60.4383
4.3717	60.5355
4.3497	60.5587
4.3279	60.4319
4.3063	60.4839
4.285	60.434
4.2638	60.5407
4.2429	60.5957
4.2222	60.5549
4.2016	60.5931
4.1813	60.6771
4.1612	60.6827
4.1412	60.7164
4.1215	60.6528
4.1019	60.6905
4.0826	60.7264
4.0633	60.7636
4.0443	60.6867
4.0255	60.7618
4.0068	60.7857
3.9883	60.7951
3.97	60.8774
3.9519	60.7944
3.9339	60.8281
3.916	60.9297
3.8984	60.8617
3.8809	60.8406
3.8635	60.8732
3.8463	60.8706
3.8293	60.8304
3.8124	60.8834
3.7956	60.8949
3.779	60.9316
3.7626	60.9734
3.7463	60.9791
3.7301	60.9583
3.7141	60.9193
3.6982	61.0333
3.6824	61.0256
3.6668	60.9894
3.6513	61.0666
3.6359	61.0479
3.6207	60.9395
3.6056	61.0112
3.5906	60.9299
3.5758	60.88
3.561	60.789
3.5464	60.6845
3.5319	60.4009
3.5175	59.7599
3.5033	58.5398
3.4891	58.3586
3.4751	58.2179
3.4612	58.9123
3.4474	58.6639
3.4337	57.9018
3.4201	56.7282
3.4066	56.4469
3.3932	57.4425
3.3799	57.3836
3.3668	57.841
3.3537	59.6126
3.3407	60.6964
3.3279	61.2058
3.3151	61.5268
3.3024	61.6626
3.2899	61.6004
3.2774	61.5988
3.265	61.673
3.2527	61.8294
3.2405	61.9174
3.2284	61.9284
3.2164	61.8425
3.2045	61.7977
3.1926	61.8959
3.1809	61.9814
3.1692	61.923
3.1576	61.9466
3.1461	61.9808
3.1347	61.8796
3.1234	61.8542
3.1121	61.9668
3.101	61.9771
3.0899	61.861
3.0789	61.9451
3.068	62.0348
3.0571	61.7696
3.0463	61.7782
3.0356	61.8244
3.025	61.7755
3.0144	61.6936
3.004	61.5113
2.9935	61.6126
2.9832	61.6027
2.9729	61.5024
2.9628	61.4816
2.9526	61.3578
2.9426	61.2765
2.9326	61.3338
2.9227	61.357
2.9128	61.2122
2.903	61.2481
2.8933	61.1984
2.8837	61.0621
2.8741	61.0344
2.8645	61.1498
2.8551	61.2399
2.8457	61.2165
2.8363	61.2865
2.8271	61.5208
2.8178	61.6828
2.8087	61.7324
2.7996	61.9454
2.7906	62.1065
2.7816	62.4524
2.7726	62.4138
2.7638	62.7448
2.755	62.6884
2.7462	62.5914
2.7375	62.6774
2.7289	62.6321
2.7203	62.8311
2.7117	62.8727
2.7033	62.5927
2.6948	62.8779
2.6864	62.6996
2.6781	62.867
2.6698	62.9477
2.6616	62.8064
2.6534	62.794
2.6453	62.8592
2.6372	62.8373
2.6292	62.8817
2.6212	63.0345
2.6133	62.7774
2.6054	63.1492
2.5976	62.7639
2.5898	62.867
2.5821	62.8546
2.5744	62.9021
2.5667	62.9901
2.5591	62.9289
2.5516	62.9933
2.5441	63.0993
2.5366	62.8548
2.5292	63.0517
2.5218	63.0298
2.5145	63.0617
2.5072	63.0796
2.4999	62.9587
2.4927	62.9351
2.4855	63.0481
2.4784	63.0197
2.4713	62.9557
2.4643	63.2157
2.4573	63.1327
2.4503	63.1514
2.4434	63.2392
2.4365	63.1858
2.4296	63.2695
2.4228	63.1146
2.416	63.1603
2.4093	63.3072
2.4026	63.3071
2.396	63.2624
2.3893	63.2703
2.3827	63.471
2.3762	63.3608
2.3697	63.4914
2.3632	63.299
2.3567	63.3548
2.3503	63.3985
2.344	63.5029
2.3376	63.3035
2.3313	63.6036
2.325	63.4671
2.3188	63.4121
2.3126	63.5286
2.3064	63.5381
2.3003	63.5819
2.2942	63.5687
2.2881	63.6258
2.2821	63.7146
2.2761	63.7627
2.2701	63.6901
2.2641	63.616
2.2582	63.6816
2.2523	63.7182
2.2465	63.7918
2.2406	63.8463
2.2348	63.7302
2.2291	63.8489
2.2233	63.8723
2.2176	63.7417
2.212	64.0216
2.2063	63.8422
2.2007	63.9848
2.1951	64.0221
2.1895	63.9055
2.184	63.9271
2.1785	64.1134
2.173	64.0799
2.1676	64.2613
2.1622	63.7649
2.1568	63.9468
2.1514	64.4571
2.146	63.9797
2.1407	64.2584
2.1354	64.1248
2.1302	64.022
2.1249	64.2169
2.1197	64.1712
2.1145	64.2497
2.1094	64.0662
2.1042	64.2583
2.0991	64.3633
2.094	64.3585
2.089	64.0134
2.0839	64.36
2.0789	64.6007
2.0739	64.0816
2.069	64.3184
2.064	64.41
2.0591	64.2653
2.0542	64.5874
2.0493	64.5761
2.0445	64.5651
2.0397	64.5065
2.0349	64.5519
2.0301	64.366
2.0253	64.2776
2.0206	64.6956
2.0159	64.697
2.0112	64.5006
2.0065	64.6902
2.0019	64.5457
