Name: Copper Metal
Type: manmade
Class: Roofing Material
Subclass: Metal
Particle Size: Solid
Sample No.: 0692UUUCOP
Owner: National Photographic Interpretation Center
Wavelength Range: All
Origin: Spectra obtained from the Noncoventional Exploitation FactorsData System of the National Photographic Interpretation Center.
Description: Extremely weathered bare copper metal from government building roof flashing. Original ASTER Spectral Library name was jhu.becknic.manmade.roofing.metal.solid.0692uuu.spectrum.txt
Measurement: Directional (10 Degree) Hemispherical Reflectance
X Units: Wavelength (micrometers)
Y Units: Reflectance (percent)
wavelength	value
0.3	4.84
0.304	5.1
0.308	5.4
0.312	5.73
0.316	6.1
0.32	6.51
0.324	6.96
0.328	7.45
0.332	7.97
0.336	8.53
0.34	9.12
0.344	9.77
0.348	10.46
0.352	11.21
0.356	12.03
0.36	12.91
0.364	13.86
0.368	14.86
0.372	15.89
0.376	16.97
0.38	18.24
0.384	19.38
0.388	20.52
0.392	21.63
0.396	22.7
0.4	23.71
0.404	24.67
0.408	25.58
0.412	26.44
0.416	27.27
0.42	28.06
0.424	28.8
0.428	29.49
0.432	30.13
0.436	30.72
0.44	31.27
0.444	31.78
0.448	32.28
0.452	32.74
0.456	33.2
0.46	33.66
0.464	34.12
0.468	34.58
0.472	35.03
0.476	35.53
0.48	36.11
0.484	36.76
0.488	37.4
0.492	37.95
0.496	38.42
0.5	38.83
0.504	39.2
0.508	39.54
0.512	39.83
0.516	40.08
0.52	40.29
0.524	40.46
0.528	40.59
0.532	40.69
0.536	40.73
0.54	40.74
0.544	40.72
0.548	40.65
0.552	40.54
0.556	40.37
0.56	40.16
0.564	39.88
0.568	39.55
0.572	39.18
0.576	38.73
0.58	38.21
0.584	37.64
0.588	37.01
0.592	36.34
0.596	35.62
0.6	34.82
0.604	34.05
0.608	33.18
0.612	32.29
0.616	31.39
0.62	30.5
0.624	29.62
0.628	28.76
0.632	27.94
0.636	27.14
0.64	26.37
0.644	25.64
0.648	24.96
0.652	24.31
0.656	23.71
0.66	23.16
0.664	22.64
0.668	22.17
0.672	21.74
0.676	21.35
0.68	20.99
0.684	20.68
0.688	20.39
0.692	20.15
0.696	19.94
0.7	19.76
0.704	19.61
0.708	19.49
0.712	19.4
0.716	19.33
0.72	19.28
0.724	19.26
0.728	19.25
0.732	19.27
0.736	19.31
0.74	19.36
0.744	19.42
0.748	19.49
0.752	19.58
0.756	19.66
0.76	19.76
0.764	19.87
0.768	19.97
0.772	20.08
0.776	20.19
0.78	20.3
0.784	20.4
0.788	20.49
0.792	20.59
0.796	20.66
0.8	20.75
0.84	21.07
0.88	21.37
0.92	21.65
0.96	23.04
1	24.72
1.04	26.25
1.08	27.46
1.12	28.58
1.16	29.64
1.2	30.71
1.24	31.76
1.28	32.71
1.32	33.54
1.36	34.21
1.4	34.66
1.44	34.52
1.48	35.13
1.52	35.26
1.56	35.42
1.6	35.52
1.64	35.55
1.68	35.51
1.72	35.48
1.76	35.18
1.8	35.01
1.84	34.66
1.88	34.27
1.92	33.33
1.96	32.99
2	33.34
2.04	33.3
2.08	33.12
2.12	32.95
2.16	32.51
2.2	31.75
2.24	30.98
2.28	29.5622
2.32	26.3832
2.36	27.0866
2.4	28.942
2.44	28.8816
2.48	28.4034
2.52	28.6536
2.56	28.1634
2.6	26.9376
2.64	27.0814
2.68	25.2416
2.72	21.431
2.76	12.437
2.8	2.8664
2.84	4.2476
2.88	3.365
2.92	2.21
2.96	2.4289
3	3.2587
3.04	3.1171
3.08	3.4529
3.12	4.2161
3.16	4.9612
3.2	6.0632
3.24	6.9566
3.28	7.837
3.32	8.5647
3.36	9.1803
3.4	9.3799
3.44	10.0829
3.48	10.7294
3.52	11.2896
3.56	12.147
3.6	12.8072
3.64	13.624
3.68	14.4932
3.72	15.158
3.76	15.8302
3.8	16.3118
3.84	16.892
3.88	17.3434
3.92	17.7726
3.96	18.2488
4	18.4738
4.04	18.7522
4.08	18.9568
4.12	19.0578
4.16	19.178
4.2	19.1514
4.24	18.2824
4.28	16.3044
4.32	18.9128
4.36	19.1064
4.4	18.813
4.44	18.3968
4.48	18.0244
4.52	17.813
4.56	17.0738
4.6	16.8194
4.64	17.4478
4.68	17.21
4.72	16.4614
4.76	15.603
4.8	15.032
4.84	14.6396
4.88	14.6546
4.92	14.9632
4.96	14.972
5	14.703
5.2	13.8638
5.4	13.008
5.6	12.5622
5.8	11.3779
6	8.1601
6.2	6.8916
6.4	7.0199
6.6	10.6864
6.8	10.0797
7	6.716
7.2	6.455
7.4	5.9749
7.6	7.1425
7.8	12.555
8	12.6208
8.2	9.5635
8.4	7.1071
8.6	2.1401
8.8	0.6197
9	1.6111
9.2	2.2846
9.4	1.8849
9.6	2.0005
9.8	1.7931
10	1.17
10.2	1.4
10.4	1.1151
10.6	1.2774
10.8	1.2475
11	1.2809
11.2	1.6944
11.4	2.1551
11.6	2.2121
11.8	2.5382
12	2.3586
12.2	2.335
12.4	1.9582
