Name: Black gloss paint
Type: manmade
Class: General Construction Material
Subclass: Paint
Particle Size: Solid
Sample No.: 0405UUUPNT
Owner: National Photographic Interpretation Center
Wavelength Range: All
Origin: Spectra obtained from the Noncoventional Exploitation FactorsData System of the National Photographic Interpretation Center.
Description: A smooth, slightly translucent coat of alkyd gloss paint on construction lumber (pine). Compare with sample 0402uuu.doc and note cellulose spectral features in SWIR and MWIR.  Black gloss paint is from the Great Life series by Martin Senour Paints. Original ASTER Spectral Library name was jhu.becknic.manmade.construction.paint.solid.0405uuu.spectrum.txt
Measurement: Directional (10 Degree) Hemispherical Reflectance
X Units: Wavelength (micrometers)
Y Units: Reflectance (percent)
wavelength	value
0.42	2.075
0.424	2.963
0.428	3.2227
0.432	3.0486
0.436	3.1817
0.44	3.4025
0.444	3.342
0.448	3.2121
0.452	3.2803
0.456	3.3625
0.46	3.4454
0.464	3.4933
0.468	3.4569
0.472	3.5173
0.476	3.486
0.48	3.5485
0.484	3.5671
0.488	3.5759
0.492	3.555
0.496	3.5694
0.5	3.5813
0.504	3.5835
0.508	3.5943
0.512	3.6052
0.516	3.6271
0.52	3.6274
0.524	3.6471
0.528	3.645
0.532	3.6541
0.536	3.665
0.54	3.6827
0.544	3.6828
0.548	3.6941
0.552	3.7016
0.556	3.7262
0.56	3.7379
0.564	3.7533
0.568	3.7208
0.572	3.7147
0.576	3.7266
0.58	3.7311
0.584	3.6919
0.588	3.6783
0.592	3.6965
0.596	3.6639
0.6	3.6609
0.604	3.6421
0.608	3.6062
0.612	3.6169
0.616	3.6349
0.62	3.6287
0.624	3.6548
0.628	3.6416
0.632	3.6518
0.636	3.6943
0.64	3.7431
0.644	3.7242
0.648	3.7396
0.652	3.7529
0.656	3.765
0.66	3.7658
0.664	3.7957
0.668	3.7717
0.672	3.8139
0.676	3.8146
0.68	3.7949
0.684	3.8227
0.688	3.8063
0.692	3.8139
0.696	3.8164
0.7	3.788
0.704	3.8125
0.708	3.8286
0.712	3.8043
0.716	3.8065
0.72	3.804
0.724	3.8363
0.728	3.8002
0.732	3.8233
0.736	3.8181
0.74	3.8231
0.744	3.8277
0.748	3.8213
0.752	3.8226
0.756	3.8224
0.76	3.8431
0.764	3.8272
0.768	3.8253
0.772	3.8223
0.776	3.8315
0.78	3.8598
0.784	3.8438
0.788	3.8589
0.792	3.8822
0.796	3.8695
0.8	3.8505
0.84	3.9022
0.88	3.9358
0.92	4.0091
0.96	4.0505
1	4.0822
1.04	4.1055
1.08	4.1208
1.12	4.1433
1.16	4.1476
1.2	4.2134
1.24	4.2476
1.28	4.2774
1.32	4.2448
1.36	4.3533
1.4	4.2814
1.44	4.228
1.48	4.2808
1.52	4.3035
1.56	4.3495
1.6	4.3485
1.64	4.3842
1.68	4.3623
1.72	4.3581
1.76	4.3484
1.8	4.3656
1.84	4.5381
1.88	4.4529
1.92	4.3575
1.96	4.3398
2	4.4082
2.04	4.4094
2.08	4.3699
2.12	4.399
2.16	4.4608
2.2	4.5087
2.24	4.4701
2.28	4.3892
2.32	4.4362
2.36	4.5241
2.4	4.4912
2.44	4.4038
2.48	4.4019
2.52	4.3827
2.56	4.3449
2.6	4.5011
2.64	4.5171
2.68	4.3996
2.72	4.0448
2.76	3.8196
2.8	3.7866
2.84	3.7757
2.88	3.7911
2.92	3.7894
2.96	3.8164
3	3.8991
3.04	3.8711
3.08	3.7507
3.12	3.8655
3.16	3.8569
3.2	3.8349
3.24	3.8445
3.28	3.8561
3.32	3.8109
3.36	3.5903
3.4	3.6349
3.44	4.1834
3.48	3.976
3.52	4.3401
3.56	4.2178
3.6	4.225
3.64	4.242
3.68	4.2345
3.72	4.2408
3.76	4.2707
3.8	4.3142
3.84	4.3317
3.88	4.3596
3.92	4.315
3.96	4.295
4	4.3849
4.04	4.4272
4.08	4.4721
4.12	4.4713
4.16	4.5013
4.2	4.5747
4.24	4.5308
4.28	4.5711
4.32	4.5689
4.36	4.6134
4.4	4.5407
4.44	4.5424
4.48	4.5302
4.52	4.481
4.56	4.4825
4.6	4.501
4.64	4.4784
4.68	4.4444
4.72	4.4443
4.76	4.4542
4.8	4.4252
4.84	4.4374
4.88	4.4648
4.92	4.4597
4.96	4.458
5	4.4949
5.2	4.5497
5.4	4.3746
5.6	3.562
5.8	4.9228
6	4.3072
6.2	4.0314
6.4	4.1484
6.6	3.8647
6.8	3.4658
7	3.7975
7.2	3.6295
7.4	3.5294
7.6	3.1136
7.8	3.5904
8	4.4816
8.2	4.144
8.4	3.9093
8.6	4.1133
8.8	4.3524
9	5.0958
9.2	5.3516
9.4	6.4097
9.6	6.0087
9.8	6.0208
10	5.6889
10.2	5.5067
10.4	5.4321
10.6	5.2948
10.8	5.2047
11	5.1375
11.2	5.0761
11.4	5.0878
11.6	4.9939
11.8	4.9789
12	4.8649
12.2	4.6698
12.4	4.3847
12.6	4.8598
12.8	4.8899
13	5.0526
13.2	4.7944
13.4	4.7473
13.6	5.074
13.8	4.9927
14	4.8564
