Name: Brass plate
Type: Manmade
Class: Reflectance target
Subclass: None
Particle Size: Solid
Sample No.: ILF-17464-2-2-br
Owner: JPL
Wavelength Range: TIR
Origin: Labsphere, P.O. Box 70, Shaker Street, North Sutton, NH 03260(603) 927-4266
Description: Measurement made at bottom right. Field Brass 1.Measured Oct. 29 1997. Original ASTER Spectral Library name was jpl.nicolet.manmade.target.none.solid.bp11097g.spectrum.txt
Measurement: Hemispherical Reflectance
X Units: Wavelength (micrometers)
Y Units: Reflectence (percent)
wavelength	value
15.3853	87.2171
15.1161	87.5378
14.8563	87.6275
14.6052	87.3477
14.3624	87.2091
14.1276	87.2156
13.9004	87.3234
13.6803	87.3903
13.4671	87.3828
13.2604	87.3966
13.06	87.2059
12.8656	86.9523
12.6769	86.9395
12.4936	86.7936
12.3155	87.3388
12.1425	87.6204
11.9742	87.631
11.8106	87.5184
11.6513	87.4593
11.4963	86.3858
11.3454	86.7469
11.1983	86.9437
11.0551	86.7379
10.9154	86.2354
10.7793	86.2414
10.6465	85.965
10.5169	85.5529
10.3904	85.112
10.267	84.8181
10.1464	84.4931
10.0287	84.3008
9.9136	84.1323
9.8012	84.1274
9.6913	84.2586
9.5838	84.3137
9.4787	84.3313
9.3758	84.6924
9.2752	84.9821
9.1767	85.2742
9.0803	85.2922
8.9858	85.6701
8.8934	85.7699
8.8028	85.7256
8.714	85.8429
8.627	86.0877
8.5417	86.4905
8.4581	86.7056
8.3761	87.051
8.2957	87.3812
8.2169	87.7003
8.1395	87.9139
8.0635	88.1586
7.989	88.198
7.9158	88.5428
7.8439	88.8904
7.7734	89.113
7.7041	89.1461
7.636	89.2107
7.5691	89.1965
7.5034	89.1729
7.4388	89.0365
7.3753	88.6421
7.3129	88.3207
7.2515	88.0381
7.1912	87.8146
7.1318	87.7989
7.0734	87.8194
7.016	87.8926
6.9595	87.9135
6.9039	87.8462
6.8492	87.8608
6.7953	88.0618
6.7423	88.0061
6.6901	88.3486
6.6387	89.1883
6.5881	89.1178
6.5382	89.1391
6.4892	89.9764
6.4408	89.6177
6.3931	89.5586
6.3462	89.7891
6.2999	89.2193
6.2543	89.1669
6.2094	89.0497
6.1651	89.0269
6.1214	89.2906
6.0784	89.544
6.0359	89.6079
5.994	89.8104
5.9527	89.6821
5.912	89.7279
5.8718	90.0683
5.8322	90.017
5.7931	89.9654
5.7545	90.135
5.7165	90.3404
5.6789	90.2531
5.6418	90.5261
5.6052	90.1709
5.5691	89.7018
5.5334	90.1623
5.4982	90.2092
5.4635	90.4322
5.4291	90.4006
5.3952	90.3502
5.3618	90.3498
5.3287	90.3137
5.2961	90.3986
5.2638	90.4376
5.2319	90.5576
5.2004	90.6242
5.1693	90.5671
5.1386	90.55
5.1082	90.5209
5.0782	90.5634
5.0485	90.6458
5.0192	90.5891
4.9902	90.6218
4.9616	90.6594
4.9332	90.63
4.9052	90.686
4.8776	90.704
4.8502	90.6487
4.8231	90.7382
4.7963	90.7129
4.7699	90.6661
4.7437	90.7437
4.7178	90.7428
4.6922	90.6398
4.6668	90.6834
4.6418	90.7163
4.617	90.598
4.5924	90.6621
4.5681	90.7337
4.5441	90.7551
4.5203	90.6831
4.4968	90.601
4.4735	90.7444
4.4505	90.7306
4.4277	90.6102
4.4051	90.6053
4.3828	90.7022
4.3607	90.7126
4.3388	90.6052
4.3171	90.312
4.2956	89.8383
4.2744	89.7083
4.2534	90.1703
4.2325	89.2991
4.2119	90.0671
4.1915	90.6483
4.1712	90.5536
4.1512	90.5434
4.1313	90.6008
4.1117	90.5972
4.0922	90.4533
4.0729	90.6057
4.0538	90.4922
4.0349	90.4801
4.0161	90.2808
3.9976	90.0735
3.9792	89.9496
3.9609	89.855
3.9428	90.0768
3.9249	90.1092
3.9072	90.2158
3.8896	90.2302
3.8722	90.2798
3.8549	90.1905
3.8378	90.2814
3.8208	90.272
3.804	90.362
3.7873	90.2853
3.7708	90.3169
3.7544	90.3389
3.7382	90.301
3.7221	90.3616
3.7061	90.3241
3.6903	90.3351
3.6746	90.2357
3.659	90.2554
3.6436	90.261
3.6283	90.24
3.6131	90.1184
3.5981	90.1551
3.5832	90.0861
3.5684	90.0555
3.5537	90.0272
3.5391	89.9279
3.5247	89.9573
3.5104	89.6578
3.4962	89.429
3.4821	89.4447
3.4681	89.4708
3.4543	89.4697
3.4405	89.3781
3.4269	89.3149
3.4133	89.1933
3.3999	89.2048
3.3866	89.3017
3.3733	89.3185
3.3602	89.4403
3.3472	89.3441
3.3343	89.5927
3.3215	89.6725
3.3088	89.5099
3.2961	89.6431
3.2836	89.6369
3.2712	89.7251
3.2588	89.5752
3.2466	89.4795
3.2345	89.423
3.2224	89.5091
3.2104	89.3835
3.1985	89.4004
3.1867	89.2367
3.175	89.2644
3.1634	89.3001
3.1519	89.2462
3.1404	89.1746
3.129	89.1515
3.1178	89.213
3.1065	88.8829
3.0954	89.0481
3.0844	88.9127
3.0734	88.839
3.0625	88.9035
3.0517	88.907
3.041	88.834
3.0303	88.8244
3.0197	88.6786
3.0092	88.8314
2.9987	88.7342
2.9884	88.9426
2.9781	88.6887
2.9678	88.7289
2.9577	88.6709
2.9476	88.5676
2.9376	88.5734
2.9276	88.5676
2.9177	88.6906
2.9079	88.7054
2.8982	88.5665
2.8885	88.7044
2.8789	88.5746
2.8693	88.827
2.8598	88.7192
2.8504	88.6685
2.841	88.6342
2.8317	88.6721
2.8224	88.5166
2.8133	88.6658
2.8041	88.7478
2.7951	88.5379
2.786	88.2763
2.7771	88.8626
2.7682	88.406
2.7594	88.5017
2.7506	88.6308
2.7418	88.9001
2.7332	88.9258
2.7246	89.3495
2.716	89.234
2.7075	89.3892
2.699	89.577
2.6906	89.8437
2.6823	89.9541
2.674	90.0792
2.6657	90.5543
2.6575	90.0219
2.6494	90.0149
2.6413	90.1077
2.6332	90.0222
2.6252	89.9529
2.6173	90.167
2.6094	90.0504
2.6015	90.1083
2.5937	90.599
2.5859	89.9797
2.5782	90.0859
2.5706	90.103
2.5629	90.3164
2.5554	89.8078
2.5478	89.945
2.5403	89.8804
2.5329	89.9757
2.5255	90.1059
2.5181	89.8227
2.5108	89.6547
2.5035	89.8294
2.4963	89.8401
2.4891	89.7591
2.482	89.7892
2.4749	89.7893
2.4678	89.8543
2.4608	89.9048
2.4538	89.6502
2.4468	89.9247
2.4399	89.6247
2.4331	89.8567
2.4262	89.6875
2.4194	89.7907
2.4127	89.6717
2.4059	89.7517
2.3993	89.8281
2.3926	89.4918
2.386	89.8415
2.3795	89.8033
2.3729	89.7189
2.3664	89.7607
2.36	89.7194
2.3535	89.6856
2.3471	89.6678
2.3408	89.6276
2.3345	89.5645
2.3282	89.5969
2.3219	89.6654
2.3157	89.6387
2.3095	89.6017
2.3034	89.6312
2.2972	89.7466
2.2911	89.4984
2.2851	89.7346
2.279	89.4245
2.2731	89.5558
2.2671	89.4341
2.2612	89.6671
2.2553	89.7109
2.2494	89.586
2.2435	89.5608
2.2377	89.5906
2.232	89.4538
2.2262	89.5694
2.2205	89.4573
2.2148	89.4549
2.2091	89.527
2.2035	89.4283
2.1979	89.4499
2.1923	89.4761
2.1868	89.1279
2.1812	89.4708
2.1758	89.4303
2.1703	89.4105
2.1649	89.3634
2.1595	89.3732
2.1541	89.4809
2.1487	89.6134
2.1434	89.3857
2.1381	89.3038
2.1328	89.303
2.1275	89.4284
2.1223	89.46
2.1171	89.1722
2.112	89.513
2.1068	89.2321
2.1017	89.2645
2.0966	89.0839
2.0915	89.4396
2.0865	89.3694
2.0814	89.2891
2.0764	89.0865
2.0715	89.1716
2.0665	89.4037
2.0616	89.3634
2.0567	89.1561
2.0518	89.0855
2.0469	89.2439
2.0421	88.9497
2.0373	89.053
2.0325	89.0403
2.0277	89.1068
2.0229	89.0996
2.0182	89.1
2.0135	89.0842
2.0088	89.2817
2.0042	88.9021
