Name: Brass plate
Type: Manmade
Class: Reflectance target
Subclass: None
Particle Size: Solid
Sample No.: ILF-17464-2-2-cr
Owner: JPL
Wavelength Range: TIR
Origin: Labsphere, P.O. Box 70, Shaker Street, North Sutton, NH 03260(603) 927-4266
Description: Measurement made at bottom center right. Field Brass 1.Measured Oct. 29 1997. Original ASTER Spectral Library name was jpl.nicolet.manmade.target.none.solid.bp11097h.spectrum.txt
Measurement: Hemispherical Reflectance
X Units: Wavelength (micrometers)
Y Units: Reflectence (percent)
wavelength	value
15.3853	83.6726
15.1161	83.9358
14.8563	83.9515
14.6052	83.6587
14.3624	83.7122
14.1276	83.5611
13.9004	83.5262
13.6803	83.7857
13.4671	83.7991
13.2604	83.7539
13.06	83.5497
12.8656	83.3697
12.6769	83.3818
12.4936	83.2614
12.3155	83.5918
12.1425	83.82
11.9742	83.8078
11.8106	83.7041
11.6513	83.6408
11.4963	82.8759
11.3454	83.0235
11.1983	83.2825
11.0551	83.0281
10.9154	82.8237
10.7793	82.6894
10.6465	82.5377
10.5169	82.3163
10.3904	81.9498
10.267	81.7642
10.1464	81.5327
10.0287	81.4714
9.9136	81.1875
9.8012	81.1756
9.6913	81.271
9.5838	81.4327
9.4787	81.509
9.3758	81.6249
9.2752	81.8567
9.1767	82.1413
9.0803	82.1145
8.9858	82.435
8.8934	82.694
8.8028	82.5482
8.714	82.6206
8.627	82.8901
8.5417	83.1689
8.4581	83.3299
8.3761	83.5167
8.2957	83.7334
8.2169	83.8919
8.1395	84.0257
8.0635	84.1906
7.989	84.2579
7.9158	84.6235
7.8439	84.9466
7.7734	85.1322
7.7041	85.1811
7.636	85.2202
7.5691	85.3057
7.5034	85.2522
7.4388	85.0858
7.3753	84.975
7.3129	84.6218
7.2515	84.5682
7.1912	84.2991
7.1318	84.3719
7.0734	84.3942
7.016	84.4302
6.9595	84.5961
6.9039	84.3762
6.8492	84.5245
6.7953	84.6703
6.7423	84.4438
6.6901	84.728
6.6387	85.4284
6.5881	85.3863
6.5382	85.3344
6.4892	86.0249
6.4408	85.6651
6.3931	85.6414
6.3462	85.8581
6.2999	85.371
6.2543	85.409
6.2094	85.3813
6.1651	85.3307
6.1214	85.5657
6.0784	85.7048
6.0359	85.7604
5.994	85.9398
5.9527	85.8062
5.912	85.8752
5.8718	86.0278
5.8322	86.0567
5.7931	85.9544
5.7545	86.0554
5.7165	86.1547
5.6789	86.0665
5.6418	86.3026
5.6052	85.9744
5.5691	85.6541
5.5334	86.0295
5.4982	85.9013
5.4635	86.2252
5.4291	86.1724
5.3952	86.062
5.3618	86.1305
5.3287	86.0711
5.2961	86.129
5.2638	86.1475
5.2319	86.2232
5.2004	86.3347
5.1693	86.2145
5.1386	86.1956
5.1082	86.2513
5.0782	86.2457
5.0485	86.2902
5.0192	86.2424
4.9902	86.3099
4.9616	86.3327
4.9332	86.3308
4.9052	86.3644
4.8776	86.3482
4.8502	86.3306
4.8231	86.4312
4.7963	86.4105
4.7699	86.3527
4.7437	86.3514
4.7178	86.3647
4.6922	86.277
4.6668	86.3993
4.6418	86.3934
4.617	86.2765
4.5924	86.3772
4.5681	86.3615
4.5441	86.3803
4.5203	86.3759
4.4968	86.3744
4.4735	86.3741
4.4505	86.3521
4.4277	86.3673
4.4051	86.3414
4.3828	86.3658
4.3607	86.3787
4.3388	86.3395
4.3171	86.2262
4.2956	85.9027
4.2744	85.8482
4.2534	86.1462
4.2325	85.637
4.2119	86.069
4.1915	86.3444
4.1712	86.3601
4.1512	86.3661
4.1313	86.369
4.1117	86.3385
4.0922	86.3352
4.0729	86.3112
4.0538	86.2563
4.0349	86.3133
4.0161	86.0847
3.9976	85.9064
3.9792	85.8966
3.9609	85.8089
3.9428	85.9676
3.9249	86.0133
3.9072	86.0773
3.8896	86.056
3.8722	86.1252
3.8549	86.0779
3.8378	86.1416
3.8208	86.0983
3.804	86.1823
3.7873	86.1714
3.7708	86.1685
3.7544	86.2337
3.7382	86.1863
3.7221	86.1801
3.7061	86.2411
3.6903	86.1288
3.6746	86.1851
3.659	86.122
3.6436	86.1658
3.6283	86.1657
3.6131	86.1302
3.5981	86.0826
3.5832	86.0944
3.5684	86.0751
3.5537	86.1003
3.5391	85.8745
3.5247	85.9558
3.5104	85.75
3.4962	85.5935
3.4821	85.6567
3.4681	85.5916
3.4543	85.7244
3.4405	85.5434
3.4269	85.5407
3.4133	85.4718
3.3999	85.5237
3.3866	85.6529
3.3733	85.5806
3.3602	85.625
3.3472	85.5855
3.3343	85.7234
3.3215	85.8019
3.3088	85.6494
3.2961	85.7974
3.2836	85.6878
3.2712	85.8491
3.2588	85.6818
3.2466	85.593
3.2345	85.7072
3.2224	85.6429
3.2104	85.5733
3.1985	85.5995
3.1867	85.7008
3.175	85.5844
3.1634	85.451
3.1519	85.4677
3.1404	85.4456
3.129	85.5301
3.1178	85.53
3.1065	85.3983
3.0954	85.3973
3.0844	85.4337
3.0734	85.1973
3.0625	85.3292
3.0517	85.3956
3.041	85.2344
3.0303	85.3095
3.0197	85.2146
3.0092	85.3532
2.9987	85.1983
2.9884	85.2692
2.9781	85.2303
2.9678	85.4161
2.9577	85.1789
2.9476	85.1679
2.9376	85.0944
2.9276	85.1878
2.9177	85.13
2.9079	85.2903
2.8982	85.0898
2.8885	85.221
2.8789	85.1677
2.8693	85.1828
2.8598	85.1615
2.8504	85.1011
2.841	85.1138
2.8317	85.2461
2.8224	84.8461
2.8133	85.0308
2.8041	85.1471
2.7951	84.8087
2.786	85.2252
2.7771	85.2467
2.7682	84.8874
2.7594	85.2019
2.7506	84.8915
2.7418	85.3588
2.7332	85.2935
2.7246	85.7118
2.716	85.4308
2.7075	85.6352
2.699	85.789
2.6906	85.8975
2.6823	86.0885
2.674	86.1258
2.6657	86.464
2.6575	86.0085
2.6494	85.9755
2.6413	85.9432
2.6332	86.0693
2.6252	86.0255
2.6173	86.4438
2.6094	86.0833
2.6015	86.1949
2.5937	86.4758
2.5859	86.1402
2.5782	86.08
2.5706	86.1992
2.5629	86.2606
2.5554	85.9622
2.5478	86.0712
2.5403	85.859
2.5329	86.026
2.5255	85.9311
2.5181	85.8817
2.5108	85.7997
2.5035	86.1032
2.4963	85.9397
2.4891	85.8599
2.482	85.9013
2.4749	85.7477
2.4678	86.0242
2.4608	85.8695
2.4538	85.6269
2.4468	85.9695
2.4399	85.989
2.4331	85.9117
2.4262	85.8554
2.4194	86.152
2.4127	85.8321
2.4059	86.0113
2.3993	85.8973
2.3926	85.6855
2.386	85.9875
2.3795	85.9188
2.3729	85.8609
2.3664	85.939
2.36	85.8877
2.3535	85.8465
2.3471	85.8759
2.3408	85.8032
2.3345	85.8283
2.3282	85.6937
2.3219	85.8141
2.3157	85.8525
2.3095	85.8698
2.3034	85.7794
2.2972	85.795
2.2911	85.8002
2.2851	85.7156
2.279	85.5267
2.2731	85.6976
2.2671	85.6888
2.2612	85.8187
2.2553	85.8926
2.2494	85.6415
2.2435	85.7134
2.2377	85.7081
2.232	85.6483
2.2262	85.9211
2.2205	85.7323
2.2148	85.8421
2.2091	85.6048
2.2035	85.6117
2.1979	85.6733
2.1923	85.7933
2.1868	85.3344
2.1812	85.9071
2.1758	85.8577
2.1703	85.5291
2.1649	85.4316
2.1595	85.4771
2.1541	85.646
2.1487	85.6199
2.1434	85.4639
2.1381	85.6898
2.1328	85.5762
2.1275	85.5453
2.1223	85.8267
2.1171	85.3798
2.112	85.7355
2.1068	85.5091
2.1017	85.5588
2.0966	85.3828
2.0915	85.6673
2.0865	85.4156
2.0814	85.5633
2.0764	85.5541
2.0715	85.5402
2.0665	85.8284
2.0616	85.584
2.0567	85.6381
2.0518	85.3451
2.0469	85.5332
2.0421	85.494
2.0373	85.1675
2.0325	85.4505
2.0277	85.1233
2.0229	85.3397
2.0182	85.4938
2.0135	85.5085
2.0088	85.49
2.0042	85.4548
