Name: Happy Canyon
Type: Meteorites
Class: Enstatite Chondrite
Subclass: E6
Particle Size: Fine
Sample No.: HappyCanyon
Owner: JHU
Wavelength Range: TIR
Origin: Smithsonian sample No. USNM 5820.
Description: Stony Meteorites. Meteorite found in 1971. Particle size was 0-75 micrometers.  Original ASTER Spectral Library name was jhu.becknic.meteorite.chondrite.e6.fine.hapcan.spectrum.txt
Measurement: Bidirectional reflectance
X Units: Wavelength (micrometers)
Y Units: Reflectance (percent)
wavelength	value
25.044	0.8318
24.339	0.6626
23.672	0.5513
23.041	0.7139
22.442	0.7419
21.874	0.7256
21.334	0.655
20.82	0.6738
20.33	0.7957
19.863	0.8877
19.416	0.9028
18.99	0.7468
18.581	0.6692
18.19	0.7078
17.815	0.6255
17.455	0.6399
17.109	0.6626
16.777	0.6284
16.458	0.5759
16.15	0.4675
15.854	0.3896
15.568	0.3535
15.292	0.3203
15.027	0.3174
14.77	0.4106
14.521	0.4543
14.281	0.4917
14.049	0.5613
13.824	0.53
13.607	0.5671
13.396	0.6816
13.191	0.8999
12.993	1.0063
12.8	1.0395
12.614	1.0588
12.432	1.0825
12.256	1.1321
12.084	1.1372
11.918	0.9853
11.755	0.9158
11.598	0.9341
11.444	0.8462
11.294	0.6233
11.149	0.6516
11.007	0.6433
10.868	0.7163
10.733	0.8306
10.602	0.8367
10.473	0.8467
10.348	0.813
10.225	0.7285
10.106	0.6775
9.9887	0.5872
9.8746	0.5889
9.763	0.5156
9.6539	0.4224
9.5472	0.6328
9.4429	0.7378
9.3408	0.7725
9.2409	0.7598
9.1431	0.7612
9.0474	0.8059
8.9536	0.8625
8.8618	0.8372
8.7718	0.8611
8.6837	0.7468
8.5973	0.7888
8.5126	0.7974
8.4295	0.8789
8.3481	1.0264
8.2682	1.2234
8.1898	1.4204
8.1129	1.5991
8.0374	1.7629
7.9634	1.9233
7.8906	2.0701
7.8192	2.2109
7.7491	2.3147
7.6802	2.3699
7.6126	2.426
7.5461	2.509
7.4807	2.5854
7.4165	2.6411
7.3534	2.7143
7.2914	2.7654
7.2303	2.8345
7.1703	2.9167
7.1113	2.9785
7.0533	3.0054
6.9962	3.0339
6.94	3.0801
6.8847	3.1103
6.8302	3.1389
6.7767	3.1638
6.7239	3.175
6.672	3.1228
6.6209	3.1262
6.5705	3.1975
6.5209	3.22
6.4721	3.2075
6.424	3.1682
6.3766	3.0972
6.3299	3.0132
6.2838	3.0093
6.2385	2.9822
6.1937	2.918
6.1496	2.8933
6.1062	2.8594
6.0633	2.8442
6.0211	2.9226
5.9794	3.1111
5.9383	3.3208
5.8978	3.4646
5.8578	3.5474
5.8184	3.6067
5.7794	3.6653
5.741	3.668
5.7031	3.6753
5.6657	3.7107
5.6288	3.7534
5.5924	3.7947
5.5564	3.8508
5.5209	3.8933
5.4859	3.8923
5.4513	3.927
5.4171	4.0058
5.3833	4.0933
5.35	4.1399
5.3171	4.1633
5.2846	4.1589
5.2524	4.1623
5.2207	4.1601
5.1893	4.1025
5.1584	4.0198
5.1277	3.9839
5.0975	4.02
5.0676	4.0886
5.038	4.1511
5.0088	4.2173
4.98	4.2712
4.9514	4.3088
4.9232	4.3208
4.8953	4.3396
4.8678	4.3354
4.8405	4.3332
4.8135	4.3647
4.7868	4.4238
4.7605	4.4741
4.7344	4.5434
4.7086	4.5964
4.6831	4.6326
4.6578	4.6501
4.6328	4.6636
4.6081	4.7078
4.5837	4.7551
4.5595	4.7829
4.5356	4.8069
4.5119	4.8249
4.4884	4.8379
4.4652	4.8389
4.4423	4.8389
4.4196	4.8398
4.3971	4.8413
4.3748	4.8393
4.3528	4.8357
4.331	4.8313
4.3094	4.8284
4.288	4.8198
4.2668	4.8037
4.2458	4.8191
4.2251	4.8203
4.2045	4.8223
4.1841	4.81
4.164	4.7949
4.144	4.7851
4.1242	4.771
4.1046	4.7566
4.0852	4.7441
4.066	4.7287
4.047	4.7136
4.0281	4.6885
4.0094	4.6699
3.9909	4.6365
3.9725	4.6084
3.9544	4.5813
3.9363	4.5469
3.9185	4.5141
3.9008	4.479
3.8833	4.4426
3.8659	4.3967
3.8487	4.3552
3.8316	4.3057
3.8147	4.2673
3.7979	4.2185
3.7813	4.1736
3.7648	4.1301
3.7485	4.0791
3.7323	4.0305
3.7162	3.98
3.7003	3.925
3.6845	3.8701
3.6689	3.8227
3.6534	3.7732
3.638	3.7268
3.6227	3.6772
3.6076	3.6301
3.5926	3.5808
3.5777	3.5371
3.563	3.4849
3.5484	3.4377
3.5338	3.3894
3.5195	3.3279
3.5052	3.2463
3.491	3.2197
3.477	3.1811
3.463	3.1309
3.4492	3.0769
3.4355	3.0107
3.4219	2.9382
3.4084	2.9021
3.395	2.8862
3.3817	2.8413
3.3685	2.8027
3.3554	2.7568
3.3425	2.707
3.3296	2.6545
3.3168	2.5972
3.3041	2.5444
3.2915	2.4814
3.279	2.4214
3.2666	2.3579
3.2543	2.2925
3.2421	2.2336
3.23	2.1685
3.218	2.106
3.206	2.0554
3.1942	2.0012
3.1824	1.9634
3.1707	1.9272
3.1591	1.8953
3.1476	1.8743
3.1362	1.8516
3.1249	1.8394
3.1136	1.8362
3.1024	1.8428
3.0913	1.8496
3.0803	1.8586
3.0694	1.8845
3.0585	1.895
3.0477	1.9204
3.037	1.9434
3.0264	1.9648
3.0158	1.988
3.0053	2.0161
2.9949	2.0332
2.9845	2.0581
2.9743	2.0774
2.9641	2.1047
2.9539	2.123
2.9439	2.155
2.9339	2.1855
2.9239	2.1992
2.9141	2.2395
2.9043	2.26
2.8946	2.2905
2.8849	2.3372
2.8753	2.3718
2.8658	2.4131
2.8563	2.4705
2.8469	2.5369
2.8375	2.5962
2.8282	2.6731
2.819	2.7544
2.8098	2.8581
2.8007	2.9631
2.7917	3.1174
2.7827	3.2759
2.7738	3.4653
2.7649	3.6638
2.7561	3.8921
2.7473	4.155
2.7386	4.3921
2.7299	4.637
2.7213	4.8459
2.7128	5.0107
2.7043	5.1409
2.6959	5.2375
2.6875	5.3257
2.6791	5.3872
2.6709	5.4509
2.6626	5.5015
2.6545	5.5176
2.6463	5.5334
2.6382	5.5461
2.6302	5.5359
2.6222	5.561
2.6143	5.55
2.6064	5.5561
2.5986	5.56
2.5908	5.5657
2.583	5.5544
2.5753	5.5549
2.5677	5.5537
2.5601	5.5452
2.5525	5.5471
2.545	5.5495
2.5375	5.5473
2.5301	5.5456
2.5227	5.5239
2.5154	5.5183
2.5081	5.5242
2.5008	5.511
2.4936	5.5095
2.4864	5.5076
2.4793	5.51
2.4722	5.4927
2.4651	5.4805
2.4581	5.4685
2.4511	5.4619
2.4442	5.4414
2.4373	5.4634
2.4305	5.4541
2.4236	5.4416
2.4169	5.4592
2.4101	5.4504
2.4034	5.4482
2.3967	5.4722
2.3901	5.4526
2.3835	5.4455
2.377	5.4507
2.3704	5.4475
2.364	5.4289
2.3575	5.4275
2.3511	5.4304
2.3447	5.4453
2.3384	5.4443
2.3321	5.4402
2.3258	5.4158
2.3195	5.4214
2.3133	5.4524
2.3071	5.435
2.301	5.4387
2.2949	5.4263
2.2888	5.427
2.2828	5.4426
2.2767	5.4377
2.2708	5.4573
2.2648	5.4397
2.2589	5.4436
2.253	5.4397
2.2471	5.4492
2.2413	5.4553
2.2355	5.4543
2.2297	5.4477
2.224	5.4433
2.2183	5.4573
2.2126	5.4814
2.207	5.4626
2.2013	5.4848
2.1957	5.4763
2.1902	5.4809
2.1846	5.4809
2.1791	5.4929
2.1736	5.4797
2.1682	5.4805
2.1628	5.4531
2.1574	5.4985
2.152	5.4736
2.1466	5.4756
2.1413	5.4905
2.136	5.5024
2.1308	5.5181
2.1255	5.5193
2.1203	5.5119
2.1151	5.5076
2.11	5.4934
2.1048	5.52
2.0997	5.52
2.0946	5.5246
2.0895	5.5049
2.0845	5.4941
2.0795	5.519
