Name: Haraiya
Type: Meteorites
Class: Achondrite
Subclass: Eucrite
Particle Size: Fine
Sample No.: Haraiya
Owner: JHU
Wavelength Range: TIR
Origin: Smithsonian sample No. USNM5702.
Description: Stony Meteorites. Particle size was 0-75 micrometers. Meteorite seen to fall in India in 1879. Original ASTER Spectral Library name was jhu.becknic.meteorite.achondrite.haraiya.fine.haraiy.spectrum.txt
Measurement: Bidirectional reflectance
X Units: Wavelength (micrometers)
Y Units: Reflectance (percent)
wavelength	value
25.044	0.7246
24.339	0.6157
23.672	0.6738
23.041	0.8826
22.442	0.8635
21.874	0.9509
21.334	0.9121
20.82	0.8931
20.33	0.9985
19.863	1.0442
19.416	0.9573
18.99	0.8904
18.581	0.7463
18.19	0.8166
17.815	0.8059
17.455	0.769
17.109	0.7876
16.777	0.7517
16.458	0.6226
16.15	0.5432
15.854	0.5649
15.568	0.561
15.292	0.5701
15.027	0.4712
14.77	0.4956
14.521	0.6348
14.281	0.7715
14.049	0.9521
13.824	0.7632
13.607	0.7332
13.396	0.9531
13.191	0.9871
12.993	1.1597
12.8	1.2874
12.614	1.5383
12.432	1.7307
12.256	1.8061
12.084	1.7256
11.918	1.4788
11.755	1.3037
11.598	1.1636
11.444	1.0759
11.294	0.99
11.149	0.9028
11.007	0.7825
10.868	0.7649
10.733	0.7771
10.602	0.7627
10.473	0.7454
10.348	0.6973
10.225	0.6999
10.106	0.689
9.9887	0.7039
9.8746	0.7581
9.763	0.7925
9.6539	0.7893
9.5472	0.7539
9.4429	0.7256
9.3408	0.7605
9.2409	0.7664
9.1431	0.8079
9.0474	0.8127
8.9536	0.7429
8.8618	0.6553
8.7718	0.5723
8.6837	0.5435
8.5973	0.5476
8.5126	0.5686
8.4295	0.6099
8.3481	0.6768
8.2682	0.7485
8.1898	0.8555
8.1129	1.0186
8.0374	1.2329
7.9634	1.4985
7.8906	1.7793
7.8192	2.0552
7.7491	2.3074
7.6802	2.5256
7.6126	2.6765
7.5461	2.8699
7.4807	3.0862
7.4165	3.2573
7.3534	3.3821
7.2914	3.4687
7.2303	3.543
7.1703	3.6108
7.1113	3.6841
7.0533	3.7563
6.9962	3.8933
6.94	4.0203
6.8847	4.1379
6.8302	4.1907
6.7767	4.364
6.7239	4.5515
6.672	4.5852
6.6209	4.5447
6.5705	4.4036
6.5209	4.2263
6.4721	4.061
6.424	4.0083
6.3766	3.8459
6.3299	3.6738
6.2838	3.7183
6.2385	3.7224
6.1937	3.7212
6.1496	3.8027
6.1062	3.9477
6.0633	4.1055
6.0211	4.238
5.9794	4.4028
5.9383	4.6548
5.8978	5.073
5.8578	5.4409
5.8184	5.6399
5.7794	5.8386
5.741	5.9724
5.7031	6.0901
5.6657	6.154
5.6288	6.2202
5.5924	6.3347
5.5564	6.4643
5.5209	6.5097
5.4859	6.4695
5.4513	6.3838
5.4171	6.2995
5.3833	6.2685
5.35	6.1753
5.3171	6.0884
5.2846	6.0488
5.2524	6.1128
5.2207	6.2092
5.1893	6.3291
5.1584	6.427
5.1277	6.5071
5.0975	6.5737
5.0676	6.6418
5.038	6.7265
5.0088	6.8264
4.98	6.9458
4.9514	7.0688
4.9232	7.1799
4.8953	7.2905
4.8678	7.4094
4.8405	7.5344
4.8135	7.6272
4.7868	7.7036
4.7605	7.7954
4.7344	7.9336
4.7086	8.0569
4.6831	8.1555
4.6578	8.2251
4.6328	8.3081
4.6081	8.364
4.5837	8.425
4.5595	8.4614
4.5356	8.4861
4.5119	8.5195
4.4884	8.5178
4.4652	8.5447
4.4423	8.5527
4.4196	8.5774
4.3971	8.5815
4.3748	8.5859
4.3528	8.602
4.331	8.6106
4.3094	8.6318
4.288	8.6482
4.2668	8.6626
4.2458	8.6836
4.2251	8.7092
4.2045	8.718
4.1841	8.7292
4.164	8.7383
4.144	8.7522
4.1242	8.768
4.1046	8.7793
4.0852	8.7907
4.066	8.7973
4.047	8.8183
4.0281	8.8222
4.0094	8.8276
3.9909	8.8247
3.9725	8.8318
3.9544	8.8313
3.9363	8.8469
3.9185	8.8476
3.9008	8.8454
3.8833	8.8559
3.8659	8.8452
3.8487	8.8408
3.8316	8.8384
3.8147	8.8283
3.7979	8.8313
3.7813	8.8218
3.7648	8.8017
3.7485	8.799
3.7323	8.7893
3.7162	8.7798
3.7003	8.7651
3.6845	8.7468
3.6689	8.7356
3.6534	8.7124
3.638	8.7024
3.6227	8.6965
3.6076	8.6826
3.5926	8.6484
3.5777	8.6225
3.563	8.5891
3.5484	8.529
3.5338	8.4497
3.5195	8.2007
3.5052	7.4717
3.491	7.9072
3.477	8.0146
3.463	8.0151
3.4492	7.8042
3.4355	7.4133
3.4219	6.7624
3.4084	7.206
3.395	7.6311
3.3817	7.6252
3.3685	7.8262
3.3554	8.0505
3.3425	8.1196
3.3296	8.1189
3.3168	8.1228
3.3041	8.0962
3.2915	8.0725
3.279	8.0325
3.2666	7.9963
3.2543	7.9592
3.2421	7.937
3.23	7.8833
3.218	7.852
3.206	7.8056
3.1942	7.7781
3.1824	7.7229
3.1707	7.6806
3.1591	7.6316
3.1476	7.6035
3.1362	7.5571
3.1249	7.5127
3.1136	7.4746
3.1024	7.4363
3.0913	7.4111
3.0803	7.3616
3.0694	7.3508
3.0585	7.3235
3.0477	7.289
3.037	7.2724
3.0264	7.2475
3.0158	7.2253
3.0053	7.2038
2.9949	7.1806
2.9845	7.154
2.9743	7.1445
2.9641	7.1235
2.9539	7.1181
2.9439	7.1033
2.9339	7.1145
2.9239	7.1186
2.9141	7.1526
2.9043	7.1882
2.8946	7.2278
2.8849	7.2629
2.8753	7.2956
2.8658	7.344
2.8563	7.3862
2.8469	7.4328
2.8375	7.4719
2.8282	7.5273
2.819	7.5871
2.8098	7.6557
2.8007	7.7395
2.7917	7.8435
2.7827	7.9448
2.7738	8.0652
2.7649	8.1882
2.7561	8.2954
2.7473	8.4678
2.7386	8.5771
2.7299	8.7068
2.7213	8.8032
2.7128	8.9114
2.7043	8.9463
2.6959	8.9819
2.6875	9.0073
2.6791	8.9956
2.6709	8.9678
2.6626	9.0056
2.6545	9.0105
2.6463	8.9734
2.6382	8.9607
2.6302	8.8943
2.6222	8.9067
2.6143	8.8818
2.6064	8.8559
2.5986	8.8264
2.5908	8.7888
2.583	8.7688
2.5753	8.7553
2.5677	8.7527
2.5601	8.7112
2.5525	8.6745
2.545	8.6594
2.5375	8.6235
2.5301	8.5935
2.5227	8.5632
2.5154	8.5259
2.5081	8.4753
2.5008	8.4516
2.4936	8.4111
2.4864	8.3935
2.4793	8.3447
2.4722	8.3218
2.4651	8.2883
2.4581	8.23
2.4511	8.1929
2.4442	8.1594
2.4373	8.0935
2.4305	8.1069
2.4236	8.041
2.4169	7.9829
2.4101	7.9951
2.4034	7.9453
2.3967	7.8843
2.3901	7.8923
2.3835	7.7993
2.377	7.7983
2.3704	7.7463
2.364	7.758
2.3575	7.7038
2.3511	7.6655
2.3447	7.6279
2.3384	7.5664
2.3321	7.5129
2.3258	7.5288
2.3195	7.4497
2.3133	7.4375
2.3071	7.3811
2.301	7.4053
2.2949	7.3432
2.2888	7.3115
2.2828	7.2705
2.2767	7.1958
2.2708	7.2261
2.2648	7.1687
2.2589	7.1523
2.253	7.1133
2.2471	7.1089
2.2413	7.0708
2.2355	7.0664
2.2297	7.0508
2.224	6.9848
2.2183	6.9809
2.2126	6.959
2.207	6.9258
2.2013	6.9502
2.1957	6.896
2.1902	6.9155
2.1846	6.8559
2.1791	6.8413
2.1736	6.8437
2.1682	6.7944
2.1628	6.7803
2.1574	6.7519
2.152	6.772
2.1466	6.7522
2.1413	6.6794
2.136	6.706
2.1308	6.6704
2.1255	6.656
2.1203	6.6606
2.1151	6.6909
2.11	6.6972
2.1048	6.6362
2.0997	6.6433
2.0946	6.6509
2.0895	6.6562
2.0845	6.6294
2.0795	6.6579
