Name: Ornans
Type: Meteorites
Class: Carbonaceous Chondrite
Subclass: CO
Particle Size: Fine
Sample No.: Ornans
Owner: JHU
Wavelength Range: TIR
Origin: Museum National d'HistoireNaturelle sample No. 581 obtained via Tom Jones.
Description: Stony Meteorites. Particle size was 0-75 micrometers. Meteorite seen to fall in France in 1868. Original ASTER Spectral Library name was jhu.becknic.meteorite.chondrite.co.fine.ornan.spectrum.txt
Measurement: Bidirectional reflectance
X Units: Wavelength (micrometers)
Y Units: Reflectance (percent)
wavelength	value
25.044	1.0027
24.339	0.9246
23.672	0.8726
23.041	0.7148
22.442	0.6001
21.874	0.625
21.334	0.6094
20.82	0.5464
20.33	0.6726
19.863	0.7761
19.416	0.8491
18.99	0.8672
18.581	0.7458
18.19	0.7009
17.815	0.5679
17.455	0.5386
17.109	0.5034
16.777	0.4448
16.458	0.4944
16.15	0.4685
15.854	0.4685
15.568	0.4246
15.292	0.4482
15.027	0.4656
14.77	0.48
14.521	0.5669
14.281	0.6277
14.049	0.6948
13.824	0.7222
13.607	0.7913
13.396	0.9089
13.191	1.0088
12.993	1.0696
12.8	1.0596
12.614	1.0234
12.432	0.9495
12.256	0.8555
12.084	0.709
11.918	0.6221
11.755	0.6799
11.598	0.7815
11.444	0.8809
11.294	0.9326
11.149	0.9499
11.007	0.9434
10.868	1.0049
10.733	1.0391
10.602	0.9683
10.473	0.9038
10.348	0.854
10.225	0.8154
10.106	0.7495
9.9887	0.7075
9.8746	0.7085
9.763	0.7217
9.6539	0.7371
9.5472	0.7881
9.4429	0.7734
9.3408	0.728
9.2409	0.6631
9.1431	0.6289
9.0474	0.6553
8.9536	0.6902
8.8618	0.7563
8.7718	0.7822
8.6837	0.8081
8.5973	0.9028
8.5126	0.9575
8.4295	1.0183
8.3481	1.1023
8.2682	1.1833
8.1898	1.2534
8.1129	1.335
8.0374	1.406
7.9634	1.4568
7.8906	1.4998
7.8192	1.5454
7.7491	1.5688
7.6802	1.6079
7.6126	1.6355
7.5461	1.6826
7.4807	1.7222
7.4165	1.7651
7.3534	1.7925
7.2914	1.8137
7.2303	1.8369
7.1703	1.8603
7.1113	1.8796
7.0533	1.9072
6.9962	1.938
6.94	1.9629
6.8847	1.9719
6.8302	1.9839
6.7767	2.0071
6.7239	2.0139
6.672	2.0059
6.6209	2.0102
6.5705	2.0251
6.5209	2.0349
6.4721	2.0215
6.424	2.0049
6.3766	1.9951
6.3299	1.9827
6.2838	1.9856
6.2385	1.9856
6.1937	1.9773
6.1496	1.9797
6.1062	1.9578
6.0633	1.8789
6.0211	1.8467
5.9794	1.8691
5.9383	1.908
5.8978	1.9429
5.8578	1.9736
5.8184	1.9866
5.7794	1.9817
5.741	1.9507
5.7031	1.907
5.6657	1.8787
5.6288	1.8931
5.5924	1.9429
5.5564	1.9927
5.5209	2.0078
5.4859	2.0149
5.4513	2.0198
5.4171	2.0503
5.3833	2.0752
5.35	2.0933
5.3171	2.116
5.2846	2.1116
5.2524	2.1184
5.2207	2.1189
5.1893	2.1113
5.1584	2.1125
5.1277	2.1111
5.0975	2.1287
5.0676	2.1477
5.038	2.1702
5.0088	2.1765
4.98	2.186
4.9514	2.1934
4.9232	2.2087
4.8953	2.2312
4.8678	2.25
4.8405	2.2673
4.8135	2.2773
4.7868	2.2981
4.7605	2.3032
4.7344	2.3159
4.7086	2.3152
4.6831	2.3342
4.6578	2.3408
4.6328	2.3462
4.6081	2.3718
4.5837	2.3699
4.5595	2.3791
4.5356	2.3918
4.5119	2.3965
4.4884	2.4031
4.4652	2.4009
4.4423	2.406
4.4196	2.4158
4.3971	2.4163
4.3748	2.415
4.3528	2.4136
4.331	2.4094
4.3094	2.4089
4.288	2.4119
4.2668	2.4175
4.2458	2.4189
4.2251	2.4209
4.2045	2.4175
4.1841	2.4109
4.164	2.4082
4.144	2.4128
4.1242	2.4177
4.1046	2.404
4.0852	2.4075
4.066	2.4167
4.047	2.4167
4.0281	2.4158
4.0094	2.4163
3.9909	2.4089
3.9725	2.4084
3.9544	2.4084
3.9363	2.4121
3.9185	2.4087
3.9008	2.4121
3.8833	2.4145
3.8659	2.4084
3.8487	2.4055
3.8316	2.4038
3.8147	2.3904
3.7979	2.3755
3.7813	2.387
3.7648	2.3982
3.7485	2.3867
3.7323	2.3828
3.7162	2.3801
3.7003	2.3704
3.6845	2.3623
3.6689	2.3533
3.6534	2.3599
3.638	2.356
3.6227	2.3572
3.6076	2.3557
3.5926	2.3413
3.5777	2.3374
3.563	2.3376
3.5484	2.3276
3.5338	2.3191
3.5195	2.3191
3.5052	2.2964
3.491	2.2922
3.477	2.2998
3.463	2.2966
3.4492	2.2903
3.4355	2.2761
3.4219	2.2539
3.4084	2.2605
3.395	2.261
3.3817	2.2551
3.3685	2.2612
3.3554	2.2622
3.3425	2.2602
3.3296	2.2561
3.3168	2.2422
3.3041	2.2417
3.2915	2.2356
3.279	2.2251
3.2666	2.2109
3.2543	2.2129
3.2421	2.1897
3.23	2.188
3.218	2.1926
3.206	2.1858
3.1942	2.1899
3.1824	2.1794
3.1707	2.1648
3.1591	2.1672
3.1476	2.1565
3.1362	2.1523
3.1249	2.145
3.1136	2.1345
3.1024	2.1309
3.0913	2.137
3.0803	2.1184
3.0694	2.1243
3.0585	2.123
3.0477	2.1179
3.037	2.0964
3.0264	2.0928
3.0158	2.0933
3.0053	2.0884
2.9949	2.0818
2.9845	2.083
2.9743	2.0657
2.9641	2.0706
2.9539	2.0669
2.9439	2.063
2.9339	2.051
2.9239	2.051
2.9141	2.0505
2.9043	2.0439
2.8946	2.0525
2.8849	2.0381
2.8753	2.0505
2.8658	2.0286
2.8563	2.0364
2.8469	2.053
2.8375	2.0452
2.8282	2.0432
2.819	2.0415
2.8098	2.0542
2.8007	2.0505
2.7917	2.061
2.7827	2.05
2.7738	2.0544
2.7649	2.0654
2.7561	2.0649
2.7473	2.0767
2.7386	2.0774
2.7299	2.081
2.7213	2.0915
2.7128	2.093
2.7043	2.0945
2.6959	2.1074
2.6875	2.1169
2.6791	2.1099
2.6709	2.0779
2.6626	2.1084
2.6545	2.1099
2.6463	2.1196
2.6382	2.1099
2.6302	2.0991
2.6222	2.094
2.6143	2.1081
2.6064	2.0969
2.5986	2.094
2.5908	2.0906
2.583	2.0898
2.5753	2.1123
2.5677	2.094
2.5601	2.0828
2.5525	2.0894
2.545	2.094
2.5375	2.1074
2.5301	2.1096
2.5227	2.0898
2.5154	2.0698
2.5081	2.0759
2.5008	2.083
2.4936	2.0776
2.4864	2.0698
2.4793	2.1008
2.4722	2.0786
2.4651	2.0623
2.4581	2.0698
2.4511	2.0635
2.4442	2.0464
2.4373	2.0596
2.4305	2.0593
2.4236	2.0579
2.4169	2.0425
2.4101	2.0386
2.4034	2.0391
2.3967	2.0354
2.3901	2.0635
2.3835	2.0627
2.377	2.0312
2.3704	2.0662
2.364	2.0671
2.3575	2.0295
2.3511	2.0505
2.3447	2.0486
2.3384	2.0432
2.3321	2.0437
2.3258	2.0464
2.3195	2.0493
2.3133	2.0581
2.3071	2.0566
2.301	2.053
2.2949	2.0276
2.2888	2.0273
2.2828	2.0386
2.2767	2.0471
2.2708	2.0386
2.2648	2.0366
2.2589	2.0466
2.253	2.0649
2.2471	2.0564
2.2413	2.0591
2.2355	2.0537
2.2297	2.0464
2.224	2.0557
2.2183	2.0679
2.2126	2.0644
2.207	2.0542
2.2013	2.0398
2.1957	2.0745
2.1902	2.071
2.1846	2.0444
2.1791	2.0403
2.1736	2.0376
2.1682	2.041
2.1628	2.0789
2.1574	2.0762
2.152	2.0332
2.1466	2.0505
2.1413	2.0554
2.136	2.0195
2.1308	2.0676
2.1255	2.0913
2.1203	2.0659
2.1151	2.0757
2.11	2.0688
2.1048	2.0832
2.0997	2.0532
2.0946	2.0488
2.0895	2.0964
2.0845	2.0911
2.0795	1.9846
