Name: Alais
Type: Meteorites
Class: Carbonaceous chondrite
Subclass: CI
Particle Size: Fine
Sample No.: 24
Owner: JHU
Wavelength Range: TIR
Origin: Museum National d'HistorieNaturelle sample no. 24.
Description: Stony Meteorites. Meteorite seen to fall in France in 1806. Particle size was 0-75 micrometers. Original ASTER Spectral Library name was jhu.becknic.meteorite.chondrite.ci.fine.alai.spectrum.txt
Measurement: Bidirectional reflectance
X Units: Wavelength (micrometers)
Y Units: Reflectance (percent)
wavelength	value
25.044	0.0994
24.339	0.3127
23.672	0.3059
23.041	0.3689
22.442	0.3743
21.874	0.3386
21.334	0.3071
20.82	0.3132
20.33	0.2424
19.863	0.2239
19.416	0.2285
18.99	0.1621
18.581	0.1934
18.19	0.2332
17.815	0.2158
17.455	0.2205
17.109	0.229
16.777	0.1985
16.458	0.1765
16.15	0.1785
15.854	0.1743
15.568	0.1746
15.292	0.1826
15.027	0.1892
14.77	0.1946
14.521	0.2051
14.281	0.1804
14.049	0.2192
13.824	0.2371
13.607	0.2554
13.396	0.282
13.191	0.3428
12.993	0.3667
12.8	0.3552
12.614	0.3896
12.432	0.4062
12.256	0.4373
12.084	0.4695
11.918	0.4814
11.755	0.5154
11.598	0.5244
11.444	0.4849
11.294	0.4761
11.149	0.4602
11.007	0.4521
10.868	0.3782
10.733	0.322
10.602	0.3025
10.473	0.2683
10.348	0.2461
10.225	0.2283
10.106	0.2227
9.9887	0.2266
9.8746	0.2175
9.763	0.2134
9.6539	0.2085
9.5472	0.1973
9.4429	0.1682
9.3408	0.1511
9.2409	0.1418
9.1431	0.1445
9.0474	0.1597
8.9536	0.1501
8.8618	0.1646
8.7718	0.1626
8.6837	0.1768
8.5973	0.1838
8.5126	0.1914
8.4295	0.209
8.3481	0.2449
8.2682	0.2927
8.1898	0.3538
8.1129	0.4275
8.0374	0.5288
7.9634	0.6282
7.8906	0.7146
7.8192	0.7737
7.7491	0.8174
7.6802	0.8464
7.6126	0.8603
7.5461	0.8667
7.4807	0.8843
7.4165	0.8901
7.3534	0.8916
7.2914	0.8933
7.2303	0.886
7.1703	0.8669
7.1113	0.8484
7.0533	0.8455
6.9962	0.843
6.94	0.8289
6.8847	0.8406
6.8302	0.876
6.7767	0.9336
6.7239	0.9853
6.672	1.0083
6.6209	1.0239
6.5705	1.0107
6.5209	0.9932
6.4721	0.9668
6.424	0.9277
6.3766	0.8899
6.3299	0.834
6.2838	0.7727
6.2385	0.7156
6.1937	0.6372
6.1496	0.5649
6.1062	0.5413
6.0633	0.5466
6.0211	0.5767
5.9794	0.6431
5.9383	0.7366
5.8978	0.8687
5.8578	0.9871
5.8184	1.0837
5.7794	1.1558
5.741	1.2202
5.7031	1.2678
5.6657	1.3027
5.6288	1.3337
5.5924	1.3601
5.5564	1.3853
5.5209	1.3972
5.4859	1.4111
5.4513	1.4404
5.4171	1.4636
5.3833	1.4858
5.35	1.4988
5.3171	1.5032
5.2846	1.519
5.2524	1.5249
5.2207	1.5315
5.1893	1.5369
5.1584	1.5439
5.1277	1.5586
5.0975	1.5662
5.0676	1.5732
5.038	1.5749
5.0088	1.5735
4.98	1.5764
4.9514	1.5767
4.9232	1.5762
4.8953	1.5732
4.8678	1.5708
4.8405	1.574
4.8135	1.5691
4.7868	1.5679
4.7605	1.5662
4.7344	1.5642
4.7086	1.5654
4.6831	1.564
4.6578	1.5698
4.6328	1.5681
4.6081	1.5669
4.5837	1.5698
4.5595	1.5786
4.5356	1.5803
4.5119	1.5727
4.4884	1.5745
4.4652	1.573
4.4423	1.5759
4.4196	1.5762
4.3971	1.572
4.3748	1.5779
4.3528	1.5771
4.331	1.5786
4.3094	1.5732
4.288	1.5749
4.2668	1.5706
4.2458	1.5754
4.2251	1.5708
4.2045	1.5771
4.1841	1.5798
4.164	1.5767
4.144	1.5725
4.1242	1.5749
4.1046	1.5752
4.0852	1.5752
4.066	1.5767
4.047	1.5732
4.0281	1.5696
4.0094	1.5676
3.9909	1.5503
3.9725	1.5312
3.9544	1.5234
3.9363	1.5186
3.9185	1.519
3.9008	1.5273
3.8833	1.5215
3.8659	1.5139
3.8487	1.5132
3.8316	1.5027
3.8147	1.4907
3.7979	1.4766
3.7813	1.4685
3.7648	1.467
3.7485	1.4504
3.7323	1.4446
3.7162	1.4311
3.7003	1.4172
3.6845	1.3972
3.6689	1.3813
3.6534	1.365
3.638	1.3513
3.6227	1.3347
3.6076	1.3186
3.5926	1.3018
3.5777	1.2898
3.563	1.2622
3.5484	1.2451
3.5338	1.2195
3.5195	1.1895
3.5052	1.1475
3.491	1.1165
3.477	1.095
3.463	1.0811
3.4492	1.0571
3.4355	1.0212
3.4219	0.9817
3.4084	0.9617
3.395	0.9526
3.3817	0.9326
3.3685	0.926
3.3554	0.9194
3.3425	0.9116
3.3296	0.8933
3.3168	0.8645
3.3041	0.8408
3.2915	0.8291
3.279	0.8037
3.2666	0.7788
3.2543	0.7639
3.2421	0.7412
3.23	0.7114
3.218	0.688
3.206	0.6702
3.1942	0.644
3.1824	0.6326
3.1707	0.6116
3.1591	0.5962
3.1476	0.5752
3.1362	0.5508
3.1249	0.551
3.1136	0.5347
3.1024	0.5212
3.0913	0.5237
3.0803	0.5208
3.0694	0.5044
3.0585	0.4951
3.0477	0.498
3.037	0.4939
3.0264	0.4832
3.0158	0.4783
3.0053	0.4666
2.9949	0.4541
2.9845	0.4524
2.9743	0.45
2.9641	0.4497
2.9539	0.4446
2.9439	0.4436
2.9339	0.4375
2.9239	0.4402
2.9141	0.439
2.9043	0.4526
2.8946	0.4543
2.8849	0.4504
2.8753	0.447
2.8658	0.4607
2.8563	0.4495
2.8469	0.4644
2.8375	0.4768
2.8282	0.4761
2.819	0.4902
2.8098	0.4966
2.8007	0.5066
2.7917	0.5198
2.7827	0.522
2.7738	0.5403
2.7649	0.5515
2.7561	0.5613
2.7473	0.5972
2.7386	0.604
2.7299	0.6023
2.7213	0.5691
2.7128	0.5449
2.7043	0.6526
2.6959	0.894
2.6875	1.1526
2.6791	1.3061
2.6709	1.3594
2.6626	1.3909
2.6545	1.4038
2.6463	1.4224
2.6382	1.4197
2.6302	1.4265
2.6222	1.4316
2.6143	1.4265
2.6064	1.4275
2.5986	1.4321
2.5908	1.4326
2.583	1.4421
2.5753	1.438
2.5677	1.4209
2.5601	1.4282
2.5525	1.418
2.545	1.4414
2.5375	1.4436
2.5301	1.4248
2.5227	1.426
2.5154	1.4287
2.5081	1.4314
2.5008	1.4436
2.4936	1.4421
2.4864	1.4365
2.4793	1.4409
2.4722	1.4409
2.4651	1.429
2.4581	1.4385
2.4511	1.4333
2.4442	1.4319
2.4373	1.4233
2.4305	1.4233
2.4236	1.428
2.4169	1.4351
2.4101	1.4246
2.4034	1.4319
2.3967	1.4365
2.3901	1.4387
2.3835	1.4404
2.377	1.4424
2.3704	1.4487
2.364	1.4453
2.3575	1.4375
2.3511	1.4482
2.3447	1.4524
2.3384	1.4424
2.3321	1.4346
2.3258	1.4604
2.3195	1.4436
2.3133	1.4375
2.3071	1.4548
2.301	1.4456
2.2949	1.4656
2.2888	1.4644
2.2828	1.4446
2.2767	1.4536
2.2708	1.4563
2.2648	1.4592
2.2589	1.4585
2.253	1.4553
2.2471	1.4668
2.2413	1.4644
2.2355	1.4551
2.2297	1.4556
2.224	1.4536
2.2183	1.4665
2.2126	1.4783
2.207	1.4697
2.2013	1.4639
2.1957	1.4805
2.1902	1.4619
2.1846	1.4612
2.1791	1.4827
2.1736	1.4851
2.1682	1.4683
2.1628	1.4739
2.1574	1.4871
2.152	1.4807
2.1466	1.4607
2.1413	1.4827
2.136	1.49
2.1308	1.47
2.1255	1.4673
2.1203	1.4673
2.1151	1.4763
2.11	1.4727
2.1048	1.4915
2.0997	1.4846
2.0946	1.4797
2.0895	1.4644
2.0845	1.477
2.0795	1.459
