Name: Winona
Type: Meteorites
Class: Anomalou
Subclass: None
Particle Size: Fine
Sample No.: Winona
Owner: JHU
Wavelength Range: TIR
Origin: Smithsonian sample No.USNM 854.
Description: Stony Meteorites. Weathered. Particle size was 0-75 micrometers. A prehistoric meteorite find.   Original ASTER Spectral Library name was jhu.becknic.meteorite.anomalous.none.fine.winon.spectrum.txt
Measurement: Bidirectional reflectance
X Units: Wavelength (micrometers)
Y Units: Reflectance (percent)
wavelength	value
25.044	0.7874
24.339	0.7661
23.672	1.0173
23.041	0.8127
22.442	0.7942
21.874	0.7908
21.334	0.6113
20.82	0.6799
20.33	0.8179
19.863	0.9905
19.416	1.0144
18.99	0.9348
18.581	0.8584
18.19	0.8718
17.815	0.7734
17.455	0.769
17.109	0.7419
16.777	0.7207
16.458	0.6711
16.15	0.5981
15.854	0.522
15.568	0.4521
15.292	0.4072
15.027	0.4282
14.77	0.4912
14.521	0.5542
14.281	0.6035
14.049	0.6438
13.824	0.6392
13.607	0.6868
13.396	0.7944
13.191	0.949
12.993	1.0574
12.8	1.0476
12.614	1.0488
12.432	1.0991
12.256	1.1125
12.084	1.002
11.918	0.8953
11.755	0.8755
11.598	0.9443
11.444	1.0537
11.294	0.9753
11.149	0.8975
11.007	0.9192
10.868	1.0046
10.733	1.0659
10.602	1.0925
10.473	1.1067
10.348	0.9727
10.225	0.9426
10.106	0.9285
9.9887	0.7944
9.8746	0.7949
9.763	0.6663
9.6539	0.6914
9.5472	0.8801
9.4429	0.9387
9.3408	0.9553
9.2409	0.9155
9.1431	0.8743
9.0474	0.8706
8.9536	0.8799
8.8618	0.8481
8.7718	0.8406
8.6837	0.824
8.5973	0.8062
8.5126	0.8218
8.4295	0.8826
8.3481	1.0061
8.2682	1.1338
8.1898	1.2329
8.1129	1.3169
8.0374	1.3987
7.9634	1.4612
7.8906	1.5364
7.8192	1.5906
7.7491	1.6133
7.6802	1.626
7.6126	1.6272
7.5461	1.626
7.4807	1.6079
7.4165	1.5945
7.3534	1.6291
7.2914	1.7034
7.2303	1.7771
7.1703	1.844
7.1113	1.9158
7.0533	1.9556
6.9962	2.0105
6.94	2.0395
6.8847	2.0408
6.8302	2.041
6.7767	2.0515
6.7239	2.0564
6.672	2.0539
6.6209	2.0798
6.5705	2.1284
6.5209	2.1831
6.4721	2.208
6.424	2.2205
6.3766	2.2004
6.3299	2.1946
6.2838	2.2097
6.2385	2.2371
6.1937	2.2576
6.1496	2.3015
6.1062	2.3252
6.0633	2.3037
6.0211	2.3015
5.9794	2.3669
5.9383	2.4927
5.8978	2.573
5.8578	2.624
5.8184	2.6611
5.7794	2.6953
5.741	2.7017
5.7031	2.6987
5.6657	2.6848
5.6288	2.6711
5.5924	2.7075
5.5564	2.814
5.5209	2.8625
5.4859	2.8586
5.4513	2.8638
5.4171	2.9055
5.3833	2.9722
5.35	3.0122
5.3171	3.0354
5.2846	3.0271
5.2524	3.0102
5.2207	2.9897
5.1893	2.9458
5.1584	2.9072
5.1277	2.9177
5.0975	2.9636
5.0676	3.0078
5.038	3.0583
5.0088	3.0898
4.98	3.1064
4.9514	3.1118
4.9232	3.1121
4.8953	3.1294
4.8678	3.1521
4.8405	3.1672
4.8135	3.2019
4.7868	3.2422
4.7605	3.2759
4.7344	3.3184
4.7086	3.3406
4.6831	3.3491
4.6578	3.3701
4.6328	3.397
4.6081	3.428
4.5837	3.4631
4.5595	3.4875
4.5356	3.5012
4.5119	3.5066
4.4884	3.519
4.4652	3.5142
4.4423	3.5234
4.4196	3.5232
4.3971	3.5232
4.3748	3.5249
4.3528	3.5205
4.331	3.5142
4.3094	3.5117
4.288	3.5032
4.2668	3.4958
4.2458	3.4997
4.2251	3.5012
4.2045	3.4932
4.1841	3.489
4.164	3.4853
4.144	3.4773
4.1242	3.4653
4.1046	3.4604
4.0852	3.4519
4.066	3.4495
4.047	3.4487
4.0281	3.4348
4.0094	3.4243
3.9909	3.4109
3.9725	3.4004
3.9544	3.3804
3.9363	3.3708
3.9185	3.3594
3.9008	3.3455
3.8833	3.3332
3.8659	3.3081
3.8487	3.2825
3.8316	3.2654
3.8147	3.2466
3.7979	3.2202
3.7813	3.2056
3.7648	3.1767
3.7485	3.155
3.7323	3.1313
3.7162	3.0986
3.7003	3.0784
3.6845	3.0561
3.6689	3.019
3.6534	3.0041
3.638	2.9761
3.6227	2.9573
3.6076	2.9375
3.5926	2.9155
3.5777	2.8896
3.563	2.8674
3.5484	2.8308
3.5338	2.811
3.5195	2.7793
3.5052	2.7446
3.491	2.7273
3.477	2.7051
3.463	2.6843
3.4492	2.6472
3.4355	2.6174
3.4219	2.5713
3.4084	2.5535
3.395	2.5244
3.3817	2.512
3.3685	2.4861
3.3554	2.4639
3.3425	2.4348
3.3296	2.4055
3.3168	2.3728
3.3041	2.3428
3.2915	2.3022
3.279	2.2729
3.2666	2.2402
3.2543	2.2097
3.2421	2.1733
3.23	2.1326
3.218	2.105
3.206	2.0769
3.1942	2.0454
3.1824	2.0129
3.1707	1.9914
3.1591	1.9697
3.1476	1.9629
3.1362	1.9421
3.1249	1.9321
3.1136	1.9214
3.1024	1.9216
3.0913	1.9368
3.0803	1.9407
3.0694	1.9443
3.0585	1.949
3.0477	1.9585
3.037	1.9658
3.0264	1.9817
3.0158	1.9834
3.0053	1.9927
2.9949	2.0059
2.9845	2.0232
2.9743	2.0256
2.9641	2.0281
2.9539	2.0464
2.9439	2.0564
2.9339	2.0696
2.9239	2.0879
2.9141	2.0986
2.9043	2.1201
2.8946	2.1418
2.8849	2.1606
2.8753	2.1838
2.8658	2.2175
2.8563	2.2478
2.8469	2.2888
2.8375	2.3247
2.8282	2.3674
2.819	2.4165
2.8098	2.4712
2.8007	2.5469
2.7917	2.6186
2.7827	2.6948
2.7738	2.7851
2.7649	2.897
2.7561	2.9748
2.7473	3.0842
2.7386	3.166
2.7299	3.227
2.7213	3.29
2.7128	3.342
2.7043	3.3906
2.6959	3.4255
2.6875	3.4394
2.6791	3.456
2.6709	3.4595
2.6626	3.4783
2.6545	3.5034
2.6463	3.5032
2.6382	3.5061
2.6302	3.4966
2.6222	3.4871
2.6143	3.4949
2.6064	3.5005
2.5986	3.4961
2.5908	3.4907
2.583	3.4941
2.5753	3.4995
2.5677	3.4836
2.5601	3.4975
2.5525	3.4851
2.545	3.4878
2.5375	3.4805
2.5301	3.4844
2.5227	3.4746
2.5154	3.4739
2.5081	3.4651
2.5008	3.4792
2.4936	3.47
2.4864	3.4619
2.4793	3.457
2.4722	3.4578
2.4651	3.4473
2.4581	3.4568
2.4511	3.4643
2.4442	3.4609
2.4373	3.4609
2.4305	3.4722
2.4236	3.4573
2.4169	3.4485
2.4101	3.4788
2.4034	3.4619
2.3967	3.4597
2.3901	3.4761
2.3835	3.478
2.377	3.4831
2.3704	3.4604
2.364	3.4631
2.3575	3.4512
2.3511	3.4502
2.3447	3.4626
2.3384	3.4739
2.3321	3.4621
2.3258	3.4675
2.3195	3.4683
2.3133	3.4717
2.3071	3.4719
2.301	3.4885
2.2949	3.4629
2.2888	3.4775
2.2828	3.47
2.2767	3.4885
2.2708	3.4639
2.2648	3.4519
2.2589	3.4648
2.253	3.4656
2.2471	3.48
2.2413	3.4729
2.2355	3.4773
2.2297	3.4878
2.224	3.4785
2.2183	3.4858
2.2126	3.4827
2.207	3.4883
2.2013	3.4927
2.1957	3.4941
2.1902	3.4651
2.1846	3.4975
2.1791	3.4751
2.1736	3.4822
2.1682	3.4956
2.1628	3.4575
2.1574	3.4778
2.152	3.4531
2.1466	3.4719
2.1413	3.4626
2.136	3.4868
2.1308	3.4578
2.1255	3.4504
2.1203	3.4643
2.1151	3.4548
2.11	3.4617
2.1048	3.4612
2.0997	3.48
2.0946	3.4665
2.0895	3.4578
2.0845	3.4419
2.0795	3.4424
