Name: ALHA 77256
Type: Meteorites
Class: Achondrite
Subclass: Diogenite
Particle Size: Fine
Sample No.: ALHA77256
Owner: JHU
Wavelength Range: TIR
Origin: Smithsonian sample No. USNM ALHA 77256.96.
Description: Stony Meteorites. Particle size was 0-75 micrometers. Meteorite found in Antarctica in 1977. Original ASTER Spectral Library name was jhu.becknic.meteorite.achondrite.diogenite.fine.a77256.spectrum.txt
Measurement: Bidirectional reflectance
X Units: Wavelength (micrometers)
Y Units: Reflectance (percent)
wavelength	value
25.044	1.7598
24.339	1.6626
23.672	1.7773
23.041	2.1328
22.442	2.5576
21.874	2.3664
21.334	2.1118
20.82	2.6682
20.33	3.4492
19.863	4.0161
19.416	4.0329
18.99	2.9014
18.581	2.897
18.19	2.9175
17.815	2.7939
17.455	3.0483
17.109	2.8254
16.777	2.6794
16.458	2.1267
16.15	1.0981
15.854	0.8777
15.568	0.9272
15.292	0.6516
15.027	0.7258
14.77	0.8574
14.521	1.126
14.281	1.0305
14.049	1.1226
13.824	1.147
13.607	1.1411
13.396	1.2688
13.191	1.5381
12.993	1.8706
12.8	1.9443
12.614	1.9539
12.432	1.9778
12.256	1.8625
12.084	1.6965
11.918	1.699
11.755	1.8713
11.598	2.199
11.444	2.5574
11.294	2.72
11.149	2.0657
11.007	1.7461
10.868	2.1514
10.733	2.5911
10.602	2.6977
10.473	2.9341
10.348	2.9375
10.225	3.1135
10.106	2.6807
9.9887	2.3049
9.8746	1.9209
9.763	2.082
9.6539	2.6675
9.5472	3.3562
9.4429	3.6162
9.3408	3.605
9.2409	3.6184
9.1431	3.7764
9.0474	3.8315
8.9536	3.4216
8.8618	3.1492
8.7718	2.4905
8.6837	1.5835
8.5973	0.7747
8.5126	0.5386
8.4295	0.542
8.3481	0.6475
8.2682	0.8311
8.1898	1.0945
8.1129	1.4382
8.0374	1.8135
7.9634	2.2029
7.8906	2.5749
7.8192	2.9331
7.7491	3.2878
7.6802	3.635
7.6126	3.9111
7.5461	4.1731
7.4807	4.4529
7.4165	4.7292
7.3534	5.0542
7.2914	5.3933
7.2303	5.6538
7.1703	5.8581
7.1113	6.0107
7.0533	6.1387
6.9962	6.24
6.94	6.3379
6.8847	6.4726
6.8302	6.6199
6.7767	6.7051
6.7239	6.718
6.672	6.634
6.6209	6.4841
6.5705	6.5632
6.5209	6.6894
6.4721	6.665
6.424	6.5393
6.3766	6.2165
6.3299	5.8481
6.2838	5.6948
6.2385	5.6382
6.1937	5.6777
6.1496	5.8796
6.1062	6.0491
6.0633	6.072
6.0211	6.0762
5.9794	6.2678
5.9383	6.8118
5.8978	7.2783
5.8578	7.4783
5.8184	7.5486
5.7794	7.5386
5.741	7.6328
5.7031	7.7431
5.6657	7.7912
5.6288	7.8825
5.5924	8.1008
5.5564	8.4499
5.5209	8.5869
5.4859	8.4997
5.4513	8.3928
5.4171	8.4079
5.3833	8.5346
5.35	8.5979
5.3171	8.393
5.2846	7.9958
5.2524	7.6357
5.2207	7.3188
5.1893	7.0146
5.1584	6.9219
5.1277	7.136
5.0975	7.436
5.0676	7.7766
5.038	8.1008
5.0088	8.3032
4.98	8.4148
4.9514	8.5359
4.9232	8.6521
4.8953	8.7326
4.8678	8.8125
4.8405	8.9697
4.8135	9.2622
4.7868	9.6125
4.7605	9.8894
4.7344	10.085
4.7086	10.286
4.6831	10.559
4.6578	10.896
4.6328	11.236
4.6081	11.54
4.5837	11.777
4.5595	11.943
4.5356	12.075
4.5119	12.157
4.4884	12.201
4.4652	12.229
4.4423	12.251
4.4196	12.275
4.3971	12.297
4.3748	12.313
4.3528	12.334
4.331	12.367
4.3094	12.393
4.288	12.413
4.2668	12.434
4.2458	12.454
4.2251	12.475
4.2045	12.495
4.1841	12.486
4.164	12.503
4.144	12.516
4.1242	12.533
4.1046	12.548
4.0852	12.565
4.066	12.592
4.047	12.611
4.0281	12.631
4.0094	12.644
3.9909	12.649
3.9725	12.656
3.9544	12.653
3.9363	12.643
3.9185	12.637
3.9008	12.634
3.8833	12.636
3.8659	12.645
3.8487	12.661
3.8316	12.671
3.8147	12.679
3.7979	12.682
3.7813	12.678
3.7648	12.669
3.7485	12.657
3.7323	12.643
3.7162	12.627
3.7003	12.609
3.6845	12.586
3.6689	12.562
3.6534	12.537
3.638	12.511
3.6227	12.483
3.6076	12.452
3.5926	12.418
3.5777	12.384
3.563	12.351
3.5484	12.319
3.5338	12.28
3.5195	12.216
3.5052	12.075
3.491	12.096
3.477	12.106
3.463	12.094
3.4492	12.031
3.4355	11.936
3.4219	11.766
3.4084	11.748
3.395	11.823
3.3817	11.793
3.3685	11.774
3.3554	11.787
3.3425	11.764
3.3296	11.724
3.3168	11.669
3.3041	11.606
3.2915	11.543
3.279	11.47
3.2666	11.396
3.2543	11.318
3.2421	11.245
3.23	11.175
3.218	11.102
3.206	11.027
3.1942	10.958
3.1824	10.893
3.1707	10.83
3.1591	10.771
3.1476	10.716
3.1362	10.665
3.1249	10.625
3.1136	10.591
3.1024	10.563
3.0913	10.54
3.0803	10.519
3.0694	10.506
3.0585	10.491
3.0477	10.481
3.037	10.463
3.0264	10.441
3.0158	10.413
3.0053	10.377
2.9949	10.35
2.9845	10.323
2.9743	10.3
2.9641	10.29
2.9539	10.29
2.9439	10.31
2.9339	10.356
2.9239	10.42
2.9141	10.49
2.9043	10.555
2.8946	10.624
2.8849	10.693
2.8753	10.775
2.8658	10.864
2.8563	10.96
2.8469	11.067
2.8375	11.179
2.8282	11.291
2.819	11.397
2.8098	11.518
2.8007	11.66
2.7917	11.809
2.7827	11.985
2.7738	12.165
2.7649	12.372
2.7561	12.6
2.7473	12.78
2.7386	13.003
2.7299	13.164
2.7213	13.356
2.7128	13.487
2.7043	13.612
2.6959	13.745
2.6875	13.822
2.6791	13.91
2.6709	14.017
2.6626	14.007
2.6545	14.022
2.6463	14.027
2.6382	14.012
2.6302	14.05
2.6222	14.006
2.6143	13.994
2.6064	14.001
2.5986	13.946
2.5908	13.92
2.583	13.913
2.5753	13.864
2.5677	13.825
2.5601	13.799
2.5525	13.768
2.545	13.73
2.5375	13.705
2.5301	13.681
2.5227	13.657
2.5154	13.639
2.5081	13.618
2.5008	13.599
2.4936	13.579
2.4864	13.55
2.4793	13.522
2.4722	13.493
2.4651	13.452
2.4581	13.419
2.4511	13.38
2.4442	13.333
2.4373	13.282
2.4305	13.233
2.4236	13.172
2.4169	13.112
2.4101	13.039
2.4034	12.978
2.3967	12.903
2.3901	12.832
2.3835	12.766
2.377	12.695
2.3704	12.63
2.364	12.566
2.3575	12.505
2.3511	12.443
2.3447	12.389
2.3384	12.328
2.3321	12.268
2.3258	12.21
2.3195	12.151
2.3133	12.093
2.3071	12.022
2.301	11.96
2.2949	11.888
2.2888	11.819
2.2828	11.743
2.2767	11.668
2.2708	11.584
2.2648	11.506
2.2589	11.412
2.253	11.321
2.2471	11.236
2.2413	11.146
2.2355	11.058
2.2297	10.963
2.224	10.88
2.2183	10.8
2.2126	10.718
2.207	10.635
2.2013	10.555
2.1957	10.477
2.1902	10.402
2.1846	10.336
2.1791	10.256
2.1736	10.188
2.1682	10.108
2.1628	10.039
2.1574	9.9621
2.152	9.8886
2.1466	9.8137
2.1413	9.7353
2.136	9.6623
2.1308	9.5813
2.1255	9.4995
2.1203	9.4272
2.1151	9.3442
2.11	9.2656
2.1048	9.1928
2.0997	9.1137
2.0946	9.049
2.0895	8.9746
2.0845	8.9094
2.0795	8.8452
