Name: Warrenton
Type: Meteorites
Class: Carbonaceous Chondrite
Subclass: CO
Particle Size: Fine
Sample No.: Warrenton
Owner: JHU
Wavelength Range: TIR
Origin: Smithsonian sample No.AMNH 4151 obtained via Tom Jones.
Description: Stony Meteorites. Particle size was 0-75 micrometers.  Meteorite seen to fall in Missouri in 1877.   Original ASTER Spectral Library name was jhu.becknic.meteorite.chondrite.co.fine.warrent.spectrum.txt
Measurement: Bidirectional reflectance
X Units: Wavelength (micrometers)
Y Units: Reflectance (percent)
wavelength	value
25.044	0.5483
24.339	0.7471
23.672	0.6526
23.041	0.5835
22.442	0.613
21.874	0.6643
21.334	0.6716
20.82	0.7122
20.33	0.678
19.863	0.7334
19.416	0.769
18.99	0.7893
18.581	0.7698
18.19	0.7092
17.815	0.5923
17.455	0.5771
17.109	0.5596
16.777	0.53
16.458	0.5124
16.15	0.5195
15.854	0.5193
15.568	0.5264
15.292	0.5447
15.027	0.5952
14.77	0.646
14.521	0.7087
14.281	0.7795
14.049	0.8408
13.824	0.8936
13.607	0.9521
13.396	1.1042
13.191	1.229
12.993	1.3061
12.8	1.3269
12.614	1.2993
12.432	1.2302
12.256	1.0466
12.084	0.8164
11.918	0.6892
11.755	0.7471
11.598	0.7747
11.444	0.8186
11.294	0.8235
11.149	0.8184
11.007	0.8198
10.868	0.8538
10.733	0.8711
10.602	0.8118
10.473	0.7639
10.348	0.7544
10.225	0.7166
10.106	0.6418
9.9887	0.6301
9.8746	0.6533
9.763	0.6582
9.6539	0.708
9.5472	0.8027
9.4429	0.8411
9.3408	0.8115
9.2409	0.76
9.1431	0.7732
9.0474	0.833
8.9536	0.8943
8.8618	0.9827
8.7718	1.0305
8.6837	1.0771
8.5973	1.1763
8.5126	1.241
8.4295	1.3169
8.3481	1.3957
8.2682	1.4853
8.1898	1.5652
8.1129	1.6484
8.0374	1.7165
7.9634	1.7676
7.8906	1.8105
7.8192	1.8418
7.7491	1.8796
7.6802	1.8953
7.6126	1.9209
7.5461	1.9497
7.4807	1.9866
7.4165	2.0217
7.3534	2.051
7.2914	2.0825
7.2303	2.1143
7.1703	2.1433
7.1113	2.1821
7.0533	2.2307
6.9962	2.2761
6.94	2.3044
6.8847	2.3179
6.8302	2.3389
6.7767	2.3691
6.7239	2.3852
6.672	2.3784
6.6209	2.3743
6.5705	2.3782
6.5209	2.3647
6.4721	2.3352
6.424	2.2978
6.3766	2.2654
6.3299	2.2246
6.2838	2.2009
6.2385	2.2051
6.1937	2.2156
6.1496	2.2378
6.1062	2.2253
6.0633	2.1653
6.0211	2.1619
5.9794	2.2158
5.9383	2.2744
5.8978	2.3152
5.8578	2.3601
5.8184	2.3818
5.7794	2.3843
5.741	2.3408
5.7031	2.2788
5.6657	2.2651
5.6288	2.3086
5.5924	2.3711
5.5564	2.4014
5.5209	2.4145
5.4859	2.4206
5.4513	2.4458
5.4171	2.4726
5.3833	2.5027
5.35	2.5151
5.3171	2.5347
5.2846	2.5432
5.2524	2.5566
5.2207	2.5701
5.1893	2.5718
5.1584	2.5735
5.1277	2.5715
5.0975	2.5847
5.0676	2.5884
5.038	2.6096
5.0088	2.6201
4.98	2.6511
4.9514	2.6726
4.9232	2.6938
4.8953	2.7163
4.8678	2.729
4.8405	2.7427
4.8135	2.7556
4.7868	2.7683
4.7605	2.7778
4.7344	2.7861
4.7086	2.8015
4.6831	2.8137
4.6578	2.8257
4.6328	2.8345
4.6081	2.852
4.5837	2.8662
4.5595	2.8774
4.5356	2.886
4.5119	2.8933
4.4884	2.8979
4.4652	2.9031
4.4423	2.9128
4.4196	2.9163
4.3971	2.9172
4.3748	2.9253
4.3528	2.9241
4.331	2.9202
4.3094	2.9175
4.288	2.9243
4.2668	2.928
4.2458	2.9255
4.2251	2.9299
4.2045	2.9358
4.1841	2.9368
4.164	2.9368
4.144	2.9377
4.1242	2.9404
4.1046	2.9448
4.0852	2.9468
4.066	2.9546
4.047	2.9604
4.0281	2.9536
4.0094	2.9568
3.9909	2.9614
3.9725	2.9578
3.9544	2.9575
3.9363	2.9619
3.9185	2.9622
3.9008	2.9636
3.8833	2.9643
3.8659	2.9578
3.8487	2.9546
3.8316	2.9487
3.8147	2.9448
3.7979	2.9382
3.7813	2.9382
3.7648	2.9397
3.7485	2.937
3.7323	2.9331
3.7162	2.9277
3.7003	2.9202
3.6845	2.9094
3.6689	2.9004
3.6534	2.8994
3.638	2.8955
3.6227	2.8955
3.6076	2.8948
3.5926	2.8865
3.5777	2.8765
3.563	2.8735
3.5484	2.8608
3.5338	2.8511
3.5195	2.8352
3.5052	2.8081
3.491	2.8032
3.477	2.8071
3.463	2.8064
3.4492	2.791
3.4355	2.7659
3.4219	2.7336
3.4084	2.7317
3.395	2.7405
3.3817	2.7341
3.3685	2.7353
3.3554	2.7361
3.3425	2.7388
3.3296	2.7334
3.3168	2.7261
3.3041	2.7129
3.2915	2.7048
3.279	2.6934
3.2666	2.6853
3.2543	2.6728
3.2421	2.6641
3.23	2.655
3.218	2.6421
3.206	2.6396
3.1942	2.6226
3.1824	2.6123
3.1707	2.6045
3.1591	2.5989
3.1476	2.5845
3.1362	2.5735
3.1249	2.561
3.1136	2.5471
3.1024	2.5437
3.0913	2.54
3.0803	2.53
3.0694	2.5205
3.0585	2.5117
3.0477	2.5081
3.037	2.5034
3.0264	2.4936
3.0158	2.4875
3.0053	2.4761
2.9949	2.4709
2.9845	2.459
2.9743	2.4624
2.9641	2.4548
2.9539	2.4477
2.9439	2.4509
2.9339	2.4463
2.9239	2.4438
2.9141	2.4429
2.9043	2.4473
2.8946	2.4519
2.8849	2.453
2.8753	2.4551
2.8658	2.4531
2.8563	2.4612
2.8469	2.47
2.8375	2.4748
2.8282	2.4902
2.819	2.4985
2.8098	2.512
2.8007	2.5273
2.7917	2.5281
2.7827	2.5515
2.7738	2.5693
2.7649	2.5793
2.7561	2.5923
2.7473	2.613
2.7386	2.6184
2.7299	2.6418
2.7213	2.6411
2.7128	2.654
2.7043	2.6733
2.6959	2.668
2.6875	2.6914
2.6791	2.6965
2.6709	2.6787
2.6626	2.7007
2.6545	2.6999
2.6463	2.7024
2.6382	2.7068
2.6302	2.6885
2.6222	2.6897
2.6143	2.7002
2.6064	2.6948
2.5986	2.6936
2.5908	2.6973
2.583	2.689
2.5753	2.696
2.5677	2.6836
2.5601	2.6809
2.5525	2.6899
2.545	2.6936
2.5375	2.6848
2.5301	2.6887
2.5227	2.6872
2.5154	2.6877
2.5081	2.6724
2.5008	2.6821
2.4936	2.6755
2.4864	2.6772
2.4793	2.6643
2.4722	2.6638
2.4651	2.6645
2.4581	2.6699
2.4511	2.6545
2.4442	2.6536
2.4373	2.6631
2.4305	2.6594
2.4236	2.656
2.4169	2.6572
2.4101	2.657
2.4034	2.6475
2.3967	2.6543
2.3901	2.6626
2.3835	2.6479
2.377	2.6562
2.3704	2.6492
2.364	2.6531
2.3575	2.6545
2.3511	2.6565
2.3447	2.6577
2.3384	2.6426
2.3321	2.6531
2.3258	2.6536
2.3195	2.6555
2.3133	2.6475
2.3071	2.6445
2.301	2.6514
2.2949	2.6518
2.2888	2.656
2.2828	2.6501
2.2767	2.6509
2.2708	2.646
2.2648	2.6435
2.2589	2.6453
2.253	2.6582
2.2471	2.6453
2.2413	2.6406
2.2355	2.6372
2.2297	2.6435
2.224	2.6506
2.2183	2.6457
2.2126	2.6389
2.207	2.6545
2.2013	2.6404
2.1957	2.6401
2.1902	2.6387
2.1846	2.6523
2.1791	2.6514
2.1736	2.6689
2.1682	2.6565
2.1628	2.6672
2.1574	2.6445
2.152	2.658
2.1466	2.6548
2.1413	2.6643
2.136	2.6562
2.1308	2.6682
2.1255	2.6599
2.1203	2.6665
2.1151	2.6626
2.11	2.6621
2.1048	2.6562
2.0997	2.668
2.0946	2.6638
2.0895	2.6306
2.0845	2.6672
2.0795	2.6499
