Name: Murray
Type: Meteorites
Class: Carbonaceous Chondrite
Subclass: CM2
Particle Size: Fine
Sample No.: Murray
Owner: JHU
Wavelength Range: TIR
Origin: Arizona State Universitysample No. 635.2 obtained via Tom Jones.
Description: Stony Meteorites. Particle size was 0-75 micrometers. Meteorite seen to fall in Kentucky in 1950. Original ASTER Spectral Library name was jhu.becknic.meteorite.chondrite.cm2.fine.murray.spectrum.txt
Measurement: Bidirectional reflectance
X Units: Wavelength (micrometers)
Y Units: Reflectance (percent)
wavelength	value
25.044	0.4858
24.339	0.6023
23.672	0.5618
23.041	0.4761
22.442	0.478
21.874	0.4358
21.334	0.4316
20.82	0.4114
20.33	0.4141
19.863	0.4475
19.416	0.4409
18.99	0.4021
18.581	0.3557
18.19	0.3667
17.815	0.3354
17.455	0.3391
17.109	0.3479
16.777	0.3462
16.458	0.3342
16.15	0.3306
15.854	0.3035
15.568	0.2917
15.292	0.2788
15.027	0.2776
14.77	0.2908
14.521	0.3115
14.281	0.3594
14.049	0.4019
13.824	0.4241
13.607	0.4487
13.396	0.5076
13.191	0.5793
12.993	0.6589
12.8	0.7236
12.614	0.7847
12.432	0.8242
12.256	0.8411
12.084	0.8083
11.918	0.7129
11.755	0.6877
11.598	0.6616
11.444	0.6465
11.294	0.6248
11.149	0.5916
11.007	0.5486
10.868	0.5276
10.733	0.5022
10.602	0.4673
10.473	0.4265
10.348	0.386
10.225	0.3584
10.106	0.3267
9.9887	0.3164
9.8746	0.303
9.763	0.2754
9.6539	0.2644
9.5472	0.2761
9.4429	0.2891
9.3408	0.3027
9.2409	0.3027
9.1431	0.3032
9.0474	0.3267
8.9536	0.335
8.8618	0.3384
8.7718	0.3406
8.6837	0.3486
8.5973	0.3821
8.5126	0.4084
8.4295	0.4541
8.3481	0.5132
8.2682	0.5898
8.1898	0.6804
8.1129	0.7778
8.0374	0.8701
7.9634	0.9463
7.8906	1.0073
7.8192	1.0566
7.7491	1.0996
7.6802	1.1243
7.6126	1.1394
7.5461	1.1531
7.4807	1.168
7.4165	1.1772
7.3534	1.1858
7.2914	1.1838
7.2303	1.1728
7.1703	1.1619
7.1113	1.158
7.0533	1.1577
6.9962	1.1584
6.94	1.1675
6.8847	1.1873
6.8302	1.2144
6.7767	1.2578
6.7239	1.2959
6.672	1.323
6.6209	1.3394
6.5705	1.3445
6.5209	1.3374
6.4721	1.3245
6.424	1.304
6.3766	1.2678
6.3299	1.2332
6.2838	1.21
6.2385	1.2053
6.1937	1.2046
6.1496	1.2029
6.1062	1.2161
6.0633	1.2505
6.0211	1.2778
5.9794	1.3164
5.9383	1.3767
5.8978	1.4473
5.8578	1.4915
5.8184	1.532
5.7794	1.5688
5.741	1.592
5.7031	1.605
5.6657	1.6174
5.6288	1.6238
5.5924	1.6279
5.5564	1.6394
5.5209	1.6626
5.4859	1.6677
5.4513	1.6726
5.4171	1.6831
5.3833	1.687
5.35	1.6977
5.3171	1.7004
5.2846	1.7053
5.2524	1.7065
5.2207	1.7087
5.1893	1.7075
5.1584	1.7104
5.1277	1.7104
5.0975	1.7192
5.0676	1.7246
5.038	1.7344
5.0088	1.7385
4.98	1.7436
4.9514	1.7456
4.9232	1.7468
4.8953	1.7488
4.8678	1.7524
4.8405	1.7556
4.8135	1.7568
4.7868	1.7615
4.7605	1.7598
4.7344	1.76
4.7086	1.7583
4.6831	1.7612
4.6578	1.762
4.6328	1.7632
4.6081	1.7651
4.5837	1.7668
4.5595	1.7634
4.5356	1.7666
4.5119	1.7646
4.4884	1.7649
4.4652	1.7639
4.4423	1.7617
4.4196	1.7642
4.3971	1.7637
4.3748	1.7646
4.3528	1.7612
4.331	1.7605
4.3094	1.7595
4.288	1.759
4.2668	1.7559
4.2458	1.7559
4.2251	1.7522
4.2045	1.7488
4.1841	1.7439
4.164	1.7402
4.144	1.7368
4.1242	1.7329
4.1046	1.7283
4.0852	1.7268
4.066	1.7231
4.047	1.7197
4.0281	1.7124
4.0094	1.7082
3.9909	1.6985
3.9725	1.6919
3.9544	1.6919
3.9363	1.6924
3.9185	1.6907
3.9008	1.6863
3.8833	1.6794
3.8659	1.6741
3.8487	1.6672
3.8316	1.6631
3.8147	1.6562
3.7979	1.6553
3.7813	1.647
3.7648	1.6399
3.7485	1.6321
3.7323	1.6226
3.7162	1.6179
3.7003	1.6082
3.6845	1.5979
3.6689	1.5889
3.6534	1.5815
3.638	1.5749
3.6227	1.5647
3.6076	1.5554
3.5926	1.5493
3.5777	1.5381
3.563	1.5283
3.5484	1.5195
3.5338	1.5088
3.5195	1.489
3.5052	1.4683
3.491	1.4543
3.477	1.437
3.463	1.4358
3.4492	1.4233
3.4355	1.4019
3.4219	1.3818
3.4084	1.3701
3.395	1.3618
3.3817	1.3501
3.3685	1.3391
3.3554	1.3411
3.3425	1.3415
3.3296	1.3406
3.3168	1.323
3.3041	1.312
3.2915	1.3008
3.279	1.2859
3.2666	1.2729
3.2543	1.2605
3.2421	1.2429
3.23	1.2302
3.218	1.2158
3.206	1.1946
3.1942	1.1772
3.1824	1.1658
3.1707	1.1506
3.1591	1.1333
3.1476	1.115
3.1362	1.0996
3.1249	1.0825
3.1136	1.0681
3.1024	1.0537
3.0913	1.0334
3.0803	1.02
3.0694	1.0049
3.0585	0.9936
3.0477	0.9822
3.037	0.9668
3.0264	0.9521
3.0158	0.9397
3.0053	0.9297
2.9949	0.9209
2.9845	0.9099
2.9743	0.9026
2.9641	0.896
2.9539	0.8909
2.9439	0.8862
2.9339	0.8791
2.9239	0.8745
2.9141	0.8674
2.9043	0.8584
2.8946	0.8579
2.8849	0.8516
2.8753	0.8423
2.8658	0.8328
2.8563	0.8184
2.8469	0.8049
2.8375	0.7932
2.8282	0.7871
2.819	0.7781
2.8098	0.7725
2.8007	0.7688
2.7917	0.7729
2.7827	0.7876
2.7738	0.8083
2.7649	0.832
2.7561	0.8704
2.7473	0.9031
2.7386	0.946
2.7299	0.9812
2.7213	1.0207
2.7128	1.0784
2.7043	1.1885
2.6959	1.3064
2.6875	1.352
2.6791	1.376
2.6709	1.4001
2.6626	1.3965
2.6545	1.3901
2.6463	1.3906
2.6382	1.3835
2.6302	1.3892
2.6222	1.3867
2.6143	1.386
2.6064	1.3853
2.5986	1.3813
2.5908	1.3806
2.583	1.3667
2.5753	1.3643
2.5677	1.3621
2.5601	1.3572
2.5525	1.3562
2.545	1.3542
2.5375	1.3437
2.5301	1.333
2.5227	1.333
2.5154	1.3245
2.5081	1.3174
2.5008	1.3235
2.4936	1.3108
2.4864	1.303
2.4793	1.3081
2.4722	1.2991
2.4651	1.2998
2.4581	1.2871
2.4511	1.2839
2.4442	1.2815
2.4373	1.2856
2.4305	1.2854
2.4236	1.2815
2.4169	1.2898
2.4101	1.2778
2.4034	1.2737
2.3967	1.2683
2.3901	1.2739
2.3835	1.2693
2.377	1.27
2.3704	1.2769
2.364	1.2781
2.3575	1.2595
2.3511	1.251
2.3447	1.25
2.3384	1.2524
2.3321	1.2419
2.3258	1.2368
2.3195	1.2412
2.3133	1.2353
2.3071	1.2339
2.301	1.2378
2.2949	1.2258
2.2888	1.2388
2.2828	1.2344
2.2767	1.2351
2.2708	1.2234
2.2648	1.2307
2.2589	1.2112
2.253	1.2165
2.2471	1.2229
2.2413	1.2139
2.2355	1.2117
2.2297	1.2046
2.224	1.2209
2.2183	1.2136
2.2126	1.2024
2.207	1.2134
2.2013	1.2041
2.1957	1.1968
2.1902	1.2029
2.1846	1.1978
2.1791	1.1992
2.1736	1.1963
2.1682	1.2014
2.1628	1.2012
2.1574	1.1916
2.152	1.1924
2.1466	1.1948
2.1413	1.2017
2.136	1.1956
2.1308	1.1985
2.1255	1.1887
2.1203	1.188
2.1151	1.1943
2.11	1.1956
2.1048	1.1851
2.0997	1.1799
2.0946	1.1924
2.0895	1.1855
2.0845	1.188
2.0795	1.1946
