Name: ALH 83102
Type: Meteorites
Class: Carbonaceous chondrite
Subclass: CM2
Particle Size: Fine
Sample No.: ALH83102
Owner: JHU
Wavelength Range: TIR
Origin: Smithsonian sample USNM No.ALH 83102.45.
Description: Stony Meteorites. Particle size was 0-75 micrometers. Meteorite found in Antarctica in 1983.  Original ASTER Spectral Library name was jhu.becknic.meteorite.chondrite.cm2.fine.a83102.spectrum.txt
Measurement: Bidirectional reflectance
X Units: Wavelength (micrometers)
Y Units: Reflectance (percent)
wavelength	value
25.044	0.7842
24.339	0.7004
23.672	0.7412
23.041	0.7119
22.442	0.8069
21.874	0.7827
21.334	0.7512
20.82	0.7061
20.33	0.6394
19.863	0.5496
19.416	0.4709
18.99	0.3416
18.581	0.3074
18.19	0.311
17.815	0.3269
17.455	0.3447
17.109	0.3672
16.777	0.3904
16.458	0.3948
16.15	0.4038
15.854	0.407
15.568	0.3875
15.292	0.3853
15.027	0.3257
14.77	0.2979
14.521	0.2686
14.281	0.2634
14.049	0.2688
13.824	0.2878
13.607	0.3042
13.396	0.3506
13.191	0.3723
12.993	0.3977
12.8	0.4509
12.614	0.4895
12.432	0.5295
12.256	0.5928
12.084	0.6301
11.918	0.6538
11.755	0.6882
11.598	0.7078
11.444	0.6812
11.294	0.6909
11.149	0.6692
11.007	0.6143
10.868	0.5752
10.733	0.5442
10.602	0.5327
10.473	0.5251
10.348	0.5149
10.225	0.5186
10.106	0.5127
9.9887	0.5088
9.8746	0.5171
9.763	0.5034
9.6539	0.477
9.5472	0.4221
9.4429	0.3623
9.3408	0.3088
9.2409	0.2773
9.1431	0.2563
9.0474	0.2571
8.9536	0.2698
8.8618	0.2822
8.7718	0.2959
8.6837	0.3289
8.5973	0.3574
8.5126	0.3862
8.4295	0.4226
8.3481	0.4661
8.2682	0.5371
8.1898	0.634
8.1129	0.7434
8.0374	0.8467
7.9634	0.9248
7.8906	0.9985
7.8192	1.0459
7.7491	1.0806
7.6802	1.1057
7.6126	1.1233
7.5461	1.1343
7.4807	1.1482
7.4165	1.147
7.3534	1.1389
7.2914	1.1208
7.2303	1.1052
7.1703	1.1101
7.1113	1.115
7.0533	1.1323
6.9962	1.1379
6.94	1.1426
6.8847	1.146
6.8302	1.156
6.7767	1.189
6.7239	1.2163
6.672	1.2402
6.6209	1.2617
6.5705	1.2773
6.5209	1.292
6.4721	1.302
6.424	1.3015
6.3766	1.2925
6.3299	1.2727
6.2838	1.2419
6.2385	1.2168
6.1937	1.175
6.1496	1.1294
6.1062	1.1287
6.0633	1.1438
6.0211	1.175
5.9794	1.2197
5.9383	1.2644
5.8978	1.3262
5.8578	1.3799
5.8184	1.4226
5.7794	1.4524
5.741	1.4785
5.7031	1.4998
5.6657	1.5207
5.6288	1.5393
5.5924	1.5466
5.5564	1.55
5.5209	1.5642
5.4859	1.584
5.4513	1.6189
5.4171	1.6423
5.3833	1.6584
5.35	1.6731
5.3171	1.6865
5.2846	1.7024
5.2524	1.7124
5.2207	1.7236
5.1893	1.7319
5.1584	1.7385
5.1277	1.7451
5.0975	1.7483
5.0676	1.7534
5.038	1.7539
5.0088	1.7595
4.98	1.7627
4.9514	1.769
4.9232	1.7742
4.8953	1.7766
4.8678	1.7837
4.8405	1.7895
4.8135	1.7886
4.7868	1.7932
4.7605	1.7983
4.7344	1.804
4.7086	1.8049
4.6831	1.8123
4.6578	1.8118
4.6328	1.8203
4.6081	1.8208
4.5837	1.8242
4.5595	1.8271
4.5356	1.8252
4.5119	1.8254
4.4884	1.8237
4.4652	1.8247
4.4423	1.824
4.4196	1.8254
4.3971	1.8235
4.3748	1.8245
4.3528	1.8245
4.331	1.8223
4.3094	1.8169
4.288	1.8164
4.2668	1.8144
4.2458	1.8149
4.2251	1.8166
4.2045	1.8108
4.1841	1.8123
4.164	1.812
4.144	1.8066
4.1242	1.8061
4.1046	1.8027
4.0852	1.7978
4.066	1.7969
4.047	1.7891
4.0281	1.7788
4.0094	1.7639
3.9909	1.7395
3.9725	1.7192
3.9544	1.7161
3.9363	1.7126
3.9185	1.7141
3.9008	1.7134
3.8833	1.7124
3.8659	1.7068
3.8487	1.699
3.8316	1.6882
3.8147	1.6755
3.7979	1.6682
3.7813	1.6631
3.7648	1.6594
3.7485	1.6509
3.7323	1.646
3.7162	1.6289
3.7003	1.6223
3.6845	1.6101
3.6689	1.5998
3.6534	1.5864
3.638	1.5813
3.6227	1.5686
3.6076	1.5554
3.5926	1.5395
3.5777	1.5288
3.563	1.5151
3.5484	1.4971
3.5338	1.481
3.5195	1.4551
3.5052	1.4287
3.491	1.4033
3.477	1.384
3.463	1.373
3.4492	1.3562
3.4355	1.3384
3.4219	1.3132
3.4084	1.2996
3.395	1.2922
3.3817	1.2795
3.3685	1.2737
3.3554	1.2725
3.3425	1.2646
3.3296	1.2539
3.3168	1.2375
3.3041	1.2263
3.2915	1.2165
3.279	1.1953
3.2666	1.1819
3.2543	1.1628
3.2421	1.1448
3.23	1.1291
3.218	1.1057
3.206	1.0889
3.1942	1.0725
3.1824	1.0496
3.1707	1.0281
3.1591	1.009
3.1476	0.9856
3.1362	0.9641
3.1249	0.9448
3.1136	0.9277
3.1024	0.9092
3.0913	0.8901
3.0803	0.876
3.0694	0.8545
3.0585	0.8425
3.0477	0.8252
3.037	0.8066
3.0264	0.7944
3.0158	0.7817
3.0053	0.762
2.9949	0.7527
2.9845	0.738
2.9743	0.7236
2.9641	0.7126
2.9539	0.6999
2.9439	0.6909
2.9339	0.677
2.9239	0.6704
2.9141	0.6675
2.9043	0.6594
2.8946	0.6455
2.8849	0.6453
2.8753	0.6331
2.8658	0.6172
2.8563	0.6099
2.8469	0.5925
2.8375	0.5779
2.8282	0.5627
2.819	0.5395
2.8098	0.5264
2.8007	0.5076
2.7917	0.4988
2.7827	0.4854
2.7738	0.469
2.7649	0.4663
2.7561	0.4607
2.7473	0.4622
2.7386	0.4612
2.7299	0.4617
2.7213	0.4783
2.7128	0.5535
2.7043	0.7739
2.6959	1.1133
2.6875	1.3032
2.6791	1.3623
2.6709	1.3896
2.6626	1.3948
2.6545	1.3979
2.6463	1.4084
2.6382	1.406
2.6302	1.4141
2.6222	1.4104
2.6143	1.4053
2.6064	1.404
2.5986	1.3982
2.5908	1.4016
2.583	1.3936
2.5753	1.3843
2.5677	1.3889
2.5601	1.3838
2.5525	1.3833
2.545	1.3686
2.5375	1.3777
2.5301	1.3667
2.5227	1.3674
2.5154	1.3564
2.5081	1.3489
2.5008	1.343
2.4936	1.3433
2.4864	1.3249
2.4793	1.3298
2.4722	1.3254
2.4651	1.3218
2.4581	1.3118
2.4511	1.3162
2.4442	1.2966
2.4373	1.3027
2.4305	1.3032
2.4236	1.2939
2.4169	1.2856
2.4101	1.2878
2.4034	1.3
2.3967	1.293
2.3901	1.2827
2.3835	1.2832
2.377	1.2898
2.3704	1.2759
2.364	1.2747
2.3575	1.2693
2.3511	1.2634
2.3447	1.261
2.3384	1.2432
2.3321	1.2378
2.3258	1.2478
2.3195	1.2371
2.3133	1.2478
2.3071	1.2449
2.301	1.2351
2.2949	1.2422
2.2888	1.2493
2.2828	1.2356
2.2767	1.2227
2.2708	1.2397
2.2648	1.2249
2.2589	1.2322
2.253	1.2356
2.2471	1.2341
2.2413	1.2322
2.2355	1.2222
2.2297	1.2332
2.224	1.2234
2.2183	1.2146
2.2126	1.218
2.207	1.228
2.2013	1.2041
2.1957	1.2268
2.1902	1.2146
2.1846	1.2114
2.1791	1.2344
2.1736	1.2095
2.1682	1.2034
2.1628	1.2153
2.1574	1.209
2.152	1.209
2.1466	1.219
2.1413	1.2048
2.136	1.2068
2.1308	1.1934
2.1255	1.2002
2.1203	1.2139
2.1151	1.1999
2.11	1.1999
2.1048	1.2043
2.0997	1.2109
2.0946	1.1975
2.0895	1.2227
2.0845	1.1853
2.0795	1.1855
