Name: ALHA 77005
Type: Meteorites
Class: Achondrite
Subclass: Shergottite
Particle Size: Fine
Sample No.: ALHA77005
Owner: JHU
Wavelength Range: TIR
Origin: Smithsonian sample (USNMsample No. ALHA 77005.38).
Description: Stony Meteorites. Particle size was 0-75 micrometers. Meteorite found in Antarctica in 1977. Original ASTER Spectral Library name was jhu.becknic.meteorite.achondrite.shergottite.fine.a77005.spectrum.txt
Measurement: Bidirectional reflectance
X Units: Wavelength (micrometers)
Y Units: Reflectance (percent)
wavelength	value
25.044	1.8789
24.339	1.8528
23.672	1.5005
23.041	1.2187
22.442	0.9932
21.874	1.0264
21.334	1.1941
20.82	1.2839
20.33	1.5444
19.863	1.6255
19.416	1.6719
18.99	1.7351
18.581	1.6577
18.19	1.4658
17.815	1.262
17.455	1.1345
17.109	1.0195
16.777	1.0498
16.458	1.0669
16.15	1.0461
15.854	0.9587
15.568	0.8062
15.292	0.7766
15.027	0.8687
14.77	0.9902
14.521	1.1921
14.281	1.4099
14.049	1.4871
13.824	1.5181
13.607	1.5749
13.396	1.7624
13.191	1.9287
12.993	2.0054
12.8	1.9412
12.614	1.852
12.432	1.7424
12.256	1.5583
12.084	1.3638
11.918	1.2148
11.755	1.3064
11.598	1.5056
11.444	1.8186
11.294	1.9668
11.149	1.9558
11.007	2.0032
10.868	2.1213
10.733	2.1665
10.602	2.0102
10.473	1.6472
10.348	1.6023
10.225	1.6045
10.106	1.4685
9.9887	1.4448
9.8746	1.4463
9.763	1.4746
9.6539	1.5508
9.5472	1.6191
9.4429	1.6436
9.3408	1.4705
9.2409	1.3069
9.1431	1.2744
9.0474	1.2991
8.9536	1.2983
8.8618	1.2615
8.7718	1.1692
8.6837	1.1387
8.5973	1.1562
8.5126	1.2451
8.4295	1.4021
8.3481	1.6103
8.2682	1.874
8.1898	2.2239
8.1129	2.6201
8.0374	3.0442
7.9634	3.4458
7.8906	3.7925
7.8192	4.095
7.7491	4.3596
7.6802	4.5481
7.6126	4.7207
7.5461	4.938
7.4807	5.1899
7.4165	5.4473
7.3534	5.6645
7.2914	5.8225
7.2303	5.9868
7.1703	6.1343
7.1113	6.2571
7.0533	6.415
6.9962	6.605
6.94	6.7458
6.8847	6.8291
6.8302	6.9375
6.7767	7.0615
6.7239	7.1225
6.672	7.0881
6.6209	7.05
6.5705	7.0371
6.5209	7.0674
6.4721	7.0617
6.424	7.0173
6.3766	6.968
6.3299	6.8735
6.2838	6.8222
6.2385	6.7893
6.1937	6.7949
6.1496	6.811
6.1062	6.6863
6.0633	6.3718
6.0211	6.1897
5.9794	6.3164
5.9383	6.4795
5.8978	6.6279
5.8578	6.7844
5.8184	6.885
5.7794	6.9629
5.741	6.8386
5.7031	6.602
5.6657	6.4216
5.6288	6.5168
5.5924	6.824
5.5564	7.0671
5.5209	7.1538
5.4859	7.1909
5.4513	7.291
5.4171	7.4263
5.3833	7.5444
5.35	7.6091
5.3171	7.6284
5.2846	7.613
5.2524	7.6438
5.2207	7.7226
5.1893	7.7954
5.1584	7.8913
5.1277	8.0112
5.0975	8.1264
5.0676	8.2283
5.038	8.312
5.0088	8.3935
4.98	8.5027
4.9514	8.7219
4.9232	8.9729
4.8953	9.2087
4.8678	9.3803
4.8405	9.5276
4.8135	9.6572
4.7868	9.7964
4.7605	9.9148
4.7344	10.034
4.7086	10.136
4.6831	10.254
4.6578	10.38
4.6328	10.518
4.6081	10.624
4.5837	10.734
4.5595	10.828
4.5356	10.898
4.5119	10.96
4.4884	11.012
4.4652	11.06
4.4423	11.099
4.4196	11.132
4.3971	11.174
4.3748	11.211
4.3528	11.233
4.331	11.25
4.3094	11.274
4.288	11.315
4.2668	11.337
4.2458	11.368
4.2251	11.401
4.2045	11.44
4.1841	11.471
4.164	11.49
4.144	11.511
4.1242	11.532
4.1046	11.553
4.0852	11.576
4.066	11.596
4.047	11.614
4.0281	11.62
4.0094	11.636
3.9909	11.651
3.9725	11.656
3.9544	11.658
3.9363	11.658
3.9185	11.665
3.9008	11.672
3.8833	11.663
3.8659	11.653
3.8487	11.651
3.8316	11.648
3.8147	11.647
3.7979	11.626
3.7813	11.628
3.7648	11.617
3.7485	11.614
3.7323	11.595
3.7162	11.59
3.7003	11.566
3.6845	11.56
3.6689	11.547
3.6534	11.537
3.638	11.532
3.6227	11.511
3.6076	11.496
3.5926	11.468
3.5777	11.449
3.563	11.409
3.5484	11.375
3.5338	11.338
3.5195	11.272
3.5052	11.129
3.491	11.129
3.477	11.127
3.463	11.1
3.4492	11.048
3.4355	10.958
3.4219	10.814
3.4084	10.799
3.395	10.88
3.3817	10.879
3.3685	10.873
3.3554	10.925
3.3425	10.928
3.3296	10.915
3.3168	10.903
3.3041	10.869
3.2915	10.84
3.279	10.803
3.2666	10.75
3.2543	10.737
3.2421	10.697
3.23	10.67
3.218	10.637
3.206	10.608
3.1942	10.563
3.1824	10.532
3.1707	10.488
3.1591	10.455
3.1476	10.417
3.1362	10.365
3.1249	10.345
3.1136	10.289
3.1024	10.264
3.0913	10.223
3.0803	10.207
3.0694	10.183
3.0585	10.148
3.0477	10.129
3.037	10.095
3.0264	10.05
3.0158	10.04
3.0053	10.022
2.9949	9.9873
2.9845	9.9546
2.9743	9.9345
2.9641	9.9128
2.9539	9.8567
2.9439	9.8449
2.9339	9.8403
2.9239	9.8738
2.9141	9.8918
2.9043	9.9182
2.8946	9.9284
2.8849	9.9521
2.8753	9.9653
2.8658	10.028
2.8563	10.05
2.8469	10.089
2.8375	10.127
2.8282	10.154
2.819	10.185
2.8098	10.235
2.8007	10.292
2.7917	10.377
2.7827	10.456
2.7738	10.582
2.7649	10.667
2.7561	10.752
2.7473	10.882
2.7386	10.985
2.7299	11.083
2.7213	11.134
2.7128	11.216
2.7043	11.266
2.6959	11.291
2.6875	11.322
2.6791	11.351
2.6709	11.33
2.6626	11.362
2.6545	11.347
2.6463	11.327
2.6382	11.32
2.6302	11.269
2.6222	11.281
2.6143	11.259
2.6064	11.211
2.5986	11.233
2.5908	11.193
2.583	11.164
2.5753	11.124
2.5677	11.114
2.5601	11.104
2.5525	11.067
2.545	11.047
2.5375	11.011
2.5301	10.984
2.5227	10.971
2.5154	10.932
2.5081	10.874
2.5008	10.85
2.4936	10.817
2.4864	10.816
2.4793	10.755
2.4722	10.73
2.4651	10.7
2.4581	10.677
2.4511	10.631
2.4442	10.599
2.4373	10.564
2.4305	10.572
2.4236	10.563
2.4169	10.503
2.4101	10.474
2.4034	10.438
2.3967	10.422
2.3901	10.395
2.3835	10.384
2.377	10.365
2.3704	10.333
2.364	10.316
2.3575	10.315
2.3511	10.273
2.3447	10.251
2.3384	10.172
2.3321	10.199
2.3258	10.175
2.3195	10.114
2.3133	10.083
2.3071	10.122
2.301	10.069
2.2949	10.068
2.2888	10.044
2.2828	9.9746
2.2767	9.9599
2.2708	9.9614
2.2648	9.9428
2.2589	9.9201
2.253	9.9236
2.2471	9.9367
2.2413	9.8984
2.2355	9.8664
2.2297	9.9126
2.224	9.8718
2.2183	9.8232
2.2126	9.8376
2.207	9.8054
2.2013	9.8017
2.1957	9.7734
2.1902	9.7651
2.1846	9.7607
2.1791	9.6567
2.1736	9.695
2.1682	9.6899
2.1628	9.6743
2.1574	9.6389
2.152	9.6294
2.1466	9.592
2.1413	9.6135
2.136	9.5488
2.1308	9.5803
2.1255	9.5696
2.1203	9.5952
2.1151	9.5725
2.11	9.5569
2.1048	9.5342
2.0997	9.478
2.0946	9.511
2.0895	9.4924
2.0845	9.478
2.0795	9.4863
