Name: ALH 83100
Type: Meteorites
Class: Carbonaceous chondrite
Subclass: CM2
Particle Size: Fine
Sample No.: ALH83100
Owner: JHU
Wavelength Range: TIR
Origin: Smithsonian sample USNM No.ALH 83100.74.
Description: Stony Meteorites. Particle size was 0-75 micrometers. Meteorite found in Antarctica in 1983. Original ASTER Spectral Library name was jhu.becknic.meteorite.chondrite.cm2.fine.a83100.spectrum.txt
Measurement: Bidirectional reflectance
X Units: Wavelength (micrometers)
Y Units: Reflectance (percent)
wavelength	value
25.044	0.7693
24.339	0.8481
23.672	0.8748
23.041	0.9065
22.442	0.9272
21.874	0.9324
21.334	0.9204
20.82	0.8374
20.33	0.7759
19.863	0.6667
19.416	0.5498
18.99	0.4158
18.581	0.365
18.19	0.3877
17.815	0.3738
17.455	0.4033
17.109	0.4402
16.777	0.4734
16.458	0.4712
16.15	0.4768
15.854	0.4871
15.568	0.4634
15.292	0.4185
15.027	0.3857
14.77	0.3616
14.521	0.3335
14.281	0.3291
14.049	0.3374
13.824	0.353
13.607	0.3628
13.396	0.4128
13.191	0.4424
12.993	0.4736
12.8	0.5359
12.614	0.5828
12.432	0.636
12.256	0.6843
12.084	0.7383
11.918	0.7903
11.755	0.814
11.598	0.8523
11.444	0.834
11.294	0.8328
11.149	0.8086
11.007	0.7498
10.868	0.6936
10.733	0.6501
10.602	0.6345
10.473	0.6191
10.348	0.6008
10.225	0.5942
10.106	0.5918
9.9887	0.5908
9.8746	0.5864
9.763	0.5669
9.6539	0.5479
9.5472	0.4924
9.4429	0.4229
9.3408	0.3586
9.2409	0.3237
9.1431	0.2888
9.0474	0.2861
8.9536	0.2983
8.8618	0.3083
8.7718	0.3342
8.6837	0.3635
8.5973	0.3965
8.5126	0.4382
8.4295	0.4702
8.3481	0.519
8.2682	0.6001
8.1898	0.7043
8.1129	0.8232
8.0374	0.9392
7.9634	1.0339
7.8906	1.1169
7.8192	1.1785
7.7491	1.2178
7.6802	1.2532
7.6126	1.2754
7.5461	1.2983
7.4807	1.3091
7.4165	1.3201
7.3534	1.3237
7.2914	1.3184
7.2303	1.3152
7.1703	1.3235
7.1113	1.3332
7.0533	1.3511
6.9962	1.3667
6.94	1.3748
6.8847	1.3777
6.8302	1.3962
6.7767	1.4297
6.7239	1.4651
6.672	1.4878
6.6209	1.5088
6.5705	1.5261
6.5209	1.532
6.4721	1.5322
6.424	1.5273
6.3766	1.522
6.3299	1.4995
6.2838	1.4748
6.2385	1.4402
6.1937	1.3953
6.1496	1.3506
6.1062	1.3508
6.0633	1.3657
6.0211	1.4033
5.9794	1.4507
5.9383	1.5068
5.8978	1.5779
5.8578	1.6382
5.8184	1.6829
5.7794	1.7273
5.741	1.7607
5.7031	1.7871
5.6657	1.8096
5.6288	1.8262
5.5924	1.8401
5.5564	1.8455
5.5209	1.863
5.4859	1.8899
5.4513	1.9214
5.4171	1.946
5.3833	1.9705
5.35	1.9866
5.3171	2.0039
5.2846	2.0215
5.2524	2.0371
5.2207	2.0513
5.1893	2.0615
5.1584	2.0737
5.1277	2.0854
5.0975	2.0977
5.0676	2.1069
5.038	2.1145
5.0088	2.1223
4.98	2.1331
4.9514	2.1465
4.9232	2.1475
4.8953	2.1565
4.8678	2.1623
4.8405	2.1667
4.8135	2.1721
4.7868	2.1814
4.7605	2.186
4.7344	2.1919
4.7086	2.1965
4.6831	2.2056
4.6578	2.208
4.6328	2.2161
4.6081	2.2227
4.5837	2.2305
4.5595	2.227
4.5356	2.2317
4.5119	2.2312
4.4884	2.2353
4.4652	2.2405
4.4423	2.2405
4.4196	2.2422
4.3971	2.2388
4.3748	2.239
4.3528	2.2388
4.331	2.2371
4.3094	2.2383
4.288	2.231
4.2668	2.2339
4.2458	2.2344
4.2251	2.2339
4.2045	2.2366
4.1841	2.231
4.164	2.2319
4.144	2.2307
4.1242	2.2329
4.1046	2.2317
4.0852	2.2253
4.066	2.2258
4.047	2.2168
4.0281	2.2136
4.0094	2.197
3.9909	2.176
3.9725	2.1567
3.9544	2.1516
3.9363	2.1516
3.9185	2.1484
3.9008	2.1514
3.8833	2.1457
3.8659	2.1379
3.8487	2.1352
3.8316	2.1274
3.8147	2.1125
3.7979	2.0996
3.7813	2.0962
3.7648	2.093
3.7485	2.084
3.7323	2.0735
3.7162	2.0654
3.7003	2.0505
3.6845	2.0422
3.6689	2.0308
3.6534	2.0227
3.638	2.0095
3.6227	1.9985
3.6076	1.9878
3.5926	1.9751
3.5777	1.9648
3.563	1.9487
3.5484	1.9311
3.5338	1.9104
3.5195	1.8896
3.5052	1.8577
3.491	1.8318
3.477	1.8049
3.463	1.7983
3.4492	1.781
3.4355	1.7551
3.4219	1.7312
3.4084	1.7146
3.395	1.7082
3.3817	1.6892
3.3685	1.6848
3.3554	1.6851
3.3425	1.6755
3.3296	1.6623
3.3168	1.6438
3.3041	1.6313
3.2915	1.6167
3.279	1.6035
3.2666	1.5889
3.2543	1.5635
3.2421	1.5435
3.23	1.5234
3.218	1.5017
3.206	1.4849
3.1942	1.4563
3.1824	1.4341
3.1707	1.4038
3.1591	1.3811
3.1476	1.3606
3.1362	1.3298
3.1249	1.3071
3.1136	1.2837
3.1024	1.2595
3.0913	1.2368
3.0803	1.2185
3.0694	1.1941
3.0585	1.1741
3.0477	1.154
3.037	1.1355
3.0264	1.1138
3.0158	1.1023
3.0053	1.0781
2.9949	1.0642
2.9845	1.0452
2.9743	1.031
2.9641	1.021
2.9539	0.9973
2.9439	0.9861
2.9339	0.9695
2.9239	0.9592
2.9141	0.9451
2.9043	0.9424
2.8946	0.9314
2.8849	0.9204
2.8753	0.9014
2.8658	0.8921
2.8563	0.8721
2.8469	0.8564
2.8375	0.8274
2.8282	0.8105
2.819	0.783
2.8098	0.7637
2.8007	0.738
2.7917	0.7207
2.7827	0.7031
2.7738	0.6924
2.7649	0.679
2.7561	0.6655
2.7473	0.6636
2.7386	0.6631
2.7299	0.6721
2.7213	0.688
2.7128	0.8022
2.7043	1.1152
2.6959	1.5759
2.6875	1.8235
2.6791	1.9045
2.6709	1.9285
2.6626	1.9556
2.6545	1.9668
2.6463	1.978
2.6382	1.9829
2.6302	1.9841
2.6222	1.9907
2.6143	1.9824
2.6064	1.9827
2.5986	1.9883
2.5908	1.9753
2.583	1.9778
2.5753	1.9739
2.5677	1.9778
2.5601	1.9709
2.5525	1.9744
2.545	1.9724
2.5375	1.9624
2.5301	1.958
2.5227	1.9709
2.5154	1.9709
2.5081	1.9641
2.5008	1.9553
2.4936	1.9578
2.4864	1.9634
2.4793	1.9451
2.4722	1.9497
2.4651	1.9485
2.4581	1.9316
2.4511	1.9185
2.4442	1.9309
2.4373	1.9236
2.4305	1.9194
2.4236	1.9336
2.4169	1.9394
2.4101	1.9326
2.4034	1.9394
2.3967	1.9307
2.3901	1.9311
2.3835	1.9187
2.377	1.9272
2.3704	1.9351
2.364	1.9287
2.3575	1.9292
2.3511	1.9246
2.3447	1.895
2.3384	1.9045
2.3321	1.8987
2.3258	1.8967
2.3195	1.9082
2.3133	1.9119
2.3071	1.9116
2.301	1.9036
2.2949	1.9119
2.2888	1.9131
2.2828	1.9299
2.2767	1.9199
2.2708	1.9167
2.2648	1.9065
2.2589	1.9238
2.253	1.9143
2.2471	1.9216
2.2413	1.9114
2.2355	1.9246
2.2297	1.9121
2.224	1.9182
2.2183	1.9329
2.2126	1.9311
2.207	1.925
2.2013	1.9265
2.1957	1.9192
2.1902	1.9363
2.1846	1.916
2.1791	1.907
2.1736	1.9265
2.1682	1.9258
2.1628	1.9202
2.1574	1.916
2.152	1.9128
2.1466	1.9228
2.1413	1.9097
2.136	1.9248
2.1308	1.9272
2.1255	1.9094
2.1203	1.9182
2.1151	1.8894
2.11	1.9216
2.1048	1.8948
2.0997	1.9031
2.0946	1.9175
2.0895	1.9094
2.0845	1.9075
2.0795	1.8904
