Name: Allende2
Type: Meteorites
Class: Carbonaceous Chondrite
Subclass: CV3
Particle Size: Fine
Sample No.: Allende1
Owner: JHU
Wavelength Range: TIR
Origin: Sample from W. V. Boynton ofthe Un. of Arizona (sample no. 49), via Tom Jones.
Description: Stony Meteorites. Particle size was 0-75 micrometers. Meteorite seen to fall in Mexico in 1969.   Original ASTER Spectral Library name was jhu.becknic.meteorite.chondrite.cv3.fine.allend2.spectrum.txt
Measurement: Bidirectional reflectance
X Units: Wavelength (micrometers)
Y Units: Reflectance (percent)
wavelength	value
25.044	0.3633
24.339	0.3989
23.672	0.316
23.041	0.2956
22.442	0.3395
21.874	0.3484
21.334	0.3773
20.82	0.3749
20.33	0.3558
19.863	0.3578
19.416	0.3636
18.99	0.3665
18.581	0.3339
18.19	0.3004
17.815	0.2972
17.455	0.3069
17.109	0.2819
16.777	0.2688
16.458	0.2588
16.15	0.2872
15.854	0.3271
15.568	0.3818
15.292	0.433
15.027	0.454
14.77	0.4853
14.521	0.534
14.281	0.5651
14.049	0.6202
13.824	0.6733
13.607	0.73
13.396	0.8249
13.191	0.8937
12.993	0.9582
12.8	0.99
12.614	0.9738
12.432	0.8996
12.256	0.7546
12.084	0.5297
11.918	0.4151
11.755	0.4433
11.598	0.4479
11.444	0.4993
11.294	0.5175
11.149	0.5068
11.007	0.4867
10.868	0.4788
10.733	0.4571
10.602	0.4115
10.473	0.3732
10.348	0.3616
10.225	0.3624
10.106	0.351
9.9887	0.3542
9.8746	0.371
9.763	0.3915
9.6539	0.4115
9.5472	0.4397
9.4429	0.4291
9.3408	0.4058
9.2409	0.3913
9.1431	0.407
9.0474	0.4792
8.9536	0.5718
8.8618	0.6583
8.7718	0.7032
8.6837	0.7341
8.5973	0.7794
8.5126	0.8355
8.4295	0.9042
8.3481	0.9657
8.2682	1.0221
8.1898	1.0638
8.1129	1.0928
8.0374	1.1263
7.9634	1.1663
7.8906	1.201
7.8192	1.2253
7.7491	1.2518
7.6802	1.2667
7.6126	1.2798
7.5461	1.3
7.4807	1.3232
7.4165	1.329
7.3534	1.3328
7.2914	1.3348
7.2303	1.3487
7.1703	1.367
7.1113	1.3596
7.0533	1.3579
6.9962	1.367
6.94	1.3564
6.8847	1.3439
6.8302	1.3381
6.7767	1.4304
6.7239	1.461
6.672	1.4623
6.6209	1.4627
6.5705	1.4577
6.5209	1.4473
6.4721	1.434
6.424	1.4194
6.3766	1.4006
6.3299	1.3907
6.2838	1.3928
6.2385	1.4049
6.1937	1.4133
6.1496	1.4087
6.1062	1.4083
6.0633	1.3926
6.0211	1.3849
5.9794	1.3901
5.9383	1.4008
5.8978	1.3991
5.8578	1.3942
5.8184	1.3748
5.7794	1.315
5.741	1.1583
5.7031	1.2099
5.6657	1.362
5.6288	1.3984
5.5924	1.4166
5.5564	1.428
5.5209	1.4331
5.4859	1.434
5.4513	1.4374
5.4171	1.441
5.3833	1.4457
5.35	1.4483
5.3171	1.4488
5.2846	1.4548
5.2524	1.4559
5.2207	1.4582
5.1893	1.4587
5.1584	1.4562
5.1277	1.4567
5.0975	1.4572
5.0676	1.4608
5.038	1.4628
5.0088	1.4651
4.98	1.467
4.9514	1.4687
4.9232	1.4697
4.8953	1.4731
4.8678	1.4734
4.8405	1.4748
4.8135	1.4767
4.7868	1.4752
4.7605	1.4709
4.7344	1.4711
4.7086	1.4683
4.6831	1.467
4.6578	1.4647
4.6328	1.4654
4.6081	1.4654
4.5837	1.4661
4.5595	1.4647
4.5356	1.4658
4.5119	1.4644
4.4884	1.4628
4.4652	1.46
4.4423	1.4598
4.4196	1.4615
4.3971	1.4606
4.3748	1.4576
4.3528	1.4545
4.331	1.4526
4.3094	1.4482
4.288	1.4457
4.2668	1.4429
4.2458	1.4408
4.2251	1.4393
4.2045	1.438
4.1841	1.4328
4.164	1.4314
4.144	1.4292
4.1242	1.4241
4.1046	1.4208
4.0852	1.4205
4.066	1.4177
4.047	1.4136
4.0281	1.4116
4.0094	1.4095
3.9909	1.4077
3.9725	1.4027
3.9544	1.4012
3.9363	1.3996
3.9185	1.3965
3.9008	1.3938
3.8833	1.3923
3.8659	1.3863
3.8487	1.3842
3.8316	1.3793
3.8147	1.3748
3.7979	1.3722
3.7813	1.3683
3.7648	1.3671
3.7485	1.3611
3.7323	1.3583
3.7162	1.3533
3.7003	1.3502
3.6845	1.3448
3.6689	1.3408
3.6534	1.3379
3.638	1.3343
3.6227	1.3275
3.6076	1.3271
3.5926	1.3213
3.5777	1.3137
3.563	1.3072
3.5484	1.2969
3.5338	1.2808
3.5195	1.2368
3.5052	1.1299
3.491	1.1742
3.477	1.2183
3.463	1.2125
3.4492	1.1713
3.4355	1.1108
3.4219	1.0079
3.4084	1.0296
3.395	1.1265
3.3817	1.1545
3.3685	1.2012
3.3554	1.2349
3.3425	1.2427
3.3296	1.2378
3.3168	1.2385
3.3041	1.2451
3.2915	1.2429
3.279	1.2408
3.2666	1.2359
3.2543	1.232
3.2421	1.2291
3.23	1.2244
3.218	1.2205
3.206	1.2167
3.1942	1.2123
3.1824	1.2113
3.1707	1.2045
3.1591	1.1998
3.1476	1.1962
3.1362	1.1923
3.1249	1.1857
3.1136	1.1808
3.1024	1.1788
3.0913	1.1749
3.0803	1.1711
3.0694	1.1663
3.0585	1.1628
3.0477	1.1564
3.037	1.1494
3.0264	1.1455
3.0158	1.1406
3.0053	1.1353
2.9949	1.1291
2.9845	1.1272
2.9743	1.1241
2.9641	1.1168
2.9539	1.1111
2.9439	1.1082
2.9339	1.1036
2.9239	1.1022
2.9141	1.0987
2.9043	1.097
2.8946	1.0932
2.8849	1.0913
2.8753	1.0886
2.8658	1.0889
2.8563	1.0862
2.8469	1.0845
2.8375	1.0804
2.8282	1.0792
2.819	1.079
2.8098	1.0829
2.8007	1.0823
2.7917	1.0789
2.7827	1.0828
2.7738	1.0792
2.7649	1.0806
2.7561	1.0842
2.7473	1.084
2.7386	1.0847
2.7299	1.085
2.7213	1.0877
2.7128	1.0819
2.7043	1.0833
2.6959	1.085
2.6875	1.0804
2.6791	1.0829
2.6709	1.0802
2.6626	1.0765
2.6545	1.0729
2.6463	1.0722
2.6382	1.0638
2.6302	1.066
2.6222	1.0624
2.6143	1.0583
2.6064	1.0571
2.5986	1.0575
2.5908	1.0513
2.583	1.0455
2.5753	1.0413
2.5677	1.039
2.5601	1.0399
2.5525	1.0295
2.545	1.0269
2.5375	1.0279
2.5301	1.0253
2.5227	1.0153
2.5154	1.0139
2.5081	1.0084
2.5008	1.0035
2.4936	1.0028
2.4864	1.0016
2.4793	0.9943
2.4722	0.9911
2.4651	0.9888
2.4581	0.983
2.4511	0.9859
2.4442	0.9808
2.4373	0.9759
2.4305	0.9742
2.4236	0.9739
2.4169	0.97
2.4101	0.965
2.4034	0.9612
2.3967	0.9633
2.3901	0.9608
2.3835	0.9575
2.377	0.9518
2.3704	0.9514
2.364	0.9445
2.3575	0.9484
2.3511	0.9443
2.3447	0.939
2.3384	0.939
2.3321	0.938
2.3258	0.9356
2.3195	0.9341
2.3133	0.9196
2.3071	0.9261
2.301	0.924
2.2949	0.9272
2.2888	0.9279
2.2828	0.9208
2.2767	0.9211
2.2708	0.9178
2.2648	0.9165
2.2589	0.9139
2.253	0.9238
2.2471	0.9144
2.2413	0.9175
2.2355	0.9122
2.2297	0.9129
2.224	0.9151
2.2183	0.9112
2.2126	0.9134
2.207	0.9117
2.2013	0.9095
2.1957	0.9047
2.1902	0.898
2.1846	0.9069
2.1791	0.9028
2.1736	0.8972
2.1682	0.8994
2.1628	0.9016
2.1574	0.8967
2.152	0.8939
2.1466	0.8874
2.1413	0.8999
2.136	0.8965
2.1308	0.8937
2.1255	0.896
2.1203	0.8972
2.1151	0.8977
2.11	0.8951
2.1048	0.8941
2.0997	0.8999
2.0946	0.8986
2.0895	0.8946
2.0845	0.8903
2.0795	0.8888
