Name: Bununu
Type: Meteorites
Class: Achondrite
Subclass: Howardite
Particle Size: Fine
Sample No.: Bununu
Owner: JHU
Wavelength Range: TIR
Origin: Smithsonian sample No. USNM 1571.
Description: Stony Meteorites. Particle size was 0-75 micrometers. Meteorite seen to fall in 1924.   Original ASTER Spectral Library name was jhu.becknic.meteorite.achondrite.howardite.fine.bununu.spectrum.txt
Measurement: Bidirectional reflectance
X Units: Wavelength (micrometers)
Y Units: Reflectance (percent)
wavelength	value
25.044	0.7507
24.339	0.7649
23.672	0.8335
23.041	0.9233
22.442	0.988
21.874	0.9944
21.334	0.9714
20.82	1.0898
20.33	1.1841
19.863	1.2239
19.416	1.1587
18.99	0.9954
18.581	0.9355
18.19	0.8977
17.815	0.8923
17.455	0.8835
17.109	0.8682
16.777	0.8386
16.458	0.7644
16.15	0.6099
15.854	0.532
15.568	0.5012
15.292	0.5293
15.027	0.5183
14.77	0.5586
14.521	0.6865
14.281	0.865
14.049	0.998
13.824	0.8469
13.607	0.8435
13.396	1.0405
13.191	1.1611
12.993	1.3457
12.8	1.4683
12.614	1.6169
12.432	1.73
12.256	1.7134
12.084	1.5124
11.918	1.3071
11.755	1.1753
11.598	1.1155
11.444	1.092
11.294	1.0542
11.149	0.918
11.007	0.8069
10.868	0.8501
10.733	0.906
10.602	0.9016
10.473	0.8931
10.348	0.8682
10.225	0.8376
10.106	0.8074
9.9887	0.7734
9.8746	0.7754
9.763	0.8206
9.6539	0.8628
9.5472	0.9253
9.4429	0.9421
9.3408	0.9705
9.2409	1.0171
9.1431	1.0532
9.0474	1.0381
8.9536	0.918
8.8618	0.7773
8.7718	0.6465
8.6837	0.5464
8.5973	0.4949
8.5126	0.4985
8.4295	0.5383
8.3481	0.615
8.2682	0.7363
8.1898	0.8999
8.1129	1.1103
8.0374	1.3708
7.9634	1.6623
7.8906	1.9521
7.8192	2.2231
7.7491	2.489
7.6802	2.7251
7.6126	2.917
7.5461	3.0979
7.4807	3.272
7.4165	3.4206
7.3534	3.5527
7.2914	3.6438
7.2303	3.7368
7.1703	3.8579
7.1113	3.906
7.0533	3.9744
6.9962	4.0693
6.94	4.1384
6.8847	4.1587
6.8302	4.2375
6.7767	4.479
6.7239	4.6062
6.672	4.6348
6.6209	4.6255
6.5705	4.6025
6.5209	4.5913
6.4721	4.5212
6.424	4.3901
6.3766	4.2339
6.3299	4.0644
6.2838	3.9602
6.2385	3.9412
6.1937	3.9971
6.1496	4.1482
6.1062	4.333
6.0633	4.4621
6.0211	4.5246
5.9794	4.6001
5.9383	4.7617
5.8978	4.9607
5.8578	5.0935
5.8184	5.1987
5.7794	5.3164
5.741	5.4175
5.7031	5.5181
5.6657	5.5727
5.6288	5.6394
5.5924	5.7795
5.5564	5.9304
5.5209	5.9895
5.4859	5.9639
5.4513	5.905
5.4171	5.8557
5.3833	5.8213
5.35	5.7568
5.3171	5.6716
5.2846	5.5911
5.2524	5.5625
5.2207	5.564
5.1893	5.5766
5.1584	5.6238
5.1277	5.7112
5.0975	5.8025
5.0676	5.8962
5.038	5.9807
5.0088	6.0498
4.98	6.1267
4.9514	6.2095
4.9232	6.2917
4.8953	6.3674
4.8678	6.4465
4.8405	6.543
4.8135	6.6394
4.7868	6.7302
4.7605	6.813
4.7344	6.9006
4.7086	6.9826
4.6831	7.0622
4.6578	7.1418
4.6328	7.2212
4.6081	7.2732
4.5837	7.3213
4.5595	7.3545
4.5356	7.3628
4.5119	7.3774
4.4884	7.3689
4.4652	7.3703
4.4423	7.3667
4.4196	7.3608
4.3971	7.3535
4.3748	7.3574
4.3528	7.3552
4.331	7.3503
4.3094	7.3489
4.288	7.3493
4.2668	7.3554
4.2458	7.3608
4.2251	7.3623
4.2045	7.3591
4.1841	7.3596
4.164	7.3574
4.144	7.3528
4.1242	7.3511
4.1046	7.3447
4.0852	7.3408
4.066	7.343
4.047	7.3349
4.0281	7.3227
4.0094	7.3161
3.9909	7.3049
3.9725	7.2956
3.9544	7.2817
3.9363	7.2722
3.9185	7.2619
3.9008	7.249
3.8833	7.2378
3.8659	7.2195
3.8487	7.2082
3.8316	7.196
3.8147	7.1775
3.7979	7.1594
3.7813	7.1465
3.7648	7.1279
3.7485	7.1142
3.7323	7.0969
3.7162	7.0776
3.7003	7.0637
3.6845	7.0381
3.6689	7.009
3.6534	6.9949
3.638	6.9763
3.6227	6.9558
3.6076	6.9377
3.5926	6.904
3.5777	6.8684
3.563	6.8257
3.5484	6.7724
3.5338	6.6741
3.5195	6.4023
3.5052	5.9802
3.491	5.9934
3.477	6.0742
3.463	6.0932
3.4492	5.8935
3.4355	5.6255
3.4219	5.2178
3.4084	5.3
3.395	5.5759
3.3817	5.5596
3.3685	5.8564
3.3554	6.1733
3.3425	6.3198
3.3296	6.3728
3.3168	6.3906
3.3041	6.3757
3.2915	6.3584
3.279	6.3332
3.2666	6.3056
3.2543	6.2815
3.2421	6.2514
3.23	6.2258
3.218	6.2012
3.206	6.1689
3.1942	6.1409
3.1824	6.1089
3.1707	6.0764
3.1591	6.0464
3.1476	6.0217
3.1362	5.9956
3.1249	5.9665
3.1136	5.9399
3.1024	5.9187
3.0913	5.8933
3.0803	5.8784
3.0694	5.8564
3.0585	5.8347
3.0477	5.8157
3.037	5.7934
3.0264	5.7685
3.0158	5.7512
3.0053	5.7212
2.9949	5.7026
2.9845	5.6719
2.9743	5.644
2.9641	5.6374
2.9539	5.6113
2.9439	5.5928
2.9339	5.5784
2.9239	5.5742
2.9141	5.5618
2.9043	5.5539
2.8946	5.5491
2.8849	5.5505
2.8753	5.5522
2.8658	5.55
2.8563	5.5547
2.8469	5.5608
2.8375	5.5776
2.8282	5.5786
2.819	5.5947
2.8098	5.6125
2.8007	5.6274
2.7917	5.657
2.7827	5.6745
2.7738	5.7092
2.7649	5.7314
2.7561	5.7641
2.7473	5.7981
2.7386	5.8205
2.7299	5.8494
2.7213	5.8747
2.7128	5.8869
2.7043	5.9018
2.6959	5.8962
2.6875	5.8923
2.6791	5.8811
2.6709	5.8594
2.6626	5.8535
2.6545	5.8196
2.6463	5.8083
2.6382	5.7759
2.6302	5.7532
2.6222	5.7283
2.6143	5.6999
2.6064	5.6797
2.5986	5.6526
2.5908	5.6181
2.583	5.5884
2.5753	5.5596
2.5677	5.5395
2.5601	5.5085
2.5525	5.4744
2.545	5.4502
2.5375	5.4221
2.5301	5.3877
2.5227	5.3618
2.5154	5.3352
2.5081	5.3191
2.5008	5.2871
2.4936	5.2585
2.4864	5.2275
2.4793	5.1965
2.4722	5.1709
2.4651	5.1396
2.4581	5.1274
2.4511	5.0723
2.4442	5.0412
2.4373	5.0239
2.4305	4.9814
2.4236	4.9407
2.4169	4.9121
2.4101	4.876
2.4034	4.8625
2.3967	4.8208
2.3901	4.791
2.3835	4.7732
2.377	4.7488
2.3704	4.7092
2.364	4.7085
2.3575	4.6758
2.3511	4.6272
2.3447	4.6003
2.3384	4.5867
2.3321	4.5498
2.3258	4.522
2.3195	4.4917
2.3133	4.4648
2.3071	4.4433
2.301	4.4233
2.2949	4.4006
2.2888	4.3882
2.2828	4.3454
2.2767	4.3347
2.2708	4.324
2.2648	4.3008
2.2589	4.2878
2.253	4.24
2.2471	4.2358
2.2413	4.2121
2.2355	4.1955
2.2297	4.1658
2.224	4.1362
2.2183	4.1191
2.2126	4.0935
2.207	4.094
2.2013	4.052
2.1957	4.0464
2.1902	4.0478
2.1846	4.0286
2.1791	4.0256
2.1736	3.99
2.1682	3.991
2.1628	3.967
2.1574	3.9556
2.152	3.9228
2.1466	3.9336
2.1413	3.9116
2.136	3.873
2.1308	3.8591
2.1255	3.8542
2.1203	3.8423
2.1151	3.8335
2.11	3.8332
2.1048	3.8162
2.0997	3.8318
2.0946	3.7998
2.0895	3.7983
2.0845	3.7869
2.0795	3.7378
