Name: Murchison.2
Type: Meteorites
Class: Carbonaceous Chondrite
Subclass: CM2
Particle Size: Fine
Sample No.: Murchison_2
Owner: JHU
Wavelength Range: TIR
Origin: Arizona State Universitysample No. 828 obtained via Tom Jones.
Description: Stony Meteorites. Particle size was  0-75 micrometers. Meteorite seen to fall in Australia in 1969.  Original ASTER Spectral Library name was jhu.becknic.meteorite.chondrite.cm2.fine.murchi2.spectrum.txt
Measurement: Bidirectional reflectance
X Units: Wavelength (micrometers)
Y Units: Reflectance (percent)
wavelength	value
25.044	0.4104
24.339	0.3125
23.672	0.4253
23.041	0.3076
22.442	0.3245
21.874	0.2922
21.334	0.3516
20.82	0.2451
20.33	0.2842
19.863	0.3384
19.416	0.3142
18.99	0.3171
18.581	0.2727
18.19	0.2849
17.815	0.2698
17.455	0.2278
17.109	0.2207
16.777	0.2551
16.458	0.25
16.15	0.238
15.854	0.2297
15.568	0.207
15.292	0.1873
15.027	0.2014
14.77	0.2271
14.521	0.2146
14.281	0.2678
14.049	0.3047
13.824	0.321
13.607	0.3538
13.396	0.3972
13.191	0.4631
12.993	0.5425
12.8	0.6006
12.614	0.6328
12.432	0.6438
12.256	0.634
12.084	0.6079
11.918	0.5173
11.755	0.4814
11.598	0.4736
11.444	0.4631
11.294	0.4404
11.149	0.4104
11.007	0.3794
10.868	0.3616
10.733	0.3384
10.602	0.3245
10.473	0.2952
10.348	0.2634
10.225	0.2336
10.106	0.2209
9.9887	0.2236
9.8746	0.2092
9.763	0.1875
9.6539	0.1873
9.5472	0.2014
9.4429	0.2161
9.3408	0.2346
9.2409	0.2388
9.1431	0.228
9.0474	0.2385
8.9536	0.2527
8.8618	0.2507
8.7718	0.2541
8.6837	0.2539
8.5973	0.2686
8.5126	0.2996
8.4295	0.3372
8.3481	0.4021
8.2682	0.4756
8.1898	0.5613
8.1129	0.6465
8.0374	0.7175
7.9634	0.769
7.8906	0.8123
7.8192	0.855
7.7491	0.8936
7.6802	0.9167
7.6126	0.9265
7.5461	0.9436
7.4807	0.9563
7.4165	0.9683
7.3534	0.9822
7.2914	0.9844
7.2303	0.988
7.1703	0.9849
7.1113	0.9863
7.0533	0.9971
6.9962	1.0002
6.94	1.0271
6.8847	1.042
6.8302	1.0579
6.7767	1.0847
6.7239	1.1216
6.672	1.1365
6.6209	1.1467
6.5705	1.1545
6.5209	1.1428
6.4721	1.1206
6.424	1.0999
6.3766	1.0732
6.3299	1.043
6.2838	1.0305
6.2385	1.0159
6.1937	0.9839
6.1496	0.9685
6.1062	0.9785
6.0633	0.9844
6.0211	0.999
5.9794	1.0361
5.9383	1.1035
5.8978	1.1609
5.8578	1.2114
5.8184	1.2502
5.7794	1.2874
5.741	1.3123
5.7031	1.3191
5.6657	1.3281
5.6288	1.3318
5.5924	1.3481
5.5564	1.3713
5.5209	1.3872
5.4859	1.3901
5.4513	1.3931
5.4171	1.4033
5.3833	1.4148
5.35	1.4248
5.3171	1.4319
5.2846	1.4348
5.2524	1.4375
5.2207	1.4346
5.1893	1.436
5.1584	1.4348
5.1277	1.4385
5.0975	1.4421
5.0676	1.449
5.038	1.4558
5.0088	1.4619
4.98	1.4587
4.9514	1.4575
4.9232	1.4575
4.8953	1.4609
4.8678	1.4685
4.8405	1.4722
4.8135	1.4739
4.7868	1.4778
4.7605	1.4817
4.7344	1.4817
4.7086	1.4797
4.6831	1.4834
4.6578	1.4856
4.6328	1.4841
4.6081	1.4941
4.5837	1.5005
4.5595	1.4963
4.5356	1.5032
4.5119	1.4998
4.4884	1.4941
4.4652	1.499
4.4423	1.5002
4.4196	1.4941
4.3971	1.4912
4.3748	1.4939
4.3528	1.4888
4.331	1.4805
4.3094	1.4819
4.288	1.4844
4.2668	1.479
4.2458	1.4768
4.2251	1.4744
4.2045	1.4697
4.1841	1.4697
4.164	1.4687
4.144	1.4656
4.1242	1.4636
4.1046	1.459
4.0852	1.4607
4.066	1.4565
4.047	1.4487
4.0281	1.4534
4.0094	1.4451
3.9909	1.4441
3.9725	1.4336
3.9544	1.4292
3.9363	1.4326
3.9185	1.4285
3.9008	1.4228
3.8833	1.4131
3.8659	1.4114
3.8487	1.4006
3.8316	1.3992
3.8147	1.3884
3.7979	1.3794
3.7813	1.3801
3.7648	1.3704
3.7485	1.3564
3.7323	1.3535
3.7162	1.3479
3.7003	1.3372
3.6845	1.3342
3.6689	1.3193
3.6534	1.3059
3.638	1.2966
3.6227	1.292
3.6076	1.2895
3.5926	1.2771
3.5777	1.2686
3.563	1.2654
3.5484	1.2534
3.5338	1.2349
3.5195	1.2251
3.5052	1.2087
3.491	1.1924
3.477	1.178
3.463	1.1736
3.4492	1.1641
3.4355	1.1409
3.4219	1.1248
3.4084	1.1089
3.395	1.1011
3.3817	1.0889
3.3685	1.0779
3.3554	1.0806
3.3425	1.0764
3.3296	1.0659
3.3168	1.0576
3.3041	1.043
3.2915	1.0383
3.279	1.0178
3.2666	1.0022
3.2543	0.9861
3.2421	0.9731
3.23	0.9612
3.218	0.9446
3.206	0.9277
3.1942	0.9194
3.1824	0.9038
3.1707	0.8926
3.1591	0.8784
3.1476	0.8621
3.1362	0.8396
3.1249	0.8352
3.1136	0.8228
3.1024	0.8003
3.0913	0.7893
3.0803	0.7747
3.0694	0.7639
3.0585	0.7529
3.0477	0.7461
3.037	0.7332
3.0264	0.7229
3.0158	0.7146
3.0053	0.7014
2.9949	0.6877
2.9845	0.6826
2.9743	0.6829
2.9641	0.6772
2.9539	0.6633
2.9439	0.6609
2.9339	0.6619
2.9239	0.6501
2.9141	0.6514
2.9043	0.6465
2.8946	0.6445
2.8849	0.6265
2.8753	0.6301
2.8658	0.6355
2.8563	0.6174
2.8469	0.6104
2.8375	0.5994
2.8282	0.5935
2.819	0.5879
2.8098	0.5908
2.8007	0.5891
2.7917	0.5986
2.7827	0.6226
2.7738	0.6431
2.7649	0.6636
2.7561	0.7163
2.7473	0.7754
2.7386	0.842
2.7299	0.8972
2.7213	0.9514
2.7128	1.022
2.7043	1.1023
2.6959	1.1614
2.6875	1.1973
2.6791	1.2234
2.6709	1.2097
2.6626	1.2231
2.6545	1.2314
2.6463	1.2375
2.6382	1.2402
2.6302	1.2156
2.6222	1.2266
2.6143	1.2207
2.6064	1.2195
2.5986	1.2336
2.5908	1.2212
2.583	1.2236
2.5753	1.2219
2.5677	1.21
2.5601	1.2183
2.5525	1.2192
2.545	1.2151
2.5375	1.2197
2.5301	1.2053
2.5227	1.218
2.5154	1.2029
2.5081	1.2026
2.5008	1.2017
2.4936	1.198
2.4864	1.188
2.4793	1.1997
2.4722	1.2046
2.4651	1.1895
2.4581	1.1865
2.4511	1.188
2.4442	1.1841
2.4373	1.1936
2.4305	1.1868
2.4236	1.1936
2.4169	1.1941
2.4101	1.1907
2.4034	1.1819
2.3967	1.1899
2.3901	1.1728
2.3835	1.1885
2.377	1.1809
2.3704	1.188
2.364	1.1728
2.3575	1.1809
2.3511	1.1824
2.3447	1.177
2.3384	1.1819
2.3321	1.1826
2.3258	1.1843
2.3195	1.1707
2.3133	1.1719
2.3071	1.1811
2.301	1.1846
2.2949	1.1748
2.2888	1.1687
2.2828	1.1604
2.2767	1.1479
2.2708	1.1594
2.2648	1.1594
2.2589	1.1726
2.253	1.1682
2.2471	1.168
2.2413	1.1628
2.2355	1.1353
2.2297	1.1589
2.224	1.1765
2.2183	1.1958
2.2126	1.1736
2.207	1.1599
2.2013	1.1641
2.1957	1.1775
2.1902	1.1699
2.1846	1.1565
2.1791	1.1494
2.1736	1.1453
2.1682	1.168
2.1628	1.1501
2.1574	1.1584
2.152	1.1514
2.1466	1.1343
2.1413	1.1453
2.136	1.1526
2.1308	1.1445
2.1255	1.1477
2.1203	1.1423
2.1151	1.1184
2.11	1.1296
2.1048	1.1663
2.0997	1.137
2.0946	1.1355
2.0895	1.1638
2.0845	1.1457
2.0795	1.1714
