Name: ALHA 77003
Type: Meteorites
Class: Carbonaceous chondrite
Subclass: CO3
Particle Size: Fine
Sample No.: ALHA77003
Owner: JHU
Wavelength Range: TIR
Origin: Sample supplied by Tom Jones.
Description: Meteorite found in Antarctica in 1977. Stony Meteorites. Particle size was 0-75 micrometers. Original ASTER Spectral Library name was jhu.becknic.meteorite.chondrite.co3.fine.a77003.spectrum.txt
Measurement: Bidirectional reflectance
X Units: Wavelength (micrometers)
Y Units: Reflectance (percent)
wavelength	value
25.044	0.7617
24.339	0.7275
23.672	0.6855
23.041	0.6506
22.442	0.6855
21.874	0.6926
21.334	0.7192
20.82	0.7253
20.33	0.6926
19.863	0.7139
19.416	0.7429
18.99	0.6978
18.581	0.6477
18.19	0.6155
17.815	0.5937
17.455	0.646
17.109	0.6426
16.777	0.5752
16.458	0.5503
16.15	0.5898
15.854	0.6584
15.568	0.668
15.292	0.7124
15.027	0.8218
14.77	0.8716
14.521	0.9641
14.281	1.1284
14.049	1.2556
13.824	1.2395
13.607	1.3523
13.396	1.6428
13.191	1.8935
12.993	2.0723
12.8	2.1477
12.614	2.1103
12.432	1.9844
12.256	1.7195
12.084	1.2351
11.918	0.8906
11.755	0.9487
11.598	0.9097
11.444	0.8545
11.294	0.7773
11.149	0.7417
11.007	0.7278
10.868	0.7629
10.733	0.8086
10.602	0.7881
10.473	0.7756
10.348	0.7236
10.225	0.6855
10.106	0.6248
9.9887	0.6213
9.8746	0.6282
9.763	0.6379
9.6539	0.7065
9.5472	0.8127
9.4429	0.8755
9.3408	0.8687
9.2409	0.8352
9.1431	0.8591
9.0474	0.9512
8.9536	1.0503
8.8618	1.166
8.7718	1.272
8.6837	1.3567
8.5973	1.5508
8.5126	1.6846
8.4295	1.8418
8.3481	2.0244
8.2682	2.1885
8.1898	2.3423
8.1129	2.4856
8.0374	2.6189
7.9634	2.7275
7.8906	2.8203
7.8192	2.904
7.7491	2.9695
7.6802	3.0105
7.6126	3.0361
7.5461	3.0603
7.4807	3.0781
7.4165	3.0864
7.3534	3.105
7.2914	3.1328
7.2303	3.1611
7.1703	3.2026
7.1113	3.25
7.0533	3.3188
6.9962	3.3774
6.94	3.4363
6.8847	3.4751
6.8302	3.479
6.7767	3.4812
6.7239	3.46
6.672	3.4504
6.6209	3.4595
6.5705	3.4958
6.5209	3.5185
6.4721	3.5525
6.424	3.5893
6.3766	3.5886
6.3299	3.6033
6.2838	3.6213
6.2385	3.6641
6.1937	3.708
6.1496	3.7248
6.1062	3.7168
6.0633	3.6831
6.0211	3.6684
5.9794	3.7466
5.9383	3.842
5.8978	3.9036
5.8578	3.9321
5.8184	3.9734
5.7794	3.9726
5.741	3.9363
5.7031	3.8799
5.6657	3.8528
5.6288	3.8943
5.5924	3.9451
5.5564	3.9861
5.5209	3.9927
5.4859	3.9975
5.4513	4.0117
5.4171	4.0417
5.3833	4.0679
5.35	4.0898
5.3171	4.0981
5.2846	4.1111
5.2524	4.1191
5.2207	4.1274
5.1893	4.1289
5.1584	4.1221
5.1277	4.1299
5.0975	4.1462
5.0676	4.1694
5.038	4.1863
5.0088	4.2056
4.98	4.2327
4.9514	4.2522
4.9232	4.2715
4.8953	4.2864
4.8678	4.2998
4.8405	4.3083
4.8135	4.3179
4.7868	4.3291
4.7605	4.3349
4.7344	4.3423
4.7086	4.3469
4.6831	4.355
4.6578	4.3625
4.6328	4.3686
4.6081	4.3804
4.5837	4.3965
4.5595	4.4036
4.5356	4.4067
4.5119	4.4143
4.4884	4.418
4.4652	4.4282
4.4423	4.4297
4.4196	4.4397
4.3971	4.4429
4.3748	4.4477
4.3528	4.4431
4.331	4.4426
4.3094	4.4346
4.288	4.4402
4.2668	4.4372
4.2458	4.4338
4.2251	4.4343
4.2045	4.4275
4.1841	4.4231
4.164	4.4099
4.144	4.4048
4.1242	4.3994
4.1046	4.394
4.0852	4.3891
4.066	4.3848
4.047	4.3808
4.0281	4.3755
4.0094	4.3767
3.9909	4.374
3.9725	4.3684
3.9544	4.3628
3.9363	4.3601
3.9185	4.3537
3.9008	4.3513
3.8833	4.3462
3.8659	4.343
3.8487	4.3352
3.8316	4.3284
3.8147	4.3164
3.7979	4.3098
3.7813	4.3013
3.7648	4.2905
3.7485	4.2815
3.7323	4.2678
3.7162	4.2527
3.7003	4.2395
3.6845	4.2214
3.6689	4.2136
3.6534	4.1941
3.638	4.1807
3.6227	4.1638
3.6076	4.1572
3.5926	4.1389
3.5777	4.1255
3.563	4.1057
3.5484	4.092
3.5338	4.0735
3.5195	4.0513
3.5052	4.0286
3.491	4.02
3.477	4.0112
3.463	3.9951
3.4492	3.978
3.4355	3.9495
3.4219	3.9219
3.4084	3.9128
3.395	3.9055
3.3817	3.8916
3.3685	3.8745
3.3554	3.8635
3.3425	3.8481
3.3296	3.8345
3.3168	3.8179
3.3041	3.7949
3.2915	3.7761
3.279	3.751
3.2666	3.7327
3.2543	3.7092
3.2421	3.686
3.23	3.6728
3.218	3.647
3.206	3.6294
3.1942	3.6086
3.1824	3.583
3.1707	3.5662
3.1591	3.5459
3.1476	3.5298
3.1362	3.5066
3.1249	3.4927
3.1136	3.469
3.1024	3.4546
3.0913	3.4375
3.0803	3.4231
3.0694	3.4038
3.0585	3.3904
3.0477	3.375
3.037	3.3562
3.0264	3.3428
3.0158	3.3249
3.0053	3.3147
2.9949	3.2937
2.9845	3.2815
2.9743	3.2715
2.9641	3.2541
2.9539	3.2505
2.9439	3.2363
2.9339	3.2263
2.9239	3.2278
2.9141	3.2207
2.9043	3.2192
2.8946	3.2153
2.8849	3.2168
2.8753	3.2244
2.8658	3.2217
2.8563	3.2297
2.8469	3.2414
2.8375	3.2544
2.8282	3.2583
2.819	3.2834
2.8098	3.2974
2.8007	3.3245
2.7917	3.3476
2.7827	3.3752
2.7738	3.3938
2.7649	3.4407
2.7561	3.4775
2.7473	3.4966
2.7386	3.5464
2.7299	3.5544
2.7213	3.5886
2.7128	3.5784
2.7043	3.5991
2.6959	3.6313
2.6875	3.633
2.6791	3.644
2.6709	3.6577
2.6626	3.6382
2.6545	3.6284
2.6463	3.6196
2.6382	3.6081
2.6302	3.6108
2.6222	3.5945
2.6143	3.5837
2.6064	3.5869
2.5986	3.5625
2.5908	3.562
2.583	3.5583
2.5753	3.5312
2.5677	3.5259
2.5601	3.5063
2.5525	3.5037
2.545	3.4814
2.5375	3.4846
2.5301	3.48
2.5227	3.4541
2.5154	3.4517
2.5081	3.4368
2.5008	3.4267
2.4936	3.4123
2.4864	3.4263
2.4793	3.4114
2.4722	3.4062
2.4651	3.3955
2.4581	3.3811
2.4511	3.3765
2.4442	3.3616
2.4373	3.3589
2.4305	3.3503
2.4236	3.3335
2.4169	3.3252
2.4101	3.3281
2.4034	3.2986
2.3967	3.3025
2.3901	3.2908
2.3835	3.2734
2.377	3.2856
2.3704	3.2612
2.364	3.2573
2.3575	3.2541
2.3511	3.2371
2.3447	3.2278
2.3384	3.2302
2.3321	3.2109
2.3258	3.2121
2.3195	3.2107
2.3133	3.2019
2.3071	3.1926
2.301	3.1921
2.2949	3.1902
2.2888	3.1885
2.2828	3.1799
2.2767	3.1811
2.2708	3.1785
2.2648	3.1726
2.2589	3.1728
2.253	3.1599
2.2471	3.1645
2.2413	3.1428
2.2355	3.1418
2.2297	3.1482
2.224	3.1428
2.2183	3.1257
2.2126	3.1352
2.207	3.1142
2.2013	3.1218
2.1957	3.1301
2.1902	3.1238
2.1846	3.1194
2.1791	3.1377
2.1736	3.1294
2.1682	3.1284
2.1628	3.1284
2.1574	3.125
2.152	3.1282
2.1466	3.1394
2.1413	3.1304
2.136	3.1328
2.1308	3.1443
2.1255	3.1348
2.1203	3.1489
2.1151	3.144
2.11	3.137
2.1048	3.1521
2.0997	3.1526
2.0946	3.1543
2.0895	3.1702
2.0845	3.1433
2.0795	3.1694
