Name: Orgueil.3
Type: Meteorites
Class: Carbonaceous Chondrite
Subclass: CI
Particle Size: Fine
Sample No.: Orgueil_3
Owner: JHU
Wavelength Range: TIR
Origin: Museum National d'HistoireNaturelle sample No. 2830 obtained via Tom Jones.
Description: Stony Meteorites. Particle size was 0-75 micrometers. Meteorite seen to fall in France in 1864. Original ASTER Spectral Library name was jhu.becknic.meteorite.chondrite.ci.fine.orguei3.spectrum.txt
Measurement: Bidirectional reflectance
X Units: Wavelength (micrometers)
Y Units: Reflectance (percent)
wavelength	value
25.044	0.6016
24.339	0.5798
23.672	0.6899
23.041	0.6577
22.442	0.6931
21.874	0.6731
21.334	0.6816
20.82	0.6374
20.33	0.5811
19.863	0.5041
19.416	0.4048
18.99	0.3496
18.581	0.3381
18.19	0.3428
17.815	0.3577
17.455	0.3538
17.109	0.3235
16.777	0.3242
16.458	0.3347
16.15	0.325
15.854	0.3127
15.568	0.3145
15.292	0.3159
15.027	0.3083
14.77	0.2925
14.521	0.2935
14.281	0.303
14.049	0.3386
13.824	0.374
13.607	0.3992
13.396	0.4377
13.191	0.4685
12.993	0.4915
12.8	0.5247
12.614	0.5427
12.432	0.5674
12.256	0.6038
12.084	0.645
11.918	0.6714
11.755	0.6865
11.598	0.6946
11.444	0.6877
11.294	0.677
11.149	0.6702
11.007	0.647
10.868	0.5967
10.733	0.5349
10.602	0.4951
10.473	0.4653
10.348	0.4409
10.225	0.4304
10.106	0.4263
9.9887	0.4282
9.8746	0.4363
9.763	0.4429
9.6539	0.4324
9.5472	0.4011
9.4429	0.3721
9.3408	0.3601
9.2409	0.3491
9.1431	0.3367
9.0474	0.3298
8.9536	0.3267
8.8618	0.3213
8.7718	0.3154
8.6837	0.3127
8.5973	0.3152
8.5126	0.3367
8.4295	0.3506
8.3481	0.3687
8.2682	0.4077
8.1898	0.4539
8.1129	0.5061
8.0374	0.5774
7.9634	0.6694
7.8906	0.7644
7.8192	0.8494
7.7491	0.9143
7.6802	0.9604
7.6126	0.9871
7.5461	1.0127
7.4807	1.0425
7.4165	1.0625
7.3534	1.0779
7.2914	1.082
7.2303	1.0781
7.1703	1.0813
7.1113	1.0647
7.0533	1.0498
6.9962	1.0432
6.94	1.0395
6.8847	1.05
6.8302	1.0737
6.7767	1.1013
6.7239	1.1379
6.672	1.1824
6.6209	1.2043
6.5705	1.2087
6.5209	1.1987
6.4721	1.1768
6.424	1.1367
6.3766	1.0859
6.3299	1.0293
6.2838	0.9644
6.2385	0.8975
6.1937	0.8083
6.1496	0.6943
6.1062	0.6611
6.0633	0.6743
6.0211	0.6904
5.9794	0.7373
5.9383	0.8467
5.8978	1.0183
5.8578	1.1775
5.8184	1.291
5.7794	1.384
5.741	1.4565
5.7031	1.5127
5.6657	1.5491
5.6288	1.5725
5.5924	1.6023
5.5564	1.6291
5.5209	1.6516
5.4859	1.6755
5.4513	1.7009
5.4171	1.7095
5.3833	1.7063
5.35	1.7087
5.3171	1.718
5.2846	1.7322
5.2524	1.7537
5.2207	1.7734
5.1893	1.7847
5.1584	1.7944
5.1277	1.8042
5.0975	1.811
5.0676	1.811
5.038	1.8152
5.0088	1.8184
4.98	1.8245
4.9514	1.833
4.9232	1.8381
4.8953	1.844
4.8678	1.8496
4.8405	1.8469
4.8135	1.8469
4.7868	1.8415
4.7605	1.8398
4.7344	1.8386
4.7086	1.8354
4.6831	1.8286
4.6578	1.8306
4.6328	1.8306
4.6081	1.8337
4.5837	1.8364
4.5595	1.8386
4.5356	1.8384
4.5119	1.8372
4.4884	1.8352
4.4652	1.8359
4.4423	1.8398
4.4196	1.8418
4.3971	1.845
4.3748	1.8452
4.3528	1.8459
4.331	1.8462
4.3094	1.8457
4.288	1.8433
4.2668	1.8423
4.2458	1.8459
4.2251	1.8501
4.2045	1.8511
4.1841	1.8477
4.164	1.8486
4.144	1.8477
4.1242	1.8447
4.1046	1.8428
4.0852	1.8406
4.066	1.8391
4.047	1.8359
4.0281	1.8311
4.0094	1.8254
3.9909	1.8162
3.9725	1.8079
3.9544	1.7998
3.9363	1.793
3.9185	1.7871
3.9008	1.7859
3.8833	1.7798
3.8659	1.7676
3.8487	1.7607
3.8316	1.7524
3.8147	1.7385
3.7979	1.7253
3.7813	1.7151
3.7648	1.7004
3.7485	1.6899
3.7323	1.676
3.7162	1.6626
3.7003	1.6462
3.6845	1.6299
3.6689	1.6108
3.6534	1.5964
3.638	1.5779
3.6227	1.5601
3.6076	1.5447
3.5926	1.5251
3.5777	1.5068
3.563	1.4861
3.5484	1.4648
3.5338	1.4409
3.5195	1.4109
3.5052	1.3728
3.491	1.3381
3.477	1.321
3.463	1.3044
3.4492	1.2771
3.4355	1.2454
3.4219	1.2019
3.4084	1.1809
3.395	1.1677
3.3817	1.1477
3.3685	1.137
3.3554	1.1345
3.3425	1.1272
3.3296	1.1111
3.3168	1.0906
3.3041	1.0696
3.2915	1.0476
3.279	1.0261
3.2666	1.0012
3.2543	0.9783
3.2421	0.9595
3.23	0.936
3.218	0.915
3.206	0.8909
3.1942	0.8674
3.1824	0.8474
3.1707	0.8262
3.1591	0.802
3.1476	0.7832
3.1362	0.762
3.1249	0.7502
3.1136	0.7319
3.1024	0.7183
3.0913	0.7061
3.0803	0.7012
3.0694	0.6912
3.0585	0.6836
3.0477	0.6758
3.037	0.6687
3.0264	0.6611
3.0158	0.6501
3.0053	0.6445
2.9949	0.6338
2.9845	0.6233
2.9743	0.6143
2.9641	0.604
2.9539	0.6047
2.9439	0.6006
2.9339	0.5935
2.9239	0.5933
2.9141	0.5979
2.9043	0.5967
2.8946	0.5908
2.8849	0.5908
2.8753	0.5881
2.8658	0.5867
2.8563	0.5889
2.8469	0.594
2.8375	0.6035
2.8282	0.6104
2.819	0.613
2.8098	0.6196
2.8007	0.6274
2.7917	0.6404
2.7827	0.647
2.7738	0.6577
2.7649	0.6707
2.7561	0.6824
2.7473	0.7073
2.7386	0.7209
2.7299	0.7131
2.7213	0.6824
2.7128	0.6384
2.7043	0.7273
2.6959	0.9475
2.6875	1.1958
2.6791	1.384
2.6709	1.4543
2.6626	1.4785
2.6545	1.4858
2.6463	1.4946
2.6382	1.5007
2.6302	1.4949
2.6222	1.499
2.6143	1.4971
2.6064	1.4932
2.5986	1.4873
2.5908	1.4912
2.583	1.4849
2.5753	1.4858
2.5677	1.4739
2.5601	1.4785
2.5525	1.4729
2.545	1.4663
2.5375	1.4734
2.5301	1.47
2.5227	1.4614
2.5154	1.4585
2.5081	1.4575
2.5008	1.4617
2.4936	1.4502
2.4864	1.4514
2.4793	1.447
2.4722	1.4392
2.4651	1.4363
2.4581	1.4363
2.4511	1.4175
2.4442	1.4145
2.4373	1.4185
2.4305	1.4136
2.4236	1.4111
2.4169	1.4058
2.4101	1.4072
2.4034	1.4094
2.3967	1.4038
2.3901	1.4033
2.3835	1.4014
2.377	1.4004
2.3704	1.4099
2.364	1.4077
2.3575	1.4033
2.3511	1.3953
2.3447	1.3984
2.3384	1.3889
2.3321	1.387
2.3258	1.3916
2.3195	1.3877
2.3133	1.3889
2.3071	1.3835
2.301	1.3806
2.2949	1.3835
2.2888	1.3794
2.2828	1.3857
2.2767	1.3865
2.2708	1.3818
2.2648	1.3782
2.2589	1.3843
2.253	1.3826
2.2471	1.3791
2.2413	1.3826
2.2355	1.3865
2.2297	1.3826
2.224	1.3774
2.2183	1.3767
2.2126	1.3752
2.207	1.3718
2.2013	1.3789
2.1957	1.384
2.1902	1.3831
2.1846	1.3867
2.1791	1.3818
2.1736	1.3962
2.1682	1.3877
2.1628	1.4011
2.1574	1.3943
2.152	1.3953
2.1466	1.3965
2.1413	1.3975
2.136	1.3865
2.1308	1.3801
2.1255	1.3857
2.1203	1.3911
2.1151	1.3862
2.11	1.3894
2.1048	1.3892
2.0997	1.3877
2.0946	1.3911
2.0895	1.3916
2.0845	1.4006
2.0795	1.3926
