Name: Orgueil.1
Type: Meteorites
Class: Carbonaceous Chondrite
Subclass: CI
Particle Size: Fine
Sample No.: Orgueil_1
Owner: JHU
Wavelength Range: TIR
Origin: Smithsonian sample No. USNM1104 obtained via Tom Jones.
Description: Stony Meteorites. Particle size was 0-75 micrometers. Meteorite seen to fall in France in 1864. Original ASTER Spectral Library name was jhu.becknic.meteorite.chondrite.ci.fine.orguei1.spectrum.txt
Measurement: Bidirectional reflectance
X Units: Wavelength (micrometers)
Y Units: Reflectance (percent)
wavelength	value
25.044	0.468
24.339	0.457
23.672	0.4829
23.041	0.6335
22.442	0.5491
21.874	0.6555
21.334	0.5747
20.82	0.5708
20.33	0.4558
19.863	0.395
19.416	0.2976
18.99	0.2966
18.581	0.3193
18.19	0.2915
17.815	0.2537
17.455	0.3059
17.109	0.3079
16.777	0.2742
16.458	0.2588
16.15	0.2808
15.854	0.2588
15.568	0.2554
15.292	0.2722
15.027	0.2698
14.77	0.2573
14.521	0.2292
14.281	0.2532
14.049	0.2747
13.824	0.2817
13.607	0.3186
13.396	0.3433
13.191	0.365
12.993	0.3567
12.8	0.3867
12.614	0.4058
12.432	0.4131
12.256	0.4045
12.084	0.4639
11.918	0.4812
11.755	0.4958
11.598	0.4993
11.444	0.5212
11.294	0.4897
11.149	0.4988
11.007	0.4795
10.868	0.4421
10.733	0.4114
10.602	0.3855
10.473	0.3435
10.348	0.3552
10.225	0.3433
10.106	0.3406
9.9887	0.3584
9.8746	0.3533
9.763	0.3513
9.6539	0.3447
9.5472	0.3286
9.4429	0.2942
9.3408	0.2698
9.2409	0.2566
9.1431	0.2498
9.0474	0.2539
8.9536	0.2368
8.8618	0.2285
8.7718	0.2612
8.6837	0.2371
8.5973	0.2222
8.5126	0.2439
8.4295	0.2588
8.3481	0.2893
8.2682	0.3342
8.1898	0.3784
8.1129	0.4358
8.0374	0.5073
7.9634	0.5718
7.8906	0.6296
7.8192	0.6545
7.7491	0.6768
7.6802	0.7095
7.6126	0.7131
7.5461	0.7217
7.4807	0.7444
7.4165	0.751
7.3534	0.7585
7.2914	0.7659
7.2303	0.7556
7.1703	0.7598
7.1113	0.7607
7.0533	0.7627
6.9962	0.7556
6.94	0.7578
6.8847	0.7607
6.8302	0.7781
6.7767	0.7988
6.7239	0.8279
6.672	0.8599
6.6209	0.8713
6.5705	0.8652
6.5209	0.8618
6.4721	0.8374
6.424	0.8079
6.3766	0.7695
6.3299	0.7356
6.2838	0.6873
6.2385	0.6255
6.1937	0.5435
6.1496	0.4644
6.1062	0.4443
6.0633	0.4473
6.0211	0.4604
5.9794	0.4912
5.9383	0.5688
5.8978	0.679
5.8578	0.7976
5.8184	0.8801
5.7794	0.957
5.741	1.0127
5.7031	1.0525
5.6657	1.0837
5.6288	1.1082
5.5924	1.1213
5.5564	1.1384
5.5209	1.1677
5.4859	1.1841
5.4513	1.2004
5.4171	1.2026
5.3833	1.197
5.35	1.2068
5.3171	1.2185
5.2846	1.2195
5.2524	1.2412
5.2207	1.2502
5.1893	1.2607
5.1584	1.2734
5.1277	1.2742
5.0975	1.2812
5.0676	1.2756
5.038	1.2742
5.0088	1.2754
4.98	1.2781
4.9514	1.2874
4.9232	1.281
4.8953	1.2886
4.8678	1.2969
4.8405	1.2876
4.8135	1.2893
4.7868	1.2927
4.7605	1.2871
4.7344	1.2895
4.7086	1.2893
4.6831	1.2883
4.6578	1.2832
4.6328	1.2854
4.6081	1.2893
4.5837	1.2981
4.5595	1.2971
4.5356	1.2908
4.5119	1.2869
4.4884	1.2803
4.4652	1.2908
4.4423	1.2927
4.4196	1.2913
4.3971	1.2937
4.3748	1.2939
4.3528	1.2952
4.331	1.2922
4.3094	1.292
4.288	1.2935
4.2668	1.2947
4.2458	1.2961
4.2251	1.2974
4.2045	1.2988
4.1841	1.3027
4.164	1.3113
4.144	1.3083
4.1242	1.3076
4.1046	1.3093
4.0852	1.3135
4.066	1.312
4.047	1.3103
4.0281	1.3069
4.0094	1.3079
3.9909	1.303
3.9725	1.293
3.9544	1.2825
3.9363	1.2825
3.9185	1.2847
3.9008	1.2805
3.8833	1.2805
3.8659	1.2771
3.8487	1.269
3.8316	1.2659
3.8147	1.2532
3.7979	1.2461
3.7813	1.2419
3.7648	1.2314
3.7485	1.2246
3.7323	1.2205
3.7162	1.2048
3.7003	1.2019
3.6845	1.1809
3.6689	1.1711
3.6534	1.1526
3.638	1.1501
3.6227	1.1255
3.6076	1.1147
3.5926	1.103
3.5777	1.0867
3.563	1.0669
3.5484	1.0522
3.5338	1.0332
3.5195	1.0054
3.5052	0.9861
3.491	0.9609
3.477	0.9387
3.463	0.9246
3.4492	0.9099
3.4355	0.8923
3.4219	0.8652
3.4084	0.8342
3.395	0.8352
3.3817	0.8149
3.3685	0.7998
3.3554	0.7957
3.3425	0.7834
3.3296	0.7678
3.3168	0.752
3.3041	0.7385
3.2915	0.7251
3.279	0.7051
3.2666	0.6965
3.2543	0.6728
3.2421	0.6458
3.23	0.6345
3.218	0.6204
3.206	0.6091
3.1942	0.5952
3.1824	0.5793
3.1707	0.5532
3.1591	0.5461
3.1476	0.5354
3.1362	0.5234
3.1249	0.5071
3.1136	0.4919
3.1024	0.4924
3.0913	0.4744
3.0803	0.469
3.0694	0.4626
3.0585	0.4602
3.0477	0.4563
3.037	0.4456
3.0264	0.4426
3.0158	0.4326
3.0053	0.4399
2.9949	0.4385
2.9845	0.4268
2.9743	0.4153
2.9641	0.4165
2.9539	0.4163
2.9439	0.405
2.9339	0.4062
2.9239	0.416
2.9141	0.4128
2.9043	0.4084
2.8946	0.4158
2.8849	0.408
2.8753	0.4158
2.8658	0.4114
2.8563	0.4072
2.8469	0.4038
2.8375	0.4221
2.8282	0.4258
2.819	0.4304
2.8098	0.4358
2.8007	0.4561
2.7917	0.4641
2.7827	0.4619
2.7738	0.4736
2.7649	0.4805
2.7561	0.4854
2.7473	0.519
2.7386	0.5364
2.7299	0.5559
2.7213	0.541
2.7128	0.5105
2.7043	0.5793
2.6959	0.7671
2.6875	0.9702
2.6791	1.1082
2.6709	1.1614
2.6626	1.1719
2.6545	1.1892
2.6463	1.2019
2.6382	1.2175
2.6302	1.2209
2.6222	1.22
2.6143	1.2266
2.6064	1.2231
2.5986	1.2229
2.5908	1.2263
2.583	1.2202
2.5753	1.2297
2.5677	1.2275
2.5601	1.2341
2.5525	1.2346
2.545	1.2353
2.5375	1.2349
2.5301	1.2322
2.5227	1.2251
2.5154	1.2224
2.5081	1.2319
2.5008	1.2336
2.4936	1.2346
2.4864	1.2434
2.4793	1.2488
2.4722	1.2307
2.4651	1.2244
2.4581	1.2251
2.4511	1.2361
2.4442	1.2249
2.4373	1.239
2.4305	1.2236
2.4236	1.2361
2.4169	1.2415
2.4101	1.2332
2.4034	1.25
2.3967	1.2583
2.3901	1.2466
2.3835	1.2622
2.377	1.2585
2.3704	1.2458
2.364	1.2473
2.3575	1.2563
2.3511	1.2661
2.3447	1.2668
2.3384	1.2407
2.3321	1.2578
2.3258	1.2622
2.3195	1.2742
2.3133	1.2742
2.3071	1.2905
2.301	1.2754
2.2949	1.2803
2.2888	1.2812
2.2828	1.2524
2.2767	1.2478
2.2708	1.2732
2.2648	1.283
2.2589	1.2905
2.253	1.2898
2.2471	1.2517
2.2413	1.283
2.2355	1.2776
2.2297	1.29
2.224	1.2549
2.2183	1.2903
2.2126	1.2981
2.207	1.2812
2.2013	1.2627
2.1957	1.2971
2.1902	1.2737
2.1846	1.2676
2.1791	1.2734
2.1736	1.3052
2.1682	1.2817
2.1628	1.2864
2.1574	1.29
2.152	1.2778
2.1466	1.2837
2.1413	1.2805
2.136	1.2871
2.1308	1.2751
2.1255	1.2793
2.1203	1.2798
2.1151	1.2959
2.11	1.2869
2.1048	1.283
2.0997	1.291
2.0946	1.2949
2.0895	1.2795
2.0845	1.2925
2.0795	1.3242
