Name: Ivuna
Type: Meteorites
Class: Carbonaceous Chondrite
Subclass: CI
Particle Size: Fine
Sample No.: Ivuna
Owner: JHU
Wavelength Range: TIR
Origin: Smithsonian sample No.USNM 3963 obtained via Tom Jones.
Description: Stony Meteorites. Meteorite seen to fall in Tanzania in 1938. Particle size was 0-75 micrometers. Original ASTER Spectral Library name was jhu.becknic.meteorite.chondrite.ci.fine.ivun.spectrum.txt
Measurement: Bidirectional reflectance
X Units: Wavelength (micrometers)
Y Units: Reflectance (percent)
wavelength	value
25.044	0.936
24.339	0.9268
23.672	0.8867
23.041	0.8311
22.442	0.8425
21.874	0.8428
21.334	0.7524
20.82	0.7595
20.33	0.6995
19.863	0.6714
19.416	0.6404
18.99	0.6304
18.581	0.6108
18.19	0.6287
17.815	0.6626
17.455	0.6355
17.109	0.5845
16.777	0.5632
16.458	0.5671
16.15	0.5649
15.854	0.553
15.568	0.5591
15.292	0.5715
15.027	0.5745
14.77	0.6277
14.521	0.6409
14.281	0.7139
14.049	0.7947
13.824	0.8652
13.607	0.9375
13.396	1.0703
13.191	1.1914
12.993	1.3061
12.8	1.3557
12.614	1.4163
12.432	1.4551
12.256	1.4685
12.084	1.4287
11.918	1.3748
11.755	1.4084
11.598	1.4023
11.444	1.3362
11.294	1.2908
11.149	1.2783
11.007	1.2407
10.868	1.1406
10.733	1.0093
10.602	0.895
10.473	0.8064
10.348	0.7402
10.225	0.6929
10.106	0.6411
9.9887	0.6169
9.8746	0.6023
9.763	0.5898
9.6539	0.5666
9.5472	0.5395
9.4429	0.5176
9.3408	0.4983
9.2409	0.4861
9.1431	0.4753
9.0474	0.4888
8.9536	0.5122
8.8618	0.5122
8.7718	0.5322
8.6837	0.562
8.5973	0.5713
8.5126	0.5937
8.4295	0.6453
8.3481	0.7134
8.2682	0.8276
8.1898	0.9729
8.1129	1.1699
8.0374	1.4006
7.9634	1.6269
7.8906	1.8064
7.8192	1.9665
7.7491	2.0864
7.6802	2.157
7.6126	2.2026
7.5461	2.2461
7.4807	2.2969
7.4165	2.3208
7.3534	2.3345
7.2914	2.3279
7.2303	2.3
7.1703	2.2759
7.1113	2.2319
7.0533	2.1951
6.9962	2.1648
6.94	2.1457
6.8847	2.1699
6.8302	2.241
6.7767	2.3904
6.7239	2.5134
6.672	2.5696
6.6209	2.5901
6.5705	2.5994
6.5209	2.5869
6.4721	2.5486
6.424	2.488
6.3766	2.4214
6.3299	2.3435
6.2838	2.2468
6.2385	2.1435
6.1937	2.0288
6.1496	1.9036
6.1062	1.8462
6.0633	1.8496
6.0211	1.9141
5.9794	2.0266
5.9383	2.2129
5.8978	2.4372
5.8578	2.6414
5.8184	2.8108
5.7794	2.9656
5.741	3.082
5.7031	3.1755
5.6657	3.25
5.6288	3.3191
5.5924	3.3823
5.5564	3.4299
5.5209	3.4624
5.4859	3.4971
5.4513	3.5471
5.4171	3.5803
5.3833	3.6103
5.35	3.6269
5.3171	3.6489
5.2846	3.6606
5.2524	3.6733
5.2207	3.689
5.1893	3.699
5.1584	3.7065
5.1277	3.7226
5.0975	3.7363
5.0676	3.7488
5.038	3.7615
5.0088	3.7707
4.98	3.7776
4.9514	3.7844
4.9232	3.7917
4.8953	3.7978
4.8678	3.8047
4.8405	3.803
4.8135	3.8081
4.7868	3.813
4.7605	3.8166
4.7344	3.8169
4.7086	3.8164
4.6831	3.8191
4.6578	3.8227
4.6328	3.8264
4.6081	3.8315
4.5837	3.8298
4.5595	3.8286
4.5356	3.8269
4.5119	3.8223
4.4884	3.8196
4.4652	3.8196
4.4423	3.8188
4.4196	3.8237
4.3971	3.8252
4.3748	3.8218
4.3528	3.823
4.331	3.8215
4.3094	3.8232
4.288	3.8267
4.2668	3.8332
4.2458	3.8406
4.2251	3.844
4.2045	3.8508
4.1841	3.8511
4.164	3.8559
4.144	3.8542
4.1242	3.8525
4.1046	3.8599
4.0852	3.8567
4.066	3.8508
4.047	3.8425
4.0281	3.8328
4.0094	3.8232
3.9909	3.7996
3.9725	3.7685
3.9544	3.7537
3.9363	3.75
3.9185	3.7473
3.9008	3.7402
3.8833	3.7312
3.8659	3.718
3.8487	3.7073
3.8316	3.6912
3.8147	3.6631
3.7979	3.6548
3.7813	3.6372
3.7648	3.625
3.7485	3.6111
3.7323	3.5954
3.7162	3.5713
3.7003	3.5474
3.6845	3.5259
3.6689	3.4892
3.6534	3.469
3.638	3.4426
3.6227	3.4165
3.6076	3.3879
3.5926	3.3484
3.5777	3.3127
3.563	3.2737
3.5484	3.2351
3.5338	3.177
3.5195	3.1064
3.5052	3.0066
3.491	2.948
3.477	2.9163
3.463	2.8918
3.4492	2.8398
3.4355	2.7656
3.4219	2.6699
3.4084	2.6172
3.395	2.6191
3.3817	2.5749
3.3685	2.5664
3.3554	2.5874
3.3425	2.5886
3.3296	2.5662
3.3168	2.5278
3.3041	2.4851
3.2915	2.4443
3.279	2.4036
3.2666	2.3638
3.2543	2.3071
3.2421	2.2732
3.23	2.2256
3.218	2.177
3.206	2.1352
3.1942	2.0823
3.1824	2.0332
3.1707	1.9748
3.1591	1.9336
3.1476	1.8826
3.1362	1.8567
3.1249	1.8208
3.1136	1.7842
3.1024	1.7649
3.0913	1.7397
3.0803	1.7209
3.0694	1.71
3.0585	1.6936
3.0477	1.6738
3.037	1.666
3.0264	1.6519
3.0158	1.6394
3.0053	1.6265
2.9949	1.6123
2.9845	1.5989
2.9743	1.5867
2.9641	1.5749
2.9539	1.561
2.9439	1.5518
2.9339	1.5449
2.9239	1.5474
2.9141	1.5518
2.9043	1.5474
2.8946	1.5571
2.8849	1.5598
2.8753	1.5671
2.8658	1.5764
2.8563	1.5898
2.8469	1.6025
2.8375	1.626
2.8282	1.6389
2.819	1.6543
2.8098	1.678
2.8007	1.7236
2.7917	1.7576
2.7827	1.7922
2.7738	1.8332
2.7649	1.8728
2.7561	1.9189
2.7473	1.9751
2.7386	1.9949
2.7299	1.9709
2.7213	1.8877
2.7128	1.8047
2.7043	2.022
2.6959	2.5156
2.6875	3.0083
2.6791	3.3464
2.6709	3.4548
2.6626	3.5112
2.6545	3.5259
2.6463	3.5478
2.6382	3.5503
2.6302	3.5662
2.6222	3.5676
2.6143	3.5754
2.6064	3.5583
2.5986	3.5669
2.5908	3.5662
2.583	3.5496
2.5753	3.5627
2.5677	3.5483
2.5601	3.5625
2.5525	3.5571
2.545	3.5698
2.5375	3.5688
2.5301	3.5544
2.5227	3.564
2.5154	3.5691
2.5081	3.5691
2.5008	3.5696
2.4936	3.5747
2.4864	3.5715
2.4793	3.574
2.4722	3.5688
2.4651	3.5654
2.4581	3.5686
2.4511	3.5437
2.4442	3.5522
2.4373	3.564
2.4305	3.5559
2.4236	3.5642
2.4169	3.5605
2.4101	3.5588
2.4034	3.5693
2.3967	3.5837
2.3901	3.5615
2.3835	3.5698
2.377	3.5715
2.3704	3.6018
2.364	3.5989
2.3575	3.6211
2.3511	3.6089
2.3447	3.6062
2.3384	3.6096
2.3321	3.6189
2.3258	3.6006
2.3195	3.6121
2.3133	3.6133
2.3071	3.6262
2.301	3.6142
2.2949	3.6184
2.2888	3.6418
2.2828	3.6475
2.2767	3.6611
2.2708	3.666
2.2648	3.6675
2.2589	3.6755
2.253	3.6663
2.2471	3.6821
2.2413	3.6616
2.2355	3.6826
2.2297	3.6846
2.224	3.7082
2.2183	3.6772
2.2126	3.6902
2.207	3.7126
2.2013	3.7014
2.1957	3.6904
2.1902	3.6821
2.1846	3.7207
2.1791	3.7134
2.1736	3.7158
2.1682	3.7366
2.1628	3.7256
2.1574	3.7229
2.152	3.7336
2.1466	3.7207
2.1413	3.7493
2.136	3.7217
2.1308	3.7236
2.1255	3.7146
2.1203	3.73
2.1151	3.6985
2.11	3.7241
2.1048	3.7327
2.0997	3.7239
2.0946	3.7322
2.0895	3.7092
2.0845	3.728
2.0795	3.7412
