Name: Aragonite CaCO3
Type: Mineral
Class: Carbonate
Subclass: None
Particle Size: Solid
Sample No.: aragonite_1
Owner: JHU
Wavelength Range: TIR
Origin: Sample from Horenec, Bilina, Cechy, Czechoslovakia, viaSmithsonian (sample no. NMNH B10083).
Description: The sample was composed of two transparent, colorless pieces: one prismatic, 1.8 cm x 1.8 cm x 2 cm, and weighing about 2 g; the other a 5 mm x 5 mm x 5 mm cleavage fragment weighing 0.65 g.  No impurities were detected in hand sample or microscopically. Original ASTER Spectral Library name was jhu.nicolet.mineral.carbonate.none.solid.aragon1.spectrum.txt
Measurement: Bidirectional reflectance
X Units: Wavelength (micrometers)
Y Units: Reflectance (percent)
wavelength	value
25.0442	2.5166
24.3388	0.9927
23.6719	0.9653
23.0407	1.2285
22.4422	1.6665
21.8741	1.876
21.334	2.1562
20.8199	2.4487
20.33	2.6702
19.8627	2.9619
19.4163	3.2063
18.9896	3.331
18.5812	3.4997
18.19	3.6767
17.815	3.8076
17.4551	3.9321
17.1094	3.9956
16.7772	4.1728
16.4576	4.3066
16.15	4.4014
15.8537	4.541
15.568	4.6601
15.2925	4.7717
15.0265	4.958
14.7697	5.0596
14.5214	5.2571
14.2814	6.0054
14.0492	5.5764
13.8244	5.1548
13.6067	5.3887
13.3957	5.6077
13.1912	5.7495
12.9929	5.9348
12.8004	6.1531
12.6135	6.3528
12.432	6.7019
12.2557	7.2121
12.0843	8.0549
11.9176	10.136
11.7555	17.8808
11.5977	28.7231
11.444	27.4919
11.2944	10.7519
11.1487	3.7971
11.0067	3.9399
10.8682	4.2114
10.7332	4.4485
10.6015	4.6247
10.473	4.7932
10.3476	4.9263
10.2251	5.0273
10.1056	5.1355
9.9887	5.2143
9.8746	5.2778
9.763	5.3765
9.6539	5.4565
9.5472	5.5168
9.4429	5.615
9.3408	5.7637
9.2409	6.9451
9.1431	5.4509
9.0474	5.6096
8.9536	5.6704
8.8618	5.7353
8.7718	5.7905
8.6837	5.8703
8.5973	5.9375
8.5126	5.9914
8.4295	6.0615
8.3481	6.146
8.2682	6.2319
8.1898	6.3418
8.1129	6.4568
8.0374	6.5574
7.9634	6.699
7.8906	6.8552
7.8192	6.9407
7.7491	7.0703
7.6802	7.1765
7.6126	7.354
7.5461	7.5061
7.4807	7.6809
7.4165	7.9267
7.3534	8.1963
7.2914	8.52
7.2303	8.9555
7.1703	9.3872
7.1113	10.1457
7.0533	11.2417
6.9962	13.063
6.94	17.5127
6.8847	23.6481
6.8302	23.5268
6.7767	27.3791
6.7239	27.8781
6.672	27.9716
6.6209	27.9423
6.5705	27.5356
6.5209	26.9245
6.4721	25.9123
6.424	23.2729
6.3766	17.5205
6.3299	16.467
6.2838	18.5598
6.2385	15.5537
6.1937	11.6045
6.1496	8.2431
6.1062	5.4026
6.0633	4.114
6.0211	3.8796
5.9794	3.8498
5.9383	3.8945
5.8978	3.9785
5.8578	4.0964
5.8184	4.1638
5.7794	4.2053
5.741	4.2529
5.7031	4.3137
5.6657	4.4026
5.6288	4.5576
5.5924	4.3906
5.5564	4.3945
5.5209	4.4912
5.4859	4.5503
5.4513	4.6108
5.4171	4.6533
5.3833	4.6907
5.35	4.7297
5.3171	4.7793
5.2846	4.8193
5.2524	4.8489
5.2207	4.8708
5.1893	4.904
5.1584	4.9392
5.1277	4.9773
5.0975	4.9861
5.0676	5.0127
5.038	5.0344
5.0088	5.0625
4.98	5.082
4.9514	5.0959
4.9232	5.126
4.8953	5.1299
4.8678	5.1555
4.8405	5.1609
4.8135	5.1782
4.7868	5.1799
4.7605	5.2051
4.7344	5.2163
4.7086	5.217
4.6831	5.2405
4.6578	5.2576
4.6328	5.2651
4.6081	5.2715
4.5837	5.302
4.5595	5.3103
4.5356	5.3193
4.5119	5.3469
4.4884	5.3645
4.4652	5.3801
4.4423	5.3874
4.4196	5.4077
4.3971	5.426
4.3748	5.4363
4.3528	5.4499
4.331	5.448
4.3094	5.4556
4.288	5.4585
4.2668	5.4741
4.2458	5.4831
4.2251	5.489
4.2045	5.4934
4.1841	5.4878
4.164	5.5015
4.144	5.508
4.1242	5.5298
4.1046	5.5327
4.0852	5.5574
4.066	5.5708
4.047	5.5913
4.0281	5.6001
4.0094	5.5964
3.9909	5.5766
3.9725	5.5857
3.9544	5.5752
3.9363	5.5827
3.9185	5.6059
3.9008	5.6108
3.8833	5.6211
3.8659	5.6421
3.8487	5.6575
3.8316	5.6528
3.8147	5.6562
3.7979	5.6692
3.7813	5.6728
3.7648	5.6785
3.7485	5.6868
3.7323	5.7036
3.7162	5.7117
3.7003	5.7007
3.6845	5.7107
3.6689	5.7314
3.6534	5.7356
3.638	5.7456
3.6227	5.7529
3.6076	5.7744
3.5926	5.7729
3.5777	5.791
3.563	5.7991
3.5484	5.8098
3.5338	5.8264
3.5195	5.8606
3.5052	5.9043
3.491	5.8755
3.477	5.8755
3.463	5.8938
3.4492	5.8984
3.4355	5.9407
3.4219	5.9343
3.4084	5.8728
3.395	5.8286
3.3817	5.831
3.3685	5.8179
3.3554	5.8008
3.3425	5.8125
3.3296	5.8169
3.3168	5.841
3.3041	5.8432
3.2915	5.8618
3.279	5.876
3.2666	5.8979
3.2543	5.8984
3.2421	5.9194
3.23	5.928
3.218	5.9394
3.206	5.9497
3.1942	5.9848
3.1824	5.9822
3.1707	6.0002
3.1591	6.0039
3.1476	6.0088
3.1362	6.0014
3.1249	6.0547
3.1136	6.0471
3.1024	6.0703
3.0913	6.0625
3.0803	6.084
3.0694	6.1042
3.0585	6.1001
3.0477	6.126
3.037	6.1377
3.0264	6.1357
3.0158	6.1426
3.0053	6.1377
2.9949	6.1548
2.9845	6.1775
2.9743	6.1811
2.9641	6.1745
2.9539	6.1816
2.9439	6.1836
2.9339	6.1924
2.9239	6.2124
2.9141	6.2158
2.9043	6.2402
2.8946	6.2422
2.8849	6.2681
2.8753	6.2554
2.8658	6.2661
2.8563	6.2983
2.8469	6.2851
2.8375	6.2783
2.8282	6.2969
2.819	6.3061
2.8098	6.3017
2.8007	6.3188
2.7917	6.3174
2.7827	6.3418
2.7738	6.3406
2.7649	6.3359
2.7561	6.3413
2.7473	6.3955
2.7386	6.3808
2.7299	6.397
2.7213	6.3955
2.7128	6.4211
2.7043	6.4426
2.6959	6.4219
2.6875	6.4407
2.6791	6.4609
2.6709	6.4773
2.6626	6.4844
2.6545	6.5295
2.6463	6.4814
2.6382	6.5571
2.6302	6.5034
2.6222	6.5708
2.6143	6.5493
2.6064	6.5503
2.5986	6.5981
2.5908	6.5879
2.583	6.5869
2.5753	6.5989
2.5677	6.583
2.5601	6.5874
2.5525	6.5908
2.545	6.6152
2.5375	6.5791
2.5301	6.6196
2.5227	6.6006
2.5154	6.6369
2.5081	6.6826
2.5008	6.6304
2.4936	6.636
2.4864	6.6653
2.4793	6.6611
2.4722	6.6457
2.4651	6.6311
2.4581	6.6457
2.4511	6.6594
2.4442	6.6509
2.4373	6.6604
2.4305	6.6838
2.4236	6.6719
2.4169	6.6723
2.4101	6.6631
2.4034	6.708
2.3967	6.6828
2.3901	6.6897
2.3835	6.7285
2.377	6.6926
2.3704	6.6709
2.364	6.6709
2.3575	6.6474
2.3511	6.6894
2.3447	6.6738
2.3384	6.6391
2.3321	6.6162
2.3258	6.626
2.3195	6.6562
2.3133	6.6435
2.3071	6.6367
2.301	6.6357
2.2949	6.6416
2.2888	6.603
2.2828	6.5928
2.2767	6.626
2.2708	6.6142
2.2648	6.6313
2.2589	6.6181
2.253	6.5986
2.2471	6.6103
2.2413	6.6445
2.2355	6.6626
2.2297	6.6587
2.224	6.625
2.2183	6.6172
2.2126	6.6611
2.207	6.6377
2.2013	6.6308
2.1957	6.625
2.1902	6.6426
2.1846	6.6157
2.1791	6.5898
2.1736	6.6196
2.1682	6.626
2.1628	6.6269
2.1574	6.6059
2.152	6.624
2.1466	6.5747
2.1413	6.6333
2.136	6.5708
2.1308	6.5732
2.1255	6.5649
2.1203	6.6294
2.1151	6.6396
2.11	6.5879
2.1048	6.6465
2.0997	6.6015
2.0946	6.6328
2.0895	6.6645
2.0845	6.6196
2.0795	6.6181
