Name: Cordierite Mg_2Al_3(Si_5Al)O_18
Type: Mineral
Class: Silicate
Subclass: Cyclosilicate
Particle Size: Medium
Sample No.: CS-3A
Owner: JPL
Wavelength Range: VSWIR
Origin: Canada, Northwest Territories, Mackenzie District, Great Bear Lake
Description: Particle size was 45-125um.Collected by Ward's Original ASTER Spectral Library name was jpl.beckman.mineral.silicate.cyclosilicate.medium.cs03a.spectrum.txt
Measurement: Hemispherical reflectance
X Units: Wavelength (micrometers)
Y Units: Reflectance (percent)
wavelength	value
0.4	44.86
0.403	45.11
0.406	45.32
0.409	45.42
0.412	45.45
0.415	45.36
0.418	45.45
0.421	45.63
0.424	45.81
0.427	45.96
0.43	46.4
0.433	46.61
0.436	46.34
0.439	46.34
0.442	46.79
0.445	47
0.448	46.97
0.451	46.91
0.454	46.94
0.457	46.97
0.46	46.83
0.463	46.57
0.466	46.45
0.469	46.39
0.472	46.42
0.475	46.07
0.478	46.01
0.481	46.01
0.484	45.76
0.487	45.58
0.49	45.51
0.493	45.35
0.496	45.36
0.499	45.54
0.502	45.63
0.505	45.46
0.508	45.55
0.511	45.4
0.514	45.31
0.517	45.23
0.52	45.25
0.523	45.31
0.526	45.25
0.529	45.02
0.532	45.13
0.535	45.01
0.538	44.92
0.541	44.89
0.544	45.04
0.547	44.99
0.55	44.94
0.553	44.9
0.556	45.1
0.559	44.98
0.562	45.37
0.565	45.17
0.568	45.14
0.571	45.17
0.574	45.01
0.577	44.98
0.58	45.05
0.583	45.14
0.586	45.08
0.589	45.08
0.592	45.41
0.595	45.41
0.598	45.51
0.601	45.53
0.604	45.83
0.607	45.92
0.61	45.86
0.613	46.03
0.616	46.18
0.619	46.24
0.622	46.26
0.625	46.53
0.628	46.55
0.631	46.7
0.634	46.79
0.637	46.99
0.64	47.02
0.643	47.22
0.646	47.44
0.649	47.53
0.652	47.62
0.655	47.94
0.658	48.05
0.661	48.23
0.664	48.37
0.667	48.78
0.67	48.86
0.673	49.2
0.676	49.44
0.679	49.79
0.682	49.95
0.685	50.18
0.688	50.45
0.691	50.77
0.694	50.95
0.697	51.03
0.7	51.2
0.703	51.51
0.706	51.82
0.709	52.01
0.712	52.1
0.715	52.31
0.718	52.56
0.721	52.74
0.724	52.78
0.727	53.09
0.73	53.27
0.733	53.41
0.736	53.34
0.739	53.57
0.742	53.7
0.745	53.74
0.748	53.64
0.751	53.69
0.754	53.68
0.757	53.52
0.76	53.42
0.763	53.42
0.766	53.23
0.769	53
0.772	52.84
0.775	52.66
0.778	52.34
0.781	51.98
0.784	51.94
0.787	51.54
0.79	50.99
0.793	50.65
0.796	50.38
0.799	50.08
0.808	48.65
0.82	46.52
0.832	44.29
0.844	41.92
0.856	39.65
0.868	37.49
0.88	35.61
0.892	33.73
0.904	32.14
0.916	30.72
0.928	29.58
0.94	28.67
0.952	27.97
0.964	27.6
0.976	27.34
0.988	27.45
1	27.71
1.012	28.27
1.024	28.89
1.036	29.59
1.048	30.43
1.06	31.18
1.072	31.88
1.084	32.45
1.096	32.99
1.108	33.41
1.12	33.62
1.132	33.77
1.144	33.83
1.156	34.13
1.168	34.33
1.18	34.61
1.192	34.95
1.204	35.42
1.216	35.86
1.228	36.68
1.24	37.53
1.252	38.49
1.264	39.68
1.276	40.95
1.288	42.39
1.3	43.92
1.312	45.61
1.324	47.24
1.336	48.94
1.348	50.43
1.36	51.74
1.372	53.4
1.384	54.94
1.396	51.5
1.408	54.35
1.42	58.59
1.432	61.33
1.444	63.25
1.456	64.45
1.468	65.1
1.48	67.63
1.492	68.79
1.504	69.85
1.516	70.69
1.528	71.43
1.54	72.1
1.552	72.58
1.564	73.03
1.576	73.44
1.588	73.73
1.6	74.06
1.612	74.32
1.624	74.6
1.636	74.64
1.648	74.87
1.66	74.96
1.672	75.19
1.684	75.22
1.696	75.37
1.708	75.42
1.72	75.36
1.732	75.3
1.744	75.17
1.756	74.88
1.768	74.48
1.78	73.75
1.792	72.88
1.804	71.25
1.816	69.04
1.828	67.73
1.84	67.4
1.852	67.66
1.864	67.92
1.876	65.49
1.888	54.55
1.9	50.02
1.912	59.2
1.924	65.52
1.936	66.89
1.948	67.3
1.96	67.62
1.972	68.52
1.984	69.74
1.996	70.61
2.008	70.89
2.02	71.61
2.032	72.19
2.044	72.28
2.056	72.19
2.068	71.89
2.08	71.5
2.092	71.51
2.104	71.63
2.116	71.76
2.128	71.71
2.14	71.38
2.152	70.74
2.164	70.08
2.176	69.54
2.188	69.17
2.2	68.93
2.212	68.84
2.224	68.88
2.236	68.86
2.248	68.63
2.26	68.6
2.272	68.73
2.284	68.82
2.296	68.8
2.308	68.79
2.32	68.85
2.332	68.73
2.344	68.68
2.356	68.67
2.368	68.46
2.38	68.19
2.392	67.87
2.404	67.33
2.416	66.64
2.428	65.71
2.44	64.59
2.452	63.25
2.464	61.54
2.476	59.71
2.488	57.87
2.5	55.34
