Name: Oligoclase (Feldspar) (NaSi,CaAl)AlSi_2O_8
Type: Mineral
Class: Silicate
Subclass: Tectosilicate
Particle Size: Fine
Sample No.: TS-3A
Owner: JPL
Wavelength Range: VSWIR
Description: Particle size was 0-45um.Collected by JPL Original ASTER Spectral Library name was jpl.beckman.mineral.silicate.tectosilicate.fine.ts03a.spectrum.txt
Measurement: Hemispherical reflectance
X Units: Wavelength (micrometers)
Y Units: Reflectance (percent)
wavelength	value
0.4	77.36
0.403	77.6
0.406	77.88
0.409	78.04
0.412	78.32
0.415	78.43
0.418	78.58
0.421	78.62
0.424	78.79
0.427	78.78
0.43	78.91
0.433	79.04
0.436	79.27
0.439	79.38
0.442	79.36
0.445	79.53
0.448	79.78
0.451	79.78
0.454	79.83
0.457	79.96
0.46	80.2
0.463	80.2
0.466	80.25
0.469	80.46
0.472	80.67
0.475	80.69
0.478	80.67
0.481	80.87
0.484	81.09
0.487	80.99
0.49	81.14
0.493	81.18
0.496	81.24
0.499	81.34
0.502	81.44
0.505	81.46
0.508	81.56
0.511	81.58
0.514	81.72
0.517	81.66
0.52	81.89
0.523	81.98
0.526	81.88
0.529	81.92
0.532	82
0.535	82
0.538	81.98
0.541	82.05
0.544	82.18
0.547	82.18
0.55	82.3
0.553	82.45
0.556	82.43
0.559	82.51
0.562	82.98
0.565	83.19
0.568	83
0.571	82.77
0.574	82.77
0.577	82.84
0.58	82.77
0.583	82.9
0.586	82.88
0.589	82.89
0.592	82.89
0.595	83.11
0.598	82.9
0.601	83.11
0.604	83.21
0.607	83.35
0.61	83.29
0.613	83.14
0.616	83.16
0.619	83.25
0.622	83.15
0.625	83.21
0.628	83.28
0.631	83.43
0.634	83.06
0.637	83.26
0.64	83.27
0.643	83.31
0.646	83.19
0.649	83.21
0.652	83.29
0.655	83.22
0.658	83.26
0.661	83.32
0.664	83.43
0.667	83.25
0.67	83.38
0.673	83.49
0.676	83.4
0.679	83.4
0.682	83.33
0.685	83.5
0.688	83.51
0.691	83.34
0.694	83.5
0.697	83.43
0.7	83.39
0.703	83.51
0.706	83.56
0.709	83.43
0.712	83.32
0.715	83.54
0.718	83.61
0.721	83.59
0.724	83.52
0.727	83.63
0.73	83.66
0.733	83.66
0.736	83.51
0.739	83.62
0.742	83.66
0.745	83.69
0.748	83.64
0.751	83.61
0.754	83.69
0.757	83.69
0.76	83.56
0.763	83.54
0.766	83.61
0.769	83.68
0.772	83.77
0.775	83.55
0.778	83.75
0.781	83.77
0.784	83.85
0.787	83.83
0.79	83.79
0.793	83.9
0.796	83.97
0.799	83.96
0.808	83.86
0.82	84
0.832	83.94
0.844	84.06
0.856	84.11
0.868	84.2
0.88	84.08
0.892	84.13
0.904	84.13
0.916	84.15
0.928	84.17
0.94	84.11
0.952	84.19
0.964	84.19
0.976	84.2
0.988	84.07
1	84.05
1.012	84
1.024	84.08
1.036	84.1
1.048	84.12
1.06	84.04
1.072	84.17
1.084	84.13
1.096	84.19
1.108	84.2
1.12	84.14
1.132	84.21
1.144	84.1
1.156	84.06
1.168	84.07
1.18	84.07
1.192	84.05
1.204	84.01
1.216	83.96
1.228	83.95
1.24	84
1.252	84.01
1.264	84.02
1.276	84.03
1.288	84.06
1.3	84
1.312	84.07
1.324	83.93
1.336	83.88
1.348	83.87
1.36	84
1.372	83.88
1.384	83.83
1.396	83.39
1.408	83.1
1.42	83.49
1.432	83.7
1.444	83.77
1.456	83.87
1.468	83.88
1.48	83.92
1.492	84.04
1.504	84.05
1.516	84.1
1.528	84.13
1.54	84.13
1.552	84.15
1.564	84.2
1.576	84.17
1.588	84.21
1.6	84.22
1.612	84.24
1.624	84.27
1.636	84.26
1.648	84.25
1.66	84.42
1.672	84.33
1.684	84.43
1.696	84.44
1.708	84.49
1.72	84.56
1.732	84.45
1.744	84.46
1.756	84.38
1.768	84.26
1.78	84.3
1.792	84.44
1.804	84.33
1.816	84.32
1.828	84.3
1.84	84.4
1.852	84.33
1.864	84.3
1.876	84.1
1.888	83.59
1.9	83.11
1.912	82.62
1.924	82.52
1.936	82.45
1.948	82.64
1.96	82.76
1.972	83.04
1.984	83.32
1.996	83.58
2.008	83.68
2.02	83.92
2.032	84.03
2.044	84.18
2.056	84.26
2.068	84.46
2.08	84.48
2.092	84.55
2.104	84.68
2.116	84.91
2.128	84.79
2.14	84.85
2.152	84.59
2.164	84.24
2.176	83.81
2.188	83.19
2.2	83.06
2.212	83.32
2.224	83.65
2.236	83.67
2.248	83.61
2.26	83.69
2.272	83.66
2.284	83.62
2.296	83.48
2.308	83.31
2.32	83.22
2.332	82.84
2.344	82.59
2.356	82.62
2.368	82.72
2.38	82.98
2.392	82.96
2.404	82.93
2.416	82.69
2.428	82.51
2.44	82.43
2.452	82.3
2.464	82.11
2.476	82.05
2.488	82.28
2.5	82.44
