Name: Glauberite Na_2Ca(SO_4)_2
Type: Mineral
Class: Sulfate
Subclass: None
Particle Size: Fine
Sample No.: SO-8A
Owner: JPL
Wavelength Range: TIR
Origin: USA, Arizona, Yavapai County, Campe Verde
Description: Particle size was 0-45um.Collected by Burminco Original ASTER Spectral Library name was jpl.nicolet.mineral.sulfate.none.fine.so08a.spectrum.txt
Measurement: Hemispherical reflectance
X Units: Wavelength (micrometers)
Y Units: Reflectance (percent)
wavelength	value
15.3853	4.7593
15.1161	2.812
14.8563	6.3017
14.6052	10.8289
14.3624	15.1562
14.1276	18.4147
13.9004	20.0215
13.6803	22.1828
13.4671	22.7634
13.2604	23.5231
13.06	24.9045
12.8656	27.3844
12.6769	30.1082
12.4936	32.2315
12.3155	34.554
12.1425	34.9156
11.9742	35.2033
11.8106	35.583
11.6513	35.9006
11.4963	35.9758
11.3454	34.6274
11.1983	34.4732
11.0551	32.8961
10.9154	31.5793
10.7793	30.284
10.6465	29.9112
10.5169	28.3342
10.3904	26.5743
10.267	23.5532
10.1464	19.2877
10.0287	15.5374
9.9136	15.0845
9.8012	13.5833
9.6913	12.404
9.5838	10.274
9.4787	8.7821
9.3758	7.0758
9.2752	6.2323
9.1767	7.5889
9.0803	9.1892
8.9858	8.8015
8.8934	11.6108
8.8028	15.2211
8.714	12.0182
8.627	13.5404
8.5417	12.4269
8.4581	11.568
8.3761	13.1774
8.2957	14.3509
8.2169	12.0908
8.1395	7.0239
8.0635	3.3758
7.989	1.6071
7.9158	0.8886
7.8439	0.548
7.7734	0.5671
7.7041	0.8718
7.636	1.5519
7.5691	3.0345
7.5034	5.1699
7.4388	8.4961
7.3753	12.2257
7.3129	15.2807
7.2515	18.3144
7.1912	21.2554
7.1318	23.7336
7.0734	26.7825
7.016	30.7417
6.9595	33.363
6.9039	33.3878
6.8492	34.0833
6.7953	33.3631
6.7423	33.0672
6.6901	37.2688
6.6387	40.8792
6.5881	42.4742
6.5382	43.4883
6.4892	41.7184
6.4408	39.986
6.3931	40.0633
6.3462	38.103
6.2999	35.6834
6.2543	34.4994
6.2094	31.5673
6.1651	35.9403
6.1214	38.0371
6.0784	38.6215
6.0359	48.2331
5.994	54.7889
5.9527	56.5501
5.912	59.6895
5.8718	61.6064
5.8322	61.7913
5.7931	61.0543
5.7545	59.1524
5.7165	58.9426
5.6789	58.3596
5.6418	59.3916
5.6052	58.828
5.5691	61.9223
5.5334	63.8001
5.4982	63.8341
5.4635	65.7045
5.4291	67.5272
5.3952	69.9784
5.3618	72.262
5.3287	73.4845
5.2961	74.1669
5.2638	74.6164
5.2319	75.2686
5.2004	75.6817
5.1693	75.5878
5.1386	75.5075
5.1082	74.9054
5.0782	74.4699
5.0485	72.9329
5.0192	64.8755
4.9902	67.5889
4.9616	69.7767
4.9332	68.5083
4.9052	66.1963
4.8776	62.6076
4.8502	56.9202
4.8231	47.1889
4.7963	28.7172
4.7699	18.6078
4.7437	17.6881
4.7178	15.6568
4.6922	16.5511
4.6668	21.9368
4.6418	25.9571
4.617	26.4155
4.5924	29.5712
4.5681	27.5256
4.5441	26.6524
4.5203	29.0125
4.4968	32.5897
4.4735	33.7965
4.4505	32.3954
4.4277	31.0451
4.4051	31.5571
4.3828	33.2923
4.3607	32.8189
4.3388	34.183
4.3171	36.5577
4.2956	39.4471
4.2744	43.3003
4.2534	48.2766
4.2325	52.773
4.2119	58.4599
4.1915	62.9544
4.1712	66.4906
4.1512	70.1057
4.1313	72.9361
4.1117	74.8895
4.0922	76.5636
4.0729	77.9948
4.0538	79.1324
4.0349	80.3582
4.0161	81.2913
3.9976	81.8665
3.9792	81.942
3.9609	81.7529
3.9428	81.708
3.9249	82.0234
3.9072	82.5705
3.8896	82.9012
3.8722	83.3164
3.8549	83.437
3.8378	83.345
3.8208	83.684
3.804	83.6689
3.7873	83.8574
3.7708	84.8282
3.7544	85.5121
3.7382	85.7188
3.7221	85.7856
3.7061	85.8385
3.6903	85.6663
3.6746	85.5795
3.659	85.2777
3.6436	85.2133
3.6283	85.0328
3.6131	84.9516
3.5981	84.9183
3.5832	84.7181
3.5684	84.4656
3.5537	84.1529
3.5391	83.7307
3.5247	83.1228
3.5104	81.9955
3.4962	81.3844
3.4821	81.2777
3.4681	80.9077
3.4543	80.5852
3.4405	79.8194
3.4269	78.8488
3.4133	78.1753
3.3999	78.6652
3.3866	78.9627
3.3733	78.6051
3.3602	78.6737
3.3472	78.6327
3.3343	78.5332
3.3215	78.2474
3.3088	77.9211
3.2961	77.3517
3.2836	76.7361
3.2712	76.0732
3.2588	75.3389
3.2466	73.993
3.2345	73.0618
3.2224	72.5967
3.2104	71.8188
3.1985	71.5808
3.1867	71.3146
3.175	70.8127
3.1634	70.1881
3.1519	69.2621
3.1404	68.4311
3.129	67.5858
3.1178	67.1333
3.1065	66.6547
3.0954	66.1163
3.0844	65.6038
3.0734	65.1774
3.0625	65.0141
3.0517	64.8428
3.041	64.3568
3.0303	64.1613
3.0197	63.6386
3.0092	63.2839
2.9987	63.0049
2.9884	62.5422
2.9781	62.2153
2.9678	62.0522
2.9577	61.5576
2.9476	61.4237
2.9376	61.3266
2.9276	61.3489
2.9177	61.4185
2.9079	61.673
2.8982	61.6127
2.8885	61.6777
2.8789	61.6273
2.8693	61.6944
2.8598	61.9281
2.8504	62.1434
2.841	62.4368
2.8317	62.7234
2.8224	63.1185
2.8133	63.6287
2.8041	64.3193
2.7951	64.1533
2.786	64.6458
2.7771	64.4121
2.7682	64.9696
2.7594	64.7715
2.7506	66.3968
2.7418	68.6328
2.7332	69.5965
2.7246	71.7943
2.716	71.9424
2.7075	74.3635
2.699	77.6165
2.6906	82.0861
2.6823	85.5349
2.674	87.3704
2.6657	89.3225
2.6575	88.2288
2.6494	88.2281
2.6413	88.5759
2.6332	88.8704
2.6252	88.9253
2.6173	89.8231
2.6094	89.2875
2.6015	89.1793
2.5937	90.4736
2.5859	89.3034
2.5782	89.2003
2.5706	89.2527
2.5629	89.7579
2.5554	89.0142
2.5478	89.1523
2.5403	88.9635
2.5329	88.9499
2.5255	89.0763
2.5181	88.9675
2.5108	88.9517
2.5035	89.0111
2.4963	88.886
2.4891	89.1418
2.482	88.9533
2.4749	89.1386
2.4678	89.0688
2.4608	89.234
2.4538	89.1163
2.4468	89.357
2.4399	89.291
2.4331	89.4054
2.4262	89.7102
2.4194	89.4858
2.4127	89.711
2.4059	89.6551
2.3993	89.5563
2.3926	89.6735
2.386	89.7907
2.3795	89.8983
2.3729	89.8896
2.3664	89.971
2.36	89.9965
2.3535	90.102
2.3471	90.1252
2.3408	90.0551
2.3345	90.0849
2.3282	90.0608
2.3219	90.1249
2.3157	89.9813
2.3095	90.1062
2.3034	90.1784
2.2972	90.1542
2.2911	90.3233
2.2851	90.3212
2.279	90.4482
2.2731	90.3421
2.2671	90.4097
2.2612	90.4941
2.2553	90.4514
2.2494	90.6279
2.2435	90.409
2.2377	90.5803
2.232	90.5567
2.2262	90.7592
2.2205	90.4338
2.2148	90.5779
2.2091	90.6053
2.2035	90.6198
2.1979	90.5784
2.1923	90.7192
2.1868	90.7936
2.1812	90.7227
2.1758	90.7701
2.1703	90.9736
2.1649	90.8678
2.1595	90.8676
2.1541	90.981
2.1487	90.7702
2.1434	91.0958
2.1381	90.8831
2.1328	91.0801
2.1275	91.0289
2.1223	90.9839
2.1171	91.1392
2.112	90.9881
2.1068	91.2915
2.1017	91.0218
2.0966	91.201
2.0915	90.8847
2.0865	91.1132
2.0814	91.0462
2.0764	90.9329
2.0715	91.0251
2.0665	91.4489
2.0616	91.0718
2.0567	90.9831
2.0518	91.313
2.0469	91.2262
2.0421	91.1895
2.0373	91.0004
2.0325	90.9354
2.0277	91.1097
2.0229	90.9008
2.0182	91.0756
2.0135	91.2471
2.0088	91.2006
2.0042	91.0978
