Name: Olivine (Fo41) (Fe+2,Mg)2SiO4
Type: Mineral
Class: Silicate
Subclass: Nesosilicate
Particle Size: Fine
Sample No.: olivine_4
Owner: JHU
Wavelength Range: TIR
Origin: Kiglapait Intrusion, Labrador via Trude King #KI4143(obtained from S.A. Morse, Univ. of Mass.)
Description: Initially, the specimen was contaminated with pyroxene, spinel (?) and ilmenite.  Heavy liquid separation, followed by magnetic separation and hand picking, allowed olivines of different iron content to be solated.  The sample was ground to <60 micrometers and wet sieved.  Fine particles are missing from the sample; average particle size is close to 60 micrometers. Particle size was Less than 2 Micrometers. (Isolated tetrahedra); (Olivine Group) Original ASTER Spectral Library name was jhu.nicolet.mineral.silicate.nesosilicate.powder.olivin4.spectrum.txt
Measurement: Transmission
X Units: Wavelength (micrometers)
Y Units: Transmittance (percent)
wavelength	value
25.0442	52.1483
24.3388	58.5663
23.6719	59.4881
23.0407	63.5858
22.4422	65.4783
21.8741	63.5174
21.334	54.9237
20.8199	40.5897
20.33	39.9647
19.8627	41.5048
19.4163	41.4501
18.9896	45.2938
18.5812	56.4686
18.19	64.4198
17.815	64.1248
17.4551	54.1131
17.1094	53.3182
16.7772	62.2596
16.4576	74.1014
16.15	82.6951
15.8537	87.1375
15.568	89.2976
15.2925	90.6541
15.0265	91.492
14.7697	91.5476
14.5214	91.367
14.2814	91.031
14.0492	90.4724
13.8244	89.4436
13.6067	88.531
13.3957	87.01
13.1912	85.0388
12.9929	82.4549
12.8004	78.9768
12.6135	74.8167
12.432	68.7015
12.2557	59.3441
12.0843	43.6083
11.9176	45.4984
11.7555	36.9867
11.5977	25.7031
11.444	16.3183
11.2944	16.2548
11.1487	20.7568
11.0067	25.145
10.8682	29.9609
10.7332	30.5585
10.6015	43.5316
10.473	30.1156
10.3476	29.7426
10.2251	32.4823
10.1056	38.4662
9.9887	47.847
9.8746	57.4193
9.763	65.3021
9.6539	71.0472
9.5472	75.115
9.4429	77.9827
9.3408	80.3831
9.2409	82.3601
9.1431	84.2371
9.0474	86.2097
8.9536	87.7268
8.8618	89.0213
8.7718	89.9221
8.6837	90.742
8.5973	91.4775
8.5126	92.4404
8.4295	93.3679
8.3481	94.0508
8.2682	94.7
8.1898	95.2559
8.1129	95.6628
8.0374	95.9238
7.9634	96.1746
7.8906	96.3389
7.8192	96.4307
7.7491	96.501
7.6802	96.5566
7.6126	96.6182
7.5461	96.7109
7.4807	96.8994
7.4165	96.915
7.3534	96.908
7.2914	96.8884
7.2303	96.6536
7.1703	96.7812
7.1113	96.6067
7.0533	96.4658
6.9962	95.6768
6.94	94.6846
6.8847	94.9675
6.8302	95.5642
6.7767	95.7986
6.7239	95.9753
6.672	96.1448
6.6209	96.1719
6.5705	96.2559
6.5209	95.8845
6.4721	95.5554
6.424	95.2156
6.3766	94.6289
6.3299	93.8416
6.2838	92.8826
6.2385	91.4209
6.1937	90.1809
6.1496	89.5059
6.1062	90.7097
6.0633	90.8074
6.0211	88.9314
5.9794	88.6072
5.9383	90.5925
5.8978	92.4336
5.8578	93.1475
5.8184	93.573
5.7794	93.2859
5.741	93.1336
5.7031	92.9541
5.6657	92.8965
5.6288	92.8894
5.5924	92.8547
5.5564	92.7551
5.5209	92.6836
5.4859	92.5869
5.4513	92.5559
5.4171	92.5032
5.3833	92.3594
5.35	92.2976
5.3171	92.1963
5.2846	92.1397
5.2524	92.1152
5.2207	92.0127
5.1893	91.8565
5.1584	91.7517
5.1277	91.6394
5.0975	91.4981
5.0676	91.4026
5.038	91.3308
5.0088	91.25
4.98	91.1453
4.9514	91.075
4.9232	90.9695
4.8953	90.8347
4.8678	90.7415
4.8405	90.6043
4.8135	90.4602
4.7868	90.3464
4.7605	90.2117
4.7344	90.0628
4.7086	89.9041
4.6831	89.7947
4.6578	89.6531
4.6328	89.5427
4.6081	89.3884
4.5837	89.2376
4.5595	89.1482
4.5356	88.9754
4.5119	88.8382
4.4884	88.7224
4.4652	88.5525
4.4423	88.4744
4.4196	88.3377
4.3971	88.1902
4.3748	88.0623
4.3528	87.9319
4.331	87.8133
4.3094	87.6956
4.288	87.5335
4.2668	87.4158
4.2458	87.3401
4.2251	87.1878
4.2045	87.0198
4.1841	86.908
4.164	86.7962
4.144	86.6428
4.1242	86.5135
4.1046	86.3709
4.0852	86.2234
4.066	86.0584
4.047	85.926
4.0281	85.824
4.0094	85.657
3.9909	85.5457
3.9725	85.3577
3.9544	85.2224
3.9363	85.0818
3.9185	84.949
3.9008	84.7801
3.8833	84.6507
3.8659	84.5125
3.8487	84.3601
3.8316	84.2195
3.8147	84.0804
3.7979	83.95
3.7813	83.7698
3.7648	83.6306
3.7485	83.4617
3.7323	83.368
3.7162	83.1702
3.7003	83.076
3.6845	82.9783
3.6689	82.7576
3.6534	82.7234
3.638	82.4881
3.6227	82.3445
3.6076	82.2058
3.5926	82.0804
3.5777	81.9007
3.563	81.7234
3.5484	81.6033
3.5338	81.4222
3.5195	81.3772
3.5052	81.178
3.491	81.0486
3.477	80.8846
3.463	80.8323
3.4492	80.6072
3.4355	80.4588
3.4219	80.2889
3.4084	80.1233
3.395	80.0232
3.3817	79.8421
3.3685	79.7132
3.3554	79.5408
3.3425	79.4051
3.3296	79.2366
3.3168	79.1189
3.3041	78.9861
3.2915	78.8338
3.279	78.6839
3.2666	78.555
3.2543	78.3631
3.2421	78.2088
3.23	78.0198
3.218	77.8748
3.206	77.699
3.1942	77.5076
3.1824	77.3084
3.1707	77.1453
3.1591	76.908
3.1476	76.6434
3.1362	76.2859
3.1249	75.9305
3.1136	75.8514
3.1024	75.8602
3.0913	75.7947
3.0803	75.5643
3.0694	75.3074
3.0585	75.2078
3.0477	75.1463
3.037	75.0408
3.0264	74.7537
3.0158	74.3904
3.0053	74.1336
2.9949	74.0408
2.9845	74.0232
2.9743	74.0057
2.9641	74.0906
2.9539	74.0213
2.9439	73.9549
2.9339	73.7742
2.9239	73.7156
2.9141	73.615
2.9043	73.6795
2.8946	73.7635
2.8849	73.9266
2.8753	74.0486
2.8658	74.0857
2.8563	74.2674
2.8469	74.2693
2.8375	74.368
2.8282	74.3338
2.819	74.3279
2.8098	74.1961
2.8007	74.2713
2.7917	74.0838
2.7827	74.1414
2.7738	74.0906
2.7649	73.9266
2.7561	73.9647
2.7473	73.9148
2.7386	74.0818
2.7299	73.824
2.7213	74.0438
2.7128	73.8797
2.7043	73.8436
2.6959	73.7693
2.6875	73.7195
2.6791	73.8318
2.6709	73.8758
2.6626	73.4686
2.6545	73.5281
2.6463	73.3865
2.6382	73.325
2.6302	73.5076
2.6222	73.2654
2.6143	73.1365
2.6064	73.2244
2.5986	73.035
2.5908	72.9842
2.583	73.0584
2.5753	72.9022
2.5677	72.7889
2.5601	72.7811
2.5525	72.6678
2.545	72.6639
2.5375	72.6404
2.5301	72.5721
2.5227	72.5096
2.5154	72.5662
2.5081	72.4373
2.5008	72.5311
2.4936	72.4393
2.4864	72.2596
2.4793	72.1795
2.4722	72.2283
2.4651	72.1873
2.4581	72.1111
2.4511	72.0096
2.4442	71.9647
2.4373	72.0018
2.4305	71.8787
2.4236	71.7303
2.4169	71.8397
2.4101	71.7967
2.4034	71.7733
2.3967	71.5858
2.3901	71.658
2.3835	71.5154
2.377	71.4393
2.3704	71.4451
2.364	71.3826
2.3575	71.4236
2.3511	71.3768
2.3447	71.119
2.3384	71.2361
2.3321	71.2615
2.3258	71.1404
2.3195	70.9686
2.3133	70.8787
2.3071	71.0545
2.301	70.8143
2.2949	70.7733
2.2888	70.7889
2.2828	70.6111
2.2767	70.6248
2.2708	70.4178
2.2648	70.2811
2.2589	70.285
2.253	70.492
2.2471	70.2615
2.2413	70.1678
2.2355	70.1951
2.2297	70.0623
2.224	70.0662
2.2183	69.7889
2.2126	70.1248
2.207	69.7654
2.2013	69.5701
2.1957	69.4295
2.1902	69.6561
2.1846	69.4139
2.1791	69.1912
2.1736	69.3826
2.1682	69.1522
2.1628	69.5037
2.1574	68.8006
2.152	69.0936
2.1466	68.8436
2.1413	68.6912
2.136	68.8006
2.1308	68.5858
2.1255	68.535
2.1203	68.535
2.1151	68.6639
2.11	68.4256
2.1048	68.1483
2.0997	68.1912
2.0946	68.2733
2.0895	67.9881
2.0845	67.953
2.0795	67.9569
