Name: Monticellite CaMgSiO4
Type: Mineral
Class: Silicate
Subclass: Nesosilicate
Particle Size: Fine
Sample No.: monticell_1
Owner: JHU
Wavelength Range: TIR
Origin: Magnet Cove, Arkansas via the Smithsonian (NMNH 79051-1)
Description: The sample was composed of one large fragment and two smaller ones, all from the same crystal.  The large fragment was 1 cm in diameter and 2.5 cm long, with the other pieces half as large.  Total weight was 7.5 g.  The sample was tan in color, with abundant (10-20%) calcite. Petrographic examination showed minor (<1%) alteration to green antigorite and a few opaque grains. Particle size was Less than 2 Micrometers.(Isolated tetrahedra); (OlivineGroup) Original ASTER Spectral Library name was jhu.nicolet.mineral.silicate.nesosilicate.powder.montic1.spectrum.txt
Measurement: Transmission
X Units: Wavelength (micrometers)
Y Units: Transmittance (percent)
wavelength	value
25.0442	51.2967
24.3388	42.8436
23.6719	36.9062
23.0407	35.5819
22.4422	41.3847
21.8741	53.3592
21.334	47.0643
20.8199	41.7343
20.33	45.3768
19.8627	40.9022
19.4163	33.0312
18.9896	36.1298
18.5812	44.1561
18.19	59.5545
17.815	67.5399
17.4551	66.574
17.1094	51.2782
16.7772	44.7577
16.4576	60.4735
16.15	73.4969
15.8537	80.3475
15.568	84.6111
15.2925	87.6297
15.0265	89.1306
14.7697	90.6658
14.5214	90.6355
14.2814	90.5095
14.0492	89.5642
13.8244	88.5945
13.6067	87.8133
13.3957	86.2185
13.1912	84.4456
12.9929	82.0686
12.8004	78.4729
12.6135	75.1795
12.432	70.4886
12.2557	63.7132
12.0843	47.3143
11.9176	60.867
11.7555	49.7616
11.5977	36.2128
11.444	20.1957
11.2944	10.9438
11.1487	14.6054
11.0067	18.5195
10.8682	24.934
10.7332	32.7485
10.6015	31.9164
10.473	36.4848
10.3476	26.54
10.2251	23.1606
10.1056	26.5117
9.9887	35.3437
9.8746	43.4735
9.763	48.3759
9.6539	51.3519
9.5472	53.2445
9.4429	54.8324
9.3408	56.245
9.2409	57.9925
9.1431	59.3094
9.0474	63.117
8.9536	67.8983
8.8618	71.326
8.7718	73.119
8.6837	74.7566
8.5973	76.2117
8.5126	77.991
8.4295	79.7459
8.3481	81.45
8.2682	83.292
8.1898	85.033
8.1129	86.8848
8.0374	88.9285
7.9634	91.1238
7.8906	92.5859
7.8192	93.4026
7.7491	93.8272
7.6802	94.1738
7.6126	94.7666
7.5461	95.1543
7.4807	95.408
7.4165	95.5681
7.3534	95.7449
7.2914	95.7703
7.2303	95.6882
7.1703	95.1794
7.1113	94.7341
7.0533	94.2068
6.9962	93.7019
6.94	92.3535
6.8847	91.7683
6.8302	91.6631
6.7767	91.0088
6.7239	91.5173
6.672	92.655
6.6209	93.9053
6.5705	94.5046
6.5209	95.0801
6.4721	95.366
6.424	95.0352
6.3766	94.5955
6.3299	93.3357
6.2838	91.8926
6.2385	90.5886
6.1937	88.0984
6.1496	85.8692
6.1062	86.9207
6.0633	87.0984
6.0211	85.7234
5.9794	86.8367
5.9383	90.669
5.8978	94.0022
5.8578	96.2666
5.8184	96.7686
5.7794	97.1162
5.741	97.1672
5.7031	96.8987
5.6657	96.9463
5.6288	97.2891
5.5924	97.4756
5.5564	97.4607
5.5209	97.5303
5.4859	97.6885
5.4513	97.7976
5.4171	97.7888
5.3833	97.9111
5.35	97.8747
5.3171	97.9014
5.2846	97.9353
5.2524	98.0613
5.2207	98.1282
5.1893	98.1055
5.1584	98.1064
5.1277	98.156
5.0975	98.0508
5.0676	97.9656
5.038	97.8718
5.0088	97.9285
4.98	98.0793
4.9514	98.1702
4.9232	98.2087
4.8953	98.1804
4.8678	98.2165
4.8405	98.2097
4.8135	98.0969
4.7868	98.1287
4.7605	98.1062
4.7344	98.0959
4.7086	98.0598
4.6831	98.029
4.6578	98.0207
4.6328	97.9773
4.6081	97.9973
4.5837	97.9397
4.5595	97.8811
4.5356	97.8972
4.5119	97.782
4.4884	97.7966
4.4652	97.7493
4.4423	97.6921
4.4196	97.7165
4.3971	97.7507
4.3748	97.6511
4.3528	97.5745
4.331	97.5901
4.3094	97.5105
4.288	97.3694
4.2668	97.3542
4.2458	97.2649
4.2251	97.2664
4.2045	97.4407
4.1841	97.406
4.164	97.3684
4.144	97.3601
4.1242	97.2639
4.1046	97.366
4.0852	97.2273
4.066	97.1404
4.047	97.0862
4.0281	97.1111
4.0094	97.0349
3.9909	96.9065
3.9725	96.9021
3.9544	96.908
3.9363	96.8206
3.9185	96.8694
3.9008	96.8186
3.8833	96.6472
3.8659	96.5691
3.8487	96.5178
3.8316	96.301
3.8147	96.4221
3.7979	96.2698
3.7813	96.3201
3.7648	96.24
3.7485	96.1482
3.7323	96.0398
3.7162	96.0251
3.7003	95.8616
3.6845	95.8948
3.6689	95.7678
3.6534	95.7678
3.638	95.7307
3.6227	95.5525
3.6076	95.4646
3.5926	95.3103
3.5777	95.3806
3.563	95.2854
3.5484	95.1702
3.5338	95.1741
3.5195	95.2502
3.5052	95.0837
3.491	95.1423
3.477	95.0652
3.463	95.074
3.4492	95.051
3.4355	94.8577
3.4219	94.6326
3.4084	94.4197
3.395	94.3474
3.3817	94.1462
3.3685	93.9729
3.3554	93.7068
3.3425	93.572
3.3296	93.4529
3.3168	93.2888
3.3041	93.1814
3.2915	93.0393
3.279	92.8108
3.2666	92.7151
3.2543	92.592
3.2421	92.3557
3.23	92.1526
3.218	91.9451
3.206	91.5584
3.1942	91.3914
3.1824	91.1814
3.1707	90.7839
3.1591	90.4148
3.1476	89.7761
3.1362	89.2713
3.1249	88.698
3.1136	88.5115
3.1024	88.365
3.0913	88.2927
3.0803	87.8904
3.0694	87.5974
3.0585	87.3904
3.0477	87.3006
3.037	86.9851
3.0264	86.2791
3.0158	85.5271
3.0053	84.6248
2.9949	83.826
2.9845	83.1795
2.9743	82.4099
2.9641	81.2898
2.9539	80.3455
2.9439	79.6834
2.9339	79.2205
2.9239	78.6873
2.9141	78.4529
2.9043	78.7283
2.8946	78.9685
2.8849	79.3289
2.8753	79.8221
2.8658	80.4353
2.8563	81.4295
2.8469	82.4695
2.8375	83.4617
2.8282	84.1873
2.819	84.7615
2.8098	85.3045
2.8007	85.6072
2.7917	86.2322
2.7827	86.8748
2.7738	87.2888
2.7649	87.7029
2.7561	88.3201
2.7473	88.6931
2.7386	88.574
2.7299	89.0545
2.7213	88.8367
2.7128	86.8054
2.7043	88.0916
2.6959	90.0398
2.6875	90.7048
2.6791	90.8943
2.6709	91.0554
2.6626	90.8748
2.6545	90.8562
2.6463	91.0115
2.6382	90.9646
2.6302	90.7576
2.6222	90.6365
2.6143	90.7273
2.6064	90.5007
2.5986	90.5154
2.5908	90.7673
2.583	90.4724
2.5753	90.3689
2.5677	90.2224
2.5601	90.0877
2.5525	90.2478
2.545	90.2478
2.5375	90.2205
2.5301	89.9763
2.5227	89.947
2.5154	89.7517
2.5081	89.7888
2.5008	89.9705
2.4936	89.7693
2.4864	89.6951
2.4793	89.6365
2.4722	89.4451
2.4651	89.5857
2.4581	89.6756
2.4511	89.406
2.4442	89.3631
2.4373	89.0701
2.4305	89.322
2.4236	89.3474
2.4169	89.2849
2.4101	89.4002
2.4034	88.9256
2.3967	88.8924
2.3901	88.9373
2.3835	88.8123
2.377	88.9236
2.3704	88.7224
2.364	88.8279
2.3575	88.5779
2.3511	88.533
2.3447	88.6658
2.3384	88.4392
2.3321	88.4138
2.3258	88.4216
2.3195	87.9627
2.3133	88.3396
2.3071	88.324
2.301	88.2595
2.2949	87.8845
2.2888	88.0935
2.2828	88.117
2.2767	88.1658
2.2708	88.3045
2.2648	87.9627
2.2589	87.5779
2.253	87.9392
2.2471	87.8826
2.2413	87.9295
2.2355	87.572
2.2297	87.8201
2.224	87.572
2.2183	87.4451
2.2126	87.5467
2.207	87.533
2.2013	87.2986
2.1957	87.5506
2.1902	87.7068
2.1846	87.2576
2.1791	87.1287
2.1736	87.1209
2.1682	87.2615
2.1628	87.3396
2.1574	87.031
2.152	86.8396
2.1466	87.3201
2.1413	86.617
2.136	86.7888
2.1308	87.0076
2.1255	87.2185
2.1203	87.0349
2.1151	86.9373
2.11	86.6092
2.1048	86.8787
2.0997	86.8513
2.0946	86.9256
2.0895	86.5076
2.0845	86.9138
2.0795	86.8357
