Name: Hemimorphite Zn4Si2O7(OH)2.H2O
Type: Mineral
Class: Silicate
Subclass: Sorosilicate
Particle Size: Solid
Sample No.: hemimor_1
Owner: JHU
Wavelength Range: TIR
Origin: Mapimi, Durango, Mexico via the Smithsonian (sampleno.NMNH 161931).
Description: The sample consisted of two white, translucent fragments about 1 cm long.  One fragment had some iron staining which was removed by picking.  Microscopic examination indicated a pure and unaltered sample.(Two isolated tetrahydra). Sample had 010 crystal face. Original ASTER Spectral Library name was jhu.nicolet.mineral.silicate.sorosilicate.solid.hemimo1.spectrum.txt
Measurement: Bidirectional reflectance
X Units: Wavelength (micrometers)
Y Units: Reflectance (percent)
wavelength	value
25.0442	16.6289
24.3388	15.7431
23.6719	17.0752
23.0407	17.0019
22.4422	17.4238
21.8741	21.9843
21.334	13.9726
20.8199	16.1196
20.33	17.102
19.8627	17.8115
19.4163	18.4165
18.9896	19.0727
18.5812	19.5947
18.19	21.0246
17.815	29.5529
17.4551	32.3507
17.1094	30.3412
16.7772	30.3058
16.4576	31.8227
16.15	29.9289
15.8537	19.4501
15.568	9.6621
15.2925	9.7265
15.0265	11.3237
14.7697	16.038
14.5214	16.4748
14.2814	15.0542
14.0492	14.9604
13.8244	15.1965
13.6067	15.4668
13.3957	15.7727
13.1912	16.1235
12.9929	16.5468
12.8004	16.8459
12.6135	17.2172
12.432	17.6355
12.2557	18.0651
12.0843	18.5944
11.9176	19.2773
11.7555	20.2568
11.5977	22.0461
11.444	24.8464
11.2944	22.9243
11.1487	20.3906
11.0067	23.6503
10.8682	30.3573
10.7332	44.6058
10.6015	43.9052
10.473	46.0668
10.3476	52.7489
10.2251	54.3827
10.1056	53.1395
9.9887	49.0033
9.8746	41.589
9.763	34.6698
9.6539	25.8674
9.5472	15.1411
9.4429	9.8012
9.3408	11.385
9.2409	13.6533
9.1431	16.9672
9.0474	21.4038
8.9536	26.4401
8.8618	25.132
8.7718	17.1772
8.6837	9.4231
8.5973	8.9275
8.5126	9.5874
8.4295	10.3501
8.3481	10.9795
8.2682	11.4177
8.1898	11.7446
8.1129	12.0149
8.0374	12.2829
7.9634	12.521
7.8906	12.7251
7.8192	12.9035
7.7491	13.0642
7.6802	13.2077
7.6126	13.3852
7.5461	13.4758
7.4807	13.5993
7.4165	13.6892
7.3534	13.8354
7.2914	13.9375
7.2303	13.9846
7.1703	14.2148
7.1113	14.2229
7.0533	14.4375
6.9962	14.4663
6.94	14.4826
6.8847	14.6281
6.8302	14.7356
6.7767	15.02
6.7239	15.0073
6.672	15.2695
6.6209	15.4228
6.5705	15.79
6.5209	15.4929
6.4721	15.624
6.424	15.5546
6.3766	15.2981
6.3299	15.2548
6.2838	15.226
6.2385	15.2475
6.1937	15.1931
6.1496	15.2055
6.1062	16.4336
6.0633	16.164
6.0211	15.6313
5.9794	15.8462
5.9383	16.0009
5.8978	15.8344
5.8578	15.915
5.8184	16.1125
5.7794	15.8022
5.741	15.9206
5.7031	15.8669
5.6657	15.8286
5.6288	15.9423
5.5924	15.8601
5.5564	16
5.5209	16.0087
5.4859	15.958
5.4513	15.9961
5.4171	16.2282
5.3833	15.9975
5.35	16.2744
5.3171	15.9987
5.2846	16.0607
5.2524	16.0207
5.2207	15.9997
5.1893	16.0207
5.1584	16.0263
5.1277	16.0283
5.0975	16.0363
5.0676	16.0175
5.038	16.0048
5.0088	16.0109
4.98	16.0346
4.9514	16.0546
4.9232	16.0107
4.8953	16.059
4.8678	16.0612
4.8405	16.1137
4.8135	16.1079
4.7868	16.1157
4.7605	16.1464
4.7344	16.1621
4.7086	16.1967
4.6831	16.2036
4.6578	16.2375
4.6328	16.2714
4.6081	16.2961
4.5837	16.3198
4.5595	16.3374
4.5356	16.3559
4.5119	16.3696
4.4884	16.3825
4.4652	16.4206
4.4423	16.4375
4.4196	16.4731
4.3971	16.4848
4.3748	16.5014
4.3528	16.5976
4.331	16.7399
4.3094	16.9697
4.288	17.3012
4.2668	17.4404
4.2458	17.5805
4.2251	17.6728
4.2045	16.8537
4.1841	16.5659
4.164	16.5903
4.144	16.6084
4.1242	16.6369
4.1046	16.644
4.0852	16.6562
4.066	16.6982
4.047	16.7094
4.0281	16.726
4.0094	16.7544
3.9909	16.7666
3.9725	16.8125
3.9544	16.8283
3.9363	16.8393
3.9185	16.8388
3.9008	16.8579
3.8833	16.8676
3.8659	16.8669
3.8487	16.8574
3.8316	16.8681
3.8147	16.8662
3.7979	16.8642
3.7813	16.8608
3.7648	16.8496
3.7485	16.8676
3.7323	16.8466
3.7162	16.8515
3.7003	16.8388
3.6845	16.8427
3.6689	16.8457
3.6534	16.8442
3.638	16.8481
3.6227	16.8544
3.6076	16.8388
3.5926	16.8422
3.5777	16.8613
3.563	16.8667
3.5484	16.8671
3.5338	16.8837
3.5195	16.8674
3.5052	16.8588
3.491	16.8659
3.477	16.8686
3.463	16.8718
3.4492	16.873
3.4355	16.8549
3.4219	16.8742
3.4084	16.841
3.395	16.8088
3.3817	16.8203
3.3685	16.7985
3.3554	16.7793
3.3425	16.75
3.3296	16.7412
3.3168	16.7475
3.3041	16.7297
3.2915	16.7395
3.279	16.7263
3.2666	16.7082
3.2543	16.7109
3.2421	16.6967
3.23	16.7561
3.218	16.7304
3.206	16.7363
3.1942	16.7246
3.1824	16.7251
3.1707	16.7141
3.1591	16.728
3.1476	16.7651
3.1362	16.7482
3.1249	16.7783
3.1136	16.7912
3.1024	16.7944
3.0913	16.7815
3.0803	16.8574
3.0694	16.8205
3.0585	16.7883
3.0477	16.8222
3.037	16.8271
3.0264	16.8354
3.0158	16.8193
3.0053	16.8515
2.9949	16.8647
2.9845	16.841
2.9743	16.936
2.9641	16.9182
2.9539	16.9804
2.9439	16.9953
2.9339	17.0246
2.9239	17.0991
2.9141	17.1074
2.9043	17.1955
2.8946	17.1259
2.8849	17.0969
2.8753	17.0141
2.8658	17.0214
2.8563	16.8857
2.8469	16.8115
2.8375	16.913
2.8282	16.643
2.819	16.768
2.8098	16.4257
2.8007	16.5102
2.7917	16.2773
2.7827	16.288
2.7738	16.0991
2.7649	16.1762
2.7561	16.1923
2.7473	15.7168
2.7386	16.5839
2.7299	15.7255
2.7213	16.1543
2.7128	15.916
2.7043	15.9829
2.6959	16.1777
2.6875	16.164
2.6791	16.4336
2.6709	16.4853
2.6626	16.2602
2.6545	16.2558
2.6463	16.1762
2.6382	16.0478
2.6302	16.9687
2.6222	16.1406
2.6143	16.375
2.6064	16.6455
2.5986	16.1054
2.5908	16.2348
2.583	16.7558
2.5753	16.4848
2.5677	16.3813
2.5601	16.6328
2.5525	16.3501
2.545	16.2114
2.5375	16.1836
2.5301	16.2412
2.5227	16.2011
2.5154	16.2461
2.5081	16.2021
2.5008	16.1943
2.4936	16.2783
2.4864	16.2348
2.4793	16.2133
2.4722	16.2524
2.4651	16.2714
2.4581	16.2226
2.4511	16.2192
2.4442	16.2387
2.4373	16.2314
2.4305	16.2661
2.4236	16.2519
2.4169	16.3007
2.4101	16.3286
2.4034	16.3476
2.3967	16.3574
2.3901	16.3476
2.3835	16.3051
2.377	16.3735
2.3704	16.3657
2.364	16.4633
2.3575	16.4511
2.3511	16.4912
2.3447	16.5322
2.3384	16.5459
2.3321	16.5625
2.3258	16.6191
2.3195	16.6894
2.3133	16.6162
2.3071	16.6425
2.301	16.6191
2.2949	16.625
2.2888	16.665
2.2828	16.6953
2.2767	16.7002
2.2708	16.7519
2.2648	16.7128
2.2589	16.7519
2.253	16.7294
2.2471	16.8164
2.2413	16.7968
2.2355	16.7656
2.2297	16.7793
2.224	16.8525
2.2183	16.7597
2.2126	16.8711
2.207	16.8496
2.2013	16.8252
2.1957	16.914
2.1902	16.9218
2.1846	17.0234
2.1791	17.0097
2.1736	16.955
2.1682	17.0488
2.1628	17.1132
2.1574	17.0234
2.152	17.1523
2.1466	17.1298
2.1413	17.1933
2.136	17.1611
2.1308	17.1777
2.1255	17.1914
2.1203	17.2089
2.1151	17.2109
2.11	17.2627
2.1048	17.2109
2.0997	17.2929
2.0946	17.3515
2.0895	17.2285
2.0845	17.4033
2.0795	17.33
