Name: Bloedite Na2Mg(So4)2 * 3H2O
Type: Mineral
Class: Sulfate
Subclass: None
Particle Size: Coarse
Sample No.: GDS147
Owner: USGS
Wavelength Range: All
Origin: Soda Lake, California
Description: Bloedite powder from Soda Lake, CaliforniaSample was Unsieved coarse powder. Original ASTER Spectral Library name was usgs.perknic.mineral.sulfate.none.coarse.bloedic.spectrum.txt
Measurement: Directional Hemispherical Reflectance
X Units: Wavelength (micrometers)
Y Units: Reflectance (percent)
wavelength	value
13.9	1.875
13.644	1.627
13.398	1.597
13.16	1.318
12.93	1.288
12.708	1.246
12.494	1.514
12.287	1.514
12.086	1.586
11.892	1.627
11.704	1.318
11.522	1.236
11.346	1.308
11.175	1.391
11.009	1.597
10.848	1.813
10.691	2.153
10.539	2.266
10.391	2.554
10.247	2.637
10.108	2.719
9.972	2.338
9.839	2.894
9.71	3.08
9.585	3.378
9.462	3.739
9.343	4.583
9.226	6.087
9.113	8.302
9.002	9.63
8.894	10.537
8.789	8.219
8.686	11.804
8.585	13.987
8.487	13.163
8.391	12.113
8.297	7.612
8.205	1.947
8.115	0.494
8.027	0.371
7.941	0.33
7.857	0.371
7.774	0.453
7.694	0.608
7.614	0.721
7.537	0.875
7.461	0.968
7.387	1.081
7.314	1.185
7.242	1.164
7.172	1.257
7.103	1.36
7.036	1.339
6.97	1.339
6.905	1.421
6.841	1.401
6.778	1.545
6.717	1.463
6.657	1.535
6.597	1.545
6.539	1.483
6.482	1.463
6.426	1.38
6.37	1.339
6.316	1.277
6.263	1.36
6.21	1.298
6.159	1.401
6.108	1.473
6.058	1.329
6.009	1.267
5.96	1.112
5.913	1.009
5.866	1.04
5.82	1.411
5.775	1.566
5.73	1.586
5.686	1.658
5.643	1.669
5.6	1.802
5.558	2.07
5.517	2.369
5.476	2.75
5.436	2.956
5.396	3.152
5.357	3.337
5.319	3.45
5.281	3.667
5.243	3.842
5.206	3.955
5.17	3.986
5.134	4.11
5.099	4.089
5.064	3.976
5.03	3.698
4.996	4.048
4.962	3.986
4.929	3.821
4.897	3.533
4.865	3.162
4.833	2.853
4.802	2.719
4.771	2.657
4.74	2.575
4.71	2.585
4.68	2.678
4.651	2.688
4.622	2.657
4.593	2.616
4.565	2.627
4.537	2.843
4.509	2.884
4.482	2.905
4.455	2.884
4.428	2.997
4.402	3.028
4.376	3.008
4.35	3.069
4.325	3.069
4.3	3.162
4.275	3.275
4.251	3.265
4.226	3.564
4.202	3.667
4.179	3.852
4.155	4.007
4.132	4.274
4.109	4.285
4.086	4.594
4.064	4.707
4.042	4.79
4.02	4.965
3.998	5.078
3.977	5.088
3.956	5.14
3.935	5.212
3.914	5.16
3.893	5.253
3.873	5.15
3.853	5.068
3.833	5.006
3.813	4.717
3.794	4.563
3.774	4.511
3.755	4.501
3.736	4.46
3.717	4.439
3.699	4.285
3.68	4.12
3.662	3.945
3.644	3.749
3.626	3.584
3.609	3.43
3.591	3.337
3.574	3.172
3.557	2.956
3.54	2.884
3.523	2.678
3.506	2.637
3.49	2.451
3.473	2.317
3.457	2.101
3.441	2.142
3.425	1.998
3.409	1.885
3.394	1.926
3.378	1.854
3.363	1.802
3.348	1.741
3.333	1.617
3.318	1.607
3.303	1.617
3.288	1.72
3.274	1.627
3.259	1.617
3.245	1.627
3.231	1.555
3.217	1.638
3.203	1.607
3.189	1.689
3.176	1.638
3.162	1.494
3.149	1.432
3.135	1.452
3.122	1.277
3.109	1.277
3.096	1.154
3.083	1.081
3.07	1.051
3.058	1.112
3.045	1.04
3.033	1.061
3.02	0.958
3.008	1.092
2.996	1.03
2.984	0.937
2.972	1.081
2.96	0.917
2.948	0.927
2.937	0.886
2.925	0.834
2.913	0.979
2.902	0.783
2.891	0.968
2.879	0.793
2.868	0.772
2.857	0.7
2.846	0.762
2.835	0.567
2.825	0.68
2.814	0.803
2.803	0.979
2.793	0.845
2.782	1.246
2.772	1.318
2.761	1.751
2.751	1.967
2.741	2.534
2.731	2.936
2.721	3.574
2.711	4.161
2.701	4.429
2.691	4.851
2.681	5.222
2.672	5.521
2.662	5.727
2.653	5.871
2.643	6.19
2.634	6.231
2.624	6.335
2.615	6.005
2.606	6.262
2.597	6.324
2.588	6.355
2.579	6.159
2.57	6.201
2.561	5.624
2.552	6.18
2.543	6.17
2.535	6.376
2.526	6.448
2.517	7.056
2.509	7.231
2.5	7.395
2.486	7.052
2.472	7.419
2.458	6.91
2.444	6.529
2.43	6.719
2.416	7.565
2.402	8.707
2.388	9.86
2.374	10.849
2.36	12.023
2.346	13.479
2.332	14.888
2.318	16.08
2.304	17.08
2.29	18.046
2.276	18.783
2.262	19.286
2.248	19.546
2.234	19.615
2.22	19.516
2.206	19.201
2.192	18.992
2.178	18.403
2.164	17.771
2.15	16.678
2.136	15.547
2.122	14.497
2.108	13.589
2.094	13.331
2.08	13.275
2.066	13.443
2.052	13.364
2.038	13.014
2.024	12.325
2.01	11.668
1.996	11.04
1.982	10.656
1.968	10.639
1.954	10.351
1.94	11.421
1.926	13.605
1.912	16.523
1.898	19.62
1.884	21.688
1.87	23.127
1.856	23.349
1.842	22.927
1.828	22.226
1.814	21.467
1.8	20.81
1.786	20.701
1.772	20.606
1.758	20.589
1.744	20.263
1.73	19.918
1.716	19.913
1.702	19.921
1.688	19.919
1.674	20.142
1.66	20.563
1.646	20.841
1.632	21.32
1.618	21.639
1.604	22.183
1.59	22.672
1.576	23.024
1.562	22.706
1.548	22.656
1.534	22.712
1.52	22.477
1.506	22.123
1.492	21.847
1.478	21.609
1.464	21.915
1.45	23.912
1.436	28.404
1.422	32.795
1.408	35.398
1.394	36.788
1.38	37.509
1.366	37.969
1.352	38.873
1.338	39.693
1.324	40.463
1.31	40.926
1.296	40.83
1.282	40.755
1.268	40.649
1.254	40.549
1.24	40.48
1.226	40.563
1.212	40.44
1.198	40.533
1.184	40.494
1.17	41.454
1.156	42.167
1.142	42.42
1.128	42.323
1.114	42.387
1.1	42.224
1.086	42.141
1.072	41.959
1.058	41.894
1.044	41.729
1.03	41.558
1.016	41.183
1.002	41.059
0.988	41.04
0.974	41.325
0.96	41.4
0.946	41.364
0.932	41.111
0.918	41.134
0.904	41.006
0.89	41.148
0.876	41.032
0.862	41
0.848	41.28
0.834	41.186
0.82	41.03
0.806	40.785
0.792	40.574
0.778	40.354
0.764	40.113
0.75	39.884
0.736	39.682
0.722	39.496
0.708	39.339
0.694	39.128
0.68	39.013
0.666	38.831
0.652	38.726
0.638	38.574
0.624	38.409
0.61	38.232
0.596	38.023
0.582	37.823
0.568	37.563
0.554	37.256
0.54	36.967
0.526	36.65
0.512	36.259
0.498	35.836
0.484	35.447
0.47	35.019
0.456	34.507
0.442	33.87
0.428	33.157
0.414	32.403
0.4	31.658
