Name: Anhydrite CaSO4
Type: Mineral
Class: Sulfate
Subclass: None
Particle Size: Coarse
Sample No.: anhydrite_1
Owner: JHU
Wavelength Range: TIR
Origin: Sample from Champo, Isere, France, via the Smithsonian(sample no. NMNH 46393).
Description: The sample was a 3 cm x 3 cm x 4 cm, white, granular mass weighing 30 g.  One surface was stained and this material was discarded after crushing.  Microscopic examination indicated pure anhydrite. Particle size was 75-250 Micrometers. Original ASTER Spectral Library name was jhu.nicolet.mineral.sulfate.none.coarse.anhyd1.spectrum.txt
Measurement: Bidirectional reflectance
X Units: Wavelength (micrometers)
Y Units: Reflectance (percent)
wavelength	value
25.0442	0.4619
24.3388	0.2222
23.6719	0.4612
23.0407	0.4619
22.4422	0.6809
21.8741	0.5942
21.334	0.7009
20.8199	0.6135
20.33	0.6716
19.8627	0.634
19.4163	0.5701
18.9896	0.9353
18.5812	1.0742
18.19	1.1287
17.815	1.093
17.4551	0.968
17.1094	0.852
16.7772	1.3508
16.4576	0.9556
16.15	0.9839
15.8537	0.5571
15.568	0.4521
15.2925	0.5041
15.0265	0.6067
14.7697	1.0271
14.5214	1.1584
14.2814	0.8835
14.0492	0.3567
13.8244	0.4849
13.6067	0.4785
13.3957	0.4675
13.1912	0.5928
12.9929	0.6521
12.8004	0.791
12.6135	0.9377
12.432	0.9243
12.2557	0.8833
12.0843	0.7624
11.9176	0.7261
11.7555	0.7078
11.5977	0.7715
11.444	0.7227
11.2944	0.646
11.1487	0.5891
11.0067	0.5996
10.8682	0.6482
10.7332	0.6641
10.6015	0.6287
10.473	0.595
10.3476	0.5659
10.2251	0.5559
10.1056	0.5535
9.9887	0.5171
9.8746	0.5093
9.763	0.5432
9.6539	0.5601
9.5472	0.6113
9.4429	0.6433
9.3408	0.7109
9.2409	0.7761
9.1431	1.0117
9.0474	1.3254
8.9536	1.5832
8.8618	1.9424
8.7718	2.3118
8.6837	2.9973
8.5973	3.0852
8.5126	3.0867
8.4295	3.1235
8.3481	3.2961
8.2682	2.8755
8.1898	2.3074
8.1129	2.1643
8.0374	1.8276
7.9634	1.376
7.8906	0.7722
7.8192	0.3164
7.7491	0.1013
7.6802	0.0732
7.6126	0.1213
7.5461	0.1533
7.4807	0.1895
7.4165	0.2302
7.3534	0.2798
7.2914	0.3191
7.2303	0.3867
7.1703	0.4431
7.1113	0.5222
7.0533	0.5901
6.9962	0.7148
6.94	0.9172
6.8847	1.1606
6.8302	1.4763
6.7767	1.6709
6.7239	1.8679
6.672	2.1299
6.6209	2.2793
6.5705	1.8284
6.5209	1.2622
6.4721	0.9941
6.424	1.3035
6.3766	1.6191
6.3299	1.647
6.2838	1.9175
6.2385	1.4377
6.1937	0.7336
6.1496	0.478
6.1062	0.7612
6.0633	1.2705
6.0211	1.4702
5.9794	1.6626
5.9383	1.6667
5.8978	1.5019
5.8578	2.3232
5.8184	2.5752
5.7794	2.1377
5.741	2.5176
5.7031	2.6213
5.6657	3.115
5.6288	3.323
5.5924	3.1091
5.5564	2.9954
5.5209	3.1064
5.4859	3.314
5.4513	3.4446
5.4171	3.8098
5.3833	4.1531
5.35	4.3118
5.3171	4.3708
5.2846	4.416
5.2524	4.4538
5.2207	4.5671
5.1893	4.6843
5.1584	4.7161
5.1277	4.666
5.0975	4.508
5.0676	4.3972
5.038	4.3367
5.0088	4.1853
4.98	4.0891
4.9514	3.8318
4.9232	2.8462
4.8953	3.7344
4.8678	3.6719
4.8405	3.4731
4.8135	3.1631
4.7868	2.6685
4.7605	1.9126
4.7344	0.9673
4.7086	0.3186
4.6831	0.2632
4.6578	0.2822
4.6328	0.3574
4.6081	0.3809
4.5837	0.5002
4.5595	0.5503
4.5356	0.4812
4.5119	0.4399
4.4884	0.3887
4.4652	0.3533
4.4423	0.3828
4.4196	0.491
4.3971	0.5942
4.3748	0.5474
4.3528	0.5273
4.331	0.6265
4.3094	0.686
4.288	0.6587
4.2668	0.7419
4.2458	1.156
4.2251	1.4412
4.2045	1.356
4.1841	1.5803
4.164	2.53
4.144	3.2778
4.1242	3.6121
4.1046	3.8603
4.0852	4.0859
4.066	4.2925
4.047	4.4604
4.0281	4.6006
4.0094	4.7529
3.9909	4.8696
3.9725	4.9512
3.9544	5.0295
3.9363	5.0683
3.9185	5.0981
3.9008	5.2344
3.8833	5.4043
3.8659	5.5139
3.8487	5.6194
3.8316	5.656
3.8147	5.584
3.7979	5.31
3.7813	5.4499
3.7648	5.7251
3.7485	5.866
3.7323	5.9375
3.7162	5.9768
3.7003	5.8987
3.6845	5.8823
3.6689	5.948
3.6534	5.8801
3.638	5.8618
3.6227	5.8962
3.6076	5.9326
3.5926	5.9473
3.5777	5.9336
3.563	5.876
3.5484	5.8345
3.5338	5.7861
3.5195	5.7224
3.5052	5.6467
3.491	5.5864
3.477	5.5356
3.463	5.5132
3.4492	5.4639
3.4355	5.4192
3.4219	5.364
3.4084	5.3347
3.395	5.3081
3.3817	5.2771
3.3685	5.2153
3.3554	5.1589
3.3425	5.093
3.3296	5.0141
3.3168	4.9226
3.3041	4.8223
3.2915	4.7275
3.279	4.6133
3.2666	4.5137
3.2543	4.4487
3.2421	4.3308
3.23	4.2078
3.218	4.0581
3.206	3.8979
3.1942	3.6206
3.1824	3.2905
3.1707	3.2761
3.1591	3.2236
3.1476	3.1367
3.1362	3.02
3.1249	2.9192
3.1136	2.8154
3.1024	2.6616
3.0913	2.4656
3.0803	2.3452
3.0694	2.3464
3.0585	2.3313
3.0477	2.2844
3.037	2.2537
3.0264	2.1873
3.0158	2.1252
3.0053	2.0359
2.9949	1.9868
2.9845	1.9331
2.9743	1.8767
2.9641	1.7622
2.9539	1.6606
2.9439	1.5813
2.9339	1.5776
2.9239	1.6094
2.9141	1.658
2.9043	1.6702
2.8946	1.6758
2.8849	1.6885
2.8753	1.6611
2.8658	1.6299
2.8563	1.6658
2.8469	1.7268
2.8375	1.729
2.8282	1.7578
2.819	1.7529
2.8098	1.8254
2.8007	1.9617
2.7917	2.0869
2.7827	2.2583
2.7738	2.4392
2.7649	2.6414
2.7561	2.9624
2.7473	3.3735
2.7386	3.72
2.7299	4.0681
2.7213	4.3359
2.7128	4.6565
2.7043	4.9133
2.6959	5.1208
2.6875	5.2905
2.6791	5.3821
2.6709	5.4951
2.6626	5.6194
2.6545	5.6782
2.6463	5.7561
2.6382	5.7883
2.6302	5.7949
2.6222	5.8396
2.6143	5.8911
2.6064	5.8425
2.5986	5.8999
2.5908	5.8874
2.583	5.8823
2.5753	5.8901
2.5677	5.9326
2.5601	5.917
2.5525	5.9399
2.545	5.9673
2.5375	5.9614
2.5301	5.9653
2.5227	5.938
2.5154	5.9382
2.5081	5.9285
2.5008	5.9263
2.4936	5.928
2.4864	5.9043
2.4793	5.9106
2.4722	5.9172
2.4651	5.9338
2.4581	5.9663
2.4511	5.98
2.4442	5.99
2.4373	5.9963
2.4305	6.0115
2.4236	6.029
2.4169	6.0361
2.4101	6.103
2.4034	6.1208
2.3967	6.1853
2.3901	6.2495
2.3835	6.3127
2.377	6.3515
2.3704	6.3674
2.364	6.3887
2.3575	6.4223
2.3511	6.4248
2.3447	6.4463
2.3384	6.4253
2.3321	6.436
2.3258	6.4619
2.3195	6.4377
2.3133	6.4687
2.3071	6.4067
2.301	6.4258
2.2949	6.4429
2.2888	6.416
2.2828	6.4314
2.2767	6.376
2.2708	6.3594
2.2648	6.3476
2.2589	6.4065
2.253	6.3769
2.2471	6.3581
2.2413	6.3769
2.2355	6.3647
2.2297	6.376
2.224	6.3266
2.2183	6.3359
2.2126	6.3398
2.207	6.3559
2.2013	6.3452
2.1957	6.3418
2.1902	6.3733
2.1846	6.3589
2.1791	6.341
2.1736	6.3872
2.1682	6.3645
2.1628	6.3979
2.1574	6.4072
2.152	6.4028
2.1466	6.3955
2.1413	6.3569
2.136	6.3867
2.1308	6.4111
2.1255	6.3931
2.1203	6.3633
2.1151	6.3838
2.11	6.4297
2.1048	6.4062
2.0997	6.426
2.0946	6.4341
2.0895	6.4548
2.0845	6.4609
2.0795	6.4404
