Name: Fluorite CaF_2
Type: Mineral
Class: Halide
Subclass: None
Particle Size: Coarse
Sample No.: H-2B
Owner: JPL
Wavelength Range: VSWIR
Origin: United Kingdom, England, Durham County, Weardal
Description: Particle size was 125-500um.Collected by Ward's Original ASTER Spectral Library name was jpl.beckman.mineral.halide.none.coarse.h02b.spectrum.txt
Measurement: Hemispherical reflectance
X Units: Wavelength (micrometers)
Y Units: Reflectance (percent)
wavelength	value
0.4	56.72
0.403	56.89
0.406	57.09
0.409	57.18
0.412	57.28
0.415	57.26
0.418	57.21
0.421	57.43
0.424	57.47
0.427	57.75
0.43	58
0.433	58.15
0.436	58.44
0.439	58.58
0.442	58.58
0.445	58.53
0.448	58.68
0.451	58.76
0.454	58.92
0.457	58.88
0.46	58.99
0.463	59.03
0.466	59.1
0.469	59.26
0.472	59.27
0.475	59.48
0.478	59.46
0.481	59.39
0.484	59.48
0.487	59.38
0.49	59.47
0.493	59.47
0.496	59.56
0.499	59.68
0.502	59.72
0.505	59.98
0.508	60.02
0.511	60.12
0.514	60.17
0.517	60.2
0.52	60.3
0.523	60.29
0.526	60.31
0.529	60.31
0.532	60.39
0.535	60.42
0.538	60.51
0.541	60.61
0.544	60.59
0.547	60.64
0.55	60.75
0.553	60.86
0.556	60.78
0.559	60.82
0.562	61.08
0.565	61.12
0.568	61.1
0.571	61.02
0.574	61.04
0.577	60.96
0.58	60.95
0.583	61.07
0.586	61.13
0.589	61.25
0.592	61.27
0.595	61.27
0.598	61.34
0.601	61.47
0.604	61.53
0.607	61.55
0.61	61.57
0.613	61.57
0.616	61.76
0.619	61.8
0.622	61.92
0.625	61.92
0.628	62.03
0.631	62.06
0.634	62.34
0.637	62.43
0.64	62.55
0.643	62.59
0.646	62.86
0.649	62.88
0.652	63.09
0.655	63.17
0.658	63.19
0.661	63.3
0.664	63.44
0.667	63.54
0.67	63.59
0.673	63.63
0.676	63.67
0.679	63.75
0.682	63.78
0.685	63.85
0.688	63.91
0.691	63.92
0.694	63.93
0.697	63.88
0.7	63.83
0.703	63.97
0.706	64.11
0.709	64.17
0.712	64.26
0.715	64.17
0.718	64.3
0.721	64.34
0.724	64.47
0.727	64.53
0.73	64.51
0.733	64.47
0.736	64.59
0.739	64.59
0.742	64.66
0.745	64.65
0.748	64.74
0.751	64.84
0.754	64.88
0.757	64.87
0.76	64.84
0.763	64.95
0.766	64.97
0.769	65.03
0.772	65.03
0.775	64.97
0.778	65.08
0.781	65.12
0.784	65.21
0.787	65.27
0.79	65.23
0.793	65.29
0.796	65.28
0.799	65.29
0.808	65.62
0.82	65.7
0.832	65.76
0.844	65.81
0.856	65.88
0.868	65.92
0.88	65.96
0.892	65.98
0.904	66.04
0.916	66.05
0.928	66.03
0.94	66.17
0.952	66.21
0.964	66.24
0.976	66.2
0.988	66.24
1	66.38
1.012	66.37
1.024	66.44
1.036	66.48
1.048	66.47
1.06	66.58
1.072	66.53
1.084	66.59
1.096	66.58
1.108	66.58
1.12	66.69
1.132	66.75
1.144	66.67
1.156	66.57
1.168	66.51
1.18	66.53
1.192	66.46
1.204	66.54
1.216	66.51
1.228	66.52
1.24	66.52
1.252	66.6
1.264	66.49
1.276	66.6
1.288	66.59
1.3	66.57
1.312	66.57
1.324	66.51
1.336	66.37
1.348	66.3
1.36	66.33
1.372	66.29
1.384	66
1.396	65.47
1.408	64.83
1.42	64.29
1.432	64.06
1.444	64.14
1.456	64.18
1.468	64.43
1.48	64.8
1.492	65.15
1.504	65.42
1.516	65.64
1.528	65.83
1.54	65.94
1.552	66.16
1.564	66.23
1.576	66.33
1.588	66.34
1.6	66.51
1.612	66.52
1.624	66.58
1.636	66.69
1.648	66.82
1.66	66.78
1.672	66.8
1.684	66.83
1.696	66.78
1.708	66.71
1.72	66.83
1.732	66.77
1.744	66.77
1.756	66.55
1.768	66.46
1.78	66.4
1.792	66.44
1.804	66.33
1.816	66.42
1.828	66.4
1.84	66.28
1.852	66.16
1.864	65.72
1.876	64.58
1.888	62.49
1.9	59.69
1.912	57.68
1.924	56.76
1.936	56.65
1.948	57.02
1.96	57.69
1.972	58.77
1.984	59.9
1.996	61.1
2.008	62.04
2.02	62.89
2.032	63.5
2.044	63.9
2.056	64.3
2.068	64.65
2.08	65.06
2.092	65.44
2.104	65.69
2.116	65.92
2.128	65.97
2.14	66.09
2.152	66.12
2.164	65.98
2.176	65.97
2.188	65.85
2.2	65.86
2.212	65.88
2.224	65.88
2.236	65.91
2.248	65.91
2.26	65.91
2.272	65.87
2.284	65.74
2.296	65.59
2.308	65.43
2.32	65.42
2.332	65.31
2.344	65.1
2.356	64.97
2.368	64.64
2.38	64.28
2.392	63.83
2.404	63.49
2.416	63.05
2.428	62.59
2.44	62.18
2.452	61.66
2.464	61.06
2.476	60.67
2.488	60.41
2.5	60.19
