Name: Diopside CaMg(SiO_3)_2
Type: Mineral
Class: Silicate
Subclass: Inosilicate
Particle Size: Coarse
Sample No.: IN-9B
Owner: JPL
Wavelength Range: TIR
Origin: Canada, Quebec
Description: Particle size was 125-500um.Collected by Ward's Original ASTER Spectral Library name was jpl.nicolet.mineral.silicate.inosilicate.coarse.in09b.spectrum.txt
Measurement: Hemispherical reflectance
X Units: Wavelength (micrometers)
Y Units: Reflectance (percent)
wavelength	value
15.3853	1.6469
15.1161	2.8369
14.8563	3.4339
14.6052	2.0865
14.3624	1.9699
14.1276	2.2951
13.9004	2.5404
13.6803	2.7834
13.4671	3.2799
13.2604	3.314
13.06	3.8588
12.8656	4.1756
12.6769	4.4047
12.4936	4.915
12.3155	5.5001
12.1425	6.0993
11.9742	7.4472
11.8106	9.4871
11.6513	13.1962
11.4963	14.7817
11.3454	15.226
11.1983	15.5148
11.0551	15.6282
10.9154	16.1744
10.7793	15.1452
10.6465	13.5935
10.5169	14.8916
10.3904	16.3772
10.267	14.297
10.1464	10.4885
10.0287	9.2268
9.9136	11.5508
9.8012	11.9975
9.6913	11.3946
9.5838	10.9583
9.4787	11.9213
9.3758	15.8185
9.2752	17.2048
9.1767	17.0793
9.0803	16.9614
8.9858	16.9589
8.8934	15.1174
8.8028	10.4837
8.714	5.249
8.627	2.4561
8.5417	1.4305
8.4581	1.2553
8.3761	1.0177
8.2957	1.0487
8.2169	1.1694
8.1395	1.0734
8.0635	1.2275
7.989	1.4959
7.9158	1.5717
7.8439	1.7179
7.7734	1.9341
7.7041	2.0504
7.636	2.2931
7.5691	2.2354
7.5034	2.5371
7.4388	2.9024
7.3753	2.9976
7.3129	3.0865
7.2515	3.0772
7.1912	3.0952
7.1318	3.3133
7.0734	3.8059
7.016	4.0557
6.9595	4.3302
6.9039	4.2744
6.8492	4.3647
6.7953	4.1357
6.7423	4.0772
6.6901	3.7979
6.6387	3.7614
6.5881	3.7646
6.5382	3.3543
6.4892	3.278
6.4408	3.2988
6.3931	3.3833
6.3462	3.6975
6.2999	3.8486
6.2543	3.6999
6.2094	3.7047
6.1651	3.5659
6.1214	3.2935
6.0784	3.2911
6.0359	3.5124
5.994	4.0443
5.9527	5.1075
5.912	6.7915
5.8718	7.8227
5.8322	8.4841
5.7931	9.651
5.7545	10.6065
5.7165	11.1351
5.6789	11.4812
5.6418	11.844
5.6052	11.4116
5.5691	10.5035
5.5334	10.9578
5.4982	10.9895
5.4635	10.5658
5.4291	9.4698
5.3952	8.6786
5.3618	8.3193
5.3287	8.1158
5.2961	7.8481
5.2638	7.6271
5.2319	7.8753
5.2004	7.9272
5.1693	7.6328
5.1386	7.2242
5.1082	6.4741
5.0782	5.8309
5.0485	6.0538
5.0192	7.1163
4.9902	7.7332
4.9616	8.0763
4.9332	8.1553
4.9052	8.4805
4.8776	8.78
4.8502	9.4466
4.8231	10.4288
4.7963	11.483
4.7699	12.0645
4.7437	12.4081
4.7178	13.9774
4.6922	15.9872
4.6668	17.3456
4.6418	18.4907
4.617	20.2132
4.5924	21.8428
4.5681	24.1807
4.5441	25.8904
4.5203	28.528
4.4968	30.1606
4.4735	31.0043
4.4505	31.7167
4.4277	32.251
4.4051	32.8331
4.3828	33.3094
4.3607	33.7625
4.3388	34.1487
4.3171	34.6005
4.2956	35.0143
4.2744	35.2074
4.2534	35.7857
4.2325	36.1446
4.2119	36.5418
4.1915	36.8776
4.1712	37.1463
4.1512	37.2895
4.1313	37.5417
4.1117	37.7335
4.0922	37.8588
4.0729	37.9538
4.0538	37.7995
4.0349	37.1675
4.0161	36.2965
3.9976	34.1945
3.9792	32.8326
3.9609	33.5547
3.9428	35.676
3.9249	36.4958
3.9072	36.8315
3.8896	36.9112
3.8722	37.0755
3.8549	37.1312
3.8378	37.4713
3.8208	37.8229
3.804	38.2727
3.7873	38.6884
3.7708	38.7505
3.7544	38.4268
3.7382	38.397
3.7221	38.3137
3.7061	38.0916
3.6903	37.7932
3.6746	37.5262
3.659	37.1149
3.6436	36.8228
3.6283	36.5141
3.6131	36.12
3.5981	35.7578
3.5832	35.3521
3.5684	34.807
3.5537	34.1583
3.5391	33.5865
3.5247	32.609
3.5104	31.2993
3.4962	30.3121
3.4821	29.3958
3.4681	29.5208
3.4543	29.4087
3.4405	28.8379
3.4269	28.2089
3.4133	27.4411
3.3999	26.9076
3.3866	26.2071
3.3733	25.5928
3.3602	24.864
3.3472	24.1276
3.3343	24.0454
3.3215	23.5694
3.3088	22.9336
3.2961	22.4835
3.2836	21.8327
3.2712	21.2781
3.2588	20.5891
3.2466	19.9892
3.2345	19.0905
3.2224	18.304
3.2104	17.5912
3.1985	16.9368
3.1867	16.187
3.175	15.4541
3.1634	14.7023
3.1519	14.2395
3.1404	13.7757
3.129	13.03
3.1178	12.6569
3.1065	12.0982
3.0954	11.7518
3.0844	11.639
3.0734	11.2804
3.0625	10.9964
3.0517	10.925
3.041	10.682
3.0303	10.6211
3.0197	10.4251
3.0092	10.0959
2.9987	9.7341
2.9884	9.4903
2.9781	9.2489
2.9678	9.2017
2.9577	8.9438
2.9476	8.6035
2.9376	8.71
2.9276	8.6843
2.9177	8.7395
2.9079	8.6322
2.8982	8.6914
2.8885	8.4824
2.8789	8.7862
2.8693	8.6117
2.8598	8.7632
2.8504	8.9149
2.841	8.7148
2.8317	8.3888
2.8224	8.1706
2.8133	7.9716
2.8041	8.0022
2.7951	7.6802
2.786	7.4987
2.7771	7.5996
2.7682	7.9749
2.7594	7.6333
2.7506	8.2127
2.7418	7.5612
2.7332	7.1736
2.7246	9.1759
2.716	11.8057
2.7075	22.0714
2.699	26.2849
2.6906	29.1063
2.6823	33.613
2.674	36.7589
2.6657	38.3238
2.6575	38.6821
2.6494	38.9106
2.6413	39.0658
2.6332	39.1238
2.6252	39.3341
2.6173	39.4029
2.6094	39.2131
2.6015	39.2072
2.5937	38.9496
2.5859	38.9252
2.5782	38.5848
2.5706	38.4633
2.5629	38.2245
2.5554	38.1517
2.5478	37.7311
2.5403	37.5049
2.5329	37.517
2.5255	37.2571
2.5181	37.2144
2.5108	37.1967
2.5035	36.7484
2.4963	36.6675
2.4891	36.5006
2.482	36.2487
2.4749	35.7753
2.4678	35.8861
2.4608	35.6161
2.4538	35.5444
2.4468	35.5334
2.4399	35.2128
2.4331	35.2929
2.4262	35.2951
2.4194	35.3096
2.4127	35.0656
2.4059	34.4526
2.3993	33.9488
2.3926	33.6235
2.386	33.6151
2.3795	34.1505
2.3729	34.5119
2.3664	34.7769
2.36	34.7249
2.3535	34.6431
2.3471	34.4078
2.3408	34.0531
2.3345	32.8432
2.3282	32.0505
2.3219	30.8224
2.3157	30.564
2.3095	31.1603
2.3034	32.2516
2.2972	32.6942
2.2911	33.3828
2.2851	34.6587
2.279	35.4142
2.2731	35.9879
2.2671	36.4504
2.2612	36.7446
2.2553	36.7809
2.2494	36.8603
2.2435	37.0153
2.2377	37.3118
2.232	37.4826
2.2262	37.6483
2.2205	37.7145
2.2148	38.1151
2.2091	38.4204
2.2035	38.4551
2.1979	38.5657
2.1923	39.0281
2.1868	39.0876
2.1812	39.3407
2.1758	39.4498
2.1703	39.5844
2.1649	39.9052
2.1595	39.9216
2.1541	40.1176
2.1487	40.1607
2.1434	40.1702
2.1381	40.4852
2.1328	40.6136
2.1275	40.8677
2.1223	41.182
2.1171	41.0916
2.112	41.614
2.1068	41.4385
2.1017	41.8905
2.0966	41.9708
2.0915	42.0523
2.0865	42.3241
2.0814	42.1176
2.0764	42.9603
2.0715	42.7791
2.0665	42.6297
2.0616	43.0127
2.0567	42.8867
2.0518	43.2329
2.0469	43.3554
2.0421	43.5656
2.0373	43.6826
2.0325	43.7877
2.0277	43.6296
2.0229	43.8701
2.0182	43.8188
2.0135	43.7939
2.0088	44.0092
2.0042	44.0204
