Name: Celestite SrSO_4
Type: Mineral
Class: Sulfate
Subclass: None
Particle Size: Fine
Sample No.: SO-5A
Owner: JPL
Wavelength Range: TIR
Origin: USA, Utah, Emery County
Description: Particle size was 0-45um.Collected by Grieger's Inc. Original ASTER Spectral Library name was jpl.nicolet.mineral.sulfate.none.fine.so05a.spectrum.txt
Measurement: Hemispherical reflectance
X Units: Wavelength (micrometers)
Y Units: Reflectance (percent)
wavelength	value
15.3853	4.7112
15.1161	3.7851
14.8563	5.1102
14.6052	12.5899
14.3624	20.1728
14.1276	22.4625
13.9004	25.7621
13.6803	29.6492
13.4671	32.1993
13.2604	32.8722
13.06	32.8486
12.8656	33.73
12.6769	33.8706
12.4936	33.4979
12.3155	34.0965
12.1425	35.0386
11.9742	36.1074
11.8106	37.0559
11.6513	38.7918
11.4963	40.1521
11.3454	41.2929
11.1983	41.428
11.0551	39.068
10.9154	35.1566
10.7793	32.4335
10.6465	30.8292
10.5169	28.6571
10.3904	25.3946
10.267	17.7492
10.1464	11.719
10.0287	5.4552
9.9136	16.1214
9.8012	13.9886
9.6913	11.7281
9.5838	9.4994
9.4787	7.3036
9.3758	7.1392
9.2752	8.1623
9.1767	9.4129
9.0803	10.2836
8.9858	11.1558
8.8934	11.7911
8.8028	12.16
8.714	11.8302
8.627	10.859
8.5417	9.4163
8.4581	8.1138
8.3761	6.9835
8.2957	6.208
8.2169	6.1004
8.1395	6.4078
8.0635	6.2626
7.989	6.146
7.9158	5.2737
7.8439	2.872
7.7734	1.711
7.7041	1.6388
7.636	2.4229
7.5691	4.005
7.5034	7.1693
7.4388	10.8954
7.3753	14.7516
7.3129	17.117
7.2515	20.455
7.1912	24.462
7.1318	28.5484
7.0734	32.266
7.016	37.9403
6.9595	47.2767
6.9039	49.4193
6.8492	48.6953
6.7953	57.1948
6.7423	60.8623
6.6901	62.6265
6.6387	63.1655
6.5881	58.3522
6.5382	49.267
6.4892	41.3728
6.4408	36.3279
6.3931	37.3115
6.3462	40.6374
6.2999	43.1363
6.2543	39.4515
6.2094	40.507
6.1651	39.9517
6.1214	48.6872
6.0784	51.0226
6.0359	57.824
5.994	63.4031
5.9527	62.6556
5.912	66.0744
5.8718	66.8655
5.8322	67.623
5.7931	67.4741
5.7545	69.4837
5.7165	70.3651
5.6789	70.4883
5.6418	71.3522
5.6052	71.7508
5.5691	72.4737
5.5334	73.1768
5.4982	73.5581
5.4635	73.2391
5.4291	73.276
5.3952	73.212
5.3618	73.8706
5.3287	75.5084
5.2961	77.2361
5.2638	78.1249
5.2319	78.544
5.2004	78.447
5.1693	77.929
5.1386	75.9604
5.1082	75.0898
5.0782	71.0134
5.0485	51.7347
5.0192	56.0689
4.9902	69.4882
4.9616	68.3371
4.9332	63.9629
4.9052	56.2415
4.8776	43.3999
4.8502	25.9139
4.8231	22.1667
4.7963	18.4843
4.7699	23.9708
4.7437	25.8745
4.7178	27.5183
4.6922	29.6771
4.6668	28.1287
4.6418	25.9934
4.617	25.9296
4.5924	29.7249
4.5681	32.6119
4.5441	31.9066
4.5203	30.4357
4.4968	30.059
4.4735	31.4863
4.4505	35.4899
4.4277	38.9657
4.4051	40.4414
4.3828	41.8223
4.3607	42.6039
4.3388	44.1021
4.3171	44.5753
4.2956	45.575
4.2744	47.0678
4.2534	48.8201
4.2325	46.2607
4.2119	45.7246
4.1915	46.2318
4.1712	47.1407
4.1512	49.5825
4.1313	53.8427
4.1117	59.5309
4.0922	65.8285
4.0729	70.4976
4.0538	73.5727
4.0349	75.887
4.0161	77.8498
3.9976	79.26
3.9792	80.1109
3.9609	80.9647
3.9428	81.5198
3.9249	82.0516
3.9072	82.8186
3.8896	83.3683
3.8722	83.4264
3.8549	83.0063
3.8378	83.3003
3.8208	83.9314
3.804	84.5034
3.7873	84.8187
3.7708	85.2345
3.7544	85.3698
3.7382	85.3491
3.7221	85.2563
3.7061	85.3728
3.6903	85.2805
3.6746	85.4214
3.659	85.6281
3.6436	85.696
3.6283	85.7503
3.6131	85.637
3.5981	85.5347
3.5832	85.3683
3.5684	85.1795
3.5537	85.0384
3.5391	84.7351
3.5247	84.3684
3.5104	83.137
3.4962	82.4165
3.4821	83.1595
3.4681	83.2264
3.4543	82.8371
3.4405	82.312
3.4269	81.0879
3.4133	79.9555
3.3999	81.2322
3.3866	82.0306
3.3733	81.6848
3.3602	82.0694
3.3472	82.7206
3.3343	83.0414
3.3215	82.9419
3.3088	82.3891
3.2961	81.5738
3.2836	79.9886
3.2712	79.1483
3.2588	79.1178
3.2466	79.2814
3.2345	79.625
3.2224	79.7174
3.2104	79.542
3.1985	79.1021
3.1867	78.5728
3.175	77.9283
3.1634	77.473
3.1519	77.2966
3.1404	76.8975
3.129	76.7445
3.1178	76.3924
3.1065	76.0756
3.0954	76.0143
3.0844	75.5808
3.0734	75.3367
3.0625	75.0166
3.0517	74.9963
3.041	74.7176
3.0303	74.5075
3.0197	74.2604
3.0092	74.0717
2.9987	73.8397
2.9884	73.6799
2.9781	73.4605
2.9678	73.3607
2.9577	73.1002
2.9476	73.0558
2.9376	72.9274
2.9276	72.9832
2.9177	73.1134
2.9079	73.2585
2.8982	73.3004
2.8885	73.329
2.8789	73.479
2.8693	73.475
2.8598	73.8505
2.8504	74.3337
2.841	74.5016
2.8317	75.1545
2.8224	75.7182
2.8133	76.3491
2.8041	77.1216
2.7951	77.7314
2.786	78.95
2.7771	79.661
2.7682	80.9248
2.7594	81.7059
2.7506	82.7229
2.7418	83.9617
2.7332	84.5075
2.7246	85.6522
2.716	85.7495
2.7075	86.1512
2.699	86.5877
2.6906	87.064
2.6823	87.282
2.674	87.4297
2.6657	88.236
2.6575	87.67
2.6494	87.7422
2.6413	87.5537
2.6332	87.876
2.6252	87.8975
2.6173	88.1808
2.6094	87.9901
2.6015	87.8191
2.5937	88.3247
2.5859	87.9604
2.5782	87.7248
2.5706	87.8335
2.5629	87.9546
2.5554	87.6244
2.5478	87.7723
2.5403	87.6941
2.5329	87.8227
2.5255	87.6187
2.5181	87.7897
2.5108	87.6622
2.5035	87.5817
2.4963	87.7929
2.4891	87.6284
2.482	87.6275
2.4749	87.7735
2.4678	87.7422
2.4608	87.7481
2.4538	87.8582
2.4468	87.7845
2.4399	87.6716
2.4331	87.9739
2.4262	87.7807
2.4194	87.7586
2.4127	87.9067
2.4059	87.919
2.3993	87.8847
2.3926	87.8584
2.386	87.9559
2.3795	87.8178
2.3729	87.8362
2.3664	87.8302
2.36	87.9146
2.3535	87.9615
2.3471	88.0494
2.3408	88.0216
2.3345	88.1149
2.3282	88.0742
2.3219	88.0454
2.3157	87.9848
2.3095	87.9421
2.3034	87.987
2.2972	88.0451
2.2911	88.0164
2.2851	87.9807
2.279	88.0486
2.2731	88.0704
2.2671	87.9426
2.2612	87.9809
2.2553	87.9142
2.2494	88.0579
2.2435	88.0226
2.2377	87.8309
2.232	88.0297
2.2262	87.9989
2.2205	88.0313
2.2148	87.9151
2.2091	88.092
2.2035	88.0043
2.1979	88.15
2.1923	88.1332
2.1868	88.1784
2.1812	88.1599
2.1758	88.2454
2.1703	87.965
2.1649	88.2648
2.1595	87.8465
2.1541	88.0969
2.1487	88.0667
2.1434	88.0498
2.1381	87.8299
2.1328	88.202
2.1275	88.1909
2.1223	88.2293
2.1171	88.0553
2.112	87.8959
2.1068	88.1429
2.1017	88.1619
2.0966	87.8055
2.0915	87.8044
2.0865	88.0362
2.0814	88.2796
2.0764	88.0692
2.0715	87.7215
2.0665	88.384
2.0616	87.8195
2.0567	87.9612
2.0518	88.3276
2.0469	88.404
2.0421	88.2905
2.0373	88.2357
2.0325	88.175
2.0277	88.2003
2.0229	88.0945
2.0182	88.0085
2.0135	88.0073
2.0088	88.0917
2.0042	88.0029
