Name: Antigorite (Mg, Fe+2)3 Si2O5(OH)4
Type: Mineral
Class: Silicate
Subclass: Phyllosilicate
Particle Size: Fine
Sample No.: antigorite_1
Owner: JHU.
Wavelength Range: TIR
Origin: Sample from Kalsertal, Tyrol, Austria, via the Smithsonian(sample no. NMNH B17958, borrowed from Jim Crowley, USGS).
Description: The sample was a large green single crystal.  It appeared to be mostly pure antigorite under the microscope, but some (<3%) alteration or impurity was present, possibly chrysotile. Sample particle size was less than 2 Micrometers.(Sheet silicates) (Serpentine/Kaolin Group)  Original ASTER Spectral Library name was jhu.nicolet.mineral.silicate.phyllosilicate.powder.antigo1.spectrum.txt
Measurement: Transmission
X Units: Wavelength (micrometers)
Y Units: Transmittance (percent)
wavelength	value
25.0442	59.4608
24.3388	59.1795
23.6719	58.0428
23.0407	45.6815
22.4422	36.33
21.8741	35.869
21.334	42.2147
20.8199	49.576
20.33	55.5018
19.8627	58.4256
19.4163	61.2547
18.9896	62.8368
18.5812	62.451
18.19	60.6815
17.815	58.328
17.4551	61.0799
17.1094	65.1131
16.7772	65.6414
16.4576	62.1844
16.15	58.2791
15.8537	58.0702
15.568	58.8153
15.2925	62.4412
15.0265	67.2069
14.7697	71.701
14.5214	75.075
14.2814	77.5975
14.0492	79.0535
13.8244	80.469
13.6067	81.4705
13.3957	82.4593
13.1912	83.0662
12.9929	83.3225
12.8004	83.3846
12.6135	84.3513
12.432	84.5095
12.2557	84.5135
12.0843	83.9104
11.9176	82.7625
11.7555	81.7224
11.5977	80.4021
11.444	79.8753
11.2944	79.5628
11.1487	77.8689
11.0067	74.4241
10.8682	70.8245
10.7332	66.0213
10.6015	57.6605
10.473	47.0214
10.3476	38.5233
10.2251	32.1737
10.1056	29.3544
9.9887	31.5195
9.8746	35.7035
9.763	40.5766
9.6539	45.5487
9.5472	48.1952
9.4429	47.3221
9.3408	47.0106
9.2409	50.7411
9.1431	59.3895
9.0474	69.5545
8.9536	74.5691
8.8618	77.8455
8.7718	80.8875
8.6837	83.3699
8.5973	85.3606
8.5126	86.6487
8.4295	87.9317
8.3481	88.7442
8.2682	89.6297
8.1898	90.7412
8.1129	91.4219
8.0374	91.8821
7.9634	92.3447
7.8906	92.5899
7.8192	92.7488
7.7491	92.9385
7.6802	93.0098
7.6126	93.167
7.5461	93.2566
7.4807	93.2263
7.4165	93.1541
7.3534	93.0574
7.2914	92.9004
7.2303	92.4939
7.1703	92.5593
7.1113	92.1956
7.0533	91.4922
6.9962	91.502
6.94	91.7117
6.8847	91.8728
6.8302	91.8818
6.7767	92.0684
6.7239	92.1072
6.672	92.1729
6.6209	92.1433
6.5705	92.1296
6.5209	92.0938
6.4721	92.415
6.424	92.6638
6.3766	92.7195
6.3299	92.761
6.2838	92.6377
6.2385	92.3059
6.1937	91.5252
6.1496	90.5508
6.1062	90.4736
6.0633	91.0945
6.0211	92.5176
5.9794	94.0779
5.9383	94.0566
5.8978	94.0938
5.8578	94.3337
5.8184	94.7471
5.7794	94.9421
5.741	95.0645
5.7031	95.1404
5.6657	95.1804
5.6288	95.0759
5.5924	95.0723
5.5564	95.072
5.5209	95.166
5.4859	95.2715
5.4513	95.3594
5.4171	95.3535
5.3833	95.136
5.35	95.1104
5.3171	95.1816
5.2846	95.2588
5.2524	95.3748
5.2207	95.5837
5.1893	95.6296
5.1584	95.658
5.1277	95.6201
5.0975	95.6316
5.0676	95.5547
5.038	95.5801
5.0088	95.6179
4.98	95.6794
4.9514	95.7493
4.9232	95.7878
4.8953	95.8591
4.8678	95.9529
4.8405	96.0305
4.8135	96.0417
4.7868	96.0999
4.7605	96.1213
4.7344	96.1755
4.7086	96.218
4.6831	96.2527
4.6578	96.2859
4.6328	96.2859
4.6081	96.4753
4.5837	96.4158
4.5595	96.2756
4.5356	96.2971
4.5119	96.2888
4.4884	96.2541
4.4652	96.2385
4.4423	96.2458
4.4196	96.1946
4.3971	96.2048
4.3748	96.2048
4.3528	96.1389
4.331	96.1316
4.3094	96.0691
4.288	96.0559
4.2668	96.033
4.2458	96.0139
4.2251	95.9866
4.2045	95.9963
4.1841	96.0374
4.164	96.0242
4.144	95.9929
4.1242	95.9597
4.1046	95.9495
4.0852	95.9631
4.066	95.9827
4.047	95.9553
4.0281	95.9529
4.0094	95.926
3.9909	95.8738
3.9725	95.8289
3.9544	95.8948
3.9363	95.9343
3.9185	95.8791
3.9008	95.8562
3.8833	95.8181
3.8659	95.6589
3.8487	95.6838
3.8316	95.6213
3.8147	95.5896
3.7979	95.5237
3.7813	95.4919
3.7648	95.3284
3.7485	95.3093
3.7323	95.2419
3.7162	95.0984
3.7003	95.0408
3.6845	94.9319
3.6689	94.7913
3.6534	94.7932
3.638	94.6638
3.6227	94.5554
3.6076	94.5212
3.5926	94.3943
3.5777	94.342
3.563	94.2092
3.5484	94.1443
3.5338	94.0642
3.5195	93.9773
3.5052	93.8826
3.491	93.7205
3.477	93.6467
3.463	93.6101
3.4492	93.5447
3.4355	93.4221
3.4219	93.2639
3.4084	93.031
3.395	93.0271
3.3817	92.9592
3.3685	92.989
3.3554	92.865
3.3425	92.7385
3.3296	92.6502
3.3168	92.5471
3.3041	92.5159
3.2915	92.344
3.279	92.1311
3.2666	92.0427
3.2543	91.9202
3.2421	91.8342
3.23	91.6643
3.218	91.5276
3.206	91.385
3.1942	91.2361
3.1824	91.0115
3.1707	90.7449
3.1591	90.4568
3.1476	90.24
3.1362	89.9265
3.1249	89.7107
3.1136	89.3416
3.1024	88.8533
3.0913	88.3504
3.0803	88.0086
3.0694	87.5691
3.0585	87.1951
3.0477	86.8064
3.037	86.4988
3.0264	86.1062
3.0158	85.4802
3.0053	84.865
2.9949	84.0574
2.9845	83.1687
2.9743	82.1814
2.9641	81.282
2.9539	80.4236
2.9439	79.66
2.9339	78.9412
2.9239	78.5613
2.9141	78.2771
2.9043	78.2703
2.8946	78.3396
2.8849	78.4432
2.8753	78.4568
2.8658	78.4939
2.8563	78.6717
2.8469	78.9002
2.8375	79.1424
2.8282	79.4617
2.819	79.7713
2.8098	79.9344
2.8007	80.2361
2.7917	80.6775
2.7827	81.3162
2.7738	81.8474
2.7649	82.0701
2.7561	81.8553
2.7473	80.4734
2.7386	78.8299
2.7299	74.867
2.7213	67.2664
2.7128	72.7342
2.7043	81.906
2.6959	89.6423
2.6875	92.3806
2.6791	93.3552
2.6709	93.9216
2.6626	93.9255
2.6545	94.2664
2.6463	94.2263
2.6382	94.2302
2.6302	94.2927
2.6222	94.2351
2.6143	94.2507
2.6064	94.3484
2.5986	94.1013
2.5908	94.3044
2.583	94.199
2.5753	94.1697
2.5677	94.0095
2.5601	94.115
2.5525	93.9529
2.545	93.9236
2.5375	94.072
2.5301	94.1033
2.5227	93.7986
2.5154	93.8611
2.5081	93.8279
2.5008	93.8572
2.4936	93.7654
2.4864	93.7439
2.4793	93.7908
2.4722	93.7615
2.4651	93.533
2.4581	93.699
2.4511	93.5818
2.4442	93.4705
2.4373	93.5623
2.4305	93.5877
2.4236	93.5623
2.4169	93.5388
2.4101	93.5466
2.4034	93.4158
2.3967	93.2966
2.3901	93.4216
2.3835	93.3533
2.377	93.2127
2.3704	93.3748
2.364	93.3377
2.3575	93.1716
2.3511	93.2595
2.3447	93.1677
2.3384	93.0076
2.3321	93.0642
2.3258	93.1834
2.3195	93.2439
2.3133	93.1013
2.3071	92.9021
2.301	92.9705
2.2949	93.2185
2.2888	93.072
2.2828	93.1443
2.2767	93.1033
2.2708	93.1111
2.2648	93.3591
2.2589	93.1951
2.253	93.5232
2.2471	93.2615
2.2413	93.3904
2.2355	93.2029
2.2297	93.572
2.224	93.408
2.2183	93.4314
2.2126	93.5408
2.207	93.2498
2.2013	93.4763
2.1957	93.5095
2.1902	93.6169
2.1846	93.5037
2.1791	93.363
2.1736	93.5466
2.1682	93.9919
2.1628	93.9959
2.1574	93.6755
2.152	93.4529
2.1466	93.4529
2.1413	93.4177
2.136	93.7927
2.1308	94.1482
2.1255	94.0271
2.1203	94.1873
2.1151	93.7966
2.11	93.9177
2.1048	93.9216
2.0997	94.1365
2.0946	94.4919
2.0895	94.7498
2.0845	94.0623
2.0795	94.5349
