Name: Biotite K(Mg,Fe^2+)_3(Al,Fe^3+)Si_3O_10(OH,F)_2
Type: Mineral
Class: Silicate
Subclass: Phyllosilicate
Particle Size: Medium
Sample No.: PS-23A
Owner: JPL
Wavelength Range: VSWIR
Description: Particle size was 45-125um.Collected by JPL Original ASTER Spectral Library name was jpl.beckman.mineral.silicate.phyllosilicate.medium.ps23a.spectrum.txt
Measurement: Hemispherical reflectance
X Units: Wavelength (micrometers)
Y Units: Reflectance (percent)
wavelength	value
0.4	8.38
0.403	8.45
0.406	8.5
0.409	8.42
0.412	8.5
0.415	8.63
0.418	8.67
0.421	8.99
0.424	9.15
0.427	9.1
0.43	9.07
0.433	9.14
0.436	9.34
0.439	9.33
0.442	9.49
0.445	9.55
0.448	9.74
0.451	9.67
0.454	9.69
0.457	9.9
0.46	9.92
0.463	9.99
0.466	10.05
0.469	10.16
0.472	10.19
0.475	10.32
0.478	10.5
0.481	10.64
0.484	10.76
0.487	10.91
0.49	11.19
0.493	11.14
0.496	11.11
0.499	11.32
0.502	11.35
0.505	11.47
0.508	11.59
0.511	11.8
0.514	11.83
0.517	11.89
0.52	11.98
0.523	12.12
0.526	12.25
0.529	12.25
0.532	12.24
0.535	12.28
0.538	12.31
0.541	12.34
0.544	12.59
0.547	12.52
0.55	12.65
0.553	12.71
0.556	12.72
0.559	12.68
0.562	12.78
0.565	12.89
0.568	12.92
0.571	12.92
0.574	12.92
0.577	12.94
0.58	12.9
0.583	13.1
0.586	13.08
0.589	13.06
0.592	13.16
0.595	13.1
0.598	13.13
0.601	13.04
0.604	13.33
0.607	13.4
0.61	13.29
0.613	13.38
0.616	13.38
0.619	13.35
0.622	13.33
0.625	13.31
0.628	13.4
0.631	13.45
0.634	13.36
0.637	13.34
0.64	13.36
0.643	13.27
0.646	13.22
0.649	13.38
0.652	13.28
0.655	13.3
0.658	13.32
0.661	13.33
0.664	13.21
0.667	13.19
0.67	13.22
0.673	13.21
0.676	13.23
0.679	13.19
0.682	13.22
0.685	13.08
0.688	13.08
0.691	13.22
0.694	13.11
0.697	13.12
0.7	13.15
0.703	13.15
0.706	13.16
0.709	13.15
0.712	13.29
0.715	13.18
0.718	13.27
0.721	13.38
0.724	13.3
0.727	13.39
0.73	13.3
0.733	13.42
0.736	13.38
0.739	13.52
0.742	13.6
0.745	13.55
0.748	13.71
0.751	13.7
0.754	13.85
0.757	13.76
0.76	13.99
0.763	14.08
0.766	14.13
0.769	14.22
0.772	14.28
0.775	14.38
0.778	14.35
0.781	14.57
0.784	14.7
0.787	14.75
0.79	14.86
0.793	15.01
0.796	15.35
0.799	15.29
0.808	15.29
0.82	15.45
0.832	15.59
0.844	15.7
0.856	15.74
0.868	15.81
0.88	15.82
0.892	15.81
0.904	15.91
0.916	15.92
0.928	16.12
0.94	16.18
0.952	16.47
0.964	16.64
0.976	16.93
0.988	17.06
1	17.23
1.012	17.55
1.024	17.68
1.036	17.79
1.048	17.88
1.06	18
1.072	17.99
1.084	18.15
1.096	18.12
1.108	18.27
1.12	18.33
1.132	18.47
1.144	18.59
1.156	18.76
1.168	18.91
1.18	19.11
1.192	19.33
1.204	19.57
1.216	19.8
1.228	20.11
1.24	20.46
1.252	20.71
1.264	21.15
1.276	21.51
1.288	21.88
1.3	22.17
1.312	22.65
1.324	23.03
1.336	23.35
1.348	23.85
1.36	24.28
1.372	24.64
1.384	25.01
1.396	25.47
1.408	25.91
1.42	26.41
1.432	26.9
1.444	27.26
1.456	27.82
1.468	28.16
1.48	28.64
1.492	29.05
1.504	29.56
1.516	29.98
1.528	30.49
1.54	30.84
1.552	31.36
1.564	31.81
1.576	32.15
1.588	32.75
1.6	33.19
1.612	33.49
1.624	34.05
1.636	34.46
1.648	34.9
1.66	35.44
1.672	35.77
1.684	36.29
1.696	36.68
1.708	37.2
1.72	37.66
1.732	38.02
1.744	38.5
1.756	38.87
1.768	39.39
1.78	39.72
1.792	40.27
1.804	40.66
1.816	41
1.828	41.47
1.84	41.88
1.852	42.28
1.864	42.67
1.876	43.01
1.888	43.61
1.9	43.87
1.912	44.31
1.924	44.73
1.936	45.04
1.948	45.54
1.96	45.91
1.972	46.34
1.984	46.93
1.996	47.37
2.008	47.81
2.02	48.21
2.032	48.63
2.044	49.12
2.056	49.48
2.068	49.81
2.08	50.26
2.092	50.6
2.104	51.07
2.116	51.42
2.128	51.89
2.14	52.09
2.152	52.37
2.164	52.64
2.176	52.97
2.188	53.21
2.2	53.49
2.212	53.79
2.224	53.92
2.236	53.84
2.248	53.83
2.26	54.09
2.272	54.59
2.284	54.7
2.296	54.3
2.308	53.73
2.32	53.34
2.332	53.24
2.344	53.7
2.356	54.29
2.368	54.59
2.38	54.62
2.392	54.78
2.404	55.19
2.416	55.71
2.428	56.28
2.44	56.71
2.452	57.02
2.464	57.28
2.476	57.6
2.488	58.13
2.5	58.58
