Name: Hemimorphite Zn_4Si_2O_7(OH)_2.H_2O
Type: Mineral
Class: Silicate
Subclass: Sorosilicate
Particle Size: Medium
Sample No.: SS-2A
Owner: JPL
Wavelength Range: VSWIR
Origin: Mexico, Durango, Ojuela Mine
Description: Particle size was 45-125um.Collected by Burminco Original ASTER Spectral Library name was jpl.beckman.mineral.silicate.sorosilicate.medium.ss02a.spectrum.txt
Measurement: Hemispherical reflectance
X Units: Wavelength (micrometers)
Y Units: Reflectance (percent)
wavelength	value
0.4	85.26
0.403	85.39
0.406	85.59
0.409	85.63
0.412	85.63
0.415	85.76
0.418	85.81
0.421	85.93
0.424	86.07
0.427	86.06
0.43	86.05
0.433	86.41
0.436	86.41
0.439	86.54
0.442	86.62
0.445	86.5
0.448	86.85
0.451	86.72
0.454	86.93
0.457	86.89
0.46	87.07
0.463	87.06
0.466	87.12
0.469	87.11
0.472	87.24
0.475	87.33
0.478	87.44
0.481	87.53
0.484	87.47
0.487	87.5
0.49	87.45
0.493	87.62
0.496	87.71
0.499	87.68
0.502	87.87
0.505	87.7
0.508	87.92
0.511	88.04
0.514	88.22
0.517	88.04
0.52	88.11
0.523	88.13
0.526	88.36
0.529	88.28
0.532	88.23
0.535	88.22
0.538	88.22
0.541	88.39
0.544	88.41
0.547	88.27
0.55	88.53
0.553	88.52
0.556	88.63
0.559	88.65
0.562	89.05
0.565	89.11
0.568	89.1
0.571	89.05
0.574	88.92
0.577	88.97
0.58	88.71
0.583	88.95
0.586	88.84
0.589	88.95
0.592	88.95
0.595	89.07
0.598	89.15
0.601	89.11
0.604	89.09
0.607	89.17
0.61	89.24
0.613	89.18
0.616	89.13
0.619	89.06
0.622	89.13
0.625	89.19
0.628	89.02
0.631	89.23
0.634	89.03
0.637	89.13
0.64	89.07
0.643	89.18
0.646	89.19
0.649	89.12
0.652	89.25
0.655	89.18
0.658	89.29
0.661	89.25
0.664	89.25
0.667	89.24
0.67	89.24
0.673	89.37
0.676	89.19
0.679	89.3
0.682	89.3
0.685	89.2
0.688	89.31
0.691	89.19
0.694	89.23
0.697	89.18
0.7	89.2
0.703	89.18
0.706	89.13
0.709	89.08
0.712	89.18
0.715	89.08
0.718	89.3
0.721	89.14
0.724	88.96
0.727	89.02
0.73	89.02
0.733	89.06
0.736	88.85
0.739	88.63
0.742	88.78
0.745	88.85
0.748	88.85
0.751	88.85
0.754	88.69
0.757	88.85
0.76	88.92
0.763	88.86
0.766	88.97
0.769	88.75
0.772	88.86
0.775	88.98
0.778	88.8
0.781	88.99
0.784	88.81
0.787	88.98
0.79	88.93
0.793	89.03
0.796	89.03
0.799	88.99
0.808	89.14
0.82	89.01
0.832	89
0.844	88.99
0.856	89.15
0.868	89.33
0.88	89.21
0.892	89.1
0.904	88.97
0.916	88.9
0.928	88.46
0.94	87.48
0.952	86.01
0.964	84.17
0.976	84.37
0.988	86.05
1	87.37
1.012	88.14
1.024	88.57
1.036	89.02
1.048	89.17
1.06	89.16
1.072	89.12
1.084	89.12
1.096	88.97
1.108	88.45
1.12	87.91
1.132	86.85
1.144	83.66
1.156	81.06
1.168	82.91
1.18	84.19
1.192	84.46
1.204	85.23
1.216	85.54
1.228	85.76
1.24	85.79
1.252	85.52
1.264	85.1
1.276	84.72
1.288	84.42
1.3	83.66
1.312	82.26
1.324	80.3
1.336	78.13
1.348	75.56
1.36	72.58
1.372	68.55
1.384	61.33
1.396	51.43
1.408	42.22
1.42	40.51
1.432	46.2
1.444	52.09
1.456	55.07
1.468	57.28
1.48	62.17
1.492	66.04
1.504	68.96
1.516	71.25
1.528	73.17
1.54	74.75
1.552	76.07
1.564	77.14
1.576	78.18
1.588	78.84
1.6	79.63
1.612	80.24
1.624	80.69
1.636	81.14
1.648	81.62
1.66	81.81
1.672	81.76
1.684	81.66
1.696	81.24
1.708	80.47
1.72	79.39
1.732	77.89
1.744	75.9
1.756	73.36
1.768	70.39
1.78	67.13
1.792	64.16
1.804	61.76
1.816	60.23
1.828	59.22
1.84	58.67
1.852	58.1
1.864	55.3
1.876	49.17
1.888	40.02
1.9	29.19
1.912	25.39
1.924	30.67
1.936	37.76
1.948	41.31
1.96	42.65
1.972	44.54
1.984	48
1.996	51.84
2.008	54.85
2.02	57.33
2.032	59.11
2.044	60.46
2.056	61.28
2.068	61.73
2.08	61.95
2.092	61.9
2.104	61.58
2.116	60.81
2.128	59.71
2.14	58.09
2.152	56.5
2.164	54.85
2.176	52.9
2.188	50.99
2.2	49.61
2.212	48.94
2.224	49.27
2.236	50.01
2.248	50.96
2.26	51.47
2.272	51.68
2.284	51.34
2.296	50.58
2.308	49.26
2.32	47.52
2.332	45.13
2.344	41.97
2.356	38.75
2.368	35.98
2.38	33.92
2.392	32.34
2.404	31.1
2.416	29.95
2.428	28.89
2.44	27.82
2.452	26.77
2.464	25.52
2.476	24.2
2.488	22.65
2.5	21.17
