Name: Celestite SrSO_4
Type: Mineral
Class: Sulfate
Subclass: None
Particle Size: Medium
Sample No.: SO-5A
Owner: JPL
Wavelength Range: VSWIR
Origin: USA, Utah, Emery County.
Description: Particle size was 45-125um. Collected by:  Grieger's Inc. Original ASTER Spectral Library name was jpl.perkin.mineral.sulfate.none.medium.so05a.spectrum.txt
Measurement: Hemispherical reflectance
X Units: Wavelength (micrometers)
Y Units: Reflectance (percent)
wavelength	value
2.5	84.9423
2.494	84.7666
2.488	84.7537
2.482	84.8665
2.476	84.806
2.47	84.8919
2.464	85.0088
2.458	84.9678
2.452	85.1181
2.446	85.3382
2.44	85.4182
2.434	85.4218
2.428	85.5179
2.422	85.6409
2.416	85.5954
2.41	85.8343
2.404	85.9034
2.398	85.7882
2.392	85.9327
2.386	86.0647
2.38	86.0608
2.374	86.2662
2.368	86.395
2.362	86.4969
2.356	86.5677
2.35	86.5605
2.344	86.6299
2.338	86.6376
2.332	86.7103
2.326	86.685
2.32	86.5243
2.314	86.5518
2.308	86.538
2.302	86.505
2.296	86.6192
2.29	86.5398
2.284	86.5086
2.278	86.5902
2.272	86.5871
2.266	86.5713
2.26	86.6727
2.254	86.5308
2.248	86.6022
2.242	86.6598
2.236	86.741
2.23	86.7712
2.224	86.7983
2.218	86.9555
2.212	86.991
2.206	87.19
2.2	87.2289
2.194	87.4025
2.188	87.3615
2.182	87.5923
2.176	87.6711
2.17	87.8283
2.164	87.941
2.158	88.1319
2.152	88.2318
2.146	88.3101
2.14	88.246
2.134	88.0083
2.128	87.9736
2.122	87.79
2.116	87.5489
2.11	87.2001
2.104	86.9129
2.098	86.7628
2.092	86.7944
2.086	86.9458
2.08	87.0325
2.074	87.0929
2.068	87.1578
2.062	87.2486
2.056	87.2583
2.05	87.415
2.044	87.4311
2.038	87.5487
2.032	87.5424
2.026	87.5879
2.02	87.5743
2.014	87.5306
2.008	87.5303
2.002	87.5241
1.996	87.4295
1.99	87.4669
1.984	87.2789
1.978	87.2345
1.972	87.2116
1.966	87.1617
1.96	87.0579
1.954	87.029
1.948	87.0287
1.942	87.0205
1.936	87.0032
1.93	87.1583
1.924	87.1879
1.918	87.3333
1.912	87.4691
1.906	87.5442
1.9	87.6796
1.894	87.8657
1.888	87.9072
1.882	87.9344
1.876	88.1932
1.87	88.0917
1.864	88.164
1.858	88.1492
1.852	88.3075
1.846	88.2074
1.84	88.2972
1.834	88.2607
1.828	88.3693
1.822	88.2631
1.816	88.2954
1.81	88.3633
1.804	88.3162
1.798	88.4327
1.792	88.3372
1.786	88.3148
1.78	88.3079
1.774	88.2063
1.768	88.2567
1.762	88.2895
1.756	88.2833
1.75	88.3199
1.744	88.2864
1.738	88.293
1.732	88.3009
1.726	88.4126
1.72	88.4431
1.714	88.3406
1.708	88.408
1.702	88.3346
1.696	88.3954
1.69	88.3519
1.684	88.3359
1.678	88.3706
1.672	88.3333
1.666	88.4162
1.66	88.4402
1.654	88.2811
1.648	88.3302
1.642	88.2652
1.636	88.3965
1.63	88.4408
1.624	88.3702
1.618	88.3334
1.612	88.3758
1.606	88.419
1.6	88.3461
1.594	88.4125
1.588	88.4285
1.582	88.4029
1.576	88.3354
1.57	88.3411
1.564	88.3628
1.558	88.3145
1.552	88.2711
1.546	88.3776
1.54	88.3762
1.534	88.2823
1.528	88.2453
1.522	88.3132
1.516	88.2957
1.51	88.2733
1.504	88.2357
1.498	88.1976
1.492	88.1913
1.486	88.2136
1.48	88.2319
1.474	88.1152
1.468	88.1341
1.462	88.1521
1.456	88.1562
1.45	88.2253
1.444	88.1185
1.438	88.1967
1.432	88.134
1.426	88.1321
1.42	88.223
1.414	88.1463
1.408	88.1622
1.402	88.2099
1.396	88.2499
1.39	88.4152
1.384	88.2466
1.378	88.3336
1.372	88.3428
1.366	88.3411
1.36	88.3914
1.354	88.3032
1.348	88.307
1.342	88.293
1.336	88.2239
1.33	88.339
1.324	88.1869
1.318	88.2184
1.312	88.305
1.306	88.1975
1.3	88.2484
1.294	88.2815
1.288	88.1636
1.282	88.2054
1.276	88.189
1.27	88.2182
1.264	88.2144
1.258	88.0842
1.252	88.1678
1.246	88.1682
1.24	88.0854
1.234	88.1787
1.228	88.1444
1.222	88.1511
1.216	88.0656
1.21	88.1123
1.204	88.1242
1.198	88.0809
1.192	88.0617
1.186	87.9883
1.18	88.0598
1.174	88.074
1.168	88.107
1.162	88.12
1.156	88.0792
1.15	88.1268
1.144	88.136
1.138	88.0965
1.132	88.1664
1.126	88.1289
1.12	88.0619
1.114	88.0587
1.108	88.1254
1.102	88.0914
1.096	88.0901
1.09	88.0799
1.084	88.1179
1.078	88.0501
1.072	88.1158
1.066	88.1867
1.06	88.0906
1.054	87.9986
1.048	87.947
1.042	88.1159
1.036	88.0718
1.03	88.0501
1.024	88.0866
1.018	88.1132
1.012	88.1253
1.006	87.9949
1	88.0759
0.994	88.0784
0.988	88.0759
0.982	88.1463
0.976	88.1276
0.97	88.0602
0.964	88.0801
0.958	88.1079
0.952	88.0759
0.946	88.0316
0.94	88.1316
0.934	88.0619
0.928	88.0933
0.922	88.0657
0.916	88.0894
0.91	88.0227
0.904	88.0764
0.898	88.0386
0.892	87.9905
0.886	87.9758
0.88	88.1072
0.874	88.0052
0.868	87.9193
0.862	88.0318
0.856	88.0267
0.85	88.0298
0.844	87.9536
0.838	87.9765
0.832	87.9358
0.826	87.8951
0.82	87.8295
0.814	87.7984
0.808	87.7607
0.802	87.6299
0.796	87.4798
0.79	87.4346
0.784	87.305
0.778	87.2106
0.772	87.0455
0.766	86.8925
0.76	86.778
0.754	86.6899
0.748	86.5279
0.742	86.3658
0.736	86.2846
0.73	86.1491
0.724	86.0287
0.718	85.8875
0.712	85.7515
0.706	85.6086
0.7	85.4443
0.694	85.3072
0.688	85.1199
0.682	84.9444
0.676	84.7845
0.67	84.5825
0.664	84.3758
0.658	84.1699
0.652	83.9716
0.646	83.7795
0.64	83.6084
0.634	83.4296
0.628	83.3265
0.622	83.2124
0.616	83.169
0.61	83.131
0.604	83.1406
0.598	83.1683
0.592	83.2535
0.586	83.3147
0.58	83.3538
0.574	83.4252
0.568	83.4748
0.562	83.5327
0.556	83.5842
0.55	83.5992
0.544	83.649
0.538	83.6835
0.532	83.7098
0.526	83.7251
0.52	83.7086
0.514	83.6841
0.508	83.6454
0.502	83.565
0.496	83.4495
0.49	83.3301
0.484	83.18
0.478	83.0538
0.472	82.9722
0.466	82.7979
0.46	82.6382
0.454	82.4596
0.448	82.2122
0.442	82.0054
0.436	81.687
0.43	81.4612
0.424	81.1839
0.418	80.9656
0.412	80.7726
0.406	80.582
0.4	80.3697
