Name: Clinochlore (Chlorite) (Mg,Al)_6(Si,Al)_4O_10(OH)_8
Type: Mineral
Class: Silicate
Subclass: Phyllosilicate
Particle Size: Fine
Sample No.: PS-12A
Owner: JPL
Wavelength Range: TIR
Origin: USA, California, El Dorado County, Flagstaff Hill
Description: Particle size was 0-45um.Collected by Clay Mineral Society Original ASTER Spectral Library name was jpl.nicolet.mineral.silicate.phyllosilicate.fine.ps12a.spectrum.txt
Measurement: Hemispherical reflectance
X Units: Wavelength (micrometers)
Y Units: Reflectance (percent)
wavelength	value
15.3853	2.9349
15.1161	2.6353
14.8563	2.5724
14.6052	1.886
14.3624	2.0679
14.1276	2.0293
13.9004	2.1355
13.6803	2.1176
13.4671	2.5828
13.2604	2.7103
13.06	2.5192
12.8656	1.9763
12.6769	1.6587
12.4936	1.617
12.3155	1.6965
12.1425	1.7809
11.9742	1.974
11.8106	3.0286
11.6513	3.343
11.4963	3.7382
11.3454	3.8234
11.1983	3.9398
11.0551	4.3393
10.9154	4.4554
10.7793	4.5783
10.6465	5.0267
10.5169	5.2192
10.3904	5.6345
10.267	6.2181
10.1464	7.4132
10.0287	8.5374
9.9136	8.4182
9.8012	8.624
9.6913	7.8857
9.5838	7.0588
9.4787	6.9838
9.3758	7.0174
9.2752	5.5899
9.1767	4.1571
9.0803	3.0389
8.9858	1.7367
8.8934	1.2657
8.8028	0.9855
8.714	1.0421
8.627	1.4606
8.5417	2.019
8.4581	2.9297
8.3761	3.709
8.2957	4.772
8.2169	5.9291
8.1395	6.9543
8.0635	7.7028
7.989	8.6756
7.9158	9.6612
7.8439	10.3745
7.7734	11.0625
7.7041	11.8015
7.636	12.4931
7.5691	13.0182
7.5034	13.5992
7.4388	14.0195
7.3753	14.604
7.3129	15.1706
7.2515	15.7618
7.1912	16.2707
7.1318	16.6791
7.0734	17.0007
7.016	17.4462
6.9595	18.1813
6.9039	18.4112
6.8492	18.6172
6.7953	18.7849
6.7423	18.3853
6.6901	18.5379
6.6387	18.6921
6.5881	17.8984
6.5382	17.2391
6.4892	17.2387
6.4408	16.0595
6.3931	15.4776
6.3462	15.1906
6.2999	14.8265
6.2543	14.8444
6.2094	15.029
6.1651	15.3252
6.1214	15.616
6.0784	15.8724
6.0359	16.2236
5.994	16.6895
5.9527	16.8693
5.912	17.0861
5.8718	17.7071
5.8322	18.1472
5.7931	18.6717
5.7545	19.4817
5.7165	20.2454
5.6789	20.5419
5.6418	21.041
5.6052	20.9066
5.5691	21.2354
5.5334	21.6335
5.4982	21.8717
5.4635	22.5179
5.4291	22.5025
5.3952	22.5657
5.3618	22.4886
5.3287	22.6048
5.2961	22.7802
5.2638	23.2727
5.2319	23.9183
5.2004	24.5651
5.1693	25.0808
5.1386	25.372
5.1082	25.5921
5.0782	25.6405
5.0485	25.5882
5.0192	25.5995
4.9902	25.7417
4.9616	26.1525
4.9332	26.9652
4.9052	27.9875
4.8776	29.2644
4.8502	30.3691
4.8231	31.2874
4.7963	32.3973
4.7699	33.3387
4.7437	34.8617
4.7178	36.559
4.6922	37.9774
4.6668	39.2099
4.6418	39.9876
4.617	40.8717
4.5924	42.045
4.5681	43.4491
4.5441	44.3413
4.5203	45.0052
4.4968	45.6026
4.4735	46.25
4.4505	46.8252
4.4277	47.3694
4.4051	47.8916
4.3828	48.2836
4.3607	48.6592
4.3388	49.0807
4.3171	49.4081
4.2956	49.6505
4.2744	49.9358
4.2534	50.2782
4.2325	50.5791
4.2119	50.8527
4.1915	51.0209
4.1712	51.1956
4.1512	51.4479
4.1313	51.6659
4.1117	51.7548
4.0922	52.0178
4.0729	52.0237
4.0538	52.0727
4.0349	52.1437
4.0161	52.122
3.9976	51.9794
3.9792	51.8328
3.9609	51.9201
3.9428	51.8491
3.9249	51.7653
3.9072	51.506
3.8896	51.3889
3.8722	51.1541
3.8549	50.8676
3.8378	50.5808
3.8208	50.4779
3.804	50.0705
3.7873	49.6909
3.7708	49.5224
3.7544	49.0561
3.7382	48.6898
3.7221	48.2911
3.7061	47.7912
3.6903	47.5008
3.6746	47.0493
3.659	46.5847
3.6436	46.0584
3.6283	45.5456
3.6131	44.8573
3.5981	44.3567
3.5832	43.4508
3.5684	42.4146
3.5537	41.9224
3.5391	41.4958
3.5247	40.685
3.5104	39.9193
3.4962	39.302
3.4821	38.7365
3.4681	38.3076
3.4543	37.7234
3.4405	37.0485
3.4269	36.3202
3.4133	35.3602
3.3999	34.998
3.3866	34.4779
3.3733	33.8908
3.3602	33.325
3.3472	32.8402
3.3343	32.0274
3.3215	31.4799
3.3088	30.6845
3.2961	29.9139
3.2836	29.2208
3.2712	28.5094
3.2588	27.6356
3.2466	26.81
3.2345	25.7735
3.2224	24.7797
3.2104	23.664
3.1985	22.5647
3.1867	21.3726
3.175	20.2929
3.1634	19.0655
3.1519	17.9936
3.1404	16.8753
3.129	15.741
3.1178	14.4276
3.1065	13.594
3.0954	12.4841
3.0844	11.5004
3.0734	10.6141
3.0625	9.7717
3.0517	9.1506
3.041	8.1505
3.0303	7.704
3.0197	7.1474
3.0092	6.6208
2.9987	6.0483
2.9884	5.8368
2.9781	5.3079
2.9678	5.1485
2.9577	4.8964
2.9476	4.5576
2.9376	4.3858
2.9276	4.4748
2.9177	4.3648
2.9079	4.7208
2.8982	4.7288
2.8885	4.8535
2.8789	5.3728
2.8693	5.4249
2.8598	5.5239
2.8504	5.2508
2.841	5.0702
2.8317	4.9922
2.8224	4.5451
2.8133	4.3971
2.8041	4.7704
2.7951	5.158
2.786	6.7082
2.7771	9.1544
2.7682	11.6751
2.7594	12.0826
2.7506	12.5982
2.7418	13.7019
2.7332	14.6847
2.7246	17.697
2.716	24.8037
2.7075	35.2974
2.699	40.3113
2.6906	46.3891
2.6823	49.6054
2.674	51.433
2.6657	53.5407
2.6575	53.0927
2.6494	53.5804
2.6413	54.2131
2.6332	54.8321
2.6252	54.9399
2.6173	55.5781
2.6094	55.1838
2.6015	55.1384
2.5937	56.132
2.5859	55.4455
2.5782	55.2798
2.5706	55.7084
2.5629	56.0239
2.5554	55.672
2.5478	56.0775
2.5403	56.2099
2.5329	56.6186
2.5255	56.6294
2.5181	56.8732
2.5108	57.1409
2.5035	57.203
2.4963	57.3185
2.4891	57.4613
2.482	58.0181
2.4749	58.4828
2.4678	58.9887
2.4608	59.6459
2.4538	60.3026
2.4468	60.7056
2.4399	60.9328
2.4331	61.0142
2.4262	61.1498
2.4194	61.0245
2.4127	60.9215
2.4059	60.5087
2.3993	60.2026
2.3926	60.0747
2.386	59.4536
2.3795	58.5633
2.3729	57.4114
2.3664	56.0007
2.36	54.51
2.3535	53.6275
2.3471	53.3096
2.3408	53.5141
2.3345	54.1014
2.3282	54.9855
2.3219	55.7184
2.3157	56.2609
2.3095	56.7786
2.3034	57.1788
2.2972	57.8437
2.2911	58.7325
2.2851	59.2588
2.279	59.6399
2.2731	59.5069
2.2671	58.6007
2.2612	57.6778
2.2553	56.9405
2.2494	57.7776
2.2435	60.2056
2.2377	62.7662
2.232	64.6493
2.2262	65.7809
2.2205	66.4595
2.2148	66.6811
2.2091	67.0277
2.2035	67.1259
2.1979	67.397
2.1923	67.8093
2.1868	67.8904
2.1812	68.1794
2.1758	68.1683
2.1703	68.2689
2.1649	68.1255
2.1595	68.2616
2.1541	68.2067
2.1487	68.3924
2.1434	68.3294
2.1381	68.2164
2.1328	68.0689
2.1275	68.1073
2.1223	68.1168
2.1171	68.0898
2.112	67.9808
2.1068	68.0424
2.1017	68.0998
2.0966	67.9623
2.0915	67.675
2.0865	67.8421
2.0814	67.5496
2.0764	67.4913
2.0715	67.1346
2.0665	67.2279
2.0616	67.335
2.0567	66.9539
2.0518	66.7641
2.0469	66.49
2.0421	66.2385
2.0373	66.0548
2.0325	65.7536
2.0277	65.1365
2.0229	65.0154
2.0182	64.563
2.0135	64.0168
2.0088	64.1425
2.0042	63.7806
