Name: Hornblende Ca2(Fe2+,Mg)4Al(Si7,Al)O22(OH,F)2
Type: Mineral
Class: Silicate
Subclass: Inosilicate
Particle Size: Solid
Sample No.: hornblen_2
Owner: JHU
Wavelength Range: TIR
Origin: Kragero, Norway via the Smithsonian (sample no. NMNH117329).
Description: Sample was a fragment of a black crystal, contaminated on one end with a clay coating and surficial quartz crystals; this surficial contamination was scraped off. There appeared to be a small amount of internal contamination by a fibrous mineral. Very few grains showed mild alteration; there was about 1% contamination by a low refractive index mineral with low birefringence. Sample had cleavage face. (Amphibole Group) Original ASTER Spectral Library name was jhu.nicolet.mineral.silicate.inosilicate.solid.hornbl2.spectrum.txt
Measurement: Bidirectional reflectance
X Units: Wavelength (micrometers)
Y Units: Reflectance (percent)
wavelength	value
25.0442	19.0771
24.3388	20.5976
23.6719	22.809
23.0407	26.5937
22.4422	32.2306
21.8741	34.3088
21.334	33.2958
20.8199	34.9452
20.33	34.7152
19.8627	36.1381
19.4163	39.5087
18.9896	42.5639
18.5812	40.831
18.19	37.143
17.815	36.6901
17.4551	28.6752
17.1094	17.0419
16.7772	9.6853
16.4576	7.2375
16.15	6.8493
15.8537	7.3657
15.568	8.1672
15.2925	8.5803
15.0265	8.7219
14.7697	9.5898
14.5214	10.5012
14.2814	8.9416
14.0492	8.0263
13.8244	8.4333
13.6067	8.9389
13.3957	9.8108
13.1912	11.5549
12.9929	9.133
12.8004	8.8843
12.6135	9.458
12.432	10.0227
12.2557	10.5488
12.0843	11.0351
11.9176	11.6591
11.7555	12.2544
11.5977	12.8872
11.444	13.5717
11.2944	14.6423
11.1487	15.7837
11.0067	17.2407
10.8682	18.2619
10.7332	18.0571
10.6015	22.9265
10.473	27.7851
10.3476	30.2487
10.2251	32.2546
10.1056	34.7709
9.9887	34.2751
9.8746	30.2336
9.763	23.6967
9.6539	24.4885
9.5472	24.758
9.4429	25.7729
9.3408	26.4548
9.2409	26.0771
9.1431	24.5466
9.0474	23.4894
8.9536	24.3845
8.8618	25.0124
8.7718	25.2985
8.6837	22.1708
8.5973	16.3249
8.5126	11.3244
8.4295	6.8979
8.3481	3.7593
8.2682	2.6658
8.1898	2.7368
8.1129	3.0251
8.0374	3.3474
7.9634	3.6601
7.8906	3.9394
7.8192	4.2204
7.7491	4.4675
7.6802	4.7024
7.6126	4.905
7.5461	5.0845
7.4807	5.2373
7.4165	5.3931
7.3534	5.5447
7.2914	5.697
7.2303	5.8169
7.1703	5.9531
7.1113	6.0766
7.0533	6.1821
6.9962	6.2954
6.94	6.3928
6.8847	6.4936
6.8302	6.5962
6.7767	6.7212
6.7239	6.8308
6.672	6.9302
6.6209	7.0295
6.5705	7.1062
6.5209	7.1653
6.4721	7.2014
6.424	7.2019
6.3766	7.1877
6.3299	7.1206
6.2838	7.041
6.2385	7.0124
6.1937	7.0129
6.1496	7.0383
6.1062	7.0827
6.0633	7.1865
6.0211	7.2622
5.9794	7.2356
5.9383	7.2273
5.8978	7.3491
5.8578	7.4939
5.8184	7.5683
5.7794	7.6687
5.741	7.7678
5.7031	7.8012
5.6657	7.8467
5.6288	7.9048
5.5924	7.9953
5.5564	8.1079
5.5209	8.2136
5.4859	8.2138
5.4513	8.2864
5.4171	8.3496
5.3833	8.3447
5.35	8.301
5.3171	8.416
5.2846	8.5107
5.2524	8.654
5.2207	8.8957
5.1893	8.9463
5.1584	8.8984
5.1277	8.895
5.0975	8.9514
5.0676	9.0207
5.038	9.105
5.0088	9.1914
4.98	9.2761
4.9514	9.3572
4.9232	9.4621
4.8953	9.549
4.8678	9.6179
4.8405	9.6281
4.8135	9.6704
4.7868	9.8452
4.7605	10.0395
4.7344	10.218
4.7086	10.3547
4.6831	10.5219
4.6578	10.7295
4.6328	10.9458
4.6081	11.1487
4.5837	11.2986
4.5595	11.4917
4.5356	11.6323
4.5119	11.7434
4.4884	11.8379
4.4652	11.9436
4.4423	12.0207
4.4196	12.0964
4.3971	12.1606
4.3748	12.2053
4.3528	12.2253
4.331	12.2844
4.3094	12.3166
4.288	12.3525
4.2668	12.3833
4.2458	12.4301
4.2251	12.4714
4.2045	12.4773
4.1841	12.5212
4.164	12.5615
4.144	12.5757
4.1242	12.6086
4.1046	12.6535
4.0852	12.7016
4.066	12.7385
4.047	12.7712
4.0281	12.8012
4.0094	12.8315
3.9909	12.8518
3.9725	12.8913
3.9544	12.9233
3.9363	12.9546
3.9185	12.9926
3.9008	13.0368
3.8833	13.0595
3.8659	13.0842
3.8487	13.1074
3.8316	13.122
3.8147	13.1401
3.7979	13.1599
3.7813	13.1848
3.7648	13.2038
3.7485	13.2036
3.7323	13.2099
3.7162	13.2168
3.7003	13.207
3.6845	13.2304
3.6689	13.2253
3.6534	13.2299
3.638	13.2295
3.6227	13.2365
3.6076	13.2324
3.5926	13.2282
3.5777	13.2114
3.563	13.1936
3.5484	13.1765
3.5338	13.1433
3.5195	13.0722
3.5052	12.8952
3.491	12.9743
3.477	12.9787
3.463	12.9929
3.4492	12.9074
3.4355	12.7768
3.4219	12.5505
3.4084	12.5666
3.395	12.6421
3.3817	12.601
3.3685	12.6198
3.3554	12.6303
3.3425	12.6169
3.3296	12.6455
3.3168	12.6526
3.3041	12.666
3.2915	12.718
3.279	12.7326
3.2666	12.7138
3.2543	12.6579
3.2421	12.6147
3.23	12.5683
3.218	12.5329
3.206	12.4912
3.1942	12.4301
3.1824	12.3603
3.1707	12.332
3.1591	12.3259
3.1476	12.2924
3.1362	12.2505
3.1249	12.1933
3.1136	12.1413
3.1024	12.1277
3.0913	12.0935
3.0803	12.051
3.0694	12.0112
3.0585	11.969
3.0477	11.9253
3.037	11.893
3.0264	11.8618
3.0158	11.7883
3.0053	11.7656
2.9949	11.7258
2.9845	11.6902
2.9743	11.6211
2.9641	11.5947
2.9539	11.5945
2.9439	11.5942
2.9339	11.5732
2.9239	11.5493
2.9141	11.5473
2.9043	11.5368
2.8946	11.5293
2.8849	11.5122
2.8753	11.5009
2.8658	11.4856
2.8563	11.4834
2.8469	11.5166
2.8375	11.519
2.8282	11.4873
2.819	11.4824
2.8098	11.5263
2.8007	11.601
2.7917	11.6684
2.7827	11.6299
2.7738	11.374
2.7649	10.9062
2.7561	10.2822
2.7473	9.5959
2.7386	9.6167
2.7299	8.6299
2.7213	8.4848
2.7128	11.2226
2.7043	11.2373
2.6959	11.313
2.6875	11.8139
2.6791	12.7827
2.6709	13.5405
2.6626	13.6775
2.6545	13.634
2.6463	13.5822
2.6382	13.5835
2.6302	13.5454
2.6222	13.5466
2.6143	13.5324
2.6064	13.4897
2.5986	13.5234
2.5908	13.4863
2.583	13.4467
2.5753	13.4611
2.5677	13.4336
2.5601	13.4084
2.5525	13.4094
2.545	13.4528
2.5375	13.4467
2.5301	13.4455
2.5227	13.4004
2.5154	13.3608
2.5081	13.3684
2.5008	13.3393
2.4936	13.3576
2.4864	13.313
2.4793	13.2959
2.4722	13.31
2.4651	13.2382
2.4581	13.2783
2.4511	13.3361
2.4442	13.2912
2.4373	13.2717
2.4305	13.2983
2.4236	13.2187
2.4169	13.0959
2.4101	13.0324
2.4034	12.8606
2.3967	12.6103
2.3901	12.4511
2.3835	12.5022
2.377	12.7395
2.3704	12.9348
2.364	13.0774
2.3575	13.1584
2.3511	13.1601
2.3447	13.1154
2.3384	12.8479
2.3321	12.5031
2.3258	12.2014
2.3195	12.0996
2.3133	12.123
2.3071	12.2827
2.301	12.4101
2.2949	12.6172
2.2888	12.9179
2.2828	13.1064
2.2767	13.31
2.2708	13.4287
2.2648	13.5341
2.2589	13.5717
2.253	13.5102
2.2471	13.5454
2.2413	13.6562
2.2355	13.7983
2.2297	13.8071
2.224	13.8579
2.2183	13.8466
2.2126	13.8925
2.207	13.8662
2.2013	13.9463
2.1957	13.9199
2.1902	13.9707
2.1846	13.9712
2.1791	13.9716
2.1736	14.0005
2.1682	14.0957
2.1628	14.0654
2.1574	14.0883
2.152	14.0439
2.1466	14.0825
2.1413	14.1347
2.136	14.1274
2.1308	14.0996
2.1255	14.1181
2.1203	14.1679
2.1151	14.1914
2.11	14.2656
2.1048	14.2309
2.0997	14.2934
2.0946	14.3408
2.0895	14.3559
2.0845	14.3828
2.0795	14.3613
