Name: Jarosite KFe_3^3+(SO_4)_2(OH)_6
Type: Mineral
Class: Sulfate
Subclass: None
Particle Size: Medium
Sample No.: SO-7A
Owner: JPL
Wavelength Range: VSWIR
Origin: Mexico, Chihuahua
Description: Particle size was 45-125um.Collected by Ward's Original ASTER Spectral Library name was jpl.beckman.mineral.sulfate.none.medium.so07a.spectrum.txt
Measurement: Hemispherical reflectance
X Units: Wavelength (micrometers)
Y Units: Reflectance (percent)
wavelength	value
0.4	4.14
0.403	4.25
0.406	4.62
0.409	4.79
0.412	5.08
0.415	5.32
0.418	5.63
0.421	5.78
0.424	5.92
0.427	6.09
0.43	6.16
0.433	6.27
0.436	6.26
0.439	6.44
0.442	6.69
0.445	7.09
0.448	7.51
0.451	7.8
0.454	8.32
0.457	8.67
0.46	8.92
0.463	9.47
0.466	9.89
0.469	10.3
0.472	10.75
0.475	11.1
0.478	11.64
0.481	12.1
0.484	12.68
0.487	13.11
0.49	13.52
0.493	14.04
0.496	14.5
0.499	14.91
0.502	15.28
0.505	15.61
0.508	15.98
0.511	16.29
0.514	16.63
0.517	16.94
0.52	17.13
0.523	17.38
0.526	17.65
0.529	17.97
0.532	18.16
0.535	18.29
0.538	18.64
0.541	18.83
0.544	19.1
0.547	19.37
0.55	19.57
0.553	19.87
0.556	20.12
0.559	20.28
0.562	20.71
0.565	20.95
0.568	21.28
0.571	21.49
0.574	21.79
0.577	22.1
0.58	22.41
0.583	22.78
0.586	23.05
0.589	23.62
0.592	23.98
0.595	24.41
0.598	24.89
0.601	25.37
0.604	25.94
0.607	26.48
0.61	26.94
0.613	27.41
0.616	27.9
0.619	28.46
0.622	28.98
0.625	29.45
0.628	29.98
0.631	30.38
0.634	30.91
0.637	31.26
0.64	31.7
0.643	32.17
0.646	32.49
0.649	32.93
0.652	33.35
0.655	33.76
0.658	34.06
0.661	34.36
0.664	34.77
0.667	35.16
0.67	35.46
0.673	35.84
0.676	36.08
0.679	36.48
0.682	36.91
0.685	37.29
0.688	37.53
0.691	37.87
0.694	38.27
0.697	38.52
0.7	38.78
0.703	39.2
0.706	39.64
0.709	39.89
0.712	40.12
0.715	40.38
0.718	40.62
0.721	40.82
0.724	40.99
0.727	41.16
0.73	41.13
0.733	41.3
0.736	41.37
0.739	41.3
0.742	41.28
0.745	41.13
0.748	40.95
0.751	40.76
0.754	40.64
0.757	40.54
0.76	40.12
0.763	39.84
0.766	39.52
0.769	39.24
0.772	38.95
0.775	38.61
0.778	38.2
0.781	37.97
0.784	37.64
0.787	37.34
0.79	37.07
0.793	36.63
0.796	36.32
0.799	36.19
0.808	35.53
0.82	34.32
0.832	33.29
0.844	32.5
0.856	31.83
0.868	31.32
0.88	30.9
0.892	30.66
0.904	30.53
0.916	30.61
0.928	30.9
0.94	31.16
0.952	31.68
0.964	32.28
0.976	33.04
0.988	33.9
1	34.74
1.012	35.87
1.024	36.9
1.036	37.91
1.048	39.02
1.06	40.18
1.072	41.3
1.084	42.48
1.096	43.73
1.108	44.98
1.12	46.28
1.132	47.59
1.144	48.93
1.156	50.32
1.168	51.69
1.18	53.11
1.192	54.51
1.204	55.83
1.216	57.1
1.228	58.46
1.24	59.8
1.252	61.11
1.264	62.29
1.276	63.67
1.288	64.94
1.3	66.08
1.312	67.19
1.324	68.31
1.336	69.46
1.348	70.5
1.36	71.43
1.372	72.39
1.384	73.04
1.396	73.46
1.408	73.57
1.42	73.79
1.432	73.83
1.444	73.68
1.456	72.78
1.468	71.53
1.48	71.18
1.492	72.46
1.504	73.26
1.516	73.36
1.528	73.47
1.54	73.74
1.552	74.08
1.564	74.36
1.576	74.55
1.588	74.69
1.6	74.72
1.612	74.59
1.624	74.35
1.636	74.19
1.648	74.08
1.66	73.88
1.672	73.76
1.684	73.58
1.696	73.29
1.708	72.88
1.72	72.54
1.732	72.01
1.744	71.42
1.756	70.81
1.768	70.26
1.78	69.69
1.792	69.11
1.804	68.64
1.816	67.98
1.828	67
1.84	65.83
1.852	64.71
1.864	64.34
1.876	64.68
1.888	65.13
1.9	64.83
1.912	64.48
1.924	64.12
1.936	63.86
1.948	64
1.96	64.1
1.972	64.4
1.984	64.68
1.996	64.88
2.008	64.96
2.02	65.04
2.032	65.02
2.044	64.97
2.056	64.9
2.068	64.72
2.08	64.61
2.092	64.42
2.104	64.19
2.116	63.94
2.128	63.54
2.14	63.06
2.152	62.5
2.164	61.88
2.176	61.08
2.188	60.16
2.2	59.27
2.212	58.32
2.224	57.22
2.236	55.88
2.248	54.33
2.26	52.64
2.272	51.41
2.284	51.13
2.296	51.67
2.308	52.86
2.32	54.19
2.332	55.16
2.344	55.59
2.356	55.32
2.368	54.63
2.38	53.58
2.392	52.51
2.404	51.63
2.416	50.76
2.428	49.86
2.44	49.09
2.452	48.51
2.464	48.07
2.476	47.74
2.488	47.58
2.5	47.32
