Name: Beryl Be_3Al_2Si_6O_18
Type: Mineral
Class: Silicate
Subclass: Cyclosilicate
Particle Size: Medium
Sample No.: CS-2A
Owner: JPL
Wavelength Range: TIR
Origin: Brazil, Minas Gerais
Description: Particle size was 45-125um.Collected by Ward's Original ASTER Spectral Library name was jpl.nicolet.mineral.silicate.cyclosilicate.medium.cs02a.spectrum.txt
Measurement: Hemispherical reflectance
X Units: Wavelength (micrometers)
Y Units: Reflectance (percent)
wavelength	value
15.3853	6.9936
15.1161	7.0458
14.8563	12.2087
14.6052	19.6086
14.3624	16.2326
14.1276	4.7553
13.9004	4.6371
13.6803	7.5777
13.4671	10.8622
13.2604	11.7928
13.06	6.8211
12.8656	3.6603
12.6769	5.6355
12.4936	8.8513
12.3155	10.9274
12.1425	8.0644
11.9742	3.9241
11.8106	3.1947
11.6513	4.1586
11.4963	5.2522
11.3454	6.432
11.1983	8.1698
11.0551	10.1811
10.9154	13.696
10.7793	18.2604
10.6465	22.9734
10.5169	28.7654
10.3904	34.6801
10.267	34.0578
10.1464	29.6548
10.0287	19.3243
9.9136	16.1991
9.8012	20.9052
9.6913	17.7863
9.5838	13.306
9.4787	13.2635
9.3758	13.9106
9.2752	14.3175
9.1767	13.0807
9.0803	10.7523
8.9858	7.8384
8.8934	6.0293
8.8028	4.9776
8.714	4.7797
8.627	5.1851
8.5417	6.4551
8.4581	8.9763
8.3761	14.2099
8.2957	20.9968
8.2169	22.4458
8.1395	23.1345
8.0635	23.6747
7.989	24.0354
7.9158	23.767
7.8439	22.1812
7.7734	15.2329
7.7041	6.6431
7.636	2.7616
7.5691	1.0702
7.5034	0.7126
7.4388	0.5293
7.3753	0.4101
7.3129	0.4157
7.2515	0.4788
7.1912	0.4699
7.1318	0.621
7.0734	0.7036
7.016	0.7647
6.9595	0.893
6.9039	0.9147
6.8492	0.9428
6.7953	1.2021
6.7423	1.4674
6.6901	1.6707
6.6387	2.0319
6.5881	2.4511
6.5382	2.6206
6.4892	1.8417
6.4408	1.8941
6.3931	2.4313
6.3462	2.9966
6.2999	3.001
6.2543	2.0831
6.2094	3.0258
6.1651	2.2248
6.1214	1.6342
6.0784	2.7802
6.0359	3.1854
5.994	4.5073
5.9527	5.5018
5.912	5.5845
5.8718	5.4047
5.8322	4.9688
5.7931	4.7413
5.7545	5.0629
5.7165	5.6419
5.6789	5.6652
5.6418	5.7333
5.6052	5.2806
5.5691	5.6207
5.5334	5.6304
5.4982	5.6067
5.4635	6.513
5.4291	7.5849
5.3952	8.0746
5.3618	8.3742
5.3287	7.9569
5.2961	7.6528
5.2638	6.3045
5.2319	5.0179
5.2004	3.9689
5.1693	3.6384
5.1386	3.6863
5.1082	3.9363
5.0782	4.9184
5.0485	5.9476
5.0192	6.913
4.9902	8.0232
4.9616	9.3688
4.9332	10.2374
4.9052	11.4756
4.8776	13.1618
4.8502	15.165
4.8231	16.6663
4.7963	18.7995
4.7699	22.253
4.7437	24.7676
4.7178	26.7388
4.6922	27.9679
4.6668	28.5656
4.6418	29.5158
4.617	31.4126
4.5924	33.1322
4.5681	34.6299
4.5441	36.0385
4.5203	37.0679
4.4968	37.1352
4.4735	36.539
4.4505	37.0279
4.4277	38.8999
4.4051	41.4578
4.3828	43.5418
4.3607	43.3423
4.3388	45.2601
4.3171	43.7654
4.2956	37.739
4.2744	26.6498
4.2534	18.2943
4.2325	11.0911
4.2119	19.5198
4.1915	39.7728
4.1712	55.5802
4.1512	58.1228
4.1313	58.7346
4.1117	58.8189
4.0922	58.6041
4.0729	58.8046
4.0538	59.2413
4.0349	59.4357
4.0161	60.4932
3.9976	61.5246
3.9792	62.4139
3.9609	62.9638
3.9428	63.3039
3.9249	63.575
3.9072	63.9426
3.8896	64.3171
3.8722	64.5662
3.8549	64.7675
3.8378	64.8419
3.8208	65.0122
3.804	64.9553
3.7873	64.7375
3.7708	65.2673
3.7544	65.3791
3.7382	65.3945
3.7221	65.2651
3.7061	65.7218
3.6903	65.7263
3.6746	65.5656
3.659	65.455
3.6436	65.4638
3.6283	65.8233
3.6131	66.1778
3.5981	66.468
3.5832	66.7459
3.5684	67.0423
3.5537	67.2134
3.5391	67.4186
3.5247	67.3952
3.5104	67.0497
3.4962	66.8012
3.4821	67.0315
3.4681	67.0402
3.4543	66.9177
3.4405	66.4527
3.4269	65.8253
3.4133	65.2293
3.3999	65.2811
3.3866	65.3746
3.3733	64.9171
3.3602	65.3385
3.3472	65.5388
3.3343	65.4559
3.3215	65.1563
3.3088	65.0198
3.2961	64.9085
3.2836	64.8696
3.2712	65.1623
3.2588	65.2693
3.2466	65.3631
3.2345	64.533
3.2224	61.5852
3.2104	60.3128
3.1985	61.9009
3.1867	62.461
3.175	62.0295
3.1634	61.0674
3.1519	61.5818
3.1404	61.3082
3.129	60.5547
3.1178	59.1899
3.1065	56.9175
3.0954	54.3418
3.0844	55.3944
3.0734	58.0397
3.0625	58.6288
3.0517	58.0591
3.041	57.4827
3.0303	56.5759
3.0197	55.6975
3.0092	54.8976
2.9987	53.8823
2.9884	52.552
2.9781	51.5963
2.9678	50.3221
2.9577	48.9135
2.9476	47.2298
2.9376	45.9501
2.9276	44.3844
2.9177	42.5239
2.9079	39.8301
2.8982	37.161
2.8885	34.4418
2.8789	30.791
2.8693	27.7578
2.8598	25.8854
2.8504	24.3133
2.841	23.0107
2.8317	22.9582
2.8224	21.1005
2.8133	17.94
2.8041	17.7864
2.7951	15.944
2.786	9.9163
2.7771	6.5747
2.7682	16.3019
2.7594	16.7611
2.7506	14.479
2.7418	11.4511
2.7332	9.235
2.7246	9.3686
2.716	7.5215
2.7075	4.698
2.699	4.886
2.6906	9.0842
2.6823	12.9597
2.674	16.0517
2.6657	19.3369
2.6575	20.3904
2.6494	22.2805
2.6413	23.8218
2.6332	24.3343
2.6252	24.0074
2.6173	23.2097
2.6094	21.5915
2.6015	20.8204
2.5937	21.2561
2.5859	20.4225
2.5782	21.0865
2.5706	22.1397
2.5629	23.3869
2.5554	25.8274
2.5478	30.8856
2.5403	36.3453
2.5329	40.2169
2.5255	42.7289
2.5181	45.1709
2.5108	47.1956
2.5035	49.5354
2.4963	51.9204
2.4891	53.9775
2.482	55.8881
2.4749	57.3163
2.4678	58.5336
2.4608	60.1294
2.4538	61.2091
2.4468	62.5139
2.4399	63.3949
2.4331	64.5492
2.4262	65.1828
2.4194	65.5861
2.4127	66.2884
2.4059	66.8647
2.3993	67.2152
2.3926	67.5269
2.386	67.4636
2.3795	67.4371
2.3729	67.9622
2.3664	67.8491
2.36	68.6518
2.3535	68.5858
2.3471	69.1775
2.3408	69.4374
2.3345	69.3876
2.3282	69.9606
2.3219	70.4871
2.3157	70.6218
2.3095	71.1388
2.3034	71.2081
2.2972	71.7115
2.2911	71.6485
2.2851	71.6998
2.279	71.9057
2.2731	72.0026
2.2671	72.4363
2.2612	72.2248
2.2553	72.2171
2.2494	72.4828
2.2435	72.5033
2.2377	72.558
2.232	72.4956
2.2262	72.5319
2.2205	72.5358
2.2148	72.4253
2.2091	72.3433
2.2035	71.757
2.1979	71.6216
2.1923	72.0156
2.1868	72.2249
2.1812	72.1081
2.1758	72.1877
2.1703	72.0479
2.1649	71.859
2.1595	71.7176
2.1541	70.9731
2.1487	70.7421
2.1434	71.7136
2.1381	72.4889
2.1328	72.5972
2.1275	72.4786
2.1223	72.8188
2.1171	72.76
2.112	72.5795
2.1068	72.8353
2.1017	72.59
2.0966	72.6619
2.0915	72.4082
2.0865	72.2539
2.0814	71.6147
2.0764	72.089
2.0715	72.2943
2.0665	72.0815
2.0616	72.2168
2.0567	71.9205
2.0518	71.4266
2.0469	70.9511
2.0421	72.225
2.0373	72.6729
2.0325	72.5343
2.0277	72.5224
2.0229	72.5411
2.0182	72.6783
2.0135	72.2832
2.0088	72.4969
2.0042	72.2158
