Name: Hemimorphite Zn4Si2O7(OH)2.H2O
Type: Mineral
Class: Silicate
Subclass: Sorosilicate
Particle Size: Coarse
Sample No.: hemimor_1
Owner: JHU
Wavelength Range: TIR
Origin: Mapimi, Durango, Mexico via the Smithsonian (sampleno.NMNH 161931).
Description: The sample consisted of two white, translucent fragments about 1 cm long.  One fragment had some iron staining which was removed by picking.  Microscopic examination indicated a pure and unaltered sample.Sample was a two isolated tetrahydra.Particle size was 74-250 micrometers. Original ASTER Spectral Library name was jhu.nicolet.mineral.silicate.sorosilicate.coarse.hemimo1.spectrum.txt
Measurement: Bidirectional reflectance
X Units: Wavelength (micrometers)
Y Units: Reflectance (percent)
wavelength	value
25.0442	2.3271
24.3388	2.6572
23.6719	2.7576
23.0407	3.0163
22.4422	3.5998
21.8741	4.156
21.334	1.8806
20.8199	2.2009
20.33	2.4653
19.8627	2.6201
19.4163	2.8843
18.9896	3.2917
18.5812	3.7527
18.19	4.0488
17.815	4.5478
17.4551	4.0503
17.1094	3.033
16.7772	3.1111
16.4576	4.387
16.15	3.947
15.8537	2.104
15.568	1.2686
15.2925	1.4473
15.0265	1.7324
14.7697	2.2637
14.5214	1.6838
14.2814	1.4326
14.0492	1.4956
13.8244	1.5781
13.6067	1.6494
13.3957	1.6921
13.1912	1.7585
12.9929	1.7983
12.8004	1.8708
12.6135	1.9282
12.432	1.9902
12.2557	2.0989
12.0843	2.22
11.9176	2.3481
11.7555	2.7012
11.5977	3.6894
11.444	4.2517
11.2944	2.2593
11.1487	2.2703
11.0067	2.8435
10.8682	3.9756
10.7332	6.2556
10.6015	5.9653
10.473	5.3982
10.3476	5.8078
10.2251	6.2612
10.1056	6.2781
9.9887	5.3633
9.8746	3.8923
9.763	2.8889
9.6539	1.9563
9.5472	1.1768
9.4429	0.9893
9.3408	1.3127
9.2409	2.0376
9.1431	3.0239
9.0474	3.7288
8.9536	3.2131
8.8618	2.0276
8.7718	1.0742
8.6837	0.7361
8.5973	0.7954
8.5126	0.887
8.4295	0.979
8.3481	1.0522
8.2682	1.135
8.1898	1.2041
8.1129	1.282
8.0374	1.3799
7.9634	1.4609
7.8906	1.5872
7.8192	1.7141
7.7491	1.8137
7.6802	1.9209
7.6126	2.071
7.5461	2.2019
7.4807	2.3179
7.4165	2.3545
7.3534	2.2664
7.2914	2.1838
7.2303	2.2515
7.1703	2.4011
7.1113	2.5232
7.0533	2.5586
6.9962	2.5369
6.94	2.499
6.8847	2.457
6.8302	2.4827
6.7767	2.5137
6.7239	2.5171
6.672	2.4751
6.6209	2.3938
6.5705	2.229
6.5209	1.9414
6.4721	1.8069
6.424	1.8857
6.3766	1.9914
6.3299	1.9888
6.2838	1.8706
6.2385	1.6851
6.1937	1.5305
6.1496	1.4783
6.1062	1.3203
6.0633	1.2935
6.0211	1.4597
5.9794	1.7056
5.9383	1.9844
5.8978	2.2468
5.8578	2.4307
5.8184	2.5308
5.7794	2.5752
5.741	2.456
5.7031	2.1333
5.6657	1.9675
5.6288	1.9675
5.5924	1.7988
5.5564	1.8931
5.5209	2.1055
5.4859	2.1772
5.4513	2.178
5.4171	2.0454
5.3833	1.8838
5.35	1.8445
5.3171	1.8352
5.2846	1.8408
5.2524	1.8547
5.2207	1.8901
5.1893	1.9287
5.1584	2.0185
5.1277	2.1189
5.0975	2.1938
5.0676	2.2502
5.038	2.2927
5.0088	2.2678
4.98	2.1604
4.9514	2.1511
4.9232	2.2107
4.8953	2.3179
4.8678	2.4038
4.8405	2.5137
4.8135	2.665
4.7868	2.8391
4.7605	3.0251
4.7344	3.2043
4.7086	3.4021
4.6831	3.6081
4.6578	3.8403
4.6328	4.1138
4.6081	4.354
4.5837	4.5954
4.5595	4.843
4.5356	5.0801
4.5119	5.3149
4.4884	5.5471
4.4652	5.7654
4.4423	6.0154
4.4196	6.2795
4.3971	6.5066
4.3748	6.7309
4.3528	6.9236
4.331	7.1013
4.3094	7.2507
4.288	7.4065
4.2668	7.5862
4.2458	7.7524
4.2251	7.9035
4.2045	8.0366
4.1841	8.1553
4.164	8.2649
4.144	8.3633
4.1242	8.4399
4.1046	8.5017
4.0852	8.5796
4.066	8.6875
4.047	8.7846
4.0281	8.8772
4.0094	8.9433
3.9909	9.001
3.9725	9.0605
3.9544	9.0998
3.9363	9.1238
3.9185	9.1482
3.9008	9.1506
3.8833	9.1543
3.8659	9.1489
3.8487	9.1675
3.8316	9.1677
3.8147	9.1792
3.7979	9.1931
3.7813	9.1921
3.7648	9.1802
3.7485	9.1579
3.7323	9.1064
3.7162	9.0532
3.7003	8.9675
3.6845	8.8782
3.6689	8.8166
3.6534	8.7607
3.638	8.6921
3.6227	8.592
3.6076	8.4751
3.5926	8.3674
3.5777	8.2302
3.563	8.0962
3.5484	7.9443
3.5338	7.7839
3.5195	7.6162
3.5052	7.4233
3.491	7.2317
3.477	7.0254
3.463	6.813
3.4492	6.5698
3.4355	6.3276
3.4219	6.0488
3.4084	5.7988
3.395	5.5278
3.3817	5.258
3.3685	4.9824
3.3554	4.7204
3.3425	4.4477
3.3296	4.1692
3.3168	3.9214
3.3041	3.6714
3.2915	3.4116
3.279	3.2021
3.2666	2.9863
3.2543	2.7895
3.2421	2.6138
3.23	2.4314
3.218	2.2788
3.206	2.1418
3.1942	2.0156
3.1824	1.876
3.1707	1.7717
3.1591	1.675
3.1476	1.5854
3.1362	1.4963
3.1249	1.4175
3.1136	1.3672
3.1024	1.2866
3.0913	1.2349
3.0803	1.1985
3.0694	1.1619
3.0585	1.1309
3.0477	1.114
3.037	1.0813
3.0264	1.0574
3.0158	1.0276
3.0053	1.0061
2.9949	0.998
2.9845	0.9927
2.9743	0.9741
2.9641	0.9507
2.9539	0.9441
2.9439	0.9185
2.9339	0.9158
2.9239	0.8972
2.9141	0.8901
2.9043	0.8689
2.8946	0.8557
2.8849	0.8669
2.8753	0.8281
2.8658	0.812
2.8563	0.8103
2.8469	0.7969
2.8375	0.7832
2.8282	0.7747
2.819	0.783
2.8098	0.7869
2.8007	0.7771
2.7917	0.7683
2.7827	0.7664
2.7738	0.7561
2.7649	0.7568
2.7561	0.7578
2.7473	0.7764
2.7386	0.8105
2.7299	0.8481
2.7213	0.8943
2.7128	0.9587
2.7043	1.062
2.6959	1.1565
2.6875	1.2778
2.6791	1.4114
2.6709	1.5376
2.6626	1.6765
2.6545	1.7961
2.6463	1.918
2.6382	2.0271
2.6302	2.1448
2.6222	2.2534
2.6143	2.3664
2.6064	2.4668
2.5986	2.5684
2.5908	2.6704
2.583	2.7815
2.5753	2.8906
2.5677	2.968
2.5601	3.0491
2.5525	3.178
2.545	3.2808
2.5375	3.3784
2.5301	3.5068
2.5227	3.6553
2.5154	3.7844
2.5081	3.9617
2.5008	4.1265
2.4936	4.3213
2.4864	4.4836
2.4793	4.6699
2.4722	4.814
2.4651	4.9385
2.4581	5.0537
2.4511	5.1472
2.4442	5.2327
2.4373	5.2971
2.4305	5.4184
2.4236	5.4919
2.4169	5.5986
2.4101	5.7034
2.4034	5.8098
2.3967	5.9119
2.3901	6.0408
2.3835	6.1858
2.377	6.3638
2.3704	6.5849
2.364	6.8039
2.3575	7.0896
2.3511	7.376
2.3447	7.6474
2.3384	7.8735
2.3321	8.0649
2.3258	8.227
2.3195	8.3887
2.3133	8.4751
2.3071	8.5491
2.301	8.5989
2.2949	8.6687
2.2888	8.6799
2.2828	8.6931
2.2767	8.6933
2.2708	8.6948
2.2648	8.6516
2.2589	8.656
2.253	8.5847
2.2471	8.4797
2.2413	8.436
2.2355	8.3713
2.2297	8.3008
2.224	8.2297
2.2183	8.248
2.2126	8.3144
2.207	8.3535
2.2013	8.3857
2.1957	8.4675
2.1902	8.6308
2.1846	8.7258
2.1791	8.8376
2.1736	8.9751
2.1682	9.0908
2.1628	9.165
2.1574	9.2329
2.152	9.3396
2.1466	9.4924
2.1413	9.5547
2.136	9.6311
2.1308	9.675
2.1255	9.8012
2.1203	9.8208
2.1151	9.8569
2.11	9.9375
2.1048	9.9824
2.0997	9.9797
2.0946	10.0527
2.0895	10.0542
2.0845	10.0578
2.0795	10.0617
