Name: Colemanite Ca_2B_6O_11.5H_2O
Type: Mineral
Class: Borate
Subclass: None
Particle Size: Medium
Sample No.: B-1A
Owner: JPL
Wavelength Range: VSWIR
Origin: USA, California, Kern County, Boron
Description: Particle size was 45-125um.Collected by Burminco Original ASTER Spectral Library name was jpl.beckman.mineral.borate.none.medium.b01.spectrum.txt
Measurement: Hemispherical reflectance
X Units: Wavelength (micrometers)
Y Units: Reflectance (percent)
wavelength	value
0.4	84.96
0.403	85.19
0.406	85.66
0.409	85.89
0.412	86.47
0.415	86.71
0.418	86.47
0.421	86.89
0.424	87.18
0.427	86.71
0.43	87.64
0.433	87.58
0.436	87.64
0.439	88.17
0.442	88.22
0.445	88.4
0.448	88.46
0.451	88.46
0.454	89.16
0.457	88.87
0.46	89.06
0.463	88.95
0.466	89.3
0.469	89.19
0.472	89.19
0.475	89.66
0.478	89.44
0.481	89.73
0.484	89.8
0.487	89.74
0.49	90.46
0.493	90.35
0.496	90.41
0.499	90.7
0.502	90.29
0.505	91.05
0.508	90.58
0.511	91.17
0.514	90.82
0.517	90.88
0.52	91.46
0.523	91.23
0.526	91.64
0.529	91.41
0.532	91.46
0.535	91.82
0.538	91.46
0.541	91.82
0.544	91.98
0.547	91.82
0.55	92.16
0.553	91.76
0.556	91.87
0.559	91.98
0.562	92.22
0.565	92.57
0.568	92.22
0.571	92.51
0.574	92.1
0.577	92.63
0.58	92.69
0.583	92.16
0.586	92.51
0.589	92.33
0.592	92.39
0.595	92.45
0.598	92.57
0.601	92.98
0.604	92.74
0.607	92.8
0.61	93.62
0.613	93.51
0.616	93.21
0.619	93.73
0.622	93.16
0.625	93.45
0.628	93.39
0.631	93.45
0.634	93.1
0.637	93.27
0.64	93.62
0.643	93.45
0.646	93.57
0.649	93.79
0.652	93.73
0.655	94.14
0.658	93.91
0.661	94.26
0.664	93.67
0.667	93.79
0.67	93.97
0.673	93.73
0.676	93.91
0.679	93.85
0.682	93.97
0.685	94.08
0.688	93.67
0.691	94.14
0.694	93.73
0.697	93.79
0.7	93.85
0.703	93.57
0.706	94.26
0.709	93.67
0.712	93.97
0.715	93.85
0.718	93.97
0.721	94.2
0.724	93.67
0.727	93.91
0.73	93.33
0.733	93.67
0.736	93.67
0.739	93.57
0.742	93.62
0.745	93.21
0.748	93.67
0.751	93.33
0.754	93.45
0.757	93.45
0.76	93.57
0.763	93.97
0.766	93.57
0.769	94.03
0.772	93.85
0.775	93.67
0.778	94.14
0.781	93.73
0.784	94.14
0.787	93.62
0.79	93.73
0.793	93.97
0.796	93.73
0.799	93.16
0.808	93.16
0.82	93.04
0.832	92.98
0.844	92.98
0.856	93.04
0.868	92.98
0.88	92.98
0.892	92.69
0.904	92.69
0.916	92.45
0.928	92.1
0.94	91.82
0.952	90.47
0.964	87.2
0.976	87.38
0.988	89.6
1	90.29
1.012	90.94
1.024	91.17
1.036	91.29
1.048	91.46
1.06	91.23
1.072	91.05
1.084	90.94
1.096	90.7
1.108	90.41
1.12	90.29
1.132	90.01
1.144	89.3
1.156	88.36
1.168	87.11
1.18	86.1
1.192	86.02
1.204	86
1.216	85.08
1.228	84.38
1.24	84.55
1.252	84.55
1.264	84.18
1.276	83.93
1.288	83.32
1.3	82.43
1.312	81.13
1.324	79.6
1.336	78.06
1.348	77.69
1.36	76.36
1.372	74.27
1.384	70.31
1.396	64.15
1.408	51.3
1.42	38.8
1.432	50.1
1.444	52.5
1.456	53.79
1.468	55.94
1.48	56.81
1.492	56.29
1.504	55.3
1.516	53.73
1.528	52.04
1.54	49.95
1.552	48.78
1.564	48.61
1.576	48.9
1.588	48.96
1.6	47.96
1.612	46.45
1.624	44.63
1.636	42.98
1.648	41.93
1.66	41.34
1.672	41.39
1.684	41.6
1.696	42.12
1.708	42.82
1.72	43.33
1.732	43.45
1.744	43.39
1.756	43.22
1.768	42.99
1.78	42.93
1.792	42.87
1.804	42.85
1.816	42.99
1.828	43.01
1.84	43.14
1.852	43.05
1.864	42.39
1.876	41.58
1.888	40.12
1.9	38.03
1.912	35.25
1.924	31.71
1.936	28.07
1.948	25.41
1.96	24.35
1.972	24.57
1.984	25.18
1.996	25.68
2.008	26.38
2.02	26.97
2.032	27.43
2.044	27.67
2.056	27.56
2.068	27.07
2.08	24.65
2.092	20.12
2.104	17.03
2.116	17.98
2.128	20.71
2.14	22.23
2.152	21.63
2.164	20.56
2.176	19.79
2.188	18.93
2.2	18.46
2.212	19.09
2.224	20.54
2.236	22.2
2.248	23.56
2.26	24.85
2.272	25.7
2.284	26.3
2.296	26.6
2.308	26.39
2.32	25.84
2.332	24.87
2.344	23.69
2.356	22.18
2.368	20.18
2.38	18.19
2.392	16.2
2.404	14.61
2.416	13.6
2.428	12.81
2.44	12.29
2.452	11.95
2.464	11.89
2.476	11.83
2.488	11.89
2.5	11.77
