Name: Borax Na_2B_4O_5(OH)_4.8H_2O
Type: Mineral
Class: Borate
Subclass: None
Particle Size: Fine
Sample No.: B-6A
Owner: JPL
Wavelength Range: TIR
Origin: USA, California, Kern County, Boron
Description: Particle size was 0-45um.Collected by Burminco Original ASTER Spectral Library name was jpl.nicolet.mineral.borate.none.fine.b06a.spectrum.txt
Measurement: Hemispherical reflectance
X Units: Wavelength (micrometers)
Y Units: Reflectance (percent)
wavelength	value
15.3853	3.2007
15.1161	2.9416
14.8563	2.5278
14.6052	2.7162
14.3624	2.2129
14.1276	2.3156
13.9004	1.7811
13.6803	1.9725
13.4671	1.9974
13.2604	2.2263
13.06	2.2519
12.8656	2.2743
12.6769	2.2681
12.4936	2.7104
12.3155	3.021
12.1425	4.4586
11.9742	3.1105
11.8106	0.9218
11.6513	0.9328
11.4963	1.2616
11.3454	1.471
11.1983	1.4487
11.0551	1.758
10.9154	2.247
10.7793	2.7629
10.6465	3.5728
10.5169	3.4552
10.3904	1.6347
10.267	2.4918
10.1464	3.816
10.0287	6.1254
9.9136	6.5434
9.8012	4.122
9.6913	4.3056
9.5838	3.9888
9.4787	1.6121
9.3758	0.665
9.2752	1.0786
9.1767	0.7114
9.0803	0.4579
8.9858	0.932
8.8934	2.0579
8.8028	3.0718
8.714	1.2765
8.627	0.8007
8.5417	0.6373
8.4581	0.6884
8.3761	0.8481
8.2957	0.9755
8.2169	1.0286
8.1395	1.0633
8.0635	1.1546
7.989	1.5248
7.9158	1.2469
7.8439	1.2551
7.7734	1.1649
7.7041	0.8996
7.636	0.976
7.5691	1.437
7.5034	2.2909
7.4388	2.5455
7.3753	2.1323
7.3129	1.664
7.2515	1.5694
7.1912	1.5324
7.1318	1.4688
7.0734	1.496
7.016	1.9501
6.9595	2.0824
6.9039	1.4765
6.8492	1.5112
6.7953	1.9688
6.7423	2.7533
6.6901	2.9508
6.6387	2.4299
6.5881	0.9643
6.5382	0.5479
6.4892	0.4503
6.4408	0.3662
6.3931	0.5624
6.3462	0.6624
6.2999	0.8039
6.2543	0.7804
6.2094	1.0057
6.1651	0.8601
6.1214	0.7051
6.0784	0.723
6.0359	0.4265
5.994	0.5129
5.9527	0.5039
5.912	0.521
5.8718	0.6316
5.8322	0.9208
5.7931	1.3279
5.7545	1.5958
5.7165	1.8432
5.6789	2.1688
5.6418	2.2186
5.6052	2.356
5.5691	2.5013
5.5334	2.7139
5.4982	2.834
5.4635	3.2255
5.4291	3.3057
5.3952	3.6608
5.3618	4.1503
5.3287	4.3963
5.2961	4.5553
5.2638	4.6185
5.2319	4.549
5.2004	4.5581
5.1693	4.5033
5.1386	4.7766
5.1082	4.8324
5.0782	5.1547
5.0485	5.2572
5.0192	5.3663
4.9902	5.4213
4.9616	5.4318
4.9332	5.365
4.9052	5.4385
4.8776	5.5498
4.8502	5.846
4.8231	5.908
4.7963	6.0481
4.7699	6.046
4.7437	5.7834
4.7178	5.8493
4.6922	5.8225
4.6668	5.7982
4.6418	5.604
4.617	5.4459
4.5924	5.4465
4.5681	5.1477
4.5441	5.0654
4.5203	5.0303
4.4968	5.0421
4.4735	5.1585
4.4505	5.4638
4.4277	5.5562
4.4051	5.5198
4.3828	5.3068
4.3607	5.3903
4.3388	5.2782
4.3171	5.266
4.2956	5.163
4.2744	5.0587
4.2534	4.8353
4.2325	4.4317
4.2119	4.1183
4.1915	3.4192
4.1712	2.7478
4.1512	2.1871
4.1313	1.6749
4.1117	1.4786
4.0922	1.5165
4.0729	1.5902
4.0538	1.7409
4.0349	1.5402
4.0161	1.6911
3.9976	1.7589
3.9792	1.8622
3.9609	1.9515
3.9428	1.9311
3.9249	1.8474
3.9072	1.7798
3.8896	1.7113
3.8722	1.5817
3.8549	1.371
3.8378	1.2725
3.8208	1.339
3.804	1.4576
3.7873	1.346
3.7708	1.4252
3.7544	1.4886
3.7382	1.5953
3.7221	1.5978
3.7061	1.479
3.6903	1.4897
3.6746	1.5159
3.659	1.4902
3.6436	1.3438
3.6283	1.3326
3.6131	1.2512
3.5981	1.1167
3.5832	1.0766
3.5684	1.0923
3.5537	1.0831
3.5391	1.1193
3.5247	1.1197
3.5104	1.0798
3.4962	1.1004
3.4821	1.0367
3.4681	1.1213
3.4543	1.1152
3.4405	1.0688
3.4269	0.9489
3.4133	1.0638
3.3999	1.0295
3.3866	1.0659
3.3733	0.901
3.3602	0.9887
3.3472	0.935
3.3343	0.9845
3.3215	1.0223
3.3088	0.8627
3.2961	0.9449
3.2836	0.9027
3.2712	0.9892
3.2588	0.9566
3.2466	0.9577
3.2345	0.984
3.2224	0.8401
3.2104	0.8993
3.1985	0.8724
3.1867	0.8853
3.175	0.8856
3.1634	0.9626
3.1519	0.8739
3.1404	0.7749
3.129	1.0749
3.1178	0.9641
3.1065	0.9864
3.0954	0.9661
3.0844	0.9735
3.0734	1.0065
3.0625	1.0859
3.0517	1.0822
3.041	1.1514
3.0303	1.1512
3.0197	1.111
3.0092	1.278
2.9987	1.4211
2.9884	1.3877
2.9781	1.0336
2.9678	0.8776
2.9577	0.4717
2.9476	0.4523
2.9376	0.452
2.9276	0.526
2.9177	0.2853
2.9079	0.5253
2.8982	0.4674
2.8885	0.4966
2.8789	0.4074
2.8693	0.4231
2.8598	0.5131
2.8504	0.5896
2.841	0.5938
2.8317	0.419
2.8224	0.3347
2.8133	0.5313
2.8041	0.5263
2.7951	0.7061
2.786	0.6247
2.7771	0.8388
2.7682	0.9
2.7594	1.2033
2.7506	1.5812
2.7418	2.8108
2.7332	4.1082
2.7246	6.1658
2.716	7.8575
2.7075	9.9614
2.699	11.6632
2.6906	13.1659
2.6823	14.4669
2.674	15.863
2.6657	17.2623
2.6575	17.8731
2.6494	18.7176
2.6413	19.6082
2.6332	20.6319
2.6252	21.287
2.6173	21.9813
2.6094	22.5985
2.6015	22.8375
2.5937	23.5809
2.5859	23.2335
2.5782	23.2875
2.5706	23.1855
2.5629	23.0677
2.5554	22.5006
2.5478	21.8383
2.5403	21.4518
2.5329	21.2748
2.5255	21.4497
2.5181	21.9835
2.5108	23.1154
2.5035	24.3049
2.4963	25.3529
2.4891	26.3578
2.482	27.3337
2.4749	28.0667
2.4678	29.059
2.4608	29.4691
2.4538	29.8472
2.4468	30.1102
2.4399	30.5235
2.4331	30.8035
2.4262	31.4528
2.4194	32.2303
2.4127	33.2347
2.4059	34.1739
2.3993	35.123
2.3926	36.1618
2.386	37.1348
2.3795	38.1562
2.3729	38.9172
2.3664	39.5545
2.36	40.0006
2.3535	40.4774
2.3471	40.6646
2.3408	40.8194
2.3345	40.9356
2.3282	41.0281
2.3219	41.1223
2.3157	41.0751
2.3095	41.1478
2.3034	41.0682
2.2972	41.1679
2.2911	41.0654
2.2851	41.0354
2.279	41.0107
2.2731	41.2787
2.2671	41.0648
2.2612	41.1369
2.2553	41.2843
2.2494	41.297
2.2435	41.2252
2.2377	41.5101
2.232	41.4941
2.2262	41.6718
2.2205	41.9053
2.2148	42.1297
2.2091	42.1932
2.2035	42.6905
2.1979	42.8398
2.1923	42.8786
2.1868	42.6554
2.1812	42.3656
2.1758	41.7642
2.1703	41.1748
2.1649	40.4314
2.1595	39.8967
2.1541	39.6376
2.1487	39.6217
2.1434	40.5438
2.1381	41.2425
2.1328	41.9377
2.1275	42.1464
2.1223	42.2803
2.1171	42.3419
2.112	42.1239
2.1068	41.6008
2.1017	41.5838
2.0966	41.4411
2.0915	41.7837
2.0865	41.7808
2.0814	41.4733
2.0764	41.6463
2.0715	41.5581
2.0665	41.0277
2.0616	41.3143
2.0567	40.9233
2.0518	40.8342
2.0469	40.9277
2.0421	40.4078
2.0373	40.2727
2.0325	40.0938
2.0277	39.9578
2.0229	39.516
2.0182	39.4151
2.0135	39.1079
2.0088	39.1148
2.0042	38.7414
