Name: Hydroxyapophyllite KCa_4Si_8O_20(OH,F).8H_2O
Type: Mineral
Class: Silicate
Subclass: Phyllosilicate
Particle Size: Medium
Sample No.: PS-22A
Owner: JPL
Wavelength Range: TIR
Origin: India, Maharashtra, Poona
Description: Particle size was 45-125um.Collected by Burminco Original ASTER Spectral Library name was jpl.nicolet.mineral.silicate.phyllosilicate.medium.ps22a.spectrum.txt
Measurement: Hemispherical reflectance
X Units: Wavelength (micrometers)
Y Units: Reflectance (percent)
wavelength	value
15.3853	1.3431
15.1161	1.2379
14.8563	1.8309
14.6052	2.5061
14.3624	3.1904
14.1276	3.4292
13.9004	4.3033
13.6803	4.439
13.4671	4.985
13.2604	5.9937
13.06	6.828
12.8656	4.6194
12.6769	5.3522
12.4936	3.0709
12.3155	1.4836
12.1425	1.8857
11.9742	2.6854
11.8106	3.4899
11.6513	4.1881
11.4963	4.7038
11.3454	5.1793
11.1983	5.8524
11.0551	6.3863
10.9154	6.9832
10.7793	7.744
10.6465	8.2956
10.5169	8.7299
10.3904	9.696
10.267	10.9842
10.1464	13.4649
10.0287	19.6442
9.9136	32.4436
9.8012	43.0213
9.6913	43.2174
9.5838	43.03
9.4787	38.6378
9.3758	22.8183
9.2752	2.5376
9.1767	5.7214
9.0803	17.7333
8.9858	7.103
8.8934	9.373
8.8028	5.3073
8.714	1.6696
8.627	0.3853
8.5417	0.098
8.4581	0.0815
8.3761	0.4063
8.2957	0.4942
8.2169	0.6704
8.1395	0.7272
8.0635	1.0526
7.989	1.3054
7.9158	1.6555
7.8439	1.876
7.7734	2.1784
7.7041	2.4829
7.636	2.7321
7.5691	2.8242
7.5034	2.8344
7.4388	3.0636
7.3753	3.1502
7.3129	3.3503
7.2515	3.4224
7.1912	3.4099
7.1318	3.5172
7.0734	3.3864
7.016	3.4902
6.9595	3.3691
6.9039	3.2977
6.8492	3.308
6.7953	3.2137
6.7423	3.1311
6.6901	3.0145
6.6387	2.9786
6.5881	2.7473
6.5382	2.5739
6.4892	2.5564
6.4408	2.4101
6.3931	2.5513
6.3462	2.741
6.2999	2.6535
6.2543	2.6579
6.2094	2.5484
6.1651	2.7222
6.1214	2.6707
6.0784	2.5469
6.0359	2.6458
5.994	2.5452
5.9527	2.3376
5.912	2.0574
5.8718	1.3434
5.8322	2.1447
5.7931	3.3284
5.7545	4.1075
5.7165	4.6498
5.6789	4.9816
5.6418	5.0408
5.6052	5.2344
5.5691	5.71
5.5334	6.3949
5.4982	6.7568
5.4635	6.8805
5.4291	6.6852
5.3952	6.3459
5.3618	6.4266
5.3287	6.3596
5.2961	6.0264
5.2638	6.2036
5.2319	6.7203
5.2004	7.3212
5.1693	7.566
5.1386	7.0939
5.1082	7.1561
5.0782	7.3734
5.0485	7.3598
5.0192	6.9687
4.9902	6.7661
4.9616	7.2102
4.9332	7.8539
4.9052	7.945
4.8776	7.827
4.8502	7.9511
4.8231	7.8454
4.7963	7.693
4.7699	7.4779
4.7437	7.1303
4.7178	6.8437
4.6922	6.6627
4.6668	6.2029
4.6418	5.8691
4.617	5.5546
4.5924	5.2464
4.5681	5.0831
4.5441	4.934
4.5203	4.9935
4.4968	4.8828
4.4735	4.9519
4.4505	4.9646
4.4277	5.0083
4.4051	4.7511
4.3828	4.6604
4.3607	4.5325
4.3388	4.7415
4.3171	4.6675
4.2956	4.5693
4.2744	4.5741
4.2534	4.9322
4.2325	5.3184
4.2119	5.9257
4.1915	6.4193
4.1712	6.8651
4.1512	7.3161
4.1313	7.4531
4.1117	7.5787
4.0922	7.5389
4.0729	7.4383
4.0538	7.4266
4.0349	7.3106
4.0161	7.2245
3.9976	7.0218
3.9792	6.895
3.9609	6.877
3.9428	6.609
3.9249	6.5873
3.9072	6.3576
3.8896	6.2367
3.8722	6.0694
3.8549	5.7841
3.8378	5.6689
3.8208	5.3486
3.804	5.3526
3.7873	5.1217
3.7708	4.9329
3.7544	4.7465
3.7382	4.5766
3.7221	4.4338
3.7061	4.3923
3.6903	4.3648
3.6746	4.1312
3.659	4.03
3.6436	3.936
3.6283	3.8916
3.6131	3.7737
3.5981	3.8179
3.5832	3.5676
3.5684	3.6034
3.5537	3.5676
3.5391	3.4581
3.5247	3.7015
3.5104	3.4657
3.4962	3.3712
3.4821	3.4282
3.4681	3.3479
3.4543	3.3587
3.4405	3.1711
3.4269	3.3431
3.4133	3.2847
3.3999	3.1993
3.3866	3.338
3.3733	3.3305
3.3602	3.3177
3.3472	3.3987
3.3343	3.1769
3.3215	3.1438
3.3088	2.9713
3.2961	2.7696
3.2836	2.7233
3.2712	2.5639
3.2588	2.5909
3.2466	2.473
3.2345	2.3502
3.2224	2.4949
3.2104	2.2963
3.1985	2.3084
3.1867	2.3102
3.175	2.1206
3.1634	1.979
3.1519	2.1886
3.1404	1.9431
3.129	1.8911
3.1178	1.7935
3.1065	1.8354
3.0954	1.8626
3.0844	1.8131
3.0734	1.8374
3.0625	1.8181
3.0517	2.166
3.041	2.0241
3.0303	1.9773
3.0197	1.961
3.0092	2.2464
2.9987	2.1776
2.9884	2.0691
2.9781	2.4613
2.9678	2.1055
2.9577	2.3251
2.9476	2.4143
2.9376	2.5
2.9276	2.4419
2.9177	2.6838
2.9079	2.7071
2.8982	3.1773
2.8885	3.6531
2.8789	3.8187
2.8693	3.8742
2.8598	4.2548
2.8504	4.5075
2.841	4.9405
2.8317	4.1272
2.8224	3.0886
2.8133	2.5338
2.8041	2.2722
2.7951	4.0025
2.786	5.2599
2.7771	6.1967
2.7682	6.9863
2.7594	8.3419
2.7506	10.1471
2.7418	11.3442
2.7332	12.4127
2.7246	13.348
2.716	13.7894
2.7075	15.3549
2.699	16.4438
2.6906	17.3804
2.6823	19.1051
2.674	19.9838
2.6657	20.3211
2.6575	19.5539
2.6494	20.2792
2.6413	20.848
2.6332	22.3979
2.6252	23.2978
2.6173	23.1243
2.6094	22.477
2.6015	22.9021
2.5937	24.8801
2.5859	25.5149
2.5782	26.2176
2.5706	26.9042
2.5629	27.2676
2.5554	27.416
2.5478	27.8673
2.5403	27.5686
2.5329	26.7279
2.5255	25.4945
2.5181	23.0332
2.5108	22.9236
2.5035	23.7142
2.4963	23.5726
2.4891	21.7843
2.482	19.7108
2.4749	18.2874
2.4678	17.6417
2.4608	17.4592
2.4538	18.0128
2.4468	19.0434
2.4399	21.2471
2.4331	22.4309
2.4262	20.9299
2.4194	17.7979
2.4127	16.561
2.4059	15.8542
2.3993	16.3131
2.3926	16.1656
2.386	17.213
2.3795	19.1108
2.3729	22.3476
2.3664	27.1957
2.36	32.3467
2.3535	36.8272
2.3471	39.9473
2.3408	41.6202
2.3345	42.4539
2.3282	42.5513
2.3219	42.7425
2.3157	41.9969
2.3095	41.2712
2.3034	41.3758
2.2972	42.8245
2.2911	43.9525
2.2851	44.1906
2.279	44.6173
2.2731	45.0253
2.2671	45.2346
2.2612	45.2958
2.2553	45.35
2.2494	44.9802
2.2435	44.8821
2.2377	44.6382
2.232	44.1179
2.2262	43.9919
2.2205	43.5216
2.2148	42.9022
2.2091	42.3123
2.2035	41.5838
2.1979	40.8008
2.1923	40.4932
2.1868	39.9311
2.1812	39.9067
2.1758	39.5009
2.1703	38.9535
2.1649	38.1371
2.1595	37.6247
2.1541	37.4789
2.1487	36.5863
2.1434	35.8835
2.1381	35.933
2.1328	36.1736
2.1275	36.6155
2.1223	37.071
2.1171	37.9584
2.112	38.5151
2.1068	39.3737
2.1017	39.6372
2.0966	40.0225
2.0915	40.3599
2.0865	39.9543
2.0814	39.8988
2.0764	39.7706
2.0715	40.2784
2.0665	39.1509
2.0616	38.9011
2.0567	39.2156
2.0518	39.3003
2.0469	39.5782
2.0421	39.3901
2.0373	39.6203
2.0325	39.1032
2.0277	39.4361
2.0229	39.4752
2.0182	39.0548
2.0135	39.0153
2.0088	38.6435
2.0042	38.7548
