Name: Sulphur S
Type: Mineral
Class: Element
Subclass: None
Particle Size: Coarse
Sample No.: E-2A
Owner: JPL
Wavelength Range: TIR
Origin: N/A
Description: Particle size was 125-500um.Collected by JPL Original ASTER Spectral Library name was jpl.nicolet.mineral.element.none.coarse.e02a.spectrum.txt
Measurement: Hemispherical reflectance
X Units: Wavelength (micrometers)
Y Units: Reflectance (percent)
wavelength	value
15.3853	18.5404
15.1161	16.9927
14.8563	25.4554
14.6052	24.5587
14.3624	40.1509
14.1276	30.522
13.9004	36.5055
13.6803	52.2126
13.4671	56.1848
13.2604	60.7553
13.06	62.7708
12.8656	60.8258
12.6769	53.3159
12.4936	44.6327
12.3155	32.9663
12.1425	17.9482
11.9742	9.9862
11.8106	7.4726
11.6513	16.8212
11.4963	20.2625
11.3454	28.7472
11.1983	38.8421
11.0551	34.9714
10.9154	50.2334
10.7793	39.6087
10.6465	30.114
10.5169	54.1118
10.3904	63.6392
10.267	66.122
10.1464	65.6312
10.0287	68.9956
9.9136	71.798
9.8012	71.7685
9.6913	72.0045
9.5838	70.0685
9.4787	69.2688
9.3758	72.5347
9.2752	73.5675
9.1767	73.0956
9.0803	74.2356
8.9858	72.8152
8.8934	71.6772
8.8028	72.7791
8.714	75.085
8.627	78.0705
8.5417	79.352
8.4581	80.0563
8.3761	81.5774
8.2957	81.9096
8.2169	81.8896
8.1395	80.4355
8.0635	77.0099
7.989	70.7969
7.9158	62.0258
7.8439	50.6884
7.7734	42.6423
7.7041	39.3788
7.636	40.4336
7.5691	49.2312
7.5034	56.1089
7.4388	61.5875
7.3753	66.7011
7.3129	66.9311
7.2515	73.0608
7.1912	77.9589
7.1318	76.7502
7.0734	79.6314
7.016	81.6023
6.9595	81.9496
6.9039	80.5809
6.8492	80.8047
6.7953	82.0806
6.7423	81.3553
6.6901	82.5962
6.6387	86.2272
6.5881	84.7405
6.5382	86.134
6.4892	91.1747
6.4408	89.1211
6.3931	89.4621
6.3462	91.4251
6.2999	89.5523
6.2543	89.8195
6.2094	89.9863
6.1651	90.2726
6.1214	90.1779
6.0784	89.7848
6.0359	87.9031
5.994	88.0744
5.9527	86.9257
5.912	86.1409
5.8718	86.5407
5.8322	86.766
5.7931	86.0191
5.7545	86.4363
5.7165	86.9664
5.6789	86.5519
5.6418	87.7786
5.6052	86.8849
5.5691	87.1975
5.5334	87.666
5.4982	89.0499
5.4635	90.5167
5.4291	90.9617
5.3952	91.4271
5.3618	91.7552
5.3287	91.9576
5.2961	92.3021
5.2638	92.2422
5.2319	92.3235
5.2004	92.5896
5.1693	92.3882
5.1386	92.5286
5.1082	92.5309
5.0782	92.5018
5.0485	92.4758
5.0192	92.719
4.9902	92.5379
4.9616	92.5924
4.9332	92.587
4.9052	92.5914
4.8776	92.6285
4.8502	92.5808
4.8231	92.5269
4.7963	92.4454
4.7699	92.3784
4.7437	92.3227
4.7178	92.2192
4.6922	92.1755
4.6668	92.1229
4.6418	92.1883
4.617	92.1525
4.5924	92.2955
4.5681	92.2752
4.5441	92.2637
4.5203	92.3283
4.4968	92.3766
4.4735	92.4127
4.4505	92.3871
4.4277	92.3813
4.4051	92.4044
4.3828	92.4186
4.3607	92.3891
4.3388	92.281
4.3171	92.1223
4.2956	91.8055
4.2744	91.5578
4.2534	91.9971
4.2325	91.3203
4.2119	91.8309
4.1915	92.1522
4.1712	92.0847
4.1512	91.8498
4.1313	91.9013
4.1117	91.7405
4.0922	91.5201
4.0729	90.6155
4.0538	90.0976
4.0349	89.0844
4.0161	88.1937
3.9976	89.4238
3.9792	90.8104
3.9609	90.5383
3.9428	90.2543
3.9249	89.8858
3.9072	89.5334
3.8896	89.3433
3.8722	89.1153
3.8549	89.3197
3.8378	89.6825
3.8208	90.0842
3.804	90.3332
3.7873	90.6123
3.7708	90.7522
3.7544	90.8436
3.7382	91.0647
3.7221	91.1192
3.7061	91.1887
3.6903	91.2282
3.6746	91.2597
3.659	91.3187
3.6436	91.376
3.6283	91.4
3.6131	91.3968
3.5981	91.3409
3.5832	91.2564
3.5684	91.1955
3.5537	91.1021
3.5391	91.0327
3.5247	90.624
3.5104	89.2835
3.4962	89.0718
3.4821	89.2422
3.4681	89.1967
3.4543	88.9279
3.4405	88.4245
3.4269	86.7781
3.4133	86.5538
3.3999	88.3047
3.3866	88.2518
3.3733	87.0766
3.3602	87.521
3.3472	90.2748
3.3343	91.0464
3.3215	91.333
3.3088	91.4768
3.2961	91.5024
3.2836	91.4564
3.2712	91.4912
3.2588	91.3266
3.2466	91.3083
3.2345	91.2641
3.2224	91.2424
3.2104	91.1617
3.1985	91.0479
3.1867	90.8877
3.175	90.8663
3.1634	90.613
3.1519	90.5368
3.1404	90.3186
3.129	90.0514
3.1178	89.8521
3.1065	89.7736
3.0954	89.6253
3.0844	89.4077
3.0734	89.2349
3.0625	89.1465
3.0517	88.7923
3.041	88.7452
3.0303	88.6512
3.0197	88.3594
3.0092	88.3207
2.9987	88.41
2.9884	88.4053
2.9781	88.3531
2.9678	88.5105
2.9577	88.5169
2.9476	88.7347
2.9376	88.7603
2.9276	88.9748
2.9177	89.0971
2.9079	89.3135
2.8982	89.5712
2.8885	89.6059
2.8789	89.9224
2.8693	90.1229
2.8598	90.3221
2.8504	90.423
2.841	90.6588
2.8317	90.7048
2.8224	90.9979
2.8133	91.1299
2.8041	91.9681
2.7951	91.3278
2.786	92.0865
2.7771	91.7277
2.7682	92.1407
2.7594	91.5768
2.7506	91.852
2.7418	93.2432
2.7332	92.0052
2.7246	93.7221
2.716	91.8749
2.7075	92.2029
2.699	92.0251
2.6906	92.0736
2.6823	92.3857
2.674	92.4719
2.6657	94.7563
2.6575	92.0602
2.6494	92.0175
2.6413	92.1157
2.6332	92.5049
2.6252	92.6209
2.6173	93.944
2.6094	92.7584
2.6015	92.6994
2.5937	94.7059
2.5859	92.83
2.5782	92.4938
2.5706	92.7922
2.5629	93.3285
2.5554	92.1062
2.5478	92.4046
2.5403	92.2316
2.5329	92.3409
2.5255	92.3359
2.5181	92.1297
2.5108	92.174
2.5035	92.1641
2.4963	92.137
2.4891	92.1158
2.482	92.1532
2.4749	92.0482
2.4678	92.1046
2.4608	92.2083
2.4538	92.0985
2.4468	92.0959
2.4399	92.0243
2.4331	92.0991
2.4262	92.0407
2.4194	92.1637
2.4127	92.1993
2.4059	92.1823
2.3993	92.1005
2.3926	92.0432
2.386	92.1194
2.3795	92.1197
2.3729	92.1307
2.3664	91.992
2.36	92.1326
2.3535	92.174
2.3471	92.0553
2.3408	92.0844
2.3345	92.1506
2.3282	92.0847
2.3219	92.0935
2.3157	91.9669
2.3095	92.0866
2.3034	92.0684
2.2972	92.1683
2.2911	92.2182
2.2851	92.0656
2.279	92.1942
2.2731	91.9104
2.2671	92.1537
2.2612	92.083
2.2553	92.119
2.2494	92.1778
2.2435	92.1794
2.2377	92.2345
2.232	92.0137
2.2262	92.1592
2.2205	92.1051
2.2148	92.1658
2.2091	92.1523
2.2035	92.0717
2.1979	92.1973
2.1923	91.9127
2.1868	92.2646
2.1812	92.0528
2.1758	92.1611
2.1703	92.0926
2.1649	92.1767
2.1595	92.0916
2.1541	92.0882
2.1487	91.9454
2.1434	92.2146
2.1381	92.1022
2.1328	91.8629
2.1275	92.0995
2.1223	92.1618
2.1171	92.0751
2.112	92.4892
2.1068	92.0597
2.1017	92.0219
2.0966	92.0794
2.0915	92.0265
2.0865	92.0417
2.0814	92.0493
2.0764	92.3663
2.0715	92.0996
2.0665	92.3886
2.0616	91.7817
2.0567	91.9551
2.0518	92.1285
2.0469	92.0531
2.0421	92.1789
2.0373	91.9014
2.0325	92.0994
2.0277	91.9621
2.0229	92.2247
2.0182	92.1837
2.0135	91.9665
2.0088	91.9771
2.0042	91.9229
