Name: Vesuvianite Ca_10(Mg,Fe^2+)_2Al_4(Si_2O_7)_2(SiO_4)_5(OH,F)_4
Type: Mineral
Class: Silicate
Subclass: Sorosilicate
Particle Size: Coarse
Sample No.: SS-3A
Owner: JPL
Wavelength Range: VSWIR
Origin: USA, California, Riverside County, Crestmore Quarry.
Description: Particle size was 125-500um.Collected by:  Burminco Original ASTER Spectral Library name was jpl.perkin.mineral.silicate.sorosilicate.coarse.ss03a.spectrum.txt
Measurement: Hemispherical reflectance
X Units: Wavelength (micrometers)
Y Units: Reflectance (percent)
wavelength	value
2.5	19.5262
2.494	19.3054
2.488	19.4805
2.482	19.5254
2.476	19.3803
2.47	19.463
2.464	19.4262
2.458	19.3568
2.452	19.3584
2.446	19.1414
2.44	19.021
2.434	18.993
2.428	18.9158
2.422	19.0012
2.416	19.0878
2.41	19.1382
2.404	19.2508
2.398	19.4176
2.392	19.5899
2.386	19.7528
2.38	19.7059
2.374	19.5807
2.368	19.2731
2.362	18.8903
2.356	18.5011
2.35	18.4902
2.344	18.9156
2.338	19.6363
2.332	20.5021
2.326	21.3791
2.32	22.0009
2.314	22.4011
2.308	22.7813
2.302	23.2697
2.296	24.1687
2.29	25.2209
2.284	26.0241
2.278	26.6614
2.272	27.2949
2.266	27.9797
2.26	28.7907
2.254	29.6978
2.248	30.6775
2.242	31.5673
2.236	32.191
2.23	32.7595
2.224	33.1842
2.218	33.3741
2.212	33.9835
2.206	34.9986
2.2	36.6486
2.194	37.9922
2.188	38.9388
2.182	39.5316
2.176	40.1064
2.17	40.606
2.164	40.9243
2.158	41.0105
2.152	40.9493
2.146	41.1223
2.14	41.9482
2.134	43.0994
2.128	44.4613
2.122	45.6913
2.116	46.9021
2.11	48.0244
2.104	49.1014
2.098	50.0955
2.092	51.0086
2.086	51.7472
2.08	52.308
2.074	52.773
2.068	52.9624
2.062	53.2129
2.056	53.3834
2.05	53.6533
2.044	53.9996
2.038	54.1548
2.032	54.1906
2.026	53.9789
2.02	53.6426
2.014	53.5139
2.008	53.4385
2.002	53.2551
1.996	52.6088
1.99	51.4577
1.984	51.5053
1.978	52.5105
1.972	53.0939
1.966	53.5844
1.96	54.4374
1.954	55.2617
1.948	55.9006
1.942	56.3126
1.936	56.6207
1.93	57.0231
1.924	57.3871
1.918	57.7956
1.912	58.2023
1.906	58.5513
1.9	59.0534
1.894	59.6206
1.888	60.0448
1.882	60.4819
1.876	60.7836
1.87	61.2997
1.864	61.6791
1.858	61.9177
1.852	62.1891
1.846	62.3263
1.84	62.554
1.834	62.7154
1.828	63.092
1.822	63.2985
1.816	63.5268
1.81	63.7501
1.804	63.9025
1.798	64.0852
1.792	64.0751
1.786	64.1951
1.78	64.2777
1.774	64.3392
1.768	64.4626
1.762	64.526
1.756	64.6938
1.75	64.8384
1.744	64.8765
1.738	65.0157
1.732	65.0738
1.726	65.1723
1.72	65.219
1.714	65.3504
1.708	65.4918
1.702	65.4718
1.696	65.6292
1.69	65.7631
1.684	65.9841
1.678	66.1594
1.672	66.3154
1.666	66.5461
1.66	66.8464
1.654	67.0322
1.648	67.2186
1.642	67.4638
1.636	67.7156
1.63	67.9183
1.624	68.1443
1.618	68.358
1.612	68.5556
1.606	68.7581
1.6	68.9249
1.594	69.0419
1.588	69.2334
1.582	69.2317
1.576	69.2645
1.57	69.3988
1.564	69.3287
1.558	69.4107
1.552	69.454
1.546	69.3442
1.54	69.3122
1.534	69.2138
1.528	69.0975
1.522	68.9398
1.516	68.7675
1.51	68.5769
1.504	68.3448
1.498	68.0001
1.492	67.5384
1.486	67.0449
1.48	66.5057
1.474	66.0162
1.468	65.4856
1.462	64.9123
1.456	64.5062
1.45	63.935
1.444	62.2845
1.438	59.7093
1.432	60.0801
1.426	63.057
1.42	62.9483
1.414	59.5584
1.408	56.9656
1.402	56.627
1.396	56.7846
1.39	61.0523
1.384	67.5705
1.378	70.4329
1.372	71.6075
1.366	72.3292
1.36	72.9454
1.354	73.1654
1.348	73.3664
1.342	73.4737
1.336	73.5942
1.33	73.6286
1.324	73.6084
1.318	73.6796
1.312	73.639
1.306	73.7342
1.3	73.6899
1.294	73.6209
1.288	73.5427
1.282	73.4084
1.276	73.2078
1.27	73.1041
1.264	72.918
1.258	72.8376
1.252	72.9219
1.246	72.8268
1.24	72.8483
1.234	72.6925
1.228	72.4737
1.222	72.2486
1.216	72.0991
1.21	71.974
1.204	71.7947
1.198	71.5295
1.192	71.2611
1.186	71.063
1.18	70.8573
1.174	70.5388
1.168	70.3356
1.162	70.095
1.156	69.9273
1.15	69.6038
1.144	69.4339
1.138	69.1805
1.132	69.0331
1.126	68.8002
1.12	68.6213
1.114	68.5143
1.108	68.2277
1.102	68.1333
1.096	67.9542
1.09	67.7811
1.084	67.6863
1.078	67.4477
1.072	67.3319
1.066	67.1304
1.06	67.0768
1.054	66.9378
1.048	66.7564
1.042	66.706
1.036	66.5503
1.03	66.3981
1.024	66.2542
1.018	66.0421
1.012	65.896
1.006	65.5584
1	65.224
0.994	64.795
0.988	64.2135
0.982	63.5302
0.976	62.7295
0.97	61.6019
0.964	60.1087
0.958	58.357
0.952	56.462
0.946	54.9155
0.94	53.58
0.934	53.3388
0.928	53.8687
0.922	54.6266
0.916	55.4585
0.91	56.3405
0.904	57.306
0.898	58.2624
0.892	59.0648
0.886	59.7489
0.88	60.3428
0.874	60.7566
0.868	61.178
0.862	61.5777
0.856	62.399
0.85	62.6871
0.844	62.9974
0.838	63.239
0.832	63.3969
0.826	63.5325
0.82	63.6113
0.814	63.6782
0.808	63.6774
0.802	63.6582
0.796	63.5404
0.79	63.5459
0.784	63.5186
0.778	63.4435
0.772	63.3339
0.766	63.2976
0.76	63.193
0.754	63.0822
0.748	62.9711
0.742	62.8879
0.736	62.8306
0.73	62.7802
0.724	62.641
0.718	62.4898
0.712	62.2313
0.706	61.9683
0.7	61.5961
0.694	61.2515
0.688	60.8352
0.682	60.4082
0.676	59.9156
0.67	59.442
0.664	58.9565
0.658	58.507
0.652	58.0705
0.646	57.655
0.64	57.2056
0.634	56.7456
0.628	56.3117
0.622	56.02
0.616	55.9306
0.61	55.9191
0.604	55.7818
0.598	55.6051
0.592	55.4183
0.586	55.1612
0.58	54.9183
0.574	54.5939
0.568	54.2091
0.562	53.7643
0.556	53.2887
0.55	52.7569
0.544	52.1454
0.538	51.4479
0.532	50.8307
0.526	50.5427
0.52	50.7111
0.514	50.8345
0.508	50.7834
0.502	50.3565
0.496	49.4468
0.49	48.0811
0.484	46.6391
0.478	44.931
0.472	42.4127
0.466	38.4469
0.46	34.5304
0.454	33.3321
0.448	30.838
0.442	28.539
0.436	26.9706
0.43	25.5881
0.424	23.9465
0.418	22.3044
0.412	21.1044
0.406	19.7813
0.4	18.1298
