Name: Goethite a-Fe+3O(OH)
Type: Mineral
Class: Hydroxide
Subclass: None
Particle Size: Coarse
Sample No.: goethite_2
Owner: JHU
Wavelength Range: TIR
Origin: Sample from Calavi, Bolivia via the Smithsonian (sample no.NMNH C5055)
Description: The sample was a 2 cm x 2 cm x 2 cm layered botryoidal fragment weighing 14.5 g.  Its surface was glossy black, with interior layers various shades of yellow-brown.  No impurities were noted in hand sample or microscopically. Particle size was 74-250 Micrometers.(Goethite Group) Original ASTER Spectral Library name was jhu.nicolet.mineral.hydroxide.none.coarse.goethi2.spectrum.txt
Measurement: Bidirectional reflectance
X Units: Wavelength (micrometers)
Y Units: Reflectance (percent)
wavelength	value
25.0442	7.3276
24.3388	7.4358
23.6719	7.1135
23.0407	6.7388
22.4422	6.845
21.8741	7.114
21.334	7.1804
20.8199	6.978
20.33	6.4333
19.8627	5.4421
19.4163	4.6799
18.9896	4.2065
18.5812	3.9202
18.19	3.5383
17.815	3.4719
17.4551	3.3044
17.1094	3.2261
16.7772	3.155
16.4576	3.0503
16.15	2.9741
15.8537	2.8135
15.568	2.4817
15.2925	2.3
15.0265	2.1626
14.7697	1.9338
14.5214	1.7913
14.2814	1.7756
14.0492	1.8093
13.8244	1.8686
13.6067	1.9521
13.3957	2.0779
13.1912	2.2219
12.9929	2.4438
12.8004	2.5847
12.6135	2.6614
12.432	2.5574
12.2557	2.3325
12.0843	2.1301
11.9176	2.113
11.7555	2.198
11.5977	2.3164
11.444	2.4216
11.2944	2.4744
11.1487	2.3308
11.0067	2.032
10.8682	1.6963
10.7332	1.5537
10.6015	1.5503
10.473	1.5684
10.3476	1.5876
10.2251	1.6013
10.1056	1.6121
9.9887	1.6082
9.8746	1.6155
9.763	1.6074
9.6539	1.6345
9.5472	1.6675
9.4429	1.6709
9.3408	1.6838
9.2409	1.7114
9.1431	1.7239
9.0474	1.7422
8.9536	1.7769
8.8618	1.7815
8.7718	1.7803
8.6837	1.7996
8.5973	1.8362
8.5126	1.8828
8.4295	1.9348
8.3481	1.9905
8.2682	2.0339
8.1898	2.0845
8.1129	2.0957
8.0374	2.1069
7.9634	2.1223
7.8906	2.1313
7.8192	2.1182
7.7491	2.1091
7.6802	2.093
7.6126	2.0618
7.5461	2.0391
7.4807	2.029
7.4165	2.0344
7.3534	2.0583
7.2914	2.0566
7.2303	2.0383
7.1703	2.0469
7.1113	2.0535
7.0533	2.0276
6.9962	2.0178
6.94	2.03
6.8847	2.0488
6.8302	2.0378
6.7767	2.0474
6.7239	2.0427
6.672	2.0295
6.6209	2.02
6.5705	1.9917
6.5209	2.0078
6.4721	2.0027
6.424	1.9914
6.3766	2.0193
6.3299	2.0391
6.2838	2.0403
6.2385	2.0461
6.1937	2.0232
6.1496	2.0222
6.1062	2
6.0633	1.9922
6.0211	2.0107
5.9794	2.0124
5.9383	2.0286
5.8978	2.052
5.8578	2.0884
5.8184	2.0796
5.7794	2.1008
5.741	2.1038
5.7031	2.0925
5.6657	2.0752
5.6288	2.0725
5.5924	2.0747
5.5564	2.0762
5.5209	2.103
5.4859	2.1394
5.4513	2.1719
5.4171	2.2048
5.3833	2.2378
5.35	2.2554
5.3171	2.2805
5.2846	2.2837
5.2524	2.2903
5.2207	2.2905
5.1893	2.2932
5.1584	2.3132
5.1277	2.3132
5.0975	2.3291
5.0676	2.3298
5.038	2.3401
5.0088	2.3542
4.98	2.3589
4.9514	2.3777
4.9232	2.3818
4.8953	2.3943
4.8678	2.4119
4.8405	2.4314
4.8135	2.4309
4.7868	2.4416
4.7605	2.4597
4.7344	2.4619
4.7086	2.4751
4.6831	2.4773
4.6578	2.4761
4.6328	2.4958
4.6081	2.4951
4.5837	2.5005
4.5595	2.4946
4.5356	2.4939
4.5119	2.4895
4.4884	2.4949
4.4652	2.4829
4.4423	2.4878
4.4196	2.4853
4.3971	2.4739
4.3748	2.4646
4.3528	2.4646
4.331	2.4541
4.3094	2.4614
4.288	2.4534
4.2668	2.4311
4.2458	2.4397
4.2251	2.4402
4.2045	2.4258
4.1841	2.4197
4.164	2.3921
4.144	2.386
4.1242	2.3823
4.1046	2.3569
4.0852	2.3481
4.066	2.3252
4.047	2.3218
4.0281	2.3035
4.0094	2.2905
3.9909	2.2783
3.9725	2.2454
3.9544	2.2344
3.9363	2.2244
3.9185	2.2158
3.9008	2.1999
3.8833	2.1699
3.8659	2.155
3.8487	2.1365
3.8316	2.1211
3.8147	2.0991
3.7979	2.0874
3.7813	2.0798
3.7648	2.053
3.7485	2.0381
3.7323	2.0254
3.7162	2.0044
3.7003	1.9856
3.6845	1.9763
3.6689	1.969
3.6534	1.9475
3.638	1.9426
3.6227	1.9265
3.6076	1.9202
3.5926	1.9087
3.5777	1.8916
3.563	1.8933
3.5484	1.8811
3.5338	1.8635
3.5195	1.8606
3.5052	1.8567
3.491	1.8625
3.477	1.8486
3.463	1.8437
3.4492	1.8381
3.4355	1.8308
3.4219	1.8337
3.4084	1.8198
3.395	1.8115
3.3817	1.7996
3.3685	1.8083
3.3554	1.7844
3.3425	1.791
3.3296	1.7732
3.3168	1.7761
3.3041	1.7683
3.2915	1.7585
3.279	1.7637
3.2666	1.7434
3.2543	1.7458
3.2421	1.7341
3.23	1.7205
3.218	1.7205
3.206	1.6843
3.1942	1.6973
3.1824	1.6838
3.1707	1.6506
3.1591	1.6426
3.1476	1.6111
3.1362	1.6013
3.1249	1.5757
3.1136	1.561
3.1024	1.5315
3.0913	1.5281
3.0803	1.5107
3.0694	1.4934
3.0585	1.4692
3.0477	1.4748
3.037	1.468
3.0264	1.4617
3.0158	1.459
3.0053	1.4336
2.9949	1.447
2.9845	1.4392
2.9743	1.4192
2.9641	1.4123
2.9539	1.4399
2.9439	1.426
2.9339	1.4331
2.9239	1.4148
2.9141	1.4187
2.9043	1.4248
2.8946	1.4341
2.8849	1.4333
2.8753	1.4231
2.8658	1.4268
2.8563	1.426
2.8469	1.4182
2.8375	1.4282
2.8282	1.4177
2.819	1.447
2.8098	1.4548
2.8007	1.4917
2.7917	1.5134
2.7827	1.5566
2.7738	1.6311
2.7649	1.6963
2.7561	1.8015
2.7473	1.9663
2.7386	2.1545
2.7299	2.395
2.7213	2.6199
2.7128	2.8525
2.7043	3.0542
2.6959	3.2873
2.6875	3.4646
2.6791	3.8201
2.6709	4.0686
2.6626	4.2729
2.6545	4.4377
2.6463	4.5852
2.6382	4.7016
2.6302	4.7873
2.6222	4.9026
2.6143	4.9907
2.6064	5.0691
2.5986	5.1828
2.5908	5.2024
2.583	5.2764
2.5753	5.3391
2.5677	5.3674
2.5601	5.3738
2.5525	5.4111
2.545	5.4404
2.5375	5.4411
2.5301	5.3967
2.5227	5.4123
2.5154	5.4067
2.5081	5.4245
2.5008	5.414
2.4936	5.4299
2.4864	5.4045
2.4793	5.4075
2.4722	5.4475
2.4651	5.4387
2.4581	5.4551
2.4511	5.4673
2.4442	5.539
2.4373	5.5539
2.4305	5.584
2.4236	5.6228
2.4169	5.6247
2.4101	5.708
2.4034	5.7283
2.3967	5.7607
2.3901	5.8118
2.3835	5.8977
2.377	5.9907
2.3704	6.1057
2.364	6.2058
2.3575	6.2895
2.3511	6.3835
2.3447	6.5137
2.3384	6.5515
2.3321	6.6262
2.3258	6.6645
2.3195	6.7556
2.3133	6.7893
2.3071	6.8733
2.301	6.9704
2.2949	7.0654
2.2888	7.146
2.2828	7.2536
2.2767	7.3381
2.2708	7.3957
2.2648	7.4949
2.2589	7.6494
2.253	7.7632
2.2471	7.8679
2.2413	8.0032
2.2355	8.0825
2.2297	8.2102
2.224	8.302
2.2183	8.3474
2.2126	8.4768
2.207	8.5625
2.2013	8.591
2.1957	8.667
2.1902	8.6953
2.1846	8.8325
2.1791	8.9013
2.1736	8.9306
2.1682	8.9936
2.1628	9.0683
2.1574	9.1113
2.152	9.0498
2.1466	9.1286
2.1413	9.1377
2.136	9.1467
2.1308	9.1968
2.1255	9.2016
2.1203	9.1889
2.1151	9.2285
2.11	9.1933
2.1048	9.1841
2.0997	9.1758
2.0946	9.1806
2.0895	9.2231
2.0845	9.1509
2.0795	9.115
