Name: Ulexite NaCaB_5O_6(OH)_6.5H_2O
Type: Mineral
Class: Borate
Subclass: None
Particle Size: Coarse
Sample No.: B-3A
Owner: JPL
Wavelength Range: VSWIR
Origin: USA, California, Kern County, Boron
Description: Particle size was 125-500um.Collected by JPL Original ASTER Spectral Library name was jpl.beckman.mineral.borate.none.coarse.b03.spectrum.txt
Measurement: Hemispherical reflectance
X Units: Wavelength (micrometers)
Y Units: Reflectance (percent)
wavelength	value
0.4	77.97
0.403	78.44
0.406	78.73
0.409	78.78
0.412	79.72
0.415	79.42
0.418	79.78
0.421	80.01
0.424	80.13
0.427	80.65
0.43	80.35
0.433	80.35
0.436	80.59
0.439	80.65
0.442	81.23
0.445	81.12
0.448	81.17
0.451	81.63
0.454	81.64
0.457	82.29
0.46	81.95
0.463	81.9
0.466	82.07
0.469	82.31
0.472	82.19
0.475	82.14
0.478	81.98
0.481	82.56
0.484	82.69
0.487	82.57
0.49	82.81
0.493	82.7
0.496	82.99
0.499	83
0.502	83.12
0.505	83.3
0.508	83.06
0.511	83.18
0.514	83.18
0.517	83.36
0.52	83.36
0.523	83.18
0.526	83.65
0.529	83.7
0.532	83.65
0.535	83.93
0.538	83.7
0.541	83.93
0.544	83.87
0.547	83.76
0.55	83.99
0.553	83.76
0.556	83.93
0.559	83.76
0.562	84.46
0.565	84.05
0.568	84.52
0.571	84.46
0.574	84.29
0.577	84.46
0.58	84.17
0.583	84.17
0.586	84.11
0.589	83.82
0.592	84.34
0.595	84.34
0.598	83.82
0.601	84.52
0.604	84.34
0.607	84.4
0.61	84.93
0.613	84.58
0.616	84.81
0.619	84.7
0.622	84.81
0.625	85.05
0.628	84.75
0.631	84.4
0.634	84.7
0.637	84.93
0.64	84.64
0.643	84.75
0.646	84.34
0.649	84.58
0.652	84.93
0.655	84.64
0.658	84.75
0.661	84.75
0.664	84.52
0.667	85.11
0.67	84.46
0.673	84.7
0.676	84.87
0.679	84.64
0.682	84.81
0.685	84.52
0.688	84.7
0.691	84.99
0.694	84.46
0.697	84.7
0.7	84.58
0.703	84.46
0.706	84.64
0.709	84.58
0.712	84.29
0.715	84.58
0.718	84.29
0.721	84.11
0.724	84.46
0.727	83.99
0.73	84.11
0.733	84.05
0.736	83.82
0.739	83.82
0.742	83.65
0.745	83.42
0.748	83.47
0.751	83.18
0.754	83.42
0.757	83.24
0.76	83.12
0.763	83.65
0.766	83.42
0.769	83.47
0.772	83.59
0.775	83.42
0.778	83.82
0.781	83.82
0.784	83.36
0.787	83.65
0.79	83.36
0.793	83.76
0.796	83.76
0.799	83.7
0.808	83.65
0.82	83.65
0.832	83.7
0.844	83.53
0.856	83.24
0.868	83.18
0.88	83
0.892	82.71
0.904	82.48
0.916	82.3
0.928	81.84
0.94	80.96
0.952	79.15
0.964	75.59
0.976	72.85
0.988	74.9
1	75.77
1.012	76.94
1.024	78.1
1.036	79.33
1.048	80.15
1.06	80.84
1.072	80.84
1.084	80.67
1.096	80.37
1.108	80.09
1.12	79.62
1.132	78.92
1.144	77.22
1.156	74.42
1.168	70.26
1.18	66.52
1.192	64.52
1.204	63.57
1.216	62.94
1.228	62.29
1.24	62.47
1.252	62.52
1.264	63.03
1.276	63.25
1.288	62.99
1.3	61.3
1.312	58.61
1.324	55.16
1.336	51.72
1.348	49.6
1.36	48.32
1.372	46.17
1.384	41.81
1.396	34.43
1.408	24.95
1.42	15.88
1.432	13.61
1.444	14.72
1.456	13.5
1.468	13.38
1.48	14.49
1.492	15.49
1.504	16.53
1.516	17.46
1.528	18.1
1.54	18.74
1.552	19.38
1.564	19.73
1.576	19.73
1.588	19.38
1.6	18.98
1.612	18.51
1.624	18.14
1.636	17.73
1.648	17.44
1.66	17.21
1.672	17.09
1.684	16.74
1.696	16.79
1.708	16.55
1.72	16.49
1.732	16.21
1.744	16.09
1.756	15.8
1.768	15.62
1.78	15.74
1.792	16.15
1.804	16.61
1.816	16.71
1.828	16.52
1.84	16.09
1.852	15.21
1.864	13.76
1.876	11.74
1.888	9.54
1.9	7.04
1.912	4.74
1.924	3.23
1.936	2.24
1.948	1.73
1.96	1.78
1.972	2.13
1.984	2.42
1.996	2.82
2.008	3.09
2.02	3.33
2.032	3.43
2.044	3.37
2.056	3.36
2.068	3.24
2.08	3.12
2.092	2.9
2.104	2.6
2.116	2.44
2.128	2.49
2.14	2.49
2.152	2.32
2.164	2.16
2.176	2.33
2.188	2.62
2.2	3.04
2.212	3.38
2.224	3.61
2.236	3.72
2.248	4.06
2.26	4.64
2.272	5.09
2.284	5.2
2.296	5.19
2.308	4.95
2.32	4.67
2.332	4.36
2.344	4.02
2.356	3.56
2.368	3.04
2.38	2.71
2.392	2.25
2.404	2.03
2.416	1.91
2.428	1.74
2.44	1.52
2.452	1.4
2.464	1.34
2.476	1.34
2.488	1.4
2.5	1.29
