Name: Orthoclase KAlSi3O8
Type: Mineral
Class: Silicate
Subclass: Tectosilicate
Particle Size: Solid
Sample No.: orthocl_3
Owner: JHU
Wavelength Range: TIR
Origin: Harris Farm Mica Mine, near Oliver, Goochland Co., Virginiavia the Smithsonian (sample no. NMNH 113188)
Description: The hand sample is a single 11.97 g fragment of a single crystal.  It is twinned, translucent, light beige in color and appears very pure. Under the microscope, the sample is slightly altered to sericite, otherwise pure. Sample had fracture surface.(Framework Silicates); (Feldspar Group) Original ASTER Spectral Library name was jhu.nicolet.mineral.silicate.tectosilicate.solid.orthoc3b.spectrum.txt
Measurement: Bidirectional reflectance
X Units: Wavelength (micrometers)
Y Units: Reflectance (percent)
wavelength	value
25.0442	16.9775
24.3388	16.7812
23.6719	20.413
23.0407	23.7502
22.4422	20.8496
21.8741	14.6513
21.334	11.7238
20.8199	8.2759
20.33	4.9243
19.8627	6.2331
19.4163	7.3296
18.9896	8.4043
18.5812	10.5161
18.19	10.4543
17.815	9.3845
17.4551	10.7082
17.1094	12.6987
16.7772	15.8064
16.4576	17.5441
16.15	12.8549
15.8537	8.6116
15.568	8.4262
15.2925	7.5908
15.0265	7.0461
14.7697	7.82
14.5214	8.4656
14.2814	9.1992
14.0492	9.6184
13.8244	9.4529
13.6067	8.5793
13.3957	8.4507
13.1912	8.4992
12.9929	8.4177
12.8004	8.0244
12.6135	8.0022
12.432	8.1313
12.2557	8.6557
12.0843	9.1115
11.9176	9.4717
11.7555	9.8503
11.5977	10.2373
11.444	10.5918
11.2944	11.0224
11.1487	11.4709
11.0067	12.0183
10.8682	12.6662
10.7332	13.4724
10.6015	14.4785
10.473	15.7829
10.3476	17.6347
10.2251	19.9414
10.1056	22.4841
9.9887	25.1408
9.8746	27.2343
9.763	29.0719
9.6539	32.3378
9.5472	35.9208
9.4429	36.5189
9.3408	32.8791
9.2409	30.755
9.1431	28.352
9.0474	26.7492
8.9536	25.1972
8.8618	26.3603
8.7718	29.2992
8.6837	30.4274
8.5973	29.2284
8.5126	27.1518
8.4295	25.7136
8.3481	25.5597
8.2682	23.6286
8.1898	19.4064
8.1129	14.8449
8.0374	10.2732
7.9634	6.008
7.8906	3.123
7.8192	1.8103
7.7491	1.7773
7.6802	2.1663
7.6126	2.5088
7.5461	2.8142
7.4807	3.0684
7.4165	3.2925
7.3534	3.4822
7.2914	3.6589
7.2303	3.7832
7.1703	3.9219
7.1113	4.0642
7.0533	4.1836
6.9962	4.2947
6.94	4.4045
6.8847	4.4934
6.8302	4.5449
6.7767	4.5588
6.7239	4.6384
6.672	4.7043
6.6209	4.7744
6.5705	4.8201
6.5209	4.8935
6.4721	4.9443
6.424	4.9753
6.3766	5.04
6.3299	5.1086
6.2838	5.1528
6.2385	5.197
6.1937	5.2312
6.1496	5.2803
6.1062	5.3076
6.0633	5.3655
6.0211	5.3813
5.9794	5.3828
5.9383	5.3545
5.8978	5.3901
5.8578	5.4748
5.8184	5.4411
5.7794	5.5405
5.741	5.6191
5.7031	5.5181
5.6657	5.4861
5.6288	5.5161
5.5924	5.5315
5.5564	5.5488
5.5209	5.572
5.4859	5.5845
5.4513	5.6152
5.4171	5.6189
5.3833	5.6377
5.35	5.6575
5.3171	5.6943
5.2846	5.6994
5.2524	5.7207
5.2207	5.7449
5.1893	5.7651
5.1584	5.7876
5.1277	5.7981
5.0975	5.813
5.0676	5.8247
5.038	5.8391
5.0088	5.8515
4.98	5.8533
4.9514	5.8545
4.9232	5.8635
4.8953	5.8779
4.8678	5.8828
4.8405	5.8835
4.8135	5.8843
4.7868	5.8923
4.7605	5.8938
4.7344	5.9031
4.7086	5.9145
4.6831	5.9238
4.6578	5.9184
4.6328	5.9512
4.6081	5.9558
4.5837	5.9724
4.5595	5.98
4.5356	5.9824
4.5119	5.9868
4.4884	6.009
4.4652	6.0149
4.4423	6.0222
4.4196	6.0393
4.3971	6.042
4.3748	6.0625
4.3528	6.0644
4.331	6.0781
4.3094	6.0854
4.288	6.1106
4.2668	6.1069
4.2458	6.125
4.2251	6.1172
4.2045	6.1382
4.1841	6.1457
4.164	6.1684
4.144	6.1731
4.1242	6.1799
4.1046	6.1687
4.0852	6.1877
4.066	6.1836
4.047	6.1958
4.0281	6.1985
4.0094	6.2065
3.9909	6.2117
3.9725	6.2241
3.9544	6.2331
3.9363	6.2517
3.9185	6.241
3.9008	6.269
3.8833	6.27
3.8659	6.2668
3.8487	6.2859
3.8316	6.2886
3.8147	6.3047
3.7979	6.3059
3.7813	6.31
3.7648	6.321
3.7485	6.3271
3.7323	6.3293
3.7162	6.3359
3.7003	6.3406
3.6845	6.3381
3.6689	6.3364
3.6534	6.3428
3.638	6.3542
3.6227	6.3484
3.6076	6.3589
3.5926	6.3691
3.5777	6.3716
3.563	6.3799
3.5484	6.3909
3.5338	6.4033
3.5195	6.4582
3.5052	6.5449
3.491	6.4101
3.477	6.4057
3.463	6.4499
3.4492	6.4802
3.4355	6.5517
3.4219	6.6501
3.4084	6.4641
3.395	6.3691
3.3817	6.3652
3.3685	6.3452
3.3554	6.3222
3.3425	6.3274
3.3296	6.3125
3.3168	6.3254
3.3041	6.324
3.2915	6.3196
3.279	6.3157
3.2666	6.3083
3.2543	6.3008
3.2421	6.3108
3.23	6.321
3.218	6.3183
3.206	6.313
3.1942	6.3139
3.1824	6.3415
3.1707	6.3213
3.1591	6.3266
3.1476	6.3357
3.1362	6.3188
3.1249	6.3286
3.1136	6.3389
3.1024	6.3301
3.0913	6.3306
3.0803	6.3306
3.0694	6.3398
3.0585	6.3166
3.0477	6.3208
3.037	6.3186
3.0264	6.3349
3.0158	6.3345
3.0053	6.3301
2.9949	6.3423
2.9845	6.3227
2.9743	6.3215
2.9641	6.3276
2.9539	6.3225
2.9439	6.3354
2.9339	6.3125
2.9239	6.3135
2.9141	6.2964
2.9043	6.2827
2.8946	6.3086
2.8849	6.332
2.8753	6.3359
2.8658	6.3225
2.8563	6.3296
2.8469	6.3208
2.8375	6.3193
2.8282	6.3188
2.819	6.3418
2.8098	6.3428
2.8007	6.3276
2.7917	6.3203
2.7827	6.3208
2.7738	6.3389
2.7649	6.3335
2.7561	6.3218
2.7473	6.3528
2.7386	6.3345
2.7299	6.3428
2.7213	6.365
2.7128	6.3889
2.7043	6.3733
2.6959	6.3821
2.6875	6.3955
2.6791	6.3957
2.6709	6.3782
2.6626	6.4241
2.6545	6.4001
2.6463	6.3916
2.6382	6.4231
2.6302	6.3696
2.6222	6.4043
2.6143	6.4014
2.6064	6.373
2.5986	6.4101
2.5908	6.3938
2.583	6.4014
2.5753	6.4204
2.5677	6.4162
2.5601	6.3938
2.5525	6.3877
2.545	6.3974
2.5375	6.4038
2.5301	6.3857
2.5227	6.4065
2.5154	6.3735
2.5081	6.3916
2.5008	6.4172
2.4936	6.4094
2.4864	6.3926
2.4793	6.3987
2.4722	6.3623
2.4651	6.343
2.4581	6.375
2.4511	6.3967
2.4442	6.3525
2.4373	6.3877
2.4305	6.3896
2.4236	6.3828
2.4169	6.3498
2.4101	6.3623
2.4034	6.3762
2.3967	6.3518
2.3901	6.3398
2.3835	6.3418
2.377	6.3584
2.3704	6.3684
2.364	6.376
2.3575	6.341
2.3511	6.3945
2.3447	6.3769
2.3384	6.3764
2.3321	6.3574
2.3258	6.334
2.3195	6.3642
2.3133	6.3647
2.3071	6.3852
2.301	6.4077
2.2949	6.4048
2.2888	6.3725
2.2828	6.3799
2.2767	6.4131
2.2708	6.3877
2.2648	6.4306
2.2589	6.4101
2.253	6.3965
2.2471	6.4145
2.2413	6.4321
2.2355	6.4277
2.2297	6.4223
2.224	6.4472
2.2183	6.48
2.2126	6.4101
2.207	6.418
2.2013	6.4326
2.1957	6.4453
2.1902	6.4595
2.1846	6.4697
2.1791	6.4541
2.1736	6.5005
2.1682	6.5303
2.1628	6.518
2.1574	6.52
2.152	6.5039
2.1466	6.5078
2.1413	6.5381
2.136	6.5312
2.1308	6.5
2.1255	6.563
2.1203	6.5234
2.1151	6.5722
2.11	6.5742
2.1048	6.602
2.0997	6.5918
2.0946	6.6372
2.0895	6.6514
2.0845	6.6299
2.0795	6.6514
