Name: Muscovite KAl2(Si3Al)O10(OH,F)2
Type: Mineral
Class: Silicate
Subclass: Phyllosilicate
Particle Size: Solid
Sample No.: muscov_1
Owner: JHU
Wavelength Range: TIR
Origin: Methuen Township, Ontario via Bruce Hemingway, USGS
Description: The sample consisted of clear, transparent "books" of muscovite, which appear pure in hand sample.  Microscopic examination showed a possible trace (<1%) of quartz present.  (However, no quartz bands are apparent in the infrared spectrum.).(Sheet Silicates); (MicaGroup)Sample was solid and used 001 face. Original ASTER Spectral Library name was jhu.nicolet.mineral.silicate.phyllosilicate.solid.muscov1.spectrum.txt
Measurement: Bidirectional reflectance
X Units: Wavelength (micrometers)
Y Units: Reflectance (percent)
wavelength	value
25.0442	26.0429
24.3388	29.2519
23.6719	27.1484
23.0407	27.4589
22.4422	28.2753
21.8741	31.1093
21.334	36.537
20.8199	42.5043
20.33	41.016
19.8627	36.9345
19.4163	34.9149
18.9896	38.5702
18.5812	48.8495
18.19	51.2626
17.815	46.5477
17.4551	40.8915
17.1094	44.8261
16.7772	46.9388
16.4576	36.9081
16.15	27.2001
15.8537	22.142
15.568	17.7192
15.2925	16.9975
15.0265	18.2211
14.7697	18.9211
14.5214	19.0502
14.2814	19.0927
14.0492	19.1792
13.8244	19.5505
13.6067	19.7983
13.3957	20.3703
13.1912	20.1254
12.9929	18.8469
12.8004	18.5432
12.6135	18.4721
12.432	18.6787
12.2557	18.1362
12.0843	18.7187
11.9176	19.7502
11.7555	22.1457
11.5977	23.8513
11.444	24.5534
11.2944	24.8259
11.1487	25.1681
11.0067	25.5966
10.8682	25.8937
10.7332	25.9191
10.6015	25.1381
10.473	25.7011
10.3476	28.499
10.2251	32.3105
10.1056	35.9057
9.9887	37.7763
9.8746	40.8173
9.763	45.6071
9.6539	52.7421
9.5472	50.347
9.4429	44.6935
9.3408	47.7689
9.2409	50.965
9.1431	53.2118
9.0474	54.9657
8.9536	56.7857
8.8618	56.0541
8.7718	51.8983
8.6837	45.7894
8.5973	42.2875
8.5126	36.1332
8.4295	28.4096
8.3481	19.2441
8.2682	9.9765
8.1898	6.7529
8.1129	8.2119
8.0374	9.8069
7.9634	10.5722
7.8906	11.291
7.8192	12.0581
7.7491	12.2854
7.6802	12.1294
7.6126	12.1091
7.5461	12.2661
7.4807	12.1821
7.4165	12.0529
7.3534	12.0412
7.2914	12.405
7.2303	13.0957
7.1703	13.6928
7.1113	14.3686
7.0533	14.8569
6.9962	15.4433
6.94	16.1154
6.8847	16.7321
6.8302	17.3774
6.7767	18.3518
6.7239	19.0568
6.672	19.6494
6.6209	19.9975
6.5705	20.1235
6.5209	20.2519
6.4721	20.4799
6.424	20.5854
6.3766	20.8708
6.3299	21.3491
6.2838	21.7607
6.2385	21.7934
6.1937	21.7065
6.1496	21.5776
6.1062	21.3149
6.0633	21.0561
6.0211	20.7778
5.9794	20.5332
5.9383	20.1289
5.8978	20.1415
5.8578	20.4218
5.8184	20.5417
5.7794	20.5881
5.741	20.4572
5.7031	20.2377
5.6657	19.9016
5.6288	19.5083
5.5924	19.1733
5.5564	18.8144
5.5209	18.529
5.4859	18.2023
5.4513	17.9909
5.4171	17.8579
5.3833	17.8862
5.35	17.871
5.3171	18.1335
5.2846	18.3693
5.2524	18.7104
5.2207	19.018
5.1893	19.6174
5.1584	20.4575
5.1277	21.3569
5.0975	21.9726
5.0676	22.2819
5.038	22.7289
5.0088	23.1245
4.98	23.5136
4.9514	23.6611
4.9232	24.0173
4.8953	24.3908
4.8678	24.7717
4.8405	25.0698
4.8135	25.3202
4.7868	25.8381
4.7605	26.4575
4.7344	27.1933
4.7086	27.6772
4.6831	28.5141
4.6578	29.4775
4.6328	30.9208
4.6081	31.9892
4.5837	33.1669
4.5595	34.0385
4.5356	35.2296
4.5119	36.0878
4.4884	37.0106
4.4652	37.9135
4.4423	38.933
4.4196	39.8998
4.3971	40.4838
4.3748	40.7824
4.3528	40.9569
4.331	41.2543
4.3094	41.5365
4.288	41.6737
4.2668	41.6513
4.2458	41.6547
4.2251	41.6098
4.2045	41.7348
4.1841	41.7848
4.164	41.7816
4.144	41.7816
4.1242	41.6767
4.1046	41.6166
4.0852	41.5311
4.066	41.4843
4.047	41.6154
4.0281	41.7147
4.0094	41.7592
3.9909	41.725
3.9725	41.6996
3.9544	41.7206
3.9363	41.6781
3.9185	41.6903
3.9008	41.661
3.8833	41.5233
3.8659	41.3837
3.8487	41.2924
3.8316	41.2894
3.8147	41.369
3.7979	41.4599
3.7813	41.3642
3.7648	41.0819
3.7485	40.5553
3.7323	39.7797
3.7162	39.4711
3.7003	39.3075
3.6845	39.4247
3.6689	39.5131
3.6534	39.7392
3.638	40.0551
3.6227	40.5224
3.6076	41.037
3.5926	41.4354
3.5777	41.8034
3.563	42.0565
3.5484	42.2968
3.5338	42.4882
3.5195	42.7277
3.5052	42.7731
3.491	42.9423
3.477	43.0534
3.463	43.1679
3.4492	43.1771
3.4355	43.1569
3.4219	43.059
3.4084	43.0502
3.395	43.0267
3.3817	43.2255
3.3685	43.2421
3.3554	43.2533
3.3425	43.205
3.3296	43.1906
3.3168	43.1369
3.3041	43.1825
3.2915	43.1679
3.279	43.0797
3.2666	42.9286
3.2543	42.7697
3.2421	42.5775
3.23	42.3507
3.218	42.035
3.206	41.7597
3.1942	41.5978
3.1824	41.494
3.1707	41.3192
3.1591	41.2455
3.1476	41.1427
3.1362	40.9525
3.1249	40.7504
3.1136	40.4816
3.1024	40.2318
3.0913	40.0646
3.0803	39.9022
3.0694	39.6952
3.0585	39.455
3.0477	39.1818
3.037	38.9633
3.0264	38.7572
3.0158	38.6986
3.0053	38.6007
2.9949	38.3615
2.9845	37.8957
2.9743	37.4579
2.9641	36.797
2.9539	36.0507
2.9439	35.0607
2.9339	33.6942
2.9239	32.175
2.9141	30.5265
2.9043	29.33
2.8946	28.672
2.8849	28.4338
2.8753	28.5353
2.8658	29.1398
2.8563	29.2218
2.8469	28.4755
2.8375	27.2773
2.8282	26.0871
2.819	24.4828
2.8098	22.164
2.8007	20.5009
2.7917	19.8793
2.7827	19.2915
2.7738	18.6303
2.7649	17.561
2.7561	16.3969
2.7473	15.7568
2.7386	15.3828
2.7299	14.9438
2.7213	15.5742
2.7128	18.7265
2.7043	24.0356
2.6959	26.8154
2.6875	28.1957
2.6791	29.0141
2.6709	29.7363
2.6626	31.2968
2.6545	32.246
2.6463	32.9399
2.6382	33.477
2.6302	33.4179
2.6222	33.5038
2.6143	33.3388
2.6064	33.2284
2.5986	33.2777
2.5908	33.5234
2.583	33.4501
2.5753	33.6371
2.5677	33.7343
2.5601	33.8871
2.5525	34.0981
2.545	34.2362
2.5375	34.2192
2.5301	33.9159
2.5227	33.5395
2.5154	32.9853
2.5081	32.5175
2.5008	32.0785
2.4936	31.8319
2.4864	31.4902
2.4793	31.1835
2.4722	30.8383
2.4651	30.3925
2.4581	29.8388
2.4511	29.205
2.4442	28.6606
2.4373	28.3222
2.4305	28.373
2.4236	28.5864
2.4169	29.0649
2.4101	29.5038
2.4034	29.9355
2.3967	30.0082
2.3901	29.7778
2.3835	29.4902
2.377	29.6386
2.3704	29.7636
2.364	29.9086
2.3575	29.5614
2.3511	29.0116
2.3447	28.7909
2.3384	29.0595
2.3321	29.5722
2.3258	30.4374
2.3195	31.289
2.3133	31.9657
2.3071	32.9413
2.301	33.661
2.2949	34.4804
2.2888	34.8446
2.2828	35.1552
2.2767	35.3124
2.2708	35.4062
2.2648	35.2509
2.2589	35.0839
2.253	34.9267
2.2471	34.7392
2.2413	34.0624
2.2355	33.371
2.2297	32.8593
2.224	32.5292
2.2183	31.3778
2.2126	29.2714
2.207	26.7665
2.2013	24.9218
2.1957	24.623
2.1902	25.4941
2.1846	27.7187
2.1791	30.3876
2.1736	32.9892
2.1682	34.8554
2.1628	36.1298
2.1574	36.661
2.152	37.1991
2.1466	37.5663
2.1413	37.8251
2.136	38.2118
2.1308	38.1659
2.1255	38.2196
2.1203	38.1522
2.1151	38.2968
2.11	38.6483
2.1048	38.7694
2.0997	38.8329
2.0946	39.0136
2.0895	39.3183
2.0845	39.4804
2.0795	39.4267
