Name: Magnesiochromite MgCr_2O_4
Type: Mineral
Class: Oxide
Subclass: None
Particle Size: Medium
Sample No.: O-8A
Owner: JPL
Wavelength Range: TIR
Origin: Canada, Quebec, Coleraine Township
Description: Particle size was 45-125um.Collected by Ward's Original ASTER Spectral Library name was jpl.nicolet.mineral.oxide.none.medium.o08a.spectrum.txt
Measurement: Hemispherical reflectance
X Units: Wavelength (micrometers)
Y Units: Reflectance (percent)
wavelength	value
15.3853	35.3814
15.1161	35.3289
14.8563	33.9791
14.6052	31.4788
14.3624	28.7332
14.1276	26.1926
13.9004	22.9319
13.6803	19.2414
13.4671	14.022
13.2604	6.5326
13.06	2.3169
12.8656	0.8597
12.6769	0.4973
12.4936	0.2639
12.3155	0.5944
12.1425	0.6897
11.9742	0.8679
11.8106	1.1449
11.6513	1.543
11.4963	1.7146
11.3454	1.7887
11.1983	2.0227
11.0551	2.1817
10.9154	2.6328
10.7793	2.8624
10.6465	3.1961
10.5169	3.6854
10.3904	4.0996
10.267	4.5614
10.1464	4.7226
10.0287	5.2474
9.9136	5.7173
9.8012	6.439
9.6913	6.2424
9.5838	5.9733
9.4787	5.5315
9.3758	5.4542
9.2752	5.484
9.1767	5.552
9.0803	6.4266
8.9858	6.9679
8.8934	7.6932
8.8028	7.9091
8.714	8.1337
8.627	8.3213
8.5417	8.9441
8.4581	9.8967
8.3761	10.931
8.2957	12.553
8.2169	13.4923
8.1395	14.3092
8.0635	14.2003
7.989	13.6144
7.9158	13.4409
7.8439	13.8009
7.7734	14.0671
7.7041	14.6789
7.636	15.4006
7.5691	16.2068
7.5034	17.0569
7.4388	17.834
7.3753	18.5269
7.3129	19.2498
7.2515	20.1282
7.1912	20.8013
7.1318	21.7146
7.0734	22.4862
7.016	23.3168
6.9595	23.9875
6.9039	24.6588
6.8492	25.284
6.7953	25.565
6.7423	25.9102
6.6901	26.2175
6.6387	26.6326
6.5881	26.5994
6.5382	26.7074
6.4892	26.9456
6.4408	26.8702
6.3931	26.6828
6.3462	26.5282
6.2999	26.4634
6.2543	26.6825
6.2094	26.7132
6.1651	26.8016
6.1214	26.8982
6.0784	27.1778
6.0359	27.8041
5.994	28.6333
5.9527	29.4639
5.912	30.0977
5.8718	30.8904
5.8322	31.5188
5.7931	32.0225
5.7545	32.6887
5.7165	32.9366
5.6789	33.3239
5.6418	33.6479
5.6052	33.8349
5.5691	33.9402
5.5334	34.1127
5.4982	34.1438
5.4635	34.4579
5.4291	34.5738
5.3952	34.8484
5.3618	35.1381
5.3287	35.2118
5.2961	35.3229
5.2638	35.3562
5.2319	35.3733
5.2004	35.4171
5.1693	35.3799
5.1386	35.285
5.1082	35.2326
5.0782	35.1742
5.0485	35.0035
5.0192	34.9989
4.9902	34.8821
4.9616	34.7446
4.9332	34.6661
4.9052	34.6391
4.8776	34.3419
4.8502	34.3069
4.8231	33.9171
4.7963	33.6839
4.7699	33.4018
4.7437	33.1468
4.7178	32.9335
4.6922	32.5562
4.6668	32.0447
4.6418	31.7546
4.617	31.251
4.5924	30.7691
4.5681	30.2875
4.5441	29.7698
4.5203	29.0583
4.4968	28.4077
4.4735	27.7845
4.4505	27.0603
4.4277	26.3304
4.4051	25.6029
4.3828	24.8371
4.3607	24.1313
4.3388	23.2987
4.3171	22.4199
4.2956	21.5068
4.2744	20.6032
4.2534	20.1101
4.2325	18.9511
4.2119	18.6947
4.1915	18.3459
4.1712	17.5854
4.1512	16.9232
4.1313	16.2687
4.1117	15.6574
4.0922	15.0724
4.0729	14.4136
4.0538	13.9969
4.0349	13.3802
4.0161	12.8751
3.9976	12.4541
3.9792	11.9257
3.9609	11.5243
3.9428	11.1658
3.9249	10.7156
3.9072	10.4011
3.8896	9.9081
3.8722	9.7219
3.8549	9.2782
3.8378	9.0384
3.8208	8.8362
3.804	8.5759
3.7873	8.3753
3.7708	8.0221
3.7544	7.9378
3.7382	7.7243
3.7221	7.6199
3.7061	7.4068
3.6903	7.2385
3.6746	7.1278
3.659	7.0265
3.6436	6.8745
3.6283	6.888
3.6131	6.5615
3.5981	6.6106
3.5832	6.4919
3.5684	6.5244
3.5537	6.6037
3.5391	6.4419
3.5247	6.3259
3.5104	6.2478
3.4962	6.2703
3.4821	6.142
3.4681	6.1669
3.4543	5.9402
3.4405	6.1315
3.4269	6.1635
3.4133	6.0448
3.3999	6.0193
3.3866	5.9948
3.3733	6.0699
3.3602	5.8094
3.3472	5.8147
3.3343	5.8436
3.3215	5.8938
3.3088	5.8083
3.2961	5.8313
3.2836	5.7761
3.2712	5.8094
3.2588	5.6588
3.2466	5.7409
3.2345	5.7156
3.2224	5.6263
3.2104	5.6238
3.1985	5.6868
3.1867	5.5921
3.175	5.5905
3.1634	5.5641
3.1519	5.5429
3.1404	5.49
3.129	5.6096
3.1178	5.4641
3.1065	5.3255
3.0954	5.4331
3.0844	5.4105
3.0734	5.1938
3.0625	5.3979
3.0517	5.3896
3.041	5.1735
3.0303	5.2436
3.0197	5.2017
3.0092	4.9978
2.9987	5.3481
2.9884	5.2472
2.9781	5.1842
2.9678	4.9518
2.9577	5.0972
2.9476	5.065
2.9376	5.0442
2.9276	5.089
2.9177	4.9052
2.9079	5.0256
2.8982	5.1367
2.8885	5.1029
2.8789	4.9648
2.8693	4.9179
2.8598	4.9508
2.8504	5.1021
2.841	5.0605
2.8317	5.296
2.8224	5.0465
2.8133	4.7742
2.8041	4.8441
2.7951	4.8271
2.786	4.8899
2.7771	5.1137
2.7682	4.7859
2.7594	5.0575
2.7506	4.8777
2.7418	4.7921
2.7332	4.9108
2.7246	5.1024
2.716	4.9926
2.7075	5.2342
2.699	5.3153
2.6906	5.4567
2.6823	5.7647
2.674	5.7538
2.6657	5.802
2.6575	5.9016
2.6494	5.8446
2.6413	5.7928
2.6332	5.6913
2.6252	5.8704
2.6173	5.7631
2.6094	5.799
2.6015	5.9711
2.5937	5.7391
2.5859	5.7535
2.5782	5.7576
2.5706	5.7331
2.5629	5.7447
2.5554	5.7819
2.5478	5.6955
2.5403	5.7193
2.5329	5.8022
2.5255	5.7313
2.5181	5.7538
2.5108	5.7431
2.5035	5.8737
2.4963	5.8118
2.4891	5.7166
2.482	5.6247
2.4749	5.7796
2.4678	5.8734
2.4608	5.7478
2.4538	5.7377
2.4468	5.773
2.4399	5.8467
2.4331	5.5722
2.4262	5.8072
2.4194	5.5088
2.4127	5.7535
2.4059	5.8937
2.3993	5.5673
2.3926	5.8034
2.386	5.6152
2.3795	5.7777
2.3729	5.7605
2.3664	5.5342
2.36	5.7872
2.3535	5.8284
2.3471	5.4066
2.3408	5.8971
2.3345	5.6852
2.3282	5.3756
2.3219	5.7669
2.3157	5.559
2.3095	5.6137
2.3034	5.756
2.2972	5.8295
2.2911	5.4652
2.2851	5.6451
2.279	5.9835
2.2731	5.9315
2.2671	5.8951
2.2612	5.8304
2.2553	5.9364
2.2494	5.7684
2.2435	5.747
2.2377	5.6455
2.232	5.8131
2.2262	5.9252
2.2205	5.7807
2.2148	5.9027
2.2091	5.7438
2.2035	5.8987
2.1979	5.8277
2.1923	5.801
2.1868	6.0984
2.1812	5.612
2.1758	5.7892
2.1703	5.8922
2.1649	6.1087
2.1595	5.5601
2.1541	5.839
2.1487	5.8225
2.1434	6.2721
2.1381	5.8524
2.1328	5.7413
2.1275	5.8674
2.1223	5.6492
2.1171	5.847
2.112	6.0399
2.1068	5.5127
2.1017	5.7759
2.0966	5.6796
2.0915	5.6528
2.0865	6.0336
2.0814	5.9456
2.0764	5.7488
2.0715	5.3951
2.0665	5.9861
2.0616	5.9077
2.0567	5.5757
2.0518	5.5
2.0469	5.871
2.0421	5.8364
2.0373	5.4498
2.0325	5.6611
2.0277	6.109
2.0229	5.7583
2.0182	5.8606
2.0135	6.021
2.0088	5.8682
2.0042	5.9235
