Name: Diopside CaMgSi2O6
Type: Mineral
Class: Silicate
Subclass: Inosilicate
Particle Size: Coarse
Sample No.: diopside_2
Owner: JHU
Wavelength Range: TIR
Origin: Sample from DeKalb, New York via the Smithsonian (sampleno. NMNH R18685).
Description: Most of the 13 mm x 10 mm x 6 mm sample was clean, fresh and green.  One area was eroded and weathered and probably impure.  The crushed sample was hand-picked to avoid impurities.  A moderate amount of weathering and alteration can be seen under the microscope.  The alteration is brown in color (limonite). Particle size was 74-250 Micrometers.(Chain Silicates) (Pyroxene Group) Original ASTER Spectral Library name was jhu.nicolet.mineral.silicate.inosilicate.coarse.diopsi2.spectrum.txt
Measurement: Bidirectional reflectance
X Units: Wavelength (micrometers)
Y Units: Reflectance (percent)
wavelength	value
25.0442	6.8486
24.3388	6.9292
23.6719	5.2847
23.0407	6.2407
22.4422	5.2534
21.8741	5.8276
21.334	6.5491
20.8199	7.031
20.33	6.8977
19.8627	7.8916
19.4163	8.8266
18.9896	7.1526
18.5812	6.7449
18.19	7.2922
17.815	8.2495
17.4551	8.0901
17.1094	5.9265
16.7772	3.8784
16.4576	1.9443
16.15	1.2439
15.8537	1.6726
15.568	2.0727
15.2925	1.2261
15.0265	1.5029
14.7697	1.7263
14.5214	1.5532
14.2814	1.6753
14.0492	1.8401
13.8244	2.001
13.6067	2.1262
13.3957	2.2522
13.1912	2.324
12.9929	2.4514
12.8004	2.5845
12.6135	2.6943
12.432	2.8186
12.2557	2.9827
12.0843	3.2451
11.9176	3.7078
11.7555	4.6396
11.5977	5.5954
11.444	6.0134
11.2944	6.3376
11.1487	6.6562
11.0067	7.0898
10.8682	7.8752
10.7332	7.019
10.6015	7.073
10.473	8.0158
10.3476	9.5903
10.2251	7.7685
10.1056	4.1792
9.9887	3.3564
9.8746	4.219
9.763	4.4499
9.6539	3.9419
9.5472	3.6204
9.4429	4.353
9.3408	5.8506
9.2409	6.4673
9.1431	6.9912
9.0474	7.3262
8.9536	7.5014
8.8618	7.1755
8.7718	6.707
8.6837	5.0976
8.5973	3.6943
8.5126	2.4158
8.4295	1.25
8.3481	0.8389
8.2682	0.9075
8.1898	1.0073
8.1129	1.0696
8.0374	1.1562
7.9634	1.2681
7.8906	1.3865
7.8192	1.4832
7.7491	1.6572
7.6802	1.8171
7.6126	1.9277
7.5461	1.9858
7.4807	2.1248
7.4165	2.2402
7.3534	2.2805
7.2914	2.2546
7.2303	2.3061
7.1703	2.4502
7.1113	2.614
7.0533	2.9216
6.9962	3.1101
6.94	3.218
6.8847	3.2532
6.8302	3.0376
6.7767	2.845
6.7239	2.7029
6.672	2.5166
6.6209	2.4726
6.5705	2.3022
6.5209	2.033
6.4721	1.9394
6.424	1.9988
6.3766	2.238
6.3299	2.4438
6.2838	2.4917
6.2385	2.6399
6.1937	2.8088
6.1496	2.7654
6.1062	2.5496
6.0633	2.7385
6.0211	2.9695
5.9794	3.4316
5.9383	4.3572
5.8978	5.3432
5.8578	5.4966
5.8184	5.7707
5.7794	6.2803
5.741	6.6765
5.7031	7.0229
5.6657	7.322
5.6288	7.4617
5.5924	7.4927
5.5564	7.4309
5.5209	7.216
5.4859	6.8042
5.4513	6.1489
5.4171	5.3567
5.3833	4.9753
5.35	4.6977
5.3171	4.6011
5.2846	4.4231
5.2524	4.4802
5.2207	4.6106
5.1893	4.4416
5.1584	4.1824
5.1277	3.8415
5.0975	3.355
5.0676	3.1055
5.038	3.3494
5.0088	3.8371
4.98	4.0076
4.9514	4.0283
4.9232	4.1291
4.8953	4.2129
4.8678	4.3379
4.8405	4.6968
4.8135	5.102
4.7868	5.4619
4.7605	5.5708
4.7344	5.7541
4.7086	6.3674
4.6831	6.9765
4.6578	7.2876
4.6328	7.6946
4.6081	8.1284
4.5837	8.665
4.5595	9.2556
4.5356	9.7453
4.5119	10.446
4.4884	10.8198
4.4652	11.0127
4.4423	11.1904
4.4196	11.3362
4.3971	11.4646
4.3748	11.5945
4.3528	11.718
4.331	11.8349
4.3094	11.917
4.288	11.9963
4.2668	12.1118
4.2458	12.2107
4.2251	12.2702
4.2045	12.3315
4.1841	12.3801
4.164	12.4279
4.144	12.4673
4.1242	12.5066
4.1046	12.53
4.0852	12.5705
4.066	12.5901
4.047	12.601
4.0281	12.5871
4.0094	12.6006
3.9909	12.5869
3.9725	12.6186
3.9544	12.6491
3.9363	12.7024
3.9185	12.7334
3.9008	12.7451
3.8833	12.758
3.8659	12.7536
3.8487	12.7588
3.8316	12.7907
3.8147	12.7949
3.7979	12.8039
3.7813	12.8069
3.7648	12.7959
3.7485	12.7981
3.7323	12.8105
3.7162	12.8125
3.7003	12.822
3.6845	12.8257
3.6689	12.8144
3.6534	12.8105
3.638	12.791
3.6227	12.7678
3.6076	12.7597
3.5926	12.7448
3.5777	12.7336
3.563	12.7212
3.5484	12.6987
3.5338	12.6499
3.5195	12.5739
3.5052	12.3899
3.491	12.4174
3.477	12.3742
3.463	12.3996
3.4492	12.3332
3.4355	12.259
3.4219	12.0808
3.4084	12.0852
3.395	12.2197
3.3817	12.1987
3.3685	12.2466
3.3554	12.3913
3.3425	12.4611
3.3296	12.4878
3.3168	12.5039
3.3041	12.5185
3.2915	12.5454
3.279	12.5356
3.2666	12.5471
3.2543	12.5266
3.2421	12.5114
3.23	12.4941
3.218	12.4707
3.206	12.4389
3.1942	12.4089
3.1824	12.3984
3.1707	12.3933
3.1591	12.3691
3.1476	12.352
3.1362	12.2973
3.1249	12.2639
3.1136	12.2509
3.1024	12.2304
3.0913	12.2085
3.0803	12.188
3.0694	12.1709
3.0585	12.1499
3.0477	12.1313
3.037	12.0984
3.0264	12.0681
3.0158	12.0188
3.0053	11.9792
2.9949	11.9487
2.9845	11.8711
2.9743	11.8008
2.9641	11.7602
2.9539	11.7873
2.9439	11.8532
2.9339	11.8847
2.9239	11.8684
2.9141	11.8591
2.9043	11.8899
2.8946	11.9052
2.8849	11.917
2.8753	11.9192
2.8658	11.9619
2.8563	12.0022
2.8469	12.0158
2.8375	12.0373
2.8282	12.0434
2.819	12.0547
2.8098	12.1049
2.8007	12.1311
2.7917	12.1389
2.7827	12.1118
2.7738	12.082
2.7649	12.0766
2.7561	12.0822
2.7473	12.0822
2.7386	12.2202
2.7299	12.3491
2.7213	11.8681
2.7128	12.4655
2.7043	12.6801
2.6959	12.7541
2.6875	12.7976
2.6791	12.8852
2.6709	12.9504
2.6626	12.9008
2.6545	12.8921
2.6463	12.8894
2.6382	12.873
2.6302	12.8586
2.6222	12.8254
2.6143	12.8147
2.6064	12.8051
2.5986	12.7751
2.5908	12.7749
2.583	12.7524
2.5753	12.7373
2.5677	12.7111
2.5601	12.6948
2.5525	12.6679
2.545	12.6223
2.5375	12.6035
2.5301	12.5935
2.5227	12.5686
2.5154	12.4868
2.5081	12.4831
2.5008	12.4875
2.4936	12.4521
2.4864	12.3852
2.4793	12.3608
2.4722	12.3398
2.4651	12.2534
2.4581	12.2466
2.4511	12.2685
2.4442	12.2177
2.4373	12.1777
2.4305	12.1508
2.4236	12.1347
2.4169	12.1181
2.4101	12.0966
2.4034	12.0937
2.3967	12.0454
2.3901	12.0363
2.3835	12.0083
2.377	11.9892
2.3704	12.0124
2.364	11.9619
2.3575	11.9297
2.3511	11.945
2.3447	11.9345
2.3384	11.9057
2.3321	11.8867
2.3258	11.8828
2.3195	11.8691
2.3133	11.8144
2.3071	11.834
2.301	11.8618
2.2949	11.855
2.2888	11.8335
2.2828	11.853
2.2767	11.8132
2.2708	11.8195
2.2648	11.8169
2.2589	11.842
2.253	11.8237
2.2471	11.8091
2.2413	11.7905
2.2355	11.8086
2.2297	11.8432
2.224	11.7758
2.2183	11.8305
2.2126	11.802
2.207	11.8042
2.2013	11.8161
2.1957	11.812
2.1902	11.8513
2.1846	11.81
2.1791	11.8296
2.1736	11.851
2.1682	11.8696
2.1628	11.8877
2.1574	11.8498
2.152	11.8618
2.1466	11.8137
2.1413	11.8508
2.136	11.8589
2.1308	11.8413
2.1255	11.8772
2.1203	11.8654
2.1151	11.916
2.11	11.8869
2.1048	11.8955
2.0997	11.958
2.0946	11.937
2.0895	11.9477
2.0845	11.9184
2.0795	11.9673
