Name: Pyrite FeS2
Type: Mineral
Class: Sulfide
Subclass: None
Particle Size: Fine
Sample No.: pyrite_1
Owner: JHU
Wavelength Range: TIR
Origin: Ambassaguas, Logrono, Castilla la Vieja, Spain via theSmithsonian (sample no. NMNH 161959)
Description: Large cubic (3cm/side) piece with yellow metallic luster, weighing ~160 g. It had less than 1% limonitic surface alteration, which was easily removed. Microscopic examination of the crushed sample showed ~4% contamination with  unidentified colorless grains having 2-3 degree birefringence and index of refraction <<1.600, sometimes showing what appear to be alteration coatings. Particle size was Less than 2  Micrometers. Original ASTER Spectral Library name was jhu.nicolet.mineral.sulfide.none.powder.pyrite1.spectrum.txt
Measurement: Transmission
X Units: Wavelength (micrometers)
Y Units: Transmittance (percent)
wavelength	value
25.0442	30.9159
24.3388	12.0298
23.6719	13.5869
23.0407	44.4262
22.4422	82.2188
21.8741	74.3279
21.334	67.2889
20.8199	63.6849
20.33	61.0721
19.8627	58.8727
19.4163	57.1302
18.9896	55.3063
18.5812	53.7836
18.19	52.576
17.815	51.3905
17.4551	50.288
17.1094	48.9032
16.7772	46.7484
16.4576	45.6813
16.15	44.9774
15.8537	44.7977
15.568	44.3251
15.2925	43.5695
15.0265	42.5704
14.7697	41.8358
14.5214	41.4704
14.2814	40.5155
14.0492	39.6852
13.8244	38.9337
13.6067	38.3651
13.3957	37.4923
13.1912	36.807
12.9929	36.3524
12.8004	35.5253
12.6135	35.0917
12.432	34.8036
12.2557	34.6415
12.0843	34.309
11.9176	34.2062
11.7555	33.859
11.5977	33.5016
11.444	33.0585
11.2944	32.8381
11.1487	32.2531
11.0067	31.6288
10.8682	30.9811
10.7332	30.6606
10.6015	30.4098
10.473	29.913
10.3476	29.1481
10.2251	28.3788
10.1056	27.6547
9.9887	26.9028
9.8746	26.0788
9.763	25.3132
9.6539	24.7426
9.5472	24.0632
9.4429	23.0849
9.3408	22.206
9.2409	21.4692
9.1431	21.3706
9.0474	21.6689
8.9536	21.6669
8.8618	21.4555
8.7718	21.2509
8.6837	21.1711
8.5973	21.2424
8.5126	21.4199
8.4295	21.5888
8.3481	22.1425
8.2682	22.6818
8.1898	22.9936
8.1129	23.2231
8.0374	23.3337
7.9634	23.3371
7.8906	23.2497
7.8192	23.1042
7.7491	22.9067
7.6802	22.7011
7.6126	22.4943
7.5461	22.28
7.4807	22.0749
7.4165	21.8691
7.3534	21.6486
7.2914	21.4255
7.2303	21.2062
7.1703	20.945
7.1113	20.7404
7.0533	20.6137
6.9962	20.4726
6.94	20.319
6.8847	20.1332
6.8302	19.9685
6.7767	19.8198
6.7239	19.6269
6.672	19.4682
6.6209	19.3403
6.5705	19.207
6.5209	19.039
6.4721	18.8994
6.424	18.7546
6.3766	18.5781
6.3299	18.4614
6.2838	18.3186
6.2385	18.1975
6.1937	18.1118
6.1496	17.9558
6.1062	17.7866
6.0633	17.6792
6.0211	17.5532
5.9794	17.5
5.9383	17.3374
5.8978	17.2168
5.8578	17.1118
5.8184	16.998
5.7794	16.8867
5.741	16.8032
5.7031	16.6836
5.6657	16.5441
5.6288	16.4436
5.5924	16.3132
5.5564	16.2026
5.5209	16.0922
5.4859	15.9941
5.4513	15.8984
5.4171	15.7866
5.3833	15.6828
5.35	15.5774
5.3171	15.4812
5.2846	15.3791
5.2524	15.2895
5.2207	15.1948
5.1893	15.1128
5.1584	15.0207
5.1277	14.9316
5.0975	14.8481
5.0676	14.7588
5.038	14.6682
5.0088	14.5752
4.98	14.4729
4.9514	14.403
4.9232	14.3296
4.8953	14.2487
4.8678	14.1499
4.8405	14.0615
4.8135	13.988
4.7868	13.9157
4.7605	13.8205
4.7344	13.7365
4.7086	13.6518
4.6831	13.5671
4.6578	13.5102
4.6328	13.4275
4.6081	13.364
4.5837	13.2773
4.5595	13.2173
4.5356	13.1538
4.5119	13.0478
4.4884	12.9821
4.4652	12.9253
4.4423	12.8496
4.4196	12.7932
4.3971	12.7175
4.3748	12.6579
4.3528	12.5886
4.331	12.5114
4.3094	12.4511
4.288	12.3811
4.2668	12.3174
4.2458	12.2578
4.2251	12.1823
4.2045	12.1418
4.1841	12.0757
4.164	12.0207
4.144	11.9465
4.1242	11.9072
4.1046	11.8586
4.0852	11.7798
4.066	11.7077
4.047	11.6657
4.0281	11.6128
4.0094	11.5576
3.9909	11.4914
3.9725	11.4341
3.9544	11.3728
3.9363	11.3091
3.9185	11.2549
3.9008	11.2173
3.8833	11.1438
3.8659	11.1035
3.8487	11.0388
3.8316	10.9978
3.8147	10.9675
3.7979	10.9052
3.7813	10.8569
3.7648	10.7978
3.7485	10.737
3.7323	10.6985
3.7162	10.6638
3.7003	10.6025
3.6845	10.5442
3.6689	10.4831
3.6534	10.4428
3.638	10.3928
3.6227	10.3325
3.6076	10.2888
3.5926	10.2253
3.5777	10.1858
3.563	10.1364
3.5484	10.0871
3.5338	10.0476
3.5195	9.9763
3.5052	9.9377
3.491	9.8979
3.477	9.8459
3.463	9.7829
3.4492	9.7434
3.4355	9.6894
3.4219	9.6382
3.4084	9.5971
3.395	9.5805
3.3817	9.5234
3.3685	9.4983
3.3554	9.4282
3.3425	9.3781
3.3296	9.3503
3.3168	9.2898
3.3041	9.2651
3.2915	9.2138
3.279	9.1848
3.2666	9.1098
3.2543	9.0781
3.2421	9.0386
3.23	8.9704
3.218	8.924
3.206	8.8943
3.1942	8.8476
3.1824	8.7898
3.1707	8.7612
3.1591	8.7241
3.1476	8.6535
3.1362	8.613
3.1249	8.5964
3.1136	8.5454
3.1024	8.5383
3.0913	8.4944
3.0803	8.4516
3.0694	8.4136
3.0585	8.3659
3.0477	8.3608
3.037	8.3291
3.0264	8.3056
3.0158	8.3003
3.0053	8.3103
2.9949	8.2666
2.9845	8.2717
2.9743	8.2363
2.9641	8.207
2.9539	8.1599
2.9439	8.1245
2.9339	8.1167
2.9239	8.104
2.9141	8.0832
2.9043	8.0859
2.8946	8.0722
2.8849	7.9648
2.8753	7.9602
2.8658	7.9424
2.8563	7.9018
2.8469	7.854
2.8375	7.8454
2.8282	7.8149
2.819	7.7849
2.8098	7.7627
2.8007	7.7583
2.7917	7.6972
2.7827	7.6357
2.7738	7.6391
2.7649	7.5722
2.7561	7.5923
2.7473	7.5556
2.7386	7.5215
2.7299	7.5376
2.7213	7.4848
2.7128	7.4507
2.7043	7.4363
2.6959	7.438
2.6875	7.3701
2.6791	7.4057
2.6709	7.3642
2.6626	7.3327
2.6545	7.2886
2.6463	7.2366
2.6382	7.2353
2.6302	7.1806
2.6222	7.1406
2.6143	7.1396
2.6064	7.1352
2.5986	7.1133
2.5908	7.0947
2.583	7.0552
2.5753	6.9902
2.5677	6.998
2.5601	7.0005
2.5525	6.9538
2.545	6.926
2.5375	6.883
2.5301	6.8396
2.5227	6.8096
2.5154	6.7749
2.5081	6.8098
2.5008	6.7439
2.4936	6.7004
2.4864	6.7082
2.4793	6.6946
2.4722	6.6787
2.4651	6.6245
2.4581	6.6323
2.4511	6.5735
2.4442	6.582
2.4373	6.5473
2.4305	6.5473
2.4236	6.5266
2.4169	6.4988
2.4101	6.4648
2.4034	6.4607
2.3967	6.4133
2.3901	6.4062
2.3835	6.4055
2.377	6.3713
2.3704	6.333
2.364	6.3457
2.3575	6.3291
2.3511	6.2617
2.3447	6.2451
2.3384	6.2229
2.3321	6.2385
2.3258	6.1994
2.3195	6.168
2.3133	6.1985
2.3071	6.2014
2.301	6.1535
2.2949	6.1347
2.2888	6.0674
2.2828	6.0823
2.2767	6.0576
2.2708	6.0793
2.2648	6.0393
2.2589	6.052
2.253	5.9934
2.2471	5.9514
2.2413	5.914
2.2355	5.9355
2.2297	5.9202
2.224	5.9023
2.2183	5.8672
2.2126	5.8545
2.207	5.8684
2.2013	5.8506
2.1957	5.8501
2.1902	5.8274
2.1846	5.791
2.1791	5.7844
2.1736	5.7773
2.1682	5.7978
2.1628	5.707
2.1574	5.7639
2.152	5.6467
2.1466	5.6792
2.1413	5.6255
2.136	5.6831
2.1308	5.6626
2.1255	5.6006
2.1203	5.6025
2.1151	5.6079
2.11	5.6128
2.1048	5.5835
2.0997	5.5576
2.0946	5.5976
2.0895	5.5259
2.0845	5.5019
2.0795	5.5713
