Name: Biotite K(Mg,Fe^2+)_3(Al,Fe^3+)Si_3O_10(OH,F)_2
Type: Mineral
Class: Silicate
Subclass: Phyllosilicate
Particle Size: Coarse
Sample No.: PS-23A
Owner: JPL
Wavelength Range: TIR
Description: Particle size was 125-500um.Collected by JPL Original ASTER Spectral Library name was jpl.nicolet.mineral.silicate.phyllosilicate.coarse.ps23a.spectrum.txt
Measurement: Hemispherical reflectance
X Units: Wavelength (micrometers)
Y Units: Reflectance (percent)
wavelength	value
15.3853	5.5638
15.1161	6.1651
14.8563	7.1548
14.6052	7.7199
14.3624	8.4398
14.1276	8.1716
13.9004	7.6826
13.6803	7.4991
13.4671	8.5251
13.2604	10.5032
13.06	12.3979
12.8656	15.008
12.6769	17.6843
12.4936	21.2599
12.3155	25.9773
12.1425	29.7046
11.9742	30.8056
11.8106	30.0501
11.6513	29.1243
11.4963	28.4363
11.3454	28.1589
11.1983	27.412
11.0551	26.8955
10.9154	26.8331
10.7793	26.8683
10.6465	26.5877
10.5169	26.1725
10.3904	26.5951
10.267	28.0583
10.1464	30.6406
10.0287	37.072
9.9136	46.5081
9.8012	48.8946
9.6913	42.7994
9.5838	35.3025
9.4787	30.3153
9.3758	27.4329
9.2752	24.7417
9.1767	20.58
9.0803	15.4143
8.9858	11.3694
8.8934	7.4304
8.8028	3.3996
8.714	1.1234
8.627	0.6628
8.5417	2.2941
8.4581	4.3095
8.3761	7.1426
8.2957	10.1448
8.2169	13.1225
8.1395	15.7964
8.0635	17.9725
7.989	20.0126
7.9158	21.9823
7.8439	23.5765
7.7734	25.0619
7.7041	26.2376
7.636	27.5098
7.5691	28.9168
7.5034	30.1446
7.4388	31.4175
7.3753	32.7303
7.3129	34.0552
7.2515	35.3705
7.1912	36.7529
7.1318	38.2314
7.0734	39.3709
7.016	40.6152
6.9595	42.1197
6.9039	42.7418
6.8492	43.4912
6.7953	44.2666
6.7423	44.4792
6.6901	45.0608
6.6387	46.2691
6.5881	45.5735
6.5382	45.2213
6.4892	46.0055
6.4408	44.6417
6.3931	43.7105
6.3462	43.4963
6.2999	42.0265
6.2543	41.1155
6.2094	40.1595
6.1651	39.5196
6.1214	39.6573
6.0784	40.3748
6.0359	40.7531
5.994	41.2794
5.9527	41.4604
5.912	41.4253
5.8718	41.6253
5.8322	41.7837
5.7931	41.8678
5.7545	42.5027
5.7165	43.0679
5.6789	43.5315
5.6418	44.6653
5.6052	44.8339
5.5691	45.447
5.5334	46.0778
5.4982	46.9054
5.4635	48.0253
5.4291	49.2082
5.3952	50.4798
5.3618	51.8822
5.3287	52.9497
5.2961	53.9843
5.2638	54.3732
5.2319	54.8122
5.2004	54.8766
5.1693	54.7729
5.1386	54.6189
5.1082	54.3241
5.0782	53.9796
5.0485	53.8891
5.0192	54.1161
4.9902	54.1549
4.9616	54.1758
4.9332	54.07
4.9052	53.9802
4.8776	54.1939
4.8502	54.5054
4.8231	54.9981
4.7963	55.6547
4.7699	56.3689
4.7437	57.0472
4.7178	57.7393
4.6922	58.4355
4.6668	58.9079
4.6418	59.5304
4.617	60.1103
4.5924	60.6662
4.5681	61.1294
4.5441	61.6441
4.5203	61.8689
4.4968	62.0837
4.4735	62.197
4.4505	62.2839
4.4277	62.453
4.4051	62.546
4.3828	62.6096
4.3607	62.7992
4.3388	62.8646
4.3171	62.8898
4.2956	62.7828
4.2744	62.8243
4.2534	63.0628
4.2325	62.8755
4.2119	63.224
4.1915	63.3861
4.1712	63.5105
4.1512	63.6117
4.1313	63.744
4.1117	63.8411
4.0922	63.8838
4.0729	63.9241
4.0538	64.0026
4.0349	64.1269
4.0161	64.2476
3.9976	64.3904
3.9792	64.4867
3.9609	64.6852
3.9428	64.7561
3.9249	64.9097
3.9072	65.1331
3.8896	65.0823
3.8722	65.1992
3.8549	65.2414
3.8378	65.3028
3.8208	65.3827
3.804	65.3382
3.7873	65.3505
3.7708	65.4323
3.7544	65.4627
3.7382	65.3869
3.7221	65.3677
3.7061	65.387
3.6903	65.4429
3.6746	65.3653
3.659	65.4379
3.6436	65.285
3.6283	65.3547
3.6131	65.336
3.5981	65.2913
3.5832	65.2156
3.5684	65.1933
3.5537	65.1249
3.5391	64.9924
3.5247	64.5122
3.5104	61.6358
3.4962	63.6218
3.4821	64.0379
3.4681	63.9631
3.4543	63.7051
3.4405	63.1257
3.4269	60.5826
3.4133	62.0984
3.3999	63.3583
3.3866	63.538
3.3733	63.6578
3.3602	63.8638
3.3472	64.0285
3.3343	63.9278
3.3215	63.8145
3.3088	63.5797
3.2961	63.3237
3.2836	62.9146
3.2712	62.7426
3.2588	62.5996
3.2466	62.3765
3.2345	61.9906
3.2224	61.9783
3.2104	62.0107
3.1985	61.9843
3.1867	61.899
3.175	61.7246
3.1634	61.6016
3.1519	61.4155
3.1404	61.1735
3.129	60.8015
3.1178	60.6688
3.1065	60.3783
3.0954	60.3596
3.0844	60.3098
3.0734	60.1838
3.0625	60.021
3.0517	60.0706
3.041	59.8048
3.0303	59.6784
3.0197	59.7203
3.0092	59.5859
2.9987	59.345
2.9884	59.201
2.9781	58.9345
2.9678	58.6761
2.9577	58.3268
2.9476	58.2247
2.9376	57.9729
2.9276	57.6744
2.9177	57.4929
2.9079	57.3191
2.8982	56.9907
2.8885	56.6955
2.8789	55.953
2.8693	54.8252
2.8598	53.2911
2.8504	51.1036
2.841	48.5955
2.8317	45.2227
2.8224	41.6406
2.8133	38.7181
2.8041	38.5893
2.7951	38.2436
2.786	36.9437
2.7771	38.8872
2.7682	41.5685
2.7594	44.3529
2.7506	48.3267
2.7418	49.8803
2.7332	48.6679
2.7246	48.4243
2.716	47.7769
2.7075	49.4612
2.699	52.3412
2.6906	56.3227
2.6823	60.9819
2.674	62.3292
2.6657	63.434
2.6575	62.2169
2.6494	62.024
2.6413	61.9583
2.6332	62.2533
2.6252	62.4127
2.6173	62.9634
2.6094	62.8984
2.6015	62.7712
2.5937	63.7193
2.5859	62.8294
2.5782	62.7206
2.5706	62.8346
2.5629	63.0017
2.5554	62.4074
2.5478	62.5165
2.5403	62.2799
2.5329	62.3742
2.5255	62.0597
2.5181	62.0156
2.5108	61.7882
2.5035	61.6433
2.4963	61.6843
2.4891	61.4886
2.482	61.4886
2.4749	61.165
2.4678	61.1201
2.4608	60.9023
2.4538	60.7526
2.4468	60.7557
2.4399	60.4864
2.4331	60.1991
2.4262	59.891
2.4194	59.703
2.4127	59.43
2.4059	59.079
2.3993	58.9027
2.3926	58.8644
2.386	58.7589
2.3795	58.885
2.3729	58.8784
2.3664	58.8787
2.36	58.5378
2.3535	58.2449
2.3471	57.8867
2.3408	57.4234
2.3345	57.5264
2.3282	57.6155
2.3219	58.0801
2.3157	58.3083
2.3095	58.8214
2.3034	59.0611
2.2972	59.1172
2.2911	59.3568
2.2851	59.3229
2.279	59.2035
2.2731	59.0139
2.2671	58.794
2.2612	58.6488
2.2553	58.1491
2.2494	58.5226
2.2435	58.7214
2.2377	58.7259
2.232	58.8681
2.2262	58.7003
2.2205	58.8526
2.2148	58.6312
2.2091	58.5177
2.2035	58.5061
2.1979	58.3364
2.1923	58.3066
2.1868	58.022
2.1812	57.9171
2.1758	57.8563
2.1703	57.7814
2.1649	57.4627
2.1595	57.4448
2.1541	57.325
2.1487	57.4602
2.1434	57.15
2.1381	56.8382
2.1328	56.7564
2.1275	56.7446
2.1223	56.7176
2.1171	56.3154
2.112	56.2956
2.1068	56.1074
2.1017	55.9635
2.0966	56.1874
2.0915	55.9333
2.0865	55.7232
2.0814	55.4828
2.0764	55.7618
2.0715	55.2873
2.0665	54.8214
2.0616	55.1181
2.0567	55.0944
2.0518	54.647
2.0469	54.8984
2.0421	54.5528
2.0373	54.7498
2.0325	54.251
2.0277	54.2123
2.0229	54.3381
2.0182	54.0857
2.0135	53.8453
2.0088	53.8932
2.0042	53.696
