Name: Vesuvianite Ca10Mg2Al4(SiO4)5(Si2O7)2(OH)4
Type: Mineral
Class: Silicate
Subclass: Sorosilicate
Particle Size: Solid
Sample No.: vesuvian_1
Owner: JHU
Wavelength Range: TIR
Origin: Quebec, Canada via Norma Vergo
Description: The sample was a massive piece of striated, green, columnar aggregate. It appeared to be pure vesuvianite in hand sample and under the microscope. Sample had cleavage face. Original ASTER Spectral Library name was jhu.nicolet.mineral.silicate.sorosilicate.solid.vesuvi1.spectrum.txt
Measurement: Bidirectional reflectance
X Units: Wavelength (micrometers)
Y Units: Reflectance (percent)
wavelength	value
25.0442	15.0332
24.3388	17.8173
23.6719	17.7509
23.0407	21.7695
22.4422	22.3378
21.8741	19.5043
21.334	21.5117
20.8199	23.3222
20.33	26.9169
19.8627	25.0497
19.4163	18.4345
18.9896	14.8115
18.5812	13.1154
18.19	11.4907
17.815	9.9858
17.4551	10.7417
17.1094	9.7839
16.7772	9.3484
16.4576	11.0014
16.15	9.2783
15.8537	8.7431
15.568	8.8039
15.2925	8.4365
15.0265	5.5749
14.7697	4.4932
14.5214	4.8164
14.2814	5.3328
14.0492	5.7546
13.8244	6.0525
13.6067	6.5063
13.3957	6.9534
13.1912	7.4866
12.9929	8.1777
12.8004	9.1203
12.6135	9.9892
12.432	10.0986
12.2557	10.042
12.0843	10.4023
11.9176	11.1743
11.7555	12.2529
11.5977	12.9482
11.444	13.6518
11.2944	15.2712
11.1487	15.5122
11.0067	14.8408
10.8682	16.6677
10.7332	15.2981
10.6015	14.1882
10.473	14.4304
10.3476	15.759
10.2251	16.4641
10.1056	14.6125
9.9887	11.5195
9.8746	17.3193
9.763	27.0051
9.6539	31.9049
9.5472	31.0778
9.4429	26.3027
9.3408	17.4956
9.2409	9.5559
9.1431	4.1465
9.0474	1.0259
8.9536	0.5842
8.8618	0.957
8.7718	1.3459
8.6837	1.6802
8.5973	1.978
8.5126	2.2329
8.4295	2.4524
8.3481	2.6372
8.2682	2.8088
8.1898	2.9607
8.1129	3.0955
8.0374	3.22
7.9634	3.3249
7.8906	3.4255
7.8192	3.519
7.7491	3.6155
7.6802	3.706
7.6126	3.7847
7.5461	3.866
7.4807	3.938
7.4165	4.0107
7.3534	4.0713
7.2914	4.1323
7.2303	4.1919
7.1703	4.2368
7.1113	4.2888
7.0533	4.3293
6.9962	4.3816
6.94	4.426
6.8847	4.4604
6.8302	4.4934
6.7767	4.5193
6.7239	4.5461
6.672	4.5696
6.6209	4.5962
6.5705	4.6138
6.5209	4.6523
6.4721	4.6792
6.424	4.6977
6.3766	4.7444
6.3299	4.772
6.2838	4.7991
6.2385	4.831
6.1937	4.8489
6.1496	4.8743
6.1062	4.8926
6.0633	4.915
6.0211	4.9336
5.9794	4.9536
5.9383	4.9587
5.8978	4.9807
5.8578	5.0124
5.8184	5.0205
5.7794	5.0493
5.741	5.0635
5.7031	5.0676
5.6657	5.0801
5.6288	5.0859
5.5924	5.0969
5.5564	5.0969
5.5209	5.1074
5.4859	5.1213
5.4513	5.1326
5.4171	5.1467
5.3833	5.1614
5.35	5.1753
5.3171	5.1951
5.2846	5.2092
5.2524	5.2263
5.2207	5.2407
5.1893	5.2449
5.1584	5.2554
5.1277	5.2705
5.0975	5.2805
5.0676	5.2878
5.038	5.3017
5.0088	5.3108
4.98	5.3179
4.9514	5.3213
4.9232	5.3262
4.8953	5.3308
4.8678	5.3381
4.8405	5.3518
4.8135	5.3657
4.7868	5.3774
4.7605	5.3891
4.7344	5.4036
4.7086	5.415
4.6831	5.4223
4.6578	5.4343
4.6328	5.4463
4.6081	5.4658
4.5837	5.4746
4.5595	5.479
4.5356	5.4944
4.5119	5.4978
4.4884	5.5015
4.4652	5.5054
4.4423	5.5117
4.4196	5.5124
4.3971	5.5224
4.3748	5.5266
4.3528	5.5276
4.331	5.5305
4.3094	5.5378
4.288	5.5386
4.2668	5.5442
4.2458	5.5493
4.2251	5.5483
4.2045	5.5669
4.1841	5.5732
4.164	5.5784
4.144	5.5874
4.1242	5.5925
4.1046	5.6106
4.0852	5.6142
4.066	5.6206
4.047	5.6294
4.0281	5.6313
4.0094	5.6369
3.9909	5.644
3.9725	5.6448
3.9544	5.6352
3.9363	5.6384
3.9185	5.6433
3.9008	5.6477
3.8833	5.6482
3.8659	5.6443
3.8487	5.6409
3.8316	5.6443
3.8147	5.6443
3.7979	5.6479
3.7813	5.6484
3.7648	5.6594
3.7485	5.6716
3.7323	5.6684
3.7162	5.675
3.7003	5.6819
3.6845	5.6843
3.6689	5.6843
3.6534	5.6916
3.638	5.688
3.6227	5.6926
3.6076	5.6992
3.5926	5.6973
3.5777	5.6955
3.563	5.6929
3.5484	5.6924
3.5338	5.6887
3.5195	5.6824
3.5052	5.6789
3.491	5.6838
3.477	5.6772
3.463	5.6872
3.4492	5.6799
3.4355	5.6789
3.4219	5.6743
3.4084	5.6787
3.395	5.6758
3.3817	5.6899
3.3685	5.6948
3.3554	5.6911
3.3425	5.6882
3.3296	5.6997
3.3168	5.7016
3.3041	5.6943
3.2915	5.6841
3.279	5.6716
3.2666	5.6804
3.2543	5.6782
3.2421	5.6863
3.23	5.6848
3.218	5.6736
3.206	5.665
3.1942	5.6357
3.1824	5.6118
3.1707	5.5791
3.1591	5.571
3.1476	5.5552
3.1362	5.541
3.1249	5.5408
3.1136	5.5383
3.1024	5.53
3.0913	5.5234
3.0803	5.5068
3.0694	5.4985
3.0585	5.5032
3.0477	5.4971
3.037	5.4927
3.0264	5.4961
3.0158	5.4822
3.0053	5.4841
2.9949	5.477
2.9845	5.4739
2.9743	5.4617
2.9641	5.4619
2.9539	5.4424
2.9439	5.4272
2.9339	5.4077
2.9239	5.4057
2.9141	5.3943
2.9043	5.3694
2.8946	5.3494
2.8849	5.3552
2.8753	5.3452
2.8658	5.3213
2.8563	5.3027
2.8469	5.3003
2.8375	5.2795
2.8282	5.2749
2.819	5.2593
2.8098	5.2617
2.8007	5.249
2.7917	5.251
2.7827	5.2663
2.7738	5.2683
2.7649	5.2541
2.7561	5.2117
2.7473	5.0898
2.7386	5.0659
2.7299	5.1162
2.7213	5.074
2.7128	5.094
2.7043	5.1135
2.6959	5.1086
2.6875	5.1203
2.6791	5.1099
2.6709	5.083
2.6626	5.1138
2.6545	5.1155
2.6463	5.0903
2.6382	5.1001
2.6302	5.0605
2.6222	5.0891
2.6143	5.0771
2.6064	5.0727
2.5986	5.083
2.5908	5.0625
2.583	5.0586
2.5753	5.0513
2.5677	5.0578
2.5601	5.0354
2.5525	5.0452
2.545	5.0217
2.5375	5.0481
2.5301	5.0229
2.5227	5.0132
2.5154	5.0168
2.5081	5.009
2.5008	4.9971
2.4936	4.9883
2.4864	4.9892
2.4793	4.9726
2.4722	4.9775
2.4651	4.9553
2.4581	4.9599
2.4511	4.9717
2.4442	4.9162
2.4373	4.9534
2.4305	4.9443
2.4236	4.9321
2.4169	4.9404
2.4101	4.938
2.4034	4.9224
2.3967	4.9209
2.3901	4.9243
2.3835	4.9155
2.377	4.9438
2.3704	4.937
2.364	4.9438
2.3575	4.9692
2.3511	4.9751
2.3447	4.9707
2.3384	4.9385
2.3321	4.9761
2.3258	4.9961
2.3195	5.0049
2.3133	5.0122
2.3071	5.0122
2.301	5.0181
2.2949	5.0474
2.2888	5.1142
2.2828	5.1113
2.2767	5.1377
2.2708	5.1802
2.2648	5.1875
2.2589	5.2016
2.253	5.2153
2.2471	5.2558
2.2413	5.2778
2.2355	5.29
2.2297	5.2959
2.224	5.3423
2.2183	5.3833
2.2126	5.4043
2.207	5.4219
2.2013	5.4223
2.1957	5.4477
2.1902	5.4458
2.1846	5.5102
2.1791	5.5298
2.1736	5.5278
2.1682	5.5395
2.1628	5.5371
2.1574	5.543
2.152	5.5517
2.1466	5.5976
2.1413	5.6055
2.136	5.6289
2.1308	5.6255
2.1255	5.6802
2.1203	5.7383
2.1151	5.727
2.11	5.7695
2.1048	5.7656
2.0997	5.7973
2.0946	5.852
2.0895	5.8638
2.0845	5.8677
2.0795	5.8935
