Name: Cordierite Mg_2Al_3(Si_5Al)O_18
Type: Mineral
Class: Silicate
Subclass: Cyclosilicate
Particle Size: Medium
Sample No.: CS-3A
Owner: JPL
Wavelength Range: TIR
Origin: Canada, Northwest Territories, Mackenzie District, Great Bear Lake
Description: Particle size was 45-125um.Collected by Ward's Original ASTER Spectral Library name was jpl.nicolet.mineral.silicate.cyclosilicate.medium.cs03a.spectrum.txt
Measurement: Hemispherical reflectance
X Units: Wavelength (micrometers)
Y Units: Reflectance (percent)
wavelength	value
15.3853	2.4434
15.1161	3.0995
14.8563	3.6129
14.6052	2.9759
14.3624	3.9351
14.1276	3.824
13.9004	4.4186
13.6803	5.4879
13.4671	6.7853
13.2604	7.4763
13.06	11.5062
12.8656	10.0365
12.6769	6.0781
12.4936	2.2185
12.3155	2.4891
12.1425	2.8946
11.9742	3.6724
11.8106	4.3646
11.6513	5.0308
11.4963	6.0116
11.3454	7.1596
11.1983	9.1753
11.0551	12.609
10.9154	11.1334
10.7793	8.3524
10.6465	16.0927
10.5169	23.7501
10.3904	32.0778
10.267	32.1297
10.1464	30.0201
10.0287	19.6179
9.9136	12.0935
9.8012	11.9851
9.6913	12.1475
9.5838	10.8944
9.4787	9.5663
9.3758	6.8151
9.2752	4.4041
9.1767	3.3814
9.0803	3.2969
8.9858	3.5428
8.8934	4.6657
8.8028	6.3431
8.714	6.3376
8.627	8.3646
8.5417	13.1957
8.4581	18.8997
8.3761	20.9613
8.2957	22.1649
8.2169	20.8195
8.1395	12.918
8.0635	4.7862
7.989	1.7535
7.9158	0.7755
7.8439	0.4155
7.7734	0.2651
7.7041	0.3657
7.636	0.4808
7.5691	0.5638
7.5034	0.648
7.4388	0.843
7.3753	1.0209
7.3129	1.116
7.2515	1.3621
7.1912	1.5189
7.1318	1.7594
7.0734	1.9218
7.016	2.1529
6.9595	2.3544
6.9039	2.3325
6.8492	2.2517
6.7953	2.3549
6.7423	2.4227
6.6901	2.6294
6.6387	2.8559
6.5881	3.2361
6.5382	3.6157
6.4892	3.5927
6.4408	3.0052
6.3931	2.4486
6.3462	2.7087
6.2999	2.9389
6.2543	2.5846
6.2094	3.2537
6.1651	2.9444
6.1214	2.0329
6.0784	2.9454
6.0359	3.9287
5.994	4.6635
5.9527	5.0461
5.912	5.2404
5.8718	5.4417
5.8322	5.6711
5.7931	5.9028
5.7545	6.7028
5.7165	7.5086
5.6789	8.1272
5.6418	8.8941
5.6052	9.6879
5.5691	10.1012
5.5334	10.1783
5.4982	10.0354
5.4635	9.0151
5.4291	8.2027
5.3952	7.4985
5.3618	6.6734
5.3287	6.2811
5.2961	6.1887
5.2638	6.4756
5.2319	6.8843
5.2004	7.967
5.1693	9.7818
5.1386	11.787
5.1082	13.957
5.0782	16.2066
5.0485	19.0236
5.0192	21.183
4.9902	22.3607
4.9616	25.3638
4.9332	28.4181
4.9052	30.8348
4.8776	32.5086
4.8502	33.8026
4.8231	34.6249
4.7963	34.8943
4.7699	35.0828
4.7437	35.9046
4.7178	37.2342
4.6922	37.8719
4.6668	38.8473
4.6418	39.2859
4.617	39.3719
4.5924	39.6332
4.5681	40.7422
4.5441	42.2888
4.5203	42.7185
4.4968	40.7883
4.4735	36.353
4.4505	36.086
4.4277	37.2568
4.4051	36.3468
4.3828	20.5832
4.3607	32.461
4.3388	15.8939
4.3171	21.6306
4.2956	17.5976
4.2744	9.0089
4.2534	4.2433
4.2325	24.6087
4.2119	27.6303
4.1915	16.6993
4.1712	26.1182
4.1512	46.6596
4.1313	49.4406
4.1117	48.6584
4.0922	48.1423
4.0729	45.7049
4.0538	49.9539
4.0349	53.8309
4.0161	55.5762
3.9976	56.3197
3.9792	56.9119
3.9609	57.389
3.9428	57.8155
3.9249	58.2341
3.9072	58.3536
3.8896	58.6395
3.8722	58.7936
3.8549	58.6538
3.8378	58.6348
3.8208	57.4866
3.804	59.123
3.7873	59.2906
3.7708	59.3829
3.7544	59.3465
3.7382	59.182
3.7221	59.1099
3.7061	58.7756
3.6903	58.7404
3.6746	58.5174
3.659	58.3267
3.6436	58.0792
3.6283	58.0209
3.6131	57.6686
3.5981	57.4509
3.5832	57.0019
3.5684	56.7233
3.5537	56.405
3.5391	55.9804
3.5247	55.5559
3.5104	54.9057
3.4962	54.4268
3.4821	53.9799
3.4681	53.7583
3.4543	53.3931
3.4405	53.0972
3.4269	52.6144
3.4133	51.9896
3.3999	51.9968
3.3866	51.5516
3.3733	51.0736
3.3602	50.8766
3.3472	50.5022
3.3343	50.1346
3.3215	49.6789
3.3088	49.3145
3.2961	48.6971
3.2836	48.3452
3.2712	47.8841
3.2588	47.4289
3.2466	47.0585
3.2345	46.572
3.2224	46.0448
3.2104	45.2606
3.1985	44.4804
3.1867	44.0025
3.175	43.6688
3.1634	43.148
3.1519	42.8172
3.1404	42.3018
3.129	41.8955
3.1178	41.3334
3.1065	40.5871
3.0954	39.2259
3.0844	37.8794
3.0734	38.5576
3.0625	38.9427
3.0517	38.924
3.041	38.5946
3.0303	38.0753
3.0197	37.6071
3.0092	37.158
2.9987	36.5045
2.9884	35.9847
2.9781	35.3872
2.9678	34.7035
2.9577	34.0008
2.9476	33.2076
2.9376	32.4032
2.9276	31.5458
2.9177	30.6512
2.9079	29.6362
2.8982	28.4238
2.8885	27.3609
2.8789	26.1365
2.8693	25.1323
2.8598	23.8702
2.8504	22.3201
2.841	21.5815
2.8317	20.4772
2.8224	18.9598
2.8133	15.8737
2.8041	11.6178
2.7951	9.4315
2.786	13.0695
2.7771	14.6087
2.7682	13.589
2.7594	10.4462
2.7506	9.8998
2.7418	11.6757
2.7332	13.6063
2.7246	13.1201
2.716	7.6635
2.7075	5.6224
2.699	11.8302
2.6906	21.8654
2.6823	28.9347
2.674	32.8071
2.6657	35.5149
2.6575	36.1735
2.6494	36.4
2.6413	37.1973
2.6332	37.9987
2.6252	38.1245
2.6173	38.9177
2.6094	38.8595
2.6015	39.6567
2.5937	40.7851
2.5859	39.9336
2.5782	40.6085
2.5706	41.9911
2.5629	43.5637
2.5554	44.0307
2.5478	45.7107
2.5403	48.1233
2.5329	51.1109
2.5255	53.6101
2.5181	55.8821
2.5108	58.0281
2.5035	60.113
2.4963	61.8298
2.4891	63.3606
2.482	64.5812
2.4749	65.6863
2.4678	66.7432
2.4608	67.8518
2.4538	68.723
2.4468	69.5124
2.4399	70.1417
2.4331	70.8923
2.4262	71.068
2.4194	71.7508
2.4127	72.2872
2.4059	72.5574
2.3993	72.9089
2.3926	73.0243
2.386	73.253
2.3795	73.3365
2.3729	73.5713
2.3664	73.6967
2.36	73.6327
2.3535	73.5401
2.3471	73.7393
2.3408	74.0793
2.3345	74.1879
2.3282	74.0484
2.3219	74.0814
2.3157	74.0283
2.3095	74.3728
2.3034	74.2785
2.2972	74.393
2.2911	74.0855
2.2851	74.3018
2.279	74.1474
2.2731	74.1067
2.2671	74.2557
2.2612	74.2046
2.2553	73.9924
2.2494	74.0383
2.2435	74.2686
2.2377	74.2636
2.232	74.497
2.2262	74.6236
2.2205	74.4671
2.2148	74.5674
2.2091	74.2778
2.2035	74.1038
2.1979	74.4434
2.1923	74.7624
2.1868	74.8811
2.1812	75.0949
2.1758	75.0187
2.1703	75.1829
2.1649	75.4913
2.1595	75.905
2.1541	75.9564
2.1487	76.5116
2.1434	76.3845
2.1381	76.6823
2.1328	77.0338
2.1275	76.8426
2.1223	77.2219
2.1171	76.968
2.112	76.6925
2.1068	77.2554
2.1017	76.7435
2.0966	76.8391
2.0915	76.8984
2.0865	77.1211
2.0814	77.0578
2.0764	77.1169
2.0715	78.0123
2.0665	77.8794
2.0616	78.2041
2.0567	78.1741
2.0518	78.1483
2.0469	77.9774
2.0421	77.8787
2.0373	78.4624
2.0325	78.1075
2.0277	78.2217
2.0229	78.0777
2.0182	77.874
2.0135	74.8615
2.0088	77.6417
2.0042	77.5452
