Name: Mimetite Pb_5(AsO_4)_3Cl
Type: Mineral
Class: Arsenate
Subclass: None
Particle Size: Fine
Sample No.: A-1A
Owner: JPL
Wavelength Range: TIR
Origin: Mexico, Chihuahua, Ingla Tierra Mine
Description: Particle size was 0-45um.Collected by JPL Original ASTER Spectral Library name was jpl.nicolet.mineral.arsenate.none.fine.a01a.spectrum.txt
Measurement: Hemispherical reflectance
X Units: Wavelength (micrometers)
Y Units: Reflectance (percent)
wavelength	value
15.3853	24.6535
15.1161	23.6208
14.8563	22.1331
14.6052	19.9775
14.3624	17.3131
14.1276	14.3826
13.9004	11.9499
13.6803	9.6601
13.4671	8.2259
13.2604	7.088
13.06	6.7138
12.8656	7.6427
12.6769	6.9189
12.4936	5.7038
12.3155	5.8557
12.1425	6.6765
11.9742	5.4222
11.8106	4.0235
11.6513	1.725
11.4963	0.494
11.3454	0.8598
11.1983	2.1039
11.0551	4.2496
10.9154	7.7049
10.7793	10.9372
10.6465	13.552
10.5169	12.9492
10.3904	14.7557
10.267	18.1859
10.1464	18.358
10.0287	20.0284
9.9136	20.9137
9.8012	25.4771
9.6913	28.0662
9.5838	28.8248
9.4787	35.9385
9.3758	38.6689
9.2752	36.1441
9.1767	33.1342
9.0803	33.2427
8.9858	36.1319
8.8934	39.9071
8.8028	42.7945
8.714	44.0171
8.627	44.6051
8.5417	45.7505
8.4581	47.1203
8.3761	48.5118
8.2957	50.6544
8.2169	53.4976
8.1395	56.4115
8.0635	58.5982
7.989	59.33
7.9158	58.2716
7.8439	54.5108
7.7734	47.62
7.7041	41.9986
7.636	38.2504
7.5691	38.2778
7.5034	42.7975
7.4388	45.8923
7.3753	45.6098
7.3129	45.0811
7.2515	43.8719
7.1912	42.7632
7.1318	41.7677
7.0734	40.8537
7.016	40.3367
6.9595	41.6936
6.9039	43.5467
6.8492	48.0526
6.7953	52.01
6.7423	52.2717
6.6901	53.4298
6.6387	54.9091
6.5881	48.8639
6.5382	41.2959
6.4892	39.7633
6.4408	37.4955
6.3931	35.2961
6.3462	34.0648
6.2999	32.5455
6.2543	33.9945
6.2094	37.2217
6.1651	40.1144
6.1214	42.815
6.0784	45.918
6.0359	49.8539
5.994	56.4334
5.9527	61.3401
5.912	65.7819
5.8718	69.6823
5.8322	73.48
5.7931	74.057
5.7545	76.666
5.7165	79.2542
5.6789	80.7003
5.6418	83.2586
5.6052	81.9576
5.5691	80.5771
5.5334	83.7596
5.4982	84.8803
5.4635	86.287
5.4291	86.2474
5.3952	86.0483
5.3618	86.0671
5.3287	86.1926
5.2961	86.7438
5.2638	86.355
5.2319	86.4647
5.2004	86.4747
5.1693	86.5409
5.1386	86.8345
5.1082	86.7364
5.0782	86.9469
5.0485	86.8429
5.0192	86.951
4.9902	86.9782
4.9616	87.3429
4.9332	87.5593
4.9052	87.6744
4.8776	87.651
4.8502	87.717
4.8231	87.9843
4.7963	88.2545
4.7699	88.5012
4.7437	88.5723
4.7178	88.4747
4.6922	88.403
4.6668	88.232
4.6418	88.4287
4.617	88.6287
4.5924	88.5675
4.5681	88.6087
4.5441	88.4996
4.5203	88.4023
4.4968	88.2279
4.4735	88.101
4.4505	87.9265
4.4277	87.6011
4.4051	87.0911
4.3828	86.5636
4.3607	86.0491
4.3388	85.7023
4.3171	85.1745
4.2956	84.864
4.2744	84.5542
4.2534	84.2012
4.2325	85.5731
4.2119	85.1971
4.1915	85.1528
4.1712	85.3932
4.1512	85.5557
4.1313	85.7614
4.1117	85.979
4.0922	86.225
4.0729	86.1939
4.0538	86.4031
4.0349	86.373
4.0161	86.3811
3.9976	85.5889
3.9792	85.1288
3.9609	85.7576
3.9428	86.9216
3.9249	87.3565
3.9072	87.4367
3.8896	87.473
3.8722	87.4818
3.8549	87.3602
3.8378	87.4917
3.8208	87.7293
3.804	87.8181
3.7873	87.9128
3.7708	87.71
3.7544	87.5451
3.7382	87.3019
3.7221	87.0478
3.7061	86.7021
3.6903	86.434
3.6746	85.9852
3.659	85.7958
3.6436	85.6154
3.6283	85.4889
3.6131	85.4493
3.5981	85.3497
3.5832	85.1813
3.5684	84.9253
3.5537	84.6115
3.5391	84.2928
3.5247	83.5157
3.5104	82.6
3.4962	82.0903
3.4821	82.0414
3.4681	82.1961
3.4543	82.2335
3.4405	81.8496
3.4269	80.6887
3.4133	80.334
3.3999	80.8559
3.3866	81.0671
3.3733	80.8271
3.3602	81.107
3.3472	81.3609
3.3343	81.6437
3.3215	81.5885
3.3088	81.4044
3.2961	81.1022
3.2836	80.9357
3.2712	80.5824
3.2588	80.2142
3.2466	79.9409
3.2345	79.7767
3.2224	79.4963
3.2104	79.1525
3.1985	78.8108
3.1867	78.5988
3.175	78.4084
3.1634	78.0018
3.1519	77.6922
3.1404	77.492
3.129	77.3564
3.1178	77.187
3.1065	77.1336
3.0954	76.899
3.0844	76.6324
3.0734	76.7633
3.0625	76.4547
3.0517	76.1214
3.041	76.1506
3.0303	75.8015
3.0197	75.5343
3.0092	75.1636
2.9987	74.9276
2.9884	74.5424
2.9781	74.2291
2.9678	73.715
2.9577	73.1711
2.9476	73.2882
2.9376	73.8656
2.9276	74.3136
2.9177	74.7217
2.9079	75.1253
2.8982	75.5668
2.8885	75.828
2.8789	75.6848
2.8693	75.4944
2.8598	75.1704
2.8504	75.673
2.841	76.5378
2.8317	77.6016
2.8224	79.8775
2.8133	81.552
2.8041	83.7922
2.7951	84.0808
2.786	86.3768
2.7771	86.9316
2.7682	88.5161
2.7594	88.6591
2.7506	89.5054
2.7418	91.8193
2.7332	90.9908
2.7246	93.592
2.716	91.9274
2.7075	92.6974
2.699	92.6669
2.6906	93.2192
2.6823	93.6778
2.674	94.0821
2.6657	96.9066
2.6575	93.5946
2.6494	93.4358
2.6413	93.6744
2.6332	94.3767
2.6252	94.2808
2.6173	96.0139
2.6094	94.6451
2.6015	94.4607
2.5937	97.0322
2.5859	94.8974
2.5782	94.4043
2.5706	94.5019
2.5629	95.4621
2.5554	93.8117
2.5478	94.3099
2.5403	93.9415
2.5329	93.9833
2.5255	93.8945
2.5181	93.8037
2.5108	93.8775
2.5035	93.8677
2.4963	93.9171
2.4891	93.9828
2.482	94.0361
2.4749	94.0248
2.4678	94.0692
2.4608	94.0961
2.4538	94.0677
2.4468	94.156
2.4399	94.2644
2.4331	94.2106
2.4262	94.2639
2.4194	94.264
2.4127	94.1717
2.4059	94.3549
2.3993	94.3624
2.3926	94.2706
2.386	94.3709
2.3795	94.4539
2.3729	94.4708
2.3664	94.353
2.36	94.5745
2.3535	94.3707
2.3471	94.2786
2.3408	94.3232
2.3345	94.3153
2.3282	94.3925
2.3219	94.2697
2.3157	94.4907
2.3095	94.4474
2.3034	94.4462
2.2972	94.5792
2.2911	94.4512
2.2851	94.557
2.279	94.578
2.2731	94.5255
2.2671	94.3807
2.2612	94.637
2.2553	94.6265
2.2494	94.7439
2.2435	94.7544
2.2377	95.0146
2.232	94.904
2.2262	94.9373
2.2205	95.0444
2.2148	94.9878
2.2091	95.0897
2.2035	95.0799
2.1979	94.9328
2.1923	94.9328
2.1868	95.0089
2.1812	95.2905
2.1758	95.0774
2.1703	95.0888
2.1649	95.1844
2.1595	94.9036
2.1541	95.0919
2.1487	95.2803
2.1434	94.9192
2.1381	95.0558
2.1328	95.1538
2.1275	95.0966
2.1223	95.0286
2.1171	95.2473
2.112	95.2268
2.1068	95.2177
2.1017	95.1233
2.0966	95.2907
2.0915	95.1968
2.0865	95.1743
2.0814	95.3946
2.0764	95.2802
2.0715	95.3292
2.0665	95.2084
2.0616	95.3069
2.0567	95.0897
2.0518	95.4808
2.0469	95.1795
2.0421	95.2449
2.0373	95.2106
2.0325	95.2626
2.0277	95.1991
2.0229	95.2216
2.0182	95.1175
2.0135	95.2284
2.0088	95.2949
2.0042	95.3135
