Name: Johannsenite Ca(Mn,Fe^2+)(SiO_3)_2
Type: Mineral
Class: Silicate
Subclass: Inosilicate
Particle Size: Medium
Sample No.: IN-12A
Owner: JPL
Wavelength Range: TIR
Origin: USA, Arizona, Graham County, Aravaipa
Description: Particle size was 45-125um.Collected by Burminco Original ASTER Spectral Library name was jpl.nicolet.mineral.silicate.inosilicate.medium.in12a.spectrum.txt
Measurement: Hemispherical reflectance
X Units: Wavelength (micrometers)
Y Units: Reflectance (percent)
wavelength	value
15.3853	2.3273
15.1161	2.7118
14.8563	2.1927
14.6052	2.3187
14.3624	2.6475
14.1276	2.9053
13.9004	3.1596
13.6803	3.7141
13.4671	3.5554
13.2604	3.8359
13.06	4.1725
12.8656	4.3423
12.6769	4.6688
12.4936	4.8642
12.3155	5.3275
12.1425	6.0315
11.9742	7.2265
11.8106	9.5311
11.6513	11.3551
11.4963	11.597
11.3454	11.8634
11.1983	11.3145
11.0551	11.4292
10.9154	10.9275
10.7793	8.5511
10.6465	9.0204
10.5169	9.469
10.3904	7.7836
10.267	5.064
10.1464	4.455
10.0287	4.9666
9.9136	5.1903
9.8012	5.4414
9.6913	6.0448
9.5838	7.6472
9.4787	9.7304
9.3758	11.1042
9.2752	10.943
9.1767	10.6875
9.0803	10.959
8.9858	10.6058
8.8934	8.1084
8.8028	5.2927
8.714	3.6445
8.627	2.7382
8.5417	2.8415
8.4581	2.6792
8.3761	2.6992
8.2957	2.5623
8.2169	2.8975
8.1395	2.769
8.0635	2.8029
7.989	2.8882
7.9158	3.533
7.8439	3.9774
7.7734	4.4934
7.7041	4.8016
7.636	4.9633
7.5691	4.9585
7.5034	5.2957
7.4388	5.7392
7.3753	5.6426
7.3129	5.5403
7.2515	5.7117
7.1912	5.9312
7.1318	5.876
7.0734	6.0001
7.016	5.8995
6.9595	5.8659
6.9039	5.7144
6.8492	5.6146
6.7953	5.3497
6.7423	5.4027
6.6901	5.6437
6.6387	5.864
6.5881	5.844
6.5382	5.8587
6.4892	6.3156
6.4408	6.2944
6.3931	6.1139
6.3462	5.8287
6.2999	5.7719
6.2543	5.4566
6.2094	4.6698
6.1651	4.0547
6.1214	4.0528
6.0784	4.1687
6.0359	4.8217
5.994	6.195
5.9527	7.5554
5.912	8.8629
5.8718	10.4881
5.8322	12.2655
5.7931	13.3081
5.7545	14.4502
5.7165	15.2686
5.6789	15.5553
5.6418	15.9074
5.6052	14.7698
5.5691	13.489
5.5334	14.4224
5.4982	14.4612
5.4635	13.6157
5.4291	13.2046
5.3952	12.6839
5.3618	12.3068
5.3287	12.1177
5.2961	12.6607
5.2638	13.1943
5.2319	13.2053
5.2004	12.7786
5.1693	11.5308
5.1386	10.885
5.1082	10.8444
5.0782	11.4607
5.0485	12.2052
5.0192	12.6481
4.9902	12.8146
4.9616	13.169
4.9332	13.3439
4.9052	13.604
4.8776	13.9936
4.8502	14.7786
4.8231	15.5804
4.7963	16.4549
4.7699	17.4066
4.7437	17.9219
4.7178	18.5044
4.6922	18.4956
4.6668	19.0386
4.6418	20.0154
4.617	20.8974
4.5924	21.4232
4.5681	22.082
4.5441	22.708
4.5203	22.8238
4.4968	23.0813
4.4735	23.1801
4.4505	23.4017
4.4277	23.5893
4.4051	23.7918
4.3828	23.9437
4.3607	24.3424
4.3388	24.5614
4.3171	24.7286
4.2956	25.0489
4.2744	25.0901
4.2534	25.5711
4.2325	25.6777
4.2119	26.0417
4.1915	26.2695
4.1712	26.571
4.1512	26.7097
4.1313	26.7389
4.1117	26.8205
4.0922	26.6589
4.0729	26.4829
4.0538	25.9201
4.0349	24.7911
4.0161	23.6814
3.9976	22.8252
3.9792	21.9989
3.9609	21.9876
3.9428	22.7149
3.9249	23.4578
3.9072	23.2291
3.8896	23.1184
3.8722	22.9457
3.8549	22.6159
3.8378	22.5029
3.8208	22.4197
3.804	22.5505
3.7873	22.7921
3.7708	22.3288
3.7544	21.8557
3.7382	21.3415
3.7221	20.9138
3.7061	20.4191
3.6903	19.8523
3.6746	19.3419
3.659	18.7975
3.6436	18.2722
3.6283	17.8132
3.6131	17.3161
3.5981	16.7915
3.5832	16.1367
3.5684	15.5446
3.5537	15.1611
3.5391	14.6149
3.5247	13.8005
3.5104	13.1431
3.4962	12.6183
3.4821	12.0546
3.4681	11.9547
3.4543	11.7514
3.4405	11.3463
3.4269	10.9976
3.4133	10.8098
3.3999	10.3873
3.3866	10.1722
3.3733	9.7621
3.3602	9.4812
3.3472	9.1311
3.3343	9.1779
3.3215	9.1598
3.3088	8.8705
3.2961	8.8096
3.2836	8.5481
3.2712	8.355
3.2588	8.1331
3.2466	7.9937
3.2345	7.6849
3.2224	7.6602
3.2104	7.4991
3.1985	7.2562
3.1867	7.0563
3.175	6.8894
3.1634	6.8617
3.1519	6.6043
3.1404	6.6292
3.129	6.381
3.1178	6.2392
3.1065	6.197
3.0954	6.1629
3.0844	6.0722
3.0734	5.8774
3.0625	6.0215
3.0517	5.8777
3.041	5.9236
3.0303	5.8488
3.0197	5.7111
3.0092	5.5903
2.9987	5.6458
2.9884	5.5645
2.9781	5.4571
2.9678	5.5782
2.9577	5.565
2.9476	5.2854
2.9376	5.487
2.9276	5.4182
2.9177	5.4663
2.9079	5.2839
2.8982	5.4973
2.8885	5.3314
2.8789	5.6071
2.8693	5.7299
2.8598	5.96
2.8504	5.8321
2.841	5.7177
2.8317	5.9367
2.8224	5.9607
2.8133	5.7346
2.8041	5.9696
2.7951	6.1428
2.786	6.594
2.7771	6.8346
2.7682	7.3536
2.7594	7.8126
2.7506	8.3361
2.7418	9.7714
2.7332	11.7111
2.7246	14.3684
2.716	17.008
2.7075	20.7161
2.699	24.4103
2.6906	27.5855
2.6823	30.3184
2.674	32.2941
2.6657	35.159
2.6575	35.655
2.6494	36.4785
2.6413	37.1449
2.6332	37.9877
2.6252	38.2619
2.6173	39.0789
2.6094	39.2581
2.6015	39.3463
2.5937	39.9693
2.5859	39.4725
2.5782	39.6408
2.5706	39.7394
2.5629	39.932
2.5554	39.4045
2.5478	39.5012
2.5403	39.2613
2.5329	39.3707
2.5255	39.6981
2.5181	39.7473
2.5108	39.9626
2.5035	40.1339
2.4963	40.3083
2.4891	40.4889
2.482	40.8194
2.4749	41.2471
2.4678	41.4561
2.4608	41.6249
2.4538	42.0177
2.4468	42.0888
2.4399	42.2719
2.4331	42.8018
2.4262	42.8343
2.4194	43.1851
2.4127	43.0937
2.4059	43.1379
2.3993	43.2988
2.3926	43.4903
2.386	43.6976
2.3795	43.9796
2.3729	44.1348
2.3664	44.2621
2.36	44.547
2.3535	44.3242
2.3471	44.4159
2.3408	44.3938
2.3345	44.1706
2.3282	44.2928
2.3219	43.8313
2.3157	43.6269
2.3095	43.2522
2.3034	42.7565
2.2972	42.6241
2.2911	42.2317
2.2851	42.4681
2.279	42.5321
2.2731	43.0251
2.2671	43.1013
2.2612	43.2532
2.2553	43.1056
2.2494	43.1616
2.2435	43.2959
2.2377	43.2268
2.232	43.1392
2.2262	42.9343
2.2205	42.9578
2.2148	42.8675
2.2091	42.7747
2.2035	42.8758
2.1979	42.7332
2.1923	42.7959
2.1868	42.7533
2.1812	42.7784
2.1758	42.6181
2.1703	42.7492
2.1649	42.4303
2.1595	42.4527
2.1541	42.4071
2.1487	41.9519
2.1434	41.8636
2.1381	41.8714
2.1328	41.4539
2.1275	41.5766
2.1223	41.1797
2.1171	41.187
2.112	41.0359
2.1068	40.8591
2.1017	40.613
2.0966	40.2459
2.0915	40.0478
2.0865	39.9289
2.0814	40.3989
2.0764	39.9479
2.0715	39.5038
2.0665	39.46
2.0616	39.1645
2.0567	38.5992
2.0518	39.0505
2.0469	38.6145
2.0421	38.4808
2.0373	38.2253
2.0325	38.1564
2.0277	37.9017
2.0229	37.6341
2.0182	37.3618
2.0135	37.1123
2.0088	37.1838
2.0042	36.8212
