Name: Rhodochrosite MnCO_3
Type: Mineral
Class: Carbonate
Subclass: None
Particle Size: Medium
Sample No.: C-8A
Owner: JPL
Wavelength Range: TIR
Origin: USA, Montana, Silver Bow County, Butte
Description: Particle size was 45-125um.Collected by Ward's Original ASTER Spectral Library name was jpl.nicolet.mineral.carbonate.none.medium.c08a.spectrum.txt
Measurement: Hemispherical reflectance
X Units: Wavelength (micrometers)
Y Units: Reflectance (percent)
wavelength	value
15.3853	13.9825
15.1161	14.4146
14.8563	14.9644
14.6052	14.7775
14.3624	13.6141
14.1276	10.0976
13.9004	5.022
13.6803	2.4234
13.4671	7.1725
13.2604	12.4907
13.06	15.6411
12.8656	17.2554
12.6769	18.2386
12.4936	19.5673
12.3155	20.5596
12.1425	19.1709
11.9742	11.0223
11.8106	10.1693
11.6513	8.3924
11.4963	14.2308
11.3454	17.3952
11.1983	11.2113
11.0551	12.9788
10.9154	13.6935
10.7793	14.6067
10.6465	13.9118
10.5169	13.9087
10.3904	14.4993
10.267	14.6826
10.1464	15.0233
10.0287	14.3195
9.9136	13.0546
9.8012	10.752
9.6913	10.8887
9.5838	11.9448
9.4787	11.7841
9.3758	12.6357
9.2752	12.6949
9.1767	10.9333
9.0803	13.1629
8.9858	13.4399
8.8934	13.7599
8.8028	13.1107
8.714	9.6535
8.627	7.4992
8.5417	8.2081
8.4581	8.5695
8.3761	8.4505
8.2957	8.7128
8.2169	8.9729
8.1395	8.6362
8.0635	7.8563
7.989	7.4354
7.9158	7.1475
7.8439	7.1274
7.7734	7.2684
7.7041	7.2489
7.636	7.4504
7.5691	7.8181
7.5034	8.187
7.4388	8.7103
7.3753	9.6432
7.3129	10.6631
7.2515	12.6777
7.1912	15.2348
7.1318	21.5592
7.0734	22.0778
7.016	22.4475
6.9595	23.5504
6.9039	24.6843
6.8492	26.1307
6.7953	28.3588
6.7423	30.6712
6.6901	35.2228
6.6387	39.4023
6.5881	39.9562
6.5382	40.3001
6.4892	41.5222
6.4408	33.1641
6.3931	14.2332
6.3462	5.2463
6.2999	2.2128
6.2543	1.1954
6.2094	0.7232
6.1651	0.6558
6.1214	0.6873
6.0784	0.7867
6.0359	0.9724
5.994	1.2893
5.9527	1.5004
5.912	1.8733
5.8718	2.2844
5.8322	2.4087
5.7931	2.6421
5.7545	3.0442
5.7165	3.403
5.6789	3.3861
5.6418	3.6107
5.6052	3.1551
5.5691	1.6764
5.5334	1.5051
5.4982	3.6011
5.4635	10.7621
5.4291	16.4132
5.3952	20.4307
5.3618	23.3009
5.3287	26.1368
5.2961	28.5756
5.2638	31.2426
5.2319	34.498
5.2004	36.8364
5.1693	37.259
5.1386	30.3315
5.1082	34.866
5.0782	37.0701
5.0485	37.2387
5.0192	37.2321
4.9902	37.567
4.9616	39.4358
4.9332	40.6855
4.9052	42.6968
4.8776	45.4431
4.8502	46.631
4.8231	47.2096
4.7963	46.8737
4.7699	44.3412
4.7437	39.1462
4.7178	23.4446
4.6922	19.2766
4.6668	20.7298
4.6418	26.516
4.617	31.3804
4.5924	34.5979
4.5681	35.6535
4.5441	35.7184
4.5203	35.2016
4.4968	34.6847
4.4735	35.8929
4.4505	39.2659
4.4277	42.6523
4.4051	42.2407
4.3828	41.6381
4.3607	42.5133
4.3388	44.4115
4.3171	44.8322
4.2956	43.8801
4.2744	40.9723
4.2534	41.9726
4.2325	41.9378
4.2119	40.7204
4.1915	38.9394
4.1712	37.1
4.1512	35.0831
4.1313	31.6515
4.1117	27.2797
4.0922	22.0629
4.0729	15.2741
4.0538	8.6809
4.0349	5.0479
4.0161	3.2106
3.9976	3.2185
3.9792	3.473
3.9609	4.2893
3.9428	5.2922
3.9249	5.4714
3.9072	5.6972
3.8896	5.8823
3.8722	6.0946
3.8549	6.4031
3.8378	7.4466
3.8208	10.5115
3.804	15.4118
3.7873	25.9355
3.7708	34.9336
3.7544	36.7148
3.7382	38.7431
3.7221	40.961
3.7061	42.404
3.6903	43.3455
3.6746	44.2291
3.659	45.0038
3.6436	45.0974
3.6283	43.4525
3.6131	36.9392
3.5981	31.9542
3.5832	30.0907
3.5684	17.4063
3.5537	7.7544
3.5391	6.0019
3.5247	4.9871
3.5104	4.5
3.4962	4.9862
3.4821	6.378
3.4681	6.8156
3.4543	7.306
3.4405	7.5381
3.4269	7.6411
3.4133	7.2732
3.3999	7.0653
3.3866	7.1587
3.3733	7.0359
3.3602	6.1498
3.3472	6.3754
3.3343	15.9455
3.3215	23.7892
3.3088	27.405
3.2961	29.5506
3.2836	30.7463
3.2712	31.3862
3.2588	32.1619
3.2466	32.617
3.2345	32.7063
3.2224	32.6938
3.2104	32.1065
3.1985	30.2073
3.1867	28.8303
3.175	28.5673
3.1634	28.4293
3.1519	27.8882
3.1404	27.0688
3.129	25.5059
3.1178	24.1791
3.1065	24.1733
3.0954	24.4327
3.0844	24.7275
3.0734	24.8647
3.0625	24.729
3.0517	24.7463
3.041	24.6823
3.0303	24.5452
3.0197	24.1398
3.0092	23.9955
2.9987	24.0719
2.9884	23.7263
2.9781	23.3565
2.9678	22.9662
2.9577	22.7065
2.9476	22.8626
2.9376	23.1582
2.9276	23.4549
2.9177	23.4881
2.9079	24.0924
2.8982	24.4866
2.8885	24.9774
2.8789	25.2573
2.8693	25.9405
2.8598	26.7838
2.8504	27.379
2.841	27.6257
2.8317	27.9756
2.8224	28.365
2.8133	28.2186
2.8041	26.6247
2.7951	28.8481
2.786	31.6049
2.7771	33.5898
2.7682	36.3783
2.7594	37.9489
2.7506	40.1484
2.7418	43.6709
2.7332	46.9822
2.7246	52.6232
2.716	56.1452
2.7075	61.0529
2.699	65.1238
2.6906	68.0384
2.6823	70.5576
2.674	71.6997
2.6657	74.4336
2.6575	73.033
2.6494	73.4934
2.6413	74.0502
2.6332	74.6511
2.6252	74.7193
2.6173	75.5032
2.6094	73.887
2.6015	71.8479
2.5937	72.2124
2.5859	68.0855
2.5782	61.1792
2.5706	52.2147
2.5629	46.7809
2.5554	43.7666
2.5478	44.7975
2.5403	47.514
2.5329	49.6221
2.5255	51.097
2.5181	51.9426
2.5108	52.7467
2.5035	53.6343
2.4963	54.8616
2.4891	56.7536
2.482	59.4456
2.4749	62.4042
2.4678	64.8581
2.4608	66.9493
2.4538	68.7064
2.4468	70.1957
2.4399	71.5695
2.4331	72.3976
2.4262	73.12
2.4194	73.8286
2.4127	74.9359
2.4059	75.6389
2.3993	75.4065
2.3926	74.4244
2.386	71.0415
2.3795	64.9846
2.3729	60.6859
2.3664	58.4463
2.36	57.9304
2.3535	58.831
2.3471	60.1467
2.3408	61.0727
2.3345	61.9054
2.3282	62.5029
2.3219	63.4332
2.3157	64.157
2.3095	64.9309
2.3034	66.2872
2.2972	67.755
2.2911	69.3174
2.2851	70.755
2.279	72.0397
2.2731	72.9893
2.2671	74.0265
2.2612	74.693
2.2553	75.4805
2.2494	76.1334
2.2435	76.5808
2.2377	77.2993
2.232	77.7458
2.2262	78.1781
2.2205	78.3935
2.2148	78.6659
2.2091	78.8848
2.2035	78.9179
2.1979	79.1924
2.1923	79.0022
2.1868	79.1667
2.1812	78.8898
2.1758	78.6644
2.1703	78.6741
2.1649	78.514
2.1595	78.6762
2.1541	78.8351
2.1487	79.2753
2.1434	79.6901
2.1381	79.9079
2.1328	80.0658
2.1275	80.0514
2.1223	80.2449
2.1171	80.1438
2.112	80.0476
2.1068	80.1559
2.1017	80.2958
2.0966	80.504
2.0915	80.4124
2.0865	80.264
2.0814	80.4195
2.0764	80.7432
2.0715	80.3405
2.0665	80.2096
2.0616	80.4104
2.0567	80.1929
2.0518	80.3569
2.0469	80.0579
2.0421	79.8404
2.0373	79.6963
2.0325	79.4058
2.0277	79.2436
2.0229	78.845
2.0182	78.2141
2.0135	77.5182
2.0088	77.5105
2.0042	77.3563
