Name: Epidote Ca_2(Al,Fe^3+)_3O.SiO_4.Si_2O_7.OH
Type: Mineral
Class: Silicate
Subclass: Sorosilicate
Particle Size: Medium
Sample No.: SS-1C
Owner: JPL
Wavelength Range: TIR
Origin: USA, Colorado
Description: Particle size was 45-125um.Collected by Ward's Original ASTER Spectral Library name was jpl.nicolet.mineral.silicate.sorosilicate.medium.ss01c.spectrum.txt
Measurement: Hemispherical reflectance
X Units: Wavelength (micrometers)
Y Units: Reflectance (percent)
wavelength	value
15.3853	8.3966
15.1161	7.2362
14.8563	5.1278
14.6052	4.7541
14.3624	4.0538
14.1276	2.5072
13.9004	2.2907
13.6803	1.7652
13.4671	2.6312
13.2604	3.1359
13.06	3.2752
12.8656	3.6035
12.6769	3.8626
12.4936	4.3868
12.3155	4.3924
12.1425	5.1794
11.9742	6.0579
11.8106	5.9945
11.6513	7.263
11.4963	7.4241
11.3454	10.8424
11.1983	10.693
11.0551	9.3291
10.9154	8.253
10.7793	7.6
10.6465	11.3982
10.5169	16.6425
10.3904	17.8898
10.267	15.5644
10.1464	13.5053
10.0287	10.0207
9.9136	4.6269
9.8012	3.995
9.6913	6.3694
9.5838	8.8885
9.4787	10.2901
9.3758	9.8961
9.2752	9.4695
9.1767	9.5
9.0803	9.1248
8.9858	9.5427
8.8934	8.5676
8.8028	7.7147
8.714	5.9049
8.627	3.17
8.5417	2.9497
8.4581	2.5776
8.3761	2.9843
8.2957	3.0638
8.2169	3.274
8.1395	3.2058
8.0635	3.0983
7.989	3.1918
7.9158	3.2765
7.8439	3.5555
7.7734	3.9367
7.7041	4.3618
7.636	4.8658
7.5691	5.1664
7.5034	5.7522
7.4388	6.0539
7.3753	6.5296
7.3129	6.8088
7.2515	7.1895
7.1912	7.4532
7.1318	7.8978
7.0734	8.5692
7.016	9.1636
6.9595	9.3939
6.9039	9.6814
6.8492	10.0364
6.7953	10.4668
6.7423	10.6344
6.6901	11.0516
6.6387	11.5542
6.5881	11.637
6.5382	12.0182
6.4892	12.7839
6.4408	12.8098
6.3931	12.6233
6.3462	12.1852
6.2999	11.2772
6.2543	10.7041
6.2094	10.2193
6.1651	9.666
6.1214	9.2239
6.0784	8.9824
6.0359	8.8954
5.994	8.3185
5.9527	7.4441
5.912	7.543
5.8718	8.2903
5.8322	8.8837
5.7931	9.254
5.7545	9.2592
5.7165	9.5013
5.6789	9.5117
5.6418	9.4845
5.6052	9.573
5.5691	9.6333
5.5334	11.8521
5.4982	13.4799
5.4635	14.8304
5.4291	15.5909
5.3952	15.3671
5.3618	14.7995
5.3287	14.5743
5.2961	14.9324
5.2638	14.9319
5.2319	15.0222
5.2004	15.5732
5.1693	16.5784
5.1386	17.3843
5.1082	17.4457
5.0782	17.0777
5.0485	17.1501
5.0192	17.1294
4.9902	16.3247
4.9616	14.9921
4.9332	15.1198
4.9052	15.8588
4.8776	16.5275
4.8502	18.9753
4.8231	20.2954
4.7963	21.5502
4.7699	24.5466
4.7437	27.6484
4.7178	28.8612
4.6922	28.7876
4.6668	29.4908
4.6418	29.9944
4.617	30.0351
4.5924	31.4858
4.5681	34.6598
4.5441	37.7204
4.5203	40.1662
4.4968	42.3831
4.4735	44.4619
4.4505	46.0946
4.4277	47.4323
4.4051	48.3899
4.3828	49.3845
4.3607	50.2607
4.3388	50.7593
4.3171	51.2977
4.2956	51.7644
4.2744	52.2126
4.2534	52.4408
4.2325	53.0271
4.2119	53.2306
4.1915	53.5357
4.1712	53.9898
4.1512	54.3611
4.1313	54.3286
4.1117	54.3594
4.0922	54.073
4.0729	53.49
4.0538	52.4248
4.0349	49.5873
4.0161	46.4757
3.9976	42.8505
3.9792	41.5301
3.9609	42.7647
3.9428	45.7052
3.9249	47.501
3.9072	48.2813
3.8896	48.6187
3.8722	48.9462
3.8549	49.0817
3.8378	49.6484
3.8208	51.3916
3.804	53.3283
3.7873	55.0029
3.7708	55.2352
3.7544	55.0511
3.7382	54.5622
3.7221	54.0356
3.7061	53.6034
3.6903	53.22
3.6746	53.0578
3.659	52.9525
3.6436	52.7291
3.6283	52.2981
3.6131	51.6865
3.5981	50.9751
3.5832	50.0961
3.5684	49.189
3.5537	48.2438
3.5391	46.8566
3.5247	44.5055
3.5104	41.8471
3.4962	40.0158
3.4821	38.4856
3.4681	38.5316
3.4543	38.8142
3.4405	37.9633
3.4269	37.0398
3.4133	36.2913
3.3999	36.0407
3.3866	35.4496
3.3733	34.5382
3.3602	33.3486
3.3472	32.3383
3.3343	33.1897
3.3215	32.7791
3.3088	31.8863
3.2961	30.379
3.2836	28.7556
3.2712	27.2929
3.2588	26.2564
3.2466	25.4289
3.2345	24.3211
3.2224	23.0915
3.2104	21.7854
3.1985	20.2326
3.1867	18.8308
3.175	17.8627
3.1634	16.9425
3.1519	16.2555
3.1404	15.1979
3.129	14.331
3.1178	13.0575
3.1065	12.3606
3.0954	11.6612
3.0844	11.175
3.0734	10.9411
3.0625	10.7165
3.0517	10.494
3.041	10.2561
3.0303	10.3364
3.0197	9.9988
3.0092	9.5663
2.9987	9.1188
2.9884	8.721
2.9781	8.4999
2.9678	8.1174
2.9577	7.6835
2.9476	7.828
2.9376	8.0885
2.9276	8.4794
2.9177	9.1548
2.9079	9.2316
2.8982	9.6525
2.8885	9.6327
2.8789	9.8085
2.8693	10.3463
2.8598	11.0405
2.8504	11.9129
2.841	12.7586
2.8317	13.5505
2.8224	13.9703
2.8133	14.8449
2.8041	15.439
2.7951	16.4345
2.786	16.8651
2.7771	17.8148
2.7682	19.3652
2.7594	20.085
2.7506	21.9889
2.7418	22.9224
2.7332	22.4035
2.7246	26.2405
2.716	36.8173
2.7075	43.6566
2.699	47.6264
2.6906	50.4493
2.6823	52.8254
2.674	55.0345
2.6657	57.5219
2.6575	58.335
2.6494	59.16
2.6413	59.9118
2.6332	60.3555
2.6252	60.672
2.6173	61.1945
2.6094	61.4273
2.6015	61.9217
2.5937	62.789
2.5859	62.7495
2.5782	62.7335
2.5706	62.6758
2.5629	62.7477
2.5554	62.3663
2.5478	62.2662
2.5403	62.0426
2.5329	62.0428
2.5255	62.2825
2.5181	62.5253
2.5108	62.9874
2.5035	63.6919
2.4963	64.1121
2.4891	64.7539
2.482	65.2848
2.4749	65.6832
2.4678	66.1033
2.4608	66.5159
2.4538	67.175
2.4468	67.8127
2.4399	67.9001
2.4331	68.3288
2.4262	68.251
2.4194	68.0083
2.4127	67.8219
2.4059	66.8987
2.3993	65.4251
2.3926	63.8848
2.386	62.2928
2.3795	61.7088
2.3729	59.8633
2.3664	55.8463
2.36	49.4752
2.3535	42.6447
2.3471	37.6382
2.3408	35.7375
2.3345	36.4138
2.3282	38.6986
2.3219	41.3801
2.3157	44.5691
2.3095	48.4314
2.3034	51.8139
2.2972	54.2888
2.2911	56.7094
2.2851	59.4278
2.279	61.471
2.2731	62.4557
2.2671	62.0489
2.2612	60.0983
2.2553	57.9729
2.2494	59.5094
2.2435	62.9002
2.2377	67.1725
2.232	69.8726
2.2262	71.409
2.2205	72.2545
2.2148	73.0138
2.2091	73.2997
2.2035	73.6056
2.1979	73.979
2.1923	74.2089
2.1868	74.3306
2.1812	74.8854
2.1758	74.9504
2.1703	75.2681
2.1649	75.2588
2.1595	75.4166
2.1541	75.3653
2.1487	75.3755
2.1434	75.7026
2.1381	75.6302
2.1328	75.3069
2.1275	75.3496
2.1223	75.2908
2.1171	75.3681
2.112	75.7284
2.1068	75.6936
2.1017	75.9771
2.0966	75.884
2.0915	75.9228
2.0865	75.6645
2.0814	75.9611
2.0764	75.8297
2.0715	75.7332
2.0665	75.7583
2.0616	75.8106
2.0567	75.7153
2.0518	75.787
2.0469	75.6505
2.0421	75.3933
2.0373	75.6099
2.0325	75.1091
2.0277	75.1832
2.0229	74.9298
2.0182	74.8761
2.0135	74.6945
2.0088	74.5782
2.0042	74.3455
