Name: Tremolite Ca2(Mg, Fe+2)5Si8O22(OH)2
Type: Mineral
Class: Silicate
Subclass: Inosilicate
Particle Size: Fine
Sample No.: tremol_2
Owner: JHU
Wavelength Range: TIR
Origin: Canada via the Smithsonian (sample no. NMNH 117611)
Description: The sample consisted of a single 21.41 g piece of euhedral crystal, translucent deep brown in color. A very small amount of calcite contamination was removed with HCl.  Microscopic examination showed the sample to be virtually all pure, clean tremolite, with a very small amount (<1%) of low efractive index impurity. (Chain Silicates); (Amphibole Group) Particle size was less than 2  Micrometers. Original ASTER Spectral Library name was jhu.nicolet.mineral.silicate.inosilicate.powder.tremol2.spectrum.txt
Measurement: Transmission
X Units: Wavelength (micrometers)
Y Units: Transmittance (percent)
wavelength	value
25.0442	52.9139
24.3388	44.1737
23.6719	40.5585
23.0407	30.914
22.4422	21.3007
21.8741	14.4316
21.334	14.6679
20.8199	20.8164
20.33	30.6659
19.8627	26.5644
19.4163	26.3124
18.9896	32.4789
18.5812	42.1957
18.19	45.7738
17.815	61.6156
17.4551	70.8592
17.1094	76.2781
16.7772	80.1287
16.4576	80.9324
16.15	80.6971
15.8537	81.1316
15.568	79.7268
15.2925	73.8504
15.0265	61.6151
14.7697	70.1317
14.5214	76.6229
14.2814	77.4368
14.0492	75.6561
13.8244	74.8875
13.6067	69.5587
13.3957	64.9581
13.1912	74.0877
12.9929	82.3887
12.8004	83.2617
12.6135	82.7303
12.432	80.8435
12.2557	78.4932
12.0843	75.6619
11.9176	70.834
11.7555	64.6951
11.5977	60.3184
11.444	54.4315
11.2944	45.7909
11.1487	37.008
11.0067	28.2504
10.8682	22.0312
10.7332	22.4423
10.6015	20.2824
10.473	15.8427
10.3476	15.4218
10.2251	14.7622
10.1056	15.4165
9.9887	20.2773
9.8746	24.6506
9.763	28.0116
9.6539	29.8927
9.5472	28.2074
9.4429	24.6337
9.3408	23.4335
9.2409	24.1848
9.1431	27.7192
9.0474	35.0561
8.9536	41.2719
8.8618	44.6427
8.7718	39.476
8.6837	50.0926
8.5973	59.0912
8.5126	64.0894
8.4295	67.4747
8.3481	70.1385
8.2682	72.5423
8.1898	74.5745
8.1129	76.1656
8.0374	77.5027
7.9634	78.929
7.8906	80.1036
7.8192	81.011
7.7491	81.9246
7.6802	82.698
7.6126	83.4876
7.5461	84.2227
7.4807	84.7508
7.4165	85.2962
7.3534	85.782
7.2914	86.2366
7.2303	86.406
7.1703	87.3245
7.1113	87.7175
7.0533	87.8801
6.9962	88.3142
6.94	88.7341
6.8847	89.012
6.8302	89.0535
6.7767	89.325
6.7239	89.7083
6.672	90.0711
6.6209	90.3025
6.5705	90.6052
6.5209	90.7498
6.4721	90.8953
6.424	90.9485
6.3766	90.8997
6.3299	90.8172
6.2838	90.7962
6.2385	90.7805
6.1937	90.6751
6.1496	90.6067
6.1062	90.4011
6.0633	90.7449
6.0211	91.7293
5.9794	92.3699
5.9383	92.3113
5.8978	92.3372
5.8578	92.5671
5.8184	92.7771
5.7794	92.8836
5.741	92.8713
5.7031	92.9856
5.6657	93.2175
5.6288	93.3528
5.5924	93.4592
5.5564	93.6633
5.5209	93.6831
5.4859	93.8079
5.4513	93.9929
5.4171	94.1619
5.3833	94.2205
5.35	94.3596
5.3171	94.4949
5.2846	94.5598
5.2524	94.594
5.2207	94.6565
5.1893	94.6936
5.1584	94.7148
5.1277	94.6719
5.0975	94.6184
5.0676	94.5879
5.038	94.6221
5.0088	94.6777
4.98	94.719
4.9514	94.7969
4.9232	94.8606
4.8953	94.866
4.8678	94.9172
4.8405	94.9778
4.8135	95.0159
4.7868	95.0642
4.7605	95.1279
4.7344	95.0876
4.7086	95.1399
4.6831	95.1287
4.6578	95.219
4.6328	95.2366
4.6081	95.3777
4.5837	95.3328
4.5595	95.3289
4.5356	95.3418
4.5119	95.3215
4.4884	95.375
4.4652	95.3555
4.4423	95.3259
4.4196	95.3176
4.3971	95.3528
4.3748	95.3359
4.3528	95.374
4.331	95.3608
4.3094	95.3035
4.288	95.3135
4.2668	95.3154
4.2458	95.3535
4.2251	95.2859
4.2045	95.2659
4.1841	95.262
4.164	95.241
4.144	95.197
4.1242	95.2588
4.1046	95.1941
4.0852	95.1631
4.066	95.1257
4.047	95.1506
4.0281	95.1101
4.0094	95.1091
3.9909	95.0935
3.9725	95.0254
3.9544	95.0303
3.9363	95.0242
3.9185	94.9482
3.9008	94.9641
3.8833	94.9102
3.8659	94.8113
3.8487	94.8801
3.8316	94.8123
3.8147	94.7734
3.7979	94.8054
3.7813	94.7429
3.7648	94.6584
3.7485	94.6257
3.7323	94.5508
3.7162	94.5139
3.7003	94.3889
3.6845	94.3342
3.6689	94.2969
3.6534	94.2341
3.638	94.2605
3.6227	94.1726
3.6076	94.1316
3.5926	94.0498
3.5777	94.0115
3.563	93.8484
3.5484	93.8406
3.5338	93.749
3.5195	93.6231
3.5052	93.3633
3.491	93.3828
3.477	93.3555
3.463	93.3552
3.4492	93.1182
3.4355	93.0999
3.4219	92.7334
3.4084	92.6453
3.395	92.8655
3.3817	92.7764
3.3685	92.8455
3.3554	92.7764
3.3425	92.7195
3.3296	92.7881
3.3168	92.6179
3.3041	92.7258
3.2915	92.6062
3.279	92.5208
3.2666	92.5042
3.2543	92.3347
3.2421	92.3069
3.23	92.1795
3.218	92.1189
3.206	91.906
3.1942	91.7976
3.1824	91.6531
3.1707	91.5711
3.1591	91.4065
3.1476	91.2781
3.1362	91.0955
3.1249	90.906
3.1136	90.7771
3.1024	90.575
3.0913	90.2581
3.0803	90.1506
3.0694	90.0144
3.0585	89.8933
3.0477	89.7381
3.037	89.4627
3.0264	89.3377
3.0158	89.0906
3.0053	88.8836
2.9949	88.5134
2.9845	88.3128
2.9743	87.9177
2.9641	87.4885
2.9539	87.3518
2.9439	87.178
2.9339	86.7854
2.9239	86.6648
2.9141	86.5315
2.9043	86.5974
2.8946	86.5935
2.8849	86.6433
2.8753	86.6873
2.8658	86.7908
2.8563	87.0506
2.8469	87.1311
2.8375	87.2893
2.8282	87.572
2.819	87.825
2.8098	88.1175
2.8007	88.3982
2.7917	88.7698
2.7827	89.2029
2.7738	89.617
2.7649	89.9299
2.7561	90.3767
2.7473	90.7092
2.7386	91.0037
2.7299	90.7815
2.7213	89.5662
2.7128	91.2976
2.7043	90.3064
2.6959	90.1052
2.6875	91.3357
2.6791	91.8318
2.6709	91.8621
2.6626	91.6687
2.6545	91.7
2.6463	91.6345
2.6382	91.6531
2.6302	91.7107
2.6222	91.6736
2.6143	91.4734
2.6064	91.5427
2.5986	91.5476
2.5908	91.5134
2.583	91.5388
2.5753	91.2361
2.5677	91.531
2.5601	91.367
2.5525	91.239
2.545	91.2351
2.5375	91.3445
2.5301	91.2791
2.5227	90.9607
2.5154	91.1072
2.5081	90.9539
2.5008	91.1013
2.4936	90.8953
2.4864	90.989
2.4793	90.9031
2.4722	90.8494
2.4651	90.9148
2.4581	90.7
2.4511	90.8787
2.4442	90.5994
2.4373	90.6658
2.4305	90.5291
2.4236	90.5994
2.4169	90.6765
2.4101	90.5437
2.4034	90.3552
2.3967	90.2068
2.3901	90.2146
2.3835	90.3406
2.377	90.2654
2.3704	90.0076
2.364	90.0632
2.3575	90.1756
2.3511	90.2312
2.3447	90.0672
2.3384	89.8875
2.3321	89.4998
2.3258	89.8162
2.3195	89.9187
2.3133	89.574
2.3071	89.6345
2.301	89.6131
2.2949	89.6209
2.2888	89.6345
2.2828	89.5291
2.2767	89.4021
2.2708	89.4978
2.2648	89.2713
2.2589	89.1795
2.253	89.4861
2.2471	89.0935
2.2413	88.9998
2.2355	89.0174
2.2297	89.1189
2.224	88.6502
2.2183	88.7752
2.2126	88.9158
2.207	88.783
2.2013	88.2986
2.1957	88.6736
2.1902	88.4705
2.1846	88.5935
2.1791	88.3064
2.1736	88.283
2.1682	88.6033
2.1628	88.3455
2.1574	88.4002
2.152	88.1736
2.1466	88.2127
2.1413	88.2752
2.136	88.0701
2.1308	88.2127
2.1255	87.9529
2.1203	87.9646
2.1151	87.7517
2.11	87.7224
2.1048	87.8377
2.0997	88.0174
2.0946	87.7146
2.0895	87.4802
2.0845	87.8474
2.0795	87.7049
