Name: Ulexite NaCaB_5O_6(OH)_6.5H_2O
Type: Mineral
Class: Borate
Subclass: None
Particle Size: Fine
Sample No.: B-3A
Owner: JPL
Wavelength Range: TIR
Origin: USA, California, Kern County, Boron
Description: Particle size was 0-45um.Collected by JPL Original ASTER Spectral Library name was jpl.nicolet.mineral.borate.none.fine.b03a.spectrum.txt
Measurement: Hemispherical reflectance
X Units: Wavelength (micrometers)
Y Units: Reflectance (percent)
wavelength	value
15.3853	2.6727
15.1161	2.4888
14.8563	2.3355
14.6052	2.4806
14.3624	2.9519
14.1276	2.6391
13.9004	2.4648
13.6803	2.2395
13.4671	2.2638
13.2604	2.0261
13.06	2.4761
12.8656	3.2024
12.6769	3.8045
12.4936	4.2032
12.3155	4.5776
12.1425	4.0447
11.9742	3.8405
11.8106	3.8868
11.6513	4.5941
11.4963	3.6103
11.3454	2.7028
11.1983	1.8497
11.0551	2.3252
10.9154	2.5459
10.7793	2.8897
10.6465	2.9819
10.5169	3.2648
10.3904	3.0221
10.267	3.6377
10.1464	3.5143
10.0287	3.8089
9.9136	3.9607
9.8012	2.6864
9.6913	2.4561
9.5838	2.904
9.4787	3.4665
9.3758	3.7599
9.2752	3.3374
9.1767	3.0984
9.0803	2.9817
8.9858	2.6299
8.8934	2.2926
8.8028	1.9591
8.714	1.4799
8.627	1.2158
8.5417	1.2429
8.4581	1.5795
8.3761	1.5235
8.2957	1.6763
8.2169	1.9276
8.1395	1.4264
8.0635	0.962
7.989	1.2586
7.9158	1.5208
7.8439	1.8857
7.7734	1.9567
7.7041	2.2282
7.636	2.4038
7.5691	2.8353
7.5034	2.6475
7.4388	2.2388
7.3753	2.0893
7.3129	1.7717
7.2515	1.3643
7.1912	1.7376
7.1318	1.9248
7.0734	2.2568
7.016	2.5133
6.9595	2.5013
6.9039	1.275
6.8492	0.8276
6.7953	0.7111
6.7423	0.8686
6.6901	0.9466
6.6387	1.3322
6.5881	1.6939
6.5382	1.9541
6.4892	2.3176
6.4408	2.5201
6.3931	2.6069
6.3462	2.7035
6.2999	2.564
6.2543	2.4392
6.2094	1.9835
6.1651	1.6875
6.1214	1.563
6.0784	1.9268
6.0359	1.8504
5.994	1.5411
5.9527	2.0528
5.912	2.5745
5.8718	3.2073
5.8322	3.889
5.7931	4.9181
5.7545	6.0657
5.7165	6.9858
5.6789	7.5432
5.6418	8.0665
5.6052	8.2814
5.5691	8.5657
5.5334	8.6001
5.4982	8.5062
5.4635	8.56
5.4291	8.5017
5.3952	8.6904
5.3618	8.7362
5.3287	8.5496
5.2961	8.4605
5.2638	8.412
5.2319	8.7459
5.2004	9.032
5.1693	9.2839
5.1386	9.4492
5.1082	9.504
5.0782	9.2653
5.0485	9.1311
5.0192	9.173
4.9902	9.0653
4.9616	9.0866
4.9332	9.0387
4.9052	9.0929
4.8776	9.0835
4.8502	9.0514
4.8231	8.7888
4.7963	8.5569
4.7699	8.311
4.7437	7.9099
4.7178	7.8674
4.6922	7.8223
4.6668	7.8268
4.6418	7.7542
4.617	7.6168
4.5924	7.4222
4.5681	7.258
4.5441	7.2546
4.5203	7.1825
4.4968	7.2669
4.4735	7.3026
4.4505	7.3655
4.4277	7.4731
4.4051	7.4498
4.3828	7.4961
4.3607	7.5789
4.3388	7.6906
4.3171	7.5696
4.2956	7.6824
4.2744	7.404
4.2534	7.1849
4.2325	6.9584
4.2119	6.2443
4.1915	5.6314
4.1712	5.8391
4.1512	6.2496
4.1313	6.3678
4.1117	6.3654
4.0922	6.3564
4.0729	6.105
4.0538	5.9211
4.0349	5.7944
4.0161	5.5687
3.9976	5.6223
3.9792	5.6896
3.9609	5.728
3.9428	5.9461
3.9249	6.3445
3.9072	6.8287
3.8896	7.3674
3.8722	7.75
3.8549	7.6409
3.8378	7.5437
3.8208	7.5052
3.804	7.3338
3.7873	7.2808
3.7708	7.2676
3.7544	7.3047
3.7382	7.194
3.7221	7.4282
3.7061	7.7314
3.6903	7.6261
3.6746	7.8316
3.659	7.7931
3.6436	7.6698
3.6283	7.4231
3.6131	7.3745
3.5981	7.0246
3.5832	6.7932
3.5684	6.5622
3.5537	6.3737
3.5391	6.3001
3.5247	6.1949
3.5104	6.1352
3.4962	5.9909
3.4821	5.8261
3.4681	5.7265
3.4543	5.3543
3.4405	5.3981
3.4269	5.2157
3.4133	4.9552
3.3999	4.9591
3.3866	4.7564
3.3733	4.9986
3.3602	4.6498
3.3472	4.4543
3.3343	4.3719
3.3215	4.1749
3.3088	4.0441
3.2961	3.9439
3.2836	3.6718
3.2712	3.5669
3.2588	3.3097
3.2466	2.9881
3.2345	2.7896
3.2224	2.4986
3.2104	2.2109
3.1985	2.0135
3.1867	2.1015
3.175	1.7328
3.1634	1.8447
3.1519	1.7868
3.1404	1.8173
3.129	1.7861
3.1178	1.6803
3.1065	1.6982
3.0954	1.5778
3.0844	1.5195
3.0734	1.4295
3.0625	1.5101
3.0517	1.571
3.041	1.5541
3.0303	1.4941
3.0197	1.5358
3.0092	1.4711
2.9987	1.3045
2.9884	1.3953
2.9781	1.2209
2.9678	1.3219
2.9577	1.4819
2.9476	1.4381
2.9376	1.4502
2.9276	1.189
2.9177	1.2895
2.9079	1.1215
2.8982	0.8953
2.8885	0.913
2.8789	0.9242
2.8693	1.1996
2.8598	1.1439
2.8504	0.867
2.841	0.9529
2.8317	0.9523
2.8224	0.925
2.8133	1.1322
2.8041	1.3209
2.7951	1.4461
2.786	1.5735
2.7771	1.5324
2.7682	1.1923
2.7594	2.0843
2.7506	3.2668
2.7418	5.175
2.7332	7.2833
2.7246	9.9255
2.716	12.687
2.7075	15.8599
2.699	18.973
2.6906	21.79
2.6823	24.6183
2.674	26.9594
2.6657	29.2789
2.6575	30.4665
2.6494	31.9364
2.6413	33.2426
2.6332	34.6171
2.6252	35.9623
2.6173	37.1051
2.6094	37.4341
2.6015	37.5683
2.5937	38.1037
2.5859	37.9865
2.5782	38.8016
2.5706	38.9035
2.5629	39.1736
2.5554	38.4052
2.5478	37.8207
2.5403	37.4813
2.5329	37.1006
2.5255	36.9425
2.5181	36.9243
2.5108	36.4501
2.5035	35.8478
2.4963	35.6278
2.4891	35.3826
2.482	35.3121
2.4749	35.3824
2.4678	35.8897
2.4608	36.8169
2.4538	37.8827
2.4468	39.262
2.4399	40.365
2.4331	41.2432
2.4262	41.8545
2.4194	42.6656
2.4127	43.5017
2.4059	44.2018
2.3993	45.4352
2.3926	46.4941
2.386	47.754
2.3795	48.8409
2.3729	49.8791
2.3664	50.7485
2.36	51.9733
2.3535	52.7723
2.3471	53.6935
2.3408	54.2239
2.3345	54.7244
2.3282	55.0949
2.3219	55.3719
2.3157	55.4203
2.3095	56.0439
2.3034	56.4441
2.2972	56.6454
2.2911	56.672
2.2851	56.6481
2.279	56.6186
2.2731	56.2082
2.2671	55.8263
2.2612	55.0847
2.2553	53.9461
2.2494	52.7819
2.2435	52.317
2.2377	52.292
2.232	52.5369
2.2262	52.4432
2.2205	52.256
2.2148	51.4904
2.2091	50.8357
2.2035	50.2284
2.1979	49.0561
2.1923	48.1016
2.1868	46.5181
2.1812	45.4237
2.1758	44.9119
2.1703	44.6928
2.1649	44.919
2.1595	45.5002
2.1541	46.5576
2.1487	46.8803
2.1434	47.6854
2.1381	47.3003
2.1328	46.8009
2.1275	45.7358
2.1223	45.5304
2.1171	46.0431
2.112	47.1839
2.1068	47.838
2.1017	48.3985
2.0966	49.1375
2.0915	49.4769
2.0865	49.6756
2.0814	49.9121
2.0764	50.23
2.0715	50.3347
2.0665	50.7159
2.0616	50.8969
2.0567	50.9763
2.0518	51.3641
2.0469	51.4245
2.0421	51.0998
2.0373	51.2203
2.0325	51.2158
2.0277	51.2927
2.0229	50.8161
2.0182	50.8457
2.0135	50.4307
2.0088	49.563
2.0042	49.0533
