Name: Olivine (Fo66) (Fe+2,Mg)2SiO4
Type: Mineral
Class: Silicate
Subclass: Nesosilicate
Particle Size: Fine
Sample No.: olivine_7
Owner: JHU
Wavelength Range: TIR
Origin: Kiglapait Intrusion, Labrador via Trude King #KI3054(obtained from S.A. Morse, Univ. of Mass.)
Description: Initially, the specimen was contaminated with pyroxene, spinel and ilmenite.  Heavy liquid separation, followed by magnetic separation and hand picking, allowed olivines of different iron content to be obtained.  Sample ground to <60 micrometers and wet sieved.  Sample preparation by Trude King, USGS, Denver. Particle size was less than 2 Micrometer.(Isolated tetrahedra); (Olivine Group) Original ASTER Spectral Library name was jhu.nicolet.mineral.silicate.nesosilicate.powder.olivin7.spectrum.txt
Measurement: Transmission
X Units: Wavelength (micrometers)
Y Units: Transmittance (percent)
wavelength	value
25.0442	28.8124
24.3388	30.9374
23.6719	39.2421
23.0407	47.7343
22.4422	52.5389
21.8741	52.7596
21.334	51.8846
20.8199	42.7772
20.33	30.6933
19.8627	31.6523
19.4163	30.5976
18.9896	33.3212
18.5812	40.0409
18.19	54.9032
17.815	65.7821
17.4551	67.0233
17.1094	53.3797
16.7772	49.3104
16.4576	57.9969
16.15	71.825
15.8537	81.4666
15.568	85.8299
15.2925	88.6482
15.0265	90.2517
14.7697	90.7439
14.5214	91.0632
14.2814	91.3572
14.0492	91.4085
13.8244	90.5115
13.6067	89.885
13.3957	88.5349
13.1912	87.0886
12.9929	84.6951
12.8004	81.0804
12.6135	77.2127
12.432	72.2757
12.2557	64.8856
12.0843	50.244
11.9176	40.244
11.7555	38.8251
11.5977	26.6161
11.444	14.1372
11.2944	9.3281
11.1487	12.7861
11.0067	16.6572
10.8682	21.7597
10.7332	27.6913
10.6015	27.3412
10.473	36.8358
10.3476	23.9872
10.2251	22.7309
10.1056	24.3925
9.9887	30.2426
9.8746	40.4638
9.763	50.5638
9.6539	58.4124
9.5472	63.6815
9.4429	66.9808
9.3408	68.8675
9.2409	69.9197
9.1431	72.4617
9.0474	76.0867
8.9536	78.9866
8.8618	81.763
8.7718	83.6975
8.6837	85.1643
8.5973	86.2588
8.5126	87.407
8.4295	88.844
8.3481	90.4553
8.2682	91.8093
8.1898	92.823
8.1129	93.5432
8.0374	94.0439
7.9634	94.5271
7.8906	94.8057
7.8192	95.085
7.7491	95.4573
7.6802	95.782
7.6126	95.9255
7.5461	96.0754
7.4807	96.4607
7.4165	96.679
7.3534	96.7117
7.2914	96.7969
7.2303	96.749
7.1703	96.2361
7.1113	95.8293
7.0533	95.3936
6.9962	94.7087
6.94	94.2908
6.8847	94.3906
6.8302	94.7263
6.7767	95.0254
6.7239	95.488
6.672	95.9514
6.6209	96.5037
6.5705	96.8787
6.5209	97.1194
6.4721	97.1706
6.424	97.1765
6.3766	97.2434
6.3299	97.1135
6.2838	96.9512
6.2385	96.7764
6.1937	96.6814
6.1496	96.6592
6.1062	96.4346
6.0633	96.1436
6.0211	96.0186
5.9794	96.2761
5.9383	96.6736
5.8978	97.1619
5.8578	97.4783
5.8184	97.3965
5.7794	97.3855
5.741	97.2502
5.7031	97.0369
5.6657	96.9402
5.6288	96.9766
5.5924	97.0344
5.5564	97.0437
5.5209	96.9314
5.4859	96.9023
5.4513	96.9661
5.4171	96.9375
5.3833	96.9509
5.35	96.8831
5.3171	96.8936
5.2846	96.8503
5.2524	96.8874
5.2207	96.8457
5.1893	96.8191
5.1584	96.8181
5.1277	96.7412
5.0975	96.6484
5.0676	96.6016
5.038	96.5359
5.0088	96.5203
4.98	96.5146
4.9514	96.5107
4.9232	96.529
4.8953	96.5349
4.8678	96.4861
4.8405	96.4465
4.8135	96.364
4.7868	96.3293
4.7605	96.2849
4.7344	96.1682
4.7086	96.0706
4.6831	96.0393
4.6578	95.9216
4.6328	95.8635
4.6081	95.7371
4.5837	95.6272
4.5595	95.5759
4.5356	95.4729
4.5119	95.3855
4.4884	95.2913
4.4652	95.1594
4.4423	95.0867
4.4196	94.9963
4.3971	94.9143
4.3748	94.8123
4.3528	94.6985
4.331	94.6091
4.3094	94.5745
4.288	94.4827
4.2668	94.4431
4.2458	94.3455
4.2251	94.2468
4.2045	94.1648
4.1841	94.0769
4.164	93.9978
4.144	93.9216
4.1242	93.7932
4.1046	93.7419
4.0852	93.6521
4.066	93.5046
4.047	93.4197
4.0281	93.3474
4.0094	93.2009
3.9909	93.1052
3.9725	93.0789
3.9544	92.8777
3.9363	92.8084
3.9185	92.7498
3.9008	92.6365
3.8833	92.5339
3.8659	92.408
3.8487	92.3025
3.8316	92.2615
3.8147	92.1462
3.7979	92.0505
3.7813	91.8953
3.7648	91.7898
3.7485	91.6599
3.7323	91.6062
3.7162	91.428
3.7003	91.3504
3.6845	91.2507
3.6689	91.1096
3.6534	91.0271
3.638	90.8889
3.6227	90.7957
3.6076	90.6643
3.5926	90.5764
3.5777	90.4236
3.563	90.3591
3.5484	90.2048
3.5338	90.1453
3.5195	90.1736
3.5052	90.2966
3.491	90.0198
3.477	89.8132
3.463	89.6682
3.4492	89.658
3.4355	89.7029
3.4219	89.8616
3.4084	89.4783
3.395	89.1272
3.3817	88.8069
3.3685	88.5398
3.3554	88.2424
3.3425	88.0759
3.3296	87.9451
3.3168	87.8006
3.3041	87.6326
3.2915	87.5369
3.279	87.3709
3.2666	87.1956
3.2543	87.0818
3.2421	86.9275
3.23	86.6912
3.218	86.6077
3.206	86.4217
3.1942	86.2586
3.1824	86.072
3.1707	85.9754
3.1591	85.8435
3.1476	85.6492
3.1362	85.4754
3.1249	85.3015
3.1136	85.2605
3.1024	85.0994
3.0913	85.0017
3.0803	84.8836
3.0694	84.7556
3.0585	84.5857
3.0477	84.449
3.037	84.3972
3.0264	84.2937
3.0158	84.1687
3.0053	84.0428
2.9949	84.114
2.9845	84.114
2.9743	84.0242
2.9641	84.0877
2.9539	84.1775
2.9439	84.117
2.9339	84.0818
2.9239	84.0291
2.9141	83.9851
2.9043	83.9578
2.8946	83.9314
2.8849	83.9881
2.8753	83.8553
2.8658	83.7771
2.8563	83.8904
2.8469	83.9295
2.8375	83.8279
2.8282	83.8006
2.819	83.825
2.8098	83.7937
2.8007	83.8289
2.7917	83.8709
2.7827	83.9226
2.7738	84.0476
2.7649	84.0135
2.7561	83.9373
2.7473	84.2693
2.7386	84.2693
2.7299	84.4695
2.7213	84.4461
2.7128	84.5672
2.7043	84.3015
2.6959	84.3435
2.6875	84.3054
2.6791	84.2693
2.6709	84.117
2.6626	84.1092
2.6545	84.0398
2.6463	83.9187
2.6382	83.8592
2.6302	83.7693
2.6222	83.8201
2.6143	83.5662
2.6064	83.4295
2.5986	83.408
2.5908	83.3533
2.583	83.2752
2.5753	83.2263
2.5677	83.1326
2.5601	83.0584
2.5525	83.0193
2.545	82.9646
2.5375	82.8318
2.5301	82.8084
2.5227	82.6697
2.5154	82.7459
2.5081	82.6326
2.5008	82.6443
2.4936	82.5076
2.4864	82.4236
2.4793	82.1971
2.4722	82.2596
2.4651	82.2146
2.4581	81.9764
2.4511	81.9158
2.4442	81.9451
2.4373	81.9783
2.4305	81.7576
2.4236	81.6111
2.4169	81.7049
2.4101	81.6795
2.4034	81.5076
2.3967	81.4803
2.3901	81.156
2.3835	81.158
2.377	81.283
2.3704	81.2967
2.364	81.0701
2.3575	80.992
2.3511	81.0564
2.3447	80.8767
2.3384	80.6717
2.3321	80.6873
2.3258	80.5955
2.3195	80.6404
2.3133	80.6736
2.3071	80.4705
2.301	80.4607
2.2949	80.2205
2.2888	80.2596
2.2828	80.1111
2.2767	80.0857
2.2708	79.9139
2.2648	79.785
2.2589	79.9295
2.253	79.5779
2.2471	79.5779
2.2413	79.5467
2.2355	79.6365
2.2297	79.3514
2.224	79.1912
2.2183	79.3279
2.2126	79.2342
2.207	78.9607
2.2013	78.9139
2.1957	78.785
2.1902	78.9529
2.1846	78.7576
2.1791	78.4529
2.1736	78.199
2.1682	78.4685
2.1628	78.492
2.1574	77.8123
2.152	78.0506
2.1466	77.7889
2.1413	77.9178
2.136	77.7186
2.1308	77.492
2.1255	77.4568
2.1203	77.617
2.1151	77.4217
2.11	77.2576
2.1048	77.2225
2.0997	76.9256
2.0946	77.0037
2.0895	76.8787
2.0845	76.7811
2.0795	76.6326
