Name: Quartz SiO_2
Type: Mineral
Class: Silicate
Subclass: Tectosilicate
Particle Size: Medium
Sample No.: TS-1A
Owner: JPL
Wavelength Range: TIR
Origin: USA, Arkansas, Montgomery County, Mount Ida
Description: Rock crystal. Particle size was 45-125um.Collected by Burminco Original ASTER Spectral Library name was jpl.nicolet.mineral.silicate.tectosilicate.medium.ts01a.spectrum.txt
Measurement: Hemispherical reflectance
X Units: Wavelength (micrometers)
Y Units: Reflectance (percent)
wavelength	value
15.3853	7.7317
15.1161	6.6518
14.8563	6.0714
14.6052	4.6091
14.3624	3.9947
14.1276	4.1236
13.9004	5.2901
13.6803	6.1617
13.4671	5.6857
13.2604	6.0786
13.06	6.7893
12.8656	11.4076
12.6769	8.9844
12.4936	11.2778
12.3155	1.1428
12.1425	2.0111
11.9742	3.4796
11.8106	4.4885
11.6513	5.491
11.4963	5.7697
11.3454	6.3242
11.1983	6.561
11.0551	6.9448
10.9154	7.2281
10.7793	7.2706
10.6465	7.2836
10.5169	7.4145
10.3904	7.7408
10.267	8.1293
10.1464	8.487
10.0287	9.268
9.9136	10.0221
9.8012	11.6042
9.6913	13.3848
9.5838	16.3348
9.4787	21.9712
9.3758	36.8223
9.2752	51.3771
9.1767	54.3828
9.0803	55.5179
8.9858	55.5746
8.8934	54.6369
8.8028	51.5775
8.714	46.8316
8.627	29.875
8.5417	47.8281
8.4581	49.132
8.3761	47.7705
8.2957	46.3218
8.2169	44.5855
8.1395	35.7454
8.0635	22.7021
7.989	14.2945
7.9158	8.0757
7.8439	4.5036
7.7734	2.8072
7.7041	1.6679
7.636	0.7423
7.5691	0.3416
7.5034	0.1015
7.4388	0.0415
7.3753	0.0669
7.3129	0.1514
7.2515	0.1778
7.1912	0.2481
7.1318	0.3467
7.0734	0.5552
7.016	0.8101
6.9595	1.0936
6.9039	1.3602
6.8492	1.3849
6.7953	1.3289
6.7423	1.1878
6.6901	1.1667
6.6387	1.4978
6.5881	1.4486
6.5382	1.4506
6.4892	2.6367
6.4408	3.8631
6.3931	3.5484
6.3462	2.5011
6.2999	1.8324
6.2543	1.454
6.2094	1.1612
6.1651	1.5047
6.1214	2.4545
6.0784	3.5477
6.0359	3.7683
5.994	3.2119
5.9527	2.491
5.912	2.5333
5.8718	3.7821
5.8322	5.2876
5.7931	6.7777
5.7545	8.2508
5.7165	9.1469
5.6789	7.8014
5.6418	4.3568
5.6052	3.1433
5.5691	2.9494
5.5334	3.4671
5.4982	4.5989
5.4635	5.7622
5.4291	5.0011
5.3952	2.6449
5.3618	1.8659
5.3287	1.7894
5.2961	1.9982
5.2638	2.4157
5.2319	3.8751
5.2004	5.6422
5.1693	5.5016
5.1386	5.183
5.1082	5.1888
5.0782	4.2592
5.0485	3.9687
5.0192	3.8133
4.9902	4.1107
4.9616	5.9592
4.9332	7.7279
4.9052	11.9051
4.8776	21.2267
4.8502	28.3489
4.8231	33.2221
4.7963	37.1342
4.7699	40.0635
4.7437	42.2911
4.7178	42.7418
4.6922	37.871
4.6668	38.9729
4.6418	45.2342
4.617	49.98
4.5924	51.7807
4.5681	51.5492
4.5441	47.9893
4.5203	40.9717
4.4968	33.4569
4.4735	31.1448
4.4505	32.8985
4.4277	35.0838
4.4051	38.3494
4.3828	42.8337
4.3607	47.7244
4.3388	51.0179
4.3171	51.724
4.2956	50.8009
4.2744	52.0398
4.2534	53.8045
4.2325	53.0647
4.2119	53.4413
4.1915	53.572
4.1712	55.3218
4.1512	56.6776
4.1313	58.1651
4.1117	60.0685
4.0922	62.0731
4.0729	63.6006
4.0538	64.096
4.0349	63.7474
4.0161	63.4456
3.9976	63.6951
3.9792	64.564
3.9609	66.0049
3.9428	67.348
3.9249	68.1299
3.9072	68.0819
3.8896	67.2095
3.8722	66.2622
3.8549	65.6785
3.8378	65.8786
3.8208	66.7142
3.804	67.1424
3.7873	66.9053
3.7708	66.1112
3.7544	65.2471
3.7382	65.1433
3.7221	65.8534
3.7061	67.4084
3.6903	69.4847
3.6746	71.4635
3.659	72.8854
3.6436	73.7047
3.6283	73.8849
3.6131	74.161
3.5981	74.4202
3.5832	74.9565
3.5684	75.7296
3.5537	76.5564
3.5391	77.4128
3.5247	78.26
3.5104	78.5498
3.4962	78.6435
3.4821	79.6542
3.4681	80.0813
3.4543	80.2614
3.4405	80.1154
3.4269	79.4576
3.4133	78.7118
3.3999	79.3489
3.3866	79.7597
3.3733	79.452
3.3602	80.5439
3.3472	81.027
3.3343	81.1911
3.3215	81.2704
3.3088	80.9093
3.2961	80.6948
3.2836	80.4876
3.2712	80.3395
3.2588	80.2446
3.2466	80.1279
3.2345	80.0503
3.2224	79.8315
3.2104	79.6882
3.1985	79.4588
3.1867	79.0109
3.175	78.832
3.1634	78.4347
3.1519	77.9595
3.1404	76.7097
3.129	75.8866
3.1178	75.9959
3.1065	76.3701
3.0954	76.5856
3.0844	76.3737
3.0734	75.9118
3.0625	75.3072
3.0517	74.2244
3.041	72.8841
3.0303	71.7092
3.0197	71.1504
3.0092	71.4736
2.9987	72.5161
2.9884	72.594
2.9781	71.374
2.9678	66.5576
2.9577	63.6425
2.9476	67.9136
2.9376	69.7446
2.9276	70.6756
2.9177	70.2372
2.9079	71.0739
2.8982	73.016
2.8885	74.5562
2.8789	74.5768
2.8693	73.3497
2.8598	76.0124
2.8504	76.2595
2.841	76.8546
2.8317	77.9748
2.8224	78.4353
2.8133	78.8854
2.8041	79.4805
2.7951	79.5838
2.786	79.9959
2.7771	80.1921
2.7682	81.0483
2.7594	80.877
2.7506	81.7544
2.7418	82.8661
2.7332	83.3513
2.7246	84.9197
2.716	85.5697
2.7075	85.9153
2.699	86.6056
2.6906	87.4982
2.6823	88.0277
2.674	88.488
2.6657	89.4467
2.6575	88.8502
2.6494	88.8775
2.6413	88.9376
2.6332	89.168
2.6252	89.0507
2.6173	89.5346
2.6094	89.17
2.6015	89.128
2.5937	89.6832
2.5859	89.2452
2.5782	88.9895
2.5706	89.1733
2.5629	89.3385
2.5554	88.9683
2.5478	89.2279
2.5403	89.038
2.5329	89.2808
2.5255	89.328
2.5181	89.278
2.5108	89.2241
2.5035	89.211
2.4963	89.1359
2.4891	89.3401
2.482	89.3877
2.4749	89.3356
2.4678	89.3617
2.4608	89.3844
2.4538	89.4998
2.4468	89.5338
2.4399	89.5375
2.4331	89.5329
2.4262	89.6759
2.4194	89.706
2.4127	89.6289
2.4059	89.6835
2.3993	89.6394
2.3926	89.8381
2.386	89.5872
2.3795	89.825
2.3729	89.7792
2.3664	89.7955
2.36	89.9065
2.3535	89.742
2.3471	89.802
2.3408	89.8804
2.3345	89.9426
2.3282	89.9129
2.3219	89.8878
2.3157	89.9463
2.3095	89.7762
2.3034	89.9001
2.2972	89.8171
2.2911	89.952
2.2851	89.9206
2.279	90.051
2.2731	89.9293
2.2671	89.8346
2.2612	90.1899
2.2553	90.0005
2.2494	89.8444
2.2435	89.8096
2.2377	89.825
2.232	89.9945
2.2262	89.7138
2.2205	89.8587
2.2148	89.7686
2.2091	89.7542
2.2035	89.7835
2.1979	89.7331
2.1923	89.7053
2.1868	89.9587
2.1812	89.6488
2.1758	89.9326
2.1703	89.8682
2.1649	89.8196
2.1595	89.9144
2.1541	89.9507
2.1487	89.9081
2.1434	90.0455
2.1381	90.042
2.1328	90.2432
2.1275	89.9944
2.1223	90.0999
2.1171	90.0435
2.112	89.8865
2.1068	90.0622
2.1017	90.134
2.0966	89.9575
2.0915	90.0939
2.0865	89.9651
2.0814	90.0831
2.0764	90.1593
2.0715	90.209
2.0665	90.1034
2.0616	90.1075
2.0567	89.9231
2.0518	90.2338
2.0469	89.9548
2.0421	89.9921
2.0373	90.2437
2.0325	90.0797
2.0277	89.8002
2.0229	90.095
2.0182	90.1558
2.0135	89.7327
2.0088	89.8894
2.0042	90.0806
