Name: Anatase TiO_2
Type: Mineral
Class: Oxide
Subclass: None
Particle Size: Fine
Sample No.: O-12A
Owner: JPL
Wavelength Range: TIR
Origin: N/A
Description: Synthetic anatase.Particle size was 0-45um.Collected by JPL Original ASTER Spectral Library name was jpl.nicolet.mineral.oxide.none.fine.o12a.spectrum.txt
Measurement: Hemispherical reflectance
X Units: Wavelength (micrometers)
Y Units: Reflectance (percent)
wavelength	value
15.3853	0.4366
15.1161	0.7051
14.8563	0.795
14.6052	0.2831
14.3624	0.3406
14.1276	0.6103
13.9004	0.6419
13.6803	0.5109
13.4671	0.7364
13.2604	0.6626
13.06	0.6266
12.8656	0.4256
12.6769	0.4299
12.4936	0.5676
12.3155	0.4726
12.1425	0.5171
11.9742	0.3761
11.8106	0.3449
11.6513	0.2217
11.4963	0.0571
11.3454	0.1117
11.1983	0.0104
11.0551	0.0999
10.9154	0.1488
10.7793	0.0511
10.6465	0.0963
10.5169	0.033
10.3904	0
10.267	0.1795
10.1464	0
10.0287	0.2413
9.9136	0.0126
9.8012	0.1248
9.6913	0.0926
9.5838	0.193
9.4787	0.2973
9.3758	0.3116
9.2752	0.5218
9.1767	0.4517
9.0803	0.4641
8.9858	0.765
8.8934	0.5305
8.8028	0.6967
8.714	0.999
8.627	0.9086
8.5417	1.1287
8.4581	1.4413
8.3761	1.8174
8.2957	2.1264
8.2169	2.7588
8.1395	3.294
8.0635	4.0607
7.989	4.8123
7.9158	5.3933
7.8439	6.2393
7.7734	6.9892
7.7041	7.8639
7.636	8.6655
7.5691	9.6237
7.5034	10.2257
7.4388	10.8511
7.3753	11.3932
7.3129	12.25
7.2515	13.3068
7.1912	14.0658
7.1318	15.1005
7.0734	15.633
7.016	16.1958
6.9595	17.0707
6.9039	17.6024
6.8492	18.0884
6.7953	19.1303
6.7423	20.5494
6.6901	21.9152
6.6387	23.6025
6.5881	24.093
6.5382	24.498
6.4892	25.1945
6.4408	24.491
6.3931	24.1102
6.3462	24.016
6.2999	22.9936
6.2543	22.4516
6.2094	21.5669
6.1651	20.7964
6.1214	20.1765
6.0784	20.6519
6.0359	21.9273
5.994	23.9876
5.9527	26.2972
5.912	28.6321
5.8718	31.2849
5.8322	33.5726
5.7931	35.0672
5.7545	37.0104
5.7165	38.3717
5.6789	39.2384
5.6418	40.2632
5.6052	40.4644
5.5691	41.015
5.5334	41.4496
5.4982	41.9379
5.4635	42.5275
5.4291	42.8299
5.3952	43.0404
5.3618	43.3343
5.3287	43.5522
5.2961	44.0344
5.2638	44.1896
5.2319	44.5348
5.2004	44.793
5.1693	44.9728
5.1386	45.1852
5.1082	45.3839
5.0782	45.5714
5.0485	45.7181
5.0192	45.8894
4.9902	45.9925
4.9616	46.1937
4.9332	46.3481
4.9052	46.3836
4.8776	46.6214
4.8502	46.8851
4.8231	46.9532
4.7963	47.2125
4.7699	47.4558
4.7437	47.7756
4.7178	48.0543
4.6922	48.3503
4.6668	48.7679
4.6418	49.0203
4.617	49.2991
4.5924	49.5639
4.5681	49.7234
4.5441	50.0397
4.5203	50.1462
4.4968	50.488
4.4735	50.5771
4.4505	50.7241
4.4277	50.8599
4.4051	51.0496
4.3828	51.2289
4.3607	51.2522
4.3388	51.3664
4.3171	51.4633
4.2956	51.6118
4.2744	51.6482
4.2534	51.6936
4.2325	51.841
4.2119	51.7765
4.1915	51.7233
4.1712	51.7562
4.1512	51.757
4.1313	51.7565
4.1117	51.8815
4.0922	51.929
4.0729	51.8576
4.0538	51.9263
4.0349	51.9905
4.0161	51.9579
3.9976	51.9917
3.9792	51.9794
3.9609	51.8891
3.9428	51.8916
3.9249	51.7869
3.9072	51.6524
3.8896	51.6084
3.8722	51.4677
3.8549	51.2577
3.8378	51.0694
3.8208	50.8035
3.804	50.5837
3.7873	50.1529
3.7708	49.9514
3.7544	49.533
3.7382	49.2575
3.7221	48.8396
3.7061	48.4033
3.6903	47.9682
3.6746	47.5597
3.659	47.0924
3.6436	46.623
3.6283	46.2047
3.6131	45.8565
3.5981	45.3002
3.5832	44.8752
3.5684	44.4571
3.5537	43.9296
3.5391	43.371
3.5247	43.1681
3.5104	42.5431
3.4962	42.0479
3.4821	41.6818
3.4681	41.1581
3.4543	40.7474
3.4405	40.3721
3.4269	39.9728
3.4133	39.5255
3.3999	39.0423
3.3866	38.557
3.3733	38.2198
3.3602	37.746
3.3472	37.2938
3.3343	36.9651
3.3215	36.6249
3.3088	36.2862
3.2961	35.779
3.2836	35.5726
3.2712	35.2047
3.2588	34.8158
3.2466	34.517
3.2345	34.1159
3.2224	33.8557
3.2104	33.7519
3.1985	33.3445
3.1867	33.0912
3.175	32.8045
3.1634	32.6297
3.1519	32.4483
3.1404	32.2323
3.129	31.9239
3.1178	31.8758
3.1065	31.5526
3.0954	31.5312
3.0844	31.2991
3.0734	31.2498
3.0625	31.1981
3.0517	31.162
3.041	30.7219
3.0303	30.8484
3.0197	30.6698
3.0092	30.5137
2.9987	30.5371
2.9884	30.6194
2.9781	30.4088
2.9678	30.4286
2.9577	30.4257
2.9476	30.5642
2.9376	30.5561
2.9276	30.6705
2.9177	30.9522
2.9079	31.2541
2.8982	31.5449
2.8885	32.0447
2.8789	32.4986
2.8693	33.096
2.8598	33.6423
2.8504	34.359
2.841	35.042
2.8317	35.8752
2.8224	36.7238
2.8133	38.0982
2.8041	39.4362
2.7951	40.5058
2.786	42.279
2.7771	44.0662
2.7682	46.1074
2.7594	48.1586
2.7506	50.5514
2.7418	53.3159
2.7332	54.9393
2.7246	56.5463
2.716	55.6212
2.7075	55.1691
2.699	58.3727
2.6906	64.5692
2.6823	67.8694
2.674	70.0515
2.6657	73.9212
2.6575	76.4158
2.6494	78.6567
2.6413	79.9858
2.6332	80.7846
2.6252	81.344
2.6173	82.2207
2.6094	82.1839
2.6015	82.4885
2.5937	83.4138
2.5859	82.8572
2.5782	83.0509
2.5706	83.2782
2.5629	83.5798
2.5554	83.2388
2.5478	83.5006
2.5403	83.6348
2.5329	83.7974
2.5255	83.7386
2.5181	83.9439
2.5108	84.2712
2.5035	84.2453
2.4963	84.517
2.4891	84.5103
2.482	84.7659
2.4749	85.0001
2.4678	85.1221
2.4608	85.2737
2.4538	85.4259
2.4468	85.7047
2.4399	85.8327
2.4331	85.8637
2.4262	86.1664
2.4194	86.2844
2.4127	86.5233
2.4059	86.6001
2.3993	86.9409
2.3926	87.016
2.386	87.1198
2.3795	87.3367
2.3729	87.4717
2.3664	87.6039
2.36	87.8244
2.3535	87.7251
2.3471	88.0437
2.3408	88.0398
2.3345	88.2211
2.3282	88.2801
2.3219	88.3975
2.3157	88.655
2.3095	88.6436
2.3034	88.6344
2.2972	88.7678
2.2911	89.0641
2.2851	89.0107
2.279	89.1932
2.2731	89.1841
2.2671	89.2902
2.2612	89.4116
2.2553	89.3486
2.2494	89.5171
2.2435	89.4244
2.2377	89.4784
2.232	89.5524
2.2262	89.8291
2.2205	89.7872
2.2148	89.6558
2.2091	89.8861
2.2035	89.9206
2.1979	89.9223
2.1923	89.9604
2.1868	90.2146
2.1812	90.2279
2.1758	90.2841
2.1703	90.5997
2.1649	90.4134
2.1595	90.4672
2.1541	90.5934
2.1487	90.7161
2.1434	90.6067
2.1381	90.7935
2.1328	90.7327
2.1275	90.8448
2.1223	90.9011
2.1171	91.2206
2.112	91.4389
2.1068	91.1384
2.1017	91.2362
2.0966	90.9907
2.0915	91.4122
2.0865	91.463
2.0814	90.943
2.0764	91.0837
2.0715	91.0392
2.0665	91.3498
2.0616	91.4439
2.0567	91.2005
2.0518	91.362
2.0469	91.2697
2.0421	90.9999
2.0373	91.2581
2.0325	91.2038
2.0277	91.319
2.0229	91.0547
2.0182	91.0194
2.0135	91.2617
2.0088	91.0952
2.0042	91.0115
