Name: Illite (K,H_3O)(Al,Mg,Fe)_2(Si,Al)_4O_10((OH)_2,H_2O)
Type: Mineral
Class: Silicate
Subclass: Phyllosilicate
Particle Size: Fine
Sample No.: PS-11A
Owner: JPL
Wavelength Range: TIR
Origin: USA, Wisconsin, Marblehead
Description: Particle size was 0-45um.Collected by JPL Original ASTER Spectral Library name was jpl.nicolet.mineral.silicate.phyllosilicate.fine.ps11a.spectrum.txt
Measurement: Hemispherical reflectance
X Units: Wavelength (micrometers)
Y Units: Reflectance (percent)
wavelength	value
15.3853	0.8968
15.1161	0.8915
14.8563	1.0357
14.6052	1.226
14.3624	0.9412
14.1276	1.3171
13.9004	1.2937
13.6803	1.5677
13.4671	1.6619
13.2604	1.4735
13.06	1.9399
12.8656	2.1824
12.6769	2.4373
12.4936	2.9571
12.3155	2.9163
12.1425	2.6965
11.9742	2.2975
11.8106	2.7835
11.6513	3.5422
11.4963	3.9744
11.3454	4.1085
11.1983	3.5763
11.0551	2.6313
10.9154	1.9396
10.7793	2.0913
10.6465	2.5149
10.5169	2.5775
10.3904	2.1002
10.267	1.9731
10.1464	2.0339
10.0287	2.2253
9.9136	2.1842
9.8012	2.4728
9.6913	2.9033
9.5838	3.5041
9.4787	3.891
9.3758	3.1448
9.2752	2.1695
9.1767	1.8867
9.0803	1.9749
8.9858	1.9078
8.8934	1.8931
8.8028	1.946
8.714	1.8334
8.627	1.7322
8.5417	1.7619
8.4581	1.5182
8.3761	1.5133
8.2957	1.1176
8.2169	1.1116
8.1395	0.8126
8.0635	1.149
7.989	1.3184
7.9158	1.693
7.8439	2.2628
7.7734	2.5729
7.7041	3.0839
7.636	3.5847
7.5691	4.2386
7.5034	4.7207
7.4388	5.2955
7.3753	5.7946
7.3129	6.2719
7.2515	6.7151
7.1912	7.0456
7.1318	7.2413
7.0734	7.5474
7.016	7.9764
6.9595	8.5115
6.9039	9.6312
6.8492	10.6667
6.7953	11.6528
6.7423	13.0965
6.6901	13.741
6.6387	14.196
6.5881	15.1488
6.5382	15.6569
6.4892	15.4481
6.4408	15.5794
6.3931	15.1933
6.3462	14.42
6.2999	13.6085
6.2543	12.262
6.2094	10.1582
6.1651	7.0793
6.1214	5.8678
6.0784	6.1078
6.0359	7.0801
5.994	8.2098
5.9527	9.981
5.912	11.9369
5.8718	14.1185
5.8322	16.2244
5.7931	18.1297
5.7545	19.2388
5.7165	19.7766
5.6789	20.3817
5.6418	20.4052
5.6052	20.8959
5.5691	20.8748
5.5334	21.0909
5.4982	21.4992
5.4635	22.2586
5.4291	23.5194
5.3952	24.8584
5.3618	26.1907
5.3287	27.1711
5.2961	28.3527
5.2638	29.6013
5.2319	30.9743
5.2004	32.2913
5.1693	33.9985
5.1386	35.4893
5.1082	37.0708
5.0782	38.0614
5.0485	39.179
5.0192	40.0246
4.9902	40.7689
4.9616	41.2154
4.9332	41.5866
4.9052	41.9893
4.8776	42.2519
4.8502	42.7663
4.8231	43.1196
4.7963	43.5824
4.7699	44.0855
4.7437	44.7118
4.7178	45.383
4.6922	45.9006
4.6668	46.6232
4.6418	47.2201
4.617	47.9442
4.5924	48.8476
4.5681	49.5115
4.5441	50.2056
4.5203	50.8357
4.4968	51.3858
4.4735	51.9606
4.4505	52.4805
4.4277	53.1171
4.4051	53.6485
4.3828	54.2642
4.3607	54.6659
4.3388	55.1359
4.3171	55.4296
4.2956	55.7014
4.2744	55.7212
4.2534	56.3557
4.2325	56.8558
4.2119	57.5064
4.1915	58.1433
4.1712	58.5168
4.1512	59.0694
4.1313	59.605
4.1117	60.1059
4.0922	60.5929
4.0729	60.8773
4.0538	61.3118
4.0349	61.6673
4.0161	61.8957
3.9976	61.6564
3.9792	61.3162
3.9609	60.9355
3.9428	61.2067
3.9249	61.6584
3.9072	62.1555
3.8896	62.5441
3.8722	62.5489
3.8549	62.7883
3.8378	62.8902
3.8208	62.7458
3.804	62.1437
3.7873	62.1463
3.7708	62.044
3.7544	61.6569
3.7382	61.2314
3.7221	60.8008
3.7061	60.3575
3.6903	59.8292
3.6746	59.2601
3.659	58.703
3.6436	58.0307
3.6283	57.3237
3.6131	56.5716
3.5981	55.611
3.5832	54.6796
3.5684	53.5866
3.5537	52.4997
3.5391	51.4555
3.5247	50.326
3.5104	48.7242
3.4962	47.9159
3.4821	47.0293
3.4681	46.2127
3.4543	44.9687
3.4405	43.675
3.4269	42.0538
3.4133	40.6415
3.3999	39.9465
3.3866	38.887
3.3733	37.7741
3.3602	36.6972
3.3472	35.557
3.3343	34.5934
3.3215	33.3308
3.3088	32.0747
3.2961	30.8109
3.2836	29.6998
3.2712	28.4816
3.2588	27.3323
3.2466	26.2296
3.2345	25.0172
3.2224	23.8854
3.2104	22.643
3.1985	21.4089
3.1867	20.2517
3.175	19.0533
3.1634	17.9762
3.1519	17.0248
3.1404	16.1556
3.129	15.1974
3.1178	14.3785
3.1065	13.7888
3.0954	13.1853
3.0844	12.9
3.0734	12.5266
3.0625	12.2802
3.0517	12.1737
3.041	11.8655
3.0303	11.5196
3.0197	11.5003
3.0092	11.0555
2.9987	10.8415
2.9884	10.3686
2.9781	10.1852
2.9678	10.0004
2.9577	9.8492
2.9476	9.6894
2.9376	9.6442
2.9276	9.6636
2.9177	9.6351
2.9079	10.0093
2.8982	9.9488
2.8885	10.4334
2.8789	10.6595
2.8693	11.0174
2.8598	11.05
2.8504	11.3449
2.841	11.5296
2.8317	11.2356
2.8224	10.7623
2.8133	9.5139
2.8041	8.3442
2.7951	6.5888
2.786	5.0785
2.7771	3.4779
2.7682	2.5594
2.7594	2.8216
2.7506	3.1652
2.7418	4.1128
2.7332	6.2777
2.7246	10.4658
2.716	17.8715
2.7075	26.6065
2.699	35.0888
2.6906	43.7208
2.6823	50.9803
2.674	55.1378
2.6657	57.3069
2.6575	60.564
2.6494	62.2272
2.6413	62.9803
2.6332	63.3658
2.6252	63.7943
2.6173	63.3953
2.6094	64.1383
2.6015	64.6905
2.5937	64.0668
2.5859	65.4856
2.5782	66.2552
2.5706	66.4916
2.5629	66.351
2.5554	67.2262
2.5478	67.2482
2.5403	67.5831
2.5329	67.782
2.5255	67.8041
2.5181	68.0468
2.5108	68.3545
2.5035	68.2723
2.4963	68.3059
2.4891	68.499
2.482	68.6289
2.4749	68.5796
2.4678	68.525
2.4608	68.5699
2.4538	68.4018
2.4468	68.5454
2.4399	68.4519
2.4331	68.9108
2.4262	69.6477
2.4194	70.4401
2.4127	71.1147
2.4059	71.5622
2.3993	71.9426
2.3926	72.181
2.386	72.4533
2.3795	72.3767
2.3729	72.4353
2.3664	72.2767
2.36	71.808
2.3535	71.2362
2.3471	71.0095
2.3408	70.9935
2.3345	71.7409
2.3282	72.8349
2.3219	73.7794
2.3157	74.8178
2.3095	76.4015
2.3034	77.2651
2.2972	77.9212
2.2911	78.3123
2.2851	78.4461
2.279	78.3326
2.2731	77.8732
2.2671	77.3174
2.2612	75.933
2.2553	74.2192
2.2494	74.0195
2.2435	73.3711
2.2377	72.8461
2.232	71.8314
2.2262	70.8181
2.2205	70.8601
2.2148	71.2841
2.2091	71.9931
2.2035	73.0272
2.1979	74.4444
2.1923	75.7674
2.1868	76.9844
2.1812	77.8372
2.1758	78.847
2.1703	79.4788
2.1649	80.0335
2.1595	80.5563
2.1541	80.7952
2.1487	81.165
2.1434	80.5985
2.1381	80.747
2.1328	80.6516
2.1275	81.0633
2.1223	80.9036
2.1171	80.8105
2.112	80.8079
2.1068	81.0523
2.1017	81.3895
2.0966	81.151
2.0915	81.1483
2.0865	81.3151
2.0814	81.43
2.0764	81.2495
2.0715	81.291
2.0665	81.1177
2.0616	81.6632
2.0567	81.7215
2.0518	81.3052
2.0469	81.3576
2.0421	81.0141
2.0373	81.1138
2.0325	81.0321
2.0277	80.9105
2.0229	80.635
2.0182	80.3419
2.0135	80.3577
2.0088	80.1062
2.0042	80.0237
