Name: Nontronite Na_0.33Fe_2^3+(Si,Al)_4O_10(OH)_2.H_2O
Type: Mineral
Class: Silicate
Subclass: Phyllosilicate
Particle Size: Medium
Sample No.: PS-6B
Owner: JPL
Wavelength Range: TIR
Origin: Germany, Westphalia, Hohen Hagen
Description: Particle size was 45-125um.Collected by Clay Mineral Society Original ASTER Spectral Library name was jpl.nicolet.mineral.silicate.phyllosilicate.medium.ps06b.spectrum.txt
Measurement: Hemispherical reflectance
X Units: Wavelength (micrometers)
Y Units: Reflectance (percent)
wavelength	value
15.3853	1.9229
15.1161	2.2549
14.8563	2.3554
14.6052	1.8608
14.3624	1.5626
14.1276	1.9313
13.9004	1.9767
13.6803	2.2235
13.4671	2.358
13.2604	2.6945
13.06	2.8376
12.8656	3.5784
12.6769	2.7712
12.4936	3.0685
12.3155	1.445
12.1425	1.6329
11.9742	1.9621
11.8106	2.2082
11.6513	2.4296
11.4963	2.374
11.3454	2.6215
11.1983	2.985
11.0551	2.9748
10.9154	3.1827
10.7793	3.5359
10.6465	3.8638
10.5169	4.1488
10.3904	4.7507
10.267	5.0694
10.1464	5.8138
10.0287	6.775
9.9136	7.4678
9.8012	8.3824
9.6913	9.3693
9.5838	10.0015
9.4787	10.5368
9.3758	12.0016
9.2752	12.5852
9.1767	12.0994
9.0803	11.6302
8.9858	11.123
8.8934	10.8159
8.8028	9.8109
8.714	8.6913
8.627	6.9114
8.5417	8.4908
8.4581	8.8817
8.3761	9.0847
8.2957	9.0445
8.2169	9.1262
8.1395	8.6187
8.0635	6.6994
7.989	4.647
7.9158	3.2244
7.8439	2.1571
7.7734	1.8422
7.7041	1.5641
7.636	1.3831
7.5691	1.2705
7.5034	1.2978
7.4388	1.2366
7.3753	1.3661
7.3129	1.3158
7.2515	1.5274
7.1912	1.5805
7.1318	1.6031
7.0734	1.8449
7.016	1.793
6.9595	1.947
6.9039	2.0674
6.8492	1.9278
6.7953	1.8954
6.7423	1.9403
6.6901	1.8637
6.6387	1.7865
6.5881	1.838
6.5382	1.8063
6.4892	2.3141
6.4408	2.5707
6.3931	2.1777
6.3462	1.8308
6.2999	1.3467
6.2543	1.152
6.2094	1.0821
6.1651	1.1028
6.1214	1.1028
6.0784	1.2408
6.0359	1.3444
5.994	1.301
5.9527	1.0803
5.912	1.3283
5.8718	1.8182
5.8322	2.4829
5.7931	3.2527
5.7545	3.9286
5.7165	4.4171
5.6789	4.0917
5.6418	3.0585
5.6052	2.6951
5.5691	2.482
5.5334	2.8613
5.4982	3.3523
5.4635	3.8944
5.4291	3.6402
5.3952	2.9929
5.3618	2.6278
5.3287	2.7596
5.2961	2.9336
5.2638	3.1065
5.2319	3.8841
5.2004	4.4865
5.1693	4.6194
5.1386	4.5676
5.1082	4.62
5.0782	4.361
5.0485	4.1052
5.0192	4.1994
4.9902	4.3452
4.9616	5.0693
4.9332	5.8559
4.9052	7.5267
4.8776	10.5186
4.8502	12.2442
4.8231	13.348
4.7963	14.1979
4.7699	14.7453
4.7437	15.166
4.7178	15.4727
4.6922	14.9485
4.6668	15.3858
4.6418	16.3543
4.617	17.1329
4.5924	17.5158
4.5681	17.6888
4.5441	17.4547
4.5203	16.5963
4.4968	15.3978
4.4735	14.9366
4.4505	15.4009
4.4277	16.0588
4.4051	16.9326
4.3828	17.8268
4.3607	18.7417
4.3388	19.4234
4.3171	19.7456
4.2956	19.7501
4.2744	20.0085
4.2534	20.4627
4.2325	20.9001
4.2119	21.5539
4.1915	21.9161
4.1712	22.5113
4.1512	23.0145
4.1313	23.6132
4.1117	24.287
4.0922	24.7468
4.0729	25.1992
4.0538	25.6148
4.0349	25.826
4.0161	26.1005
3.9976	26.287
3.9792	26.5047
3.9609	26.7103
3.9428	26.8466
3.9249	26.9025
3.9072	26.7668
3.8896	26.4962
3.8722	26.2057
3.8549	25.782
3.8378	25.5516
3.8208	25.1058
3.804	24.6845
3.7873	24.1211
3.7708	23.772
3.7544	23.1105
3.7382	22.5209
3.7221	21.9407
3.7061	21.5043
3.6903	20.9017
3.6746	20.2723
3.659	19.7123
3.6436	19.0588
3.6283	18.3685
3.6131	17.6512
3.5981	17.1551
3.5832	16.4422
3.5684	16.0198
3.5537	15.4776
3.5391	14.6989
3.5247	14.2736
3.5104	13.7184
3.4962	13.1827
3.4821	12.5089
3.4681	12.0786
3.4543	11.5872
3.4405	11.0921
3.4269	10.6095
3.4133	10.1572
3.3999	9.6692
3.3866	9.2963
3.3733	8.8431
3.3602	8.4951
3.3472	8.1343
3.3343	7.6767
3.3215	7.3128
3.3088	6.9242
3.2961	6.5974
3.2836	6.2385
3.2712	5.8856
3.2588	5.4983
3.2466	5.4338
3.2345	5.1359
3.2224	4.811
3.2104	4.4985
3.1985	4.4322
3.1867	4.1029
3.175	4.0237
3.1634	3.7781
3.1519	3.6028
3.1404	3.6142
3.129	3.371
3.1178	3.3107
3.1065	3.1443
3.0954	3.3005
3.0844	3.0777
3.0734	3.1747
3.0625	3.1819
3.0517	3.1172
3.041	3.0944
3.0303	2.9072
3.0197	2.8661
3.0092	2.7853
2.9987	2.8381
2.9884	2.8121
2.9781	2.7076
2.9678	2.7419
2.9577	2.5257
2.9476	2.6732
2.9376	2.6895
2.9276	2.6211
2.9177	2.5982
2.9079	2.6076
2.8982	2.7787
2.8885	2.9826
2.8789	2.7458
2.8693	2.8756
2.8598	3.0008
2.8504	2.8058
2.841	3.3326
2.8317	3.279
2.8224	2.8198
2.8133	3.084
2.8041	2.7827
2.7951	2.5774
2.786	2.8259
2.7771	3.0818
2.7682	2.9198
2.7594	3.3545
2.7506	3.5125
2.7418	4.0084
2.7332	5.3478
2.7246	6.9872
2.716	9.3515
2.7075	12.0947
2.699	14.9149
2.6906	17.1938
2.6823	19.1159
2.674	20.7127
2.6657	22.0984
2.6575	23.7676
2.6494	25.0412
2.6413	26.0013
2.6332	26.7149
2.6252	27.4103
2.6173	27.8754
2.6094	28.418
2.6015	29.0143
2.5937	28.6637
2.5859	29.447
2.5782	29.7249
2.5706	29.6813
2.5629	29.7248
2.5554	29.8651
2.5478	30.0576
2.5403	30.3912
2.5329	30.4238
2.5255	30.4687
2.5181	30.7138
2.5108	30.8538
2.5035	31.1974
2.4963	31.9454
2.4891	32.6232
2.482	33.4472
2.4749	34.3039
2.4678	34.7113
2.4608	35.6653
2.4538	36.0989
2.4468	36.5401
2.4399	36.7707
2.4331	37.2673
2.4262	37.3509
2.4194	37.4785
2.4127	37.5268
2.4059	37.1606
2.3993	37.3522
2.3926	38.4559
2.386	40.0098
2.3795	42.2145
2.3729	43.515
2.3664	44.5048
2.36	45.7102
2.3535	46.3836
2.3471	47.2392
2.3408	47.9558
2.3345	48.3589
2.3282	48.5686
2.3219	48.131
2.3157	47.3322
2.3095	46.2055
2.3034	43.1479
2.2972	39.7882
2.2911	37.7551
2.2851	37.9565
2.279	40.3778
2.2731	43.3116
2.2671	46.6126
2.2612	49.5856
2.2553	51.7248
2.2494	53.463
2.2435	54.5104
2.2377	55.1622
2.232	55.5046
2.2262	55.5157
2.2205	55.876
2.2148	56.0058
2.2091	56.0857
2.2035	56.1416
2.1979	56.4009
2.1923	56.5495
2.1868	56.9366
2.1812	57.181
2.1758	57.6967
2.1703	57.8193
2.1649	58.174
2.1595	58.1508
2.1541	58.2389
2.1487	58.4314
2.1434	58.0727
2.1381	57.8655
2.1328	57.9482
2.1275	57.9979
2.1223	57.7161
2.1171	57.888
2.112	57.4504
2.1068	57.5072
2.1017	56.915
2.0966	57.3031
2.0915	56.6082
2.0865	56.2491
2.0814	56.2653
2.0764	56.4006
2.0715	55.7803
2.0665	55.6434
2.0616	55.3484
2.0567	55.2144
2.0518	54.6789
2.0469	54.4627
2.0421	53.9179
2.0373	53.3481
2.0325	53.0854
2.0277	52.2188
2.0229	51.5086
2.0182	51.0003
2.0135	50.2029
2.0088	49.4577
2.0042	48.9152
