Name: Actinolite Ca_2(Mg,Fe^2+)_5Si_8O_22(OH)_2
Type: Mineral
Class: Silicate
Subclass: Inosilicate
Particle Size: Medium
Sample No.: IN-4A
Owner: JPL
Wavelength Range: VSWIR
Origin: USA, California, San Bernadino County, Wrightwood.
Description: Particle size was 45-125um.Collected by:  Burminco Original ASTER Spectral Library name was jpl.perkin.mineral.silicate.inosilicate.medium.in04a.spectrum.txt
Measurement: Hemispherical reflectance
X Units: Wavelength (micrometers)
Y Units: Reflectance (percent)
wavelength	value
2.5	44.2225
2.494	43.9986
2.488	43.8212
2.482	43.6173
2.476	43.4168
2.47	43.4044
2.464	43.4733
2.458	43.5085
2.452	43.8158
2.446	44.18
2.44	44.6569
2.434	44.9714
2.428	45.1962
2.422	44.9267
2.416	44.4359
2.41	43.7241
2.404	42.6466
2.398	40.7699
2.392	38.7179
2.386	37.8362
2.38	38.7724
2.374	41.0488
2.368	43.5794
2.362	45.4094
2.356	46.4491
2.35	46.7727
2.344	46.2399
2.338	44.6609
2.332	41.768
2.326	38.1012
2.32	35.0146
2.314	33.6161
2.308	33.5942
2.302	34.4029
2.296	35.9438
2.29	38.6034
2.284	41.6989
2.278	44.4734
2.272	46.922
2.266	49.0129
2.26	50.4494
2.254	51.0701
2.248	51.306
2.242	52.2188
2.236	53.8019
2.23	55.1522
2.224	55.9517
2.218	56.4483
2.212	56.8596
2.206	57.1795
2.2	57.5154
2.194	57.7539
2.188	58.0137
2.182	58.2799
2.176	58.5817
2.17	58.8913
2.164	59.0751
2.158	59.1656
2.152	59.2688
2.146	59.3083
2.14	59.2853
2.134	59.1966
2.128	58.9233
2.122	58.8354
2.116	58.7557
2.11	59.2868
2.104	60.3165
2.098	61.0892
2.092	61.411
2.086	61.7896
2.08	62.2602
2.074	62.6265
2.068	63.0116
2.062	63.287
2.056	63.6091
2.05	64.0315
2.044	64.5071
2.038	64.9452
2.032	65.1155
2.026	65.1311
2.02	65.1271
2.014	65.183
2.008	65.2535
2.002	65.5088
1.996	65.7594
1.99	66.0289
1.984	66.3871
1.978	66.6983
1.972	66.9286
1.966	67.3231
1.96	67.5605
1.954	67.7427
1.948	68.0341
1.942	68.315
1.936	68.6051
1.93	68.7837
1.924	69.035
1.918	69.2515
1.912	69.5551
1.906	69.7336
1.9	69.934
1.894	70.1161
1.888	70.3332
1.882	70.5472
1.876	70.7503
1.87	70.8883
1.864	71.1182
1.858	71.3244
1.852	71.4324
1.846	71.6653
1.84	71.8652
1.834	72.0078
1.828	72.1811
1.822	72.315
1.816	72.3733
1.81	72.4946
1.804	72.5793
1.798	72.7107
1.792	72.7043
1.786	72.72
1.78	72.7321
1.774	72.8083
1.768	72.7895
1.762	72.7351
1.756	72.7718
1.75	72.7702
1.744	72.7897
1.738	72.8455
1.732	72.8679
1.726	72.8525
1.72	72.8585
1.714	72.7737
1.708	72.7774
1.702	72.627
1.696	72.5672
1.69	72.5064
1.684	72.4342
1.678	72.3572
1.672	72.356
1.666	72.2091
1.66	72.1085
1.654	72.0226
1.648	71.8854
1.642	71.8085
1.636	71.7142
1.63	71.5769
1.624	71.4665
1.618	71.3285
1.612	71.2053
1.606	70.9985
1.6	70.9444
1.594	70.7455
1.588	70.598
1.582	70.3565
1.576	70.2049
1.57	70.0231
1.564	69.8183
1.558	69.7378
1.552	69.3934
1.546	69.1766
1.54	68.9887
1.534	68.8085
1.528	68.6769
1.522	68.5188
1.516	68.3201
1.51	68.1423
1.504	67.9118
1.498	67.6494
1.492	67.5119
1.486	67.2354
1.48	66.9737
1.474	66.6824
1.468	66.3389
1.462	66.1016
1.456	65.7783
1.45	65.4115
1.444	65.1147
1.438	64.7902
1.432	64.4003
1.426	63.9247
1.42	62.8586
1.414	60.7489
1.408	57.1995
1.402	52.2597
1.396	45.6043
1.39	54.3028
1.384	60.6837
1.378	60.49
1.372	60.4936
1.366	60.3466
1.36	59.8139
1.354	59.4124
1.348	58.8472
1.342	58.2302
1.336	57.6582
1.33	57.0774
1.324	56.4485
1.318	55.895
1.312	55.2903
1.306	54.6481
1.3	53.9391
1.294	53.3823
1.288	52.713
1.282	52.0084
1.276	51.2188
1.27	50.6914
1.264	50.0241
1.258	49.3577
1.252	48.6874
1.246	48.063
1.24	47.3253
1.234	46.6465
1.228	46.0581
1.222	45.3755
1.216	44.6752
1.21	44.0693
1.204	43.4035
1.198	42.8249
1.192	42.2362
1.186	41.635
1.18	40.9915
1.174	40.3536
1.168	39.8609
1.162	39.2193
1.156	38.7059
1.15	38.0576
1.144	37.3999
1.138	36.7722
1.132	36.1227
1.126	35.389
1.12	34.6116
1.114	33.7709
1.108	32.9598
1.102	32.0315
1.096	31.0388
1.09	30.1072
1.084	29.0983
1.078	28.0374
1.072	27.0182
1.066	26.1633
1.06	25.3446
1.054	24.7153
1.048	24.2011
1.042	23.8459
1.036	23.654
1.03	23.544
1.024	23.538
1.018	23.7131
1.012	23.9385
1.006	24.1922
1	24.5394
0.994	24.9471
0.988	25.4098
0.982	25.86
0.976	26.3799
0.97	26.868
0.964	27.3425
0.958	27.7935
0.952	28.0826
0.946	28.6631
0.94	29.1132
0.934	29.5105
0.928	29.8691
0.922	30.2125
0.916	30.5802
0.91	30.8498
0.904	31.1564
0.898	31.4752
0.892	31.7174
0.886	32.0333
0.88	32.3286
0.874	32.6278
0.868	32.9457
0.862	33.1482
0.856	33.8852
0.85	34.2139
0.844	34.5727
0.838	34.929
0.832	35.2363
0.826	35.5621
0.82	35.8778
0.814	36.1247
0.808	36.3358
0.802	36.4593
0.796	36.5339
0.79	36.5019
0.784	36.48
0.778	36.37
0.772	36.2432
0.766	36.0832
0.76	35.9184
0.754	35.7048
0.748	35.5224
0.742	35.2962
0.736	35.0679
0.73	34.834
0.724	34.574
0.718	34.3223
0.712	34.0619
0.706	33.7401
0.7	33.3936
0.694	33.1214
0.688	33.2004
0.682	33.1879
0.676	32.9291
0.67	32.736
0.664	32.6347
0.658	32.6383
0.652	32.7625
0.646	32.8764
0.64	33.0102
0.634	33.2821
0.628	33.6438
0.622	34.0714
0.616	34.55
0.61	35.0558
0.604	35.5469
0.598	36.1093
0.592	36.6748
0.586	37.2035
0.58	37.7174
0.574	38.1796
0.568	38.6072
0.562	38.9624
0.556	39.2045
0.55	39.2853
0.544	39.4283
0.538	39.5536
0.532	39.4949
0.526	39.3346
0.52	39.0858
0.514	38.5728
0.508	37.7724
0.502	37.4262
0.496	36.6347
0.49	35.8974
0.484	35.2994
0.478	34.4888
0.472	33.5777
0.466	32.7547
0.46	32
0.454	31.3119
0.448	30.6641
0.442	30.152
0.436	30.1427
0.43	29.6492
0.424	28.9295
0.418	28.1583
0.412	27.3869
0.406	26.6851
0.4	26.0296
