Name: Anglesite PbSO_4
Type: Mineral
Class: Sulfate
Subclass: None
Particle Size: Fine
Sample No.: SO-10A
Owner: JPL
Wavelength Range: TIR
Origin: USA, Arizona, Santa Cruz County, Glove Mine
Description: Particle size was 0-45um.Collected by JPL Original ASTER Spectral Library name was jpl.nicolet.mineral.sulfate.none.fine.so10a.spectrum.txt
Measurement: Hemispherical reflectance
X Units: Wavelength (micrometers)
Y Units: Reflectance (percent)
wavelength	value
15.3853	7.3371
15.1161	11.648
14.8563	12.8419
14.6052	19.3944
14.3624	24.5671
14.1276	28.021
13.9004	29.495
13.6803	29.3995
13.4671	30.3623
13.2604	31.3006
13.06	31.3594
12.8656	32.0795
12.6769	33.0276
12.4936	33.7047
12.3155	34.8857
12.1425	32.7217
11.9742	29.4127
11.8106	30.8963
11.6513	32.3568
11.4963	30.3527
11.3454	26.6938
11.1983	22.033
11.0551	18.262
10.9154	15.8515
10.7793	13.3927
10.6465	12.7316
10.5169	10.1858
10.3904	5.8559
10.267	5.8167
10.1464	6.5315
10.0287	5.5846
9.9136	5.2093
9.8012	5.4447
9.6913	5.8799
9.5838	6.4768
9.4787	6.6648
9.3758	6.7736
9.2752	6.4834
9.1767	6.2107
9.0803	5.859
8.9858	5.5481
8.8934	5.5405
8.8028	5.1946
8.714	4.6012
8.627	3.8697
8.5417	4.0134
8.4581	4.3127
8.3761	4.3963
8.2957	4.1776
8.2169	3.8285
8.1395	3.7847
8.0635	4.2054
7.989	5.2035
7.9158	6.6693
7.8439	8.902
7.7734	11.0863
7.7041	13.1588
7.636	15.0037
7.5691	16.939
7.5034	18.5795
7.4388	19.7935
7.3753	20.8591
7.3129	21.6074
7.2515	22.8765
7.1912	22.4261
7.1318	20.821
7.0734	20.7614
7.016	21.2523
6.9595	21.6702
6.9039	22.2636
6.8492	23.1488
6.7953	24.0186
6.7423	25.1192
6.6901	27.614
6.6387	31.4202
6.5881	33.6606
6.5382	35.9928
6.4892	39.1048
6.4408	39.4022
6.3931	37.867
6.3462	38.7469
6.2999	41.3442
6.2543	44.5298
6.2094	47.8256
6.1651	51.6075
6.1214	54.4901
6.0784	56.6657
6.0359	58.1305
5.994	60.2547
5.9527	61.8167
5.912	63.5892
5.8718	65.3084
5.8322	65.486
5.7931	48.0066
5.7545	51.2187
5.7165	64.468
5.6789	69.3229
5.6418	69.5702
5.6052	68.7868
5.5691	69.1413
5.5334	69.488
5.4982	69.7296
5.4635	70.2557
5.4291	69.8542
5.3952	68.435
5.3618	66.5809
5.3287	65.024
5.2961	63.0684
5.2638	61.2334
5.2319	59.052
5.2004	53.4371
5.1693	45.7716
5.1386	46.8032
5.1082	43.6463
5.0782	38.8859
5.0485	35.3724
5.0192	31.5332
4.9902	29.4817
4.9616	29.0348
4.9332	30.4648
4.9052	31.9742
4.8776	33.7618
4.8502	35.2107
4.8231	35.9676
4.7963	36.1092
4.7699	35.6414
4.7437	34.6303
4.7178	34.4196
4.6922	35.7318
4.6668	37.1884
4.6418	38.7991
4.617	40.8166
4.5924	43.2035
4.5681	45.8065
4.5441	48.075
4.5203	49.4486
4.4968	50.7768
4.4735	51.9148
4.4505	52.9366
4.4277	53.7151
4.4051	54.4311
4.3828	54.8615
4.3607	55.1044
4.3388	55.1211
4.3171	54.9657
4.2956	54.9168
4.2744	55.1271
4.2534	56.2488
4.2325	57.5013
4.2119	59.5984
4.1915	60.1886
4.1712	57.3331
4.1512	54.1338
4.1313	56.9629
4.1117	61.3829
4.0922	64.5
4.0729	65.9573
4.0538	66.3459
4.0349	67.179
4.0161	68.4018
3.9976	69.1339
3.9792	69.6271
3.9609	70.3469
3.9428	71.6144
3.9249	73.2684
3.9072	74.7509
3.8896	75.4412
3.8722	75.8071
3.8549	76.0206
3.8378	76.0187
3.8208	75.8752
3.804	75.6264
3.7873	75.3257
3.7708	74.9298
3.7544	74.2535
3.7382	73.8015
3.7221	73.0868
3.7061	72.1734
3.6903	70.599
3.6746	68.2925
3.659	65.9878
3.6436	65.3933
3.6283	66.1309
3.6131	66.2346
3.5981	65.9333
3.5832	65.7051
3.5684	66.0121
3.5537	66.3995
3.5391	66.9598
3.5247	67.7631
3.5104	68.8602
3.4962	69.873
3.4821	71.0553
3.4681	71.5125
3.4543	71.8147
3.4405	71.8345
3.4269	71.639
3.4133	71.1902
3.3999	71.5846
3.3866	71.8229
3.3733	71.637
3.3602	71.8026
3.3472	72.3104
3.3343	72.3662
3.3215	72.2982
3.3088	72.3373
3.2961	72.1133
3.2836	71.81
3.2712	71.6882
3.2588	71.3479
3.2466	70.977
3.2345	70.8474
3.2224	70.8922
3.2104	70.6902
3.1985	70.6488
3.1867	70.4369
3.175	70.2506
3.1634	70.1125
3.1519	69.8959
3.1404	69.5748
3.129	69.19
3.1178	69.052
3.1065	68.8309
3.0954	68.7135
3.0844	68.6035
3.0734	68.2088
3.0625	68.1424
3.0517	67.9407
3.041	67.5864
3.0303	67.3736
3.0197	66.9879
3.0092	66.9555
2.9987	66.5442
2.9884	66.2415
2.9781	66.0413
2.9678	66.0177
2.9577	65.825
2.9476	65.76
2.9376	65.7693
2.9276	65.7805
2.9177	66.0293
2.9079	66.0462
2.8982	66.0031
2.8885	66.5848
2.8789	66.9011
2.8693	67.2645
2.8598	67.5481
2.8504	67.9631
2.841	68.1748
2.8317	68.8795
2.8224	69.4266
2.8133	69.9577
2.8041	70.9557
2.7951	71.2603
2.786	72.0839
2.7771	72.3885
2.7682	73.2754
2.7594	73.5741
2.7506	74.1745
2.7418	75.1902
2.7332	75.1889
2.7246	76.0887
2.716	75.6361
2.7075	75.6741
2.699	75.9721
2.6906	76.1336
2.6823	76.2347
2.674	76.2261
2.6657	77.0897
2.6575	75.9087
2.6494	75.8174
2.6413	75.7868
2.6332	76.0437
2.6252	76.06
2.6173	76.5975
2.6094	76.2636
2.6015	76.1995
2.5937	77.1428
2.5859	76.2073
2.5782	76.0567
2.5706	76.1612
2.5629	76.5407
2.5554	76.018
2.5478	76.0308
2.5403	75.9744
2.5329	75.9969
2.5255	76.0384
2.5181	75.9563
2.5108	75.8634
2.5035	75.8284
2.4963	75.7414
2.4891	75.8678
2.482	75.7761
2.4749	75.7794
2.4678	75.6978
2.4608	75.6916
2.4538	75.5669
2.4468	75.7718
2.4399	75.7079
2.4331	75.7386
2.4262	75.7316
2.4194	75.5774
2.4127	75.7161
2.4059	75.845
2.3993	75.6671
2.3926	75.5941
2.386	75.7239
2.3795	75.6975
2.3729	75.6875
2.3664	75.6029
2.36	75.5393
2.3535	75.6825
2.3471	75.6407
2.3408	75.6929
2.3345	75.6802
2.3282	75.7167
2.3219	75.7368
2.3157	75.6627
2.3095	75.5853
2.3034	75.6754
2.2972	75.6114
2.2911	75.6755
2.2851	75.4845
2.279	75.6151
2.2731	75.6227
2.2671	75.6034
2.2612	75.5143
2.2553	75.5025
2.2494	75.4506
2.2435	75.2652
2.2377	75.5786
2.232	75.5436
2.2262	75.5557
2.2205	75.4472
2.2148	75.5745
2.2091	75.4328
2.2035	75.5399
2.1979	75.4269
2.1923	75.35
2.1868	75.7121
2.1812	75.6131
2.1758	75.5691
2.1703	75.2778
2.1649	75.5414
2.1595	75.4413
2.1541	75.602
2.1487	75.3321
2.1434	75.4656
2.1381	75.4478
2.1328	75.4924
2.1275	75.3906
2.1223	75.1745
2.1171	75.3241
2.112	75.278
2.1068	75.3658
2.1017	75.5293
2.0966	75.4406
2.0915	75.3552
2.0865	75.361
2.0814	75.3427
2.0764	75.2398
2.0715	75.1183
2.0665	75.608
2.0616	75.3624
2.0567	75.2673
2.0518	75.4369
2.0469	75.352
2.0421	75.4035
2.0373	75.1683
2.0325	75.3273
2.0277	75.2578
2.0229	75.364
2.0182	75.4644
2.0135	75.4964
2.0088	75.1564
2.0042	75.3813
