Name: Topaz Al_2SiO_4(F,OH)_2
Type: Mineral
Class: Silicate
Subclass: Nesosilicate
Particle Size: Fine
Sample No.: NS-6A
Owner: JPL
Wavelength Range: VSWIR
Origin: Australia, Western Australia, Grossmont
Description: Particle size was 0-45um.Collected by Ward's Original ASTER Spectral Library name was jpl.beckman.mineral.silicate.nesosilicate.fine.ns06a.spectrum.txt
Measurement: Hemispherical reflectance
X Units: Wavelength (micrometers)
Y Units: Reflectance (percent)
wavelength	value
0.4	50.9
0.403	50.78
0.406	50.95
0.409	50.87
0.412	50.99
0.415	50.81
0.418	50.98
0.421	50.96
0.424	50.79
0.427	50.93
0.43	50.92
0.433	50.88
0.436	50.81
0.439	51
0.442	50.97
0.445	50.82
0.448	50.92
0.451	50.89
0.454	50.95
0.457	50.75
0.46	50.94
0.463	50.9
0.466	50.96
0.469	51
0.472	50.77
0.475	50.91
0.478	50.96
0.481	50.78
0.484	51.02
0.487	50.86
0.49	50.97
0.493	50.81
0.496	50.99
0.499	50.8
0.502	50.74
0.505	50.91
0.508	50.91
0.511	50.8
0.514	50.86
0.517	50.79
0.52	50.76
0.523	50.96
0.526	50.75
0.529	50.78
0.532	50.55
0.535	50.89
0.538	50.67
0.541	50.64
0.544	50.75
0.547	50.75
0.55	50.71
0.553	50.79
0.556	50.82
0.559	50.63
0.562	50.87
0.565	50.94
0.568	50.78
0.571	50.78
0.574	50.58
0.577	50.56
0.58	50.53
0.583	50.43
0.586	50.61
0.589	50.31
0.592	50.44
0.595	50.6
0.598	50.56
0.601	50.55
0.604	50.47
0.607	50.58
0.61	50.46
0.613	50.57
0.616	50.46
0.619	50.4
0.622	50.34
0.625	50.53
0.628	50.24
0.631	50.4
0.634	50.46
0.637	50.37
0.64	50.28
0.643	50.43
0.646	50.28
0.649	50.33
0.652	50.46
0.655	50.31
0.658	50.26
0.661	50.24
0.664	50.46
0.667	50.21
0.67	50.34
0.673	50.33
0.676	50.28
0.679	50.16
0.682	50.31
0.685	50.18
0.688	50.22
0.691	50.33
0.694	50.34
0.697	50.07
0.7	50.11
0.703	50.16
0.706	50.27
0.709	50.18
0.712	50.1
0.715	50.13
0.718	50.1
0.721	50.21
0.724	50.2
0.727	50.15
0.73	50.07
0.733	50.1
0.736	50.16
0.739	50.16
0.742	50.12
0.745	50.07
0.748	50.12
0.751	49.95
0.754	50.22
0.757	50.09
0.76	50.09
0.763	50.21
0.766	50.32
0.769	50.23
0.772	50.15
0.775	50.23
0.778	50.2
0.781	50.26
0.784	50.28
0.787	50.28
0.79	50.08
0.793	50.34
0.796	50.2
0.799	50.16
0.808	50.52
0.82	50.27
0.832	50.35
0.844	50.25
0.856	50.38
0.868	50.35
0.88	50.18
0.892	50.24
0.904	50.15
0.916	50.11
0.928	50.18
0.94	50.04
0.952	50.03
0.964	50.1
0.976	49.91
0.988	50.03
1	49.9
1.012	49.88
1.024	49.92
1.036	49.87
1.048	49.82
1.06	49.87
1.072	49.77
1.084	49.85
1.096	49.78
1.108	49.74
1.12	49.77
1.132	49.67
1.144	49.58
1.156	49.66
1.168	49.58
1.18	49.59
1.192	49.42
1.204	49.52
1.216	49.44
1.228	49.42
1.24	49.35
1.252	49.45
1.264	49.4
1.276	49.24
1.288	49.43
1.3	49.32
1.312	49.31
1.324	49.18
1.336	49.11
1.348	49.17
1.36	49.13
1.372	49.03
1.384	49.02
1.396	48.49
1.408	48.85
1.42	48.97
1.432	48.99
1.444	49.09
1.456	48.97
1.468	48.94
1.48	49.08
1.492	48.99
1.504	49.02
1.516	48.95
1.528	48.89
1.54	48.94
1.552	48.91
1.564	48.83
1.576	48.92
1.588	48.89
1.6	48.77
1.612	48.74
1.624	48.83
1.636	48.79
1.648	48.8
1.66	48.83
1.672	48.75
1.684	48.74
1.696	48.76
1.708	48.81
1.72	48.7
1.732	48.68
1.744	48.61
1.756	48.64
1.768	48.49
1.78	48.7
1.792	48.61
1.804	48.48
1.816	48.55
1.828	48.62
1.84	48.37
1.852	48.41
1.864	48.51
1.876	48.33
1.888	48.27
1.9	48.29
1.912	48.23
1.924	48.2
1.936	48.2
1.948	48.15
1.96	48.18
1.972	48.27
1.984	48.23
1.996	48.46
2.008	48.33
2.02	48.46
2.032	48.38
2.044	48.34
2.056	47.74
2.068	45.95
2.08	45.18
2.092	46.78
2.104	48.1
2.116	48.41
2.128	48.33
2.14	47.95
2.152	48.02
2.164	47.89
2.176	47.85
2.188	47.92
2.2	47.79
2.212	47.83
2.224	47.99
2.236	47.92
2.248	47.93
2.26	47.85
2.272	47.87
2.284	47.96
2.296	47.9
2.308	47.73
2.32	47.79
2.332	47.67
2.344	47.78
2.356	47.71
2.368	47.61
2.38	47.44
2.392	47.36
2.404	47.41
2.416	47.21
2.428	47.08
2.44	46.99
2.452	46.73
2.464	46.38
2.476	45.99
2.488	45.59
2.5	45.11
