Name: Witherite BaCO_3
Type: Mineral
Class: Carbonate
Subclass: None
Particle Size: Coarse
Sample No.: C-2A
Owner: JPL
Wavelength Range: TIR
Origin: United Kingdom, England
Description: Particle size was 125-500um.Collected by Grieger's Inc. Original ASTER Spectral Library name was jpl.nicolet.mineral.carbonate.none.coarse.c02a.spectrum.txt
Measurement: Hemispherical reflectance
X Units: Wavelength (micrometers)
Y Units: Reflectance (percent)
wavelength	value
15.3853	31.3163
15.1161	28.1125
14.8563	16.9618
14.6052	5.5158
14.3624	2.3872
14.1276	12.6403
13.9004	25.571
13.6803	33.4243
13.4671	34.332
13.2604	28.7606
13.06	22.6929
12.8656	23.3016
12.6769	24.8885
12.4936	22.2984
12.3155	17.892
12.1425	15.5972
11.9742	7.8921
11.8106	6.8808
11.6513	15.119
11.4963	6.9589
11.3454	5.0625
11.1983	6.7146
11.0551	9.6323
10.9154	14.7984
10.7793	11.9317
10.6465	16.1022
10.5169	19.6757
10.3904	16.9338
10.267	17.2968
10.1464	16.6051
10.0287	15.3432
9.9136	13.428
9.8012	12.7719
9.6913	12.2868
9.5838	10.7786
9.4787	7.4953
9.3758	10.5081
9.2752	11.3135
9.1767	9.8953
9.0803	8.5434
8.9858	7.1598
8.8934	8.2721
8.8028	8.5857
8.714	7.2709
8.627	6.3857
8.5417	6.721
8.4581	6.6917
8.3761	7.2553
8.2957	6.432
8.2169	5.2163
8.1395	5.8357
8.0635	5.3434
7.989	5.0187
7.9158	4.8732
7.8439	4.9523
7.7734	4.6523
7.7041	4.8669
7.636	5.1211
7.5691	5.4072
7.5034	5.6616
7.4388	5.9151
7.3753	6.5505
7.3129	7.294
7.2515	7.9326
7.1912	9.4264
7.1318	11.6864
7.0734	18.0832
7.016	26.0679
6.9595	27.8752
6.9039	29.485
6.8492	31.7844
6.7953	32.3519
6.7423	30.0539
6.6901	28.4479
6.6387	30.7425
6.5881	23.232
6.5382	7.9116
6.4892	2.1362
6.4408	0.7493
6.3931	0.5071
6.3462	0.4158
6.2999	0.5018
6.2543	0.5393
6.2094	0.5961
6.1651	0.7458
6.1214	0.9236
6.0784	0.963
6.0359	1.1972
5.994	1.9372
5.9527	3.2578
5.912	5.5077
5.8718	8.8372
5.8322	9.9657
5.7931	12.1323
5.7545	7.1561
5.7165	1.5575
5.6789	1.8995
5.6418	16.5976
5.6052	24.9682
5.5691	30.4298
5.5334	33.7452
5.4982	35.94
5.4635	38.8436
5.4291	41.6519
5.3952	43.7339
5.3618	44.5508
5.3287	46.9633
5.2961	48.4989
5.2638	47.3416
5.2319	48.4272
5.2004	51.3372
5.1693	51.9486
5.1386	50.4302
5.1082	52.9919
5.0782	57.6091
5.0485	57.2935
5.0192	58.9388
4.9902	60.2754
4.9616	59.2158
4.9332	59.037
4.9052	58.8126
4.8776	57.0498
4.8502	48.9869
4.8231	36.0245
4.7963	15.8601
4.7699	10.9858
4.7437	17.5894
4.7178	22.6252
4.6922	30.7939
4.6668	35.1582
4.6418	39.0778
4.617	40.5988
4.5924	40.3037
4.5681	40.4714
4.5441	42.6833
4.5203	48.1712
4.4968	54.1006
4.4735	54.7224
4.4505	53.4037
4.4277	47.1495
4.4051	35.1612
4.3828	35.1968
4.3607	39.1174
4.3388	39.8486
4.3171	39.9995
4.2956	38.107
4.2744	32.6835
4.2534	31.3441
4.2325	30.588
4.2119	28.9175
4.1915	26.9794
4.1712	24.841
4.1512	20.1272
4.1313	9.3229
4.1117	5.6744
4.0922	2.5121
4.0729	2.266
4.0538	2.4433
4.0349	2.5709
4.0161	3.2016
3.9976	3.8906
3.9792	4.4308
3.9609	4.7803
3.9428	4.5953
3.9249	4.5897
3.9072	5.1018
3.8896	7.8227
3.8722	20.1657
3.8549	27.5107
3.8378	28.8883
3.8208	30.9233
3.804	33.8607
3.7873	35.6879
3.7708	37.4291
3.7544	38.9605
3.7382	39.4006
3.7221	39.112
3.7061	39.1673
3.6903	38.6721
3.6746	37.2628
3.659	34.5574
3.6436	24.6315
3.6283	30.3315
3.6131	26.5034
3.5981	18.3424
3.5832	8.8971
3.5684	4.2448
3.5537	3.1214
3.5391	2.7045
3.5247	3.2299
3.5104	3.6822
3.4962	3.9677
3.4821	3.6307
3.4681	3.3079
3.4543	3.788
3.4405	4.5947
3.4269	8.1241
3.4133	14.1347
3.3999	19.7639
3.3866	23.6581
3.3733	26.7941
3.3602	29.667
3.3472	31.4068
3.3343	32.1222
3.3215	32.9917
3.3088	34.0511
3.2961	35.6064
3.2836	37.3852
3.2712	39.2556
3.2588	40.481
3.2466	41.3538
3.2345	42.2688
3.2224	42.1765
3.2104	40.3208
3.1985	33.5802
3.1867	26.7793
3.175	28.5584
3.1634	34.2881
3.1519	36.8379
3.1404	38.7341
3.129	39.5254
3.1178	39.6881
3.1065	39.6708
3.0954	39.5403
3.0844	39.3528
3.0734	39.5238
3.0625	39.7833
3.0517	40.1331
3.041	40.2498
3.0303	39.9736
3.0197	39.6662
3.0092	39.4394
2.9987	39.0837
2.9884	38.6804
2.9781	38.9442
2.9678	38.4825
2.9577	38.3241
2.9476	38.3802
2.9376	38.3552
2.9276	38.5353
2.9177	38.5812
2.9079	38.9835
2.8982	38.8849
2.8885	37.751
2.8789	35.3922
2.8693	30.6073
2.8598	23.5444
2.8504	29.3034
2.841	35.4582
2.8317	38.8065
2.8224	42.2056
2.8133	44.2342
2.8041	46.2203
2.7951	47.2259
2.786	48.9131
2.7771	50.6368
2.7682	53.3735
2.7594	56.472
2.7506	60.1569
2.7418	63.4215
2.7332	66.0464
2.7246	69.4938
2.716	71.9278
2.7075	74.0748
2.699	76.0749
2.6906	77.4083
2.6823	77.5811
2.674	77.8242
2.6657	78.3578
2.6575	77.1681
2.6494	76.1635
2.6413	71.397
2.6332	74.3077
2.6252	70.5424
2.6173	60.4357
2.6094	46.7158
2.6015	32.6122
2.5937	32.6797
2.5859	35.4893
2.5782	40.5433
2.5706	45.7616
2.5629	49.4847
2.5554	51.4919
2.5478	52.2018
2.5403	52.5268
2.5329	53.3637
2.5255	56.2411
2.5181	61.0842
2.5108	65.7399
2.5035	69.6656
2.4963	72.233
2.4891	73.9341
2.482	75.0016
2.4749	75.7215
2.4678	76.2644
2.4608	76.9255
2.4538	76.7572
2.4468	76.5855
2.4399	77.3275
2.4331	76.2995
2.4262	74.8476
2.4194	72.3756
2.4127	68.7
2.4059	61.4732
2.3993	52.4155
2.3926	46.0266
2.386	44.3446
2.3795	51.7031
2.3729	57.3089
2.3664	60.3905
2.36	62.2144
2.3535	63.3826
2.3471	63.9478
2.3408	64.4936
2.3345	65.5384
2.3282	67.1865
2.3219	69.4918
2.3157	71.3996
2.3095	73.0633
2.3034	74.7849
2.2972	76.4344
2.2911	77.7351
2.2851	79.0095
2.279	80.3071
2.2731	81.3134
2.2671	82.3094
2.2612	83.3643
2.2553	84.4015
2.2494	84.8731
2.2435	85.5622
2.2377	85.9133
2.232	86.3047
2.2262	85.8568
2.2205	84.2437
2.2148	81.1104
2.2091	79.703
2.2035	80.191
2.1979	83.9152
2.1923	85.6734
2.1868	86.6101
2.1812	87.1524
2.1758	87.431
2.1703	87.4786
2.1649	87.7629
2.1595	87.743
2.1541	87.9027
2.1487	88.4492
2.1434	88.7524
2.1381	89.1169
2.1328	89.2961
2.1275	89.315
2.1223	89.5304
2.1171	89.569
2.112	89.4674
2.1068	89.4605
2.1017	89.6556
2.0966	89.3087
2.0915	89.4152
2.0865	89.2937
2.0814	89.1745
2.0764	88.9317
2.0715	88.6859
2.0665	88.6689
2.0616	87.342
2.0567	85.8674
2.0518	82.982
2.0469	79.2869
2.0421	81.771
2.0373	83.7127
2.0325	84.8294
2.0277	85.9164
2.0229	86.1222
2.0182	86.4557
2.0135	86.2744
2.0088	86.4766
2.0042	86.6875
