Name: Sanidine (Feldspar) (K,Na)AlSi_3O_8
Type: Mineral
Class: Silicate
Subclass: Tectosilicate
Particle Size: Fine
Sample No.: TS-14A
Owner: JPL
Wavelength Range: TIR
Description: Particle size was 0-45um.Collected by JPL Original ASTER Spectral Library name was jpl.nicolet.mineral.silicate.tectosilicate.fine.ts14a.spectrum.txt
Measurement: Hemispherical reflectance
X Units: Wavelength (micrometers)
Y Units: Reflectance (percent)
wavelength	value
15.3853	1.6229
15.1161	1.7943
14.8563	2.2343
14.6052	2.5509
14.3624	2.5963
14.1276	2.3
13.9004	1.9551
13.6803	1.8169
13.4671	1.9461
13.2604	1.9772
13.06	2.1546
12.8656	1.99
12.6769	1.9306
12.4936	2.2307
12.3155	4.1854
12.1425	6.8514
11.9742	8.1947
11.8106	8.586
11.6513	9.0291
11.4963	8.7127
11.3454	8.612
11.1983	8.1679
11.0551	7.6921
10.9154	7.1293
10.7793	6.6057
10.6465	6.0088
10.5169	5.6629
10.3904	5.4169
10.267	5.4715
10.1464	5.6956
10.0287	6.0762
9.9136	6.4384
9.8012	6.5929
9.6913	6.9687
9.5838	7.2947
9.4787	7.4671
9.3758	6.3162
9.2752	5.6542
9.1767	5.0864
9.0803	5.1586
8.9858	5.1633
8.8934	5.4571
8.8028	6.1329
8.714	6.9369
8.627	6.9947
8.5417	6.875
8.4581	6.7903
8.3761	6.3797
8.2957	5.3622
8.2169	3.4418
8.1395	2.3053
8.0635	1.3269
7.989	0.8647
7.9158	0.6589
7.8439	0.5095
7.7734	0.5422
7.7041	0.4775
7.636	0.6696
7.5691	0.9915
7.5034	1.1509
7.4388	1.428
7.3753	1.7939
7.3129	2.04
7.2515	2.6576
7.1912	3.0179
7.1318	3.6134
7.0734	4.2088
7.016	4.5808
6.9595	5.0433
6.9039	5.394
6.8492	5.5935
6.7953	6.0945
6.7423	6.4752
6.6901	6.9416
6.6387	7.6377
6.5881	7.5545
6.5382	7.8455
6.4892	8.3642
6.4408	7.895
6.3931	7.6588
6.3462	7.6394
6.2999	7.1281
6.2543	7.1769
6.2094	7.3297
6.1651	7.5694
6.1214	8.185
6.0784	8.6698
6.0359	9.1169
5.994	9.5903
5.9527	9.7456
5.912	9.806
5.8718	9.9788
5.8322	10.027
5.7931	9.6907
5.7545	9.6154
5.7165	9.4103
5.6789	9.2433
5.6418	9.4446
5.6052	9.4647
5.5691	9.7999
5.5334	10.6562
5.4982	11.6442
5.4635	12.6832
5.4291	13.5751
5.3952	14.1281
5.3618	14.6455
5.3287	15.3179
5.2961	16.2962
5.2638	17.3021
5.2319	18.8961
5.2004	20.6464
5.1693	22.5182
5.1386	24.4596
5.1082	26.4857
5.0782	28.5878
5.0485	30.6147
5.0192	31.9543
4.9902	32.782
4.9616	33.2881
4.9332	33.0917
4.9052	32.9676
4.8776	33.0963
4.8502	33.2758
4.8231	33.5195
4.7963	33.7635
4.7699	34.037
4.7437	34.3295
4.7178	34.5186
4.6922	34.8108
4.6668	35.3363
4.6418	36.1413
4.617	37.1749
4.5924	38.4274
4.5681	39.8314
4.5441	41.3925
4.5203	42.8755
4.4968	44.3666
4.4735	45.8884
4.4505	47.4106
4.4277	49.0063
4.4051	50.5485
4.3828	52.1653
4.3607	53.7151
4.3388	55.2036
4.3171	56.8036
4.2956	58.1539
4.2744	59.1768
4.2534	60.0836
4.2325	61.1787
4.2119	61.6783
4.1915	62.115
4.1712	62.5636
4.1512	62.7169
4.1313	63.094
4.1117	63.2561
4.0922	63.4921
4.0729	63.5811
4.0538	63.6437
4.0349	63.7139
4.0161	63.7843
3.9976	63.7912
3.9792	63.8091
3.9609	64.3524
3.9428	64.9172
3.9249	65.3923
3.9072	65.4963
3.8896	65.7665
3.8722	65.791
3.8549	65.7603
3.8378	65.8566
3.8208	65.8302
3.804	65.9036
3.7873	65.8703
3.7708	65.7391
3.7544	65.3965
3.7382	65.2695
3.7221	65.0386
3.7061	64.8149
3.6903	64.6299
3.6746	64.4234
3.659	64.2107
3.6436	63.9349
3.6283	63.659
3.6131	63.3396
3.5981	63.0207
3.5832	62.7181
3.5684	62.2653
3.5537	61.7532
3.5391	61.0962
3.5247	60.2752
3.5104	58.1361
3.4962	57.4282
3.4821	57.4121
3.4681	57.3085
3.4543	56.9438
3.4405	56.0578
3.4269	54.1385
3.4133	53.0683
3.3999	53.6883
3.3866	53.9137
3.3733	53.095
3.3602	54.0276
3.3472	54.6187
3.3343	54.6609
3.3215	54.4366
3.3088	54.1564
3.2961	53.5738
3.2836	53.0742
3.2712	52.5656
3.2588	51.9873
3.2466	51.4157
3.2345	51.0008
3.2224	50.472
3.2104	49.9109
3.1985	49.4062
3.1867	48.9471
3.175	48.272
3.1634	47.8332
3.1519	47.4814
3.1404	46.8807
3.129	46.4265
3.1178	45.9086
3.1065	45.7565
3.0954	45.2671
3.0844	44.8703
3.0734	44.7742
3.0625	44.4841
3.0517	44.2222
3.041	44.139
3.0303	43.9642
3.0197	43.8897
3.0092	43.582
2.9987	43.5354
2.9884	43.4076
2.9781	42.9728
2.9678	42.8296
2.9577	42.7024
2.9476	42.8088
2.9376	42.724
2.9276	42.8756
2.9177	42.873
2.9079	43.0979
2.8982	43.1701
2.8885	43.4074
2.8789	43.7504
2.8693	43.9703
2.8598	44.3653
2.8504	44.73
2.841	44.9524
2.8317	45.1814
2.8224	45.3585
2.8133	45.5524
2.8041	45.4227
2.7951	44.1292
2.786	43.0911
2.7771	40.9658
2.7682	38.6183
2.7594	35.5878
2.7506	38.5329
2.7418	39.4232
2.7332	40.5501
2.7246	44.3607
2.716	47.2892
2.7075	47.3937
2.699	54.41
2.6906	62.7641
2.6823	68.6371
2.674	71.6295
2.6657	75.3148
2.6575	74.2232
2.6494	74.6605
2.6413	75.4974
2.6332	76.3304
2.6252	76.3888
2.6173	78.0262
2.6094	77.0021
2.6015	76.8933
2.5937	79.0717
2.5859	77.3759
2.5782	77.2021
2.5706	77.6953
2.5629	78.3294
2.5554	77.2597
2.5478	77.601
2.5403	77.4544
2.5329	77.5274
2.5255	77.4054
2.5181	77.4629
2.5108	77.4592
2.5035	77.5592
2.4963	77.6267
2.4891	77.7003
2.482	77.8761
2.4749	77.7822
2.4678	78.1022
2.4608	78.0147
2.4538	77.9633
2.4468	78.2028
2.4399	78.2181
2.4331	78.3685
2.4262	78.6925
2.4194	79.1472
2.4127	79.0704
2.4059	79.5072
2.3993	79.4332
2.3926	79.3845
2.386	79.3769
2.3795	79.4999
2.3729	79.5283
2.3664	79.6571
2.36	79.6936
2.3535	79.5773
2.3471	79.7668
2.3408	79.6483
2.3345	79.9978
2.3282	80.1776
2.3219	80.1814
2.3157	80.3536
2.3095	80.5169
2.3034	80.6346
2.2972	80.7415
2.2911	80.8974
2.2851	80.9087
2.279	81.1479
2.2731	81.0589
2.2671	81.082
2.2612	81.2302
2.2553	81.2236
2.2494	81.0767
2.2435	81.237
2.2377	81.3018
2.232	81.088
2.2262	80.7801
2.2205	80.5535
2.2148	79.8535
2.2091	78.5172
2.2035	79.2092
2.1979	79.7417
2.1923	79.8194
2.1868	80.1646
2.1812	80.6232
2.1758	80.6143
2.1703	80.8881
2.1649	80.8113
2.1595	81.1844
2.1541	81.54
2.1487	81.7602
2.1434	81.7005
2.1381	82.1117
2.1328	82.3064
2.1275	82.5496
2.1223	82.3995
2.1171	82.3724
2.112	82.4557
2.1068	82.2154
2.1017	82.3638
2.0966	82.2258
2.0915	82.3728
2.0865	82.4831
2.0814	82.4652
2.0764	82.711
2.0715	82.4981
2.0665	82.3093
2.0616	82.6147
2.0567	82.4236
2.0518	82.6922
2.0469	82.6904
2.0421	82.5449
2.0373	82.4703
2.0325	82.4595
2.0277	82.7821
2.0229	82.6664
2.0182	82.5356
2.0135	82.5224
2.0088	82.5295
2.0042	82.3287
