Name: Phlogopite KMg3Si3AlO10(F, OH)2
Type: Mineral
Class: Silicate
Subclass: Phyllosilicate
Particle Size: Coarse
Sample No.: phlogop_2
Owner: JHU
Wavelength Range: TIR
Origin: Ontario, Canada via the Hunt and Salisbury Collection #23B
Description: This second sample of phlogopite also displayed the typical coppery luster of its micaceous sheets.  It appeared pure in hand sample and under the microscope. Particle size was 75 - 250  Micrometers.(Sheet Silicates); (Mica Group) Original ASTER Spectral Library name was jhu.nicolet.mineral.silicate.phyllosilicate.coarse.phlogo2.spectrum.txt
Measurement: Bidirectional reflectance
X Units: Wavelength (micrometers)
Y Units: Reflectance (percent)
wavelength	value
25.0442	4.6133
24.3388	5.0478
23.6719	5.415
23.0407	6.2583
22.4422	7.0657
21.8741	8.5229
21.334	10.051
20.8199	10.154
20.33	9.7173
19.8627	10.2539
19.4163	10.2441
18.9896	10.7207
18.5812	11.3108
18.19	11.0622
17.815	9.0732
17.4551	5.4438
17.1094	2.6184
16.7772	2.1338
16.4576	2.0315
16.15	1.9155
15.8537	1.9204
15.568	1.9255
15.2925	1.9644
15.0265	1.9255
14.7697	1.9163
14.5214	1.9426
14.2814	2.0051
14.0492	2.0898
13.8244	2.0566
13.6067	1.9573
13.3957	2.0566
13.1912	2.3086
12.9929	2.4897
12.8004	2.9346
12.6135	3.2266
12.432	3.1619
12.2557	3.238
12.0843	3.9465
11.9176	4.5178
11.7555	4.3223
11.5977	4.0942
11.444	3.9348
11.2944	3.883
11.1487	3.6372
11.0067	3.4885
10.8682	3.5237
10.7332	3.6413
10.6015	3.8572
10.473	4.24
10.3476	4.9131
10.2251	5.1123
10.1056	5.4231
9.9887	6.7339
9.8746	8.8874
9.763	9.9958
9.6539	9.1804
9.5472	8.4782
9.4429	8.3327
9.3408	8.6116
9.2409	9.2951
9.1431	9.6423
9.0474	9.2434
8.9536	8.4868
8.8618	7.1655
8.7718	5.5622
8.6837	3.8035
8.5973	2.3098
8.5126	1.4397
8.4295	1.4133
8.3481	1.8555
8.2682	2.4294
8.1898	2.9687
8.1129	3.468
8.0374	3.915
7.9634	4.2764
7.8906	4.6218
7.8192	4.9292
7.7491	5.1731
7.6802	5.4172
7.6126	5.6868
7.5461	6.0063
7.4807	6.2605
7.4165	6.5071
7.3534	6.7661
7.2914	7.0251
7.2303	7.3415
7.1703	7.6074
7.1113	7.894
7.0533	8.1491
6.9962	8.4778
6.94	8.7995
6.8847	9.0698
6.8302	9.2864
6.7767	9.5085
6.7239	9.6789
6.672	9.8308
6.6209	9.9702
6.5705	10.0234
6.5209	9.998
6.4721	9.8054
6.424	9.4927
6.3766	9.1728
6.3299	8.8171
6.2838	8.4736
6.2385	8.145
6.1937	7.884
6.1496	7.7026
6.1062	7.6518
6.0633	7.7187
6.0211	7.8491
5.9794	8.0298
5.9383	8.1206
5.8978	8.1416
5.8578	8.1789
5.8184	8.2212
5.7794	8.3286
5.741	8.4411
5.7031	8.5381
5.6657	8.6604
5.6288	8.8696
5.5924	9.0512
5.5564	9.1924
5.5209	9.3218
5.4859	9.4543
5.4513	9.6755
5.4171	10.0327
5.3833	10.5285
5.35	11.0674
5.3171	11.6196
5.2846	12.0556
5.2524	12.25
5.2207	12.3274
5.1893	12.342
5.1584	12.331
5.1277	12.2841
5.0975	12.2107
5.0676	12.1491
5.038	12.0949
5.0088	12.0874
4.98	12.1472
4.9514	12.2048
4.9232	12.1726
4.8953	12.1333
4.8678	12.1792
4.8405	12.3081
4.8135	12.4748
4.7868	12.6626
4.7605	12.8977
4.7344	13.1655
4.7086	13.4231
4.6831	13.6289
4.6578	13.8593
4.6328	14.1342
4.6081	14.3808
4.5837	14.6296
4.5595	14.8552
4.5356	15.0044
4.5119	15.102
4.4884	15.163
4.4652	15.2087
4.4423	15.2544
4.4196	15.2805
4.3971	15.2963
4.3748	15.3117
4.3528	15.3286
4.331	15.3469
4.3094	15.365
4.288	15.3828
4.2668	15.3901
4.2458	15.4194
4.2251	15.4401
4.2045	15.4577
4.1841	15.4633
4.164	15.4733
4.144	15.4919
4.1242	15.5173
4.1046	15.5361
4.0852	15.5468
4.066	15.5769
4.047	15.5947
4.0281	15.6159
4.0094	15.6225
3.9909	15.6264
3.9725	15.6345
3.9544	15.666
3.9363	15.7055
3.9185	15.7319
3.9008	15.7363
3.8833	15.7495
3.8659	15.7563
3.8487	15.7614
3.8316	15.7487
3.8147	15.7404
3.7979	15.7326
3.7813	15.7219
3.7648	15.7199
3.7485	15.707
3.7323	15.6894
3.7162	15.6779
3.7003	15.655
3.6845	15.6374
3.6689	15.6186
3.6534	15.5927
3.638	15.5932
3.6227	15.5918
3.6076	15.5842
3.5926	15.5817
3.5777	15.5527
3.563	15.5363
3.5484	15.5004
3.5338	15.4602
3.5195	15.3403
3.5052	15.1655
3.491	15.2129
3.477	15.2409
3.463	15.2334
3.4492	15.1762
3.4355	15.0715
3.4219	14.8457
3.4084	14.8354
3.395	14.9572
3.3817	14.9516
3.3685	14.9499
3.3554	14.9875
3.3425	14.9787
3.3296	14.9497
3.3168	14.8911
3.3041	14.812
3.2915	14.7243
3.279	14.6257
3.2666	14.538
3.2543	14.4382
3.2421	14.3469
3.23	14.2451
3.218	14.1963
3.206	14.2043
3.1942	14.2221
3.1824	14.2546
3.1707	14.2461
3.1591	14.1933
3.1476	14.123
3.1362	14.0268
3.1249	13.9531
3.1136	13.854
3.1024	13.7995
3.0913	13.7929
3.0803	13.812
3.0694	13.7949
3.0585	13.7419
3.0477	13.6987
3.037	13.6692
3.0264	13.6284
3.0158	13.5737
3.0053	13.5188
2.9949	13.5278
2.9845	13.5131
2.9743	13.4768
2.9641	13.4387
2.9539	13.3923
2.9439	13.3742
2.9339	13.3506
2.9239	13.3081
2.9141	13.2988
2.9043	13.29
2.8946	13.2893
2.8849	13.2881
2.8753	13.247
2.8658	13.2065
2.8563	13.1594
2.8469	13.0822
2.8375	12.9839
2.8282	12.875
2.819	12.7646
2.8098	12.636
2.8007	12.5517
2.7917	12.3879
2.7827	12.1399
2.7738	12.0263
2.7649	11.7216
2.7561	11.1875
2.7473	10.5407
2.7386	9.7177
2.7299	9.2866
2.7213	9.3865
2.7128	9.352
2.7043	7.8691
2.6959	7.0263
2.6875	8.477
2.6791	12.7031
2.6709	14.5373
2.6626	14.8789
2.6545	14.8418
2.6463	14.7058
2.6382	14.6328
2.6302	14.7031
2.6222	14.8227
2.6143	14.8833
2.6064	14.8696
2.5986	14.9013
2.5908	14.8764
2.583	14.7968
2.5753	14.749
2.5677	14.7392
2.5601	14.7204
2.5525	14.771
2.545	14.8545
2.5375	14.8847
2.5301	14.9204
2.5227	14.8945
2.5154	14.8271
2.5081	14.7763
2.5008	14.7727
2.4936	14.8068
2.4864	14.77
2.4793	14.7824
2.4722	14.7619
2.4651	14.675
2.4581	14.6064
2.4511	14.5241
2.4442	14.4052
2.4373	14.4663
2.4305	14.5112
2.4236	14.592
2.4169	14.5766
2.4101	14.5039
2.4034	14.4238
2.3967	14.3254
2.3901	14.0297
2.3835	13.7705
2.377	13.7678
2.3704	14.0395
2.364	14.2824
2.3575	14.3674
2.3511	14.3735
2.3447	14.3022
2.3384	14.0356
2.3321	13.5725
2.3258	13.2807
2.3195	13.4111
2.3133	13.6582
2.3071	14.021
2.301	14.3745
2.2949	14.5771
2.2888	14.7939
2.2828	14.9482
2.2767	15.1369
2.2708	15.2041
2.2648	15.3039
2.2589	15.2356
2.253	15.0996
2.2471	14.9221
2.2413	15.0615
2.2355	15.3635
2.2297	15.4931
2.224	15.6154
2.2183	15.6096
2.2126	15.6386
2.207	15.6584
2.2013	15.6591
2.1957	15.7041
2.1902	15.7092
2.1846	15.7304
2.1791	15.7197
2.1736	15.7138
2.1682	15.6689
2.1628	15.7265
2.1574	15.6919
2.152	15.6704
2.1466	15.6298
2.1413	15.6523
2.136	15.623
2.1308	15.6337
2.1255	15.6445
2.1203	15.6181
2.1151	15.5966
2.11	15.6084
2.1048	15.6181
2.0997	15.642
2.0946	15.6289
2.0895	15.664
2.0845	15.7045
2.0795	15.6543
