Name: Quartz SiO_2
Type: Mineral
Class: Silicate
Subclass: Tectosilicate
Particle Size: Medium
Sample No.: TS-1C
Owner: JPL
Wavelength Range: VSWIR
Origin: USA, South Dakota, Custer County, Custer
Description: Rose quartz. Particle size was 45-125um.Collected by Ward's Original ASTER Spectral Library name was jpl.beckman.mineral.silicate.tectosilicate.medium.ts01c.spectrum.txt
Measurement: Hemispherical reflectance
X Units: Wavelength (micrometers)
Y Units: Reflectance (percent)
wavelength	value
0.4	81.03
0.403	81.1
0.406	81.09
0.409	81.1
0.412	81.25
0.415	81.01
0.418	80.99
0.421	81.1
0.424	81.01
0.427	80.79
0.43	80.89
0.433	80.8
0.436	80.7
0.439	80.59
0.442	80.6
0.445	80.46
0.448	80.47
0.451	80.52
0.454	80.42
0.457	80.33
0.46	80.45
0.463	80.25
0.466	80.19
0.469	80.36
0.472	80.29
0.475	80.2
0.478	80.04
0.481	80.32
0.484	80.17
0.487	79.98
0.49	80.03
0.493	80.23
0.496	80.07
0.499	80.12
0.502	80.37
0.505	80.5
0.508	80.28
0.511	80.47
0.514	80.66
0.517	80.79
0.52	80.71
0.523	80.91
0.526	81.14
0.529	80.99
0.532	81.31
0.535	81.36
0.538	81.4
0.541	81.39
0.544	81.65
0.547	81.71
0.55	81.73
0.553	82.13
0.556	82.39
0.559	82.14
0.562	82.89
0.565	82.91
0.568	82.8
0.571	82.84
0.574	82.81
0.577	82.85
0.58	82.83
0.583	83.01
0.586	83.03
0.589	82.93
0.592	83.25
0.595	83.38
0.598	83.23
0.601	83.51
0.604	83.64
0.607	83.64
0.61	83.58
0.613	83.77
0.616	83.79
0.619	83.6
0.622	83.63
0.625	83.83
0.628	83.64
0.631	83.7
0.634	83.83
0.637	83.89
0.64	83.68
0.643	83.73
0.646	83.97
0.649	83.95
0.652	83.86
0.655	83.9
0.658	84.09
0.661	83.94
0.664	84.03
0.667	83.92
0.67	84.11
0.673	83.89
0.676	84.15
0.679	84.09
0.682	84.05
0.685	84.02
0.688	84.28
0.691	84.16
0.694	84.11
0.697	84.16
0.7	84.26
0.703	84.3
0.706	83.93
0.709	84.06
0.712	84.29
0.715	84.33
0.718	84.11
0.721	84.12
0.724	84.35
0.727	84.17
0.73	84.19
0.733	84.34
0.736	84.21
0.739	84.3
0.742	84.23
0.745	84.41
0.748	84.29
0.751	84.24
0.754	84.3
0.757	84.36
0.76	84.18
0.763	84.31
0.766	84.42
0.769	84.36
0.772	84.33
0.775	84.36
0.778	84.49
0.781	84.38
0.784	84.32
0.787	84.61
0.79	84.62
0.793	84.45
0.796	84.59
0.799	84.68
0.808	84.58
0.82	84.61
0.832	84.72
0.844	84.75
0.856	84.75
0.868	84.85
0.88	84.68
0.892	84.79
0.904	84.79
0.916	84.75
0.928	84.79
0.94	84.84
0.952	84.85
0.964	84.91
0.976	84.91
0.988	84.92
1	85.02
1.012	85.03
1.024	85.02
1.036	85.06
1.048	85.07
1.06	85.09
1.072	85.11
1.084	85.09
1.096	85.15
1.108	85.17
1.12	85.15
1.132	85.22
1.144	85.21
1.156	85.15
1.168	85.09
1.18	85.06
1.192	85.11
1.204	85.09
1.216	85.06
1.228	85.13
1.24	85.11
1.252	85.11
1.264	85.06
1.276	85.15
1.288	85.15
1.3	85.13
1.312	84.94
1.324	85
1.336	84.98
1.348	84.95
1.36	84.96
1.372	84.95
1.384	84.95
1.396	84.8
1.408	84.76
1.42	84.73
1.432	84.82
1.444	84.93
1.456	84.92
1.468	84.92
1.48	84.92
1.492	84.94
1.504	84.99
1.516	85.01
1.528	85.04
1.54	85.04
1.552	84.97
1.564	85.08
1.576	85.12
1.588	85.13
1.6	85.2
1.612	85.1
1.624	85.2
1.636	85.15
1.648	85.18
1.66	85.31
1.672	85.36
1.684	85.31
1.696	85.39
1.708	85.39
1.72	85.42
1.732	85.45
1.744	85.32
1.756	85.22
1.768	85.34
1.78	85.3
1.792	85.28
1.804	85.23
1.816	85.31
1.828	85.24
1.84	85.28
1.852	85.22
1.864	85.21
1.876	85
1.888	84.87
1.9	84.75
1.912	84.49
1.924	84.48
1.936	84.41
1.948	84.52
1.96	84.56
1.972	84.72
1.984	85.03
1.996	85.24
2.008	85.28
2.02	85.53
2.032	85.53
2.044	85.6
2.056	85.77
2.068	85.8
2.08	85.9
2.092	85.99
2.104	86.04
2.116	86.3
2.128	86.34
2.14	86.18
2.152	85.84
2.164	85.75
2.176	85.49
2.188	85.27
2.2	85.19
2.212	85.16
2.224	85.37
2.236	85.45
2.248	85.54
2.26	85.57
2.272	85.67
2.284	85.55
2.296	85.56
2.308	85.54
2.32	85.68
2.332	85.75
2.344	85.7
2.356	85.76
2.368	85.66
2.38	85.73
2.392	85.61
2.404	85.7
2.416	85.7
2.428	85.56
2.44	85.59
2.452	85.37
2.464	85.27
2.476	85.21
2.488	85.51
2.5	85.97
