Name: Sanidine (K,Na)Al3O8
Type: Mineral
Class: Silicate
Subclass: Tectosilicate
Particle Size: Coarse
Sample No.: sanidine_3
Owner: JHU
Wavelength Range: TIR
Origin: Higasinuiro-gun, Taiji, Wakayama, Japan via the Smithsonian(sample no. NMNH 103200)
Description: The sample consisted of many small (0.5 cm) euhedral crystals totaling 6.49 g.  Almost all had some adhering clay/limonite, to be removed by brushing and ultrasonic cleaning.  Under the microscope, a few acicular inclusions (rutile) could be seen.  Otherwise the sample appeared very pure. Particle size was 75 - 250  Micrometers. (Feldspar Group) Original ASTER Spectral Library name was jhu.nicolet.mineral.silicate.tectosilicate.coarse.sanidi3.spectrum.txt
Measurement: Bidirectional reflectance
X Units: Wavelength (micrometers)
Y Units: Reflectance (percent)
wavelength	value
25.0442	4.831
24.3388	4.8616
23.6719	5.4328
23.0407	6.1162
22.4422	5.1308
21.8741	3.5576
21.334	3.272
20.8199	2.5019
20.33	1.9758
19.8627	2.1789
19.4163	2.3669
18.9896	2.6536
18.5812	3.0334
18.19	3.3396
17.815	3.4189
17.4551	4.3144
17.1094	5.0347
16.7772	5.2966
16.4576	5.0991
16.15	4.008
15.8537	3.0327
15.568	3.0481
15.2925	2.26
15.0265	1.6086
14.7697	1.7751
14.5214	1.956
14.2814	2.1479
14.0492	2.2368
13.8244	2.175
13.6067	2.0793
13.3957	2.0168
13.1912	2.0356
12.9929	2.0935
12.8004	2.0845
12.6135	1.9929
12.432	1.8657
12.2557	1.9819
12.0843	2.1999
11.9176	2.3267
11.7555	2.4094
11.5977	2.5193
11.444	2.574
11.2944	2.6721
11.1487	2.7978
11.0067	2.9033
10.8682	3.0549
10.7332	3.2607
10.6015	3.4917
10.473	3.7798
10.3476	4.1589
10.2251	4.6269
10.1056	5.1257
9.9887	5.7236
9.8746	6.2556
9.763	6.6406
9.6539	7.053
9.5472	7.5298
9.4429	7.4844
9.3408	5.9714
9.2409	5.2615
9.1431	5.2676
9.0474	5.3869
8.9536	5.7065
8.8618	6.3103
8.7718	7.0283
8.6837	7.6247
8.5973	7.6697
8.5126	7.3486
8.4295	7.1452
8.3481	7.0554
8.2682	6.7424
8.1898	5.8301
8.1129	4.4641
8.0374	3.1086
7.9634	1.9092
7.8906	0.9578
7.8192	0.3657
7.7491	0.23
7.6802	0.2925
7.6126	0.3965
7.5461	0.4932
7.4807	0.5767
7.4165	0.6509
7.3534	0.7251
7.2914	0.7825
7.2303	0.8372
7.1703	0.9062
7.1113	0.9622
7.0533	1.0124
6.9962	1.0659
6.94	1.1064
6.8847	1.134
6.8302	1.1543
6.7767	1.1809
6.7239	1.2009
6.672	1.228
6.6209	1.2515
6.5705	1.269
6.5209	1.2749
6.4721	1.2922
6.424	1.2876
6.3766	1.2776
6.3299	1.2754
6.2838	1.2622
6.2385	1.2656
6.1937	1.2673
6.1496	1.2964
6.1062	1.3157
6.0633	1.3445
6.0211	1.3665
5.9794	1.3801
5.9383	1.3896
5.8978	1.3823
5.8578	1.3706
5.8184	1.3477
5.7794	1.3425
5.741	1.3381
5.7031	1.3262
5.6657	1.321
5.6288	1.3293
5.5924	1.3484
5.5564	1.3918
5.5209	1.4402
5.4859	1.5063
5.4513	1.5735
5.4171	1.6445
5.3833	1.7082
5.35	1.7624
5.3171	1.821
5.2846	1.8835
5.2524	1.9683
5.2207	2.0933
5.1893	2.2471
5.1584	2.4402
5.1277	2.6518
5.0975	2.8962
5.0676	3.1601
5.038	3.4141
5.0088	3.6328
4.98	3.7568
4.9514	3.7898
4.9232	3.7715
4.8953	3.7187
4.8678	3.7009
4.8405	3.7136
4.8135	3.7468
4.7868	3.7768
4.7605	3.8066
4.7344	3.8376
4.7086	3.8677
4.6831	3.9282
4.6578	4.0085
4.6328	4.133
4.6081	4.2893
4.5837	4.4758
4.5595	4.6955
4.5356	4.9289
4.5119	5.1828
4.4884	5.4534
4.4652	5.72
4.4423	6.0046
4.4196	6.2798
4.3971	6.551
4.3748	6.8318
4.3528	7.1233
4.331	7.4062
4.3094	7.6794
4.288	7.9612
4.2668	8.2107
4.2458	8.426
4.2251	8.6086
4.2045	8.76
4.1841	8.8882
4.164	8.9743
4.144	9.0327
4.1242	9.091
4.1046	9.1386
4.0852	9.1865
4.066	9.2226
4.047	9.2446
4.0281	9.2695
4.0094	9.2776
3.9909	9.3056
3.9725	9.3288
3.9544	9.3572
3.9363	9.3962
3.9185	9.4292
3.9008	9.4668
3.8833	9.4944
3.8659	9.5239
3.8487	9.5632
3.8316	9.6037
3.8147	9.644
3.7979	9.6885
3.7813	9.7297
3.7648	9.7741
3.7485	9.8008
3.7323	9.8371
3.7162	9.863
3.7003	9.8879
3.6845	9.9089
3.6689	9.9248
3.6534	9.9624
3.638	9.9819
3.6227	10.0031
3.6076	10.0105
3.5926	10.031
3.5777	10.0432
3.563	10.0493
3.5484	10.0503
3.5338	10.0434
3.5195	10.0376
3.5052	9.989
3.491	10.0124
3.477	10.0261
3.463	10.0207
3.4492	10.0029
3.4355	9.9721
3.4219	9.9092
3.4084	9.9045
3.395	9.9519
3.3817	9.9651
3.3685	9.9804
3.3554	9.979
3.3425	10.0056
3.3296	10.0056
3.3168	9.9795
3.3041	9.9795
3.2915	9.9699
3.279	9.9651
3.2666	9.9385
3.2543	9.9287
3.2421	9.9265
3.23	9.9089
3.218	9.9048
3.206	9.8989
3.1942	9.893
3.1824	9.8808
3.1707	9.8701
3.1591	9.8752
3.1476	9.8718
3.1362	9.8525
3.1249	9.8559
3.1136	9.8493
3.1024	9.8542
3.0913	9.8425
3.0803	9.8481
3.0694	9.8315
3.0585	9.8327
3.0477	9.8364
3.037	9.8239
3.0264	9.8235
3.0158	9.8298
3.0053	9.8137
2.9949	9.8054
2.9845	9.8347
2.9743	9.8103
2.9641	9.8
2.9539	9.7832
2.9439	9.7783
2.9339	9.7746
2.9239	9.737
2.9141	9.7385
2.9043	9.7363
2.8946	9.7285
2.8849	9.7475
2.8753	9.7453
2.8658	9.7427
2.8563	9.7478
2.8469	9.7248
2.8375	9.6953
2.8282	9.6496
2.819	9.6635
2.8098	9.6321
2.8007	9.6025
2.7917	9.6076
2.7827	9.5888
2.7738	9.6076
2.7649	9.5544
2.7561	9.4951
2.7473	9.4651
2.7386	9.4062
2.7299	9.2744
2.7213	8.978
2.7128	9.2126
2.7043	9.4787
2.6959	9.7781
2.6875	9.9189
2.6791	9.9914
2.6709	10.0083
2.6626	10.0422
2.6545	10.0468
2.6463	10.0373
2.6382	10.0232
2.6302	10.021
2.6222	10.0144
2.6143	10.008
2.6064	9.9914
2.5986	10.0063
2.5908	9.977
2.583	9.9741
2.5753	9.9646
2.5677	9.9702
2.5601	9.9524
2.5525	9.9382
2.545	9.9338
2.5375	9.9133
2.5301	9.8989
2.5227	9.8767
2.5154	9.8379
2.5081	9.8501
2.5008	9.8469
2.4936	9.8186
2.4864	9.8008
2.4793	9.7802
2.4722	9.7905
2.4651	9.7524
2.4581	9.7392
2.4511	9.7214
2.4442	9.6977
2.4373	9.6875
2.4305	9.6963
2.4236	9.6828
2.4169	9.6633
2.4101	9.6682
2.4034	9.6338
2.3967	9.6074
2.3901	9.6001
2.3835	9.6094
2.377	9.5678
2.3704	9.5625
2.364	9.5407
2.3575	9.5351
2.3511	9.5498
2.3447	9.4883
2.3384	9.5005
2.3321	9.4629
2.3258	9.4443
2.3195	9.4341
2.3133	9.4365
2.3071	9.4438
2.301	9.4104
2.2949	9.4128
2.2888	9.4118
2.2828	9.3718
2.2767	9.3911
2.2708	9.3528
2.2648	9.3733
2.2589	9.3706
2.253	9.3259
2.2471	9.3408
2.2413	9.3095
2.2355	9.3469
2.2297	9.3296
2.224	9.3093
2.2183	9.3159
2.2126	9.3103
2.207	9.2969
2.2013	9.2392
2.1957	9.292
2.1902	9.302
2.1846	9.3208
2.1791	9.2969
2.1736	9.2639
2.1682	9.29
2.1628	9.3296
2.1574	9.2871
2.152	9.2629
2.1466	9.3081
2.1413	9.2656
2.136	9.2463
2.1308	9.2851
2.1255	9.2842
2.1203	9.2832
2.1151	9.2886
2.11	9.3271
2.1048	9.2893
2.0997	9.3022
2.0946	9.3498
2.0895	9.3257
2.0845	9.3369
2.0795	9.3098
