Name: Glauberite Na_2Ca(SO_4)_2
Type: Mineral
Class: Sulfate
Subclass: None
Particle Size: Medium
Sample No.: SO-8A
Owner: JPL
Wavelength Range: VSWIR
Origin: USA, Arizona, Yavapai County, Campe Verde.
Description: Particle size was 45-125um. Collected by:  Burminco Original ASTER Spectral Library name was jpl.perkin.mineral.sulfate.none.medium.so08a.spectrum.txt
Measurement: Hemispherical reflectance
X Units: Wavelength (micrometers)
Y Units: Reflectance (percent)
wavelength	value
2.5	76.2291
2.494	76.0468
2.488	75.9178
2.482	76.0553
2.476	76.1933
2.47	76.5336
2.464	76.4988
2.458	76.6718
2.452	76.8969
2.446	76.9542
2.44	77.1037
2.434	77.2767
2.428	77.452
2.422	77.684
2.416	77.7911
2.41	77.9692
2.404	78.2137
2.398	78.4297
2.392	78.6437
2.386	78.9456
2.38	79.1806
2.374	79.4134
2.368	79.6425
2.362	79.8087
2.356	79.9902
2.35	80.0878
2.344	80.2647
2.338	80.2173
2.332	80.3108
2.326	80.1884
2.32	80.2467
2.314	80.2805
2.308	80.3437
2.302	80.3583
2.296	80.4825
2.29	80.4961
2.284	80.6065
2.278	80.7456
2.272	80.6735
2.266	80.7377
2.26	80.7743
2.254	80.763
2.248	80.9173
2.242	80.8817
2.236	80.9844
2.23	80.9995
2.224	81.0309
2.218	81.1639
2.212	81.2463
2.206	81.4053
2.2	81.5162
2.194	81.7233
2.188	81.9599
2.182	82.0703
2.176	82.2092
2.17	82.3635
2.164	82.5093
2.158	82.7295
2.152	82.9018
2.146	83.0009
2.14	82.9361
2.134	82.9294
2.128	82.7938
2.122	82.5609
2.116	82.3197
2.11	82.1832
2.104	81.9004
2.098	81.7986
2.092	81.9269
2.086	81.9905
2.08	82.0678
2.074	82.1352
2.068	82.1535
2.062	82.2772
2.056	82.3475
2.05	82.3456
2.044	82.3635
2.038	82.3939
2.032	82.3416
2.026	82.292
2.02	82.1621
2.014	82.0921
2.008	81.8451
2.002	81.6304
1.996	81.2528
1.99	80.8996
1.984	80.5013
1.978	80.3328
1.972	80.0097
1.966	79.7789
1.96	79.5138
1.954	79.0554
1.948	78.9263
1.942	78.7561
1.936	78.8297
1.93	79.1063
1.924	79.354
1.918	79.6286
1.912	80.002
1.906	80.5608
1.9	81.1846
1.894	82.0015
1.888	82.4507
1.882	82.9369
1.876	83.3088
1.87	83.44
1.864	83.6459
1.858	83.7833
1.852	83.8594
1.846	83.9455
1.84	83.8332
1.834	83.8446
1.828	83.9293
1.822	83.9311
1.816	83.9024
1.81	83.9559
1.804	84.0343
1.798	83.9337
1.792	83.9614
1.786	83.8997
1.78	83.8336
1.774	83.8657
1.768	83.7349
1.762	83.7521
1.756	83.6693
1.75	83.785
1.744	83.798
1.738	83.8463
1.732	83.8519
1.726	83.9862
1.72	83.9012
1.714	83.9542
1.708	83.977
1.702	83.9646
1.696	83.7903
1.69	83.9056
1.684	83.8283
1.678	83.9662
1.672	83.7638
1.666	83.9739
1.66	83.8982
1.654	83.8694
1.648	83.8136
1.642	83.8127
1.636	83.7849
1.63	83.7423
1.624	83.8491
1.618	83.8305
1.612	83.758
1.606	83.7261
1.6	83.741
1.594	83.7924
1.588	83.6982
1.582	83.5735
1.576	83.5839
1.57	83.6086
1.564	83.5761
1.558	83.4499
1.552	83.3824
1.546	83.347
1.54	83.3124
1.534	83.2227
1.528	83.2102
1.522	83.1707
1.516	83.1992
1.51	83.0405
1.504	83.0736
1.498	82.9117
1.492	82.8268
1.486	82.7907
1.48	82.7241
1.474	82.7307
1.468	82.6485
1.462	82.4717
1.456	82.4936
1.45	82.3313
1.444	82.2722
1.438	82.4035
1.432	82.3229
1.426	82.3567
1.42	82.3417
1.414	82.2184
1.408	82.345
1.402	82.4606
1.396	82.5721
1.39	82.551
1.384	82.7328
1.378	82.7935
1.372	82.7442
1.366	82.6883
1.36	82.698
1.354	82.7293
1.348	82.6696
1.342	82.6633
1.336	82.6431
1.33	82.5396
1.324	82.5647
1.318	82.5265
1.312	82.424
1.306	82.3687
1.3	82.3426
1.294	82.2904
1.288	82.2675
1.282	82.2541
1.276	82.2025
1.27	82.0592
1.264	82.0939
1.258	82.0074
1.252	82.0303
1.246	81.9149
1.24	81.8344
1.234	81.8031
1.228	81.8317
1.222	81.7741
1.216	81.5986
1.21	81.6495
1.204	81.4884
1.198	81.4991
1.192	81.4308
1.186	81.4527
1.18	81.2998
1.174	81.3185
1.168	81.2545
1.162	81.2269
1.156	81.1746
1.15	81.2212
1.144	81.1417
1.138	81.0321
1.132	80.9967
1.126	81.0339
1.12	81.0207
1.114	80.9684
1.108	81.0403
1.102	80.8919
1.096	80.8194
1.09	80.8486
1.084	80.7564
1.078	80.7269
1.072	80.7095
1.066	80.7936
1.06	80.7104
1.054	80.6379
1.048	80.6375
1.042	80.6078
1.036	80.6173
1.03	80.5549
1.024	80.5669
1.018	80.479
1.012	80.4093
1.006	80.4559
1	80.4111
0.994	80.3377
0.988	80.29
0.982	80.2442
0.976	80.1996
0.97	80.2811
0.964	80.0894
0.958	80.1362
0.952	80.112
0.946	79.9925
0.94	79.9825
0.934	79.8486
0.928	79.8746
0.922	79.8289
0.916	79.7256
0.91	79.7024
0.904	79.6231
0.898	79.635
0.892	79.5046
0.886	79.4414
0.88	79.321
0.874	79.3524
0.868	79.228
0.862	79.1745
0.856	78.9998
0.85	79.1072
0.844	79.1252
0.838	79.0715
0.832	79.0092
0.826	79.0738
0.82	79.0476
0.814	79.0287
0.808	78.974
0.802	78.8808
0.796	78.755
0.79	78.6806
0.784	78.5492
0.778	78.4978
0.772	78.3726
0.766	78.2673
0.76	78.1505
0.754	78.0274
0.748	77.8838
0.742	77.7448
0.736	77.6171
0.73	77.5023
0.724	77.3849
0.718	77.2685
0.712	77.1552
0.706	77.0246
0.7	76.9391
0.694	76.8544
0.688	76.7712
0.682	76.6787
0.676	76.5925
0.67	76.5227
0.664	76.4488
0.658	76.3924
0.652	76.3108
0.646	76.2147
0.64	76.1489
0.634	76.0626
0.628	75.975
0.622	75.8601
0.616	75.7594
0.61	75.6547
0.604	75.5546
0.598	75.5056
0.592	75.4232
0.586	75.2922
0.58	75.1758
0.574	75.0127
0.568	74.835
0.562	74.6614
0.556	74.4083
0.55	74.1517
0.544	73.9054
0.538	73.6466
0.532	73.3894
0.526	73.1039
0.52	72.7979
0.514	72.4811
0.508	72.1595
0.502	71.7713
0.496	71.4006
0.49	71.0645
0.484	70.698
0.478	70.4583
0.472	70.2086
0.466	69.9097
0.46	69.6138
0.454	69.25
0.448	68.7995
0.442	68.3068
0.436	67.7819
0.43	67.2048
0.424	66.6084
0.418	66.0846
0.412	65.5526
0.406	65.0149
0.4	64.4649
