Name: Zincite (Zn,Mn)O
Type: Mineral
Class: Oxide
Subclass: None
Particle Size: Fine
Sample No.: O-13A
Owner: JPL
Wavelength Range: TIR
Origin: N/A
Description: Synthetic zincite.Particle size was 0-45um.Collected by JPL Original ASTER Spectral Library name was jpl.nicolet.mineral.oxide.none.fine.o13a.spectrum.txt
Measurement: Hemispherical reflectance
X Units: Wavelength (micrometers)
Y Units: Reflectance (percent)
wavelength	value
15.3853	0.1178
15.1161	0.1579
14.8563	0.3943
14.6052	0.7009
14.3624	0.4785
14.1276	0.6228
13.9004	1.1178
13.6803	1.2438
13.4671	1.9916
13.2604	3.6183
13.06	3.7969
12.8656	3.6262
12.6769	4.1786
12.4936	5.2253
12.3155	5.7503
12.1425	5.4826
11.9742	4.7324
11.8106	4.4504
11.6513	4.045
11.4963	3.7283
11.3454	3.8572
11.1983	4.7388
11.0551	5.4134
10.9154	6.0363
10.7793	7.6765
10.6465	9.0575
10.5169	10.9031
10.3904	11.3341
10.267	9.776
10.1464	8.6327
10.0287	9.9564
9.9136	11.2125
9.8012	12.1529
9.6913	14.0248
9.5838	17.1407
9.4787	23.1537
9.3758	24.4504
9.2752	24.975
9.1767	25.2669
9.0803	27.4687
8.9858	31.6256
8.8934	34.8626
8.8028	37.8235
8.714	40.6815
8.627	43.9377
8.5417	46.522
8.4581	48.7537
8.3761	50.5836
8.2957	52.0722
8.2169	52.9288
8.1395	53.8212
8.0635	54.5309
7.989	55.3217
7.9158	55.8416
7.8439	55.593
7.7734	53.5255
7.7041	51.4951
7.636	46.6125
7.5691	42.6667
7.5034	41.1617
7.4388	40.6379
7.3753	38.0301
7.3129	34.1306
7.2515	29.7416
7.1912	27.9491
7.1318	29.1082
7.0734	28.9
7.016	30.0367
6.9595	34.4546
6.9039	36.91
6.8492	35.2849
6.7953	31.7446
6.7423	29.271
6.6901	27.5116
6.6387	25.1367
6.5881	24.1514
6.5382	25.2728
6.4892	28.0536
6.4408	25.6306
6.3931	23.8283
6.3462	30.2538
6.2999	35.7652
6.2543	40.0366
6.2094	44.8945
6.1651	49.6819
6.1214	53.2016
6.0784	55.7299
6.0359	57.5059
5.994	59.6977
5.9527	61.7047
5.912	63.3455
5.8718	64.8935
5.8322	66.1717
5.7931	66.778
5.7545	66.9226
5.7165	67.0736
5.6789	67.349
5.6418	68.0853
5.6052	68.2168
5.5691	68.6283
5.5334	69.0245
5.4982	69.2526
5.4635	69.5448
5.4291	69.8086
5.3952	69.9055
5.3618	70.1033
5.3287	70.1671
5.2961	70.2464
5.2638	70.3215
5.2319	70.3304
5.2004	70.3113
5.1693	70.2457
5.1386	70.2215
5.1082	70.2061
5.0782	70.0627
5.0485	69.9831
5.0192	69.8573
4.9902	69.7527
4.9616	69.685
4.9332	69.4824
4.9052	69.3517
4.8776	69.2144
4.8502	68.9855
4.8231	68.7753
4.7963	68.4893
4.7699	68.4994
4.7437	68.6483
4.7178	68.9484
4.6922	69.3801
4.6668	69.9181
4.6418	70.291
4.617	70.7325
4.5924	71.0623
4.5681	71.5325
4.5441	72.1058
4.5203	72.4105
4.4968	72.8957
4.4735	73.1657
4.4505	73.5929
4.4277	73.7972
4.4051	74.2547
4.3828	74.6208
4.3607	74.7765
4.3388	75.1195
4.3171	75.2833
4.2956	75.237
4.2744	75.4693
4.2534	75.5842
4.2325	75.5366
4.2119	75.8517
4.1915	75.9507
4.1712	76.1396
4.1512	76.0985
4.1313	76.101
4.1117	76.1232
4.0922	76.0114
4.0729	76.1417
4.0538	76.1537
4.0349	76.2077
4.0161	76.2747
3.9976	76.2091
3.9792	76.1198
3.9609	75.8863
3.9428	75.7519
3.9249	75.2845
3.9072	75.0947
3.8896	74.8836
3.8722	74.875
3.8549	74.6768
3.8378	74.5484
3.8208	74.3862
3.804	74.3819
3.7873	74.284
3.7708	74.136
3.7544	73.8857
3.7382	73.6434
3.7221	73.3607
3.7061	72.9276
3.6903	72.5543
3.6746	72.3808
3.659	72.0565
3.6436	71.5945
3.6283	71.3252
3.6131	70.7946
3.5981	70.3392
3.5832	69.6774
3.5684	69.0201
3.5537	68.4956
3.5391	67.818
3.5247	66.8691
3.5104	65.4436
3.4962	65.367
3.4821	65.2417
3.4681	64.9534
3.4543	64.8688
3.4405	64.4467
3.4269	64.0333
3.4133	63.3237
3.3999	63.5157
3.3866	63.6632
3.3733	63.3253
3.3602	63.7609
3.3472	63.9771
3.3343	63.9273
3.3215	63.7338
3.3088	63.4628
3.2961	63.0607
3.2836	62.6216
3.2712	62.35
3.2588	61.6385
3.2466	61.1106
3.2345	60.6512
3.2224	60.2355
3.2104	59.7323
3.1985	59.0185
3.1867	58.5472
3.175	57.92
3.1634	57.2208
3.1519	56.6801
3.1404	56.0445
3.129	55.3084
3.1178	54.688
3.1065	54.0543
3.0954	53.3812
3.0844	52.7471
3.0734	52.1443
3.0625	51.5201
3.0517	50.7454
3.041	49.7742
3.0303	49.1173
3.0197	48.1214
3.0092	46.9682
2.9987	45.8941
2.9884	45.1714
2.9781	44.2646
2.9678	44.1396
2.9577	44.0417
2.9476	44.5303
2.9376	44.7582
2.9276	44.8124
2.9177	44.8622
2.9079	45.105
2.8982	45.7142
2.8885	46.6678
2.8789	47.5004
2.8693	48.2118
2.8598	48.7568
2.8504	49.2786
2.841	49.8453
2.8317	50.1067
2.8224	50.2454
2.8133	49.7963
2.8041	50.7291
2.7951	52.6592
2.786	55.036
2.7771	57.4536
2.7682	59.9471
2.7594	64.0112
2.7506	67.6638
2.7418	69.3082
2.7332	67.4994
2.7246	69.8334
2.716	68.9539
2.7075	73.7285
2.699	79.4482
2.6906	83.2803
2.6823	85.1856
2.674	86.2109
2.6657	87.2381
2.6575	87.1767
2.6494	87.5569
2.6413	88.0218
2.6332	88.2979
2.6252	88.7268
2.6173	89.0522
2.6094	89.1831
2.6015	89.5519
2.5937	90.147
2.5859	90.2088
2.5782	90.3853
2.5706	90.6775
2.5629	90.5854
2.5554	90.5858
2.5478	90.5479
2.5403	90.7212
2.5329	90.677
2.5255	90.7353
2.5181	90.8235
2.5108	90.802
2.5035	90.9396
2.4963	90.8505
2.4891	90.7176
2.482	90.6974
2.4749	90.8645
2.4678	90.7783
2.4608	90.6628
2.4538	90.7737
2.4468	90.7366
2.4399	90.6397
2.4331	90.5517
2.4262	90.3454
2.4194	90.5962
2.4127	90.6761
2.4059	90.6258
2.3993	90.9034
2.3926	90.8802
2.386	91.1264
2.3795	91.2795
2.3729	91.5216
2.3664	91.6808
2.36	91.8577
2.3535	92.0135
2.3471	92.2782
2.3408	92.3557
2.3345	92.4587
2.3282	92.5403
2.3219	92.6133
2.3157	92.7278
2.3095	92.7128
2.3034	92.6813
2.2972	92.6566
2.2911	92.7323
2.2851	92.5504
2.279	92.5547
2.2731	92.4775
2.2671	92.4727
2.2612	92.5171
2.2553	92.4791
2.2494	92.5623
2.2435	92.5526
2.2377	92.8915
2.232	93.2428
2.2262	93.687
2.2205	93.6689
2.2148	93.7202
2.2091	93.9853
2.2035	94.0745
2.1979	94.1563
2.1923	94.0075
2.1868	94.3651
2.1812	94.4464
2.1758	94.3851
2.1703	94.5239
2.1649	94.5672
2.1595	94.5279
2.1541	94.472
2.1487	94.608
2.1434	94.4638
2.1381	94.7573
2.1328	94.6646
2.1275	94.8582
2.1223	94.6346
2.1171	94.76
2.112	94.7019
2.1068	94.7231
2.1017	94.7754
2.0966	94.7614
2.0915	94.9414
2.0865	94.9048
2.0814	94.4003
2.0764	94.9876
2.0715	94.6943
2.0665	94.6771
2.0616	94.6444
2.0567	94.9438
2.0518	95.0395
2.0469	94.9338
2.0421	94.8071
2.0373	94.9659
2.0325	95.0065
2.0277	94.8943
2.0229	95.0449
2.0182	94.7838
2.0135	95.0822
2.0088	94.9316
2.0042	94.7976
