Name: Microcline (Feldspar) (K,Na)AlSi_3O_8
Type: Mineral
Class: Silicate
Subclass: Tectosilicate
Particle Size: Medium
Sample No.: TS-17A
Owner: JPL
Wavelength Range: VSWIR
Description: Particle size was 45-125um.Collected by JPL Original ASTER Spectral Library name was jpl.beckman.mineral.silicate.tectosilicate.medium.ts17a.spectrum.txt
Measurement: Hemispherical reflectance
X Units: Wavelength (micrometers)
Y Units: Reflectance (percent)
wavelength	value
0.4	42.75
0.403	43.67
0.406	44.39
0.409	44.63
0.412	45.18
0.415	45.77
0.418	46.42
0.421	46.96
0.424	47.57
0.427	48.02
0.43	48.69
0.433	49.34
0.436	50.03
0.439	50.81
0.442	51.22
0.445	51.73
0.448	52.19
0.451	52.65
0.454	53.05
0.457	53.4
0.46	53.61
0.463	53.98
0.466	54.12
0.469	54.53
0.472	54.83
0.475	55.04
0.478	55.35
0.481	55.53
0.484	55.96
0.487	56.3
0.49	56.69
0.493	57.01
0.496	57.4
0.499	57.67
0.502	58.26
0.505	58.58
0.508	58.89
0.511	59.26
0.514	59.72
0.517	59.93
0.52	60.53
0.523	60.89
0.526	61.22
0.529	61.74
0.532	62.1
0.535	62.45
0.538	63
0.541	63.39
0.544	63.87
0.547	64.43
0.55	64.9
0.553	65.41
0.556	66.09
0.559	66.46
0.562	67.6
0.565	68.29
0.568	68.65
0.571	69.21
0.574	69.52
0.577	70.11
0.58	70.48
0.583	70.96
0.586	71.29
0.589	71.67
0.592	72
0.595	72.27
0.598	72.46
0.601	72.75
0.604	73.05
0.607	73.2
0.61	73.3
0.613	73.16
0.616	73.23
0.619	73.33
0.622	73.49
0.625	73.65
0.628	73.6
0.631	73.54
0.634	73.59
0.637	73.58
0.64	73.87
0.643	73.95
0.646	73.83
0.649	74.1
0.652	74.09
0.655	74.16
0.658	74.16
0.661	74.39
0.664	74.37
0.667	74.14
0.67	74.43
0.673	74.53
0.676	74.38
0.679	74.61
0.682	74.75
0.685	74.71
0.688	74.75
0.691	74.85
0.694	74.98
0.697	74.93
0.7	75.04
0.703	75.09
0.706	75.08
0.709	75.33
0.712	75.33
0.715	75.38
0.718	75.47
0.721	75.43
0.724	75.46
0.727	75.56
0.73	75.49
0.733	75.49
0.736	75.61
0.739	75.67
0.742	75.77
0.745	75.87
0.748	75.75
0.751	75.78
0.754	75.71
0.757	75.87
0.76	75.84
0.763	76.08
0.766	75.85
0.769	76.07
0.772	76
0.775	76.11
0.778	76.14
0.781	76.18
0.784	76.14
0.787	76.23
0.79	76.25
0.793	76.19
0.796	76.24
0.799	76.29
0.808	77
0.82	76.89
0.832	77.02
0.844	77
0.856	77.12
0.868	77.27
0.88	77.1
0.892	77.38
0.904	77.4
0.916	77.53
0.928	77.68
0.94	77.97
0.952	78.02
0.964	78.16
0.976	78.53
0.988	78.57
1	78.76
1.012	78.97
1.024	79.01
1.036	79.19
1.048	79.09
1.06	79.33
1.072	79.4
1.084	79.53
1.096	79.71
1.108	79.68
1.12	79.94
1.132	80.09
1.144	80.12
1.156	80.31
1.168	80.34
1.18	80.49
1.192	80.51
1.204	80.79
1.216	80.84
1.228	81.02
1.24	81.04
1.252	81.17
1.264	81.34
1.276	81.43
1.288	81.38
1.3	81.48
1.312	81.47
1.324	81.58
1.336	81.53
1.348	81.58
1.36	81.61
1.372	81.39
1.384	80.54
1.396	77.02
1.408	75.09
1.42	78.77
1.432	80.33
1.444	80.57
1.456	80.87
1.468	81.09
1.48	81.32
1.492	81.57
1.504	81.83
1.516	82.12
1.528	82.22
1.54	82.47
1.552	82.42
1.564	82.65
1.576	82.76
1.588	82.94
1.6	83.05
1.612	82.96
1.624	83.16
1.636	83.05
1.648	83.15
1.66	83.3
1.672	83.22
1.684	83.35
1.696	83.27
1.708	83.36
1.72	83.29
1.732	83.3
1.744	83.26
1.756	83.14
1.768	83.17
1.78	83.15
1.792	83.1
1.804	83.16
1.816	82.93
1.828	83.05
1.84	82.89
1.852	82.76
1.864	82.4
1.876	81.32
1.888	79.91
1.9	77.61
1.912	76.32
1.924	76.08
1.936	76.18
1.948	76.55
1.96	76.87
1.972	77.64
1.984	78.36
1.996	79.08
2.008	79.75
2.02	80.24
2.032	80.84
2.044	81
2.056	81.21
2.068	81.41
2.08	81.48
2.092	81.3
2.104	81.17
2.116	81.4
2.128	81.07
2.14	80.83
2.152	79.73
2.164	78.13
2.176	75.31
2.188	72.26
2.2	72.25
2.212	74.74
2.224	77.01
2.236	78.03
2.248	78.53
2.26	78.77
2.272	78.83
2.284	78.46
2.296	77.5
2.308	76.27
2.32	74.87
2.332	73.85
2.344	73.33
2.356	73.82
2.368	74.07
2.38	74.06
2.392	73.58
2.404	72.85
2.416	71.75
2.428	70.74
2.44	70.23
2.452	70.12
2.464	70.04
2.476	70.09
2.488	70.17
2.5	70.57
