Name: Diopside CaMg(SiO_3)_2
Type: Mineral
Class: Silicate
Subclass: Inosilicate
Particle Size: Medium
Sample No.: IN-9B
Owner: JPL
Wavelength Range: VSWIR
Origin: Canada, Quebec.
Description: Particle size was 45-125um.Collected by:  Ward's Original ASTER Spectral Library name was jpl.perkin.mineral.silicate.inosilicate.medium.in09b.spectrum.txt
Measurement: Hemispherical reflectance
X Units: Wavelength (micrometers)
Y Units: Reflectance (percent)
wavelength	value
2.5	43.8933
2.494	43.6177
2.488	43.7629
2.482	43.7155
2.476	43.5126
2.47	43.4586
2.464	43.4516
2.458	43.4901
2.452	43.3354
2.446	43.3418
2.44	43.419
2.434	43.4458
2.428	43.4094
2.422	43.5326
2.416	43.4002
2.41	43.2379
2.404	42.9271
2.398	42.7071
2.392	42.5115
2.386	42.5826
2.38	42.7116
2.374	43.0811
2.368	43.2979
2.362	43.4549
2.356	43.5376
2.35	43.4349
2.344	43.2448
2.338	42.6901
2.332	42.0277
2.326	41.3352
2.32	40.7792
2.314	40.5553
2.308	40.8756
2.302	41.4287
2.296	42.1163
2.29	42.6137
2.284	43.378
2.278	44.036
2.272	44.4943
2.266	44.8026
2.26	44.937
2.254	45.0652
2.248	45.168
2.242	45.266
2.236	45.4289
2.23	45.5901
2.224	45.8732
2.218	46.0271
2.212	46.3302
2.206	46.4567
2.2	46.7263
2.194	46.8886
2.188	46.985
2.182	47.2664
2.176	47.3143
2.17	47.5432
2.164	47.7729
2.158	47.9349
2.152	48.142
2.146	48.3455
2.14	48.3704
2.134	48.3941
2.128	48.4706
2.122	48.4459
2.116	48.3578
2.11	48.2918
2.104	48.25
2.098	48.2587
2.092	48.4151
2.086	48.5898
2.08	48.6971
2.074	48.8662
2.068	48.9688
2.062	49.1241
2.056	49.2507
2.05	49.3606
2.044	49.4973
2.038	49.5371
2.032	49.6025
2.026	49.6355
2.02	49.6533
2.014	49.6873
2.008	49.7654
2.002	49.7289
1.996	49.7061
1.99	49.7261
1.984	49.6152
1.978	49.4973
1.972	49.5162
1.966	49.4796
1.96	49.4623
1.954	49.5156
1.948	49.5166
1.942	49.452
1.936	49.4608
1.93	49.3466
1.924	49.1884
1.918	49.1164
1.912	49.1207
1.906	49.3245
1.9	49.9969
1.894	50.7033
1.888	51.3039
1.882	51.6269
1.876	51.9428
1.87	52.0692
1.864	52.218
1.858	52.2795
1.852	52.324
1.846	52.384
1.84	52.3959
1.834	52.3941
1.828	52.3856
1.822	52.4504
1.816	52.4337
1.81	52.4302
1.804	52.4455
1.798	52.431
1.792	52.4341
1.786	52.4732
1.78	52.4614
1.774	52.4051
1.768	52.4305
1.762	52.4141
1.756	52.3709
1.75	52.3597
1.744	52.4031
1.738	52.3587
1.732	52.3949
1.726	52.3203
1.72	52.2563
1.714	52.2736
1.708	52.2159
1.702	52.1379
1.696	52.1424
1.69	51.9887
1.684	52.0138
1.678	51.9627
1.672	51.8024
1.666	51.8235
1.66	51.8339
1.654	51.6939
1.648	51.6227
1.642	51.6466
1.636	51.5413
1.63	51.4514
1.624	51.4072
1.618	51.3398
1.612	51.2273
1.606	51.1864
1.6	51.1534
1.594	51.0208
1.588	50.9283
1.582	50.8168
1.576	50.7352
1.57	50.6269
1.564	50.5619
1.558	50.3933
1.552	50.3103
1.546	50.1887
1.54	50.0369
1.534	49.9429
1.528	49.7981
1.522	49.6951
1.516	49.5316
1.51	49.4363
1.504	49.3074
1.498	49.1203
1.492	48.9569
1.486	48.8207
1.48	48.6984
1.474	48.5775
1.468	48.3555
1.462	48.1712
1.456	48.028
1.45	47.8451
1.444	47.6931
1.438	47.4897
1.432	47.2814
1.426	47.1359
1.42	46.875
1.414	46.3883
1.408	46.0267
1.402	45.7153
1.396	44.5181
1.39	45.0033
1.384	46.3109
1.378	46.0614
1.372	46.0512
1.366	46.0081
1.36	45.8179
1.354	45.5624
1.348	45.3186
1.342	45.1847
1.336	44.9512
1.33	44.7116
1.324	44.4846
1.318	44.2076
1.312	43.968
1.306	43.7342
1.3	43.499
1.294	43.1458
1.288	42.9172
1.282	42.6801
1.276	42.3991
1.27	42.2153
1.264	41.8466
1.258	41.6257
1.252	41.3132
1.246	41.0784
1.24	40.7712
1.234	40.4324
1.228	40.1093
1.222	39.8838
1.216	39.5173
1.21	39.2255
1.204	38.9005
1.198	38.5388
1.192	38.2528
1.186	37.8631
1.18	37.4565
1.174	37.058
1.168	36.6488
1.162	36.2734
1.156	35.7623
1.15	35.3123
1.144	34.761
1.138	34.2767
1.132	33.7039
1.126	33.1769
1.12	32.5417
1.114	31.9525
1.108	31.3181
1.102	30.7756
1.096	30.1615
1.09	29.6129
1.084	29.1338
1.078	28.6794
1.072	28.3974
1.066	28.1774
1.06	27.9571
1.054	27.8337
1.048	27.8141
1.042	27.8383
1.036	27.9704
1.03	28.1544
1.024	28.3229
1.018	28.5966
1.012	28.8882
1.006	29.2159
1	29.6272
0.994	29.9345
0.988	30.3525
0.982	30.6965
0.976	31.0006
0.97	31.3583
0.964	31.6931
0.958	31.909
0.952	32.2332
0.946	32.4789
0.94	32.6994
0.934	32.8833
0.928	33.1062
0.922	33.2172
0.916	33.3742
0.91	33.458
0.904	33.6377
0.898	33.7359
0.892	33.8219
0.886	33.9202
0.88	34.0361
0.874	34.07
0.868	34.1771
0.862	34.3359
0.856	34.5522
0.85	34.619
0.844	34.7136
0.838	34.7922
0.832	34.85
0.826	34.8795
0.82	34.8985
0.814	34.9128
0.808	34.8419
0.802	34.7994
0.796	34.6743
0.79	34.4997
0.784	34.3483
0.778	34.1264
0.772	33.906
0.766	33.6658
0.76	33.4176
0.754	33.1786
0.748	32.9307
0.742	32.7167
0.736	32.4851
0.73	32.2968
0.724	32.1173
0.718	31.9635
0.712	31.8144
0.706	31.6841
0.7	31.5612
0.694	31.4651
0.688	31.3689
0.682	31.292
0.676	31.204
0.67	31.1253
0.664	31.0544
0.658	30.9782
0.652	30.9052
0.646	30.8348
0.64	30.761
0.634	30.6963
0.628	30.6259
0.622	30.5739
0.616	30.5162
0.61	30.4718
0.604	30.4275
0.598	30.402
0.592	30.3871
0.586	30.3393
0.58	30.2956
0.574	30.2278
0.568	30.1587
0.562	30.0648
0.556	29.9208
0.55	29.7535
0.544	29.5574
0.538	29.3202
0.532	29.0087
0.526	28.6175
0.52	28.1286
0.514	27.5054
0.508	26.8015
0.502	26.1311
0.496	25.4298
0.49	24.7022
0.484	23.9453
0.478	23.331
0.472	22.8321
0.466	22.4131
0.46	22.0476
0.454	21.659
0.448	21.1403
0.442	20.4245
0.436	19.5587
0.43	18.6344
0.424	17.8072
0.418	17.0442
0.412	16.4549
0.406	15.9645
0.4	15.4682
