Name: Olivine (Fo92) (Fe+2,Mg)2SiO4
Type: Mineral
Class: Silicate
Subclass: Nesosilicate
Particle Size: Coarse
Sample No.: olivine_12
Owner: JHU
Wavelength Range: TIR
Origin: Ward's Natural Science Establishment.
Description: The hand sample consisted of small, translucent green beads of green olivine a few millimeters in diameter.  Under the microscope, the sample appeared to be pure forsterite. Particle size was 75 - 250  Micrometers.(Isolated tetrahedra); (Olivine Group) Original ASTER Spectral Library name was jhu.nicolet.mineral.silicate.nesosilicate.coarse.olivi12.spectrum.txt
Measurement: Bidirectional reflectance
X Units: Wavelength (micrometers)
Y Units: Reflectance (percent)
wavelength	value
25.0442	6.5283
24.3388	8.9668
23.6719	10.4089
23.0407	7.7781
22.4422	6.863
21.8741	3.7847
21.334	3.9988
20.8199	2.8164
20.33	3.4153
19.8627	5.9765
19.4163	6.5815
18.9896	8.4448
18.5812	6.643
18.19	6.4858
17.815	5.5735
17.4551	4.1206
17.1094	2.3325
16.7772	1.3325
16.4576	1.4961
16.15	2.1333
15.8537	2.7312
15.568	2.3474
15.2925	1.3501
15.0265	1.0312
14.7697	1.0635
14.5214	1.1594
14.2814	1.2766
14.0492	1.4058
13.8244	1.5444
13.6067	1.6633
13.3957	1.8025
13.1912	1.8816
12.9929	2.0264
12.8004	2.1899
12.6135	2.312
12.432	2.512
12.2557	2.741
12.0843	3.1123
11.9176	3.5967
11.7555	3.5185
11.5977	4.3706
11.444	6.3408
11.2944	7.6667
11.1487	8.7224
11.0067	9.9572
10.8682	10.9804
10.7332	11.5693
10.6015	11.885
10.473	11.0017
10.3476	7.3342
10.2251	7.4243
10.1056	8.1802
9.9887	6.8154
9.8746	6.1333
9.763	5.2681
9.6539	4.5769
9.5472	4.5544
9.4429	4.8723
9.3408	4.9402
9.2409	3.352
9.1431	2.165
9.0474	1.4231
8.9536	0.9646
8.8618	0.7297
8.7718	0.7615
8.6837	0.8726
8.5973	0.957
8.5126	1.0229
8.4295	1.0637
8.3481	1.1843
8.2682	1.2539
8.1898	1.3144
8.1129	1.4558
8.0374	1.5825
7.9634	1.6821
7.8906	1.7292
7.8192	1.7183
7.7491	1.7412
7.6802	1.7717
7.6126	1.741
7.5461	1.7373
7.4807	1.8354
7.4165	1.9888
7.3534	2.1208
7.2914	2.2866
7.2303	2.3235
7.1703	2.407
7.1113	2.5237
7.0533	2.5383
6.9962	2.7607
6.94	3.0408
6.8847	3.2461
6.8302	3.2353
6.7767	3.2888
6.7239	3.5456
6.672	3.762
6.6209	3.9016
6.5705	3.8789
6.5209	3.8638
6.4721	3.8916
6.424	3.9089
6.3766	3.9507
6.3299	3.97
6.2838	3.874
6.2385	3.897
6.1937	3.9338
6.1496	3.8799
6.1062	3.635
6.0633	3.0835
6.0211	2.4365
5.9794	2.2664
5.9383	2.2876
5.8978	2.2512
5.8578	2.2187
5.8184	2.251
5.7794	2.3335
5.741	2.3108
5.7031	2.0823
5.6657	1.8696
5.6288	1.7363
5.5924	1.7815
5.5564	2.1101
5.5209	2.3018
5.4859	2.3489
5.4513	2.3486
5.4171	2.4407
5.3833	2.5913
5.35	2.7234
5.3171	2.7959
5.2846	2.8393
5.2524	2.8447
5.2207	2.8457
5.1893	2.9856
5.1584	3.1677
5.1277	3.4172
5.0975	3.6274
5.0676	3.7593
5.038	3.8003
5.0088	3.7607
4.98	3.6601
4.9514	3.5503
4.9232	3.7107
4.8953	4.1052
4.8678	4.6995
4.8405	5.1416
4.8135	5.3708
4.7868	5.5193
4.7605	5.6282
4.7344	5.7095
4.7086	5.7849
4.6831	5.8547
4.6578	5.9226
4.6328	5.9839
4.6081	6.0469
4.5837	6.1135
4.5595	6.1938
4.5356	6.271
4.5119	6.3406
4.4884	6.4072
4.4652	6.4824
4.4423	6.5422
4.4196	6.6091
4.3971	6.667
4.3748	6.7317
4.3528	6.8017
4.331	6.864
4.3094	6.9097
4.288	6.9538
4.2668	7.0124
4.2458	7.0881
4.2251	7.1711
4.2045	7.2444
4.1841	7.2959
4.164	7.3562
4.144	7.4204
4.1242	7.4731
4.1046	7.5212
4.0852	7.57
4.066	7.6133
4.047	7.6216
4.0281	7.6145
4.0094	7.6318
3.9909	7.7019
3.9725	7.7783
3.9544	7.8547
3.9363	7.8994
3.9185	7.9482
3.9008	7.9746
3.8833	8.0024
3.8659	8.0185
3.8487	8.0403
3.8316	8.0681
3.8147	8.1111
3.7979	8.156
3.7813	8.2178
3.7648	8.2793
3.7485	8.3254
3.7323	8.3786
3.7162	8.4333
3.7003	8.4858
3.6845	8.5473
3.6689	8.5837
3.6534	8.6303
3.638	8.6738
3.6227	8.7214
3.6076	8.7822
3.5926	8.8281
3.5777	8.873
3.563	8.9021
3.5484	8.9424
3.5338	8.9646
3.5195	9.0058
3.5052	9.0378
3.491	9.0757
3.477	9.1091
3.463	9.1469
3.4492	9.1609
3.4355	9.1865
3.4219	9.2068
3.4084	9.2234
3.395	9.2409
3.3817	9.2649
3.3685	9.2942
3.3554	9.3122
3.3425	9.3484
3.3296	9.3801
3.3168	9.4123
3.3041	9.4524
3.2915	9.4846
3.279	9.5227
3.2666	9.5456
3.2543	9.5591
3.2421	9.582
3.23	9.601
3.218	9.6106
3.206	9.6299
3.1942	9.6467
3.1824	9.6653
3.1707	9.6797
3.1591	9.6845
3.1476	9.6936
3.1362	9.7038
3.1249	9.7112
3.1136	9.7251
3.1024	9.7378
3.0913	9.7351
3.0803	9.7434
3.0694	9.7612
3.0585	9.7749
3.0477	9.7842
3.037	9.7968
3.0264	9.8027
3.0158	9.8027
3.0053	9.7956
2.9949	9.8086
2.9845	9.8364
2.9743	9.8232
2.9641	9.8198
2.9539	9.8384
2.9439	9.8354
2.9339	9.8357
2.9239	9.8425
2.9141	9.8462
2.9043	9.8567
2.8946	9.8623
2.8849	9.8847
2.8753	9.8794
2.8658	9.8916
2.8563	9.9052
2.8469	9.8945
2.8375	9.8972
2.8282	9.9104
2.819	9.9238
2.8098	9.9289
2.8007	9.9319
2.7917	9.9717
2.7827	9.9709
2.7738	10.0049
2.7649	10.0197
2.7561	10.0317
2.7473	10.0925
2.7386	10.0942
2.7299	10.1374
2.7213	10.1418
2.7128	10.1863
2.7043	10.2187
2.6959	10.2356
2.6875	10.2751
2.6791	10.2925
2.6709	10.2834
2.6626	10.3213
2.6545	10.333
2.6463	10.3564
2.6382	10.3459
2.6302	10.3225
2.6222	10.3547
2.6143	10.3728
2.6064	10.3408
2.5986	10.3806
2.5908	10.376
2.583	10.3794
2.5753	10.3786
2.5677	10.3755
2.5601	10.3879
2.5525	10.3738
2.545	10.3933
2.5375	10.414
2.5301	10.3874
2.5227	10.3864
2.5154	10.3818
2.5081	10.4055
2.5008	10.4096
2.4936	10.416
2.4864	10.4216
2.4793	10.407
2.4722	10.4299
2.4651	10.4121
2.4581	10.4175
2.4511	10.4301
2.4442	10.4223
2.4373	10.426
2.4305	10.4299
2.4236	10.4345
2.4169	10.4489
2.4101	10.4526
2.4034	10.4487
2.3967	10.4538
2.3901	10.4472
2.3835	10.4587
2.377	10.4551
2.3704	10.4707
2.364	10.4575
2.3575	10.4428
2.3511	10.467
2.3447	10.4692
2.3384	10.4394
2.3321	10.4526
2.3258	10.4482
2.3195	10.4721
2.3133	10.4912
2.3071	10.4634
2.301	10.4922
2.2949	10.4934
2.2888	10.4907
2.2828	10.4843
2.2767	10.4853
2.2708	10.4804
2.2648	10.4985
2.2589	10.5166
2.253	10.5215
2.2471	10.5166
2.2413	10.4834
2.2355	10.53
2.2297	10.5205
2.224	10.4751
2.2183	10.5019
2.2126	10.5156
2.207	10.5205
2.2013	10.5046
2.1957	10.5034
2.1902	10.5078
2.1846	10.5078
2.1791	10.5146
2.1736	10.497
2.1682	10.5542
2.1628	10.5473
2.1574	10.5532
2.152	10.5417
2.1466	10.4834
2.1413	10.5056
2.136	10.5288
2.1308	10.5241
2.1255	10.5508
2.1203	10.5439
2.1151	10.4966
2.11	10.5547
2.1048	10.5363
2.0997	10.5354
2.0946	10.5429
2.0895	10.5732
2.0845	10.5813
2.0795	10.5366
