Name: Rhodonite (Mn,Ca)SiO_3
Type: Mineral
Class: Silicate
Subclass: Inosilicate
Particle Size: Medium
Sample No.: IN-1A
Owner: JPL
Wavelength Range: VSWIR
Origin: USA, California, Fresno County.
Description: Particle size was 45-125umCollected by:  Burminco Original ASTER Spectral Library name was jpl.perkin.mineral.silicate.inosilicate.medium.in01a.spectrum.txt
Measurement: Hemispherical reflectance
X Units: Wavelength (micrometers)
Y Units: Reflectance (percent)
wavelength	value
2.5	52.9194
2.494	52.6501
2.488	52.6241
2.482	52.7015
2.476	52.522
2.47	52.6427
2.464	52.8029
2.458	52.6894
2.452	52.6757
2.446	52.765
2.44	52.7341
2.434	52.6561
2.428	52.7192
2.422	52.6038
2.416	52.6623
2.41	52.6842
2.404	52.5711
2.398	52.5339
2.392	52.6009
2.386	52.4337
2.38	52.4181
2.374	52.3643
2.368	52.2838
2.362	52.2489
2.356	52.204
2.35	52.2025
2.344	52.1587
2.338	52.1782
2.332	52.1413
2.326	52.1076
2.32	52.0159
2.314	52.0448
2.308	52.0099
2.302	51.9791
2.296	52.0454
2.29	51.9295
2.284	51.924
2.278	51.9703
2.272	52.0163
2.266	51.9155
2.26	51.8967
2.254	51.9661
2.248	52.0277
2.242	52.0536
2.236	52.128
2.23	52.2206
2.224	52.1859
2.218	52.2436
2.212	52.4898
2.206	52.472
2.2	52.7501
2.194	52.7405
2.188	52.8275
2.182	52.967
2.176	52.9665
2.17	53.16
2.164	53.3361
2.158	53.427
2.152	53.6584
2.146	53.6577
2.14	53.8134
2.134	53.7131
2.128	53.7741
2.122	53.6734
2.116	53.543
2.11	53.5128
2.104	53.4476
2.098	53.4488
2.092	53.6249
2.086	53.724
2.08	53.8443
2.074	53.977
2.068	54.1062
2.062	54.2992
2.056	54.4645
2.05	54.6316
2.044	54.7352
2.038	54.8722
2.032	54.9682
2.026	55.0841
2.02	55.1463
2.014	55.3029
2.008	55.414
2.002	55.4358
1.996	55.5543
1.99	55.6461
1.984	55.6531
1.978	55.6621
1.972	55.7419
1.966	55.7495
1.96	55.8405
1.954	55.907
1.948	55.9996
1.942	56.133
1.936	56.1639
1.93	56.2428
1.924	56.3076
1.918	56.4056
1.912	56.6558
1.906	56.9344
1.9	57.459
1.894	57.9309
1.888	58.4027
1.882	58.7343
1.876	58.9103
1.87	59.1163
1.864	59.3157
1.858	59.4543
1.852	59.5734
1.846	59.6787
1.84	59.731
1.834	59.8473
1.828	59.8433
1.822	59.9014
1.816	59.9781
1.81	59.9824
1.804	60.0489
1.798	60.0141
1.792	60.0336
1.786	60.0152
1.78	59.8719
1.774	59.9174
1.768	59.8955
1.762	59.7713
1.756	59.7622
1.75	59.7032
1.744	59.7176
1.738	59.5855
1.732	59.5707
1.726	59.4823
1.72	59.4402
1.714	59.32
1.708	59.1748
1.702	59.0475
1.696	58.9152
1.69	58.8461
1.684	58.7805
1.678	58.613
1.672	58.4764
1.666	58.366
1.66	58.2651
1.654	58.0837
1.648	58.0052
1.642	57.9249
1.636	57.7512
1.63	57.6349
1.624	57.5681
1.618	57.3934
1.612	57.2163
1.606	57.1821
1.6	57.0747
1.594	56.9498
1.588	56.8751
1.582	56.717
1.576	56.6022
1.57	56.5115
1.564	56.4593
1.558	56.3769
1.552	56.2661
1.546	56.1858
1.54	56.1599
1.534	56.0615
1.528	55.9734
1.522	55.9252
1.516	55.8943
1.51	55.7953
1.504	55.7733
1.498	55.6333
1.492	55.7214
1.486	55.5622
1.48	55.6315
1.474	55.5071
1.468	55.473
1.462	55.4228
1.456	55.4325
1.45	55.3237
1.444	55.3104
1.438	55.2395
1.432	55.1318
1.426	55.1073
1.42	54.9326
1.414	54.9143
1.408	54.7619
1.402	54.8457
1.396	54.9893
1.39	54.959
1.384	54.7705
1.378	54.6884
1.372	54.4681
1.366	54.315
1.36	54.0428
1.354	53.7918
1.348	53.4861
1.342	53.2334
1.336	52.9067
1.33	52.612
1.324	52.2432
1.318	51.8896
1.312	51.4322
1.306	50.9616
1.3	50.4806
1.294	50.0017
1.288	49.4493
1.282	48.8364
1.276	48.3331
1.27	47.6917
1.264	47.0049
1.258	46.3593
1.252	45.624
1.246	44.9422
1.24	44.2678
1.234	43.5326
1.228	42.7557
1.222	42.0057
1.216	41.2639
1.21	40.4404
1.204	39.7158
1.198	38.9359
1.192	38.1724
1.186	37.3942
1.18	36.6179
1.174	35.8752
1.168	35.1485
1.162	34.3643
1.156	33.7511
1.15	32.9886
1.144	32.2758
1.138	31.6263
1.132	30.9648
1.126	30.3418
1.12	29.7492
1.114	29.1475
1.108	28.5839
1.102	28.0879
1.096	27.5036
1.09	27.028
1.084	26.8471
1.078	26.3719
1.072	26.0852
1.066	25.8295
1.06	25.6433
1.054	25.4514
1.048	25.4152
1.042	25.3649
1.036	25.4468
1.03	25.5834
1.024	25.8459
1.018	26.0972
1.012	26.4794
1.006	26.8368
1	27.3078
0.994	27.9088
0.988	28.5375
0.982	29.2257
0.976	29.9937
0.97	30.8033
0.964	31.6898
0.958	32.6804
0.952	33.7233
0.946	34.82
0.94	35.9862
0.934	37.216
0.928	38.4272
0.922	39.7149
0.916	41.0906
0.91	42.4508
0.904	43.8365
0.898	45.1417
0.892	46.5448
0.886	47.8477
0.88	49.0775
0.874	50.3616
0.868	51.5268
0.862	52.6305
0.856	54.302
0.85	55.3603
0.844	56.2717
0.838	57.129
0.832	57.9211
0.826	58.5112
0.82	59.1706
0.814	59.6502
0.808	60.0075
0.802	60.3537
0.796	60.5379
0.79	60.6617
0.784	60.7456
0.778	60.7784
0.772	60.7507
0.766	60.6809
0.76	60.5528
0.754	60.4599
0.748	60.3011
0.742	60.1212
0.736	59.9062
0.73	59.7106
0.724	59.5097
0.718	59.2746
0.712	59.0535
0.706	58.8035
0.7	58.572
0.694	58.3244
0.688	58.0446
0.682	57.76
0.676	57.4638
0.67	57.11
0.664	56.7334
0.658	56.3347
0.652	55.8982
0.646	55.4555
0.64	54.9494
0.634	54.4242
0.628	53.8387
0.622	53.1998
0.616	52.4712
0.61	51.615
0.604	50.6449
0.598	49.5154
0.592	48.2254
0.586	46.7499
0.58	45.1129
0.574	43.3974
0.568	41.6874
0.562	40.0847
0.556	38.6439
0.55	37.5138
0.544	36.749
0.538	36.3746
0.532	36.2993
0.526	36.4345
0.52	36.7113
0.514	36.9802
0.508	37.1638
0.502	37.1536
0.496	37.1485
0.49	36.849
0.484	36.3036
0.478	35.8138
0.472	35.377
0.466	34.7407
0.46	33.9289
0.454	33.3365
0.448	32.8337
0.442	31.8689
0.436	30.5068
0.43	28.9941
0.424	28.0905
0.418	26.558
0.412	24.5592
0.406	25.9571
0.4	28.8386
