Name: Howlite Ca_2B_5SiO_9(OH)_5
Type: Mineral
Class: Borate
Subclass: None
Particle Size: Medium
Sample No.: B-5A
Owner: JPL
Wavelength Range: VSWIR
Origin: USA, California, San Gabriel Mountains, Tick Canyon
Description: Particle size was 45-125um.Collected by Burminco Original ASTER Spectral Library name was jpl.beckman.mineral.borate.none.medium.b05.spectrum.txt
Measurement: Hemispherical reflectance
X Units: Wavelength (micrometers)
Y Units: Reflectance (percent)
wavelength	value
0.4	71.37
0.403	71.76
0.406	72.05
0.409	72.68
0.412	72.97
0.415	73.25
0.418	73.6
0.421	73.65
0.424	73.94
0.427	73.88
0.43	74.29
0.433	74.35
0.436	74.74
0.439	74.68
0.442	74.97
0.445	75.03
0.448	74.97
0.451	75.26
0.454	75.44
0.457	75.72
0.46	75.79
0.463	75.85
0.466	75.85
0.469	75.81
0.472	75.98
0.475	76.09
0.478	76.16
0.481	76.16
0.484	76.57
0.487	76.4
0.49	76.58
0.493	76.59
0.496	77.05
0.499	76.71
0.502	77.28
0.505	77.1
0.508	77.22
0.511	77.28
0.514	77.39
0.517	77.39
0.52	77.22
0.523	77.45
0.526	77.28
0.529	77.39
0.532	77.39
0.535	77.57
0.538	77.57
0.541	77.74
0.544	77.62
0.547	77.91
0.55	77.74
0.553	77.8
0.556	77.74
0.559	77.85
0.562	77.8
0.565	78.43
0.568	77.91
0.571	78.26
0.574	78.03
0.577	78.2
0.58	78.03
0.583	78.14
0.586	78.2
0.589	77.8
0.592	77.97
0.595	78.03
0.598	78.2
0.601	77.8
0.604	78.49
0.607	78.43
0.61	78.37
0.613	78.71
0.616	78.71
0.619	78.94
0.622	78.55
0.625	78.88
0.628	78.37
0.631	78.71
0.634	78.49
0.637	78.77
0.64	78.49
0.643	78.66
0.646	78.49
0.649	78.37
0.652	78.77
0.655	78.49
0.658	79
0.661	78.49
0.664	78.82
0.667	78.77
0.67	78.82
0.673	78.55
0.676	78.55
0.679	78.6
0.682	78.66
0.685	78.66
0.688	78.6
0.691	78.49
0.694	78.82
0.697	78.55
0.7	78.55
0.703	78.66
0.706	78.43
0.709	78.55
0.712	78.77
0.715	78.43
0.718	78.43
0.721	78.26
0.724	78.66
0.727	78.26
0.73	78.31
0.733	77.97
0.736	78.14
0.739	77.97
0.742	78.37
0.745	78.08
0.748	78.14
0.751	77.85
0.754	78.2
0.757	78.03
0.76	78.03
0.763	78.31
0.766	77.97
0.769	78.26
0.772	78.14
0.775	78.2
0.778	78.2
0.781	78.37
0.784	77.8
0.787	77.97
0.79	77.97
0.793	78.2
0.796	78.08
0.799	77.97
0.808	77.74
0.82	77.74
0.832	77.74
0.844	77.68
0.856	77.74
0.868	77.85
0.88	77.91
0.892	77.85
0.904	77.8
0.916	77.57
0.928	77.45
0.94	77.28
0.952	76.88
0.964	76.48
0.976	75.85
0.988	76.65
1	77.28
1.012	77.45
1.024	77.57
1.036	77.62
1.048	77.74
1.06	77.62
1.072	77.68
1.084	77.62
1.096	77.68
1.108	77.62
1.12	77.74
1.132	77.57
1.144	77.57
1.156	77.5
1.168	77.36
1.18	77.24
1.192	77.1
1.204	76.8
1.216	76.23
1.228	75.43
1.24	75.26
1.252	75.49
1.264	75.63
1.276	75.74
1.288	75.76
1.3	75.41
1.312	74.31
1.324	71.55
1.336	70.5
1.348	71.51
1.36	71.56
1.372	69.74
1.384	66.54
1.396	62.03
1.408	59.13
1.42	53.48
1.432	48.17
1.444	53.22
1.456	57.74
1.468	57.63
1.48	59
1.492	58.89
1.504	57.74
1.516	57.97
1.528	61.51
1.54	62.77
1.552	62.77
1.564	61.97
1.576	60.89
1.588	59.8
1.6	58.83
1.612	58.19
1.624	57.77
1.636	57.7
1.648	57.97
1.66	58.36
1.672	58.74
1.684	59.13
1.696	59.68
1.708	60.02
1.72	60.6
1.732	61.16
1.744	61.68
1.756	62.02
1.768	62.36
1.78	62.59
1.792	62.77
1.804	62.69
1.816	62.68
1.828	62.79
1.84	62.79
1.852	62.51
1.864	62.21
1.876	61.79
1.888	61.5
1.9	61.2
1.912	60.73
1.924	60.31
1.936	59.85
1.948	59.54
1.96	59.05
1.972	58.39
1.984	57.27
1.996	55.99
2.008	54.64
2.02	53.49
2.032	53.48
2.044	52.95
2.056	49.93
2.068	44.22
2.08	37.67
2.092	32.27
2.104	27.93
2.116	24.51
2.128	23.73
2.14	23.95
2.152	23.58
2.164	24.94
2.176	27.73
2.188	29.82
2.2	30.46
2.212	29.62
2.224	28.35
2.236	27.99
2.248	29.51
2.26	31.66
2.272	33.01
2.284	33.42
2.296	34.03
2.308	35.37
2.32	36.78
2.332	37.19
2.344	36.5
2.356	35.35
2.368	33.75
2.38	31.08
2.392	27.27
2.404	23
2.416	19.23
2.428	16.29
2.44	14.46
2.452	14.17
2.464	15.5
2.476	17.82
2.488	20.53
2.5	21.57
