Name: Johannsenite Ca(Mn,Fe^2+)(SiO_3)_2
Type: Mineral
Class: Silicate
Subclass: Inosilicate
Particle Size: Medium
Sample No.: IN-12A
Owner: JPL
Wavelength Range: VSWIR
Origin: USA, Arizona, Graham County, Aravaipa.
Description: Particle size was 45-125um.Collected by:  Burminco Original ASTER Spectral Library name was jpl.perkin.mineral.silicate.inosilicate.medium.in12a.spectrum.txt
Measurement: Hemispherical reflectance
X Units: Wavelength (micrometers)
Y Units: Reflectance (percent)
wavelength	value
2.5	30.0545
2.494	29.9821
2.488	30.222
2.482	30.4009
2.476	30.6866
2.47	30.895
2.464	31.3491
2.458	31.6095
2.452	31.7732
2.446	32.0506
2.44	32.3008
2.434	32.5273
2.428	32.7674
2.422	32.9197
2.416	33.1817
2.41	33.3394
2.404	33.5032
2.398	33.5789
2.392	33.8123
2.386	34.0866
2.38	34.2803
2.374	34.5902
2.368	34.7827
2.362	34.9685
2.356	35.0962
2.35	35.1784
2.344	35.1765
2.338	35.1567
2.332	35.1228
2.326	35.0118
2.32	34.8728
2.314	34.6352
2.308	34.304
2.302	34.0559
2.296	33.8516
2.29	33.7829
2.284	33.9528
2.278	34.1192
2.272	34.324
2.266	34.4348
2.26	34.5367
2.254	34.6337
2.248	34.6835
2.242	34.6433
2.236	34.7369
2.23	34.5979
2.224	34.6276
2.218	34.5973
2.212	34.5874
2.206	34.7131
2.2	34.7317
2.194	34.6903
2.188	34.6176
2.182	34.5742
2.176	34.5056
2.17	34.4922
2.164	34.3917
2.158	34.3195
2.152	34.289
2.146	34.0648
2.14	33.9088
2.134	33.7246
2.128	33.4932
2.122	33.2075
2.116	32.8753
2.11	32.5783
2.104	32.2828
2.098	31.99
2.092	31.86
2.086	31.63
2.08	31.4591
2.074	31.3331
2.068	31.1407
2.062	30.9192
2.056	30.7123
2.05	30.4963
2.044	30.2998
2.038	30.0174
2.032	29.7929
2.026	29.5798
2.02	29.2264
2.014	29.0193
2.008	28.6474
2.002	28.4196
1.996	27.9955
1.99	27.6944
1.984	27.3279
1.978	27.0244
1.972	26.772
1.966	26.4723
1.96	26.259
1.954	25.9387
1.948	25.6837
1.942	25.3374
1.936	25.0936
1.93	24.8165
1.924	24.4871
1.918	24.2257
1.912	24.0181
1.906	24.1001
1.9	24.924
1.894	25.9001
1.888	26.6256
1.882	26.9952
1.876	27.2102
1.87	27.1947
1.864	27.1862
1.858	27.0645
1.852	26.9107
1.846	26.7298
1.84	26.6909
1.834	26.476
1.828	26.3313
1.822	26.2045
1.816	25.9675
1.81	25.7997
1.804	25.6006
1.798	25.4809
1.792	25.3049
1.786	25.1068
1.78	25.0235
1.774	24.7429
1.768	24.6421
1.762	24.4704
1.756	24.3649
1.75	24.1653
1.744	24.0717
1.738	23.8778
1.732	23.6567
1.726	23.4944
1.72	23.3214
1.714	23.1809
1.708	23.0421
1.702	22.8766
1.696	22.6864
1.69	22.467
1.684	22.2875
1.678	22.1465
1.672	21.9984
1.666	21.8268
1.66	21.5835
1.654	21.4654
1.648	21.1959
1.642	21.1534
1.636	20.8652
1.63	20.7505
1.624	20.5439
1.618	20.3567
1.612	20.2881
1.606	20.0318
1.6	19.8706
1.594	19.719
1.588	19.5526
1.582	19.3721
1.576	19.1853
1.57	19.0034
1.564	18.7941
1.558	18.6889
1.552	18.4971
1.546	18.261
1.54	18.0963
1.534	17.9853
1.528	17.7704
1.522	17.5729
1.516	17.4379
1.51	17.192
1.504	17.0916
1.498	16.8696
1.492	16.6966
1.486	16.4821
1.48	16.281
1.474	16.1197
1.468	15.9386
1.462	15.7843
1.456	15.6105
1.45	15.4057
1.444	15.2386
1.438	15.0256
1.432	14.8924
1.426	14.7195
1.42	14.5002
1.414	14.4203
1.408	14.2806
1.402	14.2097
1.396	13.9921
1.39	13.9096
1.384	13.8567
1.378	13.6285
1.372	13.4952
1.366	13.4414
1.36	13.1324
1.354	13.0027
1.348	12.6816
1.342	12.6136
1.336	12.387
1.33	12.2673
1.324	12.0872
1.318	11.8853
1.312	11.7847
1.306	11.6162
1.3	11.4651
1.294	11.2519
1.288	11.1017
1.282	10.949
1.276	10.7391
1.27	10.6256
1.264	10.4897
1.258	10.3704
1.252	10.2438
1.246	10.0554
1.24	9.9536
1.234	9.8433
1.228	9.7966
1.222	9.6003
1.216	9.5631
1.21	9.4225
1.204	9.3698
1.198	9.2967
1.192	9.2033
1.186	9.1534
1.18	9.0593
1.174	8.9403
1.168	8.8949
1.162	8.8772
1.156	8.8204
1.15	8.7722
1.144	8.6827
1.138	8.6484
1.132	8.6611
1.126	8.5851
1.12	8.5569
1.114	8.4254
1.108	8.4822
1.102	8.3531
1.096	8.3503
1.09	8.3441
1.084	8.2614
1.078	8.3181
1.072	8.101
1.066	8.1262
1.06	8.0778
1.054	7.9779
1.048	7.952
1.042	7.8678
1.036	7.8522
1.03	7.7894
1.024	7.6797
1.018	7.6339
1.012	7.5925
1.006	7.5895
1	7.4285
0.994	7.3959
0.988	7.4333
0.982	7.3932
0.976	7.3353
0.97	7.2285
0.964	7.2485
0.958	7.2092
0.952	7.2717
0.946	7.2335
0.94	7.1505
0.934	7.2172
0.928	7.1566
0.922	7.164
0.916	7.1998
0.91	7.1657
0.904	7.179
0.898	7.169
0.892	7.1321
0.886	7.1509
0.88	7.1233
0.874	7.1603
0.868	7.0599
0.862	7.0579
0.856	7.2374
0.85	7.1855
0.844	7.1318
0.838	7.0718
0.832	7.0135
0.826	6.9718
0.82	6.9201
0.814	6.8749
0.808	6.8209
0.802	6.7827
0.796	6.7319
0.79	6.7031
0.784	6.665
0.778	6.6335
0.772	6.5988
0.766	6.5721
0.76	6.5518
0.754	6.5279
0.748	6.5006
0.742	6.483
0.736	6.4558
0.73	6.4409
0.724	6.4143
0.718	6.4032
0.712	6.39
0.706	6.3743
0.7	6.3692
0.694	6.3502
0.688	6.3417
0.682	6.3173
0.676	6.2964
0.67	6.2662
0.664	6.2305
0.658	6.1876
0.652	6.1444
0.646	6.1015
0.64	6.0569
0.634	6.0075
0.628	5.9624
0.622	5.9164
0.616	5.8706
0.61	5.8242
0.604	5.7814
0.598	5.7379
0.592	5.694
0.586	5.643
0.58	5.5863
0.574	5.5224
0.568	5.4473
0.562	5.3602
0.556	5.2766
0.55	5.1828
0.544	5.0846
0.538	4.9821
0.532	4.8798
0.526	4.7787
0.52	4.6794
0.514	4.5912
0.508	4.5081
0.502	4.4302
0.496	4.369
0.49	4.3053
0.484	4.2641
0.478	4.2157
0.472	4.1657
0.466	4.122
0.46	4.0878
0.454	4.0574
0.448	4.0351
0.442	4.0196
0.436	3.9963
0.43	3.9762
0.424	3.9495
0.418	3.9317
0.412	3.9188
0.406	3.9076
0.4	3.9028
