Name: Cummingtonite (Mg,Fe^2+)_7Si_8O_22(OH)_2
Type: Mineral
Class: Silicate
Subclass: Inosilicate
Particle Size: Coarse
Sample No.: IN-6A
Owner: JPL
Wavelength Range: TIR
Origin: USA, South Dakota
Description: Particle size was 125-500um.Collected by Ward's Original ASTER Spectral Library name was jpl.nicolet.mineral.silicate.inosilicate.coarse.in06a.spectrum.txt
Measurement: Hemispherical reflectance
X Units: Wavelength (micrometers)
Y Units: Reflectance (percent)
wavelength	value
15.3853	2.8681
15.1161	2.7604
14.8563	2.8054
14.6052	2.9625
14.3624	2.8764
14.1276	2.9123
13.9004	2.4638
13.6803	2.7669
13.4671	3.1808
13.2604	3.4431
13.06	3.8911
12.8656	4.2039
12.6769	3.1441
12.4936	3.7104
12.3155	3.5201
12.1425	3.8696
11.9742	4.3107
11.8106	4.826
11.6513	5.7754
11.4963	6.619
11.3454	6.6058
11.1983	6.5605
11.0551	6.6077
10.9154	6.6558
10.7793	6.6194
10.6465	8.0163
10.5169	10.227
10.3904	12.8302
10.267	13.6262
10.1464	13.8767
10.0287	16.2929
9.9136	18.2841
9.8012	18.6906
9.6913	18.5701
9.5838	17.6119
9.4787	15.6212
9.3758	13.6932
9.2752	10.7935
9.1767	13.1202
9.0803	12.6323
8.9858	9.9107
8.8934	9.2347
8.8028	9.7756
8.714	9.3306
8.627	6.8196
8.5417	5.7342
8.4581	5.2944
8.3761	5.0701
8.2957	4.8369
8.2169	4.7317
8.1395	4.1103
8.0635	3.4385
7.989	2.9309
7.9158	2.3639
7.8439	2.2404
7.7734	2.2885
7.7041	2.2736
7.636	2.2247
7.5691	2.3245
7.5034	2.2883
7.4388	2.3063
7.3753	2.3304
7.3129	2.3758
7.2515	2.5691
7.1912	2.5972
7.1318	2.8473
7.0734	2.8049
7.016	2.8913
6.9595	3.0596
6.9039	3.0825
6.8492	3.1717
6.7953	3.2234
6.7423	3.1715
6.6901	3.2161
6.6387	3.5922
6.5881	3.4326
6.5382	3.3963
6.4892	3.6638
6.4408	3.5278
6.3931	3.4667
6.3462	3.2512
6.2999	3.1321
6.2543	3.064
6.2094	2.9397
6.1651	2.9706
6.1214	3.0476
6.0784	2.9738
6.0359	2.9079
5.994	3.0223
5.9527	3.079
5.912	3.0583
5.8718	3.2055
5.8322	3.2131
5.7931	3.1994
5.7545	3.1054
5.7165	3.1376
5.6789	3.1334
5.6418	3.15
5.6052	3.1284
5.5691	3.0361
5.5334	3.0696
5.4982	3.1774
5.4635	3.3354
5.4291	3.2598
5.3952	3.2482
5.3618	3.3533
5.3287	3.3084
5.2961	3.3141
5.2638	3.4173
5.2319	3.686
5.2004	3.7659
5.1693	3.7792
5.1386	3.8371
5.1082	3.9154
5.0782	3.9583
5.0485	4.0135
5.0192	4.0523
4.9902	4.2062
4.9616	4.2604
4.9332	4.3465
4.9052	4.5981
4.8776	4.6662
4.8502	4.932
4.8231	4.9392
4.7963	5.0037
4.7699	4.9762
4.7437	5.1605
4.7178	5.1413
4.6922	5.1598
4.6668	5.1993
4.6418	5.2881
4.617	5.4023
4.5924	5.4948
4.5681	5.3861
4.5441	5.5008
4.5203	5.6485
4.4968	5.529
4.4735	5.4682
4.4505	5.5367
4.4277	5.6222
4.4051	5.5853
4.3828	5.7719
4.3607	5.8197
4.3388	5.8965
4.3171	5.8911
4.2956	5.7782
4.2744	5.9906
4.2534	5.9127
4.2325	6.0377
4.2119	5.9046
4.1915	5.912
4.1712	6.0464
4.1512	6.0119
4.1313	6.0595
4.1117	6.0634
4.0922	6.0333
4.0729	6.1577
4.0538	6.0564
4.0349	6.0267
4.0161	6.101
3.9976	6.0576
3.9792	6.0467
3.9609	6.1576
3.9428	6.1437
3.9249	6.0934
3.9072	6.1486
3.8896	6.2276
3.8722	6.1638
3.8549	6.2197
3.8378	6.2213
3.8208	6.1013
3.804	6.1628
3.7873	6.1383
3.7708	6.2352
3.7544	6.1505
3.7382	6.1774
3.7221	6.1745
3.7061	6.2477
3.6903	6.198
3.6746	6.1562
3.659	6.2304
3.6436	6.1396
3.6283	6.1906
3.6131	6.2977
3.5981	6.1769
3.5832	6.0912
3.5684	6.1083
3.5537	6.2005
3.5391	6.1373
3.5247	6.0344
3.5104	6.1464
3.4962	5.9833
3.4821	6.0703
3.4681	6.0472
3.4543	5.9272
3.4405	6.0017
3.4269	6.0164
3.4133	5.8349
3.3999	5.8986
3.3866	5.8436
3.3733	5.8418
3.3602	5.6854
3.3472	5.7699
3.3343	5.8008
3.3215	5.6712
3.3088	5.7708
3.2961	5.6235
3.2836	5.6001
3.2712	5.5809
3.2588	5.3614
3.2466	5.5937
3.2345	5.4204
3.2224	5.3138
3.2104	5.3899
3.1985	5.2238
3.1867	5.2397
3.175	5.1153
3.1634	5.0644
3.1519	4.9389
3.1404	4.8566
3.129	4.8394
3.1178	4.7938
3.1065	4.7377
3.0954	4.6915
3.0844	4.6404
3.0734	4.63
3.0625	4.3994
3.0517	4.5969
3.041	4.4654
3.0303	4.2328
3.0197	4.2246
3.0092	4.2619
2.9987	4.3209
2.9884	4.3008
2.9781	4.1669
2.9678	4.0474
2.9577	4.1364
2.9476	3.8761
2.9376	4.1188
2.9276	4.0847
2.9177	3.9767
2.9079	4.1309
2.8982	3.9698
2.8885	4.1819
2.8789	4.2554
2.8693	4.0427
2.8598	4.0749
2.8504	3.9973
2.841	3.8803
2.8317	4.0644
2.8224	3.9737
2.8133	3.8289
2.8041	3.9602
2.7951	3.9198
2.786	3.9712
2.7771	4.0044
2.7682	4.0785
2.7594	4.33
2.7506	4.0588
2.7418	4.4013
2.7332	4.5811
2.7246	4.8973
2.716	5.2061
2.7075	5.3644
2.699	5.5419
2.6906	5.5885
2.6823	5.9109
2.674	6.0446
2.6657	5.9692
2.6575	5.9975
2.6494	5.9618
2.6413	6.0701
2.6332	5.9452
2.6252	5.8909
2.6173	5.7659
2.6094	5.9691
2.6015	5.9558
2.5937	5.883
2.5859	6.0884
2.5782	5.8924
2.5706	5.9202
2.5629	5.9979
2.5554	5.8973
2.5478	5.7657
2.5403	5.8934
2.5329	5.9485
2.5255	5.9091
2.5181	5.9449
2.5108	5.8269
2.5035	5.8095
2.4963	6.0043
2.4891	5.868
2.482	6.0592
2.4749	5.9
2.4678	5.9021
2.4608	5.8833
2.4538	6.0164
2.4468	5.9036
2.4399	5.9238
2.4331	5.9219
2.4262	5.9644
2.4194	5.9782
2.4127	6.0705
2.4059	5.9384
2.3993	6.0331
2.3926	6.1503
2.386	5.9687
2.3795	6.0904
2.3729	6.0606
2.3664	6.1427
2.36	6.0095
2.3535	6.1582
2.3471	6.0223
2.3408	6.0994
2.3345	6.0851
2.3282	6.3019
2.3219	6.0698
2.3157	6.2238
2.3095	6.1851
2.3034	6.3266
2.2972	6.2643
2.2911	6.3795
2.2851	6.5421
2.279	6.3632
2.2731	6.5268
2.2671	6.525
2.2612	6.3569
2.2553	6.4974
2.2494	6.391
2.2435	6.732
2.2377	6.7344
2.232	6.8736
2.2262	6.589
2.2205	6.6631
2.2148	6.6253
2.2091	6.6763
2.2035	6.9657
2.1979	6.6047
2.1923	6.7
2.1868	6.7917
2.1812	7.0024
2.1758	6.788
2.1703	6.8965
2.1649	6.9553
2.1595	7.2822
2.1541	6.7203
2.1487	6.8297
2.1434	7.0639
2.1381	7.1071
2.1328	7.2428
2.1275	6.7801
2.1223	7.0135
2.1171	7.111
2.112	7.2626
2.1068	6.9851
2.1017	7.0485
2.0966	7.016
2.0915	6.9452
2.0865	7.3186
2.0814	7.0059
2.0764	6.8337
2.0715	7.0916
2.0665	7.4547
2.0616	7.1338
2.0567	7.0575
2.0518	7.249
2.0469	7.3077
2.0421	7.2524
2.0373	7.2802
2.0325	7.1946
2.0277	7.436
2.0229	7.3544
2.0182	7.2997
2.0135	7.2847
2.0088	7.6065
2.0042	7.4316
