Name: Anglesite PbSO_4
Type: Mineral
Class: Sulfate
Subclass: None
Particle Size: Medium
Sample No.: SO-10A
Owner: JPL
Wavelength Range: VSWIR
Origin: USA, Arizona, Santa Cruz County, Glove Mine.
Description: Particle size was 45-125um.Collected by:  JPL Original ASTER Spectral Library name was jpl.perkin.mineral.sulfate.none.medium.so10a.spectrum.txt
Measurement: Hemispherical reflectance
X Units: Wavelength (micrometers)
Y Units: Reflectance (percent)
wavelength	value
2.5	45.2012
2.494	45.3565
2.488	45.2947
2.482	45.2079
2.476	45.1559
2.47	45.2563
2.464	45.274
2.458	45.0877
2.452	45.1894
2.446	45.1448
2.44	45.2268
2.434	45.2661
2.428	45.1514
2.422	45.2687
2.416	45.3543
2.41	45.4234
2.404	45.386
2.398	45.4239
2.392	45.4576
2.386	45.5429
2.38	45.5302
2.374	45.6063
2.368	45.6665
2.362	45.6958
2.356	45.737
2.35	45.7624
2.344	45.805
2.338	45.7266
2.332	45.7424
2.326	45.7222
2.32	45.6076
2.314	45.6677
2.308	45.5978
2.302	45.5807
2.296	45.5497
2.29	45.5015
2.284	45.5668
2.278	45.4614
2.272	45.4769
2.266	45.4262
2.26	45.3955
2.254	45.3869
2.248	45.3475
2.242	45.3229
2.236	45.3178
2.23	45.4382
2.224	45.3481
2.218	45.4394
2.212	45.4995
2.206	45.5171
2.2	45.6161
2.194	45.5522
2.188	45.5511
2.182	45.6025
2.176	45.6483
2.17	45.6899
2.164	45.774
2.158	45.8384
2.152	45.9003
2.146	45.8915
2.14	45.902
2.134	45.739
2.128	45.6623
2.122	45.4806
2.116	45.3989
2.11	45.2519
2.104	45.0649
2.098	44.949
2.092	44.9651
2.086	44.9652
2.08	44.9893
2.074	45.0267
2.068	45.0565
2.062	45.0589
2.056	45.1353
2.05	45.127
2.044	45.1539
2.038	45.1244
2.032	45.1461
2.026	45.1254
2.02	45.1703
2.014	45.0235
2.008	45.0582
2.002	44.9973
1.996	45.0562
1.99	44.996
1.984	44.8832
1.978	44.7755
1.972	44.829
1.966	44.7562
1.96	44.7892
1.954	44.7007
1.948	44.6743
1.942	44.7564
1.936	44.6796
1.93	44.6596
1.924	44.6371
1.918	44.8055
1.912	44.8036
1.906	44.8994
1.9	45.0035
1.894	44.9435
1.888	45.0521
1.882	45.0273
1.876	45.1188
1.87	44.9754
1.864	45.074
1.858	45.0499
1.852	45.1366
1.846	45.0858
1.84	45.0935
1.834	45.1085
1.828	45.0747
1.822	45.0668
1.816	45.08
1.81	45.0869
1.804	45.0847
1.798	45.0774
1.792	45.0012
1.786	45.0354
1.78	45.0007
1.774	44.9539
1.768	44.9858
1.762	45.0198
1.756	44.9504
1.75	44.9965
1.744	44.9277
1.738	44.9653
1.732	44.9548
1.726	44.9434
1.72	44.9637
1.714	44.9074
1.708	44.9331
1.702	44.8836
1.696	44.8425
1.69	44.8897
1.684	44.8779
1.678	44.8611
1.672	44.8272
1.666	44.8004
1.66	44.841
1.654	44.8298
1.648	44.8334
1.642	44.7834
1.636	44.8134
1.63	44.7383
1.624	44.8179
1.618	44.6849
1.612	44.7181
1.606	44.7505
1.6	44.748
1.594	44.7343
1.588	44.7118
1.582	44.6959
1.576	44.6885
1.57	44.6523
1.564	44.6663
1.558	44.6248
1.552	44.5652
1.546	44.6088
1.54	44.6131
1.534	44.5618
1.528	44.4956
1.522	44.5406
1.516	44.4921
1.51	44.5135
1.504	44.5055
1.498	44.4455
1.492	44.4378
1.486	44.41
1.48	44.3789
1.474	44.394
1.468	44.3686
1.462	44.2723
1.456	44.301
1.45	44.2563
1.444	44.1846
1.438	44.2932
1.432	44.27
1.426	44.2395
1.42	44.2072
1.414	44.1659
1.408	44.1223
1.402	44.1607
1.396	44.2261
1.39	44.215
1.384	44.1051
1.378	44.1102
1.372	44.1634
1.366	44.0662
1.36	44.0349
1.354	44.0187
1.348	43.9636
1.342	43.9759
1.336	43.8991
1.33	43.8748
1.324	43.8418
1.318	43.7849
1.312	43.7654
1.306	43.6809
1.3	43.6616
1.294	43.5702
1.288	43.4856
1.282	43.433
1.276	43.3698
1.27	43.3114
1.264	43.2216
1.258	43.0717
1.252	42.9267
1.246	42.8961
1.24	42.6958
1.234	42.5888
1.228	42.3532
1.222	42.1734
1.216	42.0459
1.21	41.8523
1.204	41.6643
1.198	41.481
1.192	41.2916
1.186	41.1259
1.18	40.8697
1.174	40.6593
1.168	40.4627
1.162	40.3437
1.156	40.0981
1.15	39.9345
1.144	39.7669
1.138	39.6488
1.132	39.4767
1.126	39.3601
1.12	39.1764
1.114	39.0175
1.108	38.9899
1.102	38.8555
1.096	38.6979
1.09	38.6761
1.084	38.5106
1.078	38.3429
1.072	38.3092
1.066	38.1576
1.06	37.9937
1.054	37.8736
1.048	37.7756
1.042	37.6335
1.036	37.6249
1.03	37.4726
1.024	37.3608
1.018	37.3038
1.012	37.1153
1.006	37.0565
1	36.9792
0.994	36.7985
0.988	36.7025
0.982	36.6021
0.976	36.4708
0.97	36.3756
0.964	36.23
0.958	36.1476
0.952	36.0583
0.946	35.904
0.94	35.7712
0.934	35.6278
0.928	35.5535
0.922	35.4182
0.916	35.351
0.91	35.1925
0.904	35.0622
0.898	34.9305
0.892	34.815
0.886	34.7155
0.88	34.5647
0.874	34.4733
0.868	34.3456
0.862	34.1495
0.856	34.2963
0.85	34.1512
0.844	34.0549
0.838	33.9458
0.832	33.8193
0.826	33.6919
0.82	33.5023
0.814	33.4153
0.808	33.2854
0.802	33.1816
0.796	32.9848
0.79	32.8622
0.784	32.7274
0.778	32.6008
0.772	32.4421
0.766	32.3073
0.76	32.1735
0.754	32.0412
0.748	31.8826
0.742	31.7418
0.736	31.5735
0.73	31.4217
0.724	31.2614
0.718	31.0911
0.712	30.9114
0.706	30.7351
0.7	30.5534
0.694	30.3721
0.688	30.1735
0.682	29.987
0.676	29.7975
0.67	29.6139
0.664	29.4254
0.658	29.2333
0.652	29.0513
0.646	28.853
0.64	28.6703
0.634	28.4886
0.628	28.2977
0.622	28.1036
0.616	27.9188
0.61	27.7245
0.604	27.5215
0.598	27.325
0.592	27.1204
0.586	26.8825
0.58	26.6479
0.574	26.3999
0.568	26.1311
0.562	25.867
0.556	25.5816
0.55	25.2965
0.544	24.9896
0.538	24.689
0.532	24.3617
0.526	24.0336
0.52	23.6972
0.514	23.3501
0.508	23.0171
0.502	22.6763
0.496	22.3581
0.49	22.054
0.484	21.7479
0.478	21.4844
0.472	21.2591
0.466	21.051
0.46	20.8769
0.454	20.7217
0.448	20.5632
0.442	20.3934
0.436	20.2071
0.43	20.0082
0.424	19.8008
0.418	19.6168
0.412	19.4401
0.406	19.2801
0.4	19.1271
