Name: Kyanite Al2SiO5
Type: Mineral
Class: Silicate
Subclass: Nesosilicate
Particle Size: Coarse
Sample No.: kyanite_1
Owner: JHU
Wavelength Range: TIR
Origin: Brazil (?) via the Smithsonian (sample no. NMNH 139740)
Description: The sample consisted of two blue crystals, each about 1.5 cm x 0.4 cm x 0.4 cm in size.  Both displayed a very small amount of brown coating (limonite), which could be scraped off or picked out after initial crushing of the crystals.  Under the microscope, the resulting sample appears pure and unaltered. Particle size was 75-250 micrometers.(Isolated Tetrahedra); (Al2SiO5 Group) Original ASTER Spectral Library name was jhu.nicolet.mineral.silicate.phyllosilicate.coarse.kyanit1.spectrum.txt
Measurement: Bidirectional reflectance
X Units: Wavelength (micrometers)
Y Units: Reflectance (percent)
wavelength	value
25.0442	6.0893
24.3388	5.6816
23.6719	7.1443
23.0407	9.5078
22.4422	9.9687
21.8741	7.7158
21.334	9.2221
20.8199	6.3013
20.33	6.7178
19.8627	8.1155
19.4163	9.2317
18.9896	9.6811
18.5812	8.6513
18.19	9.5388
17.815	4.9348
17.4551	7.147
17.1094	8.0679
16.7772	8.9682
16.4576	8.5512
16.15	11.2444
15.8537	10.5715
15.568	12.9807
15.2925	9.8667
15.0265	8.7075
14.7697	10.738
14.5214	11.9731
14.2814	12.6299
14.0492	10.4087
13.8244	7.8991
13.6067	8.8103
13.3957	7.0049
13.1912	5.3313
12.9929	4.8867
12.8004	3.7993
12.6135	2.3877
12.432	1.6602
12.2557	1.8101
12.0843	2.104
11.9176	2.4216
11.7555	2.7224
11.5977	3.0652
11.444	3.594
11.2944	4.02
11.1487	4.7678
11.0067	4.5613
10.8682	4.626
10.7332	6.1079
10.6015	7.4746
10.473	8.1767
10.3476	9.5639
10.2251	10.6841
10.1056	9.4214
9.9887	7.9463
9.8746	9.8625
9.763	11.7776
9.6539	12.5158
9.5472	12.6706
9.4429	11.8076
9.3408	10.9968
9.2409	10.7302
9.1431	10.2636
9.0474	8.9834
8.9536	7.2187
8.8618	5.3017
8.7718	3.5476
8.6837	2.113
8.5973	1.0662
8.5126	0.5054
8.4295	0.4626
8.3481	0.6516
8.2682	0.8503
8.1898	1.0259
8.1129	1.2122
8.0374	1.3696
7.9634	1.5293
7.8906	1.6843
7.8192	1.8386
7.7491	1.9546
7.6802	2.0869
7.6126	2.2051
7.5461	2.29
7.4807	2.3784
7.4165	2.4304
7.3534	2.522
7.2914	2.6284
7.2303	2.7009
7.1703	2.7363
7.1113	2.802
7.0533	2.8513
6.9962	2.8718
6.94	2.8892
6.8847	2.9018
6.8302	2.9587
6.7767	2.9578
6.7239	3.0063
6.672	3.1313
6.6209	3.238
6.5705	3.3901
6.5209	3.519
6.4721	3.6582
6.424	3.812
6.3766	3.9656
6.3299	4.1579
6.2838	4.2693
6.2385	4.3533
6.1937	4.4941
6.1496	4.6499
6.1062	4.8525
6.0633	5.1391
6.0211	5.3564
5.9794	5.5632
5.9383	5.9419
5.8978	6.3069
5.8578	6.5483
5.8184	6.6372
5.7794	6.6067
5.741	6.4971
5.7031	5.896
5.6657	4.7883
5.6288	4.2002
5.5924	3.8267
5.5564	3.5608
5.5209	3.3965
5.4859	3.2956
5.4513	3.2727
5.4171	3.2483
5.3833	3.2236
5.35	3.2341
5.3171	3.2561
5.2846	3.3306
5.2524	3.4021
5.2207	3.3889
5.1893	3.4082
5.1584	3.4578
5.1277	3.5608
5.0975	3.8765
5.0676	4.3083
5.038	4.7693
5.0088	5.269
4.98	5.7082
4.9514	6.1304
4.9232	6.6374
4.8953	7.0617
4.8678	7.5061
4.8405	8.0163
4.8135	8.529
4.7868	9.0644
4.7605	9.4941
4.7344	9.7656
4.7086	9.9514
4.6831	10.0818
4.6578	10.1855
4.6328	10.2829
4.6081	10.3601
4.5837	10.4084
4.5595	10.4658
4.5356	10.4953
4.5119	10.5241
4.4884	10.5727
4.4652	10.6008
4.4423	10.6303
4.4196	10.6645
4.3971	10.6867
4.3748	10.7129
4.3528	10.7207
4.331	10.7121
4.3094	10.6863
4.288	10.6418
4.2668	10.6272
4.2458	10.665
4.2251	10.7129
4.2045	10.7551
4.1841	10.778
4.164	10.7832
4.144	10.7827
4.1242	10.8017
4.1046	10.8156
4.0852	10.8488
4.066	10.8777
4.047	10.8933
4.0281	10.9126
4.0094	10.9345
3.9909	10.9614
3.9725	10.9746
3.9544	11.0029
3.9363	11.0307
3.9185	11.0542
3.9008	11.0803
3.8833	11.1064
3.8659	11.1245
3.8487	11.1401
3.8316	11.1379
3.8147	11.1264
3.7979	11.093
3.7813	11.0686
3.7648	11.0263
3.7485	10.9482
3.7323	10.8994
3.7162	10.8838
3.7003	10.8694
3.6845	10.8657
3.6689	10.8691
3.6534	10.8728
3.638	10.8496
3.6227	10.8459
3.6076	10.8298
3.5926	10.8017
3.5777	10.7654
3.563	10.7495
3.5484	10.7407
3.5338	10.7214
3.5195	10.7129
3.5052	10.6762
3.491	10.6919
3.477	10.7102
3.463	10.7251
3.4492	10.7221
3.4355	10.6999
3.4219	10.6718
3.4084	10.6806
3.395	10.718
3.3817	10.7231
3.3685	10.7617
3.3554	10.7842
3.3425	10.7966
3.3296	10.8171
3.3168	10.8254
3.3041	10.8227
3.2915	10.8244
3.279	10.8147
3.2666	10.7966
3.2543	10.7729
3.2421	10.7627
3.23	10.7544
3.218	10.7407
3.206	10.7114
3.1942	10.6914
3.1824	10.6801
3.1707	10.6601
3.1591	10.6469
3.1476	10.6203
3.1362	10.5971
3.1249	10.573
3.1136	10.5488
3.1024	10.5215
3.0913	10.4958
3.0803	10.4519
3.0694	10.3994
3.0585	10.3569
3.0477	10.3166
3.037	10.3359
3.0264	10.3073
3.0158	10.2859
3.0053	10.2441
2.9949	10.219
2.9845	10.1858
2.9743	10.1299
2.9641	10.0344
2.9539	9.8974
2.9439	9.9587
2.9339	9.8152
2.9239	9.7571
2.9141	9.6418
2.9043	9.5678
2.8946	9.5315
2.8849	9.5552
2.8753	9.6655
2.8658	9.8034
2.8563	9.9077
2.8469	10.0205
2.8375	10.0368
2.8282	10.0351
2.819	10.0517
2.8098	10.0573
2.8007	10.0708
2.7917	10.1064
2.7827	10.0688
2.7738	10.0791
2.7649	9.6245
2.7561	9.8427
2.7473	9.8833
2.7386	9.6015
2.7299	9.5124
2.7213	9.57
2.7128	9.7204
2.7043	9.6125
2.6959	10.2495
2.6875	10.6086
2.6791	10.7422
2.6709	10.8274
2.6626	10.8086
2.6545	10.8115
2.6463	10.7617
2.6382	10.7871
2.6302	10.79
2.6222	10.7549
2.6143	10.7541
2.6064	10.7365
2.5986	10.7363
2.5908	10.7158
2.583	10.7119
2.5753	10.7099
2.5677	10.6797
2.5601	10.6828
2.5525	10.6655
2.545	10.6467
2.5375	10.6257
2.5301	10.6172
2.5227	10.5952
2.5154	10.5625
2.5081	10.5669
2.5008	10.5771
2.4936	10.5437
2.4864	10.5036
2.4793	10.467
2.4722	10.4719
2.4651	10.4311
2.4581	10.4463
2.4511	10.4233
2.4442	10.4028
2.4373	10.4199
2.4305	10.3904
2.4236	10.3572
2.4169	10.3857
2.4101	10.3716
2.4034	10.3691
2.3967	10.3281
2.3901	10.3125
2.3835	10.3091
2.377	10.3193
2.3704	10.2988
2.364	10.27
2.3575	10.2927
2.3511	10.27
2.3447	10.2558
2.3384	10.2426
2.3321	10.2426
2.3258	10.2314
2.3195	10.2143
2.3133	10.2353
2.3071	10.2495
2.301	10.2473
2.2949	10.2353
2.2888	10.2241
2.2828	10.1899
2.2767	10.2597
2.2708	10.1916
2.2648	10.206
2.2589	10.2195
2.253	10.2339
2.2471	10.1943
2.2413	10.1931
2.2355	10.2121
2.2297	10.2436
2.224	10.2392
2.2183	10.1887
2.2126	10.209
2.207	10.1833
2.2013	10.1902
2.1957	10.188
2.1902	10.2043
2.1846	10.1936
2.1791	10.1799
2.1736	10.2265
2.1682	10.2402
2.1628	10.2129
2.1574	10.2295
2.152	10.2668
2.1466	10.2456
2.1413	10.259
2.136	10.2641
2.1308	10.2529
2.1255	10.2661
2.1203	10.2632
2.1151	10.2256
2.11	10.2871
2.1048	10.2444
2.0997	10.2573
2.0946	10.29
2.0895	10.289
2.0845	10.3108
2.0795	10.301
