Name: Analcime NaAlSi_2O_6.H_2O
Type: Mineral
Class: Silicate
Subclass: Tectosilicate
Particle Size: Fine
Sample No.: TS-18A
Owner: JPL
Wavelength Range: TIR
Description: Particle size was 0-45um.Collected by JPL Original ASTER Spectral Library name was jpl.nicolet.mineral.silicate.tectosilicate.fine.ts18a.spectrum.txt
Measurement: Hemispherical reflectance
X Units: Wavelength (micrometers)
Y Units: Reflectance (percent)
wavelength	value
15.3853	1.6711
15.1161	2.1106
14.8563	2.2146
14.6052	2.1832
14.3624	2.2997
14.1276	2.0854
13.9004	2.1947
13.6803	2.2978
13.4671	1.8395
13.2604	1.528
13.06	1.4302
12.8656	1.0433
12.6769	1.3413
12.4936	2.1323
12.3155	3.9655
12.1425	5.2262
11.9742	6.4778
11.8106	7.4908
11.6513	8.0347
11.4963	8.3363
11.3454	8.5809
11.1983	8.5115
11.0551	8.1254
10.9154	7.8736
10.7793	7.3071
10.6465	6.698
10.5169	6.0509
10.3904	5.8284
10.267	5.5771
10.1464	5.7283
10.0287	6.3888
9.9136	7.182
9.8012	7.9502
9.6913	8.5252
9.5838	9.3028
9.4787	9.7583
9.3758	9.2632
9.2752	7.5263
9.1767	5.7919
9.0803	5.0877
8.9858	4.9812
8.8934	5.0134
8.8028	4.7564
8.714	4.0557
8.627	3.2647
8.5417	2.8037
8.4581	2.0008
8.3761	1.4362
8.2957	0.7628
8.2169	0.2955
8.1395	0.0293
8.0635	0.0809
7.989	0.0088
7.9158	0.0638
7.8439	0.2702
7.7734	0.2876
7.7041	0.5357
7.636	0.731
7.5691	1.1225
7.5034	1.3136
7.4388	1.715
7.3753	2.1342
7.3129	2.6503
7.2515	2.9328
7.1912	3.2392
7.1318	3.6109
7.0734	3.8594
7.016	4.1556
6.9595	4.4695
6.9039	4.5738
6.8492	4.6982
6.7953	4.8452
6.7423	4.8582
6.6901	5.3279
6.6387	6.1256
6.5881	6.412
6.5382	6.7265
6.4892	6.8644
6.4408	6.1597
6.3931	5.4405
6.3462	5.0993
6.2999	4.5883
6.2543	3.8178
6.2094	2.7059
6.1651	1.3499
6.1214	0.876
6.0784	0.881
6.0359	1.7088
5.994	3.0292
5.9527	4.5312
5.912	5.5443
5.8718	6.4265
5.8322	7.1307
5.7931	7.4465
5.7545	7.8716
5.7165	8.3175
5.6789	8.6028
5.6418	9.1774
5.6052	9.6629
5.5691	10.2685
5.5334	10.8824
5.4982	11.8591
5.4635	13.0231
5.4291	13.7396
5.3952	14.4498
5.3618	15.074
5.3287	15.6211
5.2961	16.2579
5.2638	16.9029
5.2319	17.5195
5.2004	17.9837
5.1693	18.4235
5.1386	19.0412
5.1082	19.8315
5.0782	20.4735
5.0485	21.1251
5.0192	21.4483
4.9902	21.4387
4.9616	21.3523
4.9332	21.0953
4.9052	20.9689
4.8776	21.2272
4.8502	21.9116
4.8231	22.7565
4.7963	23.3601
4.7699	23.8094
4.7437	24.0957
4.7178	24.4757
4.6922	24.9495
4.6668	25.7793
4.6418	26.9182
4.617	28.3283
4.5924	29.7835
4.5681	31.5446
4.5441	33.1891
4.5203	34.7917
4.4968	36.4127
4.4735	37.8338
4.4505	39.4182
4.4277	41.2215
4.4051	43.2223
4.3828	45.3804
4.3607	47.3783
4.3388	49.2522
4.3171	50.9784
4.2956	52.7067
4.2744	54.2357
4.2534	55.5574
4.2325	56.5489
4.2119	57.9898
4.1915	59.0902
4.1712	60.2995
4.1512	61.2103
4.1313	62.0216
4.1117	62.8308
4.0922	63.6188
4.0729	64.2804
4.0538	64.926
4.0349	65.3642
4.0161	65.7591
3.9976	66.0859
3.9792	66.4073
3.9609	66.6512
3.9428	67.1528
3.9249	67.274
3.9072	67.5765
3.8896	67.6168
3.8722	67.7658
3.8549	67.7226
3.8378	67.7374
3.8208	67.5795
3.804	67.3149
3.7873	66.9883
3.7708	67.3051
3.7544	67.7214
3.7382	67.529
3.7221	67.4718
3.7061	67.1773
3.6903	66.8407
3.6746	66.4127
3.659	65.9242
3.6436	65.4505
3.6283	64.9727
3.6131	64.3793
3.5981	63.8845
3.5832	63.2941
3.5684	62.7259
3.5537	62.3329
3.5391	61.7306
3.5247	61.3115
3.5104	60.9779
3.4962	60.5185
3.4821	60.1365
3.4681	59.5492
3.4543	58.9558
3.4405	58.0271
3.4269	57.2628
3.4133	56.1582
3.3999	55.2764
3.3866	54.3648
3.3733	53.2538
3.3602	52.2665
3.3472	51.151
3.3343	49.9862
3.3215	48.9977
3.3088	47.7941
3.2961	46.5733
3.2836	45.4338
3.2712	44.2928
3.2588	43.1828
3.2466	41.9639
3.2345	40.6084
3.2224	39.3076
3.2104	37.9247
3.1985	36.3451
3.1867	34.9092
3.175	33.0802
3.1634	31.5493
3.1519	29.7377
3.1404	28.1608
3.129	26.1993
3.1178	24.0678
3.1065	21.7785
3.0954	19.2481
3.0844	17.3383
3.0734	15.8846
3.0625	14.7502
3.0517	14.3677
3.041	14.241
3.0303	13.9908
3.0197	13.5966
3.0092	13.2259
2.9987	12.3593
2.9884	11.8606
2.9781	10.8775
2.9678	10.2195
2.9577	9.3626
2.9476	8.6201
2.9376	7.6119
2.9276	6.792
2.9177	6.1698
2.9079	5.4473
2.8982	4.9914
2.8885	4.6296
2.8789	4.0754
2.8693	3.8189
2.8598	3.7588
2.8504	3.365
2.841	3.0064
2.8317	2.83
2.8224	2.8869
2.8133	2.4227
2.8041	2.5839
2.7951	2.5868
2.786	2.7072
2.7771	2.1394
2.7682	1.8866
2.7594	1.694
2.7506	2.3066
2.7418	3.4383
2.7332	5.9093
2.7246	7.4912
2.716	8.892
2.7075	12.4171
2.699	15.8675
2.6906	18.6149
2.6823	21.2516
2.674	23.1553
2.6657	25.7048
2.6575	26.8245
2.6494	28.2587
2.6413	30.1961
2.6332	31.4847
2.6252	32.0097
2.6173	33.0182
2.6094	32.8538
2.6015	32.6689
2.5937	32.7158
2.5859	31.4543
2.5782	30.4016
2.5706	29.2338
2.5629	27.8639
2.5554	25.9567
2.5478	24.9574
2.5403	24.4844
2.5329	24.68
2.5255	25.2448
2.5181	26.1443
2.5108	26.3496
2.5035	26.7993
2.4963	27.3801
2.4891	27.9672
2.482	29.0669
2.4749	30.4513
2.4678	32.3794
2.4608	34.3951
2.4538	36.9638
2.4468	39.6072
2.4399	42.7304
2.4331	46.0919
2.4262	49.2446
2.4194	52.4445
2.4127	55.2569
2.4059	57.4155
2.3993	59.4128
2.3926	61.2111
2.386	62.3854
2.3795	63.6409
2.3729	64.6931
2.3664	65.8001
2.36	66.5752
2.3535	67.1684
2.3471	67.7398
2.3408	68.484
2.3345	68.9441
2.3282	69.3039
2.3219	69.8793
2.3157	70.2769
2.3095	70.6969
2.3034	70.901
2.2972	71.4437
2.2911	71.9916
2.2851	72.4033
2.279	72.7319
2.2731	72.9565
2.2671	73.3179
2.2612	73.6306
2.2553	74.0242
2.2494	74.1645
2.2435	74.2854
2.2377	74.4267
2.232	74.4083
2.2262	74.6669
2.2205	74.9134
2.2148	74.8418
2.2091	74.8779
2.2035	75.1809
2.1979	75.1701
2.1923	74.9467
2.1868	74.9141
2.1812	75.1173
2.1758	74.6587
2.1703	74.7892
2.1649	74.6239
2.1595	74.2028
2.1541	73.8693
2.1487	73.4387
2.1434	73.1651
2.1381	73.3
2.1328	73.196
2.1275	73.3481
2.1223	73.6784
2.1171	74.0304
2.112	74.6359
2.1068	74.765
2.1017	75.7993
2.0966	75.7307
2.0915	76.1954
2.0865	76.7727
2.0814	76.8062
2.0764	76.7671
2.0715	77.065
2.0665	76.5923
2.0616	76.7728
2.0567	76.471
2.0518	77.058
2.0469	76.601
2.0421	76.5232
2.0373	76.4329
2.0325	76.5428
2.0277	76.1408
2.0229	76.0187
2.0182	76.2441
2.0135	75.9199
2.0088	75.779
2.0042	75.2931
