Name: Arsenopyrite FeAsS
Type: Mineral
Class: Sulfide
Subclass: None
Particle Size: Fine
Sample No.: S-5A
Owner: JPL
Wavelength Range: TIR
Origin: USA, Nevada, Lander County, Austin
Description: Particle size was 0-45um.Collected by Burminco Original ASTER Spectral Library name was jpl.nicolet.mineral.sulfide.none.fine.s05a.spectrum.txt
Measurement: Hemispherical reflectance
X Units: Wavelength (micrometers)
Y Units: Reflectance (percent)
wavelength	value
15.3853	8.2465
15.1161	8.059
14.8563	8.0365
14.6052	8.0307
14.3624	6.998
14.1276	8.0654
13.9004	8.382
13.6803	8.3657
13.4671	8.4319
13.2604	8.1315
13.06	7.8159
12.8656	7.5865
12.6769	7.1987
12.4936	7.3053
12.3155	6.6003
12.1425	7.1403
11.9742	7.4443
11.8106	7.6989
11.6513	8.0486
11.4963	8.1381
11.3454	8.2791
11.1983	8.4141
11.0551	8.574
10.9154	8.7437
10.7793	8.9476
10.6465	8.9803
10.5169	9.0506
10.3904	9.025
10.267	8.9793
10.1464	8.7756
10.0287	8.6781
9.9136	8.667
9.8012	8.5455
9.6913	8.4946
9.5838	8.7725
9.4787	9.4066
9.3758	11.5419
9.2752	13.217
9.1767	13.1865
9.0803	13.1362
8.9858	12.9361
8.8934	12.4563
8.8028	11.6885
8.714	11.186
8.627	9.8392
8.5417	11.1345
8.4581	11.2879
8.3761	11.3762
8.2957	11.6415
8.2169	12.2579
8.1395	11.8255
8.0635	10.636
7.989	9.7711
7.9158	9.307
7.8439	8.8251
7.7734	8.8467
7.7041	8.6464
7.636	8.6939
7.5691	8.7116
7.5034	8.6064
7.4388	8.67
7.3753	8.7364
7.3129	8.5275
7.2515	8.6067
7.1912	8.7162
7.1318	8.8419
7.0734	8.8157
7.016	8.8046
6.9595	8.8805
6.9039	8.7917
6.8492	8.9045
6.7953	8.7823
6.7423	8.6114
6.6901	8.7061
6.6387	9.0289
6.5881	8.6589
6.5382	8.6846
6.4892	9.2209
6.4408	8.8953
6.3931	9.0512
6.3462	9.034
6.2999	8.4993
6.2543	8.4293
6.2094	8.2535
6.1651	8.3183
6.1214	8.6986
6.0784	8.9144
6.0359	8.7385
5.994	8.9305
5.9527	8.6966
5.912	8.9888
5.8718	9.0932
5.8322	9.4033
5.7931	9.3812
5.7545	9.4431
5.7165	9.6557
5.6789	9.4512
5.6418	9.3833
5.6052	9.0619
5.5691	9.1061
5.5334	9.16
5.4982	9.3183
5.4635	9.4294
5.4291	9.3068
5.3952	9.0317
5.3618	8.5697
5.3287	8.5454
5.2961	8.7441
5.2638	8.855
5.2319	9.2785
5.2004	9.4431
5.1693	9.3975
5.1386	9.5066
5.1082	9.4422
5.0782	9.2952
5.0485	9.3233
5.0192	9.403
4.9902	9.4027
4.9616	9.6314
4.9332	9.6767
4.9052	9.8165
4.8776	10.0443
4.8502	10.1375
4.8231	10.2178
4.7963	10.2373
4.7699	10.2241
4.7437	10.2857
4.7178	10.3081
4.6922	10.2736
4.6668	10.3432
4.6418	10.3375
4.617	10.2158
4.5924	10.3104
4.5681	10.3306
4.5441	10.3668
4.5203	10.4603
4.4968	10.3669
4.4735	10.3404
4.4505	10.2917
4.4277	10.3039
4.4051	10.2987
4.3828	10.4486
4.3607	10.3708
4.3388	10.417
4.3171	10.391
4.2956	10.4131
4.2744	10.407
4.2534	10.4589
4.2325	10.3891
4.2119	10.497
4.1915	10.5526
4.1712	10.4867
4.1512	10.4662
4.1313	10.5825
4.1117	10.5814
4.0922	10.5826
4.0729	10.5306
4.0538	10.5993
4.0349	10.6575
4.0161	10.6109
3.9976	10.5439
3.9792	10.635
3.9609	10.6313
3.9428	10.6286
3.9249	10.6555
3.9072	10.6644
3.8896	10.5864
3.8722	10.6474
3.8549	10.6475
3.8378	10.7123
3.8208	10.8034
3.804	10.6942
3.7873	10.6594
3.7708	10.5171
3.7544	10.7089
3.7382	10.6991
3.7221	10.6579
3.7061	10.6338
3.6903	10.6692
3.6746	10.5632
3.659	10.4908
3.6436	10.5408
3.6283	10.5278
3.6131	10.5356
3.5981	10.5754
3.5832	10.4395
3.5684	10.5028
3.5537	10.6444
3.5391	10.5107
3.5247	10.4621
3.5104	10.423
3.4962	10.3289
3.4821	10.4636
3.4681	10.4295
3.4543	10.2068
3.4405	10.4887
3.4269	10.3234
3.4133	10.3478
3.3999	10.2729
3.3866	10.2877
3.3733	10.1077
3.3602	10.2009
3.3472	10.124
3.3343	9.9912
3.3215	9.9724
3.3088	9.9012
3.2961	10.0333
3.2836	9.917
3.2712	9.8638
3.2588	9.7889
3.2466	9.7623
3.2345	9.7011
3.2224	9.6659
3.2104	9.7393
3.1985	9.6458
3.1867	9.4511
3.175	9.5908
3.1634	9.3724
3.1519	9.3727
3.1404	9.4675
3.129	9.3461
3.1178	9.2175
3.1065	9.0931
3.0954	9.2161
3.0844	9.2248
3.0734	9.0507
3.0625	9.1166
3.0517	9.2494
3.041	9.1446
3.0303	9.0057
3.0197	9.0787
3.0092	9.0846
2.9987	9.0011
2.9884	8.9564
2.9781	8.8006
2.9678	8.7066
2.9577	8.9478
2.9476	8.9668
2.9376	8.8927
2.9276	9.1134
2.9177	9.0585
2.9079	9.1395
2.8982	9.2498
2.8885	9.2424
2.8789	9.2894
2.8693	9.3618
2.8598	9.4686
2.8504	9.5285
2.841	9.697
2.8317	9.8923
2.8224	9.8536
2.8133	9.9785
2.8041	9.9615
2.7951	10.1668
2.786	10.4113
2.7771	10.088
2.7682	10.7444
2.7594	10.4095
2.7506	10.6343
2.7418	10.9533
2.7332	10.7795
2.7246	10.959
2.716	10.899
2.7075	11.1044
2.699	10.9363
2.6906	11.1627
2.6823	11.0398
2.674	11.0512
2.6657	11.3834
2.6575	11.0069
2.6494	11.1208
2.6413	10.9609
2.6332	11.0402
2.6252	11.0792
2.6173	11.205
2.6094	10.9932
2.6015	10.9799
2.5937	11.2928
2.5859	11.0055
2.5782	11.0352
2.5706	10.9146
2.5629	11.2643
2.5554	11.0187
2.5478	10.8941
2.5403	11.0734
2.5329	10.9427
2.5255	10.9285
2.5181	11.0463
2.5108	10.9279
2.5035	11.1317
2.4963	10.7719
2.4891	10.9162
2.482	10.9664
2.4749	10.7981
2.4678	10.8645
2.4608	10.852
2.4538	10.8831
2.4468	10.8982
2.4399	10.9394
2.4331	10.9436
2.4262	10.8199
2.4194	11.0572
2.4127	10.8367
2.4059	10.8274
2.3993	11.0237
2.3926	10.8803
2.386	10.6625
2.3795	10.8651
2.3729	10.8186
2.3664	10.6755
2.36	11.0054
2.3535	10.6166
2.3471	10.9023
2.3408	10.9053
2.3345	10.8371
2.3282	10.5794
2.3219	11.0255
2.3157	10.6105
2.3095	10.8552
2.3034	10.7781
2.2972	10.9048
2.2911	10.7021
2.2851	10.7954
2.279	10.8252
2.2731	10.8075
2.2671	10.7438
2.2612	10.5459
2.2553	10.7138
2.2494	10.6712
2.2435	10.6746
2.2377	10.8058
2.232	10.6285
2.2262	10.6786
2.2205	10.3963
2.2148	10.744
2.2091	10.7726
2.2035	10.6297
2.1979	10.8195
2.1923	10.4295
2.1868	10.6669
2.1812	10.646
2.1758	10.7207
2.1703	10.6795
2.1649	10.7143
2.1595	10.9424
2.1541	10.4132
2.1487	10.8103
2.1434	10.4243
2.1381	10.7297
2.1328	10.5999
2.1275	10.5287
2.1223	10.6229
2.1171	10.2679
2.112	10.5828
2.1068	10.532
2.1017	10.1801
2.0966	10.4084
2.0915	10.3021
2.0865	10.6505
2.0814	10.4731
2.0764	10.3414
2.0715	10.5742
2.0665	10.435
2.0616	10.603
2.0567	10.5873
2.0518	10.3704
2.0469	10.4648
2.0421	10.7244
2.0373	10.4593
2.0325	10.7148
2.0277	10.224
2.0229	10.5742
2.0182	10.5139
2.0135	10.2394
2.0088	10.4924
2.0042	10.4346
