Name: Labradorite (Na,Ca)Al(Al,Si)Si2O8
Type: Mineral
Class: Silicate
Subclass: Tectosilicate
Particle Size: Solid
Sample No.: labrador_1
Owner: JHU
Wavelength Range: TIR
Origin: Lake County, Oregon, acquired from the Smithsonian (sampleno. NMNH 115500) via Dave Stewart, USGS
Description: The sample consisted of a 2 cm x 1 cm x 0.2 cm, 0.536 g portion, of a single transparent crystal.  The fragment seemed to have been sawn on one side.  A very, very small amount of iron oxide stain could be seen on the surface of the fragment and still less on the inside.  No impurities were detected under the microscope. Sample had Fractured Surface.(Framework Silicates); (Feldspar Group) Original ASTER Spectral Library name was jhu.nicolet.mineral.silicate.tectosilicate.solid.labrad1.spectrum.txt
Measurement: Bidirectional reflectance
X Units: Wavelength (micrometers)
Y Units: Reflectance (percent)
wavelength	value
25.0442	15.2724
24.3388	14.5713
23.6719	14.1709
23.0407	12.843
22.4422	9.4182
21.8741	8.8432
21.334	9.9419
20.8199	9.7605
20.33	9.3186
19.8627	9.6982
19.4163	10.2602
18.9896	10.9663
18.5812	13.3303
18.19	11.1406
17.815	9.3159
17.4551	10.0007
17.1094	8.8428
16.7772	9.6943
16.4576	11.2807
16.15	11.4048
15.8537	11.018
15.568	11.438
15.2925	9.4817
15.0265	7.6621
14.7697	7.9917
14.5214	7.8396
14.2814	7.7781
14.0492	7.9992
13.8244	8.4573
13.6067	8.8791
13.3957	8.8115
13.1912	8.6614
12.9929	8.5527
12.8004	8.1662
12.6135	7.9717
12.432	8.4475
12.2557	9.1108
12.0843	9.7771
11.9176	10.3606
11.7555	10.8869
11.5977	11.4333
11.444	12.2524
11.2944	13.5327
11.1487	15.2319
11.0067	16.9865
10.8682	18.5029
10.7332	19.2358
10.6015	19.4855
10.473	19.2758
10.3476	18.1794
10.2251	17.5346
10.1056	17.7563
9.9887	17.8747
9.8746	17.1311
9.763	15.9377
9.6539	14.809
9.5472	13.9301
9.4429	13.5149
9.3408	13.4201
9.2409	13.5556
9.1431	14.3862
9.0474	15.634
8.9536	16.4428
8.8618	16.437
8.7718	16.0505
8.6837	15.7038
8.5973	15.0463
8.5126	14.2378
8.4295	13.7336
8.3481	13.7129
8.2682	13.2717
8.1898	10.2368
8.1129	6.7014
8.0374	3.7761
7.9634	1.9226
7.8906	1.9844
7.8192	2.4443
7.7491	2.8423
7.6802	3.1457
7.6126	3.3332
7.5461	3.5657
7.4807	3.7349
7.4165	3.9099
7.3534	4.0329
7.2914	4.1308
7.2303	4.2925
7.1703	4.3982
7.1113	4.4924
7.0533	4.543
6.9962	4.6042
6.94	4.7053
6.8847	4.7839
6.8302	4.8608
6.7767	4.9023
6.7239	4.9973
6.672	5.0852
6.6209	5.1472
6.5705	5.1745
6.5209	5.2351
6.4721	5.2644
6.424	5.2693
6.3766	5.313
6.3299	5.3491
6.2838	5.3808
6.2385	5.3974
6.1937	5.4145
6.1496	5.4397
6.1062	5.4575
6.0633	5.4861
6.0211	5.4734
5.9794	5.4553
5.9383	5.4155
5.8978	5.4319
5.8578	5.4726
5.8184	5.4648
5.7794	5.5127
5.741	5.5525
5.7031	5.5483
5.6657	5.5698
5.6288	5.5842
5.5924	5.5957
5.5564	5.6125
5.5209	5.6348
5.4859	5.6487
5.4513	5.6611
5.4171	5.6684
5.3833	5.6821
5.35	5.6782
5.3171	5.6943
5.2846	5.6953
5.2524	5.707
5.2207	5.7114
5.1893	5.7156
5.1584	5.7109
5.1277	5.7185
5.0975	5.7104
5.0676	5.7051
5.038	5.7143
5.0088	5.7146
4.98	5.7163
4.9514	5.7197
4.9232	5.7209
4.8953	5.7222
4.8678	5.729
4.8405	5.7351
4.8135	5.7536
4.7868	5.7497
4.7605	5.7561
4.7344	5.7554
4.7086	5.7475
4.6831	5.7475
4.6578	5.7651
4.6328	5.7563
4.6081	5.761
4.5837	5.7637
4.5595	5.7622
4.5356	5.7539
4.5119	5.7527
4.4884	5.7541
4.4652	5.7483
4.4423	5.748
4.4196	5.7563
4.3971	5.759
4.3748	5.7656
4.3528	5.7673
4.331	5.7666
4.3094	5.7722
4.288	5.7729
4.2668	5.7759
4.2458	5.772
4.2251	5.7788
4.2045	5.7805
4.1841	5.7805
4.164	5.7776
4.144	5.7766
4.1242	5.7668
4.1046	5.758
4.0852	5.7505
4.066	5.748
4.047	5.74
4.0281	5.7236
4.0094	5.7148
3.9909	5.7043
3.9725	5.7016
3.9544	5.685
3.9363	5.6816
3.9185	5.6785
3.9008	5.6719
3.8833	5.6721
3.8659	5.6516
3.8487	5.6523
3.8316	5.6445
3.8147	5.6323
3.7979	5.6174
3.7813	5.6125
3.7648	5.5964
3.7485	5.5815
3.7323	5.571
3.7162	5.5591
3.7003	5.5373
3.6845	5.5246
3.6689	5.5046
3.6534	5.5012
3.638	5.4897
3.6227	5.4853
3.6076	5.4741
3.5926	5.4538
3.5777	5.4485
3.563	5.4238
3.5484	5.405
3.5338	5.3899
3.5195	5.385
3.5052	5.3623
3.491	5.2869
3.477	5.2468
3.463	5.2392
3.4492	5.2392
3.4355	5.2722
3.4219	5.2834
3.4084	5.1911
3.395	5.1396
3.3817	5.1599
3.3685	5.1299
3.3554	5.1394
3.3425	5.147
3.3296	5.1462
3.3168	5.1404
3.3041	5.1243
3.2915	5.0998
3.279	5.0857
3.2666	5.0737
3.2543	5.0437
3.2421	5.011
3.23	4.9783
3.218	4.9702
3.206	4.9309
3.1942	4.9079
3.1824	4.8789
3.1707	4.8454
3.1591	4.8125
3.1476	4.7825
3.1362	4.7632
3.1249	4.7256
3.1136	4.6916
3.1024	4.6633
3.0913	4.6206
3.0803	4.5901
3.0694	4.5745
3.0585	4.5351
3.0477	4.5027
3.037	4.4917
3.0264	4.4665
3.0158	4.4233
3.0053	4.4067
2.9949	4.4065
2.9845	4.373
2.9743	4.3506
2.9641	4.3337
2.9539	4.3057
2.9439	4.2961
2.9339	4.2634
2.9239	4.2251
2.9141	4.2126
2.9043	4.1826
2.8946	4.1592
2.8849	4.1545
2.8753	4.1186
2.8658	4.1059
2.8563	4.084
2.8469	4.0669
2.8375	4.0622
2.8282	4.0688
2.819	4.0654
2.8098	4.0654
2.8007	4.0383
2.7917	4.051
2.7827	4.0395
2.7738	4.0308
2.7649	4.0176
2.7561	4.001
2.7473	3.9971
2.7386	3.9809
2.7299	3.9829
2.7213	3.9302
2.7128	3.9282
2.7043	3.8899
2.6959	3.8428
2.6875	3.8398
2.6791	3.8149
2.6709	3.7607
2.6626	3.7678
2.6545	3.7385
2.6463	3.7241
2.6382	3.6938
2.6302	3.6267
2.6222	3.616
2.6143	3.5769
2.6064	3.5557
2.5986	3.5293
2.5908	3.4971
2.583	3.4626
2.5753	3.4436
2.5677	3.4192
2.5601	3.4028
2.5525	3.3867
2.545	3.3633
2.5375	3.3144
2.5301	3.2766
2.5227	3.2485
2.5154	3.2295
2.5081	3.2417
2.5008	3.1973
2.4936	3.1694
2.4864	3.1343
2.4793	3.144
2.4722	3.0898
2.4651	3.0627
2.4581	3.0342
2.4511	3.0259
2.4442	3.0032
2.4373	2.9641
2.4305	2.9748
2.4236	2.9175
2.4169	2.9331
2.4101	2.9075
2.4034	2.8733
2.3967	2.8948
2.3901	2.8498
2.3835	2.8203
2.377	2.8154
2.3704	2.7812
2.364	2.7629
2.3575	2.7444
2.3511	2.7353
2.3447	2.719
2.3384	2.7346
2.3321	2.6926
2.3258	2.6819
2.3195	2.6838
2.3133	2.6553
2.3071	2.6377
2.301	2.6328
2.2949	2.6284
2.2888	2.5898
2.2828	2.5835
2.2767	2.5771
2.2708	2.5478
2.2648	2.5557
2.2589	2.5386
2.253	2.5112
2.2471	2.5244
2.2413	2.5259
2.2355	2.5132
2.2297	2.4902
2.224	2.4629
2.2183	2.4619
2.2126	2.4365
2.207	2.4463
2.2013	2.4228
2.1957	2.3935
2.1902	2.4048
2.1846	2.3877
2.1791	2.3955
2.1736	2.3833
2.1682	2.3696
2.1628	2.3818
2.1574	2.3716
2.152	2.2998
2.1466	2.3057
2.1413	2.2793
2.136	2.3091
2.1308	2.2803
2.1255	2.2822
2.1203	2.2778
2.1151	2.2471
2.11	2.2109
2.1048	2.2383
2.0997	2.2056
2.0946	2.2207
2.0895	2.186
2.0845	2.1728
2.0795	2.1777
