Name: Dolomite CaMg(CO3)2
Type: Mineral
Class: Carbonate
Subclass: None
Particle Size: Fine
Sample No.: dolomite_2
Owner: JHU
Wavelength Range: TIR
Origin: Hunt and Salisbury Collection #102B;  Sample from Lee,Massachusetts.
Description: The sample appeared to be pure white dolomite in hand specimen and under the microscope. Particle size was Less than 2 Micrometers. Original ASTER Spectral Library name was jhu.nicolet.mineral.carbonate.none.powder.dolomi2.spectrum.txt
Measurement: Transmission
X Units: Wavelength (micrometers)
Y Units: Transmittance (percent)
wavelength	value
25.0442	23.3828
24.3388	30.582
23.6719	45.828
23.0407	62.3045
22.4422	72.4842
21.8741	79.2732
21.334	83.4412
20.8199	86.1209
20.33	87.5369
19.8627	88.5759
19.4163	89.6228
18.9896	91.074
18.5812	92.031
18.19	92.9382
17.815	93.7185
17.4551	94.4158
17.1094	94.8523
16.7772	95.0505
16.4576	95.2595
16.15	95.7029
15.8537	95.5818
15.568	95.7244
15.2925	95.6355
15.0265	95.865
14.7697	95.821
14.5214	95.5632
14.2814	95.0798
14.0492	93.4343
13.8244	83.6013
13.6067	82.5315
13.3957	95.3831
13.1912	96.7595
12.9929	97.0544
12.8004	96.9788
12.6135	96.9001
12.432	96.9319
12.2557	96.6272
12.0843	96.3635
11.9176	95.324
11.7555	90.4861
11.5977	87.8128
11.444	55.7713
11.2944	23.9345
11.1487	87.9519
11.0067	93.4783
10.8682	94.4417
10.7332	94.8362
10.6015	94.9314
10.473	94.7585
10.3476	94.5544
10.2251	94.2244
10.1056	93.6736
9.9887	93.094
9.8746	92.5574
9.763	91.8958
9.6539	91.6741
9.5472	91.2029
9.4429	91.117
9.3408	90.6477
9.2409	90.1716
9.1431	89.7771
9.0474	90.3103
8.9536	90.9978
8.8618	90.657
8.7718	90.1018
8.6837	89.8533
8.5973	89.3528
8.5126	88.6848
8.4295	87.8367
8.3481	87.4258
8.2682	86.8262
8.1898	85.5752
8.1129	84.2383
8.0374	83.0918
7.9634	81.8037
7.8906	80.2644
7.8192	78.306
7.7491	75.5792
7.6802	72.8348
7.6126	69.7938
7.5461	65.6339
7.4807	60.5218
7.4165	54.8038
7.3534	47.3065
7.2914	38.5253
7.2303	29.6261
7.1703	19.7285
7.1113	10.2834
7.0533	4.8967
6.9962	1.1533
6.94	0.3594
6.8847	0.2737
6.8302	0.5022
6.7767	0.9475
6.7239	1.801
6.672	3.7226
6.6209	8.6972
6.5705	17.2182
6.5209	27.1115
6.4721	37.1769
6.424	46.9464
6.3766	55.9999
6.3299	63.201
6.2838	67.4337
6.2385	70.4998
6.1937	73.6517
6.1496	76.9717
6.1062	79.0906
6.0633	80.9383
6.0211	82.3702
5.9794	84.1104
5.9383	85.4231
5.8978	86.7637
5.8578	87.9763
5.8184	88.9776
5.7794	89.6951
5.741	90.4588
5.7031	91.2168
5.6657	91.6736
5.6288	91.7673
5.5924	91.5798
5.5564	90.5833
5.5209	87.6172
5.4859	87.3045
5.4513	91.6965
5.4171	93.8601
5.3833	94.6494
5.35	95.1211
5.3171	95.5273
5.2846	95.8555
5.2524	96.1514
5.2207	96.3166
5.1893	96.5867
5.1584	96.8066
5.1277	96.9392
5.0975	97.1279
5.0676	97.1296
5.038	97.3064
5.0088	97.4998
4.98	97.6096
4.9514	97.7629
4.9232	97.8186
4.8953	97.8498
4.8678	97.9285
4.8405	97.9656
4.8135	98.0803
4.7868	98.1545
4.7605	98.1838
4.7344	98.1819
4.7086	98.1218
4.6831	98.1199
4.6578	97.9597
4.6328	97.9831
4.6081	98.0222
4.5837	98.1272
4.5595	98.2165
4.5356	98.262
4.5119	98.3157
4.4884	98.4285
4.4652	98.3889
4.4423	98.3484
4.4196	98.3723
4.3971	98.384
4.3748	98.5061
4.3528	98.5095
4.331	98.4631
4.3094	98.4314
4.288	98.4119
4.2668	98.3933
4.2458	98.5715
4.2251	98.5232
4.2045	98.4802
4.1841	98.4734
4.164	98.5393
4.144	98.4358
4.1242	98.4001
4.1046	98.4382
4.0852	98.2981
4.066	98.2253
4.047	98.0037
4.0281	97.7136
4.0094	96.8767
3.9909	95.6716
3.9725	92.2073
3.9544	90.9255
3.9363	91.4729
3.9185	92.4002
3.9008	94.2996
3.8833	95.0359
3.8659	95.5159
3.8487	96.6511
3.8316	96.9006
3.8147	96.1648
3.7979	96.0066
3.7813	96.6096
3.7648	97.5466
3.7485	98.0198
3.7323	98.135
3.7162	98.1257
3.7003	98.1531
3.6845	98.1677
3.6689	98.1912
3.6534	98.2073
3.638	98.1663
3.6227	98.0745
3.6076	98.0666
3.5926	97.9734
3.5777	97.9861
3.563	97.8162
3.5484	97.5847
3.5338	97.5017
3.5195	97.2263
3.5052	96.5491
3.491	95.6174
3.477	94.571
3.463	93.8596
3.4492	93.5081
3.4355	94.2585
3.4219	94.7693
3.4084	94.947
3.395	95.1755
3.3817	95.3787
3.3685	95.5452
3.3554	95.1604
3.3425	94.8455
3.3296	94.7732
3.3168	94.4646
3.3041	94.4768
3.2915	95.9651
3.279	96.2654
3.2666	96.2874
3.2543	96.3303
3.2421	96.2678
3.23	96.1404
3.218	95.9822
3.206	95.8962
3.1942	95.8303
3.1824	95.7068
3.1707	95.6448
3.1591	95.4509
3.1476	95.3503
3.1362	95.2732
3.1249	95.2732
3.1136	95.2214
3.1024	95.1638
3.0913	95.0398
3.0803	94.8308
3.0694	94.8972
3.0585	94.6736
3.0477	94.7859
3.037	94.6951
3.0264	94.6482
3.0158	94.8123
3.0053	94.7341
2.9949	94.8728
2.9845	95.1013
2.9743	95.2664
2.9641	95.7185
2.9539	95.9539
2.9439	96.3376
2.9339	96.5173
2.9239	96.5759
2.9141	96.6345
2.9043	96.7263
2.8946	96.7517
2.8849	96.4773
2.8753	96.2888
2.8658	96.1033
2.8563	96.0759
2.8469	96.031
2.8375	96.0124
2.8282	95.9373
2.819	96.1687
2.8098	96.2146
2.8007	96.0408
2.7917	95.9275
2.7827	96.0427
2.7738	95.9617
2.7649	95.9998
2.7561	96.0212
2.7473	96.113
2.7386	96.239
2.7299	96.0984
2.7213	95.9929
2.7128	96.3171
2.7043	96.1775
2.6959	96.0554
2.6875	96.0505
2.6791	96.1482
2.6709	96.0828
2.6626	95.8093
2.6545	95.8484
2.6463	95.739
2.6382	95.8171
2.6302	95.7107
2.6222	95.4812
2.6143	95.7546
2.6064	95.5818
2.5986	95.7302
2.5908	95.8083
2.583	95.7781
2.5753	95.5349
2.5677	95.4607
2.5601	95.4861
2.5525	95.2009
2.545	95.1443
2.5375	95.4822
2.5301	95.3025
2.5227	95.1091
2.5154	94.8298
2.5081	95.1169
2.5008	95.0232
2.4936	94.8533
2.4864	95.1169
2.4793	94.8709
2.4722	94.7205
2.4651	94.7029
2.4581	94.6892
2.4511	94.6853
2.4442	94.8669
2.4373	94.7654
2.4305	94.6716
2.4236	94.4724
2.4169	94.613
2.4101	94.5017
2.4034	94.5232
2.3967	94.6013
2.3901	94.281
2.3835	94.5584
2.377	94.3474
2.3704	94.3865
2.364	94.3904
2.3575	94.2927
2.3511	93.822
2.3447	94.4294
2.3384	94.1423
2.3321	94.0115
2.3258	93.8826
2.3195	94.1755
2.3133	93.9216
2.3071	94.1404
2.301	93.9939
2.2949	94.0349
2.2888	94.1951
2.2828	93.7732
2.2767	93.8923
2.2708	93.7146
2.2648	93.7693
2.2589	94.0486
2.253	93.781
2.2471	93.906
2.2413	93.5388
2.2355	93.8767
2.2297	93.9373
2.224	93.2673
2.2183	93.6716
2.2126	93.3591
2.207	93.6189
2.2013	93.3455
2.1957	93.4548
2.1902	93.8142
2.1846	92.9998
2.1791	93.1013
2.1736	93.6267
2.1682	93.8533
2.1628	93.6423
2.1574	93.7419
2.152	93.324
2.1466	93.1794
2.1413	93.1677
2.136	93.3904
2.1308	93.3201
2.1255	93.5193
2.1203	92.8865
2.1151	93.5466
2.11	93.031
2.1048	93.0154
2.0997	93.0857
2.0946	93.5154
2.0895	93.2068
2.0845	93.5154
2.0795	93.1443
