Name: Calcite CaCO3
Type: Mineral
Class: Carbonate
Subclass: None
Particle Size: Solid
Sample No.: calcite_1
Owner: JHU
Wavelength Range: TIR
Origin: Hunt and Salisbury Collection #194B (purchased from Ward'sNatural Science Establishment); Sample from Mexico.
Description: The sample consisted of transparent euhedral crystals.  The largest was about 2 cm x 2 cm.  This was obviously pure optical quality calcite. Original ASTER Spectral Library name was jhu.nicolet.mineral.carbonate.none.solid.calcit1.spectrum.txt
Measurement: Bidirectional reflectance
X Units: Wavelength (micrometers)
Y Units: Reflectance (percent)
wavelength	value
25.0442	33.1132
24.3388	23.039
23.6719	15.8379
23.0407	13.2002
22.4422	11.3008
21.8741	10.7197
21.334	11.0283
20.8199	11.6074
20.33	12.2207
19.8627	12.5879
19.4163	13.0849
18.9896	13.4931
18.5812	13.813
18.19	14.1626
17.815	14.4638
17.4551	14.7226
17.1094	15.0107
16.7772	15.1543
16.4576	15.29
16.15	15.5146
15.8537	15.6367
15.568	15.8149
15.2925	15.998
15.0265	16.1616
14.7697	16.2959
14.5214	16.4965
14.2814	16.9936
14.0492	20.934
13.8244	15.3442
13.6067	15.9191
13.3957	16.1997
13.1912	16.372
12.9929	16.541
12.8004	16.7141
12.6135	16.8662
12.432	16.8977
12.2557	17.081
12.0843	17.291
11.9176	17.5532
11.7555	17.8046
11.5977	18.5478
11.444	21.5439
11.2944	41.3693
11.1487	20.3749
11.0067	16.5791
10.8682	16.8715
10.7332	17.0498
10.6015	17.1694
10.473	17.2334
10.3476	17.3234
10.2251	17.4184
10.1056	17.4414
9.9887	17.4704
9.8746	17.5188
9.763	17.591
9.6539	17.6547
9.5472	17.7775
9.4429	17.833
9.3408	17.8876
9.2409	18.081
9.1431	18.1564
9.0474	18.33
8.9536	18.6308
8.8618	18.6428
8.7718	18.5893
8.6837	18.6909
8.5973	18.7617
8.5126	18.8208
8.4295	18.8876
8.3481	18.9907
8.2682	19.1335
8.1898	19.2778
8.1129	19.4133
8.0374	19.5581
7.9634	19.7719
7.8906	20.0815
7.8192	20.518
7.7491	20.9404
7.6802	21.4433
7.6126	21.9267
7.5461	22.4516
7.4807	23.1367
7.4165	23.9555
7.3534	25.0566
7.2914	26.5439
7.2303	28.7187
7.1703	32.665
7.1113	37.3002
7.0533	42.1935
6.9962	43.4364
6.94	44.1317
6.8847	44.8226
6.8302	45.4447
6.7767	46.3217
6.7239	48.2919
6.672	52.8177
6.6209	57.4857
6.5705	62.3499
6.5209	65.45
6.4721	64.5897
6.424	48.7489
6.3766	40.6703
6.3299	34.474
6.2838	29.914
6.2385	25.2504
6.1937	19.394
6.1496	11.6401
6.1062	5.2915
6.0633	6.2007
6.0211	7.0537
5.9794	7.728
5.9383	8.2226
5.8978	8.6557
5.8578	8.9858
5.8184	9.2202
5.7794	9.6528
5.741	10.0664
5.7031	10.3051
5.6657	10.4629
5.6288	10.7182
5.5924	11.2456
5.5564	10.2177
5.5209	10.5117
5.4859	10.7715
5.4513	10.9345
5.4171	11.0503
5.3833	11.1582
5.35	11.2578
5.3171	11.3501
5.2846	11.4145
5.2524	11.4856
5.2207	11.5642
5.1893	11.6333
5.1584	11.6921
5.1277	11.7339
5.0975	11.7612
5.0676	11.8296
5.038	11.8498
5.0088	11.8794
4.98	11.9255
4.9514	11.9568
4.9232	11.977
4.8953	12.0239
4.8678	12.0551
4.8405	12.0776
4.8135	12.0883
4.7868	12.1342
4.7605	12.1369
4.7344	12.165
4.7086	12.1667
4.6831	12.1831
4.6578	12.1997
4.6328	12.1985
4.6081	12.2336
4.5837	12.2363
4.5595	12.2404
4.5356	12.2612
4.5119	12.2832
4.4884	12.2817
4.4652	12.291
4.4423	12.2822
4.4196	12.289
4.3971	12.3203
4.3748	12.3354
4.3528	12.3335
4.331	12.3244
4.3094	12.3413
4.288	12.3596
4.2668	12.372
4.2458	12.3657
4.2251	12.3818
4.2045	12.3789
4.1841	12.3986
4.164	12.4057
4.144	12.4067
4.1242	12.4233
4.1046	12.4052
4.0852	12.4463
4.066	12.4541
4.047	12.4651
4.0281	12.4804
4.0094	12.5442
3.9909	12.5195
3.9725	12.2883
3.9544	12.146
3.9363	12.1877
3.9185	12.2138
3.9008	12.2422
3.8833	12.2129
3.8659	12.2129
3.8487	12.205
3.8316	12.1906
3.8147	12.1943
3.7979	12.2043
3.7813	12.207
3.7648	12.219
3.7485	12.2085
3.7323	12.2055
3.7162	12.2163
3.7003	12.217
3.6845	12.2063
3.6689	12.177
3.6534	12.1779
3.638	12.1474
3.6227	12.1311
3.6076	12.132
3.5926	12.1184
3.5777	12.1047
3.563	12.0664
3.5484	12.0627
3.5338	12.042
3.5195	12.0439
3.5052	12.0752
3.491	12.1174
3.477	12.0478
3.463	11.9885
3.4492	12.0197
3.4355	12.0175
3.4219	12.0862
3.4084	12.1721
3.395	12.1318
3.3817	12.1318
3.3685	12.2309
3.3554	12.1049
3.3425	11.9839
3.3296	11.9565
3.3168	11.915
3.3041	11.8803
3.2915	11.8681
3.279	11.8344
3.2666	11.8134
3.2543	11.7876
3.2421	11.7724
3.23	11.7446
3.218	11.7412
3.206	11.7412
3.1942	11.6997
3.1824	11.7114
3.1707	11.6743
3.1591	11.6323
3.1476	11.6172
3.1362	11.5888
3.1249	11.5566
3.1136	11.5298
3.1024	11.498
3.0913	11.4824
3.0803	11.4931
3.0694	11.4599
3.0585	11.457
3.0477	11.4394
3.037	11.4199
3.0264	11.4243
3.0158	11.3955
3.0053	11.3676
2.9949	11.3662
2.9845	11.3364
2.9743	11.3008
2.9641	11.2802
2.9539	11.2636
2.9439	11.209
2.9339	11.1894
2.9239	11.1347
2.9141	11.0884
2.9043	11.0454
2.8946	11.0317
2.8849	10.9809
2.8753	10.936
2.8658	10.9145
2.8563	10.8794
2.8469	10.8559
2.8375	10.7973
2.8282	10.7519
2.819	10.7055
2.8098	10.6552
2.8007	10.6269
2.7917	10.5864
2.7827	10.5317
2.7738	10.5434
2.7649	10.5356
2.7561	10.4653
2.7473	10.4731
2.7386	10.4536
2.7299	10.4321
2.7213	10.4228
2.7128	10.3838
2.7043	10.3701
2.6959	10.3447
2.6875	10.3203
2.6791	10.3261
2.6709	10.2695
2.6626	10.2422
2.6545	10.2217
2.6463	10.1894
2.6382	10.1914
2.6302	10.1074
2.6222	10.0801
2.6143	10.0781
2.6064	10.0019
2.5986	9.9472
2.5908	9.9658
2.583	9.8974
2.5753	9.8926
2.5677	9.8203
2.5601	9.7558
2.5525	9.748
2.545	9.7187
2.5375	9.6855
2.5301	9.7031
2.5227	9.664
2.5154	9.6289
2.5081	9.6689
2.5008	9.6933
2.4936	9.6347
2.4864	9.6308
2.4793	9.5986
2.4722	9.5908
2.4651	9.5898
2.4581	9.6738
2.4511	9.6758
2.4442	9.6758
2.4373	9.6758
2.4305	9.6494
2.4236	9.6484
2.4169	9.6758
2.4101	9.6494
2.4034	9.626
2.3967	9.6103
2.3901	9.6367
2.3835	9.5937
2.377	9.6758
2.3704	9.6406
2.364	9.6181
2.3575	9.5791
2.3511	9.5976
2.3447	9.5683
2.3384	9.5781
2.3321	9.623
2.3258	9.5801
2.3195	9.6601
2.3133	9.625
2.3071	9.6562
2.301	9.6797
2.2949	9.6758
2.2888	9.7265
2.2828	9.7148
2.2767	9.7461
2.2708	9.7832
2.2648	9.7968
2.2589	9.7441
2.253	9.791
2.2471	9.7812
2.2413	9.8593
2.2355	9.7812
2.2297	9.789
2.224	9.7851
2.2183	9.834
2.2126	9.8359
2.207	9.7968
2.2013	9.8398
2.1957	9.8437
2.1902	9.8222
2.1846	9.7988
2.1791	9.7812
2.1736	9.8515
2.1682	9.8593
2.1628	9.8926
2.1574	9.9023
2.152	9.8515
2.1466	9.8047
2.1413	9.8457
2.136	9.8437
2.1308	9.8047
2.1255	9.8672
2.1203	9.8281
2.1151	9.8242
2.11	9.7285
2.1048	9.7695
2.0997	9.7734
2.0946	9.7754
2.0895	9.7968
2.0845	9.6972
2.0795	9.625
