Name: Sphalerite (Zn,Fe)S
Type: Mineral
Class: Sulfide
Subclass: None
Particle Size: Fine
Sample No.: S-1A
Owner: JPL
Wavelength Range: TIR
Origin: USA, Oklahoma, Ottawa County, Picher
Description: Particle size was 0-45um.Collected by JPL Original ASTER Spectral Library name was jpl.nicolet.mineral.sulfide.none.fine.s01a.spectrum.txt
Measurement: Hemispherical reflectance
X Units: Wavelength (micrometers)
Y Units: Reflectance (percent)
wavelength	value
15.3853	43.9832
15.1161	48.1886
14.8563	44.9638
14.6052	50.6967
14.3624	52.9098
14.1276	54.221
13.9004	54.5679
13.6803	55.4003
13.4671	56.1959
13.2604	56.4632
13.06	57.0425
12.8656	57.2329
12.6769	57.7888
12.4936	58.5771
12.3155	59.9055
12.1425	60.8789
11.9742	61.1787
11.8106	61.2258
11.6513	61.2979
11.4963	60.1608
11.3454	59.7267
11.1983	60.4978
11.0551	59.847
10.9154	59.0814
10.7793	58.5539
10.6465	57.8629
10.5169	57.2176
10.3904	56.1359
10.267	55.4531
10.1464	54.6254
10.0287	54.0042
9.9136	53.5606
9.8012	53.4801
9.6913	53.4659
9.5838	53.8763
9.4787	54.3515
9.3758	54.9539
9.2752	54.8778
9.1767	54.3443
9.0803	54.3622
8.9858	54.029
8.8934	53.9297
8.8028	53.7223
8.714	54.2971
8.627	55.4566
8.5417	56.6893
8.4581	57.8375
8.3761	58.9659
8.2957	60.3084
8.2169	61.7805
8.1395	62.9944
8.0635	63.7302
7.989	64.4719
7.9158	64.804
7.8439	65.0982
7.7734	65.1141
7.7041	65.0811
7.636	64.5828
7.5691	64.9622
7.5034	65.2159
7.4388	65.3826
7.3753	65.2058
7.3129	64.8376
7.2515	64.3295
7.1912	64.1866
7.1318	63.7344
7.0734	63.5633
7.016	63.1903
6.9595	63.4292
6.9039	63.1337
6.8492	63.4453
6.7953	63.8229
6.7423	64.1393
6.6901	64.4659
6.6387	65.4871
6.5881	65.2761
6.5382	65.1319
6.4892	65.4918
6.4408	64.7559
6.3931	64.695
6.3462	65.0591
6.2999	64.4952
6.2543	64.6315
6.2094	64.4621
6.1651	64.218
6.1214	64.6609
6.0784	65.0501
6.0359	64.9362
5.994	65.2041
5.9527	64.9574
5.912	64.824
5.8718	65.1301
5.8322	65.2778
5.7931	65.3865
5.7545	65.5184
5.7165	65.7887
5.6789	65.8073
5.6418	66.0738
5.6052	65.7202
5.5691	65.3097
5.5334	65.6285
5.4982	65.8974
5.4635	66.0004
5.4291	66.0388
5.3952	65.9018
5.3618	65.935
5.3287	65.8679
5.2961	65.9259
5.2638	65.8223
5.2319	65.8524
5.2004	65.8888
5.1693	65.7925
5.1386	65.7852
5.1082	65.7606
5.0782	65.6683
5.0485	65.5548
5.0192	65.5282
4.9902	65.3114
4.9616	65.2355
4.9332	65.1429
4.9052	64.8852
4.8776	64.7841
4.8502	64.5615
4.8231	64.3462
4.7963	64.1334
4.7699	63.7858
4.7437	63.5989
4.7178	63.2307
4.6922	62.8827
4.6668	62.6391
4.6418	62.1921
4.617	61.7946
4.5924	61.3395
4.5681	60.8963
4.5441	60.4519
4.5203	59.7794
4.4968	59.343
4.4735	58.7679
4.4505	58.152
4.4277	57.425
4.4051	56.8434
4.3828	55.937
4.3607	55.3789
4.3388	54.5065
4.3171	53.8197
4.2956	53.0467
4.2744	52.2552
4.2534	51.354
4.2325	50.4423
4.2119	49.5587
4.1915	48.6491
4.1712	47.6711
4.1512	46.7284
4.1313	45.8637
4.1117	45.0943
4.0922	44.0743
4.0729	43.1198
4.0538	42.1867
4.0349	41.3179
4.0161	40.3444
3.9976	39.5114
3.9792	38.5705
3.9609	37.8158
3.9428	37.0212
3.9249	36.1402
3.9072	35.3687
3.8896	34.5678
3.8722	33.686
3.8549	32.9746
3.8378	32.2672
3.8208	31.4496
3.804	30.7234
3.7873	29.9577
3.7708	29.268
3.7544	28.5683
3.7382	27.9456
3.7221	27.1162
3.7061	26.729
3.6903	26.0991
3.6746	25.5735
3.659	25.0696
3.6436	24.4856
3.6283	23.9872
3.6131	23.5528
3.5981	23.1616
3.5832	22.7935
3.5684	22.5295
3.5537	22.2668
3.5391	22.0833
3.5247	21.8919
3.5104	21.7182
3.4962	21.6436
3.4821	21.4639
3.4681	21.5053
3.4543	21.3723
3.4405	21.3534
3.4269	21.3883
3.4133	21.2556
3.3999	21.207
3.3866	21.0576
3.3733	20.9441
3.3602	20.9291
3.3472	20.8919
3.3343	20.8388
3.3215	20.7079
3.3088	20.6288
3.2961	20.5356
3.2836	20.6442
3.2712	20.4737
3.2588	20.4823
3.2466	20.4309
3.2345	20.4975
3.2224	20.3649
3.2104	20.3934
3.1985	20.2408
3.1867	20.273
3.175	20.3308
3.1634	20.2468
3.1519	20.1484
3.1404	20.1618
3.129	19.9203
3.1178	19.9678
3.1065	19.8307
3.0954	19.7165
3.0844	19.6384
3.0734	19.4904
3.0625	19.3229
3.0517	19.3053
3.041	19.1273
3.0303	18.9362
3.0197	18.8956
3.0092	18.62
2.9987	18.6694
2.9884	18.3106
2.9781	18.2567
2.9678	18.0959
2.9577	18.2018
2.9476	17.8274
2.9376	17.8524
2.9276	17.7587
2.9177	17.7267
2.9079	17.5697
2.8982	17.489
2.8885	17.3935
2.8789	17.228
2.8693	17.5305
2.8598	17.2544
2.8504	17.1436
2.841	17.346
2.8317	17.1479
2.8224	17.2824
2.8133	17.2011
2.8041	17.5365
2.7951	17.285
2.786	17.3645
2.7771	17.3443
2.7682	17.5163
2.7594	17.2254
2.7506	17.3643
2.7418	17.6563
2.7332	17.6466
2.7246	17.6729
2.716	17.7212
2.7075	17.5983
2.699	17.8241
2.6906	17.9198
2.6823	17.951
2.674	17.9481
2.6657	18.1543
2.6575	17.8852
2.6494	18.0755
2.6413	17.9447
2.6332	18.0754
2.6252	18.0359
2.6173	18.0563
2.6094	18.2191
2.6015	18.193
2.5937	18.4238
2.5859	18.3251
2.5782	18.3108
2.5706	18.4494
2.5629	18.6006
2.5554	18.7194
2.5478	18.7894
2.5403	18.7478
2.5329	19.1237
2.5255	19.2184
2.5181	19.2324
2.5108	19.5391
2.5035	19.7272
2.4963	19.9363
2.4891	20.0591
2.482	20.2717
2.4749	20.5136
2.4678	20.5872
2.4608	20.8687
2.4538	21.2687
2.4468	21.6332
2.4399	21.6681
2.4331	21.9242
2.4262	22.3703
2.4194	22.486
2.4127	22.835
2.4059	23.1779
2.3993	23.6294
2.3926	23.8779
2.386	24.2917
2.3795	24.5566
2.3729	24.9534
2.3664	25.281
2.36	25.4513
2.3535	25.9128
2.3471	26.2841
2.3408	26.7555
2.3345	27.1222
2.3282	27.5006
2.3219	27.9752
2.3157	28.4353
2.3095	28.8801
2.3034	29.3482
2.2972	29.6418
2.2911	30.3558
2.2851	30.4639
2.279	31.4005
2.2731	31.6628
2.2671	32.127
2.2612	32.6137
2.2553	33.146
2.2494	33.7919
2.2435	34.1843
2.2377	34.6721
2.232	35.3854
2.2262	35.9029
2.2205	36.4545
2.2148	37.0213
2.2091	37.5342
2.2035	38.1321
2.1979	38.4863
2.1923	39.1056
2.1868	39.6514
2.1812	40.3234
2.1758	40.7794
2.1703	41.5611
2.1649	42.2071
2.1595	42.5049
2.1541	43.1522
2.1487	43.6423
2.1434	44.3105
2.1381	44.8048
2.1328	45.5386
2.1275	45.9579
2.1223	46.4651
2.1171	46.9549
2.112	47.7192
2.1068	48.1774
2.1017	48.9501
2.0966	49.1948
2.0915	49.8761
2.0865	50.4832
2.0814	50.4767
2.0764	51.2152
2.0715	51.8014
2.0665	51.9287
2.0616	52.7201
2.0567	53.2795
2.0518	53.6401
2.0469	54.0063
2.0421	54.4863
2.0373	54.8472
2.0325	55.3108
2.0277	55.7631
2.0229	56.2885
2.0182	56.5112
2.0135	56.9193
2.0088	57.2865
2.0042	57.6507
