Name: Serpentine (Mg,Fe^2+,Ni)Si_2O_5(OH)_4
Type: Mineral
Class: Silicate
Subclass: Phyllosilicate
Particle Size: Coarse
Sample No.: PS-20A
Owner: JPL
Wavelength Range: TIR
Origin: USA, New York
Description: Particle size was 125-500um.Collected by Ward's Original ASTER Spectral Library name was jpl.nicolet.mineral.silicate.phyllosilicate.coarse.ps20a.spectrum.txt
Measurement: Hemispherical reflectance
X Units: Wavelength (micrometers)
Y Units: Reflectance (percent)
wavelength	value
15.3853	10.6531
15.1161	8.8939
14.8563	4.9615
14.6052	1.5976
14.3624	0.6004
14.1276	0.4887
13.9004	0.2009
13.6803	0.6419
13.4671	0.7071
13.2604	0.8672
13.06	1.0422
12.8656	0.973
12.6769	1.4594
12.4936	1.5784
12.3155	1.733
12.1425	2.1007
11.9742	2.2151
11.8106	2.4685
11.6513	2.8081
11.4963	3.1348
11.3454	3.5749
11.1983	4.2116
11.0551	4.6906
10.9154	5.9565
10.7793	7.9621
10.6465	10.5186
10.5169	12.0929
10.3904	13.1722
10.267	13.6549
10.1464	13.6786
10.0287	13.367
9.9136	13.3495
9.8012	13.4856
9.6913	12.8314
9.5838	12.2791
9.4787	8.9211
9.3758	5.6919
9.2752	5.5635
9.1767	5.7689
9.0803	4.6765
8.9858	2.6929
8.8934	0.7968
8.8028	0.3103
8.714	0.2747
8.627	0.2445
8.5417	0.3488
8.4581	0.435
8.3761	0.3584
8.2957	0.3606
8.2169	0.5182
8.1395	0.5961
8.0635	0.649
7.989	0.6741
7.9158	0.751
7.8439	0.8357
7.7734	0.8177
7.7041	0.9649
7.636	0.865
7.5691	1.0501
7.5034	1.0797
7.4388	1.1169
7.3753	1.1156
7.3129	1.2832
7.2515	1.1966
7.1912	1.4522
7.1318	1.4095
7.0734	1.4896
7.016	1.6035
6.9595	1.5598
6.9039	1.5271
6.8492	1.5086
6.7953	1.5592
6.7423	1.6893
6.6901	1.6486
6.6387	1.9231
6.5881	1.8453
6.5382	1.7701
6.4892	1.7672
6.4408	1.6653
6.3931	1.5726
6.3462	1.6299
6.2999	1.5367
6.2543	1.5453
6.2094	1.5215
6.1651	1.5868
6.1214	1.4469
6.0784	1.474
6.0359	1.5592
5.994	1.6298
5.9527	1.6649
5.912	1.9538
5.8718	2.1934
5.8322	2.2517
5.7931	2.3528
5.7545	2.4584
5.7165	2.5274
5.6789	2.6884
5.6418	2.9209
5.6052	2.9793
5.5691	2.954
5.5334	3.2879
5.4982	3.5329
5.4635	3.7219
5.4291	3.8124
5.3952	3.8018
5.3618	4.1335
5.3287	4.9069
5.2961	5.6376
5.2638	6.3731
5.2319	7.0818
5.2004	7.2818
5.1693	7.0376
5.1386	6.4919
5.1082	6.3136
5.0782	6.1431
5.0485	5.7607
5.0192	5.346
4.9902	5.6334
4.9616	6.2939
4.9332	6.3622
4.9052	6.7327
4.8776	7.3911
4.8502	7.7268
4.8231	6.9632
4.7963	6.862
4.7699	7.8375
4.7437	8.9125
4.7178	9.7944
4.6922	10.1828
4.6668	10.526
4.6418	10.616
4.617	10.8555
4.5924	11.1287
4.5681	11.4298
4.5441	11.7187
4.5203	12.0155
4.4968	12.448
4.4735	12.6939
4.4505	12.8475
4.4277	12.9205
4.4051	13.1185
4.3828	13.222
4.3607	13.3179
4.3388	13.417
4.3171	13.67
4.2956	13.8702
4.2744	14.0337
4.2534	14.2097
4.2325	14.5272
4.2119	14.3528
4.1915	14.6387
4.1712	14.618
4.1512	14.7513
4.1313	14.8925
4.1117	14.901
4.0922	15.088
4.0729	15.0158
4.0538	14.8714
4.0349	14.7793
4.0161	14.2847
3.9976	13.913
3.9792	13.6058
3.9609	13.6688
3.9428	13.7487
3.9249	13.6999
3.9072	13.6708
3.8896	13.2938
3.8722	13.1534
3.8549	12.8772
3.8378	12.5361
3.8208	12.4582
3.804	12.3015
3.7873	12.1184
3.7708	11.7868
3.7544	11.5105
3.7382	11.4194
3.7221	10.9468
3.7061	10.6446
3.6903	10.1749
3.6746	10.3798
3.659	10.1538
3.6436	9.9471
3.6283	9.5466
3.6131	9.1862
3.5981	8.8968
3.5832	8.7533
3.5684	8.4044
3.5537	8.1649
3.5391	7.8495
3.5247	7.4675
3.5104	7.1142
3.4962	6.7067
3.4821	6.4262
3.4681	6.291
3.4543	6.0146
3.4405	5.7938
3.4269	5.5556
3.4133	5.216
3.3999	5.1933
3.3866	4.8853
3.3733	4.8298
3.3602	4.5821
3.3472	4.4012
3.3343	4.3539
3.3215	4.1129
3.3088	3.9846
3.2961	3.852
3.2836	3.6774
3.2712	3.5142
3.2588	3.4597
3.2466	3.4333
3.2345	3.1332
3.2224	3.0903
3.2104	3.1796
3.1985	3.0738
3.1867	3.0563
3.175	2.9242
3.1634	2.8438
3.1519	2.8214
3.1404	2.6876
3.129	2.6568
3.1178	2.6744
3.1065	2.5447
3.0954	2.4379
3.0844	2.417
3.0734	2.5729
3.0625	2.5166
3.0517	2.5262
3.041	2.5314
3.0303	2.5099
3.0197	2.4733
3.0092	2.2952
2.9987	2.4519
2.9884	2.3592
2.9781	2.2904
2.9678	2.3012
2.9577	2.2743
2.9476	2.0854
2.9376	2.266
2.9276	2.1697
2.9177	2.2427
2.9079	2.1087
2.8982	2.3346
2.8885	2.2554
2.8789	2.1826
2.8693	2.3783
2.8598	2.315
2.8504	2.1624
2.841	2.1446
2.8317	2.1844
2.8224	2.2118
2.8133	2.31
2.8041	2.2743
2.7951	2.1684
2.786	2.2688
2.7771	2.403
2.7682	2.1828
2.7594	2.1264
2.7506	2.1413
2.7418	1.9223
2.7332	1.9734
2.7246	2.2779
2.716	2.6849
2.7075	1.5147
2.699	1.2992
2.6906	2.9924
2.6823	5.3833
2.674	9.4926
2.6657	12.53
2.6575	12.9986
2.6494	12.5048
2.6413	16.3229
2.6332	17.9056
2.6252	18.3481
2.6173	17.8295
2.6094	17.255
2.6015	16.9942
2.5937	17.3466
2.5859	15.2074
2.5782	14.7532
2.5706	13.8644
2.5629	12.3253
2.5554	11.5348
2.5478	12.7143
2.5403	12.3922
2.5329	12.5001
2.5255	12.2054
2.5181	10.7984
2.5108	9.7419
2.5035	9.386
2.4963	10.6957
2.4891	12.9144
2.482	12.2637
2.4749	13.3567
2.4678	16.0268
2.4608	17.6071
2.4538	17.3173
2.4468	16.1092
2.4399	14.3845
2.4331	12.8982
2.4262	15.5977
2.4194	15.6595
2.4127	15.9377
2.4059	16.0752
2.3993	15.8335
2.3926	16.6572
2.386	17.7273
2.3795	18.4609
2.3729	18.5501
2.3664	20.2247
2.36	23.0053
2.3535	22.1941
2.3471	16.7767
2.3408	10.6538
2.3345	9.3629
2.3282	10.143
2.3219	10.0441
2.3157	12.5615
2.3095	15.2456
2.3034	17.8516
2.2972	19.9264
2.2911	20.9332
2.2851	21.9146
2.279	21.7702
2.2731	19.8697
2.2671	21.2585
2.2612	28.9071
2.2553	30.0957
2.2494	29.0805
2.2435	30.8158
2.2377	31.9813
2.232	38.4224
2.2262	43.022
2.2205	46.3919
2.2148	48.3933
2.2091	49.2253
2.2035	50.1414
2.1979	50.2819
2.1923	50.6269
2.1868	50.9584
2.1812	50.9212
2.1758	50.7974
2.1703	50.3052
2.1649	50.4459
2.1595	49.6713
2.1541	47.7992
2.1487	45.7971
2.1434	43.2942
2.1381	41.0625
2.1328	37.9389
2.1275	39.51
2.1223	41.3606
2.1171	40.9622
2.112	39.6478
2.1068	41.4834
2.1017	42.1229
2.0966	41.5385
2.0915	43.1874
2.0865	45.5033
2.0814	47.1234
2.0764	49.8735
2.0715	51.3738
2.0665	51.4338
2.0616	51.2173
2.0567	49.8516
2.0518	47.8431
2.0469	45.9393
2.0421	44.5169
2.0373	43.9766
2.0325	43.4366
2.0277	43.043
2.0229	43.2481
2.0182	43.1639
2.0135	42.7628
2.0088	41.9927
2.0042	40.6517
