Name: Vesuvianite Ca10Mg2Al4(SiO4)5(Si2O7)2(OH)4
Type: Mineral
Class: Silicate
Subclass: Sorosilicate
Particle Size: Coarse
Sample No.: vesuvian_1
Owner: JHU
Wavelength Range: TIR
Origin: Quebec, Canada via Norma Vergo
Description: The sample was a massive piece of striated, green, columnar aggregate. It appeared to be pure vesuvianite in hand sample and under the microscope.Particle size was 75 - 250 Micrometers. Original ASTER Spectral Library name was jhu.nicolet.mineral.silicate.sorosilicate.coarse.vesuvi1.spectrum.txt
Measurement: Bidirectional reflectance
X Units: Wavelength (micrometers)
Y Units: Reflectance (percent)
wavelength	value
25.0442	2.0337
24.3388	2.6765
23.6719	2.5317
23.0407	3.1218
22.4422	3.2217
21.8741	2.3498
21.334	2.3762
20.8199	2.9477
20.33	3.5486
19.8627	3.3874
19.4163	2.6128
18.9896	2.0674
18.5812	1.5969
18.19	1.1882
17.815	1.1162
17.4551	1.4143
17.1094	1.3191
16.7772	1.1411
16.4576	1.2659
16.15	1.0842
15.8537	1.0024
15.568	0.8887
15.2925	0.8311
15.0265	0.5923
14.7697	0.4751
14.5214	0.562
14.2814	0.6436
14.0492	0.6978
13.8244	0.7546
13.6067	0.8152
13.3957	0.8728
13.1912	0.9756
12.9929	1.0635
12.8004	1.2187
12.6135	1.3391
12.432	1.3247
12.2557	1.3188
12.0843	1.4246
11.9176	1.5742
11.7555	1.717
11.5977	1.7361
11.444	1.7751
11.2944	2.0281
11.1487	2.1309
11.0067	2.1072
10.8682	2.3857
10.7332	2.0742
10.6015	1.9333
10.473	2.0063
10.3476	2.2331
10.2251	2.4131
10.1056	2.1509
9.9887	1.7146
9.8746	3.0366
9.763	4.6418
9.6539	5.2358
9.5472	4.7488
9.4429	3.6089
9.3408	2.0161
9.2409	0.8745
9.1431	0.3491
9.0474	0.1909
8.9536	0.1658
8.8618	0.2
8.7718	0.2314
8.6837	0.2744
8.5973	0.3184
8.5126	0.363
8.4295	0.395
8.3481	0.4377
8.2682	0.4709
8.1898	0.5061
8.1129	0.5454
8.0374	0.552
7.9634	0.592
7.8906	0.6045
7.8192	0.6675
7.7491	0.7026
7.6802	0.7537
7.6126	0.7744
7.5461	0.8245
7.4807	0.8499
7.4165	0.8755
7.3534	0.9014
7.2914	0.9341
7.2303	0.9653
7.1703	0.9998
7.1113	1.0361
7.0533	1.0762
6.9962	1.1294
6.94	1.1565
6.8847	1.2205
6.8302	1.2815
6.7767	1.2373
6.7239	1.1899
6.672	1.3437
6.6209	1.4246
6.5705	1.4648
6.5209	1.4856
6.4721	1.5107
6.424	1.5117
6.3766	1.4585
6.3299	1.3381
6.2838	1.3332
6.2385	1.3972
6.1937	1.3437
6.1496	1.2732
6.1062	1.1858
6.0633	1.1379
6.0211	1.1311
5.9794	1.1531
5.9383	1.1682
5.8978	1.1707
5.8578	1.1609
5.8184	1.1416
5.7794	1.1082
5.741	1.0554
5.7031	1.0068
5.6657	0.9468
5.6288	0.9041
5.5924	0.8762
5.5564	0.8682
5.5209	0.8794
5.4859	0.915
5.4513	0.9705
5.4171	1
5.3833	1.0239
5.35	1.0361
5.3171	1.0535
5.2846	1.0759
5.2524	1.1235
5.2207	1.1731
5.1893	1.2327
5.1584	1.2932
5.1277	1.3455
5.0975	1.3979
5.0676	1.4778
5.038	1.5637
5.0088	1.666
4.98	1.762
4.9514	1.8535
4.9232	1.9365
4.8953	2.0188
4.8678	2.0969
4.8405	2.1614
4.8135	2.2214
4.7868	2.262
4.7605	2.291
4.7344	2.2991
4.7086	2.2903
4.6831	2.2832
4.6578	2.241
4.6328	2.23
4.6081	2.3208
4.5837	2.4536
4.5595	2.5378
4.5356	2.5925
4.5119	2.6323
4.4884	2.6528
4.4652	2.6804
4.4423	2.707
4.4196	2.7322
4.3971	2.7497
4.3748	2.7637
4.3528	2.7859
4.331	2.7961
4.3094	2.8125
4.288	2.812
4.2668	2.8201
4.2458	2.8315
4.2251	2.8293
4.2045	2.8215
4.1841	2.8096
4.164	2.7876
4.144	2.7578
4.1242	2.7275
4.1046	2.6975
4.0852	2.6809
4.066	2.6826
4.047	2.6934
4.0281	2.6955
4.0094	2.6846
3.9909	2.6655
3.9725	2.6301
3.9544	2.6052
3.9363	2.5842
3.9185	2.5505
3.9008	2.511
3.8833	2.4756
3.8659	2.4238
3.8487	2.3794
3.8316	2.3498
3.8147	2.3125
3.7979	2.2827
3.7813	2.23
3.7648	2.1838
3.7485	2.1379
3.7323	2.0713
3.7162	2.0164
3.7003	1.9548
3.6845	1.8928
3.6689	1.8332
3.6534	1.7632
3.638	1.7097
3.6227	1.644
3.6076	1.5879
3.5926	1.5176
3.5777	1.4609
3.563	1.4006
3.5484	1.3291
3.5338	1.2795
3.5195	1.2249
3.5052	1.1799
3.491	1.147
3.477	1.1062
3.463	1.0737
3.4492	1.0522
3.4355	1.0278
3.4219	0.9927
3.4084	0.9805
3.395	0.9509
3.3817	0.9353
3.3685	0.915
3.3554	0.8936
3.3425	0.8777
3.3296	0.8594
3.3168	0.8425
3.3041	0.8284
3.2915	0.8169
3.279	0.804
3.2666	0.8032
3.2543	0.7969
3.2421	0.7893
3.23	0.7747
3.218	0.7673
3.206	0.7488
3.1942	0.7485
3.1824	0.7427
3.1707	0.7371
3.1591	0.7361
3.1476	0.7319
3.1362	0.7361
3.1249	0.7239
3.1136	0.7195
3.1024	0.7239
3.0913	0.7253
3.0803	0.7185
3.0694	0.7251
3.0585	0.7319
3.0477	0.7241
3.037	0.7322
3.0264	0.7353
3.0158	0.7353
3.0053	0.7363
2.9949	0.7385
2.9845	0.7363
2.9743	0.73
2.9641	0.7246
2.9539	0.7275
2.9439	0.7166
2.9339	0.729
2.9239	0.7219
2.9141	0.7256
2.9043	0.7288
2.8946	0.7266
2.8849	0.7163
2.8753	0.7178
2.8658	0.7114
2.8563	0.7153
2.8469	0.7141
2.8375	0.7139
2.8282	0.7092
2.819	0.7129
2.8098	0.7173
2.8007	0.7319
2.7917	0.7454
2.7827	0.7717
2.7738	0.752
2.7649	0.7324
2.7561	0.6929
2.7473	0.6858
2.7386	0.6963
2.7299	0.7383
2.7213	0.7073
2.7128	0.8533
2.7043	1.2268
2.6959	1.4756
2.6875	1.6562
2.6791	1.7991
2.6709	1.9224
2.6626	2.0373
2.6545	2.1289
2.6463	2.2153
2.6382	2.3332
2.6302	2.4543
2.6222	2.5886
2.6143	2.6894
2.6064	2.7573
2.5986	2.8162
2.5908	2.8672
2.583	2.9141
2.5753	2.9731
2.5677	3.0256
2.5601	3.0859
2.5525	3.1821
2.545	3.2854
2.5375	3.3484
2.5301	3.3887
2.5227	3.408
2.5154	3.4233
2.5081	3.4155
2.5008	3.4084
2.4936	3.4023
2.4864	3.3804
2.4793	3.3655
2.4722	3.3425
2.4651	3.3198
2.4581	3.261
2.4511	3.2131
2.4442	3.1384
2.4373	3.0781
2.4305	3.0605
2.4236	3.0442
2.4169	3.0356
2.4101	3.0312
2.4034	3.0366
2.3967	3.1262
2.3901	3.2207
2.3835	3.241
2.377	3.2168
2.3704	3.2134
2.364	3.189
2.3575	3.145
2.3511	3.1653
2.3447	3.2266
2.3384	3.3303
2.3321	3.3879
2.3258	3.4253
2.3195	3.448
2.3133	3.3816
2.3071	3.3767
2.301	3.4929
2.2949	3.7285
2.2888	3.9253
2.2828	4.0322
2.2767	4.133
2.2708	4.1916
2.2648	4.2983
2.2589	4.4043
2.253	4.4993
2.2471	4.6196
2.2413	4.7051
2.2355	4.8042
2.2297	4.8823
2.224	5.012
2.2183	5.1111
2.2126	5.1887
2.207	5.2388
2.2013	5.2981
2.1957	5.3386
2.1902	5.3469
2.1846	5.3662
2.1791	5.425
2.1736	5.3994
2.1682	5.4431
2.1628	5.5063
2.1574	5.4516
2.152	5.4646
2.1466	5.4763
2.1413	5.5102
2.136	5.6213
2.1308	5.7453
2.1255	5.8838
2.1203	5.9607
2.1151	6.0574
2.11	6.177
2.1048	6.2475
2.0997	6.3376
2.0946	6.3992
2.0895	6.4365
2.0845	6.5036
2.0795	6.5295
