Name: Stilbite NaCa_2Al_5Si_3O_36.14H_2O
Type: Mineral
Class: Silicate
Subclass: Tectosilicate
Particle Size: Medium
Sample No.: TS-9A
Owner: JPL
Wavelength Range: TIR
Origin: India
Description: Particle size was 45-125um.Collected by Grieger's Inc. Original ASTER Spectral Library name was jpl.nicolet.mineral.silicate.tectosilicate.medium.ts09a.spectrum.txt
Measurement: Hemispherical reflectance
X Units: Wavelength (micrometers)
Y Units: Reflectance (percent)
wavelength	value
15.3853	0.9836
15.1161	1.3485
14.8563	1.5034
14.6052	1.503
14.3624	1.4138
14.1276	1.9011
13.9004	1.8838
13.6803	1.4791
13.4671	1.522
13.2604	1.6159
13.06	1.6302
12.8656	1.7272
12.6769	1.5353
12.4936	1.8143
12.3155	1.8374
12.1425	2.436
11.9742	2.6595
11.8106	3.0152
11.6513	3.2542
11.4963	3.4495
11.3454	3.8342
11.1983	3.8788
11.0551	4.1225
10.9154	4.3757
10.7793	4.8943
10.6465	5.2061
10.5169	5.9176
10.3904	6.9247
10.267	8.1646
10.1464	9.9802
10.0287	11.4964
9.9136	13.0251
9.8012	14.7314
9.6913	16.5176
9.5838	18.0171
9.4787	19.1922
9.3758	19.875
9.2752	17.1588
9.1767	12.1918
9.0803	8.5597
8.9858	6.3997
8.8934	5.6033
8.8028	5.2759
8.714	5.2447
8.627	4.8803
8.5417	4.4233
8.4581	3.7177
8.3761	3.319
8.2957	2.4956
8.2169	1.1902
8.1395	0.2333
8.0635	0.1532
7.989	0.0725
7.9158	0.0456
7.8439	0.2126
7.7734	0.1752
7.7041	0.2747
7.636	0.2868
7.5691	0.3689
7.5034	0.5861
7.4388	0.5867
7.3753	0.5651
7.3129	0.6694
7.2515	0.8338
7.1912	0.9203
7.1318	0.9522
7.0734	0.9961
7.016	1.2854
6.9595	1.3115
6.9039	1.3389
6.8492	1.3773
6.7953	1.4498
6.7423	1.5593
6.6901	1.5761
6.6387	1.5077
6.5881	1.6603
6.5382	1.6504
6.4892	1.6763
6.4408	1.6877
6.3931	1.5989
6.3462	1.5541
6.2999	1.4747
6.2543	1.5039
6.2094	1.3265
6.1651	1.3821
6.1214	1.2118
6.0784	0.9444
6.0359	0.7627
5.994	0.8013
5.9527	0.8009
5.912	0.8769
5.8718	1.0301
5.8322	1.3765
5.7931	1.8033
5.7545	2.0643
5.7165	2.3586
5.6789	2.5989
5.6418	2.8171
5.6052	2.892
5.5691	3.0169
5.5334	3.299
5.4982	3.5861
5.4635	3.8636
5.4291	4.2094
5.3952	4.5075
5.3618	4.8196
5.3287	4.9215
5.2961	5.0503
5.2638	5.2398
5.2319	5.3993
5.2004	5.6096
5.1693	5.9386
5.1386	6.2697
5.1082	6.6492
5.0782	6.947
5.0485	7.1655
5.0192	7.46
4.9902	7.4785
4.9616	7.6355
4.9332	7.4003
4.9052	7.2771
4.8776	7.1325
4.8502	6.942
4.8231	6.7209
4.7963	6.6581
4.7699	6.3374
4.7437	6.1736
4.7178	5.9035
4.6922	5.7911
4.6668	5.5519
4.6418	5.3708
4.617	5.3673
4.5924	5.3505
4.5681	5.2715
4.5441	5.2678
4.5203	5.2911
4.4968	5.5755
4.4735	5.5981
4.4505	5.8102
4.4277	5.9873
4.4051	6.2675
4.3828	6.6566
4.3607	6.9676
4.3388	7.4143
4.3171	7.9826
4.2956	8.4444
4.2744	9.0528
4.2534	10.1411
4.2325	10.5925
4.2119	11.7645
4.1915	12.9896
4.1712	14.0992
4.1512	15.146
4.1313	16.1001
4.1117	16.9752
4.0922	18.1473
4.0729	19.0921
4.0538	20.0504
4.0349	21.1316
4.0161	21.8876
3.9976	22.771
3.9792	23.4753
3.9609	24.0498
3.9428	24.5534
3.9249	24.8047
3.9072	24.9614
3.8896	25.2046
3.8722	25.2632
3.8549	25.1885
3.8378	25.0296
3.8208	24.6792
3.804	24.4285
3.7873	23.8196
3.7708	23.4908
3.7544	22.9539
3.7382	22.3896
3.7221	21.8509
3.7061	21.0944
3.6903	20.4744
3.6746	19.6773
3.659	19.0548
3.6436	18.285
3.6283	17.3945
3.6131	16.5431
3.5981	15.8134
3.5832	14.8601
3.5684	14.165
3.5537	13.4195
3.5391	12.5629
3.5247	11.7579
3.5104	11.024
3.4962	10.191
3.4821	9.5683
3.4681	8.689
3.4543	8.0342
3.4405	7.4333
3.4269	6.7407
3.4133	6.2355
3.3999	5.8817
3.3866	5.2717
3.3733	4.8578
3.3602	4.4603
3.3472	4.1204
3.3343	3.8818
3.3215	3.634
3.3088	3.3443
3.2961	3.2632
3.2836	2.8709
3.2712	2.7963
3.2588	2.6256
3.2466	2.5122
3.2345	2.3736
3.2224	2.5443
3.2104	2.3816
3.1985	2.0985
3.1867	2.0209
3.175	2.0724
3.1634	1.9292
3.1519	2.0186
3.1404	1.8988
3.129	1.8972
3.1178	1.7909
3.1065	2.0265
3.0954	1.8771
3.0844	1.6407
3.0734	1.6404
3.0625	1.7653
3.0517	1.7054
3.041	1.7095
3.0303	1.6716
3.0197	1.9109
3.0092	1.7297
2.9987	1.8113
2.9884	1.6831
2.9781	1.7848
2.9678	1.5091
2.9577	1.764
2.9476	1.6663
2.9376	1.6801
2.9276	1.4209
2.9177	1.8137
2.9079	1.6957
2.8982	1.7015
2.8885	1.6111
2.8789	1.7369
2.8693	1.5422
2.8598	1.4953
2.8504	1.6363
2.841	1.5234
2.8317	1.4296
2.8224	1.5193
2.8133	1.6243
2.8041	1.4806
2.7951	1.3997
2.786	1.4241
2.7771	1.3644
2.7682	1.1352
2.7594	1.1738
2.7506	1.2313
2.7418	1.5379
2.7332	1.1345
2.7246	1.6874
2.716	1.8033
2.7075	2.0719
2.699	2.538
2.6906	2.8799
2.6823	3.2554
2.674	3.9112
2.6657	4.2538
2.6575	4.6096
2.6494	5.0604
2.6413	5.5293
2.6332	5.9443
2.6252	6.2289
2.6173	6.3432
2.6094	6.8954
2.6015	7.1667
2.5937	7.0487
2.5859	7.5736
2.5782	7.8545
2.5706	7.6956
2.5629	8.1381
2.5554	8.6696
2.5478	8.7618
2.5403	8.9079
2.5329	9.5552
2.5255	9.9588
2.5181	10.2273
2.5108	10.6751
2.5035	11.2504
2.4963	11.5815
2.4891	11.8644
2.482	12.0452
2.4749	12.5614
2.4678	12.8976
2.4608	13.2649
2.4538	13.6925
2.4468	13.8076
2.4399	14.3949
2.4331	15.2267
2.4262	15.7754
2.4194	16.7459
2.4127	17.9428
2.4059	19.1917
2.3993	20.556
2.3926	22.0911
2.386	23.9016
2.3795	25.7982
2.3729	27.8474
2.3664	29.8646
2.36	31.6658
2.3535	33.556
2.3471	35.2886
2.3408	36.7759
2.3345	38.4909
2.3282	39.6952
2.3219	41.0398
2.3157	42.1653
2.3095	43.0077
2.3034	44.0078
2.2972	44.6483
2.2911	45.5654
2.2851	46.0853
2.279	46.8618
2.2731	47.3658
2.2671	47.76
2.2612	48.3037
2.2553	48.6467
2.2494	48.7797
2.2435	49.0678
2.2377	49.2655
2.232	49.2808
2.2262	49.4821
2.2205	49.6813
2.2148	49.6878
2.2091	49.6979
2.2035	49.7926
2.1979	49.6329
2.1923	49.6613
2.1868	49.6914
2.1812	49.6357
2.1758	49.6194
2.1703	49.6493
2.1649	49.5515
2.1595	49.265
2.1541	49.5813
2.1487	48.8867
2.1434	48.8291
2.1381	48.6178
2.1328	48.3804
2.1275	48.0125
2.1223	47.7278
2.1171	47.288
2.112	47.3678
2.1068	46.9678
2.1017	46.5846
2.0966	46.079
2.0915	45.7054
2.0865	45.8368
2.0814	44.7264
2.0764	44.2353
2.0715	44.7673
2.0665	44.1811
2.0616	43.9798
2.0567	43.1592
2.0518	42.8324
2.0469	42.2395
2.0421	41.5032
2.0373	40.5724
2.0325	40.0158
2.0277	38.1566
2.0229	37.2037
2.0182	35.9516
2.0135	34.6169
2.0088	33.0645
2.0042	31.7028
