Name: Sillimanite Al_2SiO_5
Type: Mineral
Class: Silicate
Subclass: Nesosilicate
Particle Size: Medium
Sample No.: NS-8A
Owner: JPL
Wavelength Range: VSWIR
Origin: Australia, South Australia, Williamstown
Description: Particle size was 45-125um.Collected by Ward's Original ASTER Spectral Library name was jpl.beckman.mineral.silicate.nesosilicate.medium.ns08a.spectrum.txt
Measurement: Hemispherical reflectance
X Units: Wavelength (micrometers)
Y Units: Reflectance (percent)
wavelength	value
0.4	57.28
0.403	58.37
0.406	58.89
0.409	59.37
0.412	59.97
0.415	60.46
0.418	61.04
0.421	61.64
0.424	62.32
0.427	62.78
0.43	63.37
0.433	63.81
0.436	64.37
0.439	64.83
0.442	65.2
0.445	65.56
0.448	65.96
0.451	66.12
0.454	66.4
0.457	66.49
0.46	66.77
0.463	66.99
0.466	67.06
0.469	67.25
0.472	67.39
0.475	67.83
0.478	68.13
0.481	68.41
0.484	68.71
0.487	68.88
0.49	69.34
0.493	69.38
0.496	69.85
0.499	70.07
0.502	70.3
0.505	70.44
0.508	70.67
0.511	71.03
0.514	71.29
0.517	71.53
0.52	71.81
0.523	71.96
0.526	72.1
0.529	72.44
0.532	72.62
0.535	72.67
0.538	72.93
0.541	73.05
0.544	73.27
0.547	73.53
0.55	73.76
0.553	73.76
0.556	73.82
0.559	74.16
0.562	74.54
0.565	74.59
0.568	74.71
0.571	74.69
0.574	74.72
0.577	74.87
0.58	74.83
0.583	75.08
0.586	75.13
0.589	75.17
0.592	75.29
0.595	75.33
0.598	75.43
0.601	75.77
0.604	75.77
0.607	75.8
0.61	75.77
0.613	75.85
0.616	75.91
0.619	76.01
0.622	75.9
0.625	76.07
0.628	76
0.631	76.23
0.634	76.44
0.637	76.44
0.64	76.34
0.643	76.41
0.646	76.62
0.649	76.78
0.652	76.96
0.655	77.06
0.658	77.07
0.661	77.09
0.664	77.29
0.667	77.34
0.67	77.38
0.673	77.48
0.676	77.37
0.679	77.57
0.682	77.57
0.685	77.76
0.688	77.75
0.691	77.86
0.694	77.8
0.697	77.93
0.7	77.94
0.703	78.05
0.706	78.13
0.709	78.2
0.712	78.37
0.715	78.5
0.718	78.43
0.721	78.53
0.724	78.57
0.727	78.59
0.73	78.87
0.733	78.65
0.736	78.7
0.739	78.76
0.742	78.64
0.745	78.75
0.748	78.68
0.751	78.85
0.754	78.73
0.757	78.82
0.76	79.13
0.763	78.99
0.766	78.8
0.769	78.92
0.772	79.01
0.775	79.14
0.778	79.09
0.781	79
0.784	78.96
0.787	79.12
0.79	79.12
0.793	79.29
0.796	79.16
0.799	79.25
0.808	79.08
0.82	79.1
0.832	79.15
0.844	79.23
0.856	79.31
0.868	79.23
0.88	79.45
0.892	79.34
0.904	79.27
0.916	79.24
0.928	79.26
0.94	79.19
0.952	79.22
0.964	79.34
0.976	79.43
0.988	79.45
1	79.34
1.012	79.38
1.024	79.3
1.036	79.45
1.048	79.51
1.06	79.5
1.072	79.45
1.084	79.53
1.096	79.61
1.108	79.53
1.12	79.5
1.132	79.53
1.144	79.5
1.156	79.46
1.168	79.47
1.18	79.3
1.192	79.25
1.204	79.31
1.216	79.17
1.228	79.22
1.24	79.26
1.252	79.29
1.264	79.25
1.276	79.32
1.288	79.33
1.3	79.16
1.312	79.07
1.324	78.97
1.336	79.01
1.348	78.84
1.36	78.58
1.372	77.95
1.384	75.73
1.396	75.43
1.408	75.32
1.42	77.28
1.432	77.93
1.444	78.39
1.456	78.41
1.468	78.48
1.48	78.75
1.492	78.76
1.504	78.77
1.516	78.88
1.528	78.88
1.54	78.85
1.552	78.88
1.564	78.91
1.576	78.97
1.588	78.96
1.6	78.89
1.612	78.92
1.624	78.81
1.636	78.86
1.648	78.73
1.66	78.76
1.672	78.63
1.684	78.39
1.696	77.99
1.708	77.83
1.72	77.52
1.732	77.69
1.744	77.88
1.756	77.78
1.768	77.74
1.78	77.85
1.792	77.92
1.804	77.91
1.816	77.86
1.828	77.82
1.84	77.93
1.852	77.9
1.864	77.78
1.876	77.37
1.888	76.69
1.9	75.51
1.912	74.86
1.924	75.01
1.936	75.38
1.948	75.61
1.96	75.78
1.972	76
1.984	76.22
1.996	76.57
2.008	76.72
2.02	76.88
2.032	77
2.044	77.04
2.056	76.95
2.068	76.87
2.08	76.79
2.092	76.81
2.104	76.75
2.116	76.61
2.128	76.1
2.14	74.84
2.152	72.7
2.164	71.34
2.176	71.32
2.188	70.76
2.2	69.97
2.212	71.31
2.224	73.08
2.236	73.57
2.248	73.47
2.26	72.76
2.272	71.94
2.284	71.12
2.296	70.06
2.308	69.24
2.32	69.41
2.332	69.43
2.344	68.99
2.356	68.94
2.368	68.81
2.38	68.39
2.392	68.07
2.404	67.94
2.416	67.69
2.428	67.21
2.44	66.71
2.452	66.3
2.464	66.01
2.476	65.71
2.488	65.67
2.5	65.78
