Name: Grossular Garnet Ca_3Al_2(SiO_4)_3
Type: Mineral
Class: Silicate
Subclass: Nesosilicate
Particle Size: Fine
Sample No.: NS-3B
Owner: JPL
Wavelength Range: TIR
Origin: Mexico, Lake Jaco
Description: Particle size was 0-45um.Collected by New, David Original ASTER Spectral Library name was jpl.nicolet.mineral.silicate.nesosilicate.fine.ns03b.spectrum.txt
Measurement: Hemispherical reflectance
X Units: Wavelength (micrometers)
Y Units: Reflectance (percent)
wavelength	value
15.3853	5.2109
15.1161	8.296
14.8563	9.7522
14.6052	11.1173
14.3624	12.9314
14.1276	13.228
13.9004	12.7303
13.6803	10.5331
13.4671	7.754
13.2604	5.5066
13.06	6.1528
12.8656	7.7174
12.6769	7.1958
12.4936	7.3405
12.3155	8.0105
12.1425	9.6184
11.9742	12.5337
11.8106	11.0737
11.6513	13.1663
11.4963	11.0263
11.3454	4.8833
11.1983	4.5055
11.0551	11.2243
10.9154	14.7218
10.7793	14.4658
10.6465	15.5437
10.5169	15.7733
10.3904	17.4602
10.267	17.6711
10.1464	18.0279
10.0287	16.1507
9.9136	11.3239
9.8012	7.7119
9.6913	4.3771
9.5838	2.1821
9.4787	1.0306
9.3758	0.8515
9.2752	0.6146
9.1767	0.7304
9.0803	1.1223
8.9858	1.657
8.8934	2.2671
8.8028	3.0673
8.714	4.3301
8.627	5.6711
8.5417	7.0434
8.4581	8.5181
8.3761	9.6964
8.2957	11.3869
8.2169	12.8995
8.1395	14.2473
8.0635	15.4317
7.989	16.2986
7.9158	16.8484
7.8439	17.166
7.7734	18.021
7.7041	18.981
7.636	19.7792
7.5691	20.4187
7.5034	20.6879
7.4388	21.3987
7.3753	22.4287
7.3129	22.6278
7.2515	22.9011
7.1912	23.4702
7.1318	23.9341
7.0734	24.9721
7.016	25.8444
6.9595	27.1338
6.9039	26.7809
6.8492	27.8423
6.7953	28.9359
6.7423	29.4587
6.6901	31.3964
6.6387	34.833
6.5881	35.1663
6.5382	36.5742
6.4892	40.6212
6.4408	39.9287
6.3931	40.4403
6.3462	42.4639
6.2999	41.353
6.2543	41.0173
6.2094	39.7338
6.1651	37.6111
6.1214	34.2032
6.0784	30.1725
6.0359	26.0062
5.994	23.4224
5.9527	20.5483
5.912	19.6739
5.8718	20.5964
5.8322	21.7039
5.7931	22.4076
5.7545	24.6106
5.7165	26.8076
5.6789	28.6545
5.6418	31.3198
5.6052	31.3133
5.5691	31.6983
5.5334	32.3664
5.4982	32.3949
5.4635	32.7742
5.4291	34.0485
5.3952	35.3853
5.3618	37.34
5.3287	39.5067
5.2961	43.0659
5.2638	46.5227
5.2319	48.6756
5.2004	49.8049
5.1693	50.5108
5.1386	51.3285
5.1082	52.1027
5.0782	52.8332
5.0485	53.3629
5.0192	54.0117
4.9902	54.6304
4.9616	55.4099
4.9332	55.8619
4.9052	56.3731
4.8776	56.7381
4.8502	57.1011
4.8231	57.5021
4.7963	57.9479
4.7699	58.3928
4.7437	58.7852
4.7178	59.1042
4.6922	59.3398
4.6668	59.6309
4.6418	59.8172
4.617	60.1034
4.5924	60.1209
4.5681	60.2613
4.5441	60.398
4.5203	60.4666
4.4968	60.5356
4.4735	60.5001
4.4505	60.5073
4.4277	60.4507
4.4051	60.4821
4.3828	60.3741
4.3607	60.3271
4.3388	60.3572
4.3171	60.2029
4.2956	60.1238
4.2744	59.9663
4.2534	59.9028
4.2325	59.4271
4.2119	59.383
4.1915	59.2239
4.1712	58.9946
4.1512	58.8247
4.1313	58.6883
4.1117	58.3051
4.0922	58.0217
4.0729	57.7353
4.0538	57.3403
4.0349	57.1339
4.0161	56.9446
3.9976	56.9975
3.9792	57.2112
3.9609	57.6511
3.9428	58.3013
3.9249	58.6934
3.9072	58.8259
3.8896	59.0635
3.8722	59.0825
3.8549	59.181
3.8378	59.4489
3.8208	59.7653
3.804	60.0327
3.7873	60.2057
3.7708	60.6349
3.7544	60.9278
3.7382	61.3451
3.7221	61.8939
3.7061	62.1818
3.6903	62.6283
3.6746	62.8058
3.659	62.8564
3.6436	62.8614
3.6283	62.8411
3.6131	62.669
3.5981	62.5071
3.5832	62.2998
3.5684	62.0763
3.5537	61.8001
3.5391	61.6193
3.5247	60.8442
3.5104	59.1714
3.4962	58.6798
3.4821	59.3289
3.4681	59.9277
3.4543	59.5103
3.4405	58.8191
3.4269	57.2548
3.4133	56.9072
3.3999	58.9316
3.3866	59.4924
3.3733	60.4015
3.3602	62.3515
3.3472	63.2621
3.3343	64.2282
3.3215	64.6208
3.3088	64.8578
3.2961	65.1226
3.2836	65.3335
3.2712	65.5784
3.2588	65.6242
3.2466	65.6847
3.2345	65.6437
3.2224	65.7485
3.2104	65.8662
3.1985	65.8234
3.1867	65.8691
3.175	65.7773
3.1634	65.6345
3.1519	65.6131
3.1404	65.4844
3.129	65.5555
3.1178	65.4281
3.1065	65.414
3.0954	65.3076
3.0844	65.201
3.0734	65.1619
3.0625	65.0997
3.0517	64.9573
3.041	64.8997
3.0303	64.9831
3.0197	64.6912
3.0092	64.5581
2.9987	64.5526
2.9884	64.3803
2.9781	64.3913
2.9678	64.2443
2.9577	64.2416
2.9476	64.2361
2.9376	64.1718
2.9276	64.204
2.9177	64.241
2.9079	64.216
2.8982	64.3338
2.8885	64.493
2.8789	64.7043
2.8693	64.6995
2.8598	64.9174
2.8504	65.0056
2.841	65.1923
2.8317	65.2428
2.8224	65.2454
2.8133	65.3788
2.8041	66.2144
2.7951	65.5806
2.786	66.1107
2.7771	64.8566
2.7682	64.5838
2.7594	62.2045
2.7506	63.3755
2.7418	67.8559
2.7332	65.6894
2.7246	70.861
2.716	72.1873
2.7075	74.4405
2.699	76.0005
2.6906	78.4853
2.6823	80.2799
2.674	80.8096
2.6657	83.7546
2.6575	81.0239
2.6494	80.9796
2.6413	81.3287
2.6332	81.748
2.6252	81.9069
2.6173	83.3352
2.6094	82.2563
2.6015	82.1599
2.5937	84.676
2.5859	82.4627
2.5782	82.1028
2.5706	82.503
2.5629	83.2586
2.5554	81.6992
2.5478	82.0645
2.5403	81.8917
2.5329	82.0577
2.5255	81.954
2.5181	82.0662
2.5108	81.833
2.5035	82.1114
2.4963	82.054
2.4891	82.0156
2.482	82.0722
2.4749	82.1167
2.4678	82.173
2.4608	82.1562
2.4538	82.1452
2.4468	82.2912
2.4399	82.4358
2.4331	82.3782
2.4262	82.37
2.4194	82.3545
2.4127	82.352
2.4059	82.4942
2.3993	82.4044
2.3926	82.538
2.386	82.5477
2.3795	82.6964
2.3729	82.4392
2.3664	82.5376
2.36	82.5659
2.3535	82.5618
2.3471	82.4302
2.3408	82.7083
2.3345	82.709
2.3282	82.7318
2.3219	82.6711
2.3157	82.8314
2.3095	82.5324
2.3034	82.8968
2.2972	82.6987
2.2911	82.9483
2.2851	83.0274
2.279	82.9436
2.2731	82.7747
2.2671	83.0792
2.2612	83.1908
2.2553	82.9759
2.2494	83.1578
2.2435	83.2296
2.2377	83.0155
2.232	83.2518
2.2262	82.9658
2.2205	83.1047
2.2148	83.0815
2.2091	83.2998
2.2035	82.9799
2.1979	83.2809
2.1923	83.3405
2.1868	82.986
2.1812	83.2633
2.1758	83.3935
2.1703	83.464
2.1649	83.1988
2.1595	83.2923
2.1541	83.447
2.1487	83.3393
2.1434	83.4759
2.1381	83.4524
2.1328	83.4836
2.1275	83.5496
2.1223	83.73
2.1171	83.2481
2.112	83.616
2.1068	83.464
2.1017	83.4631
2.0966	83.6727
2.0915	83.4849
2.0865	83.5517
2.0814	83.4214
2.0764	83.6908
2.0715	83.7362
2.0665	83.4808
2.0616	83.743
2.0567	83.4501
2.0518	83.3353
2.0469	83.463
2.0421	83.6817
2.0373	83.4477
2.0325	83.6255
2.0277	83.5666
2.0229	83.6257
2.0182	83.5627
2.0135	83.8082
2.0088	83.3822
2.0042	83.3778
