Name: Diopside CaMg(SiO_3)_2
Type: Mineral
Class: Silicate
Subclass: Inosilicate
Particle Size: Fine
Sample No.: IN-9B
Owner: JPL
Wavelength Range: TIR
Origin: Canada, Quebec
Description: Particle size was 0-45um.Collected by Ward's Original ASTER Spectral Library name was jpl.nicolet.mineral.silicate.inosilicate.fine.in09b.spectrum.txt
Measurement: Hemispherical reflectance
X Units: Wavelength (micrometers)
Y Units: Reflectance (percent)
wavelength	value
15.3853	1.8671
15.1161	2.4783
14.8563	2.549
14.6052	2.5979
14.3624	4.0618
14.1276	5.5591
13.9004	7.1534
13.6803	8.3438
13.4671	9.1434
13.2604	9.2614
13.06	9.8157
12.8656	10.2144
12.6769	10.4403
12.4936	10.8307
12.3155	10.5099
12.1425	9.8825
11.9742	8.8596
11.8106	7.7767
11.6513	8.4047
11.4963	8.4961
11.3454	8.4894
11.1983	8.4587
11.0551	8.3315
10.9154	7.868
10.7793	7.0939
10.6465	6.8712
10.5169	6.9913
10.3904	7.1718
10.267	6.4287
10.1464	4.9218
10.0287	4.1563
9.9136	4.4805
9.8012	4.7354
9.6913	4.7386
9.5838	4.9043
9.4787	5.7121
9.3758	7.2597
9.2752	8.0274
9.1767	8.0459
9.0803	8.131
8.9858	8.7623
8.8934	8.9748
8.8028	7.6674
8.714	6.0259
8.627	4.6801
8.5417	4.1614
8.4581	4.2948
8.3761	4.716
8.2957	5.2648
8.2169	6.1833
8.1395	6.958
8.0635	7.961
7.989	9.1057
7.9158	10.3273
7.8439	11.3483
7.7734	12.197
7.7041	13.1795
7.636	13.5955
7.5691	13.9453
7.5034	15.0095
7.4388	15.637
7.3753	15.7678
7.3129	15.039
7.2515	14.031
7.1912	13.087
7.1318	12.0892
7.0734	11.9538
7.016	11.504
6.9595	11.3247
6.9039	11.4121
6.8492	11.6852
6.7953	12.0643
6.7423	12.5145
6.6901	12.8421
6.6387	13.7817
6.5881	14.9455
6.5382	15.871
6.4892	16.9415
6.4408	18.081
6.3931	19.3485
6.3462	20.752
6.2999	20.8336
6.2543	21.0106
6.2094	21.027
6.1651	20.1396
6.1214	19.1231
6.0784	19.1549
6.0359	20.2358
5.994	21.9887
5.9527	24.8171
5.912	27.644
5.8718	29.5118
5.8322	30.8089
5.7931	31.9462
5.7545	32.8271
5.7165	33.3527
5.6789	33.7903
5.6418	34.1386
5.6052	33.3769
5.5691	30.1788
5.5334	33.3161
5.4982	34.2425
5.4635	34.4178
5.4291	33.913
5.3952	33.4071
5.3618	33.2128
5.3287	33.205
5.2961	32.9375
5.2638	32.9647
5.2319	33.4391
5.2004	33.6766
5.1693	33.2858
5.1386	32.6588
5.1082	31.3377
5.0782	29.8473
5.0485	30.5023
5.0192	32.7799
4.9902	33.7961
4.9616	34.1918
4.9332	34.57
4.9052	34.9913
4.8776	35.4536
4.8502	36.3394
4.8231	37.212
4.7963	38.3075
4.7699	38.7617
4.7437	39.1652
4.7178	40.1616
4.6922	41.0453
4.6668	41.6445
4.6418	42.2882
4.617	42.9444
4.5924	43.5766
4.5681	44.1983
4.5441	44.6665
4.5203	45.1641
4.4968	45.4496
4.4735	45.8069
4.4505	45.8954
4.4277	46.0538
4.4051	46.2018
4.3828	46.1991
4.3607	46.3824
4.3388	46.4043
4.3171	46.4739
4.2956	46.6379
4.2744	46.5489
4.2534	46.697
4.2325	46.7434
4.2119	46.9394
4.1915	47.1255
4.1712	47.2056
4.1512	47.3498
4.1313	47.2943
4.1117	47.4172
4.0922	47.3311
4.0729	47.3097
4.0538	47.1005
4.0349	46.6705
4.0161	45.8212
3.9976	43.7358
3.9792	42.4561
3.9609	43.2097
3.9428	45.051
3.9249	45.6586
3.9072	45.8972
3.8896	46.1299
3.8722	45.9837
3.8549	46.3035
3.8378	46.4626
3.8208	46.8664
3.804	47.1575
3.7873	47.4508
3.7708	47.5015
3.7544	47.4511
3.7382	47.4429
3.7221	47.4677
3.7061	47.2567
3.6903	47.2451
3.6746	47.1083
3.659	46.9261
3.6436	46.8456
3.6283	46.685
3.6131	46.5645
3.5981	46.4097
3.5832	46.0971
3.5684	45.9687
3.5537	45.6597
3.5391	45.3973
3.5247	44.687
3.5104	43.6779
3.4962	43.053
3.4821	42.4142
3.4681	42.8427
3.4543	42.9663
3.4405	42.9137
3.4269	42.4993
3.4133	42.1759
3.3999	42.0844
3.3866	41.7185
3.3733	41.2473
3.3602	40.9982
3.3472	40.6065
3.3343	41.107
3.3215	41.1509
3.3088	40.6694
3.2961	40.5499
3.2836	40.1646
3.2712	39.8258
3.2588	39.3892
3.2466	38.9061
3.2345	38.5681
3.2224	38.0616
3.2104	37.6317
3.1985	37.178
3.1867	36.5974
3.175	35.8998
3.1634	35.5162
3.1519	35.0134
3.1404	34.4888
3.129	34.0556
3.1178	33.5384
3.1065	32.9162
3.0954	32.8575
3.0844	32.4261
3.0734	32.1862
3.0625	31.9566
3.0517	31.8445
3.041	31.4775
3.0303	31.3439
3.0197	31.1359
3.0092	30.6878
2.9987	30.2161
2.9884	30.1487
2.9781	29.595
2.9678	29.4592
2.9577	29.2798
2.9476	28.8829
2.9376	28.93
2.9276	28.9607
2.9177	28.8077
2.9079	28.9928
2.8982	28.8272
2.8885	28.9963
2.8789	29.0294
2.8693	29.0488
2.8598	29.1472
2.8504	29.169
2.841	28.82
2.8317	28.7499
2.8224	28.1979
2.8133	28.1359
2.8041	27.9314
2.7951	27.6339
2.786	27.7429
2.7771	27.864
2.7682	28.3029
2.7594	28.1203
2.7506	29.3998
2.7418	28.1377
2.7332	26.7047
2.7246	30.8028
2.716	33.9184
2.7075	42.4425
2.699	44.5878
2.6906	46.3879
2.6823	48.7905
2.674	49.9011
2.6657	50.5646
2.6575	50.3601
2.6494	50.6072
2.6413	50.6392
2.6332	50.7336
2.6252	50.889
2.6173	50.9411
2.6094	50.9014
2.6015	50.8599
2.5937	51.0966
2.5859	50.8393
2.5782	50.7486
2.5706	50.909
2.5629	50.8675
2.5554	50.7373
2.5478	50.6633
2.5403	50.5499
2.5329	50.6967
2.5255	50.7101
2.5181	50.6822
2.5108	50.6384
2.5035	50.7326
2.4963	50.6434
2.4891	50.6935
2.482	50.5848
2.4749	50.6717
2.4678	50.763
2.4608	50.5697
2.4538	50.6961
2.4468	50.6352
2.4399	50.6115
2.4331	50.7369
2.4262	50.6075
2.4194	50.8154
2.4127	50.5285
2.4059	50.5167
2.3993	50.6049
2.3926	50.5479
2.386	50.3055
2.3795	50.3956
2.3729	50.7778
2.3664	50.7025
2.36	50.6101
2.3535	50.6717
2.3471	50.8209
2.3408	50.6543
2.3345	50.3717
2.3282	50.1918
2.3219	49.7662
2.3157	49.7692
2.3095	50.0517
2.3034	50.1083
2.2972	50.3424
2.2911	50.4786
2.2851	50.7183
2.279	51.0624
2.2731	51.0642
2.2671	51.1443
2.2612	51.2807
2.2553	51.2766
2.2494	51.4115
2.2435	51.2462
2.2377	51.4183
2.232	51.5344
2.2262	51.3184
2.2205	51.4562
2.2148	51.6613
2.2091	51.6281
2.2035	51.5893
2.1979	51.7648
2.1923	51.7414
2.1868	51.623
2.1812	51.7915
2.1758	51.9232
2.1703	51.7949
2.1649	51.6364
2.1595	51.7859
2.1541	52.0364
2.1487	51.9522
2.1434	51.9075
2.1381	51.8739
2.1328	51.9442
2.1275	52.0167
2.1223	52.0967
2.1171	51.9456
2.112	52.0628
2.1068	51.9018
2.1017	52.2842
2.0966	52.1359
2.0915	52.0307
2.0865	52.4396
2.0814	51.8897
2.0764	52.1251
2.0715	52.3384
2.0665	52.0561
2.0616	52.2757
2.0567	52.3884
2.0518	52.3301
2.0469	52.1894
2.0421	52.3886
2.0373	52.2704
2.0325	52.497
2.0277	52.5698
2.0229	52.369
2.0182	52.2442
2.0135	52.4217
2.0088	52.4409
2.0042	52.3802
