Name: Spodumene LiAlSi2O6
Type: Mineral
Class: Silicate
Subclass: Inosilicate
Particle Size: Coarse
Sample No.: spodum_1
Owner: JHU
Wavelength Range: TIR
Origin: Anita Mine, Pala Chief Hill, Pala, San Diego Co., California, USAvia the Smithsonian (sample no. NMNH 12430-1)
Description: The hand sample was 3 cm x 1 cm x 1 cm, transparent, with a small amount of iron staining.  No foreign material was noted under the microscope. Particle size was 75 - 250  Micrometers.(Framework silicates); Pyroxene Group Original ASTER Spectral Library name was jhu.nicolet.mineral.silicate.inosilicate.coarse.spodum1.spectrum.txt
Measurement: Bidirectional reflectance
X Units: Wavelength (micrometers)
Y Units: Reflectance (percent)
wavelength	value
25.0442	4.8642
24.3388	3.6699
23.6719	3.6819
23.0407	3.9719
22.4422	5.0696
21.8741	5.8535
21.334	7.4094
20.8199	8.5522
20.33	8.1914
19.8627	6.0495
19.4163	5.3882
18.9896	5.7971
18.5812	6.1262
18.19	6.1186
17.815	5.5857
17.4551	6.1091
17.1094	6.6831
16.7772	7.3325
16.4576	7.2055
16.15	5.9787
15.8537	4.7305
15.568	3.6018
15.2925	3.2075
15.0265	3.0923
14.7697	2.3096
14.5214	1.2461
14.2814	0.9629
14.0492	1.1516
13.8244	1.2861
13.6067	1.4324
13.3957	1.5564
13.1912	1.6475
12.9929	1.7102
12.8004	1.7466
12.6135	1.8223
12.432	1.9155
12.2557	2.0483
12.0843	2.1272
11.9176	2.2622
11.7555	2.5127
11.5977	2.6504
11.444	2.1789
11.2944	2.4795
11.1487	2.8638
11.0067	3.3921
10.8682	3.9778
10.7332	4.4233
10.6015	4.7143
10.473	4.9033
10.3476	5.0124
10.2251	4.9348
10.1056	4.4058
9.9887	3.6277
9.8746	3.7986
9.763	4.5083
9.6539	4.8179
9.5472	5.1116
9.4429	5.4731
9.3408	6.1489
9.2409	6.8909
9.1431	8.802
9.0474	9.0852
8.9536	8.9194
8.8618	8.0312
8.7718	6.5198
8.6837	5.6516
8.5973	4.957
8.5126	4.5288
8.4295	4.4455
8.3481	4.5071
8.2682	4.3642
8.1898	3.5288
8.1129	2.6682
8.0374	2.0049
7.9634	1.5859
7.8906	1.2134
7.8192	0.8821
7.7491	0.561
7.6802	0.5352
7.6126	0.6235
7.5461	0.7258
7.4807	0.8281
7.4165	0.9053
7.3534	0.9919
7.2914	1.0757
7.2303	1.1494
7.1703	1.1787
7.1113	1.1951
7.0533	1.2415
6.9962	1.335
6.94	1.385
6.8847	1.4897
6.8302	1.6128
6.7767	1.7656
6.7239	1.9563
6.672	2.064
6.6209	2.1191
6.5705	2.1687
6.5209	2.1792
6.4721	2.1606
6.424	2.0928
6.3766	2.1189
6.3299	2.1633
6.2838	2.0925
6.2385	2.1016
6.1937	2.1545
6.1496	2.2527
6.1062	2.2566
6.0633	2.3367
6.0211	2.4194
5.9794	2.425
5.9383	2.3369
5.8978	2.2241
5.8578	2.2473
5.8184	2.2981
5.7794	2.2358
5.741	1.9802
5.7031	1.7666
5.6657	1.7446
5.6288	1.6753
5.5924	1.602
5.5564	1.5884
5.5209	1.647
5.4859	1.791
5.4513	1.9702
5.4171	2.1003
5.3833	2.1042
5.35	2.2034
5.3171	2.3638
5.2846	2.5251
5.2524	3.3704
5.2207	4.1287
5.1893	4.446
5.1584	4.6247
5.1277	4.7244
5.0975	4.8125
5.0676	4.9016
5.038	4.8591
5.0088	4.8784
4.98	4.8574
4.9514	5.0505
4.9232	5.3374
4.8953	5.2107
4.8678	4.843
4.8405	4.6875
4.8135	4.7204
4.7868	4.6411
4.7605	4.7893
4.7344	5.3042
4.7086	5.6699
4.6831	5.6982
4.6578	5.6677
4.6328	5.8325
4.6081	6.1748
4.5837	6.2895
4.5595	6.3354
4.5356	6.2366
4.5119	6.4092
4.4884	6.8093
4.4652	7.2204
4.4423	7.8533
4.4196	8.5364
4.3971	9.2087
4.3748	9.7104
4.3528	10.0403
4.331	10.3213
4.3094	10.5007
4.288	10.6167
4.2668	10.698
4.2458	10.7783
4.2251	10.8537
4.2045	10.9162
4.1841	10.9709
4.164	10.9929
4.144	11.0022
4.1242	11.0229
4.1046	11.049
4.0852	11.0703
4.066	11.0969
4.047	11.1035
4.0281	11.1152
4.0094	11.1233
3.9909	11.1106
3.9725	11.1162
3.9544	11.1262
3.9363	11.1435
3.9185	11.1506
3.9008	11.1477
3.8833	11.1159
3.8659	11.1238
3.8487	11.1584
3.8316	11.2534
3.8147	11.3269
3.7979	11.406
3.7813	11.4736
3.7648	11.5412
3.7485	11.5886
3.7323	11.6286
3.7162	11.6626
3.7003	11.6823
3.6845	11.7131
3.6689	11.7597
3.6534	11.8042
3.638	11.834
3.6227	11.8584
3.6076	11.9033
3.5926	11.9421
3.5777	11.9521
3.563	11.9507
3.5484	11.9687
3.5338	11.9804
3.5195	11.9743
3.5052	11.9248
3.491	11.9404
3.477	11.9643
3.463	11.9695
3.4492	11.9621
3.4355	11.917
3.4219	11.8557
3.4084	11.8506
3.395	11.9236
3.3817	11.9277
3.3685	11.9353
3.3554	12
3.3425	12.0173
3.3296	12.0368
3.3168	12.0144
3.3041	12.0122
3.2915	12.0058
3.279	11.9978
3.2666	11.9692
3.2543	11.9673
3.2421	11.9294
3.23	11.8999
3.218	11.8681
3.206	11.8452
3.1942	11.8137
3.1824	11.8205
3.1707	11.8051
3.1591	11.8159
3.1476	11.8044
3.1362	11.7973
3.1249	11.7922
3.1136	11.7983
3.1024	11.8134
3.0913	11.8269
3.0803	11.8423
3.0694	11.8525
3.0585	11.8625
3.0477	11.8603
3.037	11.8935
3.0264	11.9184
3.0158	11.9258
3.0053	11.9116
2.9949	11.9118
2.9845	11.9277
2.9743	11.9397
2.9641	11.9238
2.9539	11.9367
2.9439	11.9275
2.9339	11.9018
2.9239	11.9546
2.9141	11.9804
2.9043	12.0285
2.8946	12.0446
2.8849	12.0383
2.8753	12.0422
2.8658	12.0508
2.8563	12.1047
2.8469	12.154
2.8375	12.1767
2.8282	12.1992
2.819	12.2478
2.8098	12.313
2.8007	12.2937
2.7917	12.3603
2.7827	12.3781
2.7738	12.4165
2.7649	12.3767
2.7561	12.3737
2.7473	12.5381
2.7386	12.5488
2.7299	12.676
2.7213	12.6821
2.7128	12.7746
2.7043	12.7439
2.6959	12.9067
2.6875	13.063
2.6791	13.0786
2.6709	13.0971
2.6626	13.1833
2.6545	13.2451
2.6463	13.2568
2.6382	13.2441
2.6302	13.187
2.6222	13.2551
2.6143	13.2453
2.6064	13.2373
2.5986	13.2817
2.5908	13.3007
2.583	13.2881
2.5753	13.2824
2.5677	13.3076
2.5601	13.2883
2.5525	13.3086
2.545	13.334
2.5375	13.3161
2.5301	13.352
2.5227	13.321
2.5154	13.3213
2.5081	13.3039
2.5008	13.3169
2.4936	13.312
2.4864	13.334
2.4793	13.3315
2.4722	13.3662
2.4651	13.3061
2.4581	13.3545
2.4511	13.3093
2.4442	13.3266
2.4373	13.3335
2.4305	13.3432
2.4236	13.3447
2.4169	13.3628
2.4101	13.3667
2.4034	13.3593
2.3967	13.3374
2.3901	13.3071
2.3835	13.3105
2.377	13.3364
2.3704	13.3037
2.364	13.2983
2.3575	13.3554
2.3511	13.3466
2.3447	13.3191
2.3384	13.2776
2.3321	13.2878
2.3258	13.3176
2.3195	13.2678
2.3133	13.3061
2.3071	13.3049
2.301	13.3203
2.2949	13.2727
2.2888	13.2697
2.2828	13.2666
2.2767	13.2856
2.2708	13.2375
2.2648	13.2851
2.2589	13.2978
2.253	13.2981
2.2471	13.2619
2.2413	13.2878
2.2355	13.3364
2.2297	13.3293
2.224	13.2949
2.2183	13.3213
2.2126	13.2971
2.207	13.3159
2.2013	13.3491
2.1957	13.4155
2.1902	13.3408
2.1846	13.3779
2.1791	13.3291
2.1736	13.373
2.1682	13.4165
2.1628	13.4331
2.1574	13.4091
2.152	13.3838
2.1466	13.3869
2.1413	13.3652
2.136	13.4494
2.1308	13.4873
2.1255	13.4973
2.1203	13.5039
2.1151	13.4856
2.11	13.4853
2.1048	13.4428
2.0997	13.5627
2.0946	13.5451
2.0895	13.6103
2.0845	13.5393
2.0795	13.6408
