Name: Corrensite (Mg,Fe)_9(Si,Al)_8O_20(OH)_10._xH_2O
Type: Mineral
Class: Silicate
Subclass: Phyllosilicate
Particle Size: Coarse
Sample No.: PS-10A
Owner: JPL
Wavelength Range: VSWIR
Origin: USA, Washington, Packwood
Description: Particle size was 125-500um.Collected by Clay Mineral Society Original ASTER Spectral Library name was jpl.beckman.mineral.silicate.phyllosilicate.coarse.ps10a.spectrum.txt
Measurement: Hemispherical reflectance
X Units: Wavelength (micrometers)
Y Units: Reflectance (percent)
wavelength	value
0.4	5.73
0.403	5.8
0.406	5.98
0.409	6.02
0.412	6.09
0.415	6.15
0.418	6.26
0.421	6.33
0.424	6.54
0.427	6.66
0.43	6.89
0.433	7.13
0.436	7.26
0.439	7.47
0.442	7.71
0.445	7.89
0.448	8.01
0.451	8.16
0.454	8.13
0.457	8.22
0.46	8.29
0.463	8.36
0.466	8.39
0.469	8.56
0.472	8.49
0.475	8.66
0.478	8.69
0.481	8.84
0.484	8.97
0.487	9.14
0.49	9.17
0.493	9.41
0.496	9.67
0.499	9.99
0.502	10.14
0.505	10.31
0.508	10.66
0.511	10.79
0.514	10.96
0.517	11.25
0.52	11.41
0.523	11.67
0.526	11.84
0.529	11.95
0.532	12.04
0.535	12.28
0.538	12.37
0.541	12.54
0.544	12.67
0.547	12.6
0.55	12.77
0.553	12.98
0.556	13.03
0.559	12.97
0.562	13.22
0.565	13.32
0.568	13.45
0.571	13.46
0.574	13.26
0.577	13.41
0.58	13.49
0.583	13.55
0.586	13.55
0.589	13.72
0.592	13.58
0.595	13.67
0.598	13.72
0.601	13.81
0.604	13.78
0.607	13.97
0.61	13.83
0.613	13.94
0.616	13.91
0.619	14.08
0.622	14.1
0.625	14.22
0.628	14.1
0.631	14.18
0.634	14.24
0.637	14.23
0.64	14.32
0.643	14.34
0.646	14.39
0.649	14.33
0.652	14.43
0.655	14.54
0.658	14.52
0.661	14.67
0.664	14.69
0.667	14.61
0.67	14.6
0.673	14.67
0.676	14.76
0.679	14.78
0.682	14.83
0.685	14.81
0.688	14.78
0.691	14.95
0.694	14.94
0.697	14.96
0.7	14.96
0.703	15.05
0.706	15.05
0.709	15.1
0.712	15.26
0.715	15.39
0.718	15.48
0.721	15.34
0.724	15.45
0.727	15.53
0.73	15.57
0.733	15.67
0.736	15.82
0.739	15.9
0.742	16.07
0.745	16.13
0.748	16.11
0.751	16.2
0.754	16.36
0.757	16.44
0.76	16.62
0.763	16.73
0.766	16.81
0.769	16.88
0.772	16.9
0.775	17
0.778	17.21
0.781	17.23
0.784	17.23
0.787	17.29
0.79	17.39
0.793	17.45
0.796	17.54
0.799	17.54
0.808	18.03
0.82	17.93
0.832	17.81
0.844	17.69
0.856	17.57
0.868	17.48
0.88	17.38
0.892	17.43
0.904	17.38
0.916	17.51
0.928	17.59
0.94	17.73
0.952	17.91
0.964	18.09
0.976	18.2
0.988	18.27
1	18.26
1.012	18.45
1.024	18.38
1.036	18.45
1.048	18.51
1.06	18.58
1.072	18.65
1.084	18.75
1.096	18.88
1.108	19.11
1.12	19.32
1.132	19.59
1.144	19.97
1.156	20.19
1.168	20.58
1.18	20.94
1.192	21.36
1.204	21.82
1.216	22.25
1.228	22.76
1.24	23.2
1.252	23.76
1.264	24.26
1.276	24.76
1.288	25.33
1.3	25.76
1.312	26.34
1.324	26.78
1.336	27.24
1.348	27.78
1.36	28.25
1.372	28.6
1.384	28.26
1.396	27.08
1.408	26.98
1.42	27.45
1.432	27.95
1.444	28.67
1.456	29.4
1.468	30.06
1.48	30.92
1.492	31.61
1.504	32.3
1.516	32.86
1.528	33.4
1.54	33.94
1.552	34.42
1.564	35.04
1.576	35.44
1.588	35.98
1.6	36.38
1.612	36.88
1.624	37.21
1.636	37.72
1.648	38.04
1.66	38.47
1.672	38.86
1.684	39.17
1.696	39.56
1.708	39.76
1.72	40.15
1.732	40.33
1.744	40.42
1.756	40.6
1.768	40.61
1.78	40.89
1.792	40.97
1.804	41.23
1.816	41.2
1.828	41.41
1.84	41.29
1.852	40.91
1.864	39.86
1.876	37.41
1.888	33.49
1.9	28.66
1.912	25.89
1.924	25.98
1.936	27.05
1.948	28.15
1.96	29.1
1.972	30.07
1.984	31.16
1.996	32.22
2.008	33.38
2.02	34.42
2.032	35.43
2.044	36.47
2.056	37.24
2.068	37.97
2.08	38.59
2.092	39.07
2.104	39.45
2.116	39.82
2.128	39.9
2.14	39.94
2.152	39.92
2.164	39.51
2.176	39.01
2.188	38.27
2.2	37.71
2.212	37.07
2.224	35.93
2.236	34.4
2.248	32.68
2.26	31.54
2.272	30.47
2.284	29.37
2.296	28.65
2.308	28.01
2.32	27.51
2.332	26.99
2.344	26.52
2.356	26.39
2.368	26.44
2.38	26.37
2.392	26.22
2.404	25.84
2.416	25.52
2.428	25
2.44	24.36
2.452	23.66
2.464	22.83
2.476	22.12
2.488	21.79
2.5	21.44
