Name: Vermiculite (Mg,Fe+2,Al)3(Al,Si)4O10(OH)2.4H2O
Type: Mineral
Class: Silicate
Subclass: Phyllosilicate
Particle Size: Coarse
Sample No.: vermicul_1
Owner: JHU
Wavelength Range: TIR
Origin: Llano, Texas via Norma Vergo #VTx-1 (CMS) (purchased fromClay Mineral Society Repository)
Description: White, earthy clay.  XRD analysis indicates pure vermiculite for the less than 2 micrometer size range.(Sheet Silicates); (Vermiculite Group)Particle size was 0-2 micrometers and was packed powder simulates coarse. Original ASTER Spectral Library name was jhu.nicolet.mineral.silicate.phyllosilicate.packed.vermic1.spectrum.txt
Measurement: Bidirectional reflectance
X Units: Wavelength (micrometers)
Y Units: Reflectance (percent)
wavelength	value
25.0442	17.5244
24.3388	18.0742
23.6719	19.4394
23.0407	21.5051
22.4422	23.7814
21.8741	26.2892
21.334	30.6337
20.8199	31.5624
20.33	29.3366
19.8627	29.4213
19.4163	29.0199
18.9896	25.8051
18.5812	21.2302
18.19	16.976
17.815	13.6137
17.4551	11.0268
17.1094	9.3471
16.7772	8.7153
16.4576	8.8821
16.15	9.3703
15.8537	9.9741
15.568	10.8252
15.2925	11.7407
15.0265	12.4262
14.7697	11.9533
14.5214	10.8962
14.2814	9.8095
14.0492	8.8625
13.8244	8.5105
13.6067	8.143
13.3957	7.6135
13.1912	7.4287
12.9929	7.3486
12.8004	7.3955
12.6135	7.6225
12.432	7.9826
12.2557	8.3059
12.0843	8.3066
11.9176	8.1826
11.7555	8.6252
11.5977	9.2934
11.444	9.8977
11.2944	10.666
11.1487	11.4885
11.0067	11.9389
10.8682	12.1609
10.7332	12.5429
10.6015	13.2854
10.473	14.5051
10.3476	16.2961
10.2251	18.5268
10.1056	21.1225
9.9887	23.7726
9.8746	25.1125
9.763	23.706
9.6539	21.6027
9.5472	20.0917
9.4429	18.8388
9.3408	17.6694
9.2409	16.7741
9.1431	15.9963
9.0474	15.1591
8.9536	14.5205
8.8618	12.102
8.7718	8.3066
8.6837	4.8367
8.5973	3.2422
8.5126	3.0337
8.4295	3.2263
8.3481	3.5017
8.2682	3.7502
8.1898	3.9844
8.1129	4.2158
8.0374	4.4172
7.9634	4.614
7.8906	4.7954
7.8192	4.9914
7.7491	5.1426
7.6802	5.3015
7.6126	5.4375
7.5461	5.5539
7.4807	5.6601
7.4165	5.7585
7.3534	5.8577
7.2914	5.9353
7.2303	6.0122
7.1703	6.0791
7.1113	6.135
7.0533	6.1926
6.9962	6.2493
6.94	6.2966
6.8847	6.3315
6.8302	6.3974
6.7767	6.4643
6.7239	6.4966
6.672	6.5185
6.6209	6.5307
6.5705	6.5176
6.5209	6.5012
6.4721	6.4441
6.424	6.3782
6.3766	6.3003
6.3299	6.217
6.2838	6.1015
6.2385	5.9719
6.1937	5.8061
6.1496	5.6907
6.1062	5.581
6.0633	5.4844
6.0211	5.3823
5.9794	5.2649
5.9383	5.2119
5.8978	5.3066
5.8578	5.5527
5.8184	5.8572
5.7794	6.2554
5.741	6.6035
5.7031	6.8674
5.6657	7.0754
5.6288	7.2488
5.5924	7.4106
5.5564	7.5556
5.5209	7.6804
5.4859	7.7942
5.4513	7.9055
5.4171	8.0012
5.3833	8.1116
5.35	8.2361
5.3171	8.3598
5.2846	8.4629
5.2524	8.529
5.2207	8.5554
5.1893	8.5796
5.1584	8.5776
5.1277	8.5825
5.0975	8.5986
5.0676	8.5991
5.038	8.5932
5.0088	8.5647
4.98	8.5254
4.9514	8.4917
4.9232	8.4856
4.8953	8.4978
4.8678	8.5149
4.8405	8.5158
4.8135	8.5183
4.7868	8.5051
4.7605	8.5032
4.7344	8.498
4.7086	8.4795
4.6831	8.4714
4.6578	8.4682
4.6328	8.458
4.6081	8.4436
4.5837	8.417
4.5595	8.3955
4.5356	8.3711
4.5119	8.3354
4.4884	8.3059
4.4652	8.2663
4.4423	8.2231
4.4196	8.1911
4.3971	8.1709
4.3748	8.1548
4.3528	8.145
4.331	8.1394
4.3094	8.1304
4.288	8.1452
4.2668	8.164
4.2458	8.1914
4.2251	8.2309
4.2045	8.2715
4.1841	8.3242
4.164	8.375
4.144	8.4172
4.1242	8.4739
4.1046	8.5427
4.0852	8.6145
4.066	8.6858
4.047	8.7617
4.0281	8.8408
4.0094	8.9131
3.9909	8.9831
3.9725	9.0454
3.9544	9.1054
3.9363	9.1567
3.9185	9.2114
3.9008	9.24
3.8833	9.2558
3.8659	9.2724
3.8487	9.2722
3.8316	9.251
3.8147	9.2285
3.7979	9.2043
3.7813	9.167
3.7648	9.1338
3.7485	9.0698
3.7323	8.9988
3.7162	8.8969
3.7003	8.8005
3.6845	8.7082
3.6689	8.5996
3.6534	8.4748
3.638	8.341
3.6227	8.2029
3.6076	8.0674
3.5926	7.927
3.5777	7.7768
3.563	7.646
3.5484	7.4978
3.5338	7.3474
3.5195	7.2178
3.5052	7.1172
3.491	7.011
3.477	6.8801
3.463	6.7329
3.4492	6.6113
3.4355	6.4682
3.4219	6.3594
3.4084	6.2478
3.395	6.1313
3.3817	6.0232
3.3685	5.9463
3.3554	5.8164
3.3425	5.7056
3.3296	5.6098
3.3168	5.5342
3.3041	5.4602
3.2915	5.3952
3.279	5.3386
3.2666	5.2847
3.2543	5.2312
3.2421	5.1958
3.23	5.1509
3.218	5.1208
3.206	5.0825
3.1942	5.0464
3.1824	5.012
3.1707	4.9709
3.1591	4.9429
3.1476	4.928
3.1362	4.9011
3.1249	4.8586
3.1136	4.8257
3.1024	4.7866
3.0913	4.7817
3.0803	4.749
3.0694	4.7297
3.0585	4.6999
3.0477	4.6955
3.037	4.6804
3.0264	4.6772
3.0158	4.6426
3.0053	4.6086
2.9949	4.6025
2.9845	4.5903
2.9743	4.5781
2.9641	4.5293
2.9539	4.522
2.9439	4.5107
2.9339	4.4849
2.9239	4.4751
2.9141	4.4392
2.9043	4.4272
2.8946	4.4219
2.8849	4.3896
2.8753	4.4009
2.8658	4.3808
2.8563	4.3496
2.8469	4.3437
2.8375	4.3164
2.8282	4.3052
2.819	4.2778
2.8098	4.269
2.8007	4.2605
2.7917	4.2461
2.7827	4.2744
2.7738	4.3335
2.7649	4.4311
2.7561	4.564
2.7473	4.7876
2.7386	5.1294
2.7299	5.4736
2.7213	5.5539
2.7128	6.0246
2.7043	6.9026
2.6959	7.4736
2.6875	7.8725
2.6791	8.1999
2.6709	8.4616
2.6626	8.6428
2.6545	8.7929
2.6463	8.9502
2.6382	9.0644
2.6302	9.1721
2.6222	9.2573
2.6143	9.302
2.6064	9.3652
2.5986	9.3733
2.5908	9.4477
2.583	9.458
2.5753	9.4717
2.5677	9.509
2.5601	9.5019
2.5525	9.4905
2.545	9.4887
2.5375	9.4956
2.5301	9.4956
2.5227	9.4963
2.5154	9.5022
2.5081	9.5237
2.5008	9.5744
2.4936	9.605
2.4864	9.6662
2.4793	9.728
2.4722	9.7824
2.4651	9.8144
2.4581	9.9463
2.4511	10.084
2.4442	10.1294
2.4373	10.1831
2.4305	10.2295
2.4236	10.2922
2.4169	10.3384
2.4101	10.29
2.4034	10.2285
2.3967	10.176
2.3901	10.2864
2.3835	10.4953
2.377	10.6484
2.3704	10.8254
2.364	10.9365
2.3575	10.9297
2.3511	10.9726
2.3447	10.9658
2.3384	10.7812
2.3321	10.5224
2.3258	10.4756
2.3195	10.5561
2.3133	10.749
2.3071	10.9394
2.301	11.0171
2.2949	11.1069
2.2888	11.4287
2.2828	11.8559
2.2767	12.2216
2.2708	12.4018
2.2648	12.5
2.2589	12.5083
2.253	12.1919
2.2471	11.8222
2.2413	12.1123
2.2355	12.6738
2.2297	12.9077
2.224	12.9716
2.2183	13.0332
2.2126	13.0136
2.207	12.9961
2.2013	12.997
2.1957	12.9912
2.1902	13.0195
2.1846	13.0088
2.1791	12.998
2.1736	13.0136
2.1682	12.916
2.1628	12.9555
2.1574	12.9404
2.152	12.9453
2.1466	12.9082
2.1413	12.895
2.136	12.8769
2.1308	12.8457
2.1255	12.8213
2.1203	12.7734
2.1151	12.8418
2.11	12.7758
2.1048	12.75
2.0997	12.7387
2.0946	12.7465
2.0895	12.768
2.0845	12.7036
2.0795	12.7036
