Name: Dolomite CaMg(CO3)2
Type: Mineral
Class: Carbonate
Subclass: None
Particle Size: Fine
Sample No.: dolomite_1
Owner: JHU
Wavelength Range: TIR
Origin: Sample from Oberdorf, Styria, Austria via the Smithsonian(sample no. NMNH R12596).
Description: The sample was a single white crystal, 3 cm x 2 cm x 2 cm and 29 g, showing good cleavage.  No impurities or alteration were visible in hand sample.  Under the microscope it appears very pure and unaltered. Particle size was Less than 2  Micrometers. Original ASTER Spectral Library name was jhu.nicolet.mineral.carbonate.none.powder.dolomi1.spectrum.txt
Measurement: Transmission
X Units: Wavelength (micrometers)
Y Units: Transmittance (percent)
wavelength	value
25.0442	30.453
24.3388	35.0038
23.6719	47.5038
23.0407	61.9842
22.4422	70.8143
21.8741	76.7303
21.334	79.9021
20.8199	82.7264
20.33	84.1443
19.8627	84.7078
19.4163	85.7302
18.9896	86.5974
18.5812	87.2009
18.19	87.7693
17.815	88.406
17.4551	88.6716
17.1094	89.2283
16.7772	89.4851
16.4576	89.822
16.15	90.2986
15.8537	90.7009
15.568	91.0994
15.2925	91.2166
15.0265	91.5183
14.7697	91.9724
14.5214	91.9548
14.2814	91.99
14.0492	91.1643
13.8244	84.1175
13.6067	82.2908
13.3957	93.2717
13.1912	94.5413
12.9929	94.9373
12.8004	94.8259
12.6135	95.0291
12.432	95.1741
12.2557	95.0784
12.0843	94.676
11.9176	93.7937
11.7555	89.7615
11.5977	87.3728
11.444	64.9007
11.2944	26.9296
11.1487	87.4705
11.0067	92.3084
10.8682	93.092
10.7332	93.1541
10.6015	93.1375
10.473	93.0222
10.3476	92.7151
10.2251	92.0491
10.1056	91.282
9.9887	90.5808
9.8746	89.5901
9.763	88.5003
9.6539	88.4412
9.5472	87.9871
9.4429	88.0823
9.3408	87.6004
9.2409	87.135
9.1431	86.9383
9.0474	87.6258
8.9536	88.6716
8.8618	88.5921
8.7718	88.6082
8.6837	88.5901
8.5973	88.4529
8.5126	88.3933
8.4295	88.2664
8.3481	88.3748
8.2682	88.3797
8.1898	87.7649
8.1129	86.8789
8.0374	86.2168
7.9634	85.4685
7.8906	84.4746
7.8192	83.1277
7.7491	81.2998
7.6802	79.326
7.6126	77.1807
7.5461	74.179
7.4807	70.2596
7.4165	65.7489
7.3534	59.287
7.2914	51.0233
7.2303	42.4491
7.1703	31.5978
7.1113	18.4885
7.0533	9.872
6.9962	2.7053
6.94	0.8264
6.8847	0.676
6.8302	1.0303
6.7767	1.719
6.7239	2.9668
6.672	5.602
6.6209	11.9113
6.5705	21.9719
6.5209	33.1847
6.4721	44.1613
6.424	54.0521
6.3766	62.5401
6.3299	68.8731
6.2838	72.0682
6.2385	73.7413
6.1937	74.9969
6.1496	77.0323
6.1062	78.9395
6.0633	81.1338
6.0211	83.1853
5.9794	85.3477
5.9383	87.294
5.8978	88.7957
5.8578	90.0029
5.8184	90.9053
5.7794	91.6604
5.741	92.2771
5.7031	92.9646
5.6657	93.407
5.6288	93.4902
5.5924	93.3611
5.5564	92.5664
5.5209	90.1406
5.4859	89.7302
5.4513	93.4138
5.4171	95.2488
5.3833	95.9043
5.35	96.291
5.3171	96.6299
5.2846	96.8816
5.2524	97.0771
5.2207	97.1943
5.1893	97.3916
5.1584	97.5762
5.1277	97.657
5.0975	97.7353
5.0676	97.7312
5.038	97.8191
5.0088	97.9639
4.98	98.0427
4.9514	98.1384
4.9232	98.1907
4.8953	98.2009
4.8678	98.2239
4.8405	98.3259
4.8135	98.3699
4.7868	98.4436
4.7605	98.4519
4.7344	98.5056
4.7086	98.5232
4.6831	98.5173
4.6578	98.4773
4.6328	98.4944
4.6081	98.5852
4.5837	98.6287
4.5595	98.741
4.5356	98.7458
4.5119	98.7903
4.4884	98.8884
4.4652	98.9324
4.4423	98.8889
4.4196	98.9167
4.3971	98.9314
4.3748	98.9758
4.3528	99.0203
4.331	98.9744
4.3094	99.0315
4.288	99.0134
4.2668	98.9246
4.2458	99.1311
4.2251	99.1599
4.2045	99.0618
4.1841	99.0662
4.164	99.0554
4.144	98.9914
4.1242	98.9519
4.1046	98.9294
4.0852	98.8513
4.066	98.7385
4.047	98.5901
4.0281	98.3577
4.0094	97.6736
3.9909	96.8264
3.9725	94.0432
3.9544	92.7322
3.9363	93.1702
3.9185	93.946
3.9008	95.4783
3.8833	96.1331
3.8659	96.4802
3.8487	97.446
3.8316	97.6389
3.8147	97.0144
3.7979	96.8074
3.7813	97.2976
3.7648	98.0896
3.7485	98.4573
3.7323	98.6091
3.7162	98.572
3.7003	98.5593
3.6845	98.6052
3.6689	98.5466
3.6534	98.5544
3.638	98.489
3.6227	98.4372
3.6076	98.3982
3.5926	98.2693
3.5777	98.2151
3.563	98.1794
3.5484	97.8572
3.5338	97.7737
3.5195	97.4382
3.5052	96.7854
3.491	96.0261
3.477	95.1218
3.463	94.4182
3.4492	94.0427
3.4355	94.4768
3.4219	94.7791
3.4084	95.0217
3.395	95.3474
3.3817	95.4924
3.3685	95.7966
3.3554	95.4832
3.3425	95.2117
3.3296	95.1082
3.3168	94.8513
3.3041	94.6912
3.2915	95.8162
3.279	95.9631
3.2666	95.8772
3.2543	95.74
3.2421	95.5759
3.23	95.3103
3.218	95.0388
3.206	94.863
3.1942	94.5369
3.1824	94.3669
3.1707	94.0418
3.1591	93.7087
3.1476	93.2839
3.1362	92.8406
3.1249	92.4548
3.1136	92.0994
3.1024	91.7644
3.0913	91.2244
3.0803	90.7449
3.0694	90.3445
3.0585	89.9959
3.0477	89.824
3.037	89.449
3.0264	88.9822
3.0158	88.3601
3.0053	87.6463
2.9949	86.7947
2.9845	86.0681
2.9743	84.9461
2.9641	83.9803
2.9539	82.9265
2.9439	82.2166
2.9339	81.5994
2.9239	81.1453
2.9141	81.0164
2.9043	81.2615
2.8946	81.7381
2.8849	82.3084
2.8753	82.9334
2.8658	83.4969
2.8563	84.242
2.8469	85.0291
2.8375	85.9568
2.8282	86.6775
2.819	87.9881
2.8098	88.9939
2.8007	89.8591
2.7917	90.8435
2.7827	92.0466
2.7738	93.1873
2.7649	94.0291
2.7561	94.9656
2.7473	95.7576
2.7386	96.2624
2.7299	96.5388
2.7213	96.4509
2.7128	96.7429
2.7043	96.8923
2.6959	97.1306
2.6875	97.2576
2.6791	97.3279
2.6709	97.2117
2.6626	97.1648
2.6545	97.1414
2.6463	97.1638
2.6382	97.0749
2.6302	97.2146
2.6222	96.9695
2.6143	97.0242
2.6064	96.8679
2.5986	97.071
2.5908	97.1404
2.583	97.0896
2.5753	97.0037
2.5677	96.8874
2.5601	96.8181
2.5525	96.7361
2.545	96.8064
2.5375	96.9333
2.5301	96.7322
2.5227	96.6208
2.5154	96.5759
2.5081	96.5857
2.5008	96.6052
2.4936	96.5251
2.4864	96.6521
2.4793	96.5798
2.4722	96.5017
2.4651	96.3611
2.4581	96.5232
2.4511	96.6189
2.4442	96.4314
2.4373	96.533
2.4305	96.7498
2.4236	96.5154
2.4169	96.6091
2.4101	96.5271
2.4034	96.4099
2.3967	96.5232
2.3901	96.4373
2.3835	96.2927
2.377	96.5466
2.3704	96.2732
2.364	96.3982
2.3575	96.3865
2.3511	96.4216
2.3447	96.4373
2.3384	96.0896
2.3321	96.1345
2.3258	95.9783
2.3195	96.2341
2.3133	96.1482
2.3071	96.2888
2.301	96.0564
2.2949	96.3005
2.2888	96.2361
2.2828	96.031
2.2767	96.0935
2.2708	96.1736
2.2648	96.1345
2.2589	96.3279
2.253	96.2693
2.2471	96.3279
2.2413	96.0232
2.2355	96.2341
2.2297	96.3142
2.224	95.7732
2.2183	95.9685
2.2126	96.0798
2.207	95.697
2.2013	95.7048
2.1957	95.7595
2.1902	96.2908
2.1846	95.4939
2.1791	95.6658
2.1736	95.7732
2.1682	96.0271
2.1628	95.738
2.1574	95.8787
2.152	95.6599
2.1466	95.5193
2.1413	95.3552
2.136	95.7107
2.1308	95.6794
2.1255	95.5662
2.1203	95.4568
2.1151	95.7302
2.11	95.3552
2.1048	95.2927
2.0997	95.3435
2.0946	95.531
2.0895	95.6755
2.0845	95.3865
2.0795	95.238
