Name: Cookeite LiAl_4(Si_3Al)O_10(OH)_8
Type: Mineral
Class: Silicate
Subclass: Phyllosilicate
Particle Size: Coarse
Sample No.: PS-9A
Owner: JPL
Wavelength Range: VSWIR
Origin: USA, Arkansas, Pulaski County.
Description: Particle size was 125-500um. Collected by:  JPL Original ASTER Spectral Library name was jpl.perkin.mineral.silicate.phyllosilicate.coarse.ps09a.spectrum.txt
Measurement: Hemispherical reflectance
X Units: Wavelength (micrometers)
Y Units: Reflectance (percent)
wavelength	value
2.5	17.9018
2.494	17.9925
2.488	18.0797
2.482	18.3695
2.476	18.6548
2.47	18.8626
2.464	18.8774
2.458	18.9233
2.452	18.8458
2.446	18.8346
2.44	18.8117
2.434	18.9838
2.428	19.3023
2.422	19.6451
2.416	19.8782
2.41	19.8903
2.404	19.7908
2.398	19.4778
2.392	19.0646
2.386	18.4738
2.38	17.7287
2.374	16.9841
2.368	16.241
2.362	15.9254
2.356	16.0525
2.35	16.6581
2.344	17.8675
2.338	19.0993
2.332	20.3455
2.326	21.455
2.32	22.5397
2.314	23.6071
2.308	24.8244
2.302	25.9715
2.296	26.9957
2.29	27.6055
2.284	28.0094
2.278	28.1435
2.272	27.7324
2.266	27.0172
2.26	26.3568
2.254	25.6701
2.248	25.3458
2.242	25.129
2.236	24.9318
2.23	24.3496
2.224	23.0961
2.218	21.6384
2.212	21.0862
2.206	21.5473
2.2	22.1422
2.194	21.9773
2.188	21.4399
2.182	21.2761
2.176	21.9563
2.17	23.641
2.164	26.4194
2.158	30.5401
2.152	34.9977
2.146	38.7223
2.14	41.0972
2.134	42.418
2.128	43.1723
2.122	43.4729
2.116	43.559
2.11	43.4409
2.104	43.3246
2.098	43.3778
2.092	43.3519
2.086	43.4251
2.08	43.5405
2.074	43.7226
2.068	43.6778
2.062	43.4195
2.056	42.9206
2.05	42.4339
2.044	41.8957
2.038	41.4207
2.032	41.1444
2.026	40.9659
2.02	40.9925
2.014	41.2385
2.008	41.6115
2.002	42.0334
1.996	42.6733
1.99	43.5141
1.984	44.5062
1.978	45.4438
1.972	46.2916
1.966	47.2116
1.96	47.9702
1.954	48.4812
1.948	48.7251
1.942	49.0192
1.936	49.1319
1.93	49.1733
1.924	49.0002
1.918	48.6281
1.912	48.2925
1.906	48.4823
1.9	49.3658
1.894	50.5511
1.888	51.5509
1.882	52.2265
1.876	52.6819
1.87	52.9425
1.864	52.9316
1.858	52.4701
1.852	51.4709
1.846	50.3667
1.84	49.729
1.834	49.6843
1.828	49.9931
1.822	50.4468
1.816	51.108
1.81	51.8512
1.804	52.5384
1.798	53.1422
1.792	53.6342
1.786	54.1449
1.78	54.5241
1.774	54.7762
1.768	55.089
1.762	55.3272
1.756	55.4824
1.75	55.4895
1.744	55.6418
1.738	55.5956
1.732	55.5155
1.726	55.4598
1.72	55.2144
1.714	55.0268
1.708	54.7874
1.702	54.5027
1.696	54.1933
1.69	53.9365
1.684	53.5723
1.678	53.0946
1.672	52.7505
1.666	52.2143
1.66	51.8292
1.654	51.3427
1.648	50.9008
1.642	50.3313
1.636	49.8082
1.63	49.1266
1.624	48.6844
1.618	48.158
1.612	47.7178
1.606	47.3119
1.6	46.918
1.594	46.7425
1.588	46.6113
1.582	46.6646
1.576	46.8819
1.57	47.4276
1.564	47.9405
1.558	48.5393
1.552	49.1435
1.546	49.7138
1.54	50.3022
1.534	50.7585
1.528	51.1429
1.522	51.3435
1.516	51.1459
1.51	50.6461
1.504	50.0377
1.498	49.2308
1.492	48.3587
1.486	47.6761
1.48	47.1317
1.474	46.7809
1.468	46.6851
1.462	46.7379
1.456	47.0091
1.45	47.0058
1.444	46.5295
1.438	45.203
1.432	43.9968
1.426	44.0812
1.42	43.9155
1.414	39.6216
1.408	35.5275
1.402	33.8923
1.396	36.704
1.39	40.846
1.384	47.4663
1.378	52.5641
1.372	54.2017
1.366	55.1657
1.36	55.7488
1.354	56.3038
1.348	56.7129
1.342	56.6772
1.336	56.497
1.33	56.4986
1.324	56.5483
1.318	56.6196
1.312	56.7488
1.306	57
1.3	57.2578
1.294	57.4645
1.288	57.6177
1.282	57.6883
1.276	57.8171
1.27	57.8882
1.264	57.8883
1.258	58.0851
1.252	58.1826
1.246	58.1026
1.24	57.9824
1.234	57.9626
1.228	58.0767
1.222	58.2167
1.216	58.1986
1.21	58.1632
1.204	58.1598
1.198	58.2101
1.192	58.1594
1.186	58.0882
1.18	58.0998
1.174	57.9909
1.168	57.9377
1.162	57.9416
1.156	57.8386
1.15	57.7984
1.144	57.7299
1.138	57.7597
1.132	57.62
1.126	57.4397
1.12	57.4646
1.114	57.3692
1.108	57.2528
1.102	57.2951
1.096	57.0918
1.09	57.0353
1.084	56.9638
1.078	56.8837
1.072	56.6961
1.066	56.7022
1.06	56.6462
1.054	56.5259
1.048	56.5002
1.042	56.3295
1.036	56.3205
1.03	56.2223
1.024	56.1687
1.018	56.0235
1.012	56.0158
1.006	55.9311
1	55.8011
0.994	55.7058
0.988	55.5635
0.982	55.4706
0.976	55.3484
0.97	55.3237
0.964	54.8216
0.958	54.693
0.952	54.886
0.946	55.1397
0.94	55.4045
0.934	55.4737
0.928	55.3724
0.922	55.3195
0.916	55.3789
0.91	55.3506
0.904	55.4267
0.898	55.2991
0.892	55.3292
0.886	55.2585
0.88	55.2256
0.874	55.1893
0.868	55.2243
0.862	55.1607
0.856	55.8184
0.85	55.7639
0.844	55.7912
0.838	55.7526
0.832	55.7444
0.826	55.7407
0.82	55.7469
0.814	55.763
0.808	55.8331
0.802	55.8897
0.796	55.9023
0.79	55.9293
0.784	55.9708
0.778	55.9779
0.772	56.014
0.766	55.991
0.76	55.9854
0.754	55.9971
0.748	55.9571
0.742	55.9248
0.736	55.8373
0.73	55.7783
0.724	55.7018
0.718	55.5893
0.712	55.4299
0.706	55.2797
0.7	55.0898
0.694	54.915
0.688	54.7494
0.682	54.5571
0.676	54.3755
0.67	54.1565
0.664	53.9569
0.658	53.7303
0.652	53.5212
0.646	53.312
0.64	53.14
0.634	52.9474
0.628	52.7609
0.622	52.5815
0.616	52.4282
0.61	52.2593
0.604	52.1157
0.598	51.9976
0.592	51.8567
0.586	51.6671
0.58	51.452
0.574	51.1685
0.568	50.8205
0.562	50.4094
0.556	49.9367
0.55	49.3603
0.544	48.6577
0.538	47.8826
0.532	46.9963
0.526	46.0391
0.52	45.0545
0.514	44.0321
0.508	43.0103
0.502	42.0194
0.496	41.066
0.49	40.1851
0.484	39.4525
0.478	38.7917
0.472	38.3098
0.466	37.8727
0.46	37.4246
0.454	36.912
0.448	36.2279
0.442	35.1624
0.436	33.8843
0.43	32.5463
0.424	31.2989
0.418	30.2213
0.412	29.2538
0.406	28.3946
0.4	27.5076
