Name: Chlorite
Type: Mineral
Class: Silicate
Subclass: Phyllosilicate
Particle Size: Fine
Sample No.: PS-12C
Owner: JPL
Wavelength Range: VSWIR
Origin: USA, California
Description: Particle size was 0-45um.Collected by Ward's Original ASTER Spectral Library name was jpl.beckman.mineral.silicate.phyllosilicate.fine.ps12c.spectrum.txt
Measurement: Hemispherical reflectance
X Units: Wavelength (micrometers)
Y Units: Reflectance (percent)
wavelength	value
0.4	32.28
0.403	32.48
0.406	32.71
0.409	33.22
0.412	33.65
0.415	34.09
0.418	34.69
0.421	35.08
0.424	35.53
0.427	36.13
0.43	36.58
0.433	36.98
0.436	37.41
0.439	37.83
0.442	37.99
0.445	38.2
0.448	38.29
0.451	38.55
0.454	38.89
0.457	39.26
0.46	39.43
0.463	39.95
0.466	40.38
0.469	40.81
0.472	41.4
0.475	41.94
0.478	42.39
0.481	42.65
0.484	43.03
0.487	43.11
0.49	43.36
0.493	43.35
0.496	43.54
0.499	44.05
0.502	44.35
0.505	44.53
0.508	44.85
0.511	45.09
0.514	45.08
0.517	45.2
0.52	45.21
0.523	45.21
0.526	45.21
0.529	45.26
0.532	45.14
0.535	45.25
0.538	45.28
0.541	45.31
0.544	45.26
0.547	45.27
0.55	45.56
0.553	45.5
0.556	45.46
0.559	45.47
0.562	45.67
0.565	45.56
0.568	45.53
0.571	45.5
0.574	45.18
0.577	45.07
0.58	44.88
0.583	44.85
0.586	44.67
0.589	44.73
0.592	44.46
0.595	44.16
0.598	44.12
0.601	43.99
0.604	43.77
0.607	43.72
0.61	43.58
0.613	43.2
0.616	43.06
0.619	42.85
0.622	42.58
0.625	42.54
0.628	42.37
0.631	42.07
0.634	41.8
0.637	41.68
0.64	41.44
0.643	41.31
0.646	41.19
0.649	40.81
0.652	40.59
0.655	40.42
0.658	40.27
0.661	40.11
0.664	40.07
0.667	39.85
0.67	39.63
0.673	39.42
0.676	39.17
0.679	39.09
0.682	38.92
0.685	38.95
0.688	38.88
0.691	38.63
0.694	38.61
0.697	38.49
0.7	38.52
0.703	38.4
0.706	38.35
0.709	38.38
0.712	38.52
0.715	38.52
0.718	38.63
0.721	38.72
0.724	38.6
0.727	38.66
0.73	38.72
0.733	38.9
0.736	39.08
0.739	39.22
0.742	39.3
0.745	39.43
0.748	39.78
0.751	39.76
0.754	39.89
0.757	40.18
0.76	40.48
0.763	40.59
0.766	40.63
0.769	40.97
0.772	41.08
0.775	41.36
0.778	41.49
0.781	41.85
0.784	41.89
0.787	41.95
0.79	42.09
0.793	42.08
0.796	42.3
0.799	42.41
0.808	42.56
0.82	42.34
0.832	42.06
0.844	41.78
0.856	41.24
0.868	41.11
0.88	40.81
0.892	40.78
0.904	40.84
0.916	41.23
0.928	41.72
0.94	42.12
0.952	42.61
0.964	43.18
0.976	43.64
0.988	43.88
1	44.08
1.012	44.29
1.024	44.32
1.036	44.49
1.048	44.5
1.06	44.53
1.072	44.53
1.084	44.76
1.096	44.81
1.108	45.13
1.12	45.37
1.132	45.79
1.144	46.08
1.156	46.54
1.168	47.04
1.18	47.68
1.192	48.35
1.204	48.99
1.216	49.68
1.228	50.36
1.24	51.07
1.252	51.89
1.264	52.42
1.276	53.18
1.288	53.89
1.3	54.46
1.312	55.21
1.324	55.89
1.336	56.58
1.348	57.26
1.36	57.88
1.372	58.33
1.384	54.33
1.396	56.61
1.408	57.96
1.42	58.82
1.432	58.9
1.444	59.52
1.456	60.36
1.468	61.28
1.48	61.93
1.492	62.41
1.504	62.73
1.516	63.06
1.528	63.42
1.54	63.95
1.552	64.33
1.564	65.02
1.576	65.53
1.588	66.18
1.6	66.81
1.612	67.42
1.624	67.9
1.636	68.54
1.648	69.03
1.66	69.49
1.672	69.91
1.684	70.41
1.696	70.61
1.708	71.16
1.72	71.46
1.732	71.71
1.744	71.95
1.756	72.15
1.768	72.37
1.78	72.62
1.792	72.65
1.804	72.75
1.816	72.65
1.828	72.64
1.84	72.45
1.852	72
1.864	71.59
1.876	71.27
1.888	71.3
1.9	71.32
1.912	71.11
1.924	70.99
1.936	70.5
1.948	70.05
1.96	69.6
1.972	69.23
1.984	68.97
1.996	69.31
2.008	70.04
2.02	71.25
2.032	72.36
2.044	73.44
2.056	74.1
2.068	74.64
2.08	74.9
2.092	74.68
2.104	74.51
2.116	74.53
2.128	74.69
2.14	74.64
2.152	74.16
2.164	73.7
2.176	72.98
2.188	72.1
2.2	70.74
2.212	68.78
2.224	65.34
2.236	61.22
2.248	59.1
2.26	58.8
2.272	58.09
2.284	55.98
2.296	53.6
2.308	51.55
2.32	50.51
2.332	50.59
2.344	52.24
2.356	54.52
2.368	56.28
2.38	57.25
2.392	58.05
2.404	59.14
2.416	59.43
2.428	58.89
2.44	57.57
2.452	56.44
2.464	55.23
2.476	54.77
2.488	54.79
2.5	54.99
