Name: Trona Na_3(CO_3)(HCO_3).2H_2O
Type: Mineral
Class: Carbonate
Subclass: None
Particle Size: Fine
Sample No.: C-4A
Owner: JPL
Wavelength Range: TIR
Origin: USA, Wyoming, Sweetwater County
Description: Particle size was 0-45um.Collected by Ward's Original ASTER Spectral Library name was jpl.nicolet.mineral.carbonate.none.fine.c04a.spectrum.txt
Measurement: Hemispherical reflectance
X Units: Wavelength (micrometers)
Y Units: Reflectance (percent)
wavelength	value
15.3853	3.9529
15.1161	3.5043
14.8563	2.9046
14.6052	2.5896
14.3624	1.2111
14.1276	1.7781
13.9004	1.7396
13.6803	1.9318
13.4671	2.277
13.2604	2.4638
13.06	2.5946
12.8656	2.7922
12.6769	2.7412
12.4936	2.8318
12.3155	2.9431
12.1425	2.8478
11.9742	3.3591
11.8106	5.8704
11.6513	6.7044
11.4963	3.1361
11.3454	2.7334
11.1983	2.4818
11.0551	2.5121
10.9154	2.5693
10.7793	2.468
10.6465	2.6558
10.5169	2.6529
10.3904	2.6855
10.267	2.7413
10.1464	2.7528
10.0287	2.8724
9.9136	2.8302
9.8012	2.6115
9.6913	2.8169
9.5838	2.4666
9.4787	2.812
9.3758	2.9428
9.2752	2.7803
9.1767	2.8571
9.0803	2.8732
8.9858	2.9087
8.8934	2.7797
8.8028	2.7988
8.714	2.6968
8.627	2.7589
8.5417	2.9795
8.4581	2.8029
8.3761	3.0407
8.2957	2.8515
8.2169	2.8441
8.1395	2.9049
8.0635	2.7634
7.989	2.6702
7.9158	2.504
7.8439	2.4908
7.7734	2.4295
7.7041	2.3001
7.636	2.208
7.5691	2.2252
7.5034	2.1965
7.4388	2.2122
7.3753	2.074
7.3129	2.0753
7.2515	2.0577
7.1912	1.9926
7.1318	1.9777
7.0734	1.9499
7.016	1.8871
6.9595	2.2177
6.9039	2.4115
6.8492	2.7565
6.7953	3.2281
6.7423	3.1205
6.6901	2.5922
6.6387	2.083
6.5881	1.6258
6.5382	1.348
6.4892	1.2809
6.4408	1.2275
6.3931	1.1678
6.3462	1.3404
6.2999	1.3078
6.2543	1.3452
6.2094	1.6132
6.1651	1.6145
6.1214	1.6716
6.0784	1.7506
6.0359	1.7695
5.994	1.8047
5.9527	2.0178
5.912	2.1557
5.8718	2.0784
5.8322	1.9496
5.7931	1.7087
5.7545	1.4601
5.7165	1.2453
5.6789	1.3143
5.6418	1.295
5.6052	1.1391
5.5691	0.9976
5.5334	1.134
5.4982	1.0666
5.4635	1.2605
5.4291	1.2135
5.3952	1.2176
5.3618	1.3087
5.3287	1.4508
5.2961	1.3438
5.2638	1.4941
5.2319	1.6354
5.2004	1.6665
5.1693	1.7016
5.1386	1.8916
5.1082	1.9165
5.0782	1.9948
5.0485	1.9799
5.0192	2.1548
4.9902	2.2
4.9616	2.2921
4.9332	2.3584
4.9052	2.5226
4.8776	2.4669
4.8502	2.6067
4.8231	2.7208
4.7963	2.7359
4.7699	2.8531
4.7437	2.831
4.7178	3.0257
4.6922	3.1678
4.6668	3.1963
4.6418	3.364
4.617	3.259
4.5924	3.3891
4.5681	3.4333
4.5441	3.5428
4.5203	3.3087
4.4968	3.2772
4.4735	3.3356
4.4505	3.0404
4.4277	3.0331
4.4051	2.9731
4.3828	3.0981
4.3607	3.0939
4.3388	3.3291
4.3171	3.2186
4.2956	3.469
4.2744	3.5595
4.2534	3.5006
4.2325	3.5906
4.2119	3.6627
4.1915	3.7249
4.1712	3.8534
4.1512	3.9165
4.1313	3.763
4.1117	3.7438
4.0922	3.5901
4.0729	3.758
4.0538	3.7976
4.0349	3.9819
4.0161	3.9822
3.9976	4.0124
3.9792	3.952
3.9609	4.0258
3.9428	3.9802
3.9249	4.022
3.9072	4.1135
3.8896	4.2412
3.8722	4.3201
3.8549	4.409
3.8378	4.4969
3.8208	4.3791
3.804	4.462
3.7873	4.6206
3.7708	4.5706
3.7544	4.6121
3.7382	4.4507
3.7221	4.4581
3.7061	4.397
3.6903	4.2288
3.6746	4.1704
3.659	4.0162
3.6436	3.8658
3.6283	3.8867
3.6131	3.675
3.5981	3.6601
3.5832	3.4601
3.5684	3.3245
3.5537	3.2093
3.5391	3.1501
3.5247	2.9169
3.5104	2.8149
3.4962	2.8264
3.4821	2.5556
3.4681	2.6156
3.4543	2.6292
3.4405	2.461
3.4269	2.4876
3.4133	2.1433
3.3999	2.2696
3.3866	2.2293
3.3733	2.0508
3.3602	2.0171
3.3472	2.0397
3.3343	1.9906
3.3215	1.8406
3.3088	1.7921
3.2961	1.7897
3.2836	1.6856
3.2712	1.689
3.2588	1.6974
3.2466	1.5819
3.2345	1.6256
3.2224	1.4768
3.2104	1.4669
3.1985	1.5535
3.1867	1.5773
3.175	1.6023
3.1634	1.5691
3.1519	1.5552
3.1404	1.5386
3.129	1.5266
3.1178	1.5552
3.1065	1.5357
3.0954	1.6664
3.0844	1.4838
3.0734	1.6323
3.0625	1.5512
3.0517	1.6367
3.041	1.5748
3.0303	1.7992
3.0197	1.7277
3.0092	1.7937
2.9987	2.0059
2.9884	1.8638
2.9781	1.8056
2.9678	1.7849
2.9577	1.8095
2.9476	1.7811
2.9376	2.0647
2.9276	1.8908
2.9177	1.867
2.9079	1.888
2.8982	2.0826
2.8885	2.4756
2.8789	2.3203
2.8693	2.4697
2.8598	2.2256
2.8504	2.28
2.841	2.2572
2.8317	2.6558
2.8224	2.6215
2.8133	3.0168
2.8041	3.2948
2.7951	3.651
2.786	4.4809
2.7771	5.1892
2.7682	6.0681
2.7594	6.9937
2.7506	8.3603
2.7418	10.0408
2.7332	11.4091
2.7246	13.7158
2.716	15.2573
2.7075	17.4605
2.699	18.8646
2.6906	19.9141
2.6823	20.9402
2.674	21.9967
2.6657	23.5886
2.6575	23.357
2.6494	23.7992
2.6413	24.5503
2.6332	25.3046
2.6252	25.9628
2.6173	27.1679
2.6094	27.2118
2.6015	27.7377
2.5937	29.0699
2.5859	28.9007
2.5782	29.0789
2.5706	29.7732
2.5629	30.2604
2.5554	30.3021
2.5478	30.8125
2.5403	30.8407
2.5329	31.5147
2.5255	31.7395
2.5181	32.0782
2.5108	32.3379
2.5035	32.7257
2.4963	32.7685
2.4891	33.08
2.482	33.0197
2.4749	33.2726
2.4678	33.272
2.4608	33.497
2.4538	33.6079
2.4468	33.5465
2.4399	33.7607
2.4331	33.893
2.4262	34.2171
2.4194	33.8315
2.4127	34.0736
2.4059	34.1332
2.3993	34.123
2.3926	34.2807
2.386	34.8276
2.3795	35.5646
2.3729	36.2828
2.3664	36.8376
2.36	37.4669
2.3535	37.9003
2.3471	38.2244
2.3408	38.8305
2.3345	39.2289
2.3282	39.6811
2.3219	39.8358
2.3157	40.417
2.3095	40.6783
2.3034	41.2329
2.2972	41.4131
2.2911	41.7146
2.2851	41.9865
2.279	42.2822
2.2731	42.6518
2.2671	42.6697
2.2612	42.9836
2.2553	43.1085
2.2494	43.1141
2.2435	43.1644
2.2377	43.2003
2.232	42.5507
2.2262	42.328
2.2205	42.1706
2.2148	42.4675
2.2091	42.6783
2.2035	42.8915
2.1979	43.0316
2.1923	43.0098
2.1868	43.1418
2.1812	43.2737
2.1758	43.3857
2.1703	43.4281
2.1649	43.4758
2.1595	43.4718
2.1541	43.0837
2.1487	43.2129
2.1434	42.8937
2.1381	42.9996
2.1328	42.7879
2.1275	42.7495
2.1223	42.5972
2.1171	42.3285
2.112	41.9381
2.1068	41.8972
2.1017	41.1459
2.0966	40.7762
2.0915	40.4451
2.0865	40.3557
2.0814	39.9838
2.0764	39.6609
2.0715	39.1715
2.0665	38.4217
2.0616	38.0833
2.0567	38.2069
2.0518	38.0969
2.0469	37.7122
2.0421	37.7554
2.0373	38.0209
2.0325	37.9906
2.0277	38.6884
2.0229	39.1917
2.0182	39.7992
2.0135	40.1272
2.0088	40.7675
2.0042	40.9544
