Name: Rutile TiO_2
Type: Mineral
Class: Oxide
Subclass: None
Particle Size: Coarse
Sample No.: O-2A
Owner: JPL
Wavelength Range: TIR
Origin: N/A
Description: Particle size was 125-500um.Collected by JPL Original ASTER Spectral Library name was jpl.nicolet.mineral.oxide.none.coarse.o02a.spectrum.txt
Measurement: Hemispherical reflectance
X Units: Wavelength (micrometers)
Y Units: Reflectance (percent)
wavelength	value
15.3853	42.0335
15.1161	41.2665
14.8563	40.5326
14.6052	39.9996
14.3624	39.0847
14.1276	38.4708
13.9004	37.8007
13.6803	36.8567
13.4671	35.4367
13.2604	32.9929
13.06	29.9908
12.8656	26.2216
12.6769	21.6833
12.4936	17.1042
12.3155	12.8618
12.1425	9.3856
11.9742	5.9898
11.8106	3.8622
11.6513	2.5173
11.4963	2.0401
11.3454	1.6583
11.1983	1.6798
11.0551	1.7663
10.9154	1.802
10.7793	1.9108
10.6465	1.9859
10.5169	2.2834
10.3904	2.5655
10.267	2.7673
10.1464	3.1068
10.0287	3.1947
9.9136	3.2313
9.8012	3.602
9.6913	3.538
9.5838	3.6877
9.4787	3.6099
9.3758	3.9932
9.2752	4.1842
9.1767	4.1879
9.0803	4.1341
8.9858	4.4101
8.8934	4.4246
8.8028	4.7188
8.714	4.6584
8.627	4.5354
8.5417	4.6357
8.4581	4.7299
8.3761	4.9275
8.2957	4.6649
8.2169	4.9936
8.1395	4.9984
8.0635	5.0586
7.989	5.2117
7.9158	5.3078
7.8439	5.458
7.7734	5.756
7.7041	6.0542
7.636	6.3488
7.5691	6.7967
7.5034	7.0931
7.4388	7.477
7.3753	7.7688
7.3129	8.1098
7.2515	8.4011
7.1912	8.7663
7.1318	9.2306
7.0734	9.5953
7.016	10.0567
6.9595	10.4963
6.9039	10.8665
6.8492	11.3486
6.7953	11.8363
6.7423	12.0614
6.6901	12.7707
6.6387	13.4407
6.5881	13.748
6.5382	14.1309
6.4892	14.9909
6.4408	15.0549
6.3931	15.4244
6.3462	16.1159
6.2999	16.1301
6.2543	16.6009
6.2094	17.0428
6.1651	17.5606
6.1214	18.1707
6.0784	18.8438
6.0359	19.248
5.994	20.0721
5.9527	20.6412
5.912	21.3615
5.8718	22.1806
5.8322	22.9314
5.7931	23.4329
5.7545	24.1879
5.7165	24.9009
5.6789	25.346
5.6418	26.1266
5.6052	26.3191
5.5691	26.7147
5.5334	27.2369
5.4982	27.7075
5.4635	28.3729
5.4291	28.7059
5.3952	29.0636
5.3618	29.4067
5.3287	29.7845
5.2961	30.3935
5.2638	30.7695
5.2319	31.3146
5.2004	31.8657
5.1693	32.1412
5.1386	32.4321
5.1082	32.7542
5.0782	33.0786
5.0485	33.2625
5.0192	33.6528
4.9902	33.8971
4.9616	34.1689
4.9332	34.5018
4.9052	34.7906
4.8776	35.0181
4.8502	35.2749
4.8231	35.4063
4.7963	35.3721
4.7699	35.1065
4.7437	34.6441
4.7178	34.4687
4.6922	35.1629
4.6668	36.0608
4.6418	36.5347
4.617	37.0892
4.5924	37.3737
4.5681	37.5921
4.5441	37.7553
4.5203	37.8197
4.4968	37.9764
4.4735	38.0804
4.4505	38.1546
4.4277	38.2979
4.4051	38.3938
4.3828	38.375
4.3607	38.4722
4.3388	38.3681
4.3171	38.3009
4.2956	38.1303
4.2744	38.0653
4.2534	38.0952
4.2325	38.1969
4.2119	38.4228
4.1915	38.3955
4.1712	38.496
4.1512	38.4197
4.1313	38.3933
4.1117	38.3684
4.0922	38.3757
4.0729	38.2254
4.0538	38.1489
4.0349	38.0289
4.0161	37.8662
3.9976	37.7327
3.9792	37.6402
3.9609	37.5458
3.9428	37.5952
3.9249	37.3801
3.9072	37.5148
3.8896	37.2605
3.8722	37.2166
3.8549	37.0168
3.8378	36.8974
3.8208	36.9535
3.804	36.7385
3.7873	36.6939
3.7708	36.5228
3.7544	36.3813
3.7382	36.275
3.7221	36.1347
3.7061	36.0528
3.6903	35.8834
3.6746	35.705
3.659	35.4257
3.6436	35.1671
3.6283	34.9612
3.6131	34.818
3.5981	34.5366
3.5832	34.389
3.5684	34.0995
3.5537	33.8312
3.5391	33.5464
3.5247	33.3732
3.5104	33.0491
3.4962	32.7407
3.4821	32.4937
3.4681	32.215
3.4543	32.0774
3.4405	31.7669
3.4269	31.4424
3.4133	31.0542
3.3999	30.7821
3.3866	30.5726
3.3733	30.1559
3.3602	29.87
3.3472	29.6055
3.3343	29.2809
3.3215	28.8558
3.3088	28.42
3.2961	27.975
3.2836	27.5362
3.2712	27.1041
3.2588	26.6195
3.2466	26.1684
3.2345	25.8161
3.2224	25.4239
3.2104	25.4242
3.1985	25.0845
3.1867	24.8727
3.175	24.7124
3.1634	24.3111
3.1519	24.109
3.1404	23.8744
3.129	23.6135
3.1178	23.3252
3.1065	22.7285
3.0954	21.8561
3.0844	20.7366
3.0734	18.9651
3.0625	16.3665
3.0517	13.8451
3.041	14.0067
3.0303	15.0648
3.0197	16.9499
3.0092	18.6133
2.9987	19.8756
2.9884	20.5656
2.9781	20.607
2.9678	20.2465
2.9577	20.2473
2.9476	20.6739
2.9376	21.233
2.9276	22.0846
2.9177	22.4563
2.9079	23.0883
2.8982	23.4276
2.8885	23.9386
2.8789	24.1078
2.8693	24.3117
2.8598	24.8418
2.8504	25.1893
2.841	25.5146
2.8317	25.8111
2.8224	25.8437
2.8133	25.9593
2.8041	26.2953
2.7951	26.4093
2.786	26.6333
2.7771	26.8016
2.7682	26.9418
2.7594	26.7686
2.7506	27.1346
2.7418	27.5898
2.7332	27.0814
2.7246	27.71
2.716	27.6414
2.7075	28.5422
2.699	28.8343
2.6906	29.1381
2.6823	29.286
2.674	29.3993
2.6657	30.1685
2.6575	29.5297
2.6494	29.3084
2.6413	29.4221
2.6332	29.4478
2.6252	29.2997
2.6173	29.6452
2.6094	29.2069
2.6015	29.2405
2.5937	29.7648
2.5859	29.1308
2.5782	28.9031
2.5706	29.0107
2.5629	29.1644
2.5554	28.616
2.5478	28.8451
2.5403	28.3997
2.5329	28.4279
2.5255	28.293
2.5181	28.1906
2.5108	28.0157
2.5035	27.931
2.4963	27.7675
2.4891	27.8116
2.482	27.8808
2.4749	27.6447
2.4678	27.6683
2.4608	27.5229
2.4538	27.5717
2.4468	27.7485
2.4399	27.6033
2.4331	27.6066
2.4262	27.6726
2.4194	27.4775
2.4127	27.4906
2.4059	27.4213
2.3993	27.3646
2.3926	27.2082
2.386	27.2666
2.3795	27.2237
2.3729	27.1301
2.3664	27.2037
2.36	27.051
2.3535	27.1091
2.3471	27.2032
2.3408	26.9333
2.3345	26.8582
2.3282	26.7883
2.3219	26.4367
2.3157	26.3995
2.3095	25.8567
2.3034	26.1057
2.2972	25.9386
2.2911	25.9855
2.2851	26.2579
2.279	26.2379
2.2731	26.4513
2.2671	26.6722
2.2612	26.4427
2.2553	26.5502
2.2494	26.4956
2.2435	26.5123
2.2377	26.4388
2.232	26.4059
2.2262	26.4539
2.2205	26.3553
2.2148	26.3958
2.2091	26.1488
2.2035	26.1836
2.1979	26.0421
2.1923	26.2983
2.1868	25.9408
2.1812	26.2926
2.1758	26.1552
2.1703	26.0453
2.1649	25.9914
2.1595	25.7138
2.1541	25.7501
2.1487	25.7465
2.1434	25.8962
2.1381	25.7227
2.1328	25.5514
2.1275	25.6631
2.1223	25.5798
2.1171	25.7232
2.112	25.7346
2.1068	25.582
2.1017	25.43
2.0966	25.3654
2.0915	25.4851
2.0865	25.4348
2.0814	25.2175
2.0764	25.5308
2.0715	25.6113
2.0665	25.34
2.0616	24.9964
2.0567	25.239
2.0518	25.2963
2.0469	25.0987
2.0421	25.2018
2.0373	24.9434
2.0325	25.2589
2.0277	25.0793
2.0229	24.7483
2.0182	24.7494
2.0135	24.9123
2.0088	24.7001
2.0042	24.6872
