Name: Hypersthene (Mg,Fe^2+)_2Si_2O_6
Type: Mineral
Class: Silicate
Subclass: Inosilicate
Particle Size: Fine
Sample No.: IN-14A
Owner: JPL
Wavelength Range: TIR
Origin: France, Martinique, Caribbean, Mount Pelee
Description: Particle size was 0-45um.Collected by JPL Original ASTER Spectral Library name was jpl.nicolet.mineral.silicate.inosilicate.fine.in14a.spectrum.txt
Measurement: Hemispherical reflectance
X Units: Wavelength (micrometers)
Y Units: Reflectance (percent)
wavelength	value
15.3853	3.0057
15.1161	2.8167
14.8563	3.1894
14.6052	3.2129
14.3624	3.3493
14.1276	3.3721
13.9004	3.2816
13.6803	3.0196
13.4671	3.5755
13.2604	3.6408
13.06	3.7755
12.8656	5.6762
12.6769	6.7258
12.4936	7.2651
12.3155	6.9165
12.1425	6.0067
11.9742	4.9931
11.8106	4.5258
11.6513	4.2722
11.4963	4.5197
11.3454	4.031
11.1983	3.3692
11.0551	3.3244
10.9154	3.7057
10.7793	4.0402
10.6465	4.3741
10.5169	4.9028
10.3904	4.8105
10.267	5.1952
10.1464	4.6061
10.0287	3.9815
9.9136	3.2309
9.8012	2.9635
9.6913	3.4226
9.5838	4.1993
9.4787	4.8255
9.3758	5.0398
9.2752	4.7179
9.1767	4.6556
9.0803	4.5357
8.9858	4.2376
8.8934	3.5139
8.8028	2.6641
8.714	2.4882
8.627	1.9602
8.5417	1.6876
8.4581	1.8621
8.3761	2.0196
8.2957	2.7588
8.2169	3.3579
8.1395	4.498
8.0635	5.6215
7.989	6.6689
7.9158	7.9158
7.8439	8.9185
7.7734	10.0973
7.7041	11.0937
7.636	11.905
7.5691	12.3738
7.5034	13.6787
7.4388	14.7241
7.3753	15.7082
7.3129	16.7137
7.2515	17.7225
7.1912	18.5772
7.1318	19.1588
7.0734	19.5056
7.016	20.0753
6.9595	20.8684
6.9039	21.2464
6.8492	22.1416
6.7953	22.868
6.7423	22.8573
6.6901	23.1791
6.6387	24.0567
6.5881	24.0878
6.5382	24.6487
6.4892	25.4949
6.4408	24.3943
6.3931	23.7789
6.3462	23.1256
6.2999	22.0651
6.2543	22.0238
6.2094	21.5883
6.1651	21.5102
6.1214	22.1962
6.0784	22.9358
6.0359	23.4371
5.994	24.6124
5.9527	26.102
5.912	27.8269
5.8718	29.2188
5.8322	29.7162
5.7931	29.6082
5.7545	29.9846
5.7165	30.4825
5.6789	30.5955
5.6418	31.0091
5.6052	31.0468
5.5691	31.8626
5.5334	32.7038
5.4982	32.9339
5.4635	33.2638
5.4291	33.3154
5.3952	33.8018
5.3618	34.315
5.3287	34.316
5.2961	33.9305
5.2638	33.2452
5.2319	32.4293
5.2004	31.7076
5.1693	30.9575
5.1386	31.0206
5.1082	31.7865
5.0782	32.7982
5.0485	33.7866
5.0192	34.5589
4.9902	35.0153
4.9616	35.2404
4.9332	35.7066
4.9052	36.021
4.8776	36.2345
4.8502	36.5564
4.8231	37.0447
4.7963	37.7563
4.7699	38.6516
4.7437	39.2311
4.7178	39.7209
4.6922	40.1927
4.6668	40.9682
4.6418	41.7159
4.617	42.439
4.5924	43.0313
4.5681	43.4086
4.5441	43.7743
4.5203	44.0439
4.4968	44.1568
4.4735	44.262
4.4505	44.3195
4.4277	44.3896
4.4051	44.4305
4.3828	44.5427
4.3607	44.5077
4.3388	44.6062
4.3171	44.7421
4.2956	44.6879
4.2744	44.726
4.2534	44.8414
4.2325	44.8482
4.2119	44.9687
4.1915	45.2054
4.1712	45.3615
4.1512	45.292
4.1313	45.4507
4.1117	45.4944
4.0922	45.5704
4.0729	45.7188
4.0538	45.801
4.0349	45.9046
4.0161	45.9011
3.9976	45.9223
3.9792	46.0417
3.9609	46.1754
3.9428	46.225
3.9249	46.2491
3.9072	46.3392
3.8896	46.2905
3.8722	46.4467
3.8549	46.301
3.8378	46.3264
3.8208	46.4199
3.804	46.484
3.7873	46.3776
3.7708	46.3905
3.7544	46.4348
3.7382	46.4784
3.7221	46.4697
3.7061	46.4276
3.6903	46.3517
3.6746	46.2859
3.659	46.261
3.6436	46.2447
3.6283	46.173
3.6131	46.1735
3.5981	46.018
3.5832	45.9737
3.5684	46.014
3.5537	45.8902
3.5391	45.7338
3.5247	45.6153
3.5104	45.4876
3.4962	45.2773
3.4821	45.2361
3.4681	45.1862
3.4543	45.0342
3.4405	44.747
3.4269	44.5242
3.4133	44.2024
3.3999	44.1142
3.3866	44.3075
3.3733	43.9602
3.3602	44.07
3.3472	44.0002
3.3343	43.9315
3.3215	43.7567
3.3088	43.6101
3.2961	43.3825
3.2836	43.1887
3.2712	43.0699
3.2588	42.9586
3.2466	42.7542
3.2345	42.5873
3.2224	42.5921
3.2104	42.3007
3.1985	42.0651
3.1867	41.983
3.175	41.651
3.1634	41.5708
3.1519	41.235
3.1404	41.1036
3.129	40.893
3.1178	40.6839
3.1065	40.4316
3.0954	40.3047
3.0844	40.2153
3.0734	40.364
3.0625	40.179
3.0517	39.9642
3.041	39.9222
3.0303	39.7645
3.0197	39.698
3.0092	39.6952
2.9987	39.3965
2.9884	39.257
2.9781	38.9974
2.9678	38.8457
2.9577	38.8727
2.9476	38.6092
2.9376	38.4902
2.9276	38.2836
2.9177	38.5244
2.9079	38.6565
2.8982	38.9334
2.8885	38.872
2.8789	38.964
2.8693	38.9029
2.8598	38.9246
2.8504	38.8682
2.841	38.8922
2.8317	39.4157
2.8224	39.6394
2.8133	39.3935
2.8041	40.0761
2.7951	40.3919
2.786	41.0632
2.7771	41.086
2.7682	41.6662
2.7594	41.4899
2.7506	42.1067
2.7418	42.7019
2.7332	42.8224
2.7246	44.7714
2.716	45.5934
2.7075	46.8803
2.699	47.5614
2.6906	48.7341
2.6823	50.1063
2.674	50.4272
2.6657	51.4562
2.6575	50.4426
2.6494	50.5137
2.6413	50.5763
2.6332	50.8754
2.6252	50.7384
2.6173	51.0967
2.6094	50.8436
2.6015	50.6812
2.5937	51.5917
2.5859	50.7766
2.5782	50.74
2.5706	50.6733
2.5629	51.1633
2.5554	50.4226
2.5478	50.584
2.5403	50.4697
2.5329	50.5849
2.5255	50.5192
2.5181	50.6187
2.5108	50.312
2.5035	50.3569
2.4963	50.4965
2.4891	50.4127
2.482	50.3904
2.4749	50.4317
2.4678	50.2701
2.4608	50.3404
2.4538	50.3391
2.4468	50.201
2.4399	50.2467
2.4331	50.3031
2.4262	50.1655
2.4194	50.2349
2.4127	50.1269
2.4059	50.0972
2.3993	50.0349
2.3926	50.1538
2.386	50.0339
2.3795	50.094
2.3729	49.8987
2.3664	49.9456
2.36	49.9377
2.3535	49.7104
2.3471	49.8587
2.3408	49.6954
2.3345	49.5879
2.3282	49.7185
2.3219	49.5342
2.3157	49.5468
2.3095	49.554
2.3034	49.4342
2.2972	49.3568
2.2911	49.3296
2.2851	49.3618
2.279	49.1426
2.2731	48.9373
2.2671	49.2422
2.2612	49.0183
2.2553	48.8295
2.2494	48.9918
2.2435	48.6366
2.2377	48.6231
2.232	48.4636
2.2262	48.5666
2.2205	48.4768
2.2148	48.2603
2.2091	48.3099
2.2035	48.151
2.1979	48.1343
2.1923	48.2002
2.1868	47.7507
2.1812	47.8981
2.1758	47.4527
2.1703	47.6441
2.1649	47.5551
2.1595	47.2965
2.1541	47.2345
2.1487	47.0851
2.1434	46.7935
2.1381	46.9717
2.1328	46.8046
2.1275	46.5378
2.1223	46.2981
2.1171	46.3778
2.112	45.7175
2.1068	45.8554
2.1017	45.7129
2.0966	45.8851
2.0915	45.4945
2.0865	45.252
2.0814	45.1992
2.0764	44.8083
2.0715	45.0135
2.0665	45.0662
2.0616	44.8175
2.0567	44.1892
2.0518	44.3818
2.0469	44.2109
2.0421	43.961
2.0373	44.0359
2.0325	43.9506
2.0277	43.668
2.0229	43.4856
2.0182	43.6562
2.0135	43.3549
2.0088	43.0581
2.0042	42.8379
