Name: Anorthite (Feldspar) (NaSi,CaAl)AlSi_2O_8
Type: Mineral
Class: Silicate
Subclass: Tectosilicate
Particle Size: Fine
Sample No.: TS-5A
Owner: JPL
Wavelength Range: VSWIR
Origin: Unknown.
Description: Particle size was 0-45um.Collected by:  JPL. Original ASTER Spectral Library name was jpl.perkin.mineral.silicate.tectosilicate.fine.ts05a.spectrum.txt
Measurement: Hemispherical reflectance
X Units: Wavelength (micrometers)
Y Units: Reflectance (percent)
wavelength	value
2.5	65.3003
2.494	65.1776
2.488	65.4357
2.482	65.3671
2.476	65.2738
2.47	65.4268
2.464	65.4023
2.458	65.682
2.452	65.7543
2.446	65.976
2.44	66.1473
2.434	66.3826
2.428	66.4606
2.422	66.6573
2.416	66.6117
2.41	66.7646
2.404	66.6846
2.398	66.693
2.392	66.6602
2.386	66.6772
2.38	66.5745
2.374	66.4319
2.368	66.1374
2.362	65.8612
2.356	65.7664
2.35	65.7028
2.344	65.8714
2.338	65.9932
2.332	66.2115
2.326	66.4837
2.32	66.7975
2.314	67.115
2.308	67.3991
2.302	67.6247
2.296	67.6626
2.29	67.8901
2.284	68.0203
2.278	68.1426
2.272	68.1814
2.266	68.1165
2.26	68.1157
2.254	68.1636
2.248	68.2177
2.242	68.4871
2.236	68.6806
2.23	68.861
2.224	69.1069
2.218	69.3235
2.212	69.463
2.206	69.412
2.2	69.5023
2.194	69.519
2.188	69.6833
2.182	69.9423
2.176	70.0883
2.17	70.3392
2.164	70.6961
2.158	70.8954
2.152	71.1088
2.146	71.1346
2.14	71.174
2.134	71.1227
2.128	70.9325
2.122	70.8132
2.116	70.6021
2.11	70.3292
2.104	70.2349
2.098	70.0415
2.092	70.1454
2.086	70.2341
2.08	70.2221
2.074	70.313
2.068	70.294
2.062	70.3677
2.056	70.4714
2.05	70.4549
2.044	70.499
2.038	70.4565
2.032	70.431
2.026	70.4532
2.02	70.3931
2.014	70.3123
2.008	70.32
2.002	70.2925
1.996	70.1353
1.99	70.0482
1.984	69.9868
1.978	69.9172
1.972	69.7357
1.966	69.7659
1.96	69.6878
1.954	69.708
1.948	69.5923
1.942	69.4704
1.936	69.5212
1.93	69.4854
1.924	69.4686
1.918	69.4916
1.912	69.5723
1.906	69.7626
1.9	70.0379
1.894	70.5118
1.888	70.6839
1.882	70.8834
1.876	70.9817
1.87	71.1077
1.864	71.2312
1.858	71.2682
1.852	71.2486
1.846	71.3384
1.84	71.292
1.834	71.3688
1.828	71.4169
1.822	71.5276
1.816	71.4123
1.81	71.3764
1.804	71.467
1.798	71.4224
1.792	71.374
1.786	71.4057
1.78	71.4434
1.774	71.334
1.768	71.3933
1.762	71.3664
1.756	71.4212
1.75	71.391
1.744	71.411
1.738	71.4488
1.732	71.4205
1.726	71.4565
1.72	71.4332
1.714	71.3765
1.708	71.5277
1.702	71.3722
1.696	71.4395
1.69	71.3995
1.684	71.3781
1.678	71.3762
1.672	71.381
1.666	71.413
1.66	71.375
1.654	71.3335
1.648	71.3334
1.642	71.4307
1.636	71.3397
1.63	71.3745
1.624	71.4091
1.618	71.4022
1.612	71.3753
1.606	71.3591
1.6	71.3951
1.594	71.2495
1.588	71.3138
1.582	71.3251
1.576	71.2995
1.57	71.2936
1.564	71.2866
1.558	71.2017
1.552	71.1559
1.546	71.2213
1.54	71.2059
1.534	71.1181
1.528	71.1584
1.522	71.1056
1.516	71.0403
1.51	71.0286
1.504	70.9591
1.498	70.9205
1.492	70.9131
1.486	70.7932
1.48	70.6917
1.474	70.5829
1.468	70.64
1.462	70.6221
1.456	70.6164
1.45	70.5426
1.444	70.4908
1.438	70.476
1.432	70.3697
1.426	70.2008
1.42	70.1713
1.414	69.9226
1.408	69.6548
1.402	69.7652
1.396	69.9946
1.39	70.1965
1.384	70.4255
1.378	70.4874
1.372	70.4406
1.366	70.4407
1.36	70.4512
1.354	70.397
1.348	70.366
1.342	70.2309
1.336	70.1589
1.33	70.2297
1.324	70.166
1.318	70.094
1.312	69.9758
1.306	70.0354
1.3	69.9858
1.294	69.9249
1.288	69.9238
1.282	69.8523
1.276	69.8882
1.27	69.7181
1.264	69.7185
1.258	69.6861
1.252	69.6774
1.246	69.7062
1.24	69.6389
1.234	69.6163
1.228	69.4847
1.222	69.5765
1.216	69.493
1.21	69.5176
1.204	69.4016
1.198	69.4099
1.192	69.407
1.186	69.4213
1.18	69.419
1.174	69.3771
1.168	69.3462
1.162	69.3087
1.156	69.3709
1.15	69.2958
1.144	69.4215
1.138	69.2741
1.132	69.3344
1.126	69.3003
1.12	69.3307
1.114	69.3322
1.108	69.3854
1.102	69.4145
1.096	69.3245
1.09	69.3525
1.084	69.3089
1.078	69.4021
1.072	69.3821
1.066	69.3646
1.06	69.3991
1.054	69.4488
1.048	69.4436
1.042	69.4344
1.036	69.4448
1.03	69.4282
1.024	69.5074
1.018	69.4768
1.012	69.5854
1.006	69.5646
1	69.5691
0.994	69.5803
0.988	69.5416
0.982	69.5421
0.976	69.554
0.97	69.5932
0.964	69.5925
0.958	69.5292
0.952	69.547
0.946	69.5433
0.94	69.5185
0.934	69.4483
0.928	69.4622
0.922	69.4631
0.916	69.3779
0.91	69.3251
0.904	69.283
0.898	69.3284
0.892	69.2675
0.886	69.1969
0.88	69.2063
0.874	69.2684
0.868	69.2178
0.862	69.234
0.856	69.4029
0.85	69.4032
0.844	69.406
0.838	69.4384
0.832	69.4536
0.826	69.4804
0.82	69.5223
0.814	69.5488
0.808	69.5859
0.802	69.6127
0.796	69.5539
0.79	69.5579
0.784	69.5854
0.778	69.5144
0.772	69.5017
0.766	69.5142
0.76	69.4727
0.754	69.4839
0.748	69.4463
0.742	69.4009
0.736	69.3768
0.73	69.3348
0.724	69.3079
0.718	69.281
0.712	69.2161
0.706	69.1765
0.7	69.1498
0.694	69.1278
0.688	69.0728
0.682	69.0541
0.676	69.0214
0.67	68.9704
0.664	68.9537
0.658	68.9291
0.652	68.8729
0.646	68.8356
0.64	68.8176
0.634	68.7831
0.628	68.7227
0.622	68.7046
0.616	68.6714
0.61	68.6006
0.604	68.56
0.598	68.5391
0.592	68.5001
0.586	68.4434
0.58	68.3767
0.574	68.2918
0.568	68.2054
0.562	68.1266
0.556	67.9593
0.55	67.8229
0.544	67.6717
0.538	67.4979
0.532	67.296
0.526	67.0837
0.52	66.8453
0.514	66.5366
0.508	66.1826
0.502	65.7607
0.496	65.332
0.49	64.8914
0.484	64.4039
0.478	64.0541
0.472	63.6971
0.466	63.3303
0.46	62.9562
0.454	62.4624
0.448	61.9105
0.442	61.2678
0.436	60.5282
0.43	59.6354
0.424	58.7052
0.418	57.8774
0.412	57.188
0.406	56.4369
0.4	55.5766
