Name: Gypsum CaSO_4.2H_2O
Type: Mineral
Class: Sulfate
Subclass: None
Particle Size: Coarse
Sample No.: SO-2B
Owner: JPL
Wavelength Range: VSWIR
Origin: USA, Utah
Description: Particle size was 125-500um.Collected by Ward's Original ASTER Spectral Library name was jpl.beckman.mineral.sulfate.none.coarse.so02b.spectrum.txt
Measurement: Hemispherical reflectance
X Units: Wavelength (micrometers)
Y Units: Reflectance (percent)
wavelength	value
0.4	91.09
0.403	91.24
0.406	91.37
0.409	91.43
0.412	91.49
0.415	91.54
0.418	91.66
0.421	91.49
0.424	91.66
0.427	91.73
0.43	91.91
0.433	91.96
0.436	92.02
0.439	91.85
0.442	91.78
0.445	92.15
0.448	92.15
0.451	92.33
0.454	92.23
0.457	92.37
0.46	92.49
0.463	92.66
0.466	92.54
0.469	92.6
0.472	92.66
0.475	92.73
0.478	92.62
0.481	92.56
0.484	92.81
0.487	92.88
0.49	92.71
0.493	92.61
0.496	92.8
0.499	92.99
0.502	92.87
0.505	92.82
0.508	92.99
0.511	93.05
0.514	93.05
0.517	93.22
0.52	93.17
0.523	93.05
0.526	92.99
0.529	93.28
0.532	93.28
0.535	93.09
0.538	93.15
0.541	93.39
0.544	93.33
0.547	93.28
0.55	93.4
0.553	93.62
0.556	93.52
0.559	93.62
0.562	94.15
0.565	93.86
0.568	94.03
0.571	93.92
0.574	93.57
0.577	93.62
0.58	93.56
0.583	93.56
0.586	93.56
0.589	93.79
0.592	93.91
0.595	93.73
0.598	93.79
0.601	93.86
0.604	93.92
0.607	93.86
0.61	94.09
0.613	93.92
0.616	93.68
0.619	93.74
0.622	93.86
0.625	93.8
0.628	93.74
0.631	93.98
0.634	93.86
0.637	93.8
0.64	93.74
0.643	93.69
0.646	93.8
0.649	93.8
0.652	93.86
0.655	93.74
0.658	93.69
0.661	93.74
0.664	93.86
0.667	93.86
0.67	93.63
0.673	93.8
0.676	93.92
0.679	93.8
0.682	93.8
0.685	93.69
0.688	93.86
0.691	93.74
0.694	93.98
0.697	93.92
0.7	93.74
0.703	93.69
0.706	93.69
0.709	93.74
0.712	93.74
0.715	93.69
0.718	93.74
0.721	93.68
0.724	93.8
0.727	93.58
0.73	93.46
0.733	93.46
0.736	93.63
0.739	93.41
0.742	93.46
0.745	93.41
0.748	93.41
0.751	93.12
0.754	93.06
0.757	93.06
0.76	93
0.763	92.94
0.766	93.06
0.769	93
0.772	92.83
0.775	92.94
0.778	92.95
0.781	93.12
0.784	93.01
0.787	93.18
0.79	93.12
0.793	93
0.796	93.17
0.799	93.17
0.808	92.91
0.82	92.9
0.832	92.79
0.844	92.54
0.856	92.3
0.868	92.24
0.88	92.12
0.892	91.94
0.904	91.41
0.916	91.11
0.928	91.05
0.94	90.56
0.952	89.48
0.964	88.23
0.976	86.38
0.988	84.85
1	85.03
1.012	86.94
1.024	88.59
1.036	89.79
1.048	90.5
1.06	90.81
1.072	90.77
1.084	90.39
1.096	89.9
1.108	89.15
1.12	88.57
1.132	87.72
1.144	85.59
1.156	81.69
1.168	76.77
1.18	74.6
1.192	74.37
1.204	73.88
1.216	76.02
1.228	76.35
1.24	78.19
1.252	79.63
1.264	80.1
1.276	80.54
1.288	80.48
1.3	79.88
1.312	78.33
1.324	76.24
1.336	73.46
1.348	69.72
1.36	66.99
1.372	64.64
1.384	63.27
1.396	60.74
1.408	54.42
1.42	46.2
1.432	38.95
1.444	31.89
1.456	37.67
1.468	39.91
1.48	39.49
1.492	39.44
1.504	44.16
1.516	45.35
1.528	44.03
1.54	44.72
1.552	49.76
1.564	53.86
1.576	56.73
1.588	59.36
1.6	62.14
1.612	64.85
1.624	67.02
1.636	69.1
1.648	70.96
1.66	71.87
1.672	71.89
1.684	70.39
1.696	67.04
1.708	60.95
1.72	53.9
1.732	47.2
1.744	43.88
1.756	45.06
1.768	46.77
1.78	48.76
1.792	52.53
1.804	55.12
1.816	56.67
1.828	56.97
1.84	56.1
1.852	52.66
1.864	46.31
1.876	37.57
1.888	29.92
1.9	23.04
1.912	17.22
1.924	12.81
1.936	10.31
1.948	10.51
1.96	12.09
1.972	13.37
1.984	16.03
1.996	21.89
2.008	28.56
2.02	33.14
2.032	35.82
2.044	37.25
2.056	37.72
2.068	37.51
2.08	37.25
2.092	35.96
2.104	34.36
2.116	32.66
2.128	31.18
2.14	29.74
2.152	28.34
2.164	26.95
2.176	26.02
2.188	25.29
2.2	24.12
2.212	23.39
2.224	24.22
2.236	25.51
2.248	25.5
2.26	25.25
2.272	25.77
2.284	27.09
2.296	27.88
2.308	28.05
2.32	27.78
2.332	26.9
2.344	25.49
2.356	23.47
2.368	20.95
2.38	17.98
2.392	14.97
2.404	12.57
2.416	10.92
2.428	10
2.44	9.51
2.452	9.01
2.464	8.5
2.476	8.28
2.488	8.24
2.5	8.5
