Name: Cryolite Na_3AlF_6
Type: Mineral
Class: Halide
Subclass: None
Particle Size: Coarse
Sample No.: H-1A
Owner: JPL
Wavelength Range: VSWIR
Origin: Denmark, Greenland, Ivigtut.
Description: Particle size was 125-500um.Collected by:  Ward's Original ASTER Spectral Library name was jpl.perkin.mineral.halide.none.coarse.h01a.spectrum.txt
Measurement: Hemispherical reflectance
X Units: Wavelength (micrometers)
Y Units: Reflectance (percent)
wavelength	value
2.5	79.791
2.494	79.5914
2.488	79.661
2.482	79.4275
2.476	79.2949
2.47	79.3976
2.464	79.5214
2.458	79.6453
2.452	79.7971
2.446	79.9828
2.44	80.107
2.434	80.247
2.428	80.3515
2.422	80.3603
2.416	80.4368
2.41	80.4695
2.404	80.3925
2.398	80.5222
2.392	80.8218
2.386	80.9187
2.38	81.1648
2.374	81.3073
2.368	81.6015
2.362	81.6466
2.356	81.8984
2.35	82.033
2.344	82.2393
2.338	82.4251
2.332	82.5035
2.326	82.8318
2.32	82.9581
2.314	83.0378
2.308	83.0848
2.302	83.2246
2.296	83.2414
2.29	83.308
2.284	83.3651
2.278	83.3778
2.272	83.3977
2.266	83.4644
2.26	83.5279
2.254	83.4274
2.248	83.3833
2.242	83.2802
2.236	83.1903
2.23	83.237
2.224	83.2623
2.218	83.4628
2.212	83.6039
2.206	83.7207
2.2	83.8569
2.194	83.8683
2.188	83.9916
2.182	83.9191
2.176	84.1362
2.17	84.3083
2.164	84.4983
2.158	84.7322
2.152	84.8629
2.146	85.0655
2.14	84.9797
2.134	84.932
2.128	84.6775
2.122	84.5143
2.116	84.2653
2.11	83.9652
2.104	83.6825
2.098	83.5292
2.092	83.5048
2.086	83.5722
2.08	83.5789
2.074	83.6182
2.068	83.6643
2.062	83.6258
2.056	83.7749
2.05	83.7451
2.044	83.8483
2.038	83.7966
2.032	83.8331
2.026	83.7362
2.02	83.7307
2.014	83.6586
2.008	83.613
2.002	83.5172
1.996	83.4164
1.99	83.3291
1.984	83.1453
1.978	82.9707
1.972	82.8037
1.966	82.511
1.96	82.1521
1.954	81.7013
1.948	81.6516
1.942	81.4988
1.936	81.028
1.93	80.7698
1.924	81.0387
1.918	81.6183
1.912	82.1159
1.906	82.5561
1.9	83.0672
1.894	83.6218
1.888	84.0143
1.882	84.3458
1.876	84.5159
1.87	84.6065
1.864	84.7728
1.858	84.8201
1.852	84.8165
1.846	84.8926
1.84	84.9644
1.834	84.807
1.828	84.8902
1.822	84.903
1.816	84.8986
1.81	84.9108
1.804	84.9208
1.798	84.911
1.792	84.9359
1.786	84.8459
1.78	84.8906
1.774	84.8614
1.768	84.783
1.762	84.7929
1.756	84.8369
1.75	84.8397
1.744	84.884
1.738	84.9861
1.732	84.9582
1.726	84.9471
1.72	85.0325
1.714	84.908
1.708	84.9412
1.702	84.9378
1.696	84.8582
1.69	84.8224
1.684	84.9247
1.678	84.8988
1.672	84.8346
1.666	84.775
1.66	84.8533
1.654	84.7653
1.648	84.8208
1.642	84.808
1.636	84.777
1.63	84.6913
1.624	84.7263
1.618	84.7422
1.612	84.7451
1.606	84.6068
1.6	84.8046
1.594	84.6411
1.588	84.6253
1.582	84.5848
1.576	84.5294
1.57	84.478
1.564	84.5068
1.558	84.4459
1.552	84.4167
1.546	84.3737
1.54	84.3544
1.534	84.3042
1.528	84.2946
1.522	84.14
1.516	84.051
1.51	84.0166
1.504	83.9697
1.498	83.8969
1.492	83.8872
1.486	83.8255
1.48	83.7402
1.474	83.6019
1.468	83.4552
1.462	83.3964
1.456	83.3303
1.45	83.3874
1.444	83.4589
1.438	83.3888
1.432	83.3402
1.426	83.4792
1.42	83.5823
1.414	83.5675
1.408	83.7615
1.402	83.775
1.396	83.9498
1.39	84.0501
1.384	84.1277
1.378	84.0374
1.372	84.0529
1.366	84.147
1.36	84.0738
1.354	84.0384
1.348	83.9927
1.342	83.949
1.336	83.9644
1.33	83.9964
1.324	83.9616
1.318	83.863
1.312	83.9037
1.306	83.8862
1.3	83.8371
1.294	83.8515
1.288	83.8333
1.282	83.8058
1.276	83.7198
1.27	83.7629
1.264	83.7321
1.258	83.7052
1.252	83.7512
1.246	83.6131
1.24	83.6251
1.234	83.6082
1.228	83.554
1.222	83.5565
1.216	83.5064
1.21	83.5565
1.204	83.5253
1.198	83.4197
1.192	83.4051
1.186	83.3992
1.18	83.4209
1.174	83.4006
1.168	83.3398
1.162	83.3074
1.156	83.3197
1.15	83.3541
1.144	83.3046
1.138	83.2994
1.132	83.2904
1.126	83.2539
1.12	83.2214
1.114	83.2305
1.108	83.1345
1.102	83.1458
1.096	83.1384
1.09	83.085
1.084	83.1462
1.078	82.9449
1.072	83.0833
1.066	82.9734
1.06	82.9923
1.054	82.891
1.048	82.9183
1.042	82.838
1.036	82.7826
1.03	82.8261
1.024	82.7319
1.018	82.7046
1.012	82.6451
1.006	82.6828
1	82.5359
0.994	82.5118
0.988	82.4573
0.982	82.4122
0.976	82.3768
0.97	82.3087
0.964	82.3142
0.958	82.1805
0.952	82.1757
0.946	82.0933
0.94	82.0642
0.934	82.0259
0.928	81.9475
0.922	81.8658
0.916	81.8548
0.91	81.7716
0.904	81.6677
0.898	81.6133
0.892	81.5239
0.886	81.5125
0.88	81.4556
0.874	81.4041
0.868	81.3355
0.862	81.3097
0.856	81.286
0.85	81.1825
0.844	81.2038
0.838	81.2425
0.832	81.2054
0.826	81.2074
0.82	81.1964
0.814	81.224
0.808	81.2723
0.802	81.241
0.796	81.2143
0.79	81.2033
0.784	81.2061
0.778	81.2033
0.772	81.2569
0.766	81.2726
0.76	81.2809
0.754	81.3253
0.748	81.3241
0.742	81.3746
0.736	81.3678
0.73	81.387
0.724	81.4046
0.718	81.408
0.712	81.4359
0.706	81.4375
0.7	81.4512
0.694	81.4536
0.688	81.4593
0.682	81.4788
0.676	81.4545
0.67	81.487
0.664	81.4635
0.658	81.5009
0.652	81.4819
0.646	81.4948
0.64	81.5014
0.634	81.4883
0.628	81.4875
0.622	81.5037
0.616	81.4939
0.61	81.4768
0.604	81.4649
0.598	81.5007
0.592	81.5447
0.586	81.538
0.58	81.5061
0.574	81.5053
0.568	81.4971
0.562	81.5023
0.556	81.4632
0.55	81.4438
0.544	81.4151
0.538	81.4059
0.532	81.3943
0.526	81.3538
0.52	81.3473
0.514	81.3177
0.508	81.2755
0.502	81.2225
0.496	81.176
0.49	81.1128
0.484	81.0115
0.478	80.956
0.472	80.9464
0.466	80.8706
0.46	80.7969
0.454	80.7345
0.448	80.6471
0.442	80.5562
0.436	80.4389
0.43	80.3772
0.424	80.317
0.418	80.2313
0.412	80.1592
0.406	80.0918
0.4	80.0382
