Name: Enstatite Mg2Si2O6
Type: Mineral
Class: Silicate
Subclass: Inosilicate
Particle Size: Solid
Sample No.: enstatite_1
Owner: JHU
Wavelength Range: TIR
Origin: Sample from Frank Smith Mine, near Barkly Wes, SouthAfrica via the Smithsonian (sample no. NMNH 128288).
Description: Sample was a single light green piece, apparently part of a single crystal, with a large area of contamination by a dark green mineral, discarded during crushing. A small amount of black mineral veining was present. Under the microscope, the hand-picked material appeared moderately altered. A higher index of refraction than expected indicated probable higher iron content than pure enstatite. Sample had cleavage face. (Chain Silicates) (Pyroxene Group) Original ASTER Spectral Library name was jhu.nicolet.mineral.silicate.inosilicate.solid.enstat1.spectrum.txt
Measurement: Bidirectional reflectance
X Units: Wavelength (micrometers)
Y Units: Reflectance (percent)
wavelength	value
25.0442	29.2382
24.3388	27.6171
23.6719	28.915
23.0407	33.3554
22.4422	37.81
21.8741	41.1366
21.334	43.8768
20.8199	46.4972
20.33	49.245
19.8627	53.245
19.4163	54.1947
18.9896	45.1576
18.5812	38.737
18.19	35.9794
17.815	27.8322
17.4551	28.9218
17.1094	27.5116
16.7772	24.3481
16.4576	22.8359
16.15	18.6171
15.8537	16.5981
15.568	15.7631
15.2925	16.0327
15.0265	14.9206
14.7697	14.9956
14.5214	15.3698
14.2814	13.6464
14.0492	12.5979
13.8244	13.3945
13.6067	10.9709
13.3957	11.5556
13.1912	12.0595
12.9929	12.7107
12.8004	13.6535
12.6135	14.3991
12.432	15.0385
12.2557	16.0625
12.0843	17.0175
11.9176	18.5085
11.7555	20.654
11.5977	22.5832
11.444	24.3727
11.2944	22.8393
11.1487	21.1855
11.0067	19.5507
10.8682	22.8388
10.7332	26.1818
10.6015	25.9741
10.473	27.0402
10.3476	27.0065
10.2251	28.1606
10.1056	27.8823
9.9887	29.4374
9.8746	34.2814
9.763	36.3227
9.6539	36.2445
9.5472	40.3681
9.4429	39.3297
9.3408	40.0211
9.2409	39.6876
9.1431	39.0031
9.0474	38.9271
8.9536	39.0644
8.8618	36.1393
8.7718	33.9347
8.6837	32.9535
8.5973	23.2453
8.5126	12.4721
8.4295	4.9641
8.3481	3.4031
8.2682	3.9763
8.1898	4.5203
8.1129	5.1306
8.0374	5.5947
7.9634	6.0019
7.8906	6.3808
7.8192	6.7744
7.7491	7.1079
7.6802	7.3994
7.6126	7.6614
7.5461	7.8655
7.4807	8.0644
7.4165	8.2478
7.3534	8.4101
7.2914	8.5718
7.2303	8.7468
7.1703	8.9026
7.1113	9.1196
7.0533	9.2102
6.9962	9.2805
6.94	9.4201
6.8847	9.497
6.8302	9.5991
6.7767	9.7065
6.7239	9.761
6.672	9.8047
6.6209	9.8576
6.5705	9.864
6.5209	9.9084
6.4721	9.8796
6.424	9.8293
6.3766	9.8291
6.3299	9.7917
6.2838	9.77
6.2385	9.7663
6.1937	9.7417
6.1496	9.7546
6.1062	9.8025
6.0633	9.9226
6.0211	9.9861
5.9794	10.0727
5.9383	10.1672
5.8978	10.3254
5.8578	10.4448
5.8184	10.4707
5.7794	10.6401
5.741	10.7868
5.7031	10.9123
5.6657	11.0041
5.6288	11.0627
5.5924	11.1506
5.5564	11.2685
5.5209	11.3833
5.4859	11.4687
5.4513	11.5405
5.4171	11.5905
5.3833	11.6736
5.35	11.7197
5.3171	11.7671
5.2846	11.7666
5.2524	11.7563
5.2207	11.7519
5.1893	11.7331
5.1584	11.6858
5.1277	11.6889
5.0975	11.7275
5.0676	11.7737
5.038	11.834
5.0088	11.8913
4.98	11.9216
4.9514	11.9248
4.9232	11.9094
4.8953	11.9167
4.8678	11.8921
4.8405	11.8567
4.8135	11.8913
4.7868	11.9594
4.7605	12.0337
4.7344	12.1413
4.7086	12.2265
4.6831	12.3073
4.6578	12.3645
4.6328	12.4699
4.6081	12.6733
4.5837	12.9194
4.5595	13.0986
4.5356	13.2988
4.5119	13.4738
4.4884	13.6003
4.4652	13.6452
4.4423	13.6997
4.4196	13.7238
4.3971	13.7563
4.3748	13.7915
4.3528	13.8159
4.331	13.8271
4.3094	13.8667
4.288	13.9001
4.2668	13.9392
4.2458	13.9785
4.2251	13.9922
4.2045	14.0402
4.1841	14.0766
4.164	14.1037
4.144	14.1284
4.1242	14.1711
4.1046	14.2085
4.0852	14.2526
4.066	14.2754
4.047	14.2981
4.0281	14.3371
4.0094	14.3581
3.9909	14.3662
3.9725	14.3842
3.9544	14.4187
3.9363	14.4343
3.9185	14.4563
3.9008	14.468
3.8833	14.489
3.8659	14.4751
3.8487	14.4602
3.8316	14.4782
3.8147	14.4475
3.7979	14.4663
3.7813	14.4631
3.7648	14.4516
3.7485	14.4382
3.7323	14.4184
3.7162	14.3938
3.7003	14.3772
3.6845	14.3659
3.6689	14.3359
3.6534	14.3081
3.638	14.3029
3.6227	14.2712
3.6076	14.2531
3.5926	14.2187
3.5777	14.1897
3.563	14.1421
3.5484	14.0766
3.5338	13.9975
3.5195	13.8845
3.5052	13.7258
3.491	13.7651
3.477	13.7448
3.463	13.738
3.4492	13.6792
3.4355	13.5883
3.4219	13.445
3.4084	13.4013
3.395	13.4492
3.3817	13.4079
3.3685	13.4204
3.3554	13.3938
3.3425	13.3596
3.3296	13.2917
3.3168	13.2329
3.3041	13.1516
3.2915	13.093
3.279	13.02
3.2666	12.9448
3.2543	12.8672
3.2421	12.7959
3.23	12.7448
3.218	12.6709
3.206	12.5918
3.1942	12.5344
3.1824	12.4646
3.1707	12.364
3.1591	12.2949
3.1476	12.2319
3.1362	12.1347
3.1249	12.091
3.1136	12.007
3.1024	11.9702
3.0913	11.9326
3.0803	11.8965
3.0694	11.8686
3.0585	11.8386
3.0477	11.8281
3.037	11.7988
3.0264	11.7802
3.0158	11.7309
3.0053	11.6701
2.9949	11.6162
2.9845	11.6137
2.9743	11.5827
2.9641	11.5481
2.9539	11.5205
2.9439	11.4951
2.9339	11.4555
2.9239	11.4331
2.9141	11.4487
2.9043	11.4492
2.8946	11.4436
2.8849	11.4436
2.8753	11.4297
2.8658	11.4221
2.8563	11.4057
2.8469	11.3759
2.8375	11.3271
2.8282	11.2759
2.819	11.2002
2.8098	11.1357
2.8007	11.0698
2.7917	11.0395
2.7827	11.0024
2.7738	10.9648
2.7649	10.914
2.7561	10.8506
2.7473	10.7719
2.7386	10.6157
2.7299	10.4531
2.7213	10.2363
2.7128	9.9887
2.7043	10.1313
2.6959	11.2412
2.6875	13.7053
2.6791	15.4751
2.6709	16.0571
2.6626	16.3427
2.6545	16.4323
2.6463	16.5014
2.6382	16.6064
2.6302	16.5808
2.6222	16.6543
2.6143	16.645
2.6064	16.6149
2.5986	16.6601
2.5908	16.6408
2.583	16.6181
2.5753	16.6543
2.5677	16.6438
2.5601	16.5971
2.5525	16.6201
2.545	16.6516
2.5375	16.6806
2.5301	16.6428
2.5227	16.6604
2.5154	16.623
2.5081	16.6535
2.5008	16.6796
2.4936	16.7006
2.4864	16.729
2.4793	16.7426
2.4722	16.7871
2.4651	16.7714
2.4581	16.8183
2.4511	16.8195
2.4442	16.8154
2.4373	16.8076
2.4305	16.7973
2.4236	16.8222
2.4169	16.8383
2.4101	16.8593
2.4034	16.8466
2.3967	16.7646
2.3901	16.7465
2.3835	16.7805
2.377	16.7815
2.3704	16.8642
2.364	16.8674
2.3575	16.8344
2.3511	16.8088
2.3447	16.7646
2.3384	16.5908
2.3321	16.5561
2.3258	16.4555
2.3195	16.4404
2.3133	16.4482
2.3071	16.6044
2.301	16.7094
2.2949	16.7446
2.2888	16.7509
2.2828	16.8344
2.2767	16.9043
2.2708	16.894
2.2648	16.9746
2.2589	17.0302
2.253	17.0068
2.2471	16.9946
2.2413	17.0078
2.2355	17.0512
2.2297	17.0429
2.224	17.0527
2.2183	17.0805
2.2126	17.102
2.207	17.0625
2.2013	17.0976
2.1957	17.0937
2.1902	17.1005
2.1846	17.0922
2.1791	17.0844
2.1736	17.1269
2.1682	17.1709
2.1628	17.0981
2.1574	17.1469
2.152	17.0644
2.1466	17.0371
2.1413	17.0532
2.136	17.018
2.1308	16.9853
2.1255	17.0761
2.1203	17.0708
2.1151	17.0004
2.11	17.0283
2.1048	16.9892
2.0997	16.999
2.0946	16.9492
2.0895	17.0219
2.0845	16.9941
2.0795	16.9726
