Name: Mordenite (Ca,Na2,K2)Al2Si10O24.7H2O
Type: Mineral
Class: Silicate
Subclass: Tectosilicate
Particle Size: Fine
Sample No.: morden_1
Owner: JHU
Wavelength Range: TIR
Origin: Union Pass, Arizona via W. J. Ehmann #10
Description: The sample consisted of small transparent crystals of apparent purity. Particle size was Less than 2 Micrometers.(Framework Silicates); (ZeoliteGroup) Original ASTER Spectral Library name was jhu.nicolet.mineral.silicate.tectosilicate.powder.morden1.spectrum.txt
Measurement: Transmission
X Units: Wavelength (micrometers)
Y Units: Transmittance (percent)
wavelength	value
25.0442	51.1483
24.3388	44.4257
23.6719	38.0155
23.0407	32.0702
22.4422	27.5683
21.8741	26.247
21.334	27.7109
20.8199	34.0634
20.33	44.6073
19.8627	52.996
19.4163	57.4242
18.9896	59.6468
18.5812	61.2401
18.19	60.9452
17.815	60.5531
17.4551	59.8924
17.1094	58.4925
16.7772	61.1502
16.4576	62.9202
16.15	62.1097
15.8537	61.2503
15.568	63.7313
15.2925	66.5452
15.0265	67.9988
14.7697	68.347
14.5214	67.8494
14.2814	67.0887
14.0492	66.0296
13.8244	65.7393
13.6067	66.159
13.3957	67.2205
13.1912	67.994
12.9929	67.7498
12.8004	66.1834
12.6135	65.6485
12.432	67.1544
12.2557	71.1778
12.0843	75.9903
11.9176	76.9393
11.7555	73.9324
11.5977	69.1007
11.444	64.3065
11.2944	61.5916
11.1487	60.1329
11.0067	59.514
10.8682	59.1712
10.7332	58.202
10.6015	55.9901
10.473	51.7081
10.3476	45.0519
10.2251	36.1723
10.1056	26.6882
9.9887	18.5131
9.8746	12.6318
9.763	8.7541
9.6539	6.3042
9.5472	4.9485
9.4429	4.3926
9.3408	4.4182
9.2409	5.0742
9.1431	6.4521
9.0474	8.6343
8.9536	11.039
8.8618	13.0405
8.7718	14.6313
8.6837	16.2861
8.5973	18.2124
8.5126	20.402
8.4295	22.9299
8.3481	26.0019
8.2682	29.2721
8.1898	32.8891
8.1129	40.7582
8.0374	52.3846
7.9634	61.0599
7.8906	66.4078
7.8192	70.0252
7.7491	72.5638
7.6802	74.5076
7.6126	76.1011
7.5461	77.429
7.4807	78.5501
7.4165	79.469
7.3534	80.0818
7.2914	80.6082
7.2303	80.9568
7.1703	80.5745
7.1113	80.7644
7.0533	81.6121
6.9962	82.0144
6.94	82.3181
6.8847	82.4329
6.8302	82.3601
6.7767	82.8098
6.7239	83.6148
6.672	84.4383
6.6209	84.9422
6.5705	85.3611
6.5209	85.3719
6.4721	85.3621
6.424	85.3977
6.3766	85.0227
6.3299	84.3069
6.2838	83.3435
6.2385	82.3982
6.1937	79.7842
6.1496	75.0447
6.1062	74.3177
6.0633	75.2222
6.0211	76.3519
5.9794	78.5389
5.9383	81.1853
5.8978	83.5642
5.8578	84.906
5.8184	85.9436
5.7794	86.2962
5.741	86.658
5.7031	86.8714
5.6657	86.9231
5.6288	87.0618
5.5924	87.0872
5.5564	87.1868
5.5209	87.2268
5.4859	87.2224
5.4513	87.2874
5.4171	87.4302
5.3833	87.4373
5.35	87.5413
5.3171	87.6072
5.2846	87.7688
5.2524	87.9119
5.2207	88.0159
5.1893	88.1028
5.1584	88.2385
5.1277	88.3191
5.0975	88.3513
5.0676	88.4446
5.038	88.5134
5.0088	88.5559
4.98	88.583
4.9514	88.6836
4.9232	88.8057
4.8953	88.8584
4.8678	88.9321
4.8405	88.9229
4.8135	88.959
4.7868	88.9744
4.7605	88.9319
4.7344	88.9219
4.7086	88.9016
4.6831	88.8477
4.6578	88.8711
4.6328	88.8709
4.6081	88.916
4.5837	88.9287
4.5595	88.9248
4.5356	88.8836
4.5119	88.8692
4.4884	88.9158
4.4652	88.8606
4.4423	88.8892
4.4196	88.8777
4.3971	88.9107
4.3748	88.9453
4.3528	88.9539
4.331	89.0088
4.3094	88.9981
4.288	88.9744
4.2668	88.9832
4.2458	89.0137
4.2251	89.0652
4.2045	89.0557
4.1841	89.1033
4.164	89.1184
4.144	89.138
4.1242	89.1555
4.1046	89.1521
4.0852	89.1492
4.066	89.1799
4.047	89.1592
4.0281	89.208
4.0094	89.138
3.9909	89.0984
3.9725	89.1375
3.9544	89.1035
3.9363	89.1348
3.9185	89.1609
3.9008	89.0632
3.8833	89.0359
3.8659	88.9197
3.8487	88.8975
3.8316	88.865
3.8147	88.8035
3.7979	88.7666
3.7813	88.7227
3.7648	88.6306
3.7485	88.5286
3.7323	88.4783
3.7162	88.3279
3.7003	88.168
3.6845	88.0579
3.6689	87.9177
3.6534	87.8164
3.638	87.7332
3.6227	87.5925
3.6076	87.4256
3.5926	87.2988
3.5777	87.1482
3.563	86.9072
3.5484	86.6699
3.5338	86.4854
3.5195	86.1983
3.5052	85.576
3.491	85.4268
3.477	85.3469
3.463	85.1074
3.4492	84.8064
3.4355	84.292
3.4219	83.4629
3.4084	83.0918
3.395	83.1951
3.3817	82.9251
3.3685	82.6543
3.3554	82.3318
3.3425	81.9004
3.3296	81.4287
3.3168	80.9353
3.3041	80.5242
3.2915	80.0271
3.279	79.4812
3.2666	78.9031
3.2543	78.2439
3.2421	77.5496
3.23	76.7374
3.218	75.9188
3.206	75.1795
3.1942	74.4756
3.1824	73.7413
3.1707	73.0145
3.1591	72.1815
3.1476	71.3318
3.1362	70.4842
3.1249	69.6497
3.1136	68.9232
3.1024	68.0418
3.0913	67.2718
3.0803	66.6737
3.0694	66.1278
3.0585	65.7049
3.0477	65.2108
3.037	64.7054
3.0264	64.2249
3.0158	63.6292
3.0053	62.9998
2.9949	62.4471
2.9845	62.0179
2.9743	61.5164
2.9641	61.3778
2.9539	61.0453
2.9439	60.9598
2.9339	60.9002
2.9239	60.7293
2.9141	60.8495
2.9043	61.096
2.8946	61.1331
2.8849	61.0985
2.8753	61.0067
2.8658	60.9764
2.8563	61.2347
2.8469	61.577
2.8375	62.1278
2.8282	62.5047
2.819	62.9344
2.8098	63.0277
2.8007	63.2215
2.7917	63.2528
2.7827	63.4945
2.7738	63.8597
2.7649	64.4481
2.7561	65.6058
2.7473	66.807
2.7386	68.8709
2.7299	71.0687
2.7213	73.5003
2.7128	75.6253
2.7043	77.2112
2.6959	78.0022
2.6875	78.4715
2.6791	78.9456
2.6709	79.4339
2.6626	79.4339
2.6545	79.5608
2.6463	79.7151
2.6382	79.7615
2.6302	80.01
2.6222	79.8338
2.6143	79.9041
2.6064	79.9417
2.5986	79.9002
2.5908	79.971
2.583	80.0975
2.5753	79.846
2.5677	79.7625
2.5601	79.8103
2.5525	79.6639
2.545	79.6756
2.5375	79.8953
2.5301	79.8338
2.5227	79.6394
2.5154	79.5555
2.5081	79.5965
2.5008	79.6219
2.4936	79.49
2.4864	79.5135
2.4793	79.3631
2.4722	79.4119
2.4651	79.3963
2.4581	79.4764
2.4511	79.2635
2.4442	79.0965
2.4373	79.4353
2.4305	79.2889
2.4236	79.0916
2.4169	79.1492
2.4101	79.1502
2.4034	79.0232
2.3967	79.1219
2.3901	78.9334
2.3835	78.9539
2.377	78.9139
2.3704	78.7664
2.364	78.9666
2.3575	78.8846
2.3511	78.5672
2.3447	78.6658
2.3384	78.7342
2.3321	78.3709
2.3258	78.4773
2.3195	78.868
2.3133	78.6814
2.3071	78.4744
2.301	78.5242
2.2949	78.4109
2.2888	78.2391
2.2828	78.2537
2.2767	78.199
2.2708	78.1805
2.2648	78.2303
2.2589	78.2273
2.253	78.2078
2.2471	78.1023
2.2413	78.1717
2.2355	78.0467
2.2297	77.8826
2.224	77.9773
2.2183	77.8396
2.2126	78.032
2.207	78.1336
2.2013	78.0779
2.1957	77.8396
2.1902	78.0086
2.1846	78.242
2.1791	78.0711
2.1736	77.9139
2.1682	77.8201
2.1628	77.9764
2.1574	78.0564
2.152	77.7889
2.1466	77.7654
2.1413	78.1541
2.136	77.867
2.1308	77.9959
2.1255	77.8709
2.1203	77.7459
2.1151	77.7381
2.11	77.8611
2.1048	77.9041
2.0997	78.0271
2.0946	77.99
2.0895	77.7986
2.0845	77.9588
2.0795	77.7811
