Name: Fayalite Fe_2SiO_4
Type: Mineral
Class: Silicate
Subclass: Nesosilicate
Particle Size: Medium
Sample No.: NS-1A
Owner: JPL
Wavelength Range: TIR
Description: Particle size was 45-125um.Collected by JPL Original ASTER Spectral Library name was jpl.nicolet.mineral.silicate.nesosilicate.medium.ns01a.spectrum.txt
Measurement: Hemispherical reflectance
X Units: Wavelength (micrometers)
Y Units: Reflectance (percent)
wavelength	value
15.3853	4.794
15.1161	4.7852
14.8563	4.9252
14.6052	4.9452
14.3624	5.2974
14.1276	5.4929
13.9004	5.0843
13.6803	5.2227
13.4671	5.7003
13.2604	5.7849
13.06	5.6381
12.8656	5.9466
12.6769	6.1637
12.4936	6.5045
12.3155	6.7572
12.1425	7.8537
11.9742	6.8182
11.8106	8.2958
11.6513	10.2935
11.4963	11.8428
11.3454	12.4139
11.1983	12.4216
11.0551	12.1163
10.9154	10.9667
10.7793	9.4418
10.6465	12.0332
10.5169	13.5281
10.3904	10.9686
10.267	10.0339
10.1464	10.3809
10.0287	11.4668
9.9136	12.1732
9.8012	11.706
9.6913	10.6934
9.5838	9.9848
9.4787	8.9868
9.3758	7.7516
9.2752	7.2292
9.1767	8.4738
9.0803	7.3509
8.9858	5.612
8.8934	5.5519
8.8028	6.3587
8.714	6.6932
8.627	5.405
8.5417	4.9105
8.4581	4.6451
8.3761	4.6489
8.2957	4.8699
8.2169	5.1137
8.1395	5.0754
8.0635	5.1815
7.989	5.2183
7.9158	5.4216
7.8439	5.4483
7.7734	5.5727
7.7041	5.5145
7.636	5.7439
7.5691	5.9826
7.5034	6.0315
7.4388	6.2083
7.3753	6.2739
7.3129	6.4655
7.2515	6.446
7.1912	6.604
7.1318	6.8043
7.0734	6.8986
7.016	7.0298
6.9595	7.1586
6.9039	7.2695
6.8492	7.4042
6.7953	7.5192
6.7423	7.4185
6.6901	7.4538
6.6387	7.6433
6.5881	7.6019
6.5382	7.4492
6.4892	7.6257
6.4408	7.5153
6.3931	7.3259
6.3462	7.1123
6.2999	6.9675
6.2543	6.703
6.2094	6.5253
6.1651	6.1872
6.1214	5.9232
6.0784	6.0398
6.0359	6.0008
5.994	6.1968
5.9527	6.3502
5.912	6.4518
5.8718	6.5882
5.8322	6.5811
5.7931	6.4715
5.7545	6.3034
5.7165	6.443
5.6789	6.3653
5.6418	6.3977
5.6052	6.5739
5.5691	6.5815
5.5334	6.6556
5.4982	6.6619
5.4635	6.9182
5.4291	6.8599
5.3952	6.83
5.3618	7.0119
5.3287	7.1866
5.2961	7.3044
5.2638	7.3369
5.2319	7.4729
5.2004	7.6673
5.1693	7.8476
5.1386	8.0152
5.1082	8.1665
5.0782	8.2232
5.0485	8.3578
5.0192	8.3188
4.9902	8.4207
4.9616	8.5786
4.9332	8.6786
4.9052	8.7261
4.8776	8.8782
4.8502	8.951
4.8231	9.0993
4.7963	9.1391
4.7699	9.2162
4.7437	9.303
4.7178	9.3735
4.6922	9.4629
4.6668	9.6429
4.6418	9.6183
4.617	9.8144
4.5924	9.8017
4.5681	9.9069
4.5441	9.915
4.5203	10.0358
4.4968	10.0242
4.4735	10.1877
4.4505	10.0338
4.4277	10.2139
4.4051	10.3344
4.3828	10.2527
4.3607	10.2773
4.3388	10.4321
4.3171	10.459
4.2956	10.4968
4.2744	10.6815
4.2534	10.6783
4.2325	10.6537
4.2119	10.6414
4.1915	10.7439
4.1712	10.794
4.1512	10.7657
4.1313	10.8102
4.1117	10.8856
4.0922	10.9753
4.0729	10.9245
4.0538	10.9082
4.0349	11.0515
4.0161	11.0508
3.9976	11.1382
3.9792	11.1341
3.9609	11.1124
3.9428	11.2748
3.9249	11.285
3.9072	11.2724
3.8896	11.416
3.8722	11.4958
3.8549	11.3331
3.8378	11.3978
3.8208	11.3285
3.804	11.407
3.7873	11.3206
3.7708	11.5057
3.7544	11.228
3.7382	11.5115
3.7221	11.316
3.7061	11.3312
3.6903	11.4514
3.6746	11.3521
3.659	11.34
3.6436	11.3315
3.6283	11.1658
3.6131	11.3116
3.5981	11.2491
3.5832	11.1664
3.5684	11.1431
3.5537	11.1845
3.5391	11.071
3.5247	11.0541
3.5104	10.9964
3.4962	10.9147
3.4821	10.99
3.4681	10.8166
3.4543	10.7394
3.4405	10.8749
3.4269	10.798
3.4133	10.6881
3.3999	10.5668
3.3866	10.5652
3.3733	10.5063
3.3602	10.4658
3.3472	10.3125
3.3343	10.32
3.3215	10.2228
3.3088	10.3301
3.2961	10.0713
3.2836	10.0757
3.2712	9.9368
3.2588	9.8866
3.2466	9.8459
3.2345	9.6303
3.2224	9.6549
3.2104	9.4805
3.1985	9.3209
3.1867	9.3012
3.175	9.302
3.1634	9.1442
3.1519	9.1137
3.1404	9.145
3.129	9.0767
3.1178	9.0591
3.1065	9.0801
3.0954	9.0855
3.0844	9.0023
3.0734	9.052
3.0625	8.9527
3.0517	8.9355
3.041	8.9831
3.0303	9.0057
3.0197	9.1064
3.0092	8.8688
2.9987	8.8452
2.9884	8.9234
2.9781	8.9188
2.9678	8.9803
2.9577	8.8984
2.9476	8.8344
2.9376	9.023
2.9276	8.9312
2.9177	8.9843
2.9079	8.8889
2.8982	8.7804
2.8885	9.0075
2.8789	9.05
2.8693	9.025
2.8598	8.9684
2.8504	9.0837
2.841	8.8573
2.8317	9.0878
2.8224	8.6857
2.8133	8.4674
2.8041	8.213
2.7951	8.1714
2.786	8.2639
2.7771	8.4254
2.7682	8.0042
2.7594	8.2515
2.7506	9.1906
2.7418	10.376
2.7332	10.9246
2.7246	11.7002
2.716	12.3236
2.7075	12.9609
2.699	13.0646
2.6906	13.1732
2.6823	13.3712
2.674	13.2788
2.6657	13.7402
2.6575	13.3574
2.6494	13.4753
2.6413	13.6181
2.6332	13.6555
2.6252	13.4852
2.6173	13.7939
2.6094	13.6091
2.6015	13.6004
2.5937	13.9235
2.5859	13.7479
2.5782	13.661
2.5706	13.6528
2.5629	13.8239
2.5554	13.6226
2.5478	13.6571
2.5403	13.6288
2.5329	13.6522
2.5255	13.6215
2.5181	13.7589
2.5108	13.6997
2.5035	13.7295
2.4963	13.8772
2.4891	13.6993
2.482	13.7662
2.4749	13.8792
2.4678	14.0424
2.4608	14.2584
2.4538	14.0986
2.4468	13.9242
2.4399	14.2264
2.4331	14.0649
2.4262	14.016
2.4194	14.071
2.4127	14.2586
2.4059	14.2822
2.3993	14.2302
2.3926	14.3481
2.386	14.3568
2.3795	14.5464
2.3729	14.5013
2.3664	14.3681
2.36	14.3897
2.3535	14.3225
2.3471	14.2569
2.3408	14.4167
2.3345	14.5344
2.3282	14.5159
2.3219	14.4654
2.3157	14.7662
2.3095	14.9321
2.3034	15.0375
2.2972	14.8826
2.2911	15.1169
2.2851	15.147
2.279	15.2913
2.2731	15.2705
2.2671	15.3518
2.2612	15.3678
2.2553	15.4459
2.2494	15.2622
2.2435	15.5325
2.2377	15.5912
2.232	15.5004
2.2262	15.6656
2.2205	15.5356
2.2148	15.7093
2.2091	15.9843
2.2035	15.8589
2.1979	15.6322
2.1923	15.8313
2.1868	16.0208
2.1812	15.8712
2.1758	16.0838
2.1703	15.9916
2.1649	15.8831
2.1595	16.0813
2.1541	16.1307
2.1487	15.9744
2.1434	16.1396
2.1381	16.1479
2.1328	16.0291
2.1275	16.3136
2.1223	16.1631
2.1171	16.1288
2.112	16.1826
2.1068	16.29
2.1017	16.3761
2.0966	16.2656
2.0915	16.118
2.0865	16.5068
2.0814	15.9544
2.0764	16.9611
2.0715	16.1146
2.0665	17.065
2.0616	15.9617
2.0567	16.2596
2.0518	16.5185
2.0469	16.3151
2.0421	16.161
2.0373	16.2684
2.0325	16.5967
2.0277	16.3793
2.0229	16.2399
2.0182	16.2833
2.0135	16.2053
2.0088	16.0807
2.0042	16.3725
