Name: Nontronite Na_0.33Fe_2^3+(Si,Al)_4O_10(OH)_2.H_2O
Type: Mineral
Class: Silicate
Subclass: Phyllosilicate
Particle Size: Coarse
Sample No.: PS-6B
Owner: JPL
Wavelength Range: TIR
Origin: Germany, Westphalia, Hohen Hagen
Description: Particle size was 125-500um.Collected by Clay Mineral Society Original ASTER Spectral Library name was jpl.nicolet.mineral.silicate.phyllosilicate.coarse.ps06b.spectrum.txt
Measurement: Hemispherical reflectance
X Units: Wavelength (micrometers)
Y Units: Reflectance (percent)
wavelength	value
15.3853	2.1507
15.1161	2.1515
14.8563	2.5353
14.6052	2.6362
14.3624	2.0323
14.1276	2.1419
13.9004	2.3769
13.6803	2.6237
13.4671	2.7544
13.2604	2.8744
13.06	3.383
12.8656	4.3291
12.6769	3.2828
12.4936	3.0141
12.3155	0.8686
12.1425	1.7042
11.9742	1.7266
11.8106	2.141
11.6513	2.353
11.4963	2.6095
11.3454	2.5551
11.1983	2.7717
11.0551	3.1292
10.9154	3.117
10.7793	3.5225
10.6465	3.691
10.5169	4.1072
10.3904	4.6284
10.267	5.0025
10.1464	5.9716
10.0287	6.7509
9.9136	7.717
9.8012	8.6592
9.6913	9.6217
9.5838	10.6474
9.4787	12.2593
9.3758	15.962
9.2752	17.7803
9.1767	17.4328
9.0803	17.1827
8.9858	16.9784
8.8934	16.2711
8.8028	14.9132
8.714	13.0332
8.627	10.6797
8.5417	13.177
8.4581	14.1179
8.3761	14.6682
8.2957	14.6556
8.2169	14.9802
8.1395	14.6296
8.0635	11.3991
7.989	7.9208
7.9158	4.8836
7.8439	2.8911
7.7734	2.1433
7.7041	1.4166
7.636	1.2235
7.5691	0.9865
7.5034	0.9863
7.4388	0.8044
7.3753	0.7773
7.3129	0.7737
7.2515	0.7473
7.1912	0.8414
7.1318	0.7596
7.0734	0.8831
7.016	0.9637
6.9595	1.0457
6.9039	1.1363
6.8492	1.0875
6.7953	0.9293
6.7423	0.8365
6.6901	0.8897
6.6387	0.9171
6.5881	0.8723
6.5382	0.8012
6.4892	1.2554
6.4408	1.4745
6.3931	1.35
6.3462	1.1186
6.2999	0.8559
6.2543	0.817
6.2094	0.8432
6.1651	0.9282
6.1214	0.9132
6.0784	1.0255
6.0359	1.1235
5.994	0.9338
5.9527	0.8833
5.912	0.9694
5.8718	1.3494
5.8322	1.6096
5.7931	2.2231
5.7545	2.7528
5.7165	3.1999
5.6789	2.6276
5.6418	1.4621
5.6052	1.1406
5.5691	1.1602
5.5334	1.2812
5.4982	1.4773
5.4635	1.8817
5.4291	1.6139
5.3952	1.2115
5.3618	1.0568
5.3287	1.0321
5.2961	1.1477
5.2638	1.14
5.2319	1.4703
5.2004	1.951
5.1693	2.0796
5.1386	1.8408
5.1082	1.7737
5.0782	1.6326
5.0485	1.5216
5.0192	1.5219
4.9902	1.606
4.9616	2.191
4.9332	2.961
4.9052	4.9123
4.8776	9.6909
4.8502	13.3719
4.8231	15.9031
4.7963	17.743
4.7699	19.256
4.7437	20.2992
4.7178	20.3822
4.6922	18.4497
4.6668	19.1816
4.6418	21.8492
4.617	24.0289
4.5924	24.676
4.5681	24.7664
4.5441	23.4251
4.5203	20.3262
4.4968	16.8715
4.4735	15.4987
4.4505	16.3621
4.4277	17.7519
4.4051	19.3732
4.3828	21.5634
4.3607	23.9861
4.3388	25.383
4.3171	25.6321
4.2956	25.177
4.2744	25.2278
4.2534	26.2485
4.2325	26.5142
4.2119	27.2661
4.1915	27.7772
4.1712	28.6763
4.1512	29.4537
4.1313	30.2085
4.1117	31.1543
4.0922	31.9553
4.0729	32.6948
4.0538	32.9629
4.0349	33.049
4.0161	32.8968
3.9976	33.0765
3.9792	33.4392
3.9609	33.8216
3.9428	34.1498
3.9249	34.258
3.9072	34.0937
3.8896	33.5941
3.8722	33.004
3.8549	32.5654
3.8378	32.2889
3.8208	32.0798
3.804	31.7916
3.7873	31.2329
3.7708	30.6021
3.7544	29.842
3.7382	29.3183
3.7221	28.8064
3.7061	28.5936
3.6903	28.4914
3.6746	28.1509
3.659	27.7299
3.6436	27.0621
3.6283	26.2575
3.6131	25.709
3.5981	25.0096
3.5832	24.4417
3.5684	23.7779
3.5537	23.0858
3.5391	22.4587
3.5247	21.7756
3.5104	21.0254
3.4962	20.2271
3.4821	19.4812
3.4681	18.6842
3.4543	18.0292
3.4405	17.3023
3.4269	16.5748
3.4133	15.6046
3.3999	14.8282
3.3866	14.3014
3.3733	13.544
3.3602	12.6161
3.3472	12.2172
3.3343	11.3147
3.3215	10.8226
3.3088	10.1844
3.2961	9.5198
3.2836	8.9496
3.2712	8.3444
3.2588	7.7635
3.2466	7.3133
3.2345	6.6521
3.2224	6.1942
3.2104	5.7037
3.1985	5.5398
3.1867	5.2301
3.175	5.0086
3.1634	4.5765
3.1519	4.2855
3.1404	4.2872
3.129	3.9297
3.1178	3.7459
3.1065	3.5711
3.0954	3.6724
3.0844	3.597
3.0734	3.2831
3.0625	3.4651
3.0517	3.3498
3.041	3.1262
3.0303	3.1938
3.0197	2.9706
3.0092	3.0939
2.9987	2.8638
2.9884	2.7486
2.9781	2.8113
2.9678	2.6971
2.9577	2.6418
2.9476	2.5673
2.9376	2.8138
2.9276	2.5936
2.9177	2.5211
2.9079	2.7176
2.8982	2.8843
2.8885	2.823
2.8789	2.9602
2.8693	3.0601
2.8598	3.2035
2.8504	3.5431
2.841	3.5468
2.8317	3.3463
2.8224	3.4475
2.8133	2.9916
2.8041	2.8308
2.7951	2.6184
2.786	3.0024
2.7771	3.019
2.7682	3.3942
2.7594	3.9573
2.7506	4.4266
2.7418	5.4724
2.7332	7.6986
2.7246	10.9895
2.716	15.8538
2.7075	21.3945
2.699	26.3157
2.6906	30.1245
2.6823	33.0853
2.674	35.11
2.6657	38.294
2.6575	39.7634
2.6494	40.9049
2.6413	41.8358
2.6332	42.5736
2.6252	43.1006
2.6173	43.6011
2.6094	43.9968
2.6015	44.4755
2.5937	44.7106
2.5859	44.8224
2.5782	44.9037
2.5706	44.9435
2.5629	45.3652
2.5554	45.3497
2.5478	45.5395
2.5403	45.6397
2.5329	45.8544
2.5255	45.8868
2.5181	46.1555
2.5108	46.2279
2.5035	46.4492
2.4963	46.8668
2.4891	47.3789
2.482	47.8716
2.4749	48.2756
2.4678	48.9354
2.4608	49.3786
2.4538	49.7567
2.4468	50.2116
2.4399	50.4838
2.4331	50.7885
2.4262	51.1917
2.4194	51.6479
2.4127	51.4258
2.4059	51.6153
2.3993	51.8641
2.3926	52.1658
2.386	52.9846
2.3795	53.6205
2.3729	54.114
2.3664	54.608
2.36	54.8579
2.3535	55.0622
2.3471	55.2723
2.3408	55.5197
2.3345	55.4737
2.3282	55.6385
2.3219	55.6534
2.3157	55.3157
2.3095	54.8829
2.3034	54.1175
2.2972	53.0795
2.2911	52.0249
2.2851	51.8461
2.279	52.7365
2.2731	53.5876
2.2671	54.6147
2.2612	55.2524
2.2553	55.8133
2.2494	56.1855
2.2435	56.4229
2.2377	56.3892
2.232	56.4231
2.2262	56.4781
2.2205	56.5761
2.2148	56.2258
2.2091	56.5937
2.2035	56.7904
2.1979	57.2358
2.1923	57.3289
2.1868	57.7422
2.1812	58.1242
2.1758	58.8006
2.1703	59.1195
2.1649	59.5219
2.1595	59.758
2.1541	59.7126
2.1487	60.306
2.1434	59.9968
2.1381	60.1078
2.1328	60.1127
2.1275	60.3285
2.1223	60.1751
2.1171	60.0456
2.112	60.233
2.1068	60.1
2.1017	59.8369
2.0966	60.0435
2.0915	59.9395
2.0865	59.8502
2.0814	59.881
2.0764	60.1107
2.0715	59.7706
2.0665	59.2615
2.0616	59.6273
2.0567	59.394
2.0518	59.1332
2.0469	59.2621
2.0421	58.9496
2.0373	59.2425
2.0325	58.7589
2.0277	58.5127
2.0229	58.4511
2.0182	58.1692
2.0135	58.1106
2.0088	57.693
2.0042	57.4769
