Name: Zircon ZrSiO_4
Type: Mineral
Class: Silicate
Subclass: Nesosilicate
Particle Size: Medium
Sample No.: NS-9A
Owner: JPL
Wavelength Range: VSWIR
Origin: Malawi, Southern Malawi, Blantyre-Limbe District.
Description: Particle size was 45-125um.Collected by:  Burminco Original ASTER Spectral Library name was jpl.perkin.mineral.silicate.nesosilicate.medium.ns09a.spectrum.txt
Measurement: Hemispherical reflectance
X Units: Wavelength (micrometers)
Y Units: Reflectance (percent)
wavelength	value
2.5	69.4449
2.494	69.4995
2.488	69.7665
2.482	69.8611
2.476	70.1979
2.47	70.3455
2.464	70.6794
2.458	70.7335
2.452	70.9021
2.446	71.1121
2.44	71.3185
2.434	71.4513
2.428	71.6477
2.422	71.6962
2.416	71.7938
2.41	71.8659
2.404	71.8633
2.398	71.8128
2.392	71.8885
2.386	71.9198
2.38	72.0118
2.374	72.1766
2.368	72.3385
2.362	72.4627
2.356	72.6622
2.35	72.7335
2.344	72.7714
2.338	72.8609
2.332	72.9269
2.326	72.9653
2.32	72.9648
2.314	72.8817
2.308	72.924
2.302	72.9315
2.296	72.9252
2.29	72.9154
2.284	72.9502
2.278	72.8999
2.272	72.8515
2.266	72.865
2.26	72.796
2.254	72.8152
2.248	72.7847
2.242	72.8564
2.236	73.0227
2.23	73.0487
2.224	73.1359
2.218	73.0091
2.212	72.8598
2.206	72.7839
2.2	73.0433
2.194	73.1385
2.188	73.2226
2.182	73.3875
2.176	73.4707
2.17	73.5587
2.164	73.7826
2.158	73.8984
2.152	73.978
2.146	74.1567
2.14	74.1444
2.134	74.0804
2.128	73.8251
2.122	73.4802
2.116	73.0826
2.11	72.5632
2.104	72.1833
2.098	71.6527
2.092	71.2214
2.086	70.8305
2.08	70.5269
2.074	70.3739
2.068	70.432
2.062	70.8868
2.056	71.4215
2.05	72.0946
2.044	72.6471
2.038	73.1199
2.032	73.4759
2.026	73.7068
2.02	73.9684
2.014	74.1181
2.008	74.3663
2.002	74.4949
1.996	74.5446
1.99	74.6084
1.984	74.5724
1.978	74.4539
1.972	74.5459
1.966	74.4954
1.96	74.5095
1.954	74.5306
1.948	74.5002
1.942	74.4546
1.936	74.5518
1.93	74.7438
1.924	74.6596
1.918	74.8766
1.912	75.0386
1.906	75.2654
1.9	75.6505
1.894	75.9274
1.888	76.1764
1.882	76.3145
1.876	76.4664
1.87	76.5489
1.864	76.7021
1.858	76.7618
1.852	76.7373
1.846	76.7848
1.84	76.7849
1.834	76.7705
1.828	76.7375
1.822	76.8114
1.816	76.7649
1.81	76.7438
1.804	76.7644
1.798	76.7761
1.792	76.6902
1.786	76.6467
1.78	76.5972
1.774	76.5625
1.768	76.4595
1.762	76.4188
1.756	76.2814
1.75	76.1676
1.744	76.0614
1.738	75.9288
1.732	75.9202
1.726	75.8627
1.72	75.8024
1.714	75.6292
1.708	75.4327
1.702	75.2968
1.696	75.3081
1.69	75.1586
1.684	75.1133
1.678	74.9402
1.672	74.6068
1.666	74.3046
1.66	74.1967
1.654	74.6382
1.648	75.0003
1.642	75.1265
1.636	75.1862
1.63	75.2408
1.624	75.2769
1.618	75.3134
1.612	75.3103
1.606	75.344
1.6	75.3109
1.594	75.1706
1.588	75.0044
1.582	74.8606
1.576	74.5097
1.57	74.1072
1.564	73.7711
1.558	73.3388
1.552	72.6582
1.546	71.518
1.54	70.5776
1.534	70.1603
1.528	69.7827
1.522	69.1734
1.516	67.4002
1.51	62.7275
1.504	59.0682
1.498	62.0615
1.492	65.0963
1.486	66.8618
1.48	67.6488
1.474	68.5826
1.468	70.0201
1.462	70.5301
1.456	71.2189
1.45	71.7423
1.444	71.9867
1.438	72.2543
1.432	72.4287
1.426	72.6332
1.42	72.6803
1.414	72.4972
1.408	72.6958
1.402	72.5345
1.396	72.4874
1.39	72.5176
1.384	72.289
1.378	72.0166
1.372	71.6917
1.366	71.1844
1.36	70.5622
1.354	69.9888
1.348	69.4315
1.342	69.4257
1.336	69.3703
1.33	69.3165
1.324	69.4691
1.318	69.8048
1.312	70.1133
1.306	70.2684
1.3	70.4626
1.294	70.6504
1.288	70.7619
1.282	70.9252
1.276	70.9785
1.27	71.1891
1.264	71.3764
1.258	71.5498
1.252	71.6031
1.246	71.6724
1.24	71.7074
1.234	71.7499
1.228	71.7579
1.222	71.7264
1.216	71.6276
1.21	71.5411
1.204	71.298
1.198	70.8988
1.192	70.3896
1.186	69.7309
1.18	68.9277
1.174	67.9284
1.168	66.6782
1.162	65.2701
1.156	63.7337
1.15	62.0282
1.144	60.7237
1.138	59.4246
1.132	58.5573
1.126	56.5281
1.12	53.759
1.114	53.5739
1.108	55.6094
1.102	57.2106
1.096	58.1353
1.09	58.8229
1.084	59.3823
1.078	59.742
1.072	59.7277
1.066	59.574
1.06	59.1524
1.054	59.5164
1.048	60.0839
1.042	60.8956
1.036	61.4603
1.03	62.0489
1.024	62.2279
1.018	62.4613
1.012	62.6274
1.006	62.8549
1	63.2379
0.994	63.4341
0.988	63.5576
0.982	63.2985
0.976	63.16
0.97	63.6222
0.964	63.7081
0.958	63.9647
0.952	64.2893
0.946	64.3526
0.94	64.334
0.934	64.2109
0.928	64.0088
0.922	63.3039
0.916	62.5987
0.91	62.9878
0.904	63.2449
0.898	63.1714
0.892	63.2006
0.886	63.3748
0.88	63.664
0.874	63.8776
0.868	63.9518
0.862	63.977
0.856	64.1303
0.85	64.0983
0.844	64.3166
0.838	64.4845
0.832	64.8419
0.826	65.0848
0.82	65.3349
0.814	65.519
0.808	65.7006
0.802	65.7448
0.796	65.8917
0.79	65.9673
0.784	66.0231
0.778	65.8997
0.772	65.7565
0.766	65.5383
0.76	65.3023
0.754	64.992
0.748	64.6674
0.742	64.2668
0.736	63.8394
0.73	63.3071
0.724	62.7028
0.718	62.0474
0.712	61.3625
0.706	60.5855
0.7	59.6642
0.694	58.1837
0.688	56.0974
0.682	56.3232
0.676	55.9123
0.67	54.6381
0.664	52.1199
0.658	48.8353
0.652	46.2166
0.646	48.8607
0.64	49.1865
0.634	48.7529
0.628	47.9785
0.622	46.8478
0.616	45.8943
0.61	45.4074
0.604	44.6998
0.598	43.8074
0.592	42.5393
0.586	41.7673
0.58	41.4765
0.574	40.9286
0.568	40.2555
0.562	39.3514
0.556	38.639
0.55	37.8491
0.544	36.9191
0.538	35.9571
0.532	35.448
0.526	34.8492
0.52	34.0019
0.514	33.1853
0.508	32.7254
0.502	32.4814
0.496	32.0968
0.49	31.5113
0.484	30.8017
0.478	30.4262
0.472	30.2201
0.466	29.944
0.46	29.5625
0.454	29.0876
0.448	28.4623
0.442	27.5585
0.436	26.4087
0.43	25.2661
0.424	24.367
0.418	23.6522
0.412	23.0737
0.406	22.4285
0.4	21.6588
