Name: Dickite Al_2Si_2O_5(OH)_4
Type: Mineral
Class: Silicate
Subclass: Phyllosilicate
Particle Size: Fine
Sample No.: PS-3A
Owner: JPL
Wavelength Range: VSWIR
Origin: Mexico, San Juanito
Description: Particle size was 0-45um.Collected by Ward's Original ASTER Spectral Library name was jpl.beckman.mineral.silicate.phyllosilicate.fine.ps03a.spectrum.txt
Measurement: Hemispherical reflectance
X Units: Wavelength (micrometers)
Y Units: Reflectance (percent)
wavelength	value
0.4	60.55
0.403	61.09
0.406	61.53
0.409	61.72
0.412	62.06
0.415	62.32
0.418	62.75
0.421	63.14
0.424	63.18
0.427	63.68
0.43	64.07
0.433	64.57
0.436	64.83
0.439	65.29
0.442	65.49
0.445	65.98
0.448	66.2
0.451	66.38
0.454	66.63
0.457	66.88
0.46	67.11
0.463	67.28
0.466	67.47
0.469	67.74
0.472	68
0.475	68.19
0.478	68.41
0.481	68.61
0.484	68.72
0.487	69.07
0.49	69.19
0.493	69.42
0.496	69.83
0.499	70.23
0.502	70.63
0.505	70.76
0.508	71.2
0.511	71.58
0.514	71.96
0.517	72.37
0.52	72.67
0.523	73.02
0.526	73.39
0.529	73.81
0.532	74.24
0.535	74.49
0.538	75
0.541	75.44
0.544	75.8
0.547	76.16
0.55	76.54
0.553	76.74
0.556	77.28
0.559	77.31
0.562	78.11
0.565	78.55
0.568	78.78
0.571	78.88
0.574	79.06
0.577	79.31
0.58	79.67
0.583	79.76
0.586	80
0.589	80.21
0.592	80.38
0.595	80.68
0.598	80.84
0.601	81.06
0.604	81.2
0.607	81.36
0.61	81.72
0.613	81.92
0.616	81.77
0.619	81.92
0.622	82.13
0.625	82.2
0.628	82.45
0.631	82.39
0.634	82.59
0.637	82.83
0.64	82.89
0.643	82.96
0.646	82.99
0.649	83.17
0.652	83.37
0.655	83.63
0.658	83.62
0.661	83.75
0.664	84.01
0.667	84.12
0.67	84.37
0.673	84.32
0.676	84.48
0.679	84.69
0.682	84.83
0.685	85.02
0.688	85.14
0.691	85.32
0.694	85.47
0.697	85.8
0.7	85.64
0.703	85.81
0.706	85.89
0.709	85.98
0.712	86.35
0.715	86.51
0.718	86.58
0.721	86.62
0.724	86.76
0.727	86.83
0.73	87.13
0.733	86.94
0.736	87.15
0.739	87.09
0.742	87.11
0.745	87.27
0.748	87.22
0.751	87.27
0.754	87.38
0.757	87.39
0.76	87.27
0.763	87.39
0.766	87.34
0.769	87.34
0.772	87.5
0.775	87.22
0.778	87.33
0.781	87.28
0.784	87.29
0.787	87.34
0.79	87.18
0.793	87.18
0.796	87.33
0.799	87.18
0.808	87.06
0.82	87.08
0.832	87.06
0.844	87
0.856	87.05
0.868	87.09
0.88	87.02
0.892	87.09
0.904	87.02
0.916	87.03
0.928	87.26
0.94	87.01
0.952	87.5
0.964	86.96
0.976	88.35
0.988	89
1	89.27
1.012	89.77
1.024	89.96
1.036	90.21
1.048	90.3
1.06	90.73
1.072	90.86
1.084	91.19
1.096	91.32
1.108	91.44
1.12	91.62
1.132	91.89
1.144	91.99
1.156	92.05
1.168	92.14
1.18	92.11
1.192	92.03
1.204	91.95
1.216	91.53
1.228	90.9
1.24	90.26
1.252	90.7
1.264	90.97
1.276	90.25
1.288	89.07
1.3	86.81
1.312	86.77
1.324	86.37
1.336	85.85
1.348	83.89
1.36	80.51
1.372	72.79
1.384	70.27
1.396	78.44
1.408	60.85
1.42	76.4
1.432	87.64
1.444	89.52
1.456	90.7
1.468	91.15
1.48	91.5
1.492	91.5
1.504	91.55
1.516	91.67
1.528	91.84
1.54	91.84
1.552	91.74
1.564	91.74
1.576	91.67
1.588	91.67
1.6	91.79
1.612	91.71
1.624	91.51
1.636	91.44
1.648	91.25
1.66	91.28
1.672	91.04
1.684	90.94
1.696	90.7
1.708	90.47
1.72	90.01
1.732	89.48
1.744	89.21
1.756	88.91
1.768	88.21
1.78	87.31
1.792	86.46
1.804	86.36
1.816	86.23
1.828	86.15
1.84	87
1.852	87.98
1.864	87.96
1.876	87.62
1.888	87.13
1.9	86.36
1.912	85.7
1.924	85.36
1.936	84.87
1.948	84.58
1.96	84.62
1.972	84.74
1.984	84.59
1.996	84.46
2.008	84.26
2.02	83.67
2.032	83.09
2.044	81.95
2.056	80.76
2.068	79.75
2.08	78.38
2.092	76.96
2.104	75.46
2.116	74.43
2.128	71.9
2.14	67.12
2.152	61.69
2.164	55.09
2.176	51.74
2.188	52.66
2.2	52.09
2.212	58.44
2.224	66.95
2.236	69.34
2.248	68.29
2.26	67.43
2.272	66.48
2.284	64.27
2.296	61.62
2.308	60.22
2.32	60.03
2.332	58.98
2.344	56.87
2.356	55.68
2.368	53.83
2.38	52.42
2.392	53.21
2.404	54.67
2.416	54.67
2.428	53.44
2.44	52.25
2.452	51.44
2.464	50.43
2.476	49.18
2.488	47.96
2.5	46.74
