Name: Apatite Ca_5(PO_4)_3F
Type: Mineral
Class: Phosphate
Subclass: None
Particle Size: Fine
Sample No.: P-1A
Owner: JPL
Wavelength Range: TIR
Origin: Canada, Ontario, Lanark County, Perth
Description: Particle size was 0-45um.Collected by Ward's Original ASTER Spectral Library name was jpl.nicolet.mineral.phosphate.none.fine.p01a.spectrum.txt
Measurement: Hemispherical reflectance
X Units: Wavelength (micrometers)
Y Units: Reflectance (percent)
wavelength	value
15.3853	3.8454
15.1161	5.4325
14.8563	6.3396
14.6052	7.3506
14.3624	9.3371
14.1276	9.9475
13.9004	9.2525
13.6803	8.7849
13.4671	6.6364
13.2604	7.8986
13.06	13.698
12.8656	16.9233
12.6769	17.8811
12.4936	18.721
12.3155	20.468
12.1425	21.3421
11.9742	21.651
11.8106	19.3308
11.6513	18.6673
11.4963	15.0079
11.3454	14.5254
11.1983	17.2093
11.0551	17.3214
10.9154	16.0821
10.7793	13.8023
10.6465	13.1042
10.5169	11.4255
10.3904	6.5306
10.267	10.3823
10.1464	11.2192
10.0287	9.8025
9.9136	8.982
9.8012	9.3942
9.6913	14.414
9.5838	18.1176
9.4787	17.745
9.3758	18.0397
9.2752	15.6421
9.1767	12.1819
9.0803	17.6802
8.9858	19.1597
8.8934	19.5344
8.8028	13.3786
8.714	7.2031
8.627	4.5162
8.5417	4.0609
8.4581	3.9642
8.3761	4.4841
8.2957	5.5758
8.2169	6.1769
8.1395	7.7378
8.0635	8.6557
7.989	9.8245
7.9158	11.1351
7.8439	12.7277
7.7734	14.4793
7.7041	15.9564
7.636	16.7113
7.5691	17.5983
7.5034	18.5287
7.4388	18.9323
7.3753	19.0756
7.3129	18.2986
7.2515	17.0466
7.1912	15.552
7.1318	13.7968
7.0734	12.2693
7.016	9.8291
6.9595	12.7863
6.9039	10.496
6.8492	10.4051
6.7953	12.9421
6.7423	14.8122
6.6901	17.1332
6.6387	20.7185
6.5881	23.773
6.5382	26.1783
6.4892	29.9397
6.4408	31.2411
6.3931	33.036
6.3462	33.8852
6.2999	34.9544
6.2543	37.1212
6.2094	37.1168
6.1651	38.4732
6.1214	39.997
6.0784	40.8502
6.0359	42.1762
5.994	45.1951
5.9527	46.8227
5.912	48.033
5.8718	50.1809
5.8322	52.1065
5.7931	51.7051
5.7545	53.0827
5.7165	55.0198
5.6789	55.3075
5.6418	57.1291
5.6052	51.2128
5.5691	36.9739
5.5334	53.0321
5.4982	58.9062
5.4635	61.8464
5.4291	62.5054
5.3952	61.0802
5.3618	59.6424
5.3287	59.6377
5.2961	60.0976
5.2638	60.6995
5.2319	61.2985
5.2004	59.1765
5.1693	59.2007
5.1386	60.0684
5.1082	57.2388
5.0782	51.694
5.0485	38.1623
5.0192	18.6801
4.9902	19.6435
4.9616	23.3236
4.9332	28.9672
4.9052	31.9371
4.8776	29.0397
4.8502	30.7859
4.8231	26.314
4.7963	24.4263
4.7699	29.2826
4.7437	34.3888
4.7178	35.6116
4.6922	34.7401
4.6668	34.2748
4.6418	34.2336
4.617	37.1881
4.5924	45.2768
4.5681	47.2175
4.5441	51.674
4.5203	58.2985
4.4968	63.2194
4.4735	65.6914
4.4505	67.5479
4.4277	69.0719
4.4051	70.1715
4.3828	70.2079
4.3607	70.3148
4.3388	71.3849
4.3171	72.73
4.2956	74.0359
4.2744	74.9469
4.2534	75.3561
4.2325	76.6535
4.2119	76.4391
4.1915	76.4216
4.1712	76.5105
4.1512	76.5941
4.1313	76.0871
4.1117	75.4186
4.0922	74.4266
4.0729	73.0239
4.0538	70.7514
4.0349	65.2609
4.0161	59.6017
3.9976	50.6085
3.9792	46.6164
3.9609	49.1294
3.9428	56.259
3.9249	59.5561
3.9072	60.7436
3.8896	61.3296
3.8722	61.7161
3.8549	62.0242
3.8378	63.3603
3.8208	67.1479
3.804	70.9758
3.7873	74.3109
3.7708	74.9278
3.7544	75.007
3.7382	74.908
3.7221	74.9285
3.7061	74.9027
3.6903	74.7456
3.6746	74.6022
3.659	74.3454
3.6436	74.181
3.6283	73.9346
3.6131	73.6192
3.5981	72.9757
3.5832	72.153
3.5684	71.0581
3.5537	70.571
3.5391	68.7637
3.5247	64.0676
3.5104	58.4539
3.4962	55.5534
3.4821	53.0722
3.4681	56.0461
3.4543	59.3425
3.4405	59.6067
3.4269	59.136
3.4133	58.3653
3.3999	58.2072
3.3866	57.6695
3.3733	57.1054
3.3602	56.3134
3.3472	56.4516
3.3343	63.9903
3.3215	65.744
3.3088	65.981
3.2961	65.9417
3.2836	66.0357
3.2712	66.0714
3.2588	65.8702
3.2466	65.6718
3.2345	65.2501
3.2224	64.9651
3.2104	64.6685
3.1985	64.2968
3.1867	63.8739
3.175	63.4131
3.1634	62.9003
3.1519	62.193
3.1404	61.9661
3.129	61.5729
3.1178	60.9971
3.1065	60.7924
3.0954	60.6431
3.0844	60.5631
3.0734	60.3831
3.0625	60.2966
3.0517	59.9667
3.041	59.5843
3.0303	59.3112
3.0197	58.7343
3.0092	58.2968
2.9987	57.9
2.9884	57.2898
2.9781	56.3816
2.9678	55.7465
2.9577	55.3837
2.9476	55.3596
2.9376	55.7031
2.9276	56.1165
2.9177	55.9402
2.9079	55.4578
2.8982	54.9916
2.8885	53.8745
2.8789	52.468
2.8693	50.2533
2.8598	48.541
2.8504	45.8992
2.841	34.0789
2.8317	22.2922
2.8224	20.2828
2.8133	29.3756
2.8041	39.1344
2.7951	44.8342
2.786	53.628
2.7771	57.4284
2.7682	59.7405
2.7594	60.2793
2.7506	61.4066
2.7418	63.6094
2.7332	62.5388
2.7246	60.8461
2.716	59.7855
2.7075	72.4391
2.699	75.8648
2.6906	76.5745
2.6823	77.2262
2.674	77.5179
2.6657	79.7499
2.6575	77.0593
2.6494	77.3268
2.6413	78.567
2.6332	79.8121
2.6252	80.5489
2.6173	82.0072
2.6094	80.4101
2.6015	79.8028
2.5937	82.2729
2.5859	81.9519
2.5782	82.8528
2.5706	83.9739
2.5629	85.4308
2.5554	84.2911
2.5478	84.1239
2.5403	83.2616
2.5329	83.5864
2.5255	84.0773
2.5181	84.4966
2.5108	84.8108
2.5035	84.8943
2.4963	85.0905
2.4891	85.3224
2.482	85.5288
2.4749	85.6674
2.4678	85.9095
2.4608	86.0923
2.4538	86.5166
2.4468	86.5714
2.4399	86.8428
2.4331	86.7715
2.4262	86.9713
2.4194	87.1688
2.4127	87.1243
2.4059	87.3094
2.3993	87.1102
2.3926	86.7645
2.386	86.9122
2.3795	87.0732
2.3729	87.2823
2.3664	87.5191
2.36	87.2346
2.3535	86.9559
2.3471	86.8041
2.3408	86.6342
2.3345	86.5398
2.3282	86.351
2.3219	85.9839
2.3157	85.2228
2.3095	85.6504
2.3034	86.4443
2.2972	86.5953
2.2911	86.4714
2.2851	87.0738
2.279	87.6329
2.2731	88.0746
2.2671	88.216
2.2612	88.5584
2.2553	88.5769
2.2494	88.5105
2.2435	88.5328
2.2377	88.7579
2.232	88.621
2.2262	88.8787
2.2205	88.7548
2.2148	88.7653
2.2091	88.7843
2.2035	88.993
2.1979	88.9534
2.1923	88.8751
2.1868	89.0119
2.1812	88.791
2.1758	88.7627
2.1703	88.6304
2.1649	88.7503
2.1595	88.5033
2.1541	88.6732
2.1487	88.7491
2.1434	88.691
2.1381	89.1047
2.1328	88.8941
2.1275	89.094
2.1223	89.0095
2.1171	89.1861
2.112	89.2756
2.1068	89.1871
2.1017	89.1416
2.0966	89.2349
2.0915	89.3823
2.0865	88.8843
2.0814	89.193
2.0764	89.0007
2.0715	89.1097
2.0665	89.0643
2.0616	89.2143
2.0567	89.1102
2.0518	89.2037
2.0469	89.1549
2.0421	88.995
2.0373	89.0291
2.0325	88.9105
2.0277	88.6084
2.0229	88.5164
2.0182	88.4791
2.0135	88.3905
2.0088	88.3276
2.0042	87.7419
