Name: Pyrrhotite, Fe(1-x)S
Type: Mineral
Class: Sulfide
Subclass: None
Particle Size: Fine
Sample No.: pyrrhot_1
Owner: JHU
Wavelength Range: TIR
Origin: Stoneham, Maine, USA via the Smithsonian (sample no. NMNH85267)
Description: The sample consisted of two large fragments and many small pieces from the same specimen.  Total weight was 23 g.  Fragments had a bronze color, no obvious impurities, but some brownish surficial alteration, which was easily removed.  Under the microscope there appeared to be contamination by <5% of a transparent mineral which could be separated magnetically. Particle size was Less than 2  Micrometers. Original ASTER Spectral Library name was jhu.nicolet.mineral.sulfide.none.powder.pyrrho1.spectrum.txt
Measurement: Transmission
X Units: Wavelength (micrometers)
Y Units: Transmittance (percent)
wavelength	value
25.0442	57.3026
24.3388	53.6522
23.6719	52.1449
23.0407	52.224
22.4422	51.9315
21.8741	50.9789
21.334	49.3417
20.8199	48.8514
20.33	48.0551
19.8627	47.3148
19.4163	46.5602
18.9896	45.702
18.5812	44.9135
18.19	44.5338
17.815	43.8495
17.4551	43.0541
17.1094	41.9481
16.7772	41.026
16.4576	40.185
16.15	39.4418
15.8537	39.1083
15.568	38.7448
15.2925	38.5211
15.0265	37.9342
14.7697	37.3524
14.5214	36.7045
14.2814	36.1073
14.0492	35.5219
13.8244	34.9628
13.6067	34.4701
13.3957	34.2062
13.1912	33.7126
12.9929	33.2423
12.8004	32.8053
12.6135	32.5368
12.432	32.2629
12.2557	31.9091
12.0843	31.6198
11.9176	31.1789
11.7555	30.4352
11.5977	29.4228
11.444	29.4792
11.2944	29.3151
11.1487	28.9313
11.0067	28.3586
10.8682	27.7778
10.7332	27.4897
10.6015	27.2087
10.473	26.8217
10.3476	26.2348
10.2251	25.59
10.1056	24.9535
9.9887	24.4023
9.8746	23.7856
9.763	23.2338
9.6539	23.1135
9.5472	22.8613
9.4429	22.5441
9.3408	22.403
9.2409	22.2512
9.1431	22.1726
9.0474	22.1347
8.9536	21.9067
8.8618	21.8215
8.7718	21.5527
8.6837	21.3427
8.5973	21.1667
8.5126	21.029
8.4295	20.8623
8.3481	20.7585
8.2682	20.653
8.1898	20.4921
8.1129	20.2863
8.0374	20.0573
7.9634	19.7905
7.8906	19.5688
7.8192	19.2897
7.7491	18.999
7.6802	18.7111
7.6126	18.4494
7.5461	18.1909
7.4807	17.906
7.4165	17.6113
7.3534	17.3418
7.2914	17.0324
7.2303	16.6262
7.1703	16.1606
7.1113	15.6328
7.0533	15.3708
6.9962	15.2067
6.94	15.0271
6.8847	15.0654
6.8302	15.1992
6.7767	15.2163
6.7239	15.1965
6.672	15.2192
6.6209	15.1796
6.5705	15.042
6.5209	14.8686
6.4721	14.7209
6.424	14.5329
6.3766	14.3901
6.3299	14.2282
6.2838	14.0461
6.2385	13.6953
6.1937	13.2883
6.1496	13.084
6.1062	13.176
6.0633	13.1831
6.0211	12.9685
5.9794	13.0744
5.9383	13.446
5.8978	13.5442
5.8578	13.4682
5.8184	13.3425
5.7794	13.228
5.741	13.1145
5.7031	13.0053
5.6657	12.865
5.6288	12.7595
5.5924	12.6391
5.5564	12.5236
5.5209	12.4174
5.4859	12.3274
5.4513	12.2248
5.4171	12.1201
5.3833	12.021
5.35	11.924
5.3171	11.8357
5.2846	11.7392
5.2524	11.6567
5.2207	11.551
5.1893	11.4778
5.1584	11.3681
5.1277	11.3064
5.0975	11.2038
5.0676	11.123
5.038	11.0422
5.0088	10.9516
4.98	10.8728
4.9514	10.7885
4.9232	10.7155
4.8953	10.6384
4.8678	10.5456
4.8405	10.4909
4.8135	10.4055
4.7868	10.3401
4.7605	10.2915
4.7344	10.1985
4.7086	10.1374
4.6831	10.0727
4.6578	9.9873
4.6328	9.935
4.6081	9.8645
4.5837	9.7998
4.5595	9.7241
4.5356	9.6704
4.5119	9.612
4.4884	9.551
4.4652	9.5029
4.4423	9.4416
4.4196	9.3813
4.3971	9.3252
4.3748	9.2761
4.3528	9.2136
4.331	9.1401
4.3094	9.0952
4.288	9.0483
4.2668	8.9724
4.2458	8.9316
4.2251	8.8694
4.2045	8.8515
4.1841	8.7895
4.164	8.7246
4.144	8.6902
4.1242	8.6318
4.1046	8.594
4.0852	8.5093
4.066	8.4741
4.047	8.4231
4.0281	8.3899
4.0094	8.3218
3.9909	8.2861
3.9725	8.2556
3.9544	8.2107
3.9363	8.1389
3.9185	8.1172
3.9008	8.0818
3.8833	8.039
3.8659	7.9834
3.8487	7.9426
3.8316	7.906
3.8147	7.8659
3.7979	7.8293
3.7813	7.7654
3.7648	7.7419
3.7485	7.718
3.7323	7.6672
3.7162	7.6255
3.7003	7.5913
3.6845	7.5561
3.6689	7.5144
3.6534	7.4773
3.638	7.4504
3.6227	7.394
3.6076	7.3542
3.5926	7.3213
3.5777	7.2932
3.563	7.2514
3.5484	7.2141
3.5338	7.1833
3.5195	7.1452
3.5052	7.1235
3.491	7.1035
3.477	7.0403
3.463	7.0327
3.4492	7.0041
3.4355	6.9551
3.4219	6.956
3.4084	6.9148
3.395	6.8847
3.3817	6.8535
3.3685	6.8132
3.3554	6.7788
3.3425	6.7392
3.3296	6.7168
3.3168	6.6579
3.3041	6.6335
3.2915	6.6213
3.279	6.5859
3.2666	6.5442
3.2543	6.5024
3.2421	6.487
3.23	6.4321
3.218	6.3931
3.206	6.3586
3.1942	6.3376
3.1824	6.2861
3.1707	6.2654
3.1591	6.2143
3.1476	6.1894
3.1362	6.1526
3.1249	6.125
3.1136	6.0725
3.1024	6.091
3.0913	6.06
3.0803	6.0232
3.0694	5.9912
3.0585	5.9883
3.0477	5.9538
3.037	5.9119
3.0264	5.8945
3.0158	5.854
3.0053	5.8093
2.9949	5.7671
2.9845	5.7114
2.9743	5.6733
2.9641	5.5854
2.9539	5.5239
2.9439	5.4844
2.9339	5.4331
2.9239	5.3894
2.9141	5.3628
2.9043	5.3542
2.8946	5.3804
2.8849	5.4228
2.8753	5.439
2.8658	5.4712
2.8563	5.4834
2.8469	5.5151
2.8375	5.5176
2.8282	5.5124
2.819	5.543
2.8098	5.5083
2.8007	5.5351
2.7917	5.542
2.7827	5.5508
2.7738	5.5674
2.7649	5.5588
2.7561	5.5503
2.7473	5.5657
2.7386	5.5859
2.7299	5.5669
2.7213	5.5254
2.7128	5.509
2.7043	5.4712
2.6959	5.498
2.6875	5.4487
2.6791	5.4326
2.6709	5.4272
2.6626	5.4126
2.6545	5.3779
2.6463	5.3677
2.6382	5.3291
2.6302	5.3266
2.6222	5.3174
2.6143	5.2685
2.6064	5.29
2.5986	5.2641
2.5908	5.2444
2.583	5.24
2.5753	5.1904
2.5677	5.1897
2.5601	5.1909
2.5525	5.1462
2.545	5.135
2.5375	5.1206
2.5301	5.1311
2.5227	5.0981
2.5154	5.0803
2.5081	5.0769
2.5008	5.051
2.4936	5.0217
2.4864	5.0295
2.4793	5.0144
2.4722	4.9897
2.4651	4.9692
2.4581	4.9592
2.4511	4.9575
2.4442	4.9612
2.4373	4.9465
2.4305	4.9194
2.4236	4.9184
2.4169	4.8989
2.4101	4.8608
2.4034	4.8838
2.3967	4.8577
2.3901	4.8596
2.3835	4.8245
2.377	4.7842
2.3704	4.8105
2.364	4.7754
2.3575	4.7971
2.3511	4.7637
2.3447	4.7256
2.3384	4.7844
2.3321	4.7073
2.3258	4.7405
2.3195	4.7522
2.3133	4.6787
2.3071	4.6704
2.301	4.6904
2.2949	4.6282
2.2888	4.6753
2.2828	4.6731
2.2767	4.5742
2.2708	4.6145
2.2648	4.5937
2.2589	4.5576
2.253	4.6055
2.2471	4.5754
2.2413	4.5803
2.2355	4.54
2.2297	4.5588
2.224	4.5703
2.2183	4.553
2.2126	4.5557
2.207	4.4944
2.2013	4.5735
2.1957	4.543
2.1902	4.4912
2.1846	4.4985
2.1791	4.4385
2.1736	4.4717
2.1682	4.4883
2.1628	4.4497
2.1574	4.397
2.152	4.4009
2.1466	4.4331
2.1413	4.435
2.136	4.3828
2.1308	4.3735
2.1255	4.3652
2.1203	4.4272
2.1151	4.3696
2.11	4.352
2.1048	4.3618
2.0997	4.3081
2.0946	4.3306
2.0895	4.3706
2.0845	4.3291
2.0795	4.3286
