Name: Calcite CaCO_3
Type: Mineral
Class: Carbonate
Subclass: None
Particle Size: Medium
Sample No.: C-3D
Owner: JPL
Wavelength Range: VSWIR
Origin: United Kingdom, England
Description: Particle size was 45-125um.Collected by Ward's Original ASTER Spectral Library name was jpl.beckman.mineral.carbonate.none.medium.c03d.spectrum.txt
Measurement: Hemispherical reflectance
X Units: Wavelength (micrometers)
Y Units: Reflectance (percent)
wavelength	value
0.4	51.31
0.403	51.77
0.406	52.68
0.409	53.02
0.412	53.59
0.415	54.11
0.418	54.57
0.421	55.08
0.424	55.31
0.427	56.1
0.43	56.28
0.433	56.91
0.436	57.26
0.439	57.65
0.442	58.17
0.445	58.4
0.448	58.86
0.451	58.96
0.454	59.49
0.457	59.67
0.46	60.07
0.463	60.53
0.466	60.99
0.469	61.05
0.472	61.68
0.475	61.75
0.478	62.21
0.481	62.33
0.484	62.84
0.487	62.96
0.49	63.03
0.493	63.78
0.496	63.6
0.499	64.18
0.502	64.35
0.505	64.81
0.508	65.1
0.511	65.44
0.514	65.78
0.517	65.84
0.52	66.36
0.523	66.42
0.526	66.88
0.529	66.88
0.532	67.15
0.535	67.56
0.538	67.5
0.541	68.02
0.544	68.02
0.547	68.31
0.55	68.81
0.553	68.81
0.556	69.33
0.559	69.28
0.562	69.56
0.565	69.97
0.568	70.02
0.571	70.02
0.574	70.25
0.577	70.2
0.58	70.71
0.583	70.42
0.586	70.82
0.589	70.99
0.592	71.28
0.595	71.45
0.598	71.51
0.601	72.03
0.604	71.86
0.607	72.31
0.61	72.19
0.613	72.31
0.616	72.6
0.619	72.54
0.622	72.94
0.625	72.88
0.628	73.35
0.631	73.23
0.634	73.58
0.637	73.63
0.64	73.63
0.643	74.14
0.646	73.97
0.649	74.31
0.652	74.49
0.655	74.37
0.658	74.83
0.661	74.72
0.664	75.06
0.667	75.01
0.67	75.29
0.673	75.46
0.676	75.57
0.679	75.8
0.682	75.63
0.685	76.38
0.688	76.09
0.691	76.38
0.694	76.44
0.697	76.49
0.7	76.61
0.703	77.01
0.706	76.61
0.709	77.17
0.712	77.12
0.715	77.46
0.718	77.75
0.721	77.58
0.724	77.98
0.727	77.81
0.73	78.04
0.733	78.15
0.736	78.15
0.739	78.61
0.742	78.38
0.745	78.78
0.748	78.72
0.751	78.72
0.754	78.89
0.757	79.01
0.76	79.35
0.763	79.01
0.766	79.41
0.769	79.3
0.772	79.47
0.775	79.76
0.778	79.53
0.781	79.99
0.784	79.76
0.787	79.99
0.79	79.93
0.793	80.28
0.796	80.5
0.799	80.5
0.808	80.73
0.82	81.01
0.832	81.36
0.844	81.65
0.856	81.88
0.868	82.1
0.88	82.04
0.892	82.21
0.904	82.44
0.916	82.67
0.928	82.73
0.94	82.79
0.952	83.19
0.964	83.02
0.976	83.19
0.988	83.31
1	83.42
1.012	83.65
1.024	83.65
1.036	83.76
1.048	83.7
1.06	83.7
1.072	83.93
1.084	83.93
1.096	83.93
1.108	83.93
1.12	83.99
1.132	84.16
1.144	84.16
1.156	84.27
1.168	84.36
1.18	84.4
1.192	84.44
1.204	84.37
1.216	84.48
1.228	84.42
1.24	84.53
1.252	84.53
1.264	84.57
1.276	84.61
1.288	84.69
1.3	84.68
1.312	84.84
1.324	84.63
1.336	84.68
1.348	84.65
1.36	84.54
1.372	84.42
1.384	84.36
1.396	83.8
1.408	83.41
1.42	83.32
1.432	83.33
1.444	83.24
1.456	83.54
1.468	83.6
1.48	83.82
1.492	83.99
1.504	84.17
1.516	84.17
1.528	84.45
1.54	84.63
1.552	84.57
1.564	84.68
1.576	84.74
1.588	84.74
1.6	84.8
1.612	84.78
1.624	84.63
1.636	84.57
1.648	84.71
1.66	84.75
1.672	84.68
1.684	84.65
1.696	84.74
1.708	84.51
1.72	84.46
1.732	84.46
1.744	84.34
1.756	84.23
1.768	84.4
1.78	84.34
1.792	84.34
1.804	84.43
1.816	84.29
1.828	83.86
1.84	83.67
1.852	83.26
1.864	82.49
1.876	81.28
1.888	80.41
1.9	79.14
1.912	78.11
1.924	77.81
1.936	77.9
1.948	77.99
1.96	78.23
1.972	78.45
1.984	78.96
1.996	79.35
2.008	80.05
2.02	80.72
2.032	81.16
2.044	81.42
2.056	81.5
2.068	81.84
2.08	81.91
2.092	82.14
2.104	82.32
2.116	82.39
2.128	82.1
2.14	81.96
2.152	81.74
2.164	81.7
2.176	81.73
2.188	81.56
2.2	81.49
2.212	80.82
2.224	80.39
2.236	79.88
2.248	79.07
2.26	77.81
2.272	76
2.284	74.38
2.296	72.56
2.308	70.94
2.32	69.34
2.332	68.55
2.344	69.75
2.356	72.82
2.368	75.9
2.38	77.43
2.392	77.8
2.404	77.4
2.416	76.55
2.428	75.42
2.44	73.7
2.452	71.46
2.464	68.89
2.476	66.27
2.488	63.77
2.5	69.5
