Name: Nepheline (Na,K)AlSiO4
Type: Mineral
Class: Silicate
Subclass: Tectosilicate
Particle Size: Fine
Sample No.: nephel_2
Owner: JHU
Wavelength Range: TIR
Origin: Brevig, Norway via Norma Vergo
Description: The hand sample was a massive chunk of unusually dark gray nepheline, weighing 15 g.  Under the microscope, the sample appeared to be almost entirely pure nepheline, although many grains showed fluid inclusions.  Particle size was Less than 2 Micrometers.(Framework Silicates); (Feldspathoid Group) Original ASTER Spectral Library name was jhu.nicolet.mineral.silicate.tectosilicate.powder.nephel2.spectrum.txt
Measurement: Tansmission
X Units: Wavelength (micrometers)
Y Units: Transmittance (percent)
wavelength	value
25.0442	75.0623
24.3388	71.1287
23.6719	69.0662
23.0407	65.9764
22.4422	55.703
21.8741	42.6972
21.334	28.9335
20.8199	41.0663
20.33	61.867
19.8627	62.8016
19.4163	59.0565
18.9896	74.1443
18.5812	83.4724
18.19	91.867
17.815	95.2781
17.4551	95.5671
17.1094	95.9499
16.7772	97.1384
16.4576	96.864
16.15	96.0369
15.8537	94.8064
15.568	93.5857
15.2925	90.1892
15.0265	83.908
14.7697	73.5413
14.5214	60.8402
14.2814	55.785
14.0492	58.6131
13.8244	67.1195
13.6067	77.3362
13.3957	83.803
13.1912	88.7302
12.9929	91.0408
12.8004	93.2537
12.6135	94.4885
12.432	94.3342
12.2557	93.198
12.0843	91.5447
11.9176	89.3259
11.7555	86.6814
11.5977	83.7132
11.444	80.4436
11.2944	76.5213
11.1487	71.6082
11.0067	65.4754
10.8682	59.6336
10.7332	53.7909
10.6015	45.5043
10.473	34.4345
10.3476	24.707
10.2251	18.1084
10.1056	15.4526
9.9887	15.2006
9.8746	17.687
9.763	21.6699
9.6539	24.7187
9.5472	27.6586
9.4429	33.6894
9.3408	37.1601
9.2409	38.7055
9.1431	39.8539
9.0474	45.4725
8.9536	51.2225
8.8618	56.3065
8.7718	61.1566
8.6837	65.5184
8.5973	69.4717
8.5126	72.8272
8.4295	75.8428
8.3481	78.407
8.2682	80.545
8.1898	82.2
8.1129	83.4971
8.0374	84.597
7.9634	85.5635
7.8906	86.387
7.8192	87.1013
7.7491	87.7588
7.6802	88.3545
7.6126	88.928
7.5461	89.4404
7.4807	89.8877
7.4165	90.2852
7.3534	90.6074
7.2914	90.9011
7.2303	91.1814
7.1703	91.4246
7.1113	91.6804
7.0533	91.9375
6.9962	92.2996
6.94	92.624
6.8847	92.8074
6.8302	92.9495
6.7767	93.0586
6.7239	93.2195
6.672	93.3672
6.6209	93.5525
6.5705	93.7607
6.5209	94.0789
6.4721	94.3184
6.424	94.4949
6.3766	94.6631
6.3299	94.739
6.2838	94.8811
6.2385	95.1189
6.1937	95.5303
6.1496	95.6062
6.1062	95.1318
6.0633	95.3279
6.0211	95.3125
5.9794	95.2937
5.9383	95.3059
5.8978	95.5046
5.8578	95.7529
5.8184	95.9324
5.7794	96.123
5.741	96.2229
5.7031	96.3115
5.6657	96.4275
5.6288	96.5281
5.5924	96.6299
5.5564	96.7019
5.5209	96.7969
5.4859	96.915
5.4513	97.009
5.4171	97.0979
5.3833	97.196
5.35	97.2947
5.3171	97.4011
5.2846	97.4978
5.2524	97.5945
5.2207	97.6238
5.1893	97.6326
5.1584	97.6462
5.1277	97.6296
5.0975	97.6521
5.0676	97.7126
5.038	97.7922
5.0088	97.8533
4.98	97.9158
4.9514	97.9363
4.9232	97.9426
4.8953	97.9697
4.8678	97.9714
4.8405	98.0134
4.8135	98.0391
4.7868	98.0749
4.7605	98.1211
4.7344	98.1658
4.7086	98.2119
4.6831	98.2126
4.6578	98.2646
4.6328	98.2978
4.6081	98.3415
4.5837	98.374
4.5595	98.4182
4.5356	98.4177
4.5119	98.4475
4.4884	98.4617
4.4652	98.4665
4.4423	98.5076
4.4196	98.5203
4.3971	98.553
4.3748	98.5652
4.3528	98.5906
4.331	98.5818
4.3094	98.574
4.288	98.6081
4.2668	98.6101
4.2458	98.6057
4.2251	98.6047
4.2045	98.6189
4.1841	98.6096
4.164	98.613
4.144	98.6247
4.1242	98.6345
4.1046	98.6716
4.0852	98.6623
4.066	98.6706
4.047	98.6838
4.0281	98.7278
4.0094	98.7097
3.9909	98.7322
3.9725	98.739
3.9544	98.7502
3.9363	98.7449
3.9185	98.7668
3.9008	98.7375
3.8833	98.7502
3.8659	98.7146
3.8487	98.7405
3.8316	98.7014
3.8147	98.7234
3.7979	98.7248
3.7813	98.7009
3.7648	98.6912
3.7485	98.6487
3.7323	98.697
3.7162	98.6716
3.7003	98.6824
3.6845	98.6819
3.6689	98.6658
3.6534	98.654
3.638	98.658
3.6227	98.6584
3.6076	98.676
3.5926	98.6487
3.5777	98.6584
3.563	98.6081
3.5484	98.6238
3.5338	98.5862
3.5195	98.5569
3.5052	98.4734
3.491	98.4924
3.477	98.4197
3.463	98.4158
3.4492	98.344
3.4355	98.3557
3.4219	98.3127
3.4084	98.2712
3.395	98.2888
3.3817	98.3108
3.3685	98.3083
3.3554	98.2639
3.3425	98.322
3.3296	98.3108
3.3168	98.3054
3.3041	98.2576
3.2915	98.2888
3.279	98.2385
3.2666	98.2717
3.2543	98.1975
3.2421	98.199
3.23	98.1409
3.218	98.1565
3.206	98.1038
3.1942	98.1228
3.1824	98.072
3.1707	98.094
3.1591	98.0745
3.1476	98.1291
3.1362	98.1267
3.1249	98.1872
3.1136	98.1912
3.1024	98.2898
3.0913	98.2898
3.0803	98.3425
3.0694	98.4099
3.0585	98.4011
3.0477	98.4363
3.037	98.49
3.0264	98.5544
3.0158	98.6892
3.0053	98.8904
2.9949	99.1462
2.9845	99.5369
2.9743	99.8992
2.9641	100.324
2.9539	100.762
2.9439	101.126
2.9339	101.421
2.9239	101.761
2.9141	101.777
2.9043	101.785
2.8946	101.628
2.8849	101.486
2.8753	101.167
2.8658	101.015
2.8563	100.875
2.8469	100.771
2.8375	100.429
2.8282	100.074
2.819	99.7312
2.8098	99.5447
2.8007	99.3572
2.7917	99.2693
2.7827	99.1247
2.7738	98.8718
2.7649	98.6482
2.7561	98.6101
2.7473	98.8513
2.7386	98.9177
2.7299	99.1492
2.7213	99.2204
2.7128	99.2927
2.7043	99.0124
2.6959	98.906
2.6875	98.8318
2.6791	98.8015
2.6709	98.6833
2.6626	98.6951
2.6545	98.657
2.6463	98.7009
2.6382	98.5945
2.6302	98.5818
2.6222	98.5515
2.6143	98.5622
2.6064	98.5398
2.5986	98.5945
2.5908	98.4744
2.583	98.4294
2.5753	98.3787
2.5677	98.4568
2.5601	98.4509
2.5525	98.4851
2.545	98.2888
2.5375	98.3884
2.5301	98.406
2.5227	98.3494
2.5154	98.3337
2.5081	98.2849
2.5008	98.2205
2.4936	98.2029
2.4864	98.2068
2.4793	98.1658
2.4722	98.1482
2.4651	98.0837
2.4581	98.1736
2.4511	98.1736
2.4442	98.1247
2.4373	98.1736
2.4305	98.0642
2.4236	98.1091
2.4169	98.1208
2.4101	97.9372
2.4034	98.0525
2.3967	97.9646
2.3901	98.0115
2.3835	98.0154
2.377	97.908
2.3704	97.9392
2.364	97.9314
2.3575	98.0349
2.3511	97.949
2.3447	97.9607
2.3384	97.9216
2.3321	97.9314
2.3258	97.9548
2.3195	97.9294
2.3133	97.9001
2.3071	97.8787
2.301	97.9021
2.2949	97.9939
2.2888	97.9294
2.2828	97.9548
2.2767	97.9939
2.2708	97.9997
2.2648	98.0642
2.2589	98.0173
2.253	97.9451
2.2471	97.9548
2.2413	97.9548
2.2355	98.0173
2.2297	98.1111
2.224	98.1501
2.2183	98.0935
2.2126	98.0486
2.207	98.1892
2.2013	98.2185
2.1957	98.156
2.1902	98.1501
2.1846	98.1814
2.1791	98.0642
2.1736	98.2673
2.1682	98.2341
2.1628	98.2888
2.1574	98.2224
2.152	98.3083
2.1466	98.3083
2.1413	98.3826
2.136	98.3044
2.1308	98.3943
2.1255	98.3904
2.1203	98.2966
2.1151	98.5271
2.11	98.4333
2.1048	98.363
2.0997	98.5622
2.0946	98.4724
2.0895	98.5701
2.0845	98.4294
2.0795	98.5974
