Name: Illite (K,H3O)(Al,Mg,Fe)2(Si,Al)4O10[(OH)2,H2O]
Type: Mineral
Class: Silicate
Subclass: Phyllosilicate
Particle Size: Coarse
Sample No.: illite_1
Owner: JHU
Wavelength Range: TIR
Origin: Silver Hill, Montana via Clay Mineral Society, Source ClayMineral Repository #IMT-1.
Description: The sample was a greenish, earthy clay.  The bulk sample contained quartz and illite/smectite, but the 2 micrometers particle-size separate is pure illite/smectite, with 95% illite layers.(Sheet Silicates); (MicaGroup)Particle size was 0-2 micrometers, but packed powder simulates coarse. Original ASTER Spectral Library name was jhu.nicolet.mineral.silicate.phyllosilicate.packed.illite1.spectrum.txt
Measurement: Bidirectional reflectance
X Units: Wavelength (micrometers)
Y Units: Reflectance (percent)
wavelength	value
25.0442	7.5586
24.3388	7.4736
23.6719	7.893
23.0407	7.7412
22.4422	7.5107
21.8741	7.7939
21.334	8.8449
20.8199	9.4531
20.33	8.6294
19.8627	8.1404
19.4163	8.3325
18.9896	9.0815
18.5812	10.053
18.19	10.5852
17.815	10.7275
17.4551	10.3142
17.1094	9.1589
16.7772	7.0867
16.4576	4.916
16.15	3.6448
15.8537	3.0359
15.568	2.7095
15.2925	2.7195
15.0265	2.8245
14.7697	2.957
14.5214	2.9602
14.2814	3.0107
14.0492	3.0535
13.8244	3.2095
13.6067	3.3369
13.3957	3.3694
13.1912	3.3535
12.9929	3.4233
12.8004	3.5557
12.6135	3.6374
12.432	3.6555
12.2557	3.666
12.0843	3.6345
11.9176	3.637
11.7555	3.7646
11.5977	3.8454
11.444	3.8413
11.2944	3.8655
11.1487	3.895
11.0067	3.8923
10.8682	3.8044
10.7332	3.8039
10.6015	3.8701
10.473	3.9817
10.3476	4.1318
10.2251	4.3503
10.1056	4.6599
9.9887	5.0134
9.8746	5.439
9.763	5.9573
9.6539	6.8569
9.5472	7.9624
9.4429	8.6235
9.3408	8.5097
9.2409	8.2898
9.1431	8.7458
9.0474	9.3459
8.9536	9.8178
8.8618	10.4253
8.7718	10.563
8.6837	9.6906
8.5973	8.28
8.5126	6.4695
8.4295	4.0388
8.3481	1.7568
8.2682	0.6768
8.1898	0.6548
8.1129	0.8516
8.0374	1.0674
7.9634	1.2932
7.8906	1.4978
7.8192	1.7258
7.7491	1.9287
7.6802	2.1206
7.6126	2.3061
7.5461	2.4634
7.4807	2.626
7.4165	2.7507
7.3534	2.8801
7.2914	2.99
7.2303	3.0854
7.1703	3.1272
7.1113	3.064
7.0533	3.0454
6.9962	3.1348
6.94	3.3076
6.8847	3.5002
6.8302	3.6792
6.7767	3.8325
6.7239	4.0144
6.672	4.189
6.6209	4.331
6.5705	4.4431
6.5209	4.5261
6.4721	4.5854
6.424	4.6025
6.3766	4.5608
6.3299	4.4477
6.2838	4.2353
6.2385	3.937
6.1937	3.5869
6.1496	3.2075
6.1062	3.1294
6.0633	3.2056
6.0211	3.2844
5.9794	3.4189
5.9383	3.6748
5.8978	3.9495
5.8578	4.2202
5.8184	4.4243
5.7794	4.5244
5.741	4.5981
5.7031	4.6543
5.6657	4.6789
5.6288	4.6887
5.5924	4.6782
5.5564	4.6777
5.5209	4.6882
5.4859	4.719
5.4513	4.792
5.4171	4.9072
5.3833	5.0046
5.35	5.1233
5.3171	5.2561
5.2846	5.3816
5.2524	5.5329
5.2207	5.6733
5.1893	5.844
5.1584	6.0027
5.1277	6.1614
5.0975	6.2991
5.0676	6.4197
5.038	6.5215
5.0088	6.6162
4.98	6.687
4.9514	6.7536
4.9232	6.8049
4.8953	6.8567
4.8678	6.9099
4.8405	6.9531
4.8135	7.0017
4.7868	7.0427
4.7605	7.0871
4.7344	7.1479
4.7086	7.2036
4.6831	7.2624
4.6578	7.3315
4.6328	7.3894
4.6081	7.4531
4.5837	7.5134
4.5595	7.5444
4.5356	7.591
4.5119	7.6257
4.4884	7.6592
4.4652	7.6987
4.4423	7.7429
4.4196	7.7812
4.3971	7.8044
4.3748	7.8213
4.3528	7.8308
4.331	7.8415
4.3094	7.8428
4.288	7.8376
4.2668	7.802
4.2458	7.8528
4.2251	7.8987
4.2045	7.9294
4.1841	7.9326
4.164	7.9367
4.144	7.9634
4.1242	7.9739
4.1046	7.989
4.0852	8.0124
4.066	8.0305
4.047	8.0544
4.0281	8.0554
4.0094	8.0566
3.9909	8.0512
3.9725	8.0478
3.9544	8.0483
3.9363	8.0364
3.9185	8.0398
3.9008	8.0217
3.8833	7.9927
3.8659	7.9568
3.8487	7.9155
3.8316	7.8782
3.8147	7.8388
3.7979	7.7995
3.7813	7.7517
3.7648	7.6933
3.7485	7.6269
3.7323	7.5515
3.7162	7.4961
3.7003	7.4263
3.6845	7.3491
3.6689	7.293
3.6534	7.2329
3.638	7.1665
3.6227	7.0954
3.6076	7.0132
3.5926	6.9402
3.5777	6.8359
3.563	6.7497
3.5484	6.654
3.5338	6.5659
3.5195	6.4685
3.5052	6.3725
3.491	6.3064
3.477	6.2385
3.463	6.1528
3.4492	6.0498
3.4355	5.9387
3.4219	5.8135
3.4084	5.7185
3.395	5.6465
3.3817	5.5432
3.3685	5.4702
3.3554	5.3865
3.3425	5.2922
3.3296	5.2007
3.3168	5.0942
3.3041	5.0085
3.2915	4.9206
3.279	4.8359
3.2666	4.7495
3.2543	4.6521
3.2421	4.5713
3.23	4.4831
3.218	4.3889
3.206	4.3066
3.1942	4.2222
3.1824	4.1426
3.1707	4.0525
3.1591	3.9805
3.1476	3.9067
3.1362	3.8257
3.1249	3.772
3.1136	3.71
3.1024	3.6597
3.0913	3.6265
3.0803	3.6186
3.0694	3.5788
3.0585	3.5776
3.0477	3.5644
3.037	3.5339
3.0264	3.5271
3.0158	3.501
3.0053	3.4783
2.9949	3.4519
2.9845	3.4258
2.9743	3.4082
2.9641	3.3821
2.9539	3.3577
2.9439	3.3369
2.9339	3.3254
2.9239	3.3193
2.9141	3.3359
2.9043	3.3345
2.8946	3.3367
2.8849	3.3396
2.8753	3.3403
2.8658	3.3291
2.8563	3.2834
2.8469	3.1265
2.8375	2.9228
2.8282	2.7175
2.819	2.5317
2.8098	2.3599
2.8007	2.2012
2.7917	2.0251
2.7827	1.8433
2.7738	1.6653
2.7649	1.5652
2.7561	1.5166
2.7473	1.634
2.7386	1.7771
2.7299	2.0337
2.7213	2.5618
2.7128	3.2288
2.7043	3.3269
2.6959	4.4802
2.6875	5.4365
2.6791	6.091
2.6709	6.4973
2.6626	6.7942
2.6545	6.9348
2.6463	7.0036
2.6382	7.0959
2.6302	7.1516
2.6222	7.1545
2.6143	7.1684
2.6064	7.2392
2.5986	7.268
2.5908	7.2815
2.583	7.3528
2.5753	7.3454
2.5677	7.363
2.5601	7.3889
2.5525	7.4006
2.545	7.4155
2.5375	7.4375
2.5301	7.4289
2.5227	7.4219
2.5154	7.4179
2.5081	7.3974
2.5008	7.3755
2.4936	7.3777
2.4864	7.3745
2.4793	7.3772
2.4722	7.3535
2.4651	7.3721
2.4581	7.3647
2.4511	7.3501
2.4442	7.3557
2.4373	7.3794
2.4305	7.3823
2.4236	7.438
2.4169	7.4634
2.4101	7.52
2.4034	7.5166
2.3967	7.5093
2.3901	7.5151
2.3835	7.48
2.377	7.4431
2.3704	7.4521
2.364	7.4292
2.3575	7.4316
2.3511	7.4067
2.3447	7.4321
2.3384	7.4502
2.3321	7.5268
2.3258	7.6011
2.3195	7.6284
2.3133	7.7256
2.3071	7.7431
2.301	7.7409
2.2949	7.8384
2.2888	7.8481
2.2828	7.852
2.2767	7.8496
2.2708	7.79
2.2648	7.7109
2.2589	7.6538
2.253	7.6557
2.2471	7.656
2.2413	7.6511
2.2355	7.6218
2.2297	7.5466
2.224	7.4563
2.2183	7.5044
2.2126	7.4692
2.207	7.4853
2.2013	7.5129
2.1957	7.6203
2.1902	7.6882
2.1846	7.8091
2.1791	7.8974
2.1736	7.9719
2.1682	8.018
2.1628	8.0578
2.1574	8.1116
2.152	8.0908
2.1466	8.1225
2.1413	8.1596
2.136	8.1806
2.1308	8.1645
2.1255	8.1574
2.1203	8.229
2.1151	8.2578
2.11	8.1968
2.1048	8.2199
2.0997	8.2051
2.0946	8.2529
2.0895	8.3066
2.0845	8.2842
2.0795	8.2837
