Name: Galena PbS
Type: Mineral
Class: Sulfide
Subclass: None
Particle Size: Medium
Sample No.: S-7A
Owner: JPL
Wavelength Range: VSWIR
Origin: USA, Kansas, Cherokee County, Galena
Description: Particle size was 45-125um.Collected by Grieger's Inc. Original ASTER Spectral Library name was jpl.beckman.mineral.sulfide.none.medium.s07a.spectrum.txt
Measurement: Hemispherical reflectance
X Units: Wavelength (micrometers)
Y Units: Reflectance (percent)
wavelength	value
0.4	17.05
0.403	16.73
0.406	16.65
0.409	16.57
0.412	16.41
0.415	16.26
0.418	16.21
0.421	16.08
0.424	15.97
0.427	15.86
0.43	15.63
0.433	15.58
0.436	15.47
0.439	15.45
0.442	15.35
0.445	15.17
0.448	15.11
0.451	14.91
0.454	14.95
0.457	14.91
0.46	14.82
0.463	14.67
0.466	14.55
0.469	14.57
0.472	14.4
0.475	14.4
0.478	14.26
0.481	14.19
0.484	14.17
0.487	14.09
0.49	14.01
0.493	13.91
0.496	13.85
0.499	13.81
0.502	13.66
0.505	13.69
0.508	13.64
0.511	13.48
0.514	13.43
0.517	13.4
0.52	13.39
0.523	13.35
0.526	13.2
0.529	13.27
0.532	13.09
0.535	13.1
0.538	13.02
0.541	12.96
0.544	12.96
0.547	12.89
0.55	12.93
0.553	12.82
0.556	12.85
0.559	12.82
0.562	12.92
0.565	12.81
0.568	12.86
0.571	12.83
0.574	12.8
0.577	12.65
0.58	12.68
0.583	12.71
0.586	12.69
0.589	12.66
0.592	12.65
0.595	12.79
0.598	12.67
0.601	12.75
0.604	12.69
0.607	12.69
0.61	12.64
0.613	12.6
0.616	12.65
0.619	12.69
0.622	12.74
0.625	12.72
0.628	12.65
0.631	12.78
0.634	12.81
0.637	12.8
0.64	12.78
0.643	12.77
0.646	12.74
0.649	12.93
0.652	12.88
0.655	12.87
0.658	12.85
0.661	12.85
0.664	12.92
0.667	12.84
0.67	12.93
0.673	12.84
0.676	12.9
0.679	12.84
0.682	12.94
0.685	12.89
0.688	12.82
0.691	12.81
0.694	12.75
0.697	12.88
0.7	12.85
0.703	12.82
0.706	12.75
0.709	12.69
0.712	12.74
0.715	12.78
0.718	12.73
0.721	12.86
0.724	12.71
0.727	12.7
0.73	12.68
0.733	12.77
0.736	12.77
0.739	12.66
0.742	12.67
0.745	12.6
0.748	12.64
0.751	12.53
0.754	12.58
0.757	12.52
0.76	12.59
0.763	12.59
0.766	12.54
0.769	12.58
0.772	12.49
0.775	12.49
0.778	12.47
0.781	12.54
0.784	12.43
0.787	12.43
0.79	12.38
0.793	12.46
0.796	12.41
0.799	12.48
0.808	12.66
0.82	12.61
0.832	12.54
0.844	12.55
0.856	12.42
0.868	12.5
0.88	12.39
0.892	12.32
0.904	12.31
0.916	12.27
0.928	12.17
0.94	12.15
0.952	12.17
0.964	12.11
0.976	12.1
0.988	12.01
1	12.02
1.012	12.06
1.024	11.96
1.036	11.93
1.048	11.93
1.06	11.87
1.072	11.86
1.084	11.88
1.096	11.82
1.108	11.79
1.12	11.81
1.132	11.69
1.144	11.69
1.156	11.66
1.168	11.67
1.18	11.61
1.192	11.67
1.204	11.64
1.216	11.64
1.228	11.61
1.24	11.54
1.252	11.54
1.264	11.55
1.276	11.53
1.288	11.53
1.3	11.53
1.312	11.49
1.324	11.52
1.336	11.5
1.348	11.47
1.36	11.47
1.372	11.48
1.384	11.37
1.396	11.48
1.408	11.41
1.42	11.4
1.432	11.4
1.444	11.39
1.456	11.43
1.468	11.43
1.48	11.37
1.492	11.4
1.504	11.42
1.516	11.39
1.528	11.41
1.54	11.35
1.552	11.44
1.564	11.38
1.576	11.36
1.588	11.38
1.6	11.31
1.612	11.32
1.624	11.33
1.636	11.3
1.648	11.29
1.66	11.28
1.672	11.3
1.684	11.28
1.696	11.33
1.708	11.33
1.72	11.33
1.732	11.29
1.744	11.3
1.756	11.3
1.768	11.22
1.78	11.25
1.792	11.26
1.804	11.32
1.816	11.33
1.828	11.28
1.84	11.27
1.852	11.28
1.864	11.25
1.876	11.22
1.888	11.26
1.9	11.2
1.912	11.26
1.924	11.22
1.936	11.29
1.948	11.26
1.96	11.2
1.972	11.28
1.984	11.3
1.996	11.32
2.008	11.29
2.02	11.3
2.032	11.32
2.044	11.31
2.056	11.33
2.068	11.42
2.08	11.4
2.092	11.36
2.104	11.41
2.116	11.43
2.128	11.49
2.14	11.39
2.152	11.37
2.164	11.4
2.176	11.35
2.188	11.47
2.2	11.46
2.212	11.45
2.224	11.46
2.236	11.46
2.248	11.47
2.26	11.41
2.272	11.48
2.284	11.46
2.296	11.41
2.308	11.38
2.32	11.45
2.332	11.47
2.344	11.5
2.356	11.51
2.368	11.54
2.38	11.54
2.392	11.59
2.404	11.58
2.416	11.58
2.428	11.58
2.44	11.6
2.452	11.63
2.464	11.61
2.476	11.67
2.488	11.66
2.5	11.7
