Name: Montebrasite LiAlPO_4(OH)
Type: Mineral
Class: Phosphate
Subclass: None
Particle Size: Fine
Sample No.: P-2A
Owner: JPL
Wavelength Range: VSWIR
Origin: USA, Couth Dakota, Custer County, Custer
Description: Particle size was 0-45um.Collected by Burminco Original ASTER Spectral Library name was jpl.beckman.mineral.phosphate.none.fine.p02a.spectrum.txt
Measurement: Hemispherical reflectance
X Units: Wavelength (micrometers)
Y Units: Reflectance (percent)
wavelength	value
0.4	62.27
0.403	62.32
0.406	62.38
0.409	62.46
0.412	62.46
0.415	62.52
0.418	62.48
0.421	62.48
0.424	62.57
0.427	62.67
0.43	62.69
0.433	62.75
0.436	62.67
0.439	62.85
0.442	62.85
0.445	62.84
0.448	62.84
0.451	62.79
0.454	62.93
0.457	62.84
0.46	63.03
0.463	62.96
0.466	62.96
0.469	62.89
0.472	63.05
0.475	63.04
0.478	62.95
0.481	63.09
0.484	63.04
0.487	63.16
0.49	63.13
0.493	63.09
0.496	63.17
0.499	63.06
0.502	63.07
0.505	63.19
0.508	63.23
0.511	63.25
0.514	63.17
0.517	63.38
0.52	63.34
0.523	63.34
0.526	63.38
0.529	63.33
0.532	63.42
0.535	63.32
0.538	63.34
0.541	63.4
0.544	63.32
0.547	63.41
0.55	63.45
0.553	63.44
0.556	63.46
0.559	63.43
0.562	63.59
0.565	63.69
0.568	63.71
0.571	63.61
0.574	63.54
0.577	63.42
0.58	63.53
0.583	63.45
0.586	63.41
0.589	63.43
0.592	63.47
0.595	63.55
0.598	63.52
0.601	63.55
0.604	63.52
0.607	63.56
0.61	63.57
0.613	63.67
0.616	63.53
0.619	63.54
0.622	63.45
0.625	63.51
0.628	63.49
0.631	63.48
0.634	63.47
0.637	63.38
0.64	63.53
0.643	63.53
0.646	63.45
0.649	63.45
0.652	63.45
0.655	63.48
0.658	63.53
0.661	63.45
0.664	63.53
0.667	63.38
0.67	63.45
0.673	63.63
0.676	63.36
0.679	63.4
0.682	63.45
0.685	63.49
0.688	63.49
0.691	63.42
0.694	63.36
0.697	63.38
0.7	63.39
0.703	63.39
0.706	63.49
0.709	63.49
0.712	63.49
0.715	63.45
0.718	63.42
0.721	63.34
0.724	63.38
0.727	63.45
0.73	63.4
0.733	63.38
0.736	63.4
0.739	63.38
0.742	63.36
0.745	63.38
0.748	63.32
0.751	63.36
0.754	63.39
0.757	63.4
0.76	63.4
0.763	63.39
0.766	63.3
0.769	63.47
0.772	63.45
0.775	63.38
0.778	63.36
0.781	63.32
0.784	63.43
0.787	63.39
0.79	63.39
0.793	63.39
0.796	63.26
0.799	63.43
0.808	63.64
0.82	63.68
0.832	63.72
0.844	63.72
0.856	63.72
0.868	63.78
0.88	63.7
0.892	63.62
0.904	63.6
0.916	63.66
0.928	63.62
0.94	63.59
0.952	63.56
0.964	63.56
0.976	63.48
0.988	63.46
1	63.45
1.012	63.38
1.024	63.32
1.036	63.44
1.048	63.4
1.06	63.4
1.072	63.34
1.084	63.35
1.096	63.31
1.108	63.44
1.12	63.37
1.132	63.31
1.144	63.22
1.156	63.03
1.168	63.11
1.18	63.04
1.192	63.07
1.204	63.04
1.216	62.98
1.228	62.98
1.24	62.99
1.252	62.97
1.264	62.97
1.276	62.95
1.288	62.92
1.3	62.81
1.312	62.83
1.324	62.83
1.336	62.75
1.348	62.65
1.36	62.65
1.372	62.67
1.384	62.57
1.396	62.51
1.408	62.38
1.42	62.33
1.432	62.34
1.444	62.15
1.456	62.2
1.468	62.08
1.48	62
1.492	61.94
1.504	61.77
1.516	61.54
1.528	61.16
1.54	61.05
1.552	61.46
1.564	61.73
1.576	61.81
1.588	61.83
1.6	61.91
1.612	61.94
1.624	61.93
1.636	61.92
1.648	61.96
1.66	61.93
1.672	61.95
1.684	61.87
1.696	61.85
1.708	61.82
1.72	61.73
1.732	61.5
1.744	61.4
1.756	61.44
1.768	61.4
1.78	61.48
1.792	61.56
1.804	61.53
1.816	61.55
1.828	61.23
1.84	60.6
1.852	60.4
1.864	60.76
1.876	60.86
1.888	60.83
1.9	60.83
1.912	60.77
1.924	60.72
1.936	60.6
1.948	60.58
1.96	60.33
1.972	59.72
1.984	58.36
1.996	57.99
2.008	59.4
2.02	60.24
2.032	60.31
2.044	60.07
2.056	59.94
2.068	59.85
2.08	59.94
2.092	59.97
2.104	59.86
2.116	59.76
2.128	59.36
2.14	58.14
2.152	53.39
2.164	46.48
2.176	44.13
2.188	46.47
2.2	49.86
2.212	52.5
2.224	54.27
2.236	55.49
2.248	56.46
2.26	57.11
2.272	57.59
2.284	58.16
2.296	58.76
2.308	59.28
2.32	59.4
2.332	59.11
2.344	57.26
2.356	52.57
2.368	47.87
2.38	49.05
2.392	53.58
2.404	56.41
2.416	57.43
2.428	57.4
2.44	56.84
2.452	55.89
2.464	54.75
2.476	53.68
2.488	52.98
2.5	52.5
