Name: Saponite (Ca/2,Na)0.33(Mg,Fe+2)3(Si,Al)4O10(OH)2.H2O
Type: Mineral
Class: Silicate
Subclass: Phyllosilicate
Particle Size: Coarse
Sample No.: saponite_1
Owner: JHU
Wavelength Range: TIR
Origin: Ballarat, California, USA via the Hunt and Salisbury Collection#CMS SapCa-1 (purchased from the Clay Mineral Society Repository)
Description: Sample was a cream-colored, earthy clay. The less than 2 micrometers size fraction is saponite with a trace of unknown material with X-ray peaks at 8.6, 3.26 and 3.14 angstroms.  The coarser fraction contains quartz and was discarded.Particle size was 0-2 micrometers and Packed powder simulates coarse.(Sheet silicates); Smectite Group Original ASTER Spectral Library name was jhu.nicolet.mineral.silicate.phyllosilicate.packed.saponi1.spectrum.txt
Measurement: Bidirectional reflectance
X Units: Wavelength (micrometers)
Y Units: Reflectance (percent)
wavelength	value
25.0442	9.8515
24.3388	12.04
23.6719	13.5683
23.0407	15.8518
22.4422	20.2084
21.8741	20.9435
21.334	26.8295
20.8199	28.3749
20.33	27.0575
19.8627	25.895
19.4163	26.3661
18.9896	25.0456
18.5812	19.5095
18.19	17.4414
17.815	12.9914
17.4551	6.6714
17.1094	2.2368
16.7772	1.123
16.4576	1.5205
16.15	2.0498
15.8537	2.6445
15.568	3.448
15.2925	4.7964
15.0265	5.2815
14.7697	3.6931
14.5214	2.759
14.2814	1.7661
14.0492	1.4434
13.8244	1.6934
13.6067	2.0459
13.3957	2.3374
13.1912	2.6162
12.9929	2.8564
12.8004	3.0312
12.6135	3.2234
12.432	3.4746
12.2557	3.782
12.0843	4.1912
11.9176	4.4929
11.7555	4.6677
11.5977	4.8652
11.444	5.1616
11.2944	5.4302
11.1487	5.6138
11.0067	5.832
10.8682	6.1438
10.7332	6.604
10.6015	7.3159
10.473	8.2053
10.3476	9.3896
10.2251	10.9111
10.1056	12.8108
9.9887	15.2524
9.8746	18.2238
9.763	21.2819
9.6539	23.0969
9.5472	22.2663
9.4429	20.1372
9.3408	16.0188
9.2409	13.7268
9.1431	12.7395
9.0474	12.5249
8.9536	12.3069
8.8618	12.1338
8.7718	11.5822
8.6837	9.8991
8.5973	7.1313
8.5126	4.4678
8.4295	2.4722
8.3481	1.2715
8.2682	0.698
8.1898	0.5759
8.1129	0.6279
8.0374	0.7449
7.9634	0.8909
7.8906	1.0371
7.8192	1.2014
7.7491	1.3674
7.6802	1.5295
7.6126	1.675
7.5461	1.8064
7.4807	1.9304
7.4165	2.0613
7.3534	2.1782
7.2914	2.301
7.2303	2.4307
7.1703	2.5552
7.1113	2.6731
7.0533	2.772
6.9962	2.8904
6.94	3.0373
6.8847	3.1697
6.8302	3.322
6.7767	3.4934
6.7239	3.6706
6.672	3.8142
6.6209	3.9153
6.5705	4.0007
6.5209	4.0535
6.4721	4.0737
6.424	4.0398
6.3766	3.9199
6.3299	3.688
6.2838	3.3271
6.2385	2.8809
6.1937	2.5034
6.1496	2.342
6.1062	2.4111
6.0633	2.5842
6.0211	2.8115
5.9794	3.0561
5.9383	3.3184
5.8978	3.5864
5.8578	3.8205
5.8184	3.9809
5.7794	4.0486
5.741	4.0618
5.7031	4.0674
5.6657	4.0776
5.6288	4.1157
5.5924	4.1858
5.5564	4.2783
5.5209	4.3977
5.4859	4.5144
5.4513	4.6133
5.4171	4.6863
5.3833	4.7331
5.35	4.7671
5.3171	4.8049
5.2846	4.8371
5.2524	4.8774
5.2207	4.9734
5.1893	5.1589
5.1584	5.4563
5.1277	5.7641
5.0975	6.039
5.0676	6.2073
5.038	6.2834
5.0088	6.323
4.98	6.3413
4.9514	6.3642
4.9232	6.3943
4.8953	6.4241
4.8678	6.4692
4.8405	6.5215
4.8135	6.5823
4.7868	6.6394
4.7605	6.7117
4.7344	6.79
4.7086	6.8735
4.6831	6.9722
4.6578	7.0674
4.6328	7.1545
4.6081	7.2427
4.5837	7.3222
4.5595	7.3874
4.5356	7.4492
4.5119	7.5061
4.4884	7.5683
4.4652	7.6296
4.4423	7.6858
4.4196	7.7402
4.3971	7.7929
4.3748	7.8423
4.3528	7.8874
4.331	7.9319
4.3094	7.9841
4.288	8.0227
4.2668	8.0718
4.2458	8.1286
4.2251	8.1904
4.2045	8.2407
4.1841	8.3
4.164	8.3506
4.144	8.3945
4.1242	8.448
4.1046	8.5002
4.0852	8.5537
4.066	8.6013
4.047	8.6543
4.0281	8.7073
4.0094	8.7368
3.9909	8.772
3.9725	8.7888
3.9544	8.8274
3.9363	8.8452
3.9185	8.8691
3.9008	8.8757
3.8833	8.8716
3.8659	8.8728
3.8487	8.8579
3.8316	8.8491
3.8147	8.8271
3.7979	8.8059
3.7813	8.7785
3.7648	8.7539
3.7485	8.7158
3.7323	8.6799
3.7162	8.6328
3.7003	8.5781
3.6845	8.5232
3.6689	8.4826
3.6534	8.4297
3.638	8.3891
3.6227	8.3235
3.6076	8.26
3.5926	8.1838
3.5777	8.1096
3.563	8.0293
3.5484	7.9243
3.5338	7.8157
3.5195	7.6797
3.5052	7.541
3.491	7.4504
3.477	7.3327
3.463	7.24
3.4492	7.1186
3.4355	6.9724
3.4219	6.8005
3.4084	6.6806
3.395	6.5747
3.3817	6.4297
3.3685	6.31
3.3554	6.1785
3.3425	6.0449
3.3296	5.9336
3.3168	5.7998
3.3041	5.664
3.2915	5.5393
3.279	5.4348
3.2666	5.3454
3.2543	5.2219
3.2421	5.0979
3.23	4.9729
3.218	4.8359
3.206	4.7048
3.1942	4.5735
3.1824	4.4343
3.1707	4.3071
3.1591	4.1938
3.1476	4.0837
3.1362	3.9773
3.1249	3.8862
3.1136	3.8091
3.1024	3.7471
3.0913	3.7192
3.0803	3.6838
3.0694	3.6475
3.0585	3.6106
3.0477	3.5698
3.037	3.5251
3.0264	3.4717
3.0158	3.4075
3.0053	3.365
2.9949	3.3127
2.9845	3.2869
2.9743	3.2468
2.9641	3.2161
2.9539	3.1963
2.9439	3.1792
2.9339	3.1631
2.9239	3.1655
2.9141	3.1567
2.9043	3.1416
2.8946	3.144
2.8849	3.1389
2.8753	3.1482
2.8658	3.1267
2.8563	3.1235
2.8469	3.1152
2.8375	3.0864
2.8282	3.0688
2.819	3.0344
2.8098	3.0205
2.8007	2.9717
2.7917	2.9531
2.7827	2.9536
2.7738	2.9683
2.7649	2.9626
2.7561	2.9465
2.7473	2.978
2.7386	3.0005
2.7299	2.9214
2.7213	2.5908
2.7128	2.8638
2.7043	3.969
2.6959	4.6255
2.6875	5.0874
2.6791	5.7527
2.6709	6.4424
2.6626	6.9717
2.6545	7.2793
2.6463	7.4929
2.6382	7.6245
2.6302	7.7529
2.6222	7.8567
2.6143	7.9072
2.6064	7.9482
2.5986	7.9624
2.5908	8.0178
2.583	8.0288
2.5753	8.0679
2.5677	8.0674
2.5601	8.1367
2.5525	8.1743
2.545	8.2549
2.5375	8.2822
2.5301	8.3232
2.5227	8.3432
2.5154	8.3816
2.5081	8.4809
2.5008	8.5002
2.4936	8.5256
2.4864	8.5718
2.4793	8.5952
2.4722	8.5229
2.4651	8.5073
2.4581	8.5449
2.4511	8.6379
2.4442	8.686
2.4373	8.7258
2.4305	8.7473
2.4236	8.8215
2.4169	8.9848
2.4101	9.0307
2.4034	8.8843
2.3967	8.5547
2.3901	8.4184
2.3835	8.522
2.377	8.769
2.3704	9.0815
2.364	9.2846
2.3575	9.3489
2.3511	9.4292
2.3447	9.4856
2.3384	9.3784
2.3321	9.062
2.3258	8.5334
2.3195	7.8574
2.3133	7.4599
2.3071	8.0581
2.301	8.6301
2.2949	8.4814
2.2888	8.6789
2.2828	9.2756
2.2767	9.7842
2.2708	10.0097
2.2648	10.1684
2.2589	10.3095
2.253	10.3784
2.2471	10.3967
2.2413	10.4218
2.2355	10.459
2.2297	10.4895
2.224	10.5029
2.2183	10.5569
2.2126	10.583
2.207	10.5979
2.2013	10.6047
2.1957	10.6147
2.1902	10.6211
2.1846	10.6758
2.1791	10.6494
2.1736	10.675
2.1682	10.7102
2.1628	10.7141
2.1574	10.7248
2.152	10.7339
2.1466	10.6924
2.1413	10.7163
2.136	10.706
2.1308	10.7295
2.1255	10.7236
2.1203	10.6801
2.1151	10.7549
2.11	10.7553
2.1048	10.749
2.0997	10.7802
2.0946	10.7705
2.0895	10.8066
2.0845	10.8193
2.0795	10.8047
