Name: Leucite KAlSi2O6
Type: Mineral
Class: Silicate
Subclass: Tectosilicate
Particle Size: Coarse
Sample No.: leucite_1
Owner: JHU
Wavelength Range: TIR
Origin: Lake Latium, Italy via the Smithsonian (sample no. NMNHB18734)
Description: The sample was a single small crystal, 1 cm in diameter and weighing 1.25 g.  It had good crystal faces and no impurities or alterations were apparent in hand sample or under the microscope.  It did contain what appeared to be fluid inclusions. Particle size was 75-250 micrometers.(Framework Silicates); (Feldspathoid Group) Original ASTER Spectral Library name was jhu.nicolet.mineral.silicate.tectosilicate.coarse.leucit1.spectrum.txt
Measurement: Bidirectional reflectance
X Units: Wavelength (micrometers)
Y Units: Reflectance (percent)
wavelength	value
25.0442	3.6904
24.3388	4.009
23.6719	4.3479
23.0407	5.3306
22.4422	5.3003
21.8741	4.1055
21.334	3.1186
20.8199	2.5703
20.33	1.7502
19.8627	1.2476
19.4163	1.6011
18.9896	1.6697
18.5812	1.8254
18.19	1.5547
17.815	1.8481
17.4551	2.0449
17.1094	2.0615
16.7772	2.147
16.4576	2.1321
16.15	2.1802
15.8537	2.3667
15.568	2.1455
15.2925	2.051
15.0265	2.2168
14.7697	2.3704
14.5214	2.5019
14.2814	2.6438
14.0492	2.7768
13.8244	2.6252
13.6067	2.4477
13.3957	2.293
13.1912	2.1804
12.9929	2.0332
12.8004	1.7644
12.6135	1.553
12.432	1.6643
12.2557	1.8503
12.0843	1.9846
11.9176	2.1716
11.7555	2.3308
11.5977	2.4004
11.444	2.5229
11.2944	2.5898
11.1487	2.6824
11.0067	2.8389
10.8682	3.0388
10.7332	3.3581
10.6015	3.956
10.473	4.4839
10.3476	4.6731
10.2251	4.6814
10.1056	4.8769
9.9887	5.0447
9.8746	5.2783
9.763	5.7576
9.6539	6.2585
9.5472	6.6179
9.4429	7.0571
9.3408	7.2698
9.2409	6.4768
9.1431	5.7431
9.0474	5.6457
8.9536	5.7729
8.8618	5.8293
8.7718	5.8093
8.6837	5.7412
8.5973	5.6208
8.5126	5.3205
8.4295	4.4233
8.3481	3.1377
8.2682	1.7932
8.1898	0.7134
8.1129	0.2515
8.0374	0.2915
7.9634	0.3933
7.8906	0.5112
7.8192	0.6187
7.7491	0.7371
7.6802	0.8462
7.6126	0.9775
7.5461	1.0913
7.4807	1.1963
7.4165	1.3113
7.3534	1.4187
7.2914	1.5132
7.2303	1.5925
7.1703	1.6567
7.1113	1.7173
7.0533	1.7463
6.9962	1.7756
6.94	1.793
6.8847	1.7915
6.8302	1.7744
6.7767	1.7649
6.7239	1.772
6.672	1.7959
6.6209	1.8457
6.5705	1.8989
6.5209	1.959
6.4721	1.9595
6.424	1.9421
6.3766	1.9045
6.3299	1.8813
6.2838	1.8877
6.2385	1.9026
6.1937	1.9094
6.1496	1.8855
6.1062	1.9155
6.0633	2.0078
6.0211	2.0876
5.9794	2.106
5.9383	2.0767
5.8978	2.0288
5.8578	1.9846
5.8184	1.925
5.7794	1.907
5.741	1.9072
5.7031	1.9311
5.6657	1.979
5.6288	2.0586
5.5924	2.1697
5.5564	2.2961
5.5209	2.4387
5.4859	2.5911
5.4513	2.74
5.4171	2.8997
5.3833	3.1006
5.35	3.344
5.3171	3.6597
5.2846	3.9895
5.2524	4.3149
5.2207	4.6055
5.1893	4.8147
5.1584	5.0156
5.1277	5.187
5.0975	5.282
5.0676	5.2959
5.038	5.3103
5.0088	5.3303
4.98	5.352
4.9514	5.3728
4.9232	5.3999
4.8953	5.4346
4.8678	5.5344
4.8405	5.6836
4.8135	5.8733
4.7868	6.0725
4.7605	6.2724
4.7344	6.4543
4.7086	6.624
4.6831	6.8435
4.6578	7.0881
4.6328	7.4143
4.6081	7.7837
4.5837	8.1679
4.5595	8.5493
4.5356	8.8979
4.5119	9.2524
4.4884	9.5769
4.4652	9.8618
4.4423	10.1538
4.4196	10.4785
4.3971	10.8071
4.3748	11.1545
4.3528	11.4821
4.331	11.7632
4.3094	12.0178
4.288	12.2321
4.2668	12.3965
4.2458	12.5075
4.2251	12.6089
4.2045	12.676
4.1841	12.7275
4.164	12.7605
4.144	12.8071
4.1242	12.8342
4.1046	12.8847
4.0852	12.9289
4.066	12.9787
4.047	13.0136
4.0281	13.049
4.0094	13.0942
3.9909	13.1252
3.9725	13.1552
3.9544	13.219
3.9363	13.2583
3.9185	13.3093
3.9008	13.3525
3.8833	13.3903
3.8659	13.4004
3.8487	13.4355
3.8316	13.4565
3.8147	13.4878
3.7979	13.4892
3.7813	13.4912
3.7648	13.499
3.7485	13.5036
3.7323	13.509
3.7162	13.5078
3.7003	13.4753
3.6845	13.4687
3.6689	13.4375
3.6534	13.4511
3.638	13.4184
3.6227	13.3903
3.6076	13.3625
3.5926	13.3291
3.5777	13.3161
3.563	13.2927
3.5484	13.2475
3.5338	13.2072
3.5195	13.1706
3.5052	13.1159
3.491	13.0864
3.477	13.0556
3.463	13.0222
3.4492	12.9721
3.4355	12.9196
3.4219	12.8569
3.4084	12.8166
3.395	12.7915
3.3817	12.7514
3.3685	12.7404
3.3554	12.6943
3.3425	12.6545
3.3296	12.6098
3.3168	12.5512
3.3041	12.5122
3.2915	12.4533
3.279	12.3972
3.2666	12.321
3.2543	12.2453
3.2421	12.1755
3.23	12.0722
3.218	11.998
3.206	11.8999
3.1942	11.8047
3.1824	11.6894
3.1707	11.5691
3.1591	11.4277
3.1476	11.279
3.1362	11.0844
3.1249	10.9033
3.1136	10.7185
3.1024	10.5061
3.0913	10.3254
3.0803	10.1906
3.0694	10.1223
3.0585	10.0598
3.0477	9.9753
3.037	9.8957
3.0264	9.7925
3.0158	9.6657
3.0053	9.5061
2.9949	9.3764
2.9845	9.1987
2.9743	9.0351
2.9641	8.8447
2.9539	8.7175
2.9439	8.5481
2.9339	8.4316
2.9239	8.3235
2.9141	8.2261
2.9043	8.1396
2.8946	8.0666
2.8849	8.0122
2.8753	7.9407
2.8658	7.896
2.8563	7.8613
2.8469	7.8298
2.8375	7.8039
2.8282	7.7749
2.819	7.7698
2.8098	7.7385
2.8007	7.6015
2.7917	7.3835
2.7827	7.1987
2.7738	7.156
2.7649	7.3647
2.7561	7.9636
2.7473	8.7964
2.7386	9.4839
2.7299	10.0395
2.7213	10.7881
2.7128	11.5678
2.7043	12.0024
2.6959	12.456
2.6875	12.8425
2.6791	13.0395
2.6709	13.1596
2.6626	13.3376
2.6545	13.3569
2.6463	13.4116
2.6382	13.4353
2.6302	13.4179
2.6222	13.4892
2.6143	13.4887
2.6064	13.4284
2.5986	13.4834
2.5908	13.4555
2.583	13.4333
2.5753	13.4665
2.5677	13.4233
2.5601	13.3772
2.5525	13.3567
2.545	13.3134
2.5375	13.2871
2.5301	13.2675
2.5227	13.2622
2.5154	13.2429
2.5081	13.2168
2.5008	13.2314
2.4936	13.1716
2.4864	13.1831
2.4793	13.1704
2.4722	13.144
2.4651	13.1479
2.4581	13.1611
2.4511	13.1777
2.4442	13.1909
2.4373	13.2382
2.4305	13.2258
2.4236	13.2971
2.4169	13.2868
2.4101	13.353
2.4034	13.3694
2.3967	13.2932
2.3901	13.3191
2.3835	13.3239
2.377	13.3669
2.3704	13.3571
2.364	13.341
2.3575	13.3454
2.3511	13.3364
2.3447	13.3064
2.3384	13.2754
2.3321	13.3044
2.3258	13.3042
2.3195	13.2475
2.3133	13.2483
2.3071	13.2553
2.301	13.2404
2.2949	13.2854
2.2888	13.2258
2.2828	13.1884
2.2767	13.2111
2.2708	13.25
2.2648	13.2397
2.2589	13.25
2.253	13.1782
2.2471	13.1919
2.2413	13.1604
2.2355	13.2512
2.2297	13.2199
2.224	13.1972
2.2183	13.208
2.2126	13.2014
2.207	13.1528
2.2013	13.1631
2.1957	13.1584
2.1902	13.1894
2.1846	13.1711
2.1791	13.2004
2.1736	13.1718
2.1682	13.2285
2.1628	13.2446
2.1574	13.2773
2.152	13.2414
2.1466	13.2343
2.1413	13.2114
2.136	13.3012
2.1308	13.2512
2.1255	13.3139
2.1203	13.3296
2.1151	13.3567
2.11	13.3423
2.1048	13.3547
2.0997	13.3867
2.0946	13.3889
2.0895	13.3681
2.0845	13.4238
2.0795	13.3899
