Name: Dolomite CaMg(CO3)2
Type: Mineral
Class: Carbonate
Subclass: None
Particle Size: Coarse
Sample No.: dolomite_3
Owner: JHU
Wavelength Range: TIR
Origin: Donated by Norma Vergo;  sample from Corydon, Indiana.
Description: The hand sample was massive, multicrystalline, and pink in color and appeared to be pure dolomite. Microscopic examination confirmed this. Particle size was 74-250 Micrometers. Original ASTER Spectral Library name was jhu.nicolet.mineral.carbonate.none.coarse.dolomi3.spectrum.txt
Measurement: Bidirectional reflectance
X Units: Wavelength (micrometers)
Y Units: Reflectance (percent)
wavelength	value
25.0442	6.0718
24.3388	6.0276
23.6719	5.6079
23.0407	4.7705
22.4422	3.477
21.8741	2.1096
21.334	0.9436
20.8199	0.3928
20.33	0.2898
19.8627	0.2798
19.4163	0.3245
18.9896	0.3767
18.5812	0.4424
18.19	0.5395
17.815	0.5859
17.4551	0.7087
17.1094	0.7881
16.7772	0.9043
16.4576	1.1074
16.15	1.2781
15.8537	1.3015
15.568	1.2205
15.2925	1.2903
15.0265	1.4307
14.7697	1.5647
14.5214	1.6233
14.2814	1.5127
14.0492	1.1882
13.8244	1.0505
13.6067	0.6353
13.3957	1.4499
13.1912	2.5347
12.9929	3.2954
12.8004	3.5522
12.6135	3.75
12.432	3.8271
12.2557	3.7717
12.0843	3.5793
11.9176	3.177
11.7555	1.7441
11.5977	1.7956
11.444	1.5154
11.2944	3.3594
11.1487	5.3909
11.0067	3.1609
10.8682	2.541
10.7332	2.6182
10.6015	2.6728
10.473	2.7991
10.3476	2.7944
10.2251	2.6921
10.1056	2.5706
9.9887	2.5669
9.8746	2.4949
9.763	2.2393
9.6539	2.0994
9.5472	2.279
9.4429	2.3396
9.3408	2.011
9.2409	1.9819
9.1431	1.6604
9.0474	1.7156
8.9536	1.8252
8.8618	1.7422
8.7718	1.6714
8.6837	1.5915
8.5973	1.5605
8.5126	1.4006
8.4295	1.2849
8.3481	1.3494
8.2682	1.4272
8.1898	1.3293
8.1129	1.2815
8.0374	1.3274
7.9634	1.3564
7.8906	1.3874
7.8192	1.3857
7.7491	1.3486
7.6802	1.3691
7.6126	1.4258
7.5461	1.4561
7.4807	1.4773
7.4165	1.5486
7.3534	1.6226
7.2914	1.7168
7.2303	1.8535
7.1703	2.071
7.1113	2.406
7.0533	3.1257
6.9962	3.8144
6.94	3.8884
6.8847	4.012
6.8302	4.2302
6.7767	4.4543
6.7239	4.7187
6.672	5.1216
6.6209	5.8945
6.5705	6.5776
6.5209	7.0742
6.4721	7.5205
6.424	7.7668
6.3766	7.3603
6.3299	4.7231
6.2838	3.2534
6.2385	2.3806
6.1937	1.9216
6.1496	1.3767
6.1062	0.7568
6.0633	0.3643
6.0211	0.2568
5.9794	0.2986
5.9383	0.3542
5.8978	0.426
5.8578	0.4836
5.8184	0.5286
5.7794	0.5706
5.741	0.5989
5.7031	0.6528
5.6657	0.6589
5.6288	0.6206
5.5924	0.5747
5.5564	0.4985
5.5209	0.4287
5.4859	0.4133
5.4513	0.6902
5.4171	1.3616
5.3833	1.9853
5.35	2.4487
5.3171	2.7446
5.2846	3.1392
5.2524	3.6943
5.2207	4.2165
5.1893	4.625
5.1584	5.0378
5.1277	5.3244
5.0975	5.4717
5.0676	4.5632
5.038	5.7097
5.0088	6.2305
4.98	6.3743
4.9514	6.4668
4.9232	6.5466
4.8953	6.6062
4.8678	6.6489
4.8405	6.647
4.8135	6.6233
4.7868	6.5769
4.7605	6.501
4.7344	6.3179
4.7086	5.8928
4.6831	5.0107
4.6578	3.6892
4.6328	3.3188
4.6081	3.3498
4.5837	3.9438
4.5595	4.5168
4.5356	4.9155
4.5119	5.3584
4.4884	5.9202
4.4652	5.552
4.4423	5.0683
4.4196	5.3625
4.3971	5.9595
4.3748	6.4431
4.3528	6.5967
4.331	5.8464
4.3094	5.5588
4.288	5.4834
4.2668	5.6601
4.2458	5.803
4.2251	5.8337
4.2045	6.0447
4.1841	6.0276
4.164	5.7385
4.144	5.4282
4.1242	5.3545
4.1046	5.1396
4.0852	4.7422
4.066	4.1521
4.047	3.4202
4.0281	2.5474
4.0094	1.636
3.9909	1.0378
3.9725	0.719
3.9544	0.6826
3.9363	0.6929
3.9185	0.7129
3.9008	0.8403
3.8833	0.9055
3.8659	0.989
3.8487	1.4258
3.8316	1.4311
3.8147	1.0688
3.7979	1.0623
3.7813	1.4487
3.7648	2.1194
3.7485	3.4387
3.7323	4.6941
3.7162	5.2261
3.7003	5.6462
3.6845	6.06
3.6689	6.2812
3.6534	6.4092
3.638	6.4739
3.6227	6.4692
3.6076	6.4172
3.5926	6.3362
3.5777	6.1514
3.563	5.572
3.5484	4.561
3.5338	4.5222
3.5195	3.4319
3.5052	2.0522
3.491	1.2148
3.477	0.981
3.463	0.8853
3.4492	0.8401
3.4355	0.9951
3.4219	1.1716
3.4084	1.2446
3.395	1.3386
3.3817	1.4998
3.3685	1.4722
3.3554	1.2549
3.3425	1.1416
3.3296	1.1455
3.3168	1.0376
3.3041	1.083
3.2915	2.4321
3.279	3.5793
3.2666	4.2016
3.2543	4.6548
3.2421	4.9888
3.23	5.2429
3.218	5.4084
3.206	5.5476
3.1942	5.6084
3.1824	5.6504
3.1707	5.6775
3.1591	5.6199
3.1476	5.3562
3.1362	5.1709
3.1249	5.1245
3.1136	5.072
3.1024	5.0195
3.0913	4.8664
3.0803	4.811
3.0694	4.918
3.0585	5.021
3.0477	5.0566
3.037	5.072
3.0264	5.1794
3.0158	5.279
3.0053	5.3298
2.9949	5.3142
2.9845	5.2842
2.9743	5.2917
2.9641	5.2822
2.9539	5.2873
2.9439	5.2712
2.9339	5.2783
2.9239	5.2888
2.9141	5.3203
2.9043	5.352
2.8946	5.3952
2.8849	5.4409
2.8753	5.5117
2.8658	5.5686
2.8563	5.5784
2.8469	5.615
2.8375	5.8066
2.8282	5.8992
2.819	5.9707
2.8098	5.991
2.8007	5.9494
2.7917	5.8467
2.7827	5.6743
2.7738	5.4292
2.7649	5.5229
2.7561	5.8835
2.7473	6.2844
2.7386	6.7375
2.7299	7.1577
2.7213	7.4807
2.7128	7.8567
2.7043	8.1184
2.6959	8.1941
2.6875	8.2817
2.6791	8.5395
2.6709	8.7449
2.6626	8.9072
2.6545	9.0508
2.6463	9.1135
2.6382	9.1394
2.6302	9.1618
2.6222	9.1865
2.6143	9.2033
2.6064	9.2097
2.5986	9.2053
2.5908	9.1684
2.583	9.1189
2.5753	9.008
2.5677	8.8574
2.5601	8.6936
2.5525	8.4419
2.545	7.9206
2.5375	7.2131
2.5301	6.6147
2.5227	6.2595
2.5154	6.1225
2.5081	6.2195
2.5008	6.3994
2.4936	6.5801
2.4864	6.855
2.4793	7.0679
2.4722	7.1482
2.4651	7.2058
2.4581	7.3042
2.4511	7.4861
2.4442	7.7788
2.4373	8.0444
2.4305	8.2512
2.4236	8.4641
2.4169	8.6335
2.4101	8.7375
2.4034	8.7986
2.3967	8.8745
2.3901	8.9475
2.3835	8.9697
2.377	9.062
2.3704	9.074
2.364	9.0434
2.3575	8.9585
2.3511	8.695
2.3447	8.3125
2.3384	7.9226
2.3321	7.5825
2.3258	7.3869
2.3195	7.3706
2.3133	7.4514
2.3071	7.5527
2.301	7.6518
2.2949	7.7956
2.2888	7.9031
2.2828	7.9631
2.2767	8.0036
2.2708	8.0635
2.2648	8.1889
2.2589	8.3533
2.253	8.5337
2.2471	8.6706
2.2413	8.8215
2.2355	8.906
2.2297	8.9699
2.224	9.02
2.2183	9.0942
2.2126	9.1516
2.207	9.2121
2.2013	9.2651
2.1957	9.3337
2.1902	9.4026
2.1846	9.4109
2.1791	9.4331
2.1736	9.4336
2.1682	9.4533
2.1628	9.4482
2.1574	9.4043
2.152	9.4316
2.1466	9.438
2.1413	9.4165
2.136	9.424
2.1308	9.4665
2.1255	9.4887
2.1203	9.5041
2.1151	9.5569
2.11	9.6003
2.1048	9.6609
2.0997	9.6867
2.0946	9.7026
2.0895	9.7361
2.0845	9.7573
2.0795	9.7932
