Name: Kaolinite Al2Si2O5(OH)4
Type: Mineral
Class: Silicate
Subclass: Phyllosilicate
Particle Size: Fine
Sample No.: kaolinite_3
Owner: JHU
Wavelength Range: TIR
Origin: Washington Co., Georgia via Hunt and Salisbury Collection#CMS KGA-1 (purchased from Clay Mineral Society Repository)
Description: White, earthy clay. The <2 um separate is pure, well-crystallized kaolinite.  The bulk sample is slightly contaminated with anatase. Particle size was less than 2 micrometers.(Chain Silicates); (Serpentine/Kaoline Group) Original ASTER Spectral Library name was jhu.nicolet.mineral.silicate.phyllosilicate.fine.kaolin3t.spectrum.txt
Measurement: Transmission
X Units: Wavelength (micrometers)
Y Units: Transmittance (percent)
wavelength	value
25.0442	76.1639
24.3388	59.1717
23.6719	48.7538
23.0407	42.3456
22.4422	61.1346
21.8741	52.6014
21.334	20.1503
20.8199	41.664
20.33	65.5252
19.8627	63.9373
19.4163	55.0741
18.9896	29.9335
18.5812	13.5664
18.19	20.3769
17.815	34.3407
17.4551	47.7284
17.1094	55.742
16.7772	60.868
16.4576	64.3641
16.15	69.9569
15.8537	71.66
15.568	70.4852
15.2925	69.5067
15.0265	68.077
14.7697	64.202
14.5214	56.953
14.2814	53.1922
14.0492	69.1737
13.8244	78.781
13.6067	78.9593
13.3957	73.3909
13.1912	71.9139
12.9929	77.4378
12.8004	77.4666
12.6135	75.7757
12.432	81.2073
12.2557	86.5974
12.0843	88.0217
11.9176	88.2049
11.7555	87.4925
11.5977	85.8245
11.444	81.9959
11.2944	77.4183
11.1487	66.055
11.0067	38.8222
10.8682	37.432
10.7332	50.3016
10.6015	55.3876
10.473	70.0067
10.3476	73.1238
10.2251	68.2342
10.1056	49.5096
9.9887	16.25
9.8746	9.7842
9.763	13.8169
9.6539	5.5571
9.5472	19.7978
9.4429	36.5429
9.3408	42.6312
9.2409	38.2206
9.1431	27.7988
9.0474	21.3769
8.9536	27.9887
8.8618	54.3124
8.7718	68.1082
8.6837	75.1995
8.5973	79.4534
8.5126	82.7957
8.4295	85.2713
8.3481	87.2842
8.2682	88.9629
8.1898	90.2676
8.1129	91.3181
8.0374	92.1433
7.9634	92.7383
7.8906	93.2117
7.8192	93.5488
7.7491	93.874
7.6802	94.1628
7.6126	94.4392
7.5461	94.7207
7.4807	94.9724
7.4165	95.1492
7.3534	95.3669
7.2914	95.5684
7.2303	95.5195
7.1703	95.2625
7.1113	95.4304
7.0533	95.8337
6.9962	95.9871
6.94	95.9258
6.8847	95.9189
6.8302	95.8623
6.7767	95.9246
6.7239	96.1472
6.672	96.2273
6.6209	96.2881
6.5705	96.1562
6.5209	96.3289
6.4721	96.1804
6.424	96.0857
6.3766	96.0828
6.3299	95.8538
6.2838	95.6775
6.2385	95.4226
6.1937	95.1531
6.1496	95.0498
6.1062	94.8904
6.0633	94.7922
6.0211	94.5332
5.9794	94.4177
5.9383	95.2527
5.8978	96.0388
5.8578	96.3767
5.8184	96.3123
5.7794	96.5068
5.741	96.7031
5.7031	96.9023
5.6657	96.9832
5.6288	97.0623
5.5924	97.0478
5.5564	97.1016
5.5209	96.9119
5.4859	96.7119
5.4513	96.8494
5.4171	96.9463
5.3833	97.0608
5.35	97.2253
5.3171	97.4001
5.2846	97.3425
5.2524	97.2371
5.2207	97.1992
5.1893	97.2129
5.1584	97.3171
5.1277	97.3379
5.0975	97.5154
5.0676	97.7156
5.038	97.9089
5.0088	98.0496
4.98	98.2405
4.9514	98.2532
4.9232	98.2556
4.8953	98.3215
4.8678	98.4822
4.8405	98.5427
4.8135	98.4831
4.7868	98.5579
4.7605	98.6101
4.7344	98.6033
4.7086	98.6042
4.6831	98.5608
4.6578	98.5437
4.6328	98.655
4.6081	98.6858
4.5837	98.7439
4.5595	98.7429
4.5356	98.7605
4.5119	98.76
4.4884	98.8201
4.4652	98.821
4.4423	98.823
4.4196	98.7956
4.3971	98.8215
4.3748	98.9299
4.3528	98.8264
4.331	98.8591
4.3094	98.7917
4.288	98.8269
4.2668	98.8357
4.2458	98.8904
4.2251	98.8874
4.2045	98.8889
4.1841	98.844
4.164	98.8821
4.144	98.9587
4.1242	98.8205
4.1046	98.8928
4.0852	98.8967
4.066	98.8904
4.047	98.946
4.0281	98.9724
4.0094	99.0002
3.9909	98.8674
3.9725	98.9089
3.9544	99.0339
3.9363	98.9812
3.9185	99.0998
3.9008	99.0295
3.8833	99.0056
3.8659	99.031
3.8487	99.137
3.8316	99.0373
3.8147	99.0007
3.7979	99.115
3.7813	99.0354
3.7648	99.0334
3.7485	99.0027
3.7323	98.9026
3.7162	99.0056
3.7003	98.8498
3.6845	98.969
3.6689	98.8122
3.6534	98.842
3.638	98.9138
3.6227	98.781
3.6076	98.7483
3.5926	98.6931
3.5777	98.6741
3.563	98.6453
3.5484	98.5447
3.5338	98.5974
3.5195	98.6872
3.5052	98.6482
3.491	98.5935
3.477	98.4841
3.463	98.4421
3.4492	98.4861
3.4355	98.4358
3.4219	98.5017
3.4084	98.2087
3.395	98.0569
3.3817	97.7463
3.3685	97.6584
3.3554	97.4514
3.3425	97.1897
3.3296	97.1565
3.3168	96.9163
3.3041	96.8513
3.2915	96.7366
3.279	96.6384
3.2666	96.4988
3.2543	96.2624
3.2421	96.2058
3.23	95.949
3.218	95.7947
3.206	95.6208
3.1942	95.3611
3.1824	95.3767
3.1707	95.1365
3.1591	95.0242
3.1476	94.8318
3.1362	94.7351
3.1249	94.6697
3.1136	94.6091
3.1024	94.572
3.0913	94.5525
3.0803	94.5828
3.0694	94.657
3.0585	94.5359
3.0477	94.5359
3.037	94.4275
3.0264	94.2791
3.0158	94.1687
3.0053	94.0584
2.9949	94.0857
2.9845	94.1873
2.9743	94.2439
2.9641	94.4421
2.9539	94.6326
2.9439	94.656
2.9339	94.6882
2.9239	94.3806
2.9141	93.7927
2.9043	93.7351
2.8946	93.7429
2.8849	93.45
2.8753	93.0076
2.8658	92.9255
2.8563	92.8826
2.8469	92.6687
2.8375	92.2224
2.8282	91.7039
2.819	90.9998
2.8098	90.2507
2.8007	89.1834
2.7917	87.8318
2.7827	84.9969
2.7738	80.7859
2.7649	60.6131
2.7561	62.4588
2.7473	69.2352
2.7386	60.3592
2.7299	64.2508
2.7213	65.786
2.7128	55.7001
2.7043	29.6288
2.6959	64.2713
2.6875	85.4959
2.6791	92.0398
2.6709	94.657
2.6626	95.8669
2.6545	96.7146
2.6463	97.2039
2.6382	97.6345
2.6302	97.8337
2.6222	98.1306
2.6143	98.2283
2.6064	98.113
2.5986	98.697
2.5908	98.8162
2.583	98.8181
2.5753	98.8572
2.5677	98.8083
2.5601	99.0818
2.5525	98.9841
2.545	99.0876
2.5375	99.1169
2.5301	99.3162
2.5227	98.9216
2.5154	99.199
2.5081	99.1951
2.5008	99.4216
2.4936	99.3708
2.4864	99.4451
2.4793	99.572
2.4722	99.5037
2.4651	99.7693
2.4581	99.6814
2.4511	99.574
2.4442	99.6521
2.4373	99.8201
2.4305	99.7986
2.4236	99.6247
2.4169	99.8923
2.4101	100.089
2.4034	99.8357
2.3967	99.9001
2.3901	99.7146
2.3835	100.062
2.377	99.9412
2.3704	100.07
2.364	100.384
2.3575	99.6716
2.3511	100.054
2.3447	99.9079
2.3384	100.103
2.3321	100.251
2.3258	100.259
2.3195	100.095
2.3133	100.484
2.3071	100.249
2.301	100.281
2.2949	100.275
2.2888	100.648
2.2828	100.259
2.2767	100.376
2.2708	100.534
2.2648	100.574
2.2589	100.577
2.253	100.769
2.2471	100.429
2.2413	100.449
2.2355	100.636
2.2297	100.581
2.224	100.183
2.2183	100.351
2.2126	100.07
2.207	99.7029
2.2013	100.769
2.1957	100.734
2.1902	100.597
2.1846	100.484
2.1791	100.249
2.1736	101.163
2.1682	100.46
2.1628	101.023
2.1574	99.8318
2.152	100.894
2.1466	100.898
2.1413	100.628
2.136	100.722
2.1308	101.128
2.1255	100.695
2.1203	101.034
2.1151	100.894
2.11	99.7419
2.1048	101.265
2.0997	101.101
2.0946	100.831
2.0895	100.851
2.0845	101.456
2.0795	100.695
