Name: Rhodonite (Mn,Ca)SiO_3
Type: Mineral
Class: Silicate
Subclass: Inosilicate
Particle Size: Coarse
Sample No.: IN-1A
Owner: JPL
Wavelength Range: VSWIR
Origin: USA, California, Fresno County.
Description: Particle size was 125-500um.Collected by:  Burminco Original ASTER Spectral Library name was jpl.perkin.mineral.silicate.inosilicate.coarse.in01a.spectrum.txt
Measurement: Hemispherical reflectance
X Units: Wavelength (micrometers)
Y Units: Reflectance (percent)
wavelength	value
2.5	40.0152
2.494	39.751
2.488	39.6523
2.482	39.5316
2.476	39.5092
2.47	39.6291
2.464	39.6048
2.458	39.6149
2.452	39.6272
2.446	39.5535
2.44	39.4265
2.434	39.374
2.428	39.3749
2.422	39.2824
2.416	39.231
2.41	39.2086
2.404	39.1304
2.398	39.1073
2.392	39.0523
2.386	38.9339
2.38	38.9491
2.374	38.8827
2.368	38.7183
2.362	38.6658
2.356	38.6059
2.35	38.5878
2.344	38.5625
2.338	38.5371
2.332	38.5275
2.326	38.5188
2.32	38.4998
2.314	38.4828
2.308	38.4779
2.302	38.479
2.296	38.4011
2.29	38.4286
2.284	38.3918
2.278	38.4054
2.272	38.4101
2.266	38.4425
2.26	38.4343
2.254	38.508
2.248	38.5359
2.242	38.518
2.236	38.5378
2.23	38.5872
2.224	38.6474
2.218	38.7511
2.212	38.9426
2.206	38.8999
2.2	39.0324
2.194	39.1064
2.188	39.2601
2.182	39.3185
2.176	39.4351
2.17	39.5864
2.164	39.6119
2.158	39.7976
2.152	39.9667
2.146	40.1172
2.14	40.1382
2.134	40.1392
2.128	40.2017
2.122	40.2103
2.116	40.2152
2.11	40.1741
2.104	40.187
2.098	40.2522
2.092	40.3455
2.086	40.5069
2.08	40.6944
2.074	40.8015
2.068	40.9702
2.062	41.169
2.056	41.2985
2.05	41.4554
2.044	41.6253
2.038	41.7851
2.032	41.9258
2.026	42.0492
2.02	42.1662
2.014	42.3176
2.008	42.4009
2.002	42.5076
1.996	42.6718
1.99	42.647
1.984	42.6951
1.978	42.843
1.972	42.9237
1.966	43.0537
1.96	43.06
1.954	43.1561
1.948	43.1723
1.942	43.3253
1.936	43.3736
1.93	43.5017
1.924	43.6153
1.918	43.8555
1.912	43.9939
1.906	44.3672
1.9	44.9561
1.894	45.6642
1.888	46.1579
1.882	46.617
1.876	46.8588
1.87	47.1279
1.864	47.4035
1.858	47.5297
1.852	47.6685
1.846	47.7889
1.84	47.8856
1.834	47.9282
1.828	47.9911
1.822	48.0441
1.816	48.1019
1.81	48.1489
1.804	48.1394
1.798	48.1883
1.792	48.1827
1.786	48.1495
1.78	48.134
1.774	48.0777
1.768	47.9949
1.762	47.9932
1.756	47.9159
1.75	47.8848
1.744	47.7843
1.738	47.6629
1.732	47.5928
1.726	47.5254
1.72	47.4083
1.714	47.2753
1.708	47.0521
1.702	46.9237
1.696	46.8187
1.69	46.679
1.684	46.5156
1.678	46.3214
1.672	46.2178
1.666	46.0215
1.66	45.9057
1.654	45.6885
1.648	45.4927
1.642	45.4128
1.636	45.2053
1.63	45.0146
1.624	44.9096
1.618	44.7283
1.612	44.5406
1.606	44.3803
1.6	44.3331
1.594	44.2251
1.588	44.0296
1.582	43.953
1.576	43.8363
1.57	43.7133
1.564	43.557
1.558	43.5024
1.552	43.3589
1.546	43.2691
1.54	43.2023
1.534	43.034
1.528	43.0654
1.522	42.9173
1.516	42.8517
1.51	42.865
1.504	42.7726
1.498	42.7102
1.492	42.646
1.486	42.6304
1.48	42.5582
1.474	42.5274
1.468	42.4429
1.462	42.4719
1.456	42.3969
1.45	42.3821
1.444	42.3368
1.438	42.2323
1.432	42.1663
1.426	42.0965
1.42	42.0026
1.414	41.8684
1.408	41.8746
1.402	41.9064
1.396	41.9911
1.39	41.9484
1.384	41.8834
1.378	41.736
1.372	41.4956
1.366	41.3331
1.36	41.0813
1.354	40.8608
1.348	40.4714
1.342	40.0871
1.336	39.7433
1.33	39.3021
1.324	38.9122
1.318	38.4378
1.312	38.0102
1.306	37.4444
1.3	36.8748
1.294	36.2234
1.288	35.6896
1.282	35.0613
1.276	34.2946
1.27	33.6487
1.264	32.9384
1.258	32.2174
1.252	31.4804
1.246	30.729
1.24	29.9832
1.234	29.2162
1.228	28.472
1.222	27.7168
1.216	26.9243
1.21	26.281
1.204	25.5153
1.198	24.8124
1.192	24.0901
1.186	23.4312
1.18	22.7007
1.174	22.0893
1.168	21.4404
1.162	20.8197
1.156	20.2189
1.15	19.6002
1.144	19.0854
1.138	18.5723
1.132	18.0187
1.126	17.5183
1.12	17.044
1.114	16.611
1.108	16.1978
1.102	15.7706
1.096	15.4369
1.09	15.1695
1.084	14.8034
1.078	14.6675
1.072	14.3538
1.066	14.214
1.06	14.077
1.054	14.0454
1.048	13.9277
1.042	14.0296
1.036	13.9984
1.03	14.1387
1.024	14.2942
1.018	14.4333
1.012	14.7176
1.006	15.0574
1	15.4204
0.994	15.8111
0.988	16.2642
0.982	16.7813
0.976	17.422
0.97	18.0138
0.964	18.7579
0.958	19.5345
0.952	20.3907
0.946	21.3169
0.94	22.3545
0.934	23.4047
0.928	24.5711
0.922	25.8504
0.916	27.0672
0.91	28.4201
0.904	29.77
0.898	31.1968
0.892	32.5891
0.886	34.0594
0.88	35.5035
0.874	36.9297
0.868	38.3883
0.862	39.7526
0.856	41.7667
0.85	43.1043
0.844	44.4164
0.838	45.5881
0.832	46.5963
0.826	47.56
0.82	48.3835
0.814	49.0617
0.808	49.6762
0.802	50.162
0.796	50.5074
0.79	50.7906
0.784	51.0162
0.778	51.1002
0.772	51.1333
0.766	51.1441
0.76	51.0626
0.754	50.9565
0.748	50.83
0.742	50.6426
0.736	50.4652
0.73	50.2554
0.724	50.0875
0.718	49.8515
0.712	49.6277
0.706	49.4062
0.7	49.1781
0.694	48.8948
0.688	48.6207
0.682	48.3251
0.676	48.0027
0.67	47.6315
0.664	47.238
0.658	46.8285
0.652	46.3618
0.646	45.8739
0.64	45.3491
0.634	44.7679
0.628	44.1352
0.622	43.412
0.616	42.5785
0.61	41.6064
0.604	40.466
0.598	39.1288
0.592	37.5881
0.586	35.8735
0.58	34.0503
0.574	32.1875
0.568	30.3499
0.562	28.6788
0.556	27.262
0.55	26.1958
0.544	25.5345
0.538	25.2786
0.532	25.3316
0.526	25.6177
0.52	26.0359
0.514	26.4728
0.508	26.8243
0.502	27.0041
0.496	27.196
0.49	27.0784
0.484	26.7263
0.478	26.3129
0.472	25.8573
0.466	25.2565
0.46	24.5236
0.454	23.9802
0.448	23.4933
0.442	22.6409
0.436	21.585
0.43	20.5559
0.424	19.8072
0.418	18.4699
0.412	16.7739
0.406	18.4223
0.4	21.0915
