Name: Quartz SiO_2
Type: Mineral
Class: Silicate
Subclass: Tectosilicate
Particle Size: Coarse
Sample No.: TS-1D
Owner: JPL
Wavelength Range: TIR
Origin: USA, Coloradi, Buffalo
Description: Milky quartz. Particle size was 125-500um.Collected by Ward's Original ASTER Spectral Library name was jpl.nicolet.mineral.silicate.tectosilicate.coarse.ts01d.spectrum.txt
Measurement: Hemispherical reflectance
X Units: Wavelength (micrometers)
Y Units: Reflectance (percent)
wavelength	value
15.3853	3.8902
15.1161	3.7256
14.8563	4.0853
14.6052	4.2577
14.3624	4.5249
14.1276	3.3538
13.9004	4.3047
13.6803	4.6825
13.4671	5.1312
13.2604	6.0658
13.06	7.5614
12.8656	12.9367
12.6769	10.2128
12.4936	12.4691
12.3155	1.3671
12.1425	1.589
11.9742	2.7376
11.8106	3.2994
11.6513	3.9462
11.4963	4.365
11.3454	4.4813
11.1983	5.0188
11.0551	5.3993
10.9154	5.8194
10.7793	6.1975
10.6465	6.5901
10.5169	6.9829
10.3904	7.5185
10.267	8.2346
10.1464	9.0311
10.0287	9.8634
9.9136	11.1704
9.8012	12.7929
9.6913	15.012
9.5838	18.2109
9.4787	24.6473
9.3758	40.895
9.2752	56.0286
9.1767	59.3111
9.0803	60.6848
8.9858	61.3777
8.8934	61.0048
8.8028	58.2238
8.714	53.4554
8.627	33.9188
8.5417	54.2918
8.4581	55.8244
8.3761	53.7644
8.2957	52.0664
8.2169	49.3546
8.1395	39.5187
8.0635	24.9405
7.989	15.5138
7.9158	8.3903
7.8439	4.4646
7.7734	2.6836
7.7041	1.3016
7.636	0.6135
7.5691	0.2843
7.5034	0.1225
7.4388	0.0677
7.3753	0.0495
7.3129	0.0459
7.2515	0.1013
7.1912	0.2139
7.1318	0.1114
7.0734	0.2453
7.016	0.3163
6.9595	0.3212
6.9039	0.6793
6.8492	0.5269
6.7953	0.581
6.7423	0.5877
6.6901	0.5037
6.6387	0.6584
6.5881	0.6415
6.5382	0.701
6.4892	0.7646
6.4408	1.2315
6.3931	1.1005
6.3462	0.9183
6.2999	0.9707
6.2543	0.8579
6.2094	0.9412
6.1651	0.884
6.1214	1.1374
6.0784	1.2083
6.0359	1.3441
5.994	1.1811
5.9527	1.1284
5.912	1.1962
5.8718	1.4807
5.8322	1.7441
5.7931	2.1185
5.7545	2.5537
5.7165	2.7638
5.6789	2.3413
5.6418	1.6852
5.6052	1.3915
5.5691	1.3951
5.5334	1.4553
5.4982	1.6388
5.4635	1.891
5.4291	1.8778
5.3952	1.4095
5.3618	1.3711
5.3287	1.2629
5.2961	1.3356
5.2638	1.5021
5.2319	1.5984
5.2004	1.9516
5.1693	1.9985
5.1386	1.9381
5.1082	1.8975
5.0782	1.7971
5.0485	1.6131
5.0192	1.6419
4.9902	1.7188
4.9616	2.1893
4.9332	2.5887
4.9052	3.9598
4.8776	8.3982
4.8502	12.8659
4.8231	16.4535
4.7963	19.4552
4.7699	22.1976
4.7437	24.0808
4.7178	24.5005
4.6922	20.1824
4.6668	21.2971
4.6418	26.8539
4.617	31.5976
4.5924	33.4442
4.5681	33.348
4.5441	29.7144
4.5203	22.9336
4.4968	16.6153
4.4735	14.8514
4.4505	16.0973
4.4277	17.9682
4.4051	20.5197
4.3828	24.4586
4.3607	29.0479
4.3388	31.952
4.3171	32.2296
4.2956	30.5745
4.2744	30.8663
4.2534	33.3418
4.2325	33.5417
4.2119	34.6049
4.1915	35.1219
4.1712	37.2458
4.1512	38.725
4.1313	40.4526
4.1117	42.7348
4.0922	45.1799
4.0729	47.0925
4.0538	47.7451
4.0349	47.3039
4.0161	46.8979
3.9976	47.2449
3.9792	48.3672
3.9609	50.0661
3.9428	51.9554
3.9249	53.0756
3.9072	53.0292
3.8896	51.7791
3.8722	50.4804
3.8549	49.9908
3.8378	50.1816
3.8208	51.209
3.804	51.8996
3.7873	51.5885
3.7708	50.4773
3.7544	49.3695
3.7382	49.1256
3.7221	50.1655
3.7061	52.232
3.6903	55.0024
3.6746	57.7629
3.659	59.8837
3.6436	60.9551
3.6283	61.3375
3.6131	61.6816
3.5981	62.1291
3.5832	62.9908
3.5684	64.0942
3.5537	65.4402
3.5391	66.829
3.5247	68.1892
3.5104	69.0881
3.4962	69.6985
3.4821	71.0111
3.4681	71.717
3.4543	72.0458
3.4405	71.7555
3.4269	70.8242
3.4133	69.8581
3.3999	70.2457
3.3866	70.3472
3.3733	70.0353
3.3602	70.7223
3.3472	70.8049
3.3343	70.49
3.3215	70.0843
3.3088	69.156
3.2961	68.5815
3.2836	67.7749
3.2712	67.043
3.2588	66.489
3.2466	65.7944
3.2345	65.1087
3.2224	64.4434
3.2104	63.5879
3.1985	62.7011
3.1867	61.8031
3.175	61.078
3.1634	60.2243
3.1519	59.0751
3.1404	57.4436
3.129	56.1741
3.1178	56.0359
3.1065	56.1546
3.0954	56.2966
3.0844	55.9015
3.0734	55.4111
3.0625	54.5003
3.0517	53.4715
3.041	52.5247
3.0303	51.8225
3.0197	51.739
3.0092	52.0397
2.9987	52.3097
2.9884	52.4106
2.9781	51.8256
2.9678	49.9982
2.9577	48.883
2.9476	50.4723
2.9376	51.3093
2.9276	51.7259
2.9177	51.7654
2.9079	52.3533
2.8982	53.6434
2.8885	54.2384
2.8789	54.553
2.8693	55.6076
2.8598	56.5472
2.8504	57.4661
2.841	58.1625
2.8317	59.0878
2.8224	59.733
2.8133	60.6235
2.8041	61.8664
2.7951	62.3461
2.786	63.022
2.7771	63.6086
2.7682	65.0763
2.7594	65.745
2.7506	67.3798
2.7418	69.8165
2.7332	71.6217
2.7246	75.1889
2.716	77.247
2.7075	79.3919
2.699	80.1361
2.6906	81.9356
2.6823	83.2363
2.674	84.1659
2.6657	85.7106
2.6575	84.6877
2.6494	84.9123
2.6413	85.0816
2.6332	85.4029
2.6252	85.4431
2.6173	86.0919
2.6094	85.7246
2.6015	85.6953
2.5937	86.5934
2.5859	85.9249
2.5782	85.7018
2.5706	85.8853
2.5629	86.1924
2.5554	85.5239
2.5478	85.7842
2.5403	85.6411
2.5329	85.9042
2.5255	85.741
2.5181	85.7486
2.5108	85.6529
2.5035	85.7279
2.4963	85.8279
2.4891	85.8087
2.482	85.9374
2.4749	85.9613
2.4678	86.0478
2.4608	86.0665
2.4538	86.1714
2.4468	86.2467
2.4399	86.218
2.4331	86.3175
2.4262	86.2974
2.4194	86.467
2.4127	86.3858
2.4059	86.3132
2.3993	86.4274
2.3926	86.5826
2.386	86.6025
2.3795	86.6633
2.3729	86.7014
2.3664	86.775
2.36	86.7164
2.3535	86.7833
2.3471	86.7873
2.3408	86.8541
2.3345	86.795
2.3282	86.8726
2.3219	86.8708
2.3157	86.8924
2.3095	86.9672
2.3034	87.0539
2.2972	86.9195
2.2911	87.0032
2.2851	87.1607
2.279	87.0268
2.2731	86.9495
2.2671	87.0534
2.2612	87.2173
2.2553	87.0828
2.2494	86.8455
2.2435	86.9131
2.2377	87.1354
2.232	87.0444
2.2262	86.9231
2.2205	87.0912
2.2148	86.9813
2.2091	86.8495
2.2035	86.9607
2.1979	86.9258
2.1923	86.7962
2.1868	86.8972
2.1812	86.9205
2.1758	86.8433
2.1703	87.0837
2.1649	87.1364
2.1595	86.8896
2.1541	87.0673
2.1487	87.2486
2.1434	87.0103
2.1381	87.2433
2.1328	87.0456
2.1275	87.0081
2.1223	87.0517
2.1171	87.0208
2.112	86.9155
2.1068	87.0745
2.1017	87.2571
2.0966	86.7951
2.0915	86.8689
2.0865	86.7654
2.0814	87.0845
2.0764	86.9543
2.0715	87.0307
2.0665	86.8147
2.0616	86.7674
2.0567	86.748
2.0518	86.8741
2.0469	86.9209
2.0421	86.7348
2.0373	86.825
2.0325	86.599
2.0277	86.9339
2.0229	86.6856
2.0182	86.5904
2.0135	86.4022
2.0088	86.5731
2.0042	86.5431
