Name: Gibbsite Al(OH)_3
Type: Mineral
Class: Hydroxide
Subclass: none
Particle Size: Fine
Sample No.: OH-3A
Owner: JPL
Wavelength Range: TIR
Origin: N/A
Description: Synthetic gibbsite.Particle size was 0-45 um.Collected by JPL Original ASTER Spectral Library name was jpl.nicolet.mineral.hydroxide.none.fine.oh03a.spectrum.txt
Measurement: Hemispherical reflectance
X Units: Wavelength (micrometers)
Y Units: Reflectance (percent)
wavelength	value
15.3853	3.3786
15.1161	4.0086
14.8563	4.018
14.6052	2.7123
14.3624	2.8475
14.1276	3.3877
13.9004	3.3284
13.6803	4.1973
13.4671	4.8904
13.2604	5.5756
13.06	5.5899
12.8656	5.6293
12.6769	6.2401
12.4936	6.8107
12.3155	5.711
12.1425	4.2601
11.9742	3.8759
11.8106	3.5832
11.6513	2.7629
11.4963	1.7116
11.3454	0.9024
11.1983	0.5242
11.0551	0.4616
10.9154	0.6404
10.7793	0.81
10.6465	1.0137
10.5169	1.0806
10.3904	1.6906
10.267	1.986
10.1464	1.3906
10.0287	1.9639
9.9136	3.7989
9.8012	6.763
9.6913	8.7302
9.5838	9.7255
9.4787	9.9243
9.3758	8.457
9.2752	5.3937
9.1767	2.8862
9.0803	1.9277
8.9858	1.422
8.8934	1.0916
8.8028	1.1758
8.714	1.2008
8.627	1.3975
8.5417	1.4175
8.4581	1.7011
8.3761	1.7963
8.2957	2.0044
8.2169	2.3057
8.1395	2.4251
8.0635	2.5135
7.989	2.5661
7.9158	2.7505
7.8439	2.9796
7.7734	3.1747
7.7041	3.4394
7.636	3.4432
7.5691	3.6772
7.5034	3.7077
7.4388	3.8291
7.3753	3.9188
7.3129	4
7.2515	4.1277
7.1912	4.1314
7.1318	4.2033
7.0734	4.2719
7.016	4.4269
6.9595	4.5664
6.9039	4.4878
6.8492	4.5201
6.7953	4.5366
6.7423	4.1385
6.6901	4.184
6.6387	4.1746
6.5881	3.9739
6.5382	4.1125
6.4892	4.213
6.4408	4.2834
6.3931	4.4456
6.3462	4.6989
6.2999	4.8467
6.2543	5.1068
6.2094	5.1878
6.1651	5.3893
6.1214	5.4393
6.0784	5.3259
6.0359	5.2034
5.994	5.1531
5.9527	4.9356
5.912	4.8261
5.8718	4.9189
5.8322	5.0223
5.7931	5.1668
5.7545	5.4765
5.7165	5.6424
5.6789	5.8576
5.6418	6.1433
5.6052	6.2017
5.5691	6.1168
5.5334	6.1121
5.4982	6.3216
5.4635	6.5615
5.4291	6.7337
5.3952	6.7349
5.3618	6.8785
5.3287	6.653
5.2961	6.6417
5.2638	6.7811
5.2319	7.0016
5.2004	7.1761
5.1693	6.9838
5.1386	6.5237
5.1082	6.1376
5.0782	5.9521
5.0485	5.3997
5.0192	4.7275
4.9902	4.2709
4.9616	4.6171
4.9332	5.2203
4.9052	5.7078
4.8776	5.7267
4.8502	5.9188
4.8231	6.0497
4.7963	6.1657
4.7699	6.2022
4.7437	6.7011
4.7178	7.3218
4.6922	8.1179
4.6668	8.9363
4.6418	8.655
4.617	9.6977
4.5924	12.1312
4.5681	13.9216
4.5441	15.1765
4.5203	16.0352
4.4968	16.5083
4.4735	17.2627
4.4505	17.7643
4.4277	18.3586
4.4051	18.8204
4.3828	19.3568
4.3607	19.6958
4.3388	20.1025
4.3171	20.3101
4.2956	20.8127
4.2744	21.0619
4.2534	21.1294
4.2325	21.5142
4.2119	21.5662
4.1915	21.598
4.1712	21.7792
4.1512	21.9269
4.1313	21.8719
4.1117	22.0645
4.0922	22.0636
4.0729	22.067
4.0538	22.1715
4.0349	22.2306
4.0161	22.2255
3.9976	21.7519
3.9792	21.4964
3.9609	21.7074
3.9428	22.0098
3.9249	20.8236
3.9072	21.7837
3.8896	21.9094
3.8722	21.6744
3.8549	21.2543
3.8378	20.5074
3.8208	21.2847
3.804	21.2557
3.7873	20.919
3.7708	21.0201
3.7544	20.8828
3.7382	21.0074
3.7221	20.7989
3.7061	20.6295
3.6903	20.5145
3.6746	20.276
3.659	20.0619
3.6436	19.6607
3.6283	19.2595
3.6131	18.7307
3.5981	18.3492
3.5832	17.8632
3.5684	17.1002
3.5537	16.4869
3.5391	16.0912
3.5247	15.5821
3.5104	15.0815
3.4962	14.6413
3.4821	14.4009
3.4681	13.9964
3.4543	13.5418
3.4405	12.7878
3.4269	12.4088
3.4133	12.0513
3.3999	11.4517
3.3866	11.0647
3.3733	10.5102
3.3602	10.0033
3.3472	9.3968
3.3343	9.1801
3.3215	9.1705
3.3088	9.2935
3.2961	9.5966
3.2836	9.5968
3.2712	9.1107
3.2588	8.7403
3.2466	8.4222
3.2345	7.9626
3.2224	7.6957
3.2104	7.1892
3.1985	6.5926
3.1867	6.3606
3.175	6.3098
3.1634	6.1029
3.1519	5.6447
3.1404	5.2888
3.129	4.9055
3.1178	4.4896
3.1065	3.9665
3.0954	3.9086
3.0844	3.8591
3.0734	3.6367
3.0625	3.4449
3.0517	3.2049
3.041	3.2688
3.0303	3.4663
3.0197	3.2671
3.0092	3.2178
2.9987	3.335
2.9884	3.2616
2.9781	3.3693
2.9678	3.6845
2.9577	3.2205
2.9476	3.1765
2.9376	2.4043
2.9276	3.0443
2.9177	4.2202
2.9079	6.4142
2.8982	7.5011
2.8885	7.6118
2.8789	6.5299
2.8693	4.4831
2.8598	2.8628
2.8504	2.1822
2.841	2.6912
2.8317	3.2248
2.8224	0.2036
2.8133	0.4867
2.8041	0.735
2.7951	1.1149
2.786	1.0846
2.7771	1.1274
2.7682	1.3076
2.7594	1.4154
2.7506	0.7065
2.7418	2.0167
2.7332	2.8829
2.7246	4.4291
2.716	6.1389
2.7075	7.1219
2.699	7.7749
2.6906	9.5466
2.6823	10.5747
2.674	11.577
2.6657	12.9625
2.6575	13.6887
2.6494	15.1152
2.6413	16.3332
2.6332	16.7696
2.6252	17.4654
2.6173	17.5881
2.6094	17.0399
2.6015	17.6247
2.5937	17.4628
2.5859	17.9629
2.5782	19.1946
2.5706	19.2601
2.5629	20.2685
2.5554	21.3743
2.5478	21.5328
2.5403	24.3175
2.5329	26.4366
2.5255	26.2525
2.5181	26.2761
2.5108	26.3994
2.5035	26.2937
2.4963	26.2243
2.4891	26.7592
2.482	27.4771
2.4749	28.5943
2.4678	28.992
2.4608	29.5955
2.4538	29.434
2.4468	28.8165
2.4399	27.5392
2.4331	26.8542
2.4262	26.6172
2.4194	26.3629
2.4127	25.7144
2.4059	24.5245
2.3993	24.1281
2.3926	23.7268
2.386	23.6233
2.3795	23.5724
2.3729	23.3724
2.3664	23.0751
2.36	22.7042
2.3535	22.7475
2.3471	24.2345
2.3408	25.3798
2.3345	25.5879
2.3282	24.8103
2.3219	23.32
2.3157	22.7222
2.3095	23.0781
2.3034	23.4373
2.2972	23.2137
2.2911	22.1591
2.2851	21.2752
2.279	19.3287
2.2731	15.7084
2.2671	15.0221
2.2612	18.1741
2.2553	18.484
2.2494	19.5564
2.2435	24.3615
2.2377	27.97
2.232	30.6497
2.2262	31.8375
2.2205	32.6173
2.2148	33.8081
2.2091	33.6545
2.2035	34.7891
2.1979	37.7277
2.1923	39.9458
2.1868	41.0732
2.1812	41.0952
2.1758	43.0557
2.1703	44.8287
2.1649	46.5725
2.1595	48.9306
2.1541	50.9508
2.1487	53.1563
2.1434	54.3761
2.1381	54.9272
2.1328	55.1777
2.1275	55.6039
2.1223	57.0307
2.1171	58.8406
2.112	59.1618
2.1068	59.5464
2.1017	59.8383
2.0966	59.7869
2.0915	59.822
2.0865	59.78
2.0814	59.4776
2.0764	59.8714
2.0715	60.2683
2.0665	60.7651
2.0616	60.9162
2.0567	60.9354
2.0518	61.0357
2.0469	61.4674
2.0421	61.3766
2.0373	61.8072
2.0325	61.6959
2.0277	61.9215
2.0229	62.1503
2.0182	62.3194
2.0135	62.7239
2.0088	62.9641
2.0042	63.2849
