Name: Anthophyllite (Mg,Fe^2+)_7Si_8O_22(OH)_2
Type: Mineral
Class: Silicate
Subclass: Inosilicate
Particle Size: Fine
Sample No.: IN-8A
Owner: JPL
Wavelength Range: TIR
Origin: USA, North Carolina
Description: Particle size was 0-45um.Collected by Ward's Original ASTER Spectral Library name was jpl.nicolet.mineral.silicate.inosilicate.fine.in08a.spectrum.txt
Measurement: Hemispherical reflectance
X Units: Wavelength (micrometers)
Y Units: Reflectance (percent)
wavelength	value
15.3853	3.33
15.1161	4.1151
14.8563	4.5644
14.6052	3.2093
14.3624	1.3789
14.1276	1.658
13.9004	1.63
13.6803	3.0943
13.4671	4.0587
13.2604	3.9017
13.06	5.067
12.8656	4.6978
12.6769	4.728
12.4936	6.9522
12.3155	8.0368
12.1425	8.2846
11.9742	8.6621
11.8106	8.727
11.6513	9.4849
11.4963	10.5171
11.3454	10.8186
11.1983	9.9406
11.0551	9.1645
10.9154	8.886
10.7793	10.416
10.6465	10.9445
10.5169	10.736
10.3904	8.8381
10.267	7.6309
10.1464	7.7989
10.0287	7.4872
9.9136	8.0855
9.8012	10.0139
9.6913	10.6719
9.5838	10.3566
9.4787	9.4425
9.3758	10.2326
9.2752	10.2261
9.1767	8.5958
9.0803	8.4045
8.9858	7.679
8.8934	6.9517
8.8028	6.5933
8.714	6.9994
8.627	6.2156
8.5417	5.3135
8.4581	4.2147
8.3761	3.4168
8.2957	2.887
8.2169	2.8106
8.1395	2.9451
8.0635	3.1218
7.989	3.7034
7.9158	4.2634
7.8439	4.9688
7.7734	5.4264
7.7041	5.9709
7.636	6.3637
7.5691	7.0872
7.5034	7.9607
7.4388	8.5515
7.3753	9.1426
7.3129	9.93
7.2515	10.5525
7.1912	10.938
7.1318	11.7989
7.0734	12.4486
7.016	13.5311
6.9595	14.8355
6.9039	15.9326
6.8492	16.8776
6.7953	18.254
6.7423	19.167
6.6901	20.3787
6.6387	21.9359
6.5881	21.2673
6.5382	21.0307
6.4892	22.2788
6.4408	21.5704
6.3931	21.4744
6.3462	21.9178
6.2999	20.9499
6.2543	20.4668
6.2094	19.7594
6.1651	18.954
6.1214	17.9539
6.0784	16.6766
6.0359	16.3287
5.994	15.9386
5.9527	17.5143
5.912	20.657
5.8718	20.3647
5.8322	20.8747
5.7931	22.7796
5.7545	23.5038
5.7165	23.3028
5.6789	22.1743
5.6418	22.591
5.6052	22.1628
5.5691	21.6914
5.5334	21.4673
5.4982	21.5423
5.4635	22.9046
5.4291	25.3322
5.3952	25.6787
5.3618	25.9818
5.3287	27.1207
5.2961	28.3811
5.2638	28.3012
5.2319	27.2401
5.2004	27.4291
5.1693	29.4641
5.1386	30.6208
5.1082	32.4874
5.0782	35.8232
5.0485	37.6529
5.0192	38.3274
4.9902	38.2942
4.9616	38.3893
4.9332	38.5669
4.9052	39.9823
4.8776	41.5057
4.8502	42.3262
4.8231	42.8179
4.7963	43.3242
4.7699	44.164
4.7437	44.8216
4.7178	44.9957
4.6922	45.2809
4.6668	45.7779
4.6418	46.0654
4.617	46.9614
4.5924	47.6321
4.5681	48.0778
4.5441	48.4704
4.5203	48.5622
4.4968	48.7731
4.4735	48.9817
4.4505	49.0619
4.4277	49.3796
4.4051	49.5166
4.3828	49.7061
4.3607	49.8944
4.3388	50.0176
4.3171	50.3091
4.2956	50.6284
4.2744	50.8866
4.2534	50.7549
4.2325	51.2923
4.2119	51.0366
4.1915	50.8381
4.1712	50.9449
4.1512	51.0521
4.1313	51.2011
4.1117	51.2352
4.0922	51.4507
4.0729	51.4357
4.0538	51.5301
4.0349	51.6339
4.0161	51.6172
3.9976	51.704
3.9792	51.658
3.9609	51.6085
3.9428	51.5708
3.9249	51.6545
3.9072	51.6111
3.8896	51.6448
3.8722	51.7083
3.8549	51.5801
3.8378	51.5342
3.8208	51.5149
3.804	51.4365
3.7873	51.3828
3.7708	51.2899
3.7544	51.3101
3.7382	51.1253
3.7221	50.9998
3.7061	50.8288
3.6903	50.5118
3.6746	50.5118
3.659	50.2708
3.6436	50.1218
3.6283	49.9118
3.6131	49.7725
3.5981	49.6063
3.5832	49.3607
3.5684	49.1461
3.5537	48.8827
3.5391	48.5498
3.5247	48.1876
3.5104	47.4111
3.4962	46.9708
3.4821	46.7686
3.4681	46.8612
3.4543	46.4502
3.4405	46.0143
3.4269	45.1846
3.4133	44.6417
3.3999	44.831
3.3866	44.5635
3.3733	44.1767
3.3602	43.8422
3.3472	43.8107
3.3343	44.1334
3.3215	43.404
3.3088	42.8437
3.2961	43.2483
3.2836	43.0898
3.2712	42.9109
3.2588	42.7239
3.2466	42.423
3.2345	41.9162
3.2224	41.6832
3.2104	41.307
3.1985	40.952
3.1867	40.3485
3.175	39.9223
3.1634	39.6228
3.1519	39.1581
3.1404	38.8237
3.129	38.647
3.1178	38.212
3.1065	37.8224
3.0954	37.4935
3.0844	37.1852
3.0734	36.7917
3.0625	36.6043
3.0517	36.1275
3.041	35.8272
3.0303	35.4595
3.0197	35.0671
3.0092	34.8171
2.9987	34.0677
2.9884	33.7265
2.9781	33.4621
2.9678	32.9923
2.9577	32.8796
2.9476	32.3992
2.9376	32.1615
2.9276	31.8823
2.9177	31.8434
2.9079	31.6736
2.8982	31.6698
2.8885	31.7694
2.8789	31.579
2.8693	31.7127
2.8598	31.7119
2.8504	31.7181
2.841	31.5958
2.8317	31.3052
2.8224	31.1895
2.8133	30.6828
2.8041	30.5708
2.7951	30.1404
2.786	30.0937
2.7771	30.1256
2.7682	29.9869
2.7594	29.9046
2.7506	29.5346
2.7418	28.5853
2.7332	24.2228
2.7246	17.5123
2.716	21.5741
2.7075	25.7855
2.699	34.8207
2.6906	49.7264
2.6823	55.8433
2.674	59.1187
2.6657	62.3101
2.6575	60.6605
2.6494	60.4303
2.6413	61.001
2.6332	61.4439
2.6252	61.2564
2.6173	62.2473
2.6094	61.5629
2.6015	61.0405
2.5937	62.5528
2.5859	60.829
2.5782	60.3145
2.5706	60.4036
2.5629	60.7311
2.5554	59.652
2.5478	60.101
2.5403	59.6003
2.5329	59.5999
2.5255	59.5341
2.5181	59.0029
2.5108	58.9487
2.5035	58.6176
2.4963	58.8028
2.4891	58.9351
2.482	58.7138
2.4749	58.5854
2.4678	58.0369
2.4608	58.323
2.4538	58.5807
2.4468	58.4597
2.4399	58.2966
2.4331	58.2514
2.4262	58.1266
2.4194	58.6901
2.4127	58.4956
2.4059	58.6146
2.3993	57.484
2.3926	56.1859
2.386	56.466
2.3795	56.9191
2.3729	57.9081
2.3664	58.6113
2.36	59.2418
2.3535	59.2242
2.3471	59.3136
2.3408	59.0846
2.3345	58.5138
2.3282	57.262
2.3219	55.4381
2.3157	51.5109
2.3095	51.0456
2.3034	54.65
2.2972	56.6104
2.2911	54.2755
2.2851	57.1873
2.279	58.9516
2.2731	59.6562
2.2671	60.3988
2.2612	61.1773
2.2553	61.4151
2.2494	61.7242
2.2435	61.9932
2.2377	62.0085
2.232	62.1438
2.2262	62.4998
2.2205	62.8617
2.2148	62.7145
2.2091	63.0225
2.2035	63.2389
2.1979	63.1585
2.1923	63.3754
2.1868	63.485
2.1812	63.5774
2.1758	63.7976
2.1703	63.7909
2.1649	64.0284
2.1595	64.1041
2.1541	64.3795
2.1487	64.2493
2.1434	64.5593
2.1381	64.3927
2.1328	64.4935
2.1275	64.5701
2.1223	64.9321
2.1171	64.7935
2.112	65.0077
2.1068	65.079
2.1017	65.064
2.0966	65.2005
2.0915	65.6069
2.0865	65.7006
2.0814	65.3473
2.0764	65.6031
2.0715	65.7562
2.0665	65.9131
2.0616	66.0455
2.0567	66.3824
2.0518	66.0066
2.0469	66.245
2.0421	66.4481
2.0373	66.6169
2.0325	66.5505
2.0277	66.4675
2.0229	66.6124
2.0182	66.756
2.0135	66.6169
2.0088	66.7492
2.0042	66.6728
