Name: Trona Na_3(CO_3)(HCO_3).2H_2O
Type: Mineral
Class: Carbonate
Subclass: None
Particle Size: Medium
Sample No.: C-4A
Owner: JPL
Wavelength Range: TIR
Origin: USA, Wyoming, Sweetwater County
Description: Particle size was 45-125um.Collected by Ward's Original ASTER Spectral Library name was jpl.nicolet.mineral.carbonate.none.medium.c04a.spectrum.txt
Measurement: Hemispherical reflectance
X Units: Wavelength (micrometers)
Y Units: Reflectance (percent)
wavelength	value
15.3853	6.2255
15.1161	5.6075
14.8563	3.8057
14.6052	3.2567
14.3624	1.2362
14.1276	1.1782
13.9004	1.6263
13.6803	1.9981
13.4671	2.5538
13.2604	2.6732
13.06	2.9258
12.8656	3.3554
12.6769	3.7922
12.4936	3.8186
12.3155	3.7645
12.1425	4.0174
11.9742	4.3593
11.8106	8.262
11.6513	9.6061
11.4963	4.0662
11.3454	3.2859
11.1983	3.1928
11.0551	3.1635
10.9154	3.1445
10.7793	3.2462
10.6465	3.0926
10.5169	3.2922
10.3904	3.2794
10.267	3.3659
10.1464	3.392
10.0287	3.3436
9.9136	3.4683
9.8012	3.3406
9.6913	3.3395
9.5838	2.9314
9.4787	3.6657
9.3758	3.8708
9.2752	3.8458
9.1767	3.7927
9.0803	3.6508
8.9858	3.778
8.8934	3.5515
8.8028	3.5116
8.714	3.5404
8.627	3.7616
8.5417	3.6478
8.4581	4.0169
8.3761	3.9316
8.2957	3.7615
8.2169	3.696
8.1395	3.4716
8.0635	3.2971
7.989	3.1525
7.9158	3.0233
7.8439	2.7456
7.7734	2.6479
7.7041	2.4695
7.636	2.4598
7.5691	2.3769
7.5034	2.3254
7.4388	2.2638
7.3753	2.2588
7.3129	2.1344
7.2515	2.1202
7.1912	1.9228
7.1318	1.8922
7.0734	1.9551
7.016	2.1117
6.9595	2.286
6.9039	2.4878
6.8492	3.0443
6.7953	3.4591
6.7423	3.3455
6.6901	2.6128
6.6387	1.8243
6.5881	1.1021
6.5382	0.9175
6.4892	0.901
6.4408	0.832
6.3931	0.7777
6.3462	0.7356
6.2999	0.9708
6.2543	0.8933
6.2094	1.0635
6.1651	1.1787
6.1214	1.3068
6.0784	1.5461
6.0359	1.5966
5.994	1.4658
5.9527	1.6575
5.912	1.8408
5.8718	1.7287
5.8322	1.7741
5.7931	1.5461
5.7545	1.5167
5.7165	1.2246
5.6789	1.189
5.6418	1.086
5.6052	0.9258
5.5691	0.9532
5.5334	0.858
5.4982	0.8327
5.4635	0.8359
5.4291	0.8035
5.3952	0.8712
5.3618	0.8381
5.3287	0.7904
5.2961	0.8648
5.2638	0.8685
5.2319	0.8837
5.2004	0.9433
5.1693	0.8998
5.1386	0.876
5.1082	0.9945
5.0782	0.9822
5.0485	0.9827
5.0192	1.0747
4.9902	1.1162
4.9616	1.1346
4.9332	1.1036
4.9052	1.0759
4.8776	1.2349
4.8502	1.1338
4.8231	1.2152
4.7963	1.278
4.7699	1.1909
4.7437	1.3155
4.7178	1.2336
4.6922	1.3041
4.6668	1.2731
4.6418	1.2985
4.617	1.2199
4.5924	1.3154
4.5681	1.3874
4.5441	1.3739
4.5203	1.3552
4.4968	1.3362
4.4735	1.3532
4.4505	1.3736
4.4277	1.1792
4.4051	1.2382
4.3828	1.3983
4.3607	1.3074
4.3388	1.3601
4.3171	1.3984
4.2956	1.411
4.2744	1.3317
4.2534	1.3547
4.2325	1.3801
4.2119	1.4173
4.1915	1.4957
4.1712	1.3828
4.1512	1.4949
4.1313	1.4314
4.1117	1.5547
4.0922	1.5596
4.0729	1.4659
4.0538	1.5412
4.0349	1.5647
4.0161	1.6378
3.9976	1.5512
3.9792	1.623
3.9609	1.7361
3.9428	1.6229
3.9249	1.7033
3.9072	1.6547
3.8896	1.5341
3.8722	1.5751
3.8549	1.6578
3.8378	1.7816
3.8208	1.6312
3.804	1.775
3.7873	1.7005
3.7708	1.6486
3.7544	1.7229
3.7382	1.7643
3.7221	1.6736
3.7061	1.7573
3.6903	1.6243
3.6746	1.7198
3.659	1.8012
3.6436	1.8501
3.6283	1.7224
3.6131	1.7048
3.5981	1.657
3.5832	1.691
3.5684	1.7363
3.5537	1.6052
3.5391	1.6336
3.5247	1.7927
3.5104	1.7447
3.4962	1.6151
3.4821	1.6282
3.4681	1.7233
3.4543	1.6722
3.4405	1.6367
3.4269	1.6967
3.4133	1.6343
3.3999	1.7762
3.3866	1.6186
3.3733	1.6194
3.3602	1.6955
3.3472	1.6583
3.3343	1.6705
3.3215	1.7149
3.3088	1.583
3.2961	1.6692
3.2836	1.5734
3.2712	1.6221
3.2588	1.4902
3.2466	1.3844
3.2345	1.5016
3.2224	1.3943
3.2104	1.4547
3.1985	1.3675
3.1867	1.325
3.175	1.4837
3.1634	1.4299
3.1519	1.3023
3.1404	1.3568
3.129	1.3732
3.1178	1.3393
3.1065	1.433
3.0954	1.2341
3.0844	1.3059
3.0734	1.2224
3.0625	1.4586
3.0517	1.3983
3.041	1.2494
3.0303	1.3896
3.0197	1.463
3.0092	1.5456
2.9987	1.5322
2.9884	1.3706
2.9781	1.6358
2.9678	1.2901
2.9577	1.5506
2.9476	1.8182
2.9376	1.4878
2.9276	1.6379
2.9177	1.8684
2.9079	1.9393
2.8982	2.1703
2.8885	2.2576
2.8789	1.855
2.8693	1.8933
2.8598	1.7895
2.8504	1.6784
2.841	1.5415
2.8317	1.3675
2.8224	1.251
2.8133	1.3827
2.8041	1.4444
2.7951	1.7006
2.786	1.8268
2.7771	1.9763
2.7682	2.2234
2.7594	2.4937
2.7506	2.8248
2.7418	3.2464
2.7332	3.6432
2.7246	4.2803
2.716	4.8487
2.7075	5.3372
2.699	6.1352
2.6906	6.5743
2.6823	6.9509
2.674	7.1178
2.6657	8.1086
2.6575	7.9793
2.6494	8.3897
2.6413	8.5774
2.6332	9.0174
2.6252	9.2138
2.6173	9.7323
2.6094	9.893
2.6015	9.9789
2.5937	10.9302
2.5859	10.715
2.5782	10.9928
2.5706	11.0791
2.5629	11.4899
2.5554	11.5139
2.5478	12.0073
2.5403	11.9647
2.5329	12.2066
2.5255	12.5712
2.5181	12.537
2.5108	12.7524
2.5035	12.9778
2.4963	13.0125
2.4891	13.1871
2.482	13.2486
2.4749	13.267
2.4678	13.3129
2.4608	13.4364
2.4538	13.486
2.4468	13.3967
2.4399	13.4304
2.4331	13.6091
2.4262	13.6543
2.4194	13.7599
2.4127	13.4244
2.4059	13.5067
2.3993	13.7581
2.3926	13.6501
2.386	14.0624
2.3795	14.9291
2.3729	15.1583
2.3664	15.6724
2.36	16.042
2.3535	16.5589
2.3471	16.954
2.3408	17.2501
2.3345	17.421
2.3282	17.8649
2.3219	18.2278
2.3157	18.4407
2.3095	18.8289
2.3034	19.2337
2.2972	19.3537
2.2911	19.7336
2.2851	20.0213
2.279	20.1706
2.2731	20.559
2.2671	20.5577
2.2612	20.6225
2.2553	21.0563
2.2494	20.8991
2.2435	20.8184
2.2377	20.8465
2.232	20.1851
2.2262	19.977
2.2205	20.1737
2.2148	20.1086
2.2091	20.6004
2.2035	20.65
2.1979	20.6442
2.1923	20.7654
2.1868	20.8313
2.1812	21.1703
2.1758	20.9708
2.1703	21.1593
2.1649	21.2145
2.1595	20.9286
2.1541	20.8947
2.1487	20.7041
2.1434	20.6805
2.1381	20.6134
2.1328	20.465
2.1275	20.3493
2.1223	20.1045
2.1171	19.9157
2.112	19.8655
2.1068	19.6636
2.1017	19.2869
2.0966	18.9368
2.0915	18.5423
2.0865	18.4721
2.0814	17.9634
2.0764	18.0154
2.0715	17.4592
2.0665	17.4663
2.0616	16.8571
2.0567	16.7757
2.0518	16.5538
2.0469	16.6916
2.0421	16.7831
2.0373	16.6132
2.0325	17.0782
2.0277	16.8102
2.0229	17.738
2.0182	17.8945
2.0135	18.185
2.0088	18.813
2.0042	19.1098
