Name: Alunite (ammonioalunite) NH4Al3(SO4)2(OH)6
Type: Mineral
Class: Sulfate
Subclass: None
Particle Size: Fine
Sample No.: alunite_1
Owner: JHU
Wavelength Range: TIR
Origin: Sample from Dennis Krohn, USGS; synthesized by Phil Bethke,USGS.
Description: The sample consisted of a very small (several microg) amount of fine white powder. Particle size was less than 2 Micrometers.(Synthetic) Original ASTER Spectral Library name was jhu.nicolet.mineral.sulfate.none.powder.alunit1.spectrum.txt
Measurement: Transmission
X Units: Wavelength (micrometers)
Y Units: Transmittance (percent)
wavelength	value
25.0442	67.0389
24.3387	47.9335
23.6719	38.2733
23.0407	52.4549
22.4422	62.0164
21.874	58.0389
21.334	62.1815
20.8199	62.8734
20.33	56.7948
19.8626	58.7606
19.4163	50.8739
18.9896	48.6395
18.5812	54.8653
18.19	49.9083
17.815	39.2753
17.4551	26.4794
17.1094	13.1164
16.7772	7.9016
16.4576	8.8342
16.15	6.4429
15.8537	8.3967
15.568	16.332
15.2925	18.77
15.0265	6.3408
14.7697	8.6455
14.5214	12.9814
14.2814	22.0414
14.0492	33.4521
13.8244	42.5077
13.6067	48.8146
13.3957	54.2196
13.1912	58.1026
12.9929	60.9305
12.8004	63.2115
12.6135	65.6575
12.432	68.2606
12.2557	69.8194
12.0843	71.7554
11.9176	74.0716
11.7555	75.8201
11.5977	76.8943
11.444	77.7613
11.2944	78.2239
11.1487	78.406
11.0067	78.3191
10.8682	77.5301
10.7332	76.5896
10.6015	74.835
10.473	72.2195
10.3476	68.8372
10.2252	64.4349
10.1056	58.5829
9.9887	51.2049
9.8746	39.933
9.763	20.7951
9.6539	23.3935
9.5472	13.1679
9.4429	5.3013
9.3408	2.2319
9.2409	3.5498
9.1431	6.1352
9.0474	10.747
8.9536	18.2236
8.8618	26.2563
8.7718	31.9091
8.6837	28.9438
8.5973	36.8512
8.5126	43.1969
8.4295	43.934
8.3481	41.1581
8.2682	37.018
8.1898	28.3498
8.1129	20.7075
8.0374	20.2993
7.9634	30.1042
7.8906	46.9833
7.8192	59.6341
7.7491	66.7437
7.6802	71.1339
7.6126	74.1836
7.5461	76.6558
7.4807	78.3797
7.4165	79.6165
7.3534	80.1504
7.2914	79.5987
7.2303	77.6624
7.1703	73.1048
7.1113	65.1737
7.0533	53.0731
6.9962	39.6405
6.94	43.039
6.8847	55.3724
6.8302	65.2159
6.7767	72.1077
6.7239	75.6077
6.672	78.6001
6.6209	80.5298
6.5705	81.9402
6.5209	82.887
6.4721	83.8723
6.424	84.1712
6.3766	84.4807
6.3299	84.7454
6.2838	84.9553
6.2385	84.7915
6.1937	84.3306
6.1496	84.1211
6.1062	83.5274
6.0633	83.4344
6.0211	84.1453
5.9794	85.1856
5.9383	85.4102
5.8978	86.3086
5.8578	87.188
5.8184	87.8819
5.7794	88.3076
5.741	88.97
5.7031	89.7781
5.6657	90.259
5.6288	90.5962
5.5924	90.7637
5.5564	91.0735
5.5209	91.3508
5.4859	91.6275
5.4513	91.8858
5.4171	91.969
5.3833	92.1055
5.35	92.2654
5.3171	92.4273
5.2846	92.603
5.2524	92.6982
5.2207	92.7661
5.1893	92.9321
5.1584	93.0474
5.1277	93.0947
5.0975	93.2124
5.0676	93.2556
5.038	93.3252
5.0088	93.4126
4.98	93.4385
4.9514	93.4558
4.9232	93.4114
4.8953	93.2463
4.8678	93.1736
4.8405	93.1304
4.8135	92.5911
4.7868	91.2322
4.7605	91.0264
4.7344	91.0706
4.7086	91.2495
4.6831	90.9226
4.6578	90.0076
4.6328	89.6555
4.6081	89.7981
4.5837	90.2666
4.5595	90.7017
4.5356	91.0166
4.5119	91.0945
4.4884	91.0227
4.4652	91.1321
4.4423	91.3272
4.4196	91.4949
4.3971	91.6292
4.3748	92.0159
4.3528	92.6228
4.331	93.408
4.3094	93.8811
4.288	94.374
4.2668	94.6309
4.2458	94.991
4.2251	94.9885
4.2045	94.0291
4.1841	93.6926
4.164	93.7131
4.144	93.7327
4.1242	93.5674
4.1046	93.5886
4.0852	93.696
4.066	93.6731
4.047	93.7373
4.0281	93.7561
4.0094	93.8518
3.9909	93.6516
3.9725	93.7449
3.9544	93.7683
3.9363	93.6965
3.9185	93.5833
3.9008	93.5237
3.8833	93.5271
3.8659	93.2703
3.8487	93.4075
3.8316	93.3313
3.8147	93.24
3.7979	93.2283
3.7813	93.0256
3.7648	93.0276
3.7485	92.9107
3.7323	92.7136
3.7162	92.6443
3.7003	92.4226
3.6845	92.2363
3.6689	92.0413
3.6534	91.7825
3.638	91.6409
3.6227	91.4902
3.6076	91.1594
3.5926	90.885
3.5777	90.4719
3.563	90.2127
3.5484	89.7869
3.5338	89.3264
3.5195	88.7659
3.5052	87.4973
3.491	87.6365
3.477	87.7227
3.463	87.7317
3.4492	87.3489
3.4355	86.6843
3.4219	85.5178
3.4084	85.5803
3.395	85.6175
3.3817	85.4285
3.3685	84.9641
3.3554	84.2869
3.3425	83.8089
3.3296	83.2879
3.3168	82.5166
3.3041	81.9534
3.2915	81.3819
3.279	80.5904
3.2666	79.4793
3.2543	78.4361
3.2421	77.1575
3.23	76.1485
3.218	75.6177
3.206	75.0335
3.1942	74.4466
3.1824	73.6026
3.1707	72.6483
3.1591	71.3592
3.1476	69.962
3.1362	68.2445
3.1249	66.2374
3.1136	63.9515
3.1024	61.2762
3.0913	58.3934
3.0803	54.849
3.0694	50.597
3.0585	46.3485
3.0477	42.9735
3.037	40.8671
3.0264	39.0658
3.0158	38.2941
3.0053	39.8165
2.9949	43.4835
2.9845	47.4052
2.9743	51.1044
2.9641	53.9457
2.9539	55.6346
2.9439	56.0245
2.9339	55.4339
2.9239	54.3885
2.9141	52.6161
2.9043	50.6083
2.8946	47.7958
2.8849	44.3026
2.8753	38.0292
2.8658	28.1581
2.8563	18.4804
2.8469	8.9905
2.8375	10.8027
2.8282	14.3674
2.819	23.1801
2.8098	37.0373
2.8007	49.1122
2.7917	57.0858
2.7827	63.1414
2.7738	68.4405
2.7649	72.702
2.7561	75.4451
2.7473	78.7706
2.7386	82.2439
2.7299	83.1297
2.7213	84.449
2.7128	85.7884
2.7043	87.0794
2.6959	87.8714
2.6875	88.4007
2.6791	88.9822
2.6709	89.7507
2.6626	90.0628
2.6545	90.426
2.6463	90.7918
2.6382	90.9544
2.6302	90.9939
2.6222	91.5901
2.6143	91.9158
2.6064	92.0496
2.5986	92.199
2.5908	92.2439
2.583	92.5017
2.5753	92.6804
2.5677	92.3621
2.5601	92.3884
2.5525	92.4636
2.545	92.8611
2.5375	92.8396
2.5301	92.7424
2.5227	92.9631
2.5154	92.9168
2.5081	92.6936
2.5008	92.8323
2.4936	92.9587
2.4864	93.0252
2.4793	93.0896
2.4722	93.1755
2.4651	93.447
2.4581	93.6409
2.4511	93.3826
2.4442	93.512
2.4373	93.0842
2.4305	93.5291
2.4236	93.6467
2.4169	93.9265
2.4101	93.7166
2.4034	93.926
2.3967	94.0027
2.3901	93.6174
2.3835	93.866
2.377	94.0608
2.3704	94.0779
2.364	94.0081
2.3575	93.9695
2.3511	94.0159
2.3447	94.1995
2.3384	94.2195
2.3321	93.9041
2.3258	94.0505
2.3195	94.2092
2.3133	94.2908
2.3071	94.0164
2.301	94.176
2.2949	94.3591
2.2888	94.2444
2.2828	94.0505
2.2767	94.2048
2.2708	94.137
2.2648	94.0193
2.2589	94.4045
2.253	94.115
2.2471	94.3284
2.2413	93.8396
2.2355	93.9534
2.2297	94.0125
2.224	94.3064
2.2183	93.9832
2.2126	93.738
2.207	93.7117
2.2013	93.2752
2.1957	93.9294
2.1902	93.4978
2.1846	93.697
2.1791	93.3044
2.1736	93.1853
2.1682	93.2791
2.1628	93.3806
2.1574	93.1375
2.152	93.5193
2.1466	93.5046
2.1413	93.2253
2.136	93.4363
2.1308	92.9783
2.1255	92.7878
2.1203	92.9255
2.1151	92.3445
2.11	92.9812
2.1048	92.8953
2.0997	92.7664
2.0946	92.7351
2.0895	92.8347
2.0845	93.1375
2.0795	92.9763
