Name: Quartz SiO_2
Type: Mineral
Class: Silicate
Subclass: Tectosilicate
Particle Size: Medium
Sample No.: TS-1B
Owner: JPL
Wavelength Range: TIR
Origin: Brazil, Minas Gerais
Description: Smoky quartz. Particle size was 45-125um.Collected by Burminco Original ASTER Spectral Library name was jpl.nicolet.mineral.silicate.tectosilicate.medium.ts01b.spectrum.txt
Measurement: Hemispherical reflectance
X Units: Wavelength (micrometers)
Y Units: Reflectance (percent)
wavelength	value
15.3853	7.1284
15.1161	7.0115
14.8563	6.1704
14.6052	4.8823
14.3624	4.4066
14.1276	4.1261
13.9004	5.1854
13.6803	5.7996
13.4671	5.8927
13.2604	6.0813
13.06	6.9905
12.8656	11.5465
12.6769	8.9475
12.4936	11.1613
12.3155	1.3852
12.1425	2.0769
11.9742	3.2493
11.8106	4.3795
11.6513	4.9979
11.4963	5.9334
11.3454	6.3175
11.1983	6.3819
11.0551	6.8769
10.9154	7.1787
10.7793	7.1534
10.6465	7.1914
10.5169	7.5371
10.3904	7.7047
10.267	7.9746
10.1464	8.5508
10.0287	9.2987
9.9136	10.0849
9.8012	11.4228
9.6913	13.6123
9.5838	16.3405
9.4787	22.0897
9.3758	37.0639
9.2752	51.4423
9.1767	54.0718
9.0803	55.1642
8.9858	55.2134
8.8934	54.4192
8.8028	51.5913
8.714	47.1763
8.627	30.1106
8.5417	48.1181
8.4581	49.6423
8.3761	47.9491
8.2957	46.6783
8.2169	45.2046
8.1395	35.968
8.0635	22.7087
7.989	14.3925
7.9158	7.9995
7.8439	4.4637
7.7734	2.7436
7.7041	1.4549
7.636	0.7877
7.5691	0.2882
7.5034	0.1875
7.4388	0.0996
7.3753	0
7.3129	0.0638
7.2515	0.1463
7.1912	0.3113
7.1318	0.3712
7.0734	0.6013
7.016	0.8332
6.9595	1.0662
6.9039	1.3129
6.8492	1.3082
6.7953	1.3503
6.7423	1.16
6.6901	1.2638
6.6387	1.4166
6.5881	1.2646
6.5382	1.416
6.4892	2.5366
6.4408	3.6109
6.3931	3.5332
6.3462	2.4604
6.2999	1.7545
6.2543	1.2571
6.2094	1.2425
6.1651	1.399
6.1214	2.472
6.0784	3.4186
6.0359	3.5602
5.994	3.1407
5.9527	2.1706
5.912	2.6112
5.8718	3.7232
5.8322	5.148
5.7931	6.4749
5.7545	7.9674
5.7165	8.9371
5.6789	7.5624
5.6418	4.4087
5.6052	2.9607
5.5691	2.8042
5.5334	3.2589
5.4982	4.3326
5.4635	5.5544
5.4291	4.8638
5.3952	2.6769
5.3618	1.7457
5.3287	1.7266
5.2961	1.8539
5.2638	2.2395
5.2319	3.7607
5.2004	5.4434
5.1693	5.3869
5.1386	4.9371
5.1082	4.9204
5.0782	4.0626
5.0485	3.8586
5.0192	3.6456
4.9902	4.0754
4.9616	5.71
4.9332	7.476
4.9052	11.5465
4.8776	20.8761
4.8502	28.0133
4.8231	32.8516
4.7963	36.6851
4.7699	39.8386
4.7437	42.1612
4.7178	42.5256
4.6922	37.4686
4.6668	38.6672
4.6418	45.0579
4.617	50.0858
4.5924	52.0634
4.5681	51.8205
4.5441	48.0133
4.5203	40.7649
4.4968	33.157
4.4735	30.6548
4.4505	32.3965
4.4277	34.5986
4.4051	38.0567
4.3828	42.5658
4.3607	47.6242
4.3388	50.9976
4.3171	51.7082
4.2956	50.8849
4.2744	51.9525
4.2534	53.9709
4.2325	53.0556
4.2119	53.4484
4.1915	53.6749
4.1712	55.4942
4.1512	56.8992
4.1313	58.4506
4.1117	60.4549
4.0922	62.5817
4.0729	64.3266
4.0538	64.7293
4.0349	64.4367
4.0161	63.957
3.9976	64.1579
3.9792	65.2136
3.9609	66.5767
3.9428	67.9919
3.9249	68.9228
3.9072	68.8025
3.8896	67.8382
3.8722	66.8269
3.8549	66.3548
3.8378	66.4534
3.8208	67.1713
3.804	67.7375
3.7873	67.5138
3.7708	66.5869
3.7544	65.7449
3.7382	65.4639
3.7221	66.3177
3.7061	67.9586
3.6903	70.0505
3.6746	72.0411
3.659	73.4999
3.6436	74.2165
3.6283	74.5789
3.6131	74.6546
3.5981	75.0167
3.5832	75.5239
3.5684	76.2814
3.5537	77.005
3.5391	77.806
3.5247	78.4777
3.5104	78.5218
3.4962	78.6952
3.4821	79.6166
3.4681	80.1424
3.4543	80.3356
3.4405	79.9777
3.4269	79.1621
3.4133	78.4566
3.3999	79.309
3.3866	79.8035
3.3733	79.7136
3.3602	80.8971
3.3472	81.4171
3.3343	81.6185
3.3215	81.7286
3.3088	81.4161
3.2961	81.5656
3.2836	81.2785
3.2712	81.2922
3.2588	81.2807
3.2466	81.2386
3.2345	81.2188
3.2224	81.2262
3.2104	81.0753
3.1985	80.9778
3.1867	80.7947
3.175	80.7636
3.1634	80.5596
3.1519	80.1633
3.1404	79.0366
3.129	78.4153
3.1178	78.7057
3.1065	79.2884
3.0954	79.9432
3.0844	79.9906
3.0734	79.8319
3.0625	79.18
3.0517	78.2404
3.041	77.2699
3.0303	76.8504
3.0197	77.0515
3.0092	77.5157
2.9987	77.9954
2.9884	78.2294
2.9781	78.0626
2.9678	76.42
2.9577	75.1777
2.9476	77.0424
2.9376	77.9137
2.9276	78.1751
2.9177	78.11
2.9079	78.7001
2.8982	79.3453
2.8885	79.9766
2.8789	80.3308
2.8693	80.7413
2.8598	80.9519
2.8504	81.4315
2.841	81.6626
2.8317	81.8383
2.8224	81.7836
2.8133	82.0433
2.8041	82.404
2.7951	82.3334
2.786	82.5494
2.7771	82.7378
2.7682	83.3314
2.7594	82.8534
2.7506	83.5781
2.7418	84.4572
2.7332	84.4124
2.7246	85.4695
2.716	85.1275
2.7075	85.104
2.699	85.288
2.6906	85.5927
2.6823	85.8788
2.674	85.8766
2.6657	86.8555
2.6575	85.8762
2.6494	85.8039
2.6413	85.901
2.6332	86.1074
2.6252	85.9891
2.6173	86.4711
2.6094	86.052
2.6015	86.0063
2.5937	86.7453
2.5859	86.2371
2.5782	85.7813
2.5706	85.9563
2.5629	86.2447
2.5554	85.7186
2.5478	85.7355
2.5403	85.7077
2.5329	85.7662
2.5255	85.7064
2.5181	85.7576
2.5108	85.7256
2.5035	85.7205
2.4963	85.6957
2.4891	85.6018
2.482	85.6811
2.4749	85.5906
2.4678	85.7936
2.4608	85.6285
2.4538	85.748
2.4468	85.6878
2.4399	85.629
2.4331	85.6294
2.4262	85.7215
2.4194	85.8745
2.4127	85.597
2.4059	85.6715
2.3993	85.566
2.3926	85.6455
2.386	85.6491
2.3795	85.6727
2.3729	85.6542
2.3664	85.6758
2.36	85.6191
2.3535	85.6781
2.3471	85.5746
2.3408	85.5618
2.3345	85.6201
2.3282	85.7583
2.3219	85.6892
2.3157	85.7611
2.3095	85.6022
2.3034	85.5395
2.2972	85.5355
2.2911	85.6137
2.2851	85.6283
2.279	85.6888
2.2731	85.5777
2.2671	85.696
2.2612	85.7597
2.2553	85.6257
2.2494	85.5063
2.2435	85.462
2.2377	85.511
2.232	85.3551
2.2262	85.5476
2.2205	85.549
2.2148	85.4269
2.2091	85.5426
2.2035	85.4607
2.1979	85.5268
2.1923	85.541
2.1868	85.579
2.1812	85.3866
2.1758	85.3205
2.1703	85.5942
2.1649	85.5736
2.1595	85.3279
2.1541	85.6655
2.1487	85.4208
2.1434	85.3751
2.1381	85.429
2.1328	85.4756
2.1275	85.5622
2.1223	85.3499
2.1171	85.5609
2.112	85.4886
2.1068	85.5092
2.1017	85.4449
2.0966	85.4593
2.0915	85.4906
2.0865	85.2179
2.0814	85.3999
2.0764	85.3347
2.0715	85.3016
2.0665	85.4768
2.0616	85.1985
2.0567	85.3774
2.0518	85.3613
2.0469	85.3241
2.0421	85.1886
2.0373	85.4011
2.0325	85.2376
2.0277	85.4675
2.0229	85.1407
2.0182	85.4155
2.0135	85.0881
2.0088	85.2892
2.0042	85.3157
