Name: Prehnite Ca_2Al_2Si_3O_10(OH)_2
Type: Mineral
Class: Silicate
Subclass: Phyllosilicate
Particle Size: Medium
Sample No.: PS-21A
Owner: JPL
Wavelength Range: TIR
Origin: USA, Virginia, Centerville
Description: Particle size was 45-125um.Collected by Burminco Original ASTER Spectral Library name was jpl.nicolet.mineral.silicate.phyllosilicate.medium.ps21a.spectrum.txt
Measurement: Hemispherical reflectance
X Units: Wavelength (micrometers)
Y Units: Reflectance (percent)
wavelength	value
15.3853	3.3147
15.1161	3.4334
14.8563	3.6553
14.6052	4.1819
14.3624	4.9172
14.1276	5.3289
13.9004	6.2496
13.6803	7.8889
13.4671	10.5441
13.2604	11.0666
13.06	12.2985
12.8656	5.674
12.6769	3.1499
12.4936	3.9952
12.3155	5.5306
12.1425	5.2614
11.9742	3.5636
11.8106	4.1562
11.6513	5.0575
11.4963	5.2589
11.3454	4.5812
11.1983	5.4825
11.0551	6.9325
10.9154	9.3107
10.7793	13.1183
10.6465	13.8823
10.5169	10.4509
10.3904	10.0087
10.267	12.6232
10.1464	20.7478
10.0287	24.4558
9.9136	28.0095
9.8012	29.4531
9.6913	27.3566
9.5838	14.7508
9.4787	8.2033
9.3758	12.1926
9.2752	24.4958
9.1767	25.3847
9.0803	20.5852
8.9858	17.442
8.8934	11.6516
8.8028	7.0692
8.714	3.2591
8.627	0.8819
8.5417	0.3728
8.4581	0.2651
8.3761	0.1098
8.2957	0.3147
8.2169	0.3745
8.1395	0.5057
8.0635	0.8106
7.989	1.1042
7.9158	1.3971
7.8439	1.7038
7.7734	2.1153
7.7041	2.5878
7.636	3.026
7.5691	3.6691
7.5034	4.3277
7.4388	4.8033
7.3753	4.907
7.3129	5.1331
7.2515	5.3373
7.1912	5.6104
7.1318	5.7088
7.0734	5.5197
7.016	5.3953
6.9595	5.3333
6.9039	4.9994
6.8492	4.9178
6.7953	5.1014
6.7423	5.2539
6.6901	5.335
6.6387	5.4771
6.5881	5.0879
6.5382	4.9948
6.4892	5.0956
6.4408	4.7183
6.3931	4.9229
6.3462	5.8866
6.2999	6.6332
6.2543	7.3924
6.2094	7.768
6.1651	8.1778
6.1214	8.6755
6.0784	8.9956
6.0359	9.0843
5.994	8.7877
5.9527	8.5092
5.912	8.2842
5.8718	7.9981
5.8322	7.5789
5.7931	7.6784
5.7545	7.8552
5.7165	8.1651
5.6789	8.1859
5.6418	8.454
5.6052	8.6007
5.5691	8.4884
5.5334	7.8658
5.4982	7.0184
5.4635	6.1828
5.4291	6.3984
5.3952	7.0206
5.3618	7.7257
5.3287	8.8231
5.2961	10.3051
5.2638	11.9614
5.2319	14.1777
5.2004	15.4274
5.1693	15.5976
5.1386	15.0437
5.1082	14.7114
5.0782	16.2737
5.0485	17.5616
5.0192	18.8795
4.9902	19.7808
4.9616	20.7148
4.9332	22.5935
4.9052	24.9914
4.8776	26.3901
4.8502	27.3189
4.8231	27.8965
4.7963	28.12
4.7699	27.449
4.7437	29.3102
4.7178	31.2409
4.6922	32.6276
4.6668	34.1305
4.6418	34.8046
4.617	35.065
4.5924	36.6448
4.5681	38.1057
4.5441	38.6824
4.5203	39.5262
4.4968	40.8502
4.4735	42.2589
4.4505	43.9141
4.4277	45.0188
4.4051	45.8203
4.3828	46.4886
4.3607	47.2244
4.3388	47.7284
4.3171	48.3363
4.2956	49.2774
4.2744	50.2125
4.2534	50.5014
4.2325	51.2851
4.2119	51.0452
4.1915	51.0008
4.1712	50.9659
4.1512	51.1693
4.1313	51.6989
4.1117	52.2222
4.0922	52.645
4.0729	52.6013
4.0538	52.4908
4.0349	52.4526
4.0161	52.2626
3.9976	52.2078
3.9792	52.5072
3.9609	52.4221
3.9428	52.8633
3.9249	52.9757
3.9072	51.7231
3.8896	50.3908
3.8722	45.5609
3.8549	47.6331
3.8378	47.7212
3.8208	48.5319
3.804	49.464
3.7873	50.0634
3.7708	50.2442
3.7544	49.4726
3.7382	47.7633
3.7221	47.4597
3.7061	47.8785
3.6903	46.9638
3.6746	45.5629
3.659	44.6039
3.6436	44.6345
3.6283	44.8423
3.6131	44.2947
3.5981	43.7606
3.5832	44.3694
3.5684	45.3271
3.5537	46.0126
3.5391	46.2327
3.5247	46.1795
3.5104	46.3823
3.4962	46.8405
3.4821	47.3769
3.4681	47.3578
3.4543	47.0689
3.4405	46.2958
3.4269	45.4689
3.4133	44.3576
3.3999	44.2035
3.3866	43.7026
3.3733	42.9026
3.3602	42.1044
3.3472	41.0056
3.3343	39.5109
3.3215	37.874
3.3088	36.9779
3.2961	36.3348
3.2836	35.6687
3.2712	35.3265
3.2588	34.368
3.2466	33.1662
3.2345	32.0971
3.2224	31.5073
3.2104	30.2962
3.1985	28.4789
3.1867	26.407
3.175	25.5589
3.1634	25.5466
3.1519	25.4614
3.1404	24.9849
3.129	24.323
3.1178	23.329
3.1065	22.089
3.0954	21.9567
3.0844	21.5497
3.0734	21.7639
3.0625	21.4271
3.0517	20.1013
3.041	19.2267
3.0303	17.738
3.0197	16.189
3.0092	14.3648
2.9987	12.5992
2.9884	11.1013
2.9781	11.0043
2.9678	10.6325
2.9577	9.8849
2.9476	9.2199
2.9376	10.0866
2.9276	9.2489
2.9177	7.4316
2.9079	5.9656
2.8982	4.407
2.8885	4.1282
2.8789	3.9107
2.8693	4.0997
2.8598	4.6237
2.8504	2.6947
2.841	4.6649
2.8317	8.0314
2.8224	10.754
2.8133	11.9395
2.8041	12.3079
2.7951	11.7998
2.786	11.3081
2.7771	12.0149
2.7682	14.1644
2.7594	16.2922
2.7506	19.6485
2.7418	23.4168
2.7332	26.6517
2.7246	30.8378
2.716	32.0604
2.7075	34.5271
2.699	36.3934
2.6906	37.3146
2.6823	38.2972
2.674	39.0063
2.6657	41.078
2.6575	40.7207
2.6494	43.0073
2.6413	43.0071
2.6332	40.2383
2.6252	37.5311
2.6173	35.7932
2.6094	33.3743
2.6015	33.0516
2.5937	35.5221
2.5859	34.025
2.5782	32.1444
2.5706	31.1937
2.5629	32.7034
2.5554	33.0342
2.5478	34.8814
2.5403	35.0015
2.5329	33.5986
2.5255	33.5317
2.5181	37.1977
2.5108	40.6897
2.5035	41.3998
2.4963	41.4678
2.4891	41.7185
2.482	41.6169
2.4749	40.8103
2.4678	42.0406
2.4608	44.8882
2.4538	45.5344
2.4468	46.9885
2.4399	46.3592
2.4331	42.7435
2.4262	40.6003
2.4194	37.2891
2.4127	33.8666
2.4059	32.3339
2.3993	31.1568
2.3926	27.9873
2.386	27.298
2.3795	27.6734
2.3729	27.9004
2.3664	24.2141
2.36	21.8662
2.3535	23.5614
2.3471	28.4309
2.3408	30.8386
2.3345	27.1035
2.3282	27.5412
2.3219	37.5508
2.3157	49.6757
2.3095	55.3723
2.3034	55.3092
2.2972	51.797
2.2911	50.4972
2.2851	49.0247
2.279	49.1379
2.2731	51.6322
2.2671	55.2652
2.2612	56.9258
2.2553	57.5274
2.2494	55.2899
2.2435	51.3875
2.2377	49.0227
2.232	48.3181
2.2262	52.4163
2.2205	56.479
2.2148	59.1088
2.2091	64.2837
2.2035	68.623
2.1979	70.7388
2.1923	72.0124
2.1868	72.7767
2.1812	73.3202
2.1758	73.9379
2.1703	74.4635
2.1649	74.9604
2.1595	75.4452
2.1541	75.5014
2.1487	75.6999
2.1434	76.3074
2.1381	76.9269
2.1328	76.9589
2.1275	76.7703
2.1223	77.1309
2.1171	77.5628
2.112	77.6804
2.1068	78.3183
2.1017	78.2276
2.0966	78.5194
2.0915	78.9796
2.0865	79.1866
2.0814	79.3877
2.0764	79.2874
2.0715	79.5414
2.0665	79.4932
2.0616	79.3179
2.0567	79.6744
2.0518	79.6833
2.0469	79.7474
2.0421	79.5277
2.0373	79.4918
2.0325	79.3158
2.0277	79.2475
2.0229	79.1516
2.0182	79.1171
2.0135	79.0081
2.0088	79.2625
2.0042	79.2737
