Name: Corundum Al_2O_3
Type: Mineral
Class: Oxide
Subclass: None
Particle Size: Fine
Sample No.: O-15A
Owner: JPL
Wavelength Range: TIR
Origin: N/A
Description: Synthetic corundum.Particle size was 0-45um.Collected by JPL Original ASTER Spectral Library name was jpl.nicolet.mineral.oxide.none.fine.o15a.spectrum.txt
Measurement: Hemispherical reflectance
X Units: Wavelength (micrometers)
Y Units: Reflectance (percent)
wavelength	value
15.3853	4.7526
15.1161	4.577
14.8563	4.6321
14.6052	4.3066
14.3624	4.088
14.1276	4.1635
13.9004	4.3044
13.6803	3.8928
13.4671	3.9894
13.2604	3.9141
13.06	3.912
12.8656	3.978
12.6769	3.9356
12.4936	3.8998
12.3155	3.9877
12.1425	4.0145
11.9742	4.2898
11.8106	4.417
11.6513	4.2478
11.4963	4.6536
11.3454	4.8775
11.1983	4.5796
11.0551	3.7897
10.9154	3.1886
10.7793	2.2373
10.6465	1.7339
10.5169	1.1435
10.3904	0.9158
10.267	0.6157
10.1464	0.5302
10.0287	0.319
9.9136	0.2404
9.8012	0.0767
9.6913	0.1799
9.5838	0.2376
9.4787	0.2144
9.3758	0.3785
9.2752	0.3577
9.1767	0.3455
9.0803	0.5531
8.9858	0.8098
8.8934	1.0271
8.8028	1.0758
8.714	1.5312
8.627	1.8696
8.5417	2.2829
8.4581	2.8105
8.3761	3.4036
8.2957	4.0679
8.2169	4.8972
8.1395	5.7799
8.0635	6.2266
7.989	6.7503
7.9158	7.312
7.8439	7.5128
7.7734	7.9276
7.7041	8.5935
7.636	9.4393
7.5691	9.6642
7.5034	9.9815
7.4388	10.5047
7.3753	10.9225
7.3129	9.9676
7.2515	7.7607
7.1912	3.5893
7.1318	4.3046
7.0734	6.3946
7.016	8.6216
6.9595	12.1338
6.9039	15.9995
6.8492	19.1852
6.7953	21.1768
6.7423	20.947
6.6901	21.2173
6.6387	21.7355
6.5881	21.268
6.5382	19.5691
6.4892	17.0796
6.4408	13.431
6.3931	10.9472
6.3462	9.4937
6.2999	8.9295
6.2543	10.5672
6.2094	14.543
6.1651	20.5673
6.1214	26.6198
6.0784	31.3676
6.0359	34.2502
5.994	37.0244
5.9527	39.4363
5.912	42.0777
5.8718	44.4494
5.8322	46.4107
5.7931	47.7603
5.7545	49.3609
5.7165	50.8721
5.6789	51.5293
5.6418	52.3534
5.6052	52.4542
5.5691	52.9974
5.5334	52.7038
5.4982	51.594
5.4635	52.7361
5.4291	54.1405
5.3952	55.0118
5.3618	55.7379
5.3287	55.963
5.2961	56.2691
5.2638	56.5922
5.2319	56.959
5.2004	57.1544
5.1693	57.1944
5.1386	57.074
5.1082	56.9335
5.0782	56.5454
5.0485	56.3916
5.0192	56.6267
4.9902	56.8645
4.9616	56.9139
4.9332	56.895
4.9052	56.7303
4.8776	56.5848
4.8502	56.5154
4.8231	56.3514
4.7963	56.106
4.7699	55.8318
4.7437	56.0945
4.7178	56.3744
4.6922	56.5761
4.6668	56.843
4.6418	57.2266
4.617	57.8341
4.5924	58.2976
4.5681	58.9106
4.5441	59.5695
4.5203	59.9513
4.4968	60.2879
4.4735	60.5362
4.4505	60.7045
4.4277	60.8671
4.4051	60.9281
4.3828	60.8529
4.3607	60.9089
4.3388	60.8079
4.3171	60.7766
4.2956	60.7306
4.2744	60.6735
4.2534	60.6129
4.2325	60.5198
4.2119	60.3952
4.1915	60.1085
4.1712	59.8797
4.1512	59.5229
4.1313	59.06
4.1117	58.424
4.0922	57.756
4.0729	56.7295
4.0538	56.04
4.0349	55.7326
4.0161	55.4131
3.9976	55.0905
3.9792	54.5664
3.9609	54.2698
3.9428	54.1862
3.9249	54.5815
3.9072	55.3573
3.8896	56.1487
3.8722	56.7551
3.8549	57.1951
3.8378	57.3637
3.8208	57.837
3.804	57.9046
3.7873	57.6633
3.7708	57.4073
3.7544	57.0892
3.7382	56.6341
3.7221	56.4175
3.7061	56.0787
3.6903	55.6675
3.6746	55.456
3.659	54.9386
3.6436	54.4289
3.6283	54.0583
3.6131	53.7239
3.5981	53.1635
3.5832	52.5544
3.5684	51.7911
3.5537	51.0168
3.5391	50.438
3.5247	49.4433
3.5104	47.9621
3.4962	47.4992
3.4821	47.3685
3.4681	46.9333
3.4543	46.3119
3.4405	45.7239
3.4269	45.0155
3.4133	44.039
3.3999	43.5159
3.3866	43.297
3.3733	42.6186
3.3602	42.3641
3.3472	42.2531
3.3343	41.9204
3.3215	41.4877
3.3088	40.9441
3.2961	40.31
3.2836	39.6074
3.2712	39.017
3.2588	38.3628
3.2466	37.6549
3.2345	37.0995
3.2224	36.3689
3.2104	35.6778
3.1985	35.0034
3.1867	34.2641
3.175	33.3449
3.1634	32.6263
3.1519	31.6139
3.1404	30.8252
3.129	29.7794
3.1178	28.6118
3.1065	27.5841
3.0954	26.1086
3.0844	24.7681
3.0734	23.0475
3.0625	21.0151
3.0517	19.234
3.041	18.1661
3.0303	18.056
3.0197	18.7353
3.0092	19.8021
2.9987	20.8146
2.9884	21.7122
2.9781	22.5417
2.9678	23.4691
2.9577	24.465
2.9476	25.4364
2.9376	26.3971
2.9276	27.0025
2.9177	27.4903
2.9079	28.0591
2.8982	28.5198
2.8885	28.7139
2.8789	28.3952
2.8693	28.7123
2.8598	29.4779
2.8504	30.6796
2.841	31.9236
2.8317	32.9248
2.8224	33.9142
2.8133	35.0939
2.8041	36.7866
2.7951	39.0235
2.786	41.5295
2.7771	43.7617
2.7682	45.5639
2.7594	47.1306
2.7506	49.6803
2.7418	51.7475
2.7332	52.7199
2.7246	56.5135
2.716	57.4799
2.7075	59.1791
2.699	61.9808
2.6906	66.0448
2.6823	69.3526
2.674	72.2471
2.6657	75.4664
2.6575	77.1316
2.6494	78.6173
2.6413	79.7786
2.6332	80.2804
2.6252	80.7373
2.6173	81.4735
2.6094	81.4461
2.6015	81.655
2.5937	82.5882
2.5859	82.0295
2.5782	82.0709
2.5706	82.3756
2.5629	82.5565
2.5554	82.1703
2.5478	82.4173
2.5403	82.4597
2.5329	82.578
2.5255	82.5279
2.5181	82.7367
2.5108	82.856
2.5035	82.8655
2.4963	83.0044
2.4891	83.2513
2.482	83.3458
2.4749	83.3731
2.4678	83.5063
2.4608	83.6083
2.4538	83.6239
2.4468	83.8468
2.4399	83.9118
2.4331	83.764
2.4262	84.0871
2.4194	84.1545
2.4127	84.1412
2.4059	84.2572
2.3993	84.3843
2.3926	84.3933
2.386	84.3653
2.3795	84.3635
2.3729	84.4015
2.3664	84.2584
2.36	84.1093
2.3535	84.0144
2.3471	84.4864
2.3408	84.5686
2.3345	84.7963
2.3282	84.7061
2.3219	84.9227
2.3157	85.1908
2.3095	85.2995
2.3034	85.2292
2.2972	85.2337
2.2911	85.4452
2.2851	85.4481
2.279	85.5398
2.2731	85.5051
2.2671	85.4953
2.2612	85.4926
2.2553	85.4117
2.2494	85.6598
2.2435	85.6104
2.2377	85.7439
2.232	85.8019
2.2262	86.0755
2.2205	86.1232
2.2148	86.0605
2.2091	86.4307
2.2035	86.2967
2.1979	86.4364
2.1923	86.2893
2.1868	86.5681
2.1812	86.665
2.1758	86.792
2.1703	86.8278
2.1649	86.7814
2.1595	86.8523
2.1541	86.7868
2.1487	87.0136
2.1434	86.8428
2.1381	87.0854
2.1328	86.9634
2.1275	87.4011
2.1223	86.9945
2.1171	87.1917
2.112	87.4526
2.1068	87.3195
2.1017	87.2581
2.0966	87.1318
2.0915	87.2154
2.0865	87.2477
2.0814	87.0061
2.0764	87.2774
2.0715	86.7699
2.0665	87.1915
2.0616	87.15
2.0567	86.9022
2.0518	87.0788
2.0469	87.1153
2.0421	86.9174
2.0373	87.0519
2.0325	87.1208
2.0277	87.1074
2.0229	87.1001
2.0182	87.0142
2.0135	87.2083
2.0088	86.8316
2.0042	87.2575
