Name: Corrensite (Mg,Fe)_9(Si,Al)_8O_20(OH)_10._xH_2O
Type: Mineral
Class: Silicate
Subclass: Phyllosilicate
Particle Size: Coarse
Sample No.: PS-10A
Owner: JPL
Wavelength Range: TIR
Origin: USA, Washington, Packwood
Description: Particle size was 125-500um.Collected by Clay Mineral Society Original ASTER Spectral Library name was jpl.nicolet.mineral.silicate.phyllosilicate.coarse.ps10a.spectrum.txt
Measurement: Hemispherical reflectance
X Units: Wavelength (micrometers)
Y Units: Reflectance (percent)
wavelength	value
15.3853	2.3405
15.1161	2.1223
14.8563	1.7932
14.6052	2.0119
14.3624	1.8535
14.1276	1.9639
13.9004	2.0497
13.6803	2.001
13.4671	2.2136
13.2604	2.3613
13.06	2.1349
12.8656	2.6157
12.6769	2.2653
12.4936	2.1511
12.3155	1.8645
12.1425	2.0697
11.9742	2.3831
11.8106	2.6001
11.6513	2.8072
11.4963	2.983
11.3454	3.1309
11.1983	3.5476
11.0551	3.6284
10.9154	4.0368
10.7793	4.5995
10.6465	4.9883
10.5169	5.509
10.3904	6.0694
10.267	6.3938
10.1464	7.2965
10.0287	8.1354
9.9136	8.7727
9.8012	9.5272
9.6913	9.972
9.5838	9.8065
9.4787	8.794
9.3758	8.6994
9.2752	8.4732
9.1767	7.9595
9.0803	7.5193
8.9858	7.4039
8.8934	7.1429
8.8028	7.0235
8.714	7.1528
8.627	6.7156
8.5417	7.9046
8.4581	8.259
8.3761	8.534
8.2957	8.7164
8.2169	7.9233
8.1395	6.5823
8.0635	4.8582
7.989	3.6126
7.9158	2.7647
7.8439	2.1406
7.7734	1.9235
7.7041	1.8545
7.636	1.728
7.5691	1.5957
7.5034	1.5054
7.4388	1.3764
7.3753	1.4102
7.3129	1.4171
7.2515	1.5111
7.1912	1.4417
7.1318	1.5506
7.0734	1.5889
7.016	1.5959
6.9595	1.5571
6.9039	1.6225
6.8492	1.7139
6.7953	1.6443
6.7423	1.8186
6.6901	1.7318
6.6387	1.7957
6.5881	1.8723
6.5382	1.9532
6.4892	1.8607
6.4408	1.9075
6.3931	1.7945
6.3462	1.7251
6.2999	1.5338
6.2543	1.4022
6.2094	1.3882
6.1651	1.3633
6.1214	1.2043
6.0784	1.3187
6.0359	1.3223
5.994	1.2777
5.9527	1.4678
5.912	1.5039
5.8718	1.6718
5.8322	1.8931
5.7931	1.9509
5.7545	2.0706
5.7165	2.147
5.6789	2.2674
5.6418	2.124
5.6052	2.0876
5.5691	2.0631
5.5334	2.3122
5.4982	2.5951
5.4635	2.7426
5.4291	2.7813
5.3952	2.7679
5.3618	2.6028
5.3287	2.7635
5.2961	2.8381
5.2638	3.0343
5.2319	3.3423
5.2004	3.7211
5.1693	3.8118
5.1386	3.8049
5.1082	4.0605
5.0782	3.9628
5.0485	4.2483
5.0192	4.2447
4.9902	4.5068
4.9616	4.9618
4.9332	5.3021
4.9052	5.7363
4.8776	6.4039
4.8502	6.7021
4.8231	6.982
4.7963	7.1691
4.7699	7.3326
4.7437	7.7269
4.7178	7.9192
4.6922	8.0589
4.6668	8.3741
4.6418	8.8064
4.617	9.3528
4.5924	9.682
4.5681	10.2124
4.5441	10.42
4.5203	10.793
4.4968	11.0471
4.4735	11.2868
4.4505	11.7578
4.4277	12.1926
4.4051	12.8415
4.3828	13.3315
4.3607	13.816
4.3388	14.3016
4.3171	14.7373
4.2956	15.1133
4.2744	15.6007
4.2534	15.9975
4.2325	16.4405
4.2119	17.0447
4.1915	17.3767
4.1712	17.7452
4.1512	18.1517
4.1313	18.646
4.1117	18.9002
4.0922	19.1887
4.0729	19.3742
4.0538	19.5933
4.0349	19.5832
4.0161	19.6961
3.9976	19.7062
3.9792	19.7865
3.9609	20.0461
3.9428	20.2519
3.9249	20.2348
3.9072	20.3681
3.8896	20.2734
3.8722	20.0493
3.8549	19.993
3.8378	19.8724
3.8208	19.8335
3.804	19.715
3.7873	19.5935
3.7708	19.1771
3.7544	18.8838
3.7382	18.5092
3.7221	18.0369
3.7061	17.6785
3.6903	17.3152
3.6746	16.9142
3.659	16.3048
3.6436	15.7725
3.6283	15.3651
3.6131	14.8181
3.5981	14.2281
3.5832	13.6807
3.5684	13.2088
3.5537	12.6292
3.5391	12.008
3.5247	11.5417
3.5104	10.943
3.4962	10.4516
3.4821	10.1313
3.4681	9.6734
3.4543	9.3182
3.4405	8.7571
3.4269	8.3396
3.4133	8.0294
3.3999	7.5232
3.3866	7.0534
3.3733	6.8139
3.3602	6.4701
3.3472	5.9556
3.3343	5.6984
3.3215	5.4305
3.3088	5.1207
3.2961	5.0894
3.2836	4.6892
3.2712	4.6059
3.2588	4.4179
3.2466	3.9935
3.2345	3.99
3.2224	3.5951
3.2104	3.7233
3.1985	3.3678
3.1867	3.283
3.175	3.1468
3.1634	3.0945
3.1519	3.0752
3.1404	2.8911
3.129	2.651
3.1178	2.6708
3.1065	2.5034
3.0954	2.8437
3.0844	2.5543
3.0734	2.435
3.0625	2.5424
3.0517	2.4876
3.041	2.2877
3.0303	2.3508
3.0197	2.2308
3.0092	2.382
2.9987	2.1768
2.9884	2.1515
2.9781	2.1374
2.9678	2.2616
2.9577	2.1503
2.9476	2.0048
2.9376	1.9743
2.9276	2.1668
2.9177	1.9912
2.9079	1.9341
2.8982	2.0107
2.8885	2.0764
2.8789	1.9728
2.8693	2.1482
2.8598	2.1546
2.8504	2.0252
2.841	2.0623
2.8317	1.923
2.8224	2.0966
2.8133	1.914
2.8041	2.132
2.7951	1.9604
2.786	2.1183
2.7771	2.1338
2.7682	2.2384
2.7594	2.4891
2.7506	2.7538
2.7418	3.2422
2.7332	3.9074
2.7246	5.1605
2.716	6.9462
2.7075	10.18
2.699	13.5428
2.6906	15.991
2.6823	18.2749
2.674	20.1025
2.6657	21.3484
2.6575	22.6855
2.6494	23.6753
2.6413	24.2111
2.6332	25.0286
2.6252	25.3673
2.6173	25.658
2.6094	26.1125
2.6015	26.2463
2.5937	26.4355
2.5859	26.7502
2.5782	26.9077
2.5706	27.0021
2.5629	27.1007
2.5554	27.2365
2.5478	27.3402
2.5403	27.4331
2.5329	27.5496
2.5255	27.7413
2.5181	27.8542
2.5108	28.2384
2.5035	28.2889
2.4963	28.5373
2.4891	28.7092
2.482	29.2539
2.4749	29.7009
2.4678	30.3358
2.4608	30.7552
2.4538	31.4586
2.4468	31.8987
2.4399	32.3513
2.4331	32.6353
2.4262	33.0701
2.4194	33.4386
2.4127	33.7353
2.4059	33.7241
2.3993	33.9298
2.3926	34.2233
2.386	34.2197
2.3795	34.3513
2.3729	34.2863
2.3664	34.155
2.36	33.9706
2.3535	33.8187
2.3471	34.0781
2.3408	34.3443
2.3345	34.7188
2.3282	35.2191
2.3219	35.5568
2.3157	35.8465
2.3095	35.9731
2.3034	36.0999
2.2972	36.3625
2.2911	36.738
2.2851	37.4339
2.279	38.191
2.2731	39.08
2.2671	39.6674
2.2612	39.9187
2.2553	40.5451
2.2494	41.2157
2.2435	42.3606
2.2377	43.7842
2.232	44.5873
2.2262	45.5838
2.2205	46.2186
2.2148	46.4543
2.2091	46.7562
2.2035	46.8829
2.1979	47.404
2.1923	47.7052
2.1868	48.3342
2.1812	48.718
2.1758	48.9307
2.1703	49.1188
2.1649	49.1713
2.1595	49.4412
2.1541	49.7957
2.1487	49.9471
2.1434	49.6473
2.1381	49.529
2.1328	49.7
2.1275	49.7157
2.1223	49.4893
2.1171	49.4424
2.112	49.2804
2.1068	49.2347
2.1017	49.2783
2.0966	49.15
2.0915	48.8702
2.0865	48.8696
2.0814	48.7678
2.0764	48.4291
2.0715	48.1753
2.0665	47.6614
2.0616	47.4184
2.0567	47.3944
2.0518	46.8019
2.0469	46.5897
2.0421	46.019
2.0373	45.6015
2.0325	45.4588
2.0277	45.0568
2.0229	44.3931
2.0182	43.9741
2.0135	43.7024
2.0088	43.1693
2.0042	42.8374
