Name: Forsterite Mg_2SiO_4
Type: Mineral
Class: Silicate
Subclass: Nesosilicate
Particle Size: Fine
Sample No.: NS-2A
Owner: JPL
Wavelength Range: VSWIR
Origin: None.
Description: Synthetic forsterite.Particle size was 0-45um.Collected by:  JPL Original ASTER Spectral Library name was jpl.perkin.mineral.silicate.nesosilicate.fine.ns02a.spectrum.txt
Measurement: Hemispherical reflectance
X Units: Wavelength (micrometers)
Y Units: Reflectance (percent)
wavelength	value
2.5	51.4976
2.494	51.3054
2.488	51.2474
2.482	51.2349
2.476	51.3018
2.47	51.2799
2.464	51.4559
2.458	51.4914
2.452	51.4764
2.446	51.5315
2.44	51.5729
2.434	51.6282
2.428	51.6619
2.422	51.7994
2.416	51.761
2.41	51.7626
2.404	51.8551
2.398	51.8882
2.392	52.0135
2.386	52.0136
2.38	52.1221
2.374	52.1099
2.368	52.2157
2.362	52.271
2.356	52.3358
2.35	52.2913
2.344	52.3252
2.338	52.3435
2.332	52.3121
2.326	52.235
2.32	52.2884
2.314	52.3118
2.308	52.2754
2.302	52.2327
2.296	52.2713
2.29	52.2722
2.284	52.27
2.278	52.2711
2.272	52.2799
2.266	52.2104
2.26	52.2499
2.254	52.2986
2.248	52.3044
2.242	52.2724
2.236	52.2976
2.23	52.377
2.224	52.3866
2.218	52.4668
2.212	52.5133
2.206	52.6019
2.2	52.7563
2.194	52.7826
2.188	52.8363
2.182	52.8904
2.176	53.0156
2.17	53.0061
2.164	53.1446
2.158	53.2044
2.152	53.2868
2.146	53.3217
2.14	53.3759
2.134	53.3298
2.128	53.2313
2.122	53.01
2.116	52.946
2.11	52.7989
2.104	52.5587
2.098	52.5023
2.092	52.5429
2.086	52.5749
2.08	52.6201
2.074	52.669
2.068	52.7079
2.062	52.7315
2.056	52.7977
2.05	52.8788
2.044	52.8878
2.038	52.9161
2.032	53.002
2.026	52.9183
2.02	52.9175
2.014	52.9243
2.008	52.9646
2.002	52.9908
1.996	52.9215
1.99	52.9524
1.984	52.8927
1.978	52.8959
1.972	52.8578
1.966	52.8
1.96	52.7809
1.954	52.8556
1.948	52.9266
1.942	52.8694
1.936	52.8755
1.93	52.8607
1.924	52.9558
1.918	52.9769
1.912	53.0041
1.906	53.0666
1.9	53.1212
1.894	53.1588
1.888	53.1836
1.882	53.2087
1.876	53.3174
1.87	53.2733
1.864	53.3415
1.858	53.3531
1.852	53.332
1.846	53.3786
1.84	53.3844
1.834	53.3821
1.828	53.4447
1.822	53.4395
1.816	53.4264
1.81	53.461
1.804	53.479
1.798	53.4868
1.792	53.4963
1.786	53.4842
1.78	53.4146
1.774	53.4728
1.768	53.4393
1.762	53.4903
1.756	53.4462
1.75	53.4757
1.744	53.4959
1.738	53.5206
1.732	53.5769
1.726	53.573
1.72	53.6069
1.714	53.5687
1.708	53.5404
1.702	53.4968
1.696	53.5374
1.69	53.5352
1.684	53.5062
1.678	53.5269
1.672	53.5748
1.666	53.5022
1.66	53.5404
1.654	53.577
1.648	53.4648
1.642	53.5646
1.636	53.6172
1.63	53.5859
1.624	53.5752
1.618	53.5938
1.612	53.5231
1.606	53.6104
1.6	53.6395
1.594	53.5411
1.588	53.5655
1.582	53.5753
1.576	53.5434
1.57	53.61
1.564	53.5259
1.558	53.5955
1.552	53.5526
1.546	53.5514
1.54	53.6374
1.534	53.5945
1.528	53.5143
1.522	53.5745
1.516	53.5201
1.51	53.5767
1.504	53.53
1.498	53.5278
1.492	53.5575
1.486	53.5062
1.48	53.5574
1.474	53.5212
1.468	53.5438
1.462	53.5239
1.456	53.5408
1.45	53.4886
1.444	53.4577
1.438	53.4816
1.432	53.5164
1.426	53.5182
1.42	53.4996
1.414	53.4678
1.408	53.558
1.402	53.6496
1.396	53.6383
1.39	53.6026
1.384	53.632
1.378	53.5345
1.372	53.5317
1.366	53.5519
1.36	53.44
1.354	53.5621
1.348	53.5496
1.342	53.5235
1.336	53.4823
1.33	53.5622
1.324	53.5109
1.318	53.5256
1.312	53.4867
1.306	53.5017
1.3	53.5158
1.294	53.5395
1.288	53.5478
1.282	53.4834
1.276	53.5354
1.27	53.4812
1.264	53.4795
1.258	53.5257
1.252	53.5448
1.246	53.4621
1.24	53.4856
1.234	53.4699
1.228	53.4934
1.222	53.4432
1.216	53.4431
1.21	53.4735
1.204	53.5035
1.198	53.5045
1.192	53.5155
1.186	53.4867
1.18	53.4978
1.174	53.5181
1.168	53.5302
1.162	53.5029
1.156	53.4928
1.15	53.531
1.144	53.5425
1.138	53.5164
1.132	53.5451
1.126	53.5458
1.12	53.5427
1.114	53.5776
1.108	53.5638
1.102	53.621
1.096	53.5281
1.09	53.5253
1.084	53.6502
1.078	53.4805
1.072	53.5436
1.066	53.6031
1.06	53.5223
1.054	53.5832
1.048	53.6014
1.042	53.606
1.036	53.6235
1.03	53.6308
1.024	53.5568
1.018	53.5832
1.012	53.5866
1.006	53.6335
1	53.6001
0.994	53.5619
0.988	53.5921
0.982	53.6543
0.976	53.5912
0.97	53.5812
0.964	53.6265
0.958	53.6102
0.952	53.6194
0.946	53.6194
0.94	53.6348
0.934	53.618
0.928	53.6667
0.922	53.6054
0.916	53.6478
0.91	53.6296
0.904	53.6405
0.898	53.6047
0.892	53.6123
0.886	53.6025
0.88	53.5371
0.874	53.589
0.868	53.5132
0.862	53.5934
0.856	53.3811
0.85	53.4426
0.844	53.477
0.838	53.4706
0.832	53.4752
0.826	53.4943
0.82	53.4963
0.814	53.4955
0.808	53.4746
0.802	53.4986
0.796	53.4799
0.79	53.4437
0.784	53.4714
0.778	53.443
0.772	53.4262
0.766	53.3895
0.76	53.4005
0.754	53.3913
0.748	53.3854
0.742	53.401
0.736	53.3595
0.73	53.3756
0.724	53.3501
0.718	53.352
0.712	53.3639
0.706	53.3464
0.7	53.3642
0.694	53.3353
0.688	53.3413
0.682	53.3231
0.676	53.3076
0.67	53.2886
0.664	53.2813
0.658	53.2734
0.652	53.2697
0.646	53.2575
0.64	53.2434
0.634	53.2216
0.628	53.2138
0.622	53.2048
0.616	53.1918
0.61	53.1834
0.604	53.1608
0.598	53.172
0.592	53.1831
0.586	53.1733
0.58	53.1376
0.574	53.131
0.568	53.0884
0.562	53.0741
0.556	53.0403
0.55	53.0046
0.544	52.9862
0.538	52.9595
0.532	52.9336
0.526	52.9034
0.52	52.876
0.514	52.8331
0.508	52.8025
0.502	52.7603
0.496	52.69
0.49	52.6064
0.484	52.4918
0.478	52.4498
0.472	52.3979
0.466	52.3492
0.46	52.2935
0.454	52.2621
0.448	52.1863
0.442	52.1078
0.436	52.0627
0.43	51.9947
0.424	51.9346
0.418	51.8579
0.412	51.7923
0.406	51.706
0.4	51.5692
