Name: Hematite a-Fe2O3
Type: Mineral
Class: Oxide
Subclass: None
Particle Size: Solid
Sample No.: hematite_1
Owner: JHU
Wavelength Range: TIR
Origin: Frizington, Cumberland, England via the Smithsonian (sampleno. NMNH B7373)
Description: The sample was a 2.5 cm x 2.5 cm x 1 cm sawn plate, deep red in color and weighing 15.3 g.  It appears clean with no impurities in hand sample or microscopically. Sample had sawn surface.(Hematite Group) Original ASTER Spectral Library name was jhu.nicolet.mineral.oxide.none.solid.hemati1.spectrum.txt
Measurement: Bidirectional reflectance
X Units: Wavelength (micrometers)
Y Units: Reflectance (percent)
wavelength	value
25.0442	15.6162
24.3388	15.9836
23.6719	19.8198
23.0407	25.5939
22.4422	27.5336
21.8741	27.9816
21.334	28.2353
20.8199	26.6471
20.33	18.9614
19.8627	14.7431
19.4163	21.2558
18.9896	27.6662
18.5812	31.3698
18.19	33.0263
17.815	33.4767
17.4551	33.0795
17.1094	32.0119
16.7772	31.1703
16.4576	30.1186
16.15	28.6762
15.8537	26.7477
15.568	24.905
15.2925	21.4768
15.0265	14.6325
14.7697	7.3286
14.5214	3.4028
14.2814	2.6208
14.0492	2.6948
13.8244	3.081
13.6067	3.5576
13.3957	4.1172
13.1912	4.5586
12.9929	4.9912
12.8004	5.292
12.6135	5.5549
12.432	5.8022
12.2557	6.0329
12.0843	6.2339
11.9176	6.3899
11.7555	6.5041
11.5977	6.6152
11.444	6.7114
11.2944	6.9033
11.1487	7.104
11.0067	6.9846
10.8682	7.0188
10.7332	7.1164
10.6015	7.2038
10.473	7.2456
10.3476	7.2632
10.2251	7.302
10.1056	7.3423
9.9887	7.3957
9.8746	7.4013
9.763	7.4138
9.6539	7.4009
9.5472	7.4177
9.4429	7.4316
9.3408	7.4324
9.2409	7.4624
9.1431	7.4961
9.0474	7.5605
8.9536	7.6223
8.8618	7.666
8.7718	7.6833
8.6837	7.7104
8.5973	7.7717
8.5126	7.8286
8.4295	7.8889
8.3481	7.945
8.2682	8.0088
8.1898	8.0757
8.1129	8.1311
8.0374	8.1972
7.9634	8.24
7.8906	8.2717
7.8192	8.3293
7.7491	8.3554
7.6802	8.3791
7.6126	8.376
7.5461	8.3725
7.4807	8.3779
7.4165	8.3899
7.3534	8.3808
7.2914	8.3789
7.2303	8.374
7.1703	8.393
7.1113	8.438
7.0533	8.4538
6.9962	8.5261
6.94	8.5398
6.8847	8.541
6.8302	8.5346
6.7767	8.5493
6.7239	8.5578
6.672	8.5696
6.6209	8.6013
6.5705	8.5896
6.5209	8.625
6.4721	8.6399
6.424	8.6179
6.3766	8.665
6.3299	8.5827
6.2838	8.4704
6.2385	8.4121
6.1937	8.3435
6.1496	8.3054
6.1062	8.251
6.0633	8.2654
6.0211	8.2981
5.9794	8.3291
5.9383	8.3169
5.8978	8.3594
5.8578	8.4404
5.8184	8.4221
5.7794	8.5022
5.741	8.5141
5.7031	8.5386
5.6657	8.5434
5.6288	8.5466
5.5924	8.5478
5.5564	8.5263
5.5209	8.5066
5.4859	8.5012
5.4513	8.5544
5.4171	8.5593
5.3833	8.571
5.35	8.5498
5.3171	8.5688
5.2846	8.5637
5.2524	8.5491
5.2207	8.5371
5.1893	8.5285
5.1584	8.5193
5.1277	8.5154
5.0975	8.5041
5.0676	8.4914
5.038	8.4983
5.0088	8.4985
4.98	8.4992
4.9514	8.4868
4.9232	8.4939
4.8953	8.4804
4.8678	8.4819
4.8405	8.4712
4.8135	8.4765
4.7868	8.4651
4.7605	8.4695
4.7344	8.4692
4.7086	8.4436
4.6831	8.4438
4.6578	8.4304
4.6328	8.4407
4.6081	8.4365
4.5837	8.4321
4.5595	8.4336
4.5356	8.4233
4.5119	8.4216
4.4884	8.4504
4.4652	8.4421
4.4423	8.4477
4.4196	8.4507
4.3971	8.459
4.3748	8.4653
4.3528	8.4538
4.331	8.4499
4.3094	8.4472
4.288	8.4475
4.2668	8.4411
4.2458	8.4514
4.2251	8.4443
4.2045	8.4504
4.1841	8.449
4.164	8.4492
4.144	8.4477
4.1242	8.4397
4.1046	8.4355
4.0852	8.4377
4.066	8.4258
4.047	8.4082
4.0281	8.3904
4.0094	8.3586
3.9909	8.3315
3.9725	8.2783
3.9544	8.2634
3.9363	8.2507
3.9185	8.2478
3.9008	8.2546
3.8833	8.2441
3.8659	8.239
3.8487	8.2424
3.8316	8.2302
3.8147	8.2087
3.7979	8.1824
3.7813	8.1838
3.7648	8.1831
3.7485	8.1804
3.7323	8.1721
3.7162	8.154
3.7003	8.1338
3.6845	8.1257
3.6689	8.1054
3.6534	8.0893
3.638	8.072
3.6227	8.0481
3.6076	8.021
3.5926	8.0085
3.5777	7.9912
3.563	7.9658
3.5484	7.9321
3.5338	7.9001
3.5195	7.8567
3.5052	7.8025
3.491	7.769
3.477	7.7478
3.463	7.7136
3.4492	7.6738
3.4355	7.6506
3.4219	7.6196
3.4084	7.6223
3.395	7.6257
3.3817	7.6186
3.3685	7.647
3.3554	7.6389
3.3425	7.6208
3.3296	7.5915
3.3168	7.5722
3.3041	7.5556
3.2915	7.5705
3.279	7.5727
3.2666	7.5432
3.2543	7.5249
3.2421	7.5115
3.23	7.4822
3.218	7.4741
3.206	7.4519
3.1942	7.4211
3.1824	7.4179
3.1707	7.3913
3.1591	7.3857
3.1476	7.355
3.1362	7.3279
3.1249	7.3025
3.1136	7.2949
3.1024	7.2834
3.0913	7.2441
3.0803	7.2283
3.0694	7.2053
3.0585	7.1865
3.0477	7.185
3.037	7.1631
3.0264	7.1662
3.0158	7.1308
3.0053	7.1057
2.9949	7.0925
2.9845	7.0774
2.9743	7.0688
2.9641	7.0249
2.9539	7.0159
2.9439	6.9902
2.9339	6.977
2.9239	6.9775
2.9141	6.9724
2.9043	6.9778
2.8946	6.9765
2.8849	6.9758
2.8753	6.9975
2.8658	6.9958
2.8563	6.9836
2.8469	6.9946
2.8375	7.0056
2.8282	7.0171
2.819	7.0456
2.8098	7.0747
2.8007	7.1015
2.7917	7.1213
2.7827	7.1567
2.7738	7.1958
2.7649	7.2256
2.7561	7.2698
2.7473	7.396
2.7386	7.4641
2.7299	7.5893
2.7213	7.6638
2.7128	7.7466
2.7043	7.8091
2.6959	7.841
2.6875	7.8686
2.6791	7.8652
2.6709	7.8657
2.6626	7.9253
2.6545	7.9062
2.6463	7.9221
2.6382	7.9262
2.6302	7.893
2.6222	7.9023
2.6143	7.8906
2.6064	7.8518
2.5986	7.8891
2.5908	7.8794
2.583	7.8847
2.5753	7.8657
2.5677	7.8391
2.5601	7.8476
2.5525	7.8127
2.545	7.8528
2.5375	7.8464
2.5301	7.7915
2.5227	7.8064
2.5154	7.7964
2.5081	7.8022
2.5008	7.8244
2.4936	7.7866
2.4864	7.7724
2.4793	7.7798
2.4722	7.7627
2.4651	7.7529
2.4581	7.7326
2.4511	7.7505
2.4442	7.7253
2.4373	7.7304
2.4305	7.7195
2.4236	7.7148
2.4169	7.7212
2.4101	7.7383
2.4034	7.6938
2.3967	7.6987
2.3901	7.6802
2.3835	7.6826
2.377	7.7168
2.3704	7.6616
2.364	7.6987
2.3575	7.6758
2.3511	7.6689
2.3447	7.6572
2.3384	7.6611
2.3321	7.6074
2.3258	7.6523
2.3195	7.6548
2.3133	7.6789
2.3071	7.6736
2.301	7.6762
2.2949	7.6623
2.2888	7.6477
2.2828	7.6426
2.2767	7.6501
2.2708	7.664
2.2648	7.6557
2.2589	7.6811
2.253	7.6272
2.2471	7.6379
2.2413	7.665
2.2355	7.6867
2.2297	7.6333
2.224	7.6516
2.2183	7.6762
2.2126	7.6584
2.207	7.6755
2.2013	7.6394
2.1957	7.6543
2.1902	7.7397
2.1846	7.6762
2.1791	7.6572
2.1736	7.6289
2.1682	7.6909
2.1628	7.7124
2.1574	7.7134
2.152	7.6875
2.1466	7.6584
2.1413	7.6938
2.136	7.7444
2.1308	7.6655
2.1255	7.7219
2.1203	7.751
2.1151	7.7143
2.11	7.7109
2.1048	7.7007
2.0997	7.6953
2.0946	7.7182
2.0895	7.7248
2.0845	7.7168
2.0795	7.759
