Name: Pyrolusite MnO_2
Type: Mineral
Class: Oxide
Subclass: None
Particle Size: Fine
Sample No.: O-6A
Owner: JPL
Wavelength Range: TIR
Origin: Mexico, Chihuahua
Description: Particle size was 0-45um.Collected by Grieger's Inc. Original ASTER Spectral Library name was jpl.nicolet.mineral.oxide.none.fine.o06a.spectrum.txt
Measurement: Hemispherical reflectance
X Units: Wavelength (micrometers)
Y Units: Reflectance (percent)
wavelength	value
15.3853	10.1617
15.1161	9.6601
14.8563	8.5462
14.6052	7.6371
14.3624	6.5036
14.1276	5.0148
13.9004	3.5809
13.6803	2.9024
13.4671	2.3659
13.2604	1.7503
13.06	1.9775
12.8656	2.9507
12.6769	3.5566
12.4936	4.6637
12.3155	5.6938
12.1425	6.499
11.9742	7.1031
11.8106	7.7497
11.6513	8.2502
11.4963	8.9096
11.3454	9.2062
11.1983	9.6946
11.0551	10.0156
10.9154	10.4846
10.7793	10.6408
10.6465	11.0246
10.5169	11.2206
10.3904	11.3607
10.267	11.3764
10.1464	11.6103
10.0287	11.774
9.9136	12.0634
9.8012	12.516
9.6913	12.6071
9.5838	12.5552
9.4787	12.2957
9.3758	11.966
9.2752	11.7245
9.1767	10.8795
9.0803	10.1748
8.9858	9.7141
8.8934	10.4331
8.8028	10.8289
8.714	11.1574
8.627	11.7049
8.5417	12.2892
8.4581	12.8034
8.3761	13.4035
8.2957	13.921
8.2169	14.1995
8.1395	14.5449
8.0635	14.9071
7.989	15.039
7.9158	15.0786
7.8439	14.927
7.7734	14.6999
7.7041	14.4614
7.636	14.7955
7.5691	15.3179
7.5034	15.7366
7.4388	16.4184
7.3753	16.7105
7.3129	17.0499
7.2515	17.1025
7.1912	17.431
7.1318	17.5005
7.0734	17.5195
7.016	17.6287
6.9595	17.8478
6.9039	17.7806
6.8492	17.8507
6.7953	18.1255
6.7423	17.9025
6.6901	18.1525
6.6387	18.7389
6.5881	18.3692
6.5382	18.3384
6.4892	18.9139
6.4408	18.2417
6.3931	18.1752
6.3462	18.3223
6.2999	17.6974
6.2543	17.6956
6.2094	17.3282
6.1651	17.9731
6.1214	18.1687
6.0784	18.3362
6.0359	18.2573
5.994	18.5313
5.9527	18.4371
5.912	18.4221
5.8718	18.618
5.8322	18.7373
5.7931	18.5809
5.7545	18.6512
5.7165	18.8357
5.6789	18.6757
5.6418	18.875
5.6052	18.496
5.5691	18.5982
5.5334	18.5561
5.4982	18.5579
5.4635	18.6326
5.4291	18.5962
5.3952	18.5639
5.3618	18.4326
5.3287	18.549
5.2961	18.5093
5.2638	18.5321
5.2319	18.5345
5.2004	18.3578
5.1693	18.5584
5.1386	18.4085
5.1082	18.5312
5.0782	18.5094
5.0485	18.4182
5.0192	18.3967
4.9902	18.4709
4.9616	18.3485
4.9332	18.3561
4.9052	18.2843
4.8776	18.3958
4.8502	18.3957
4.8231	18.3142
4.7963	18.2499
4.7699	18.263
4.7437	18.2693
4.7178	18.2166
4.6922	18.276
4.6668	18.1788
4.6418	18.1596
4.617	18.2023
4.5924	18.1225
4.5681	18.1956
4.5441	18.1522
4.5203	18.1866
4.4968	18.0493
4.4735	18.1224
4.4505	18.0228
4.4277	18.0787
4.4051	18.0248
4.3828	18.0978
4.3607	18.0098
4.3388	18.0292
4.3171	18.0875
4.2956	17.9396
4.2744	17.9098
4.2534	17.9555
4.2325	17.9723
4.2119	17.9238
4.1915	17.8235
4.1712	17.962
4.1512	17.957
4.1313	17.8328
4.1117	17.8046
4.0922	17.8219
4.0729	17.7594
4.0538	17.7578
4.0349	17.754
4.0161	17.7118
3.9976	17.7911
3.9792	17.7623
3.9609	17.7082
3.9428	17.587
3.9249	17.5555
3.9072	17.5724
3.8896	17.5387
3.8722	17.5284
3.8549	17.5163
3.8378	17.4353
3.8208	17.5273
3.804	17.5036
3.7873	17.3977
3.7708	17.4697
3.7544	17.3161
3.7382	17.366
3.7221	17.1966
3.7061	17.2128
3.6903	17.1204
3.6746	17.2773
3.659	17.1615
3.6436	17.1234
3.6283	17.0818
3.6131	17.1204
3.5981	16.9123
3.5832	16.9597
3.5684	16.9282
3.5537	16.8927
3.5391	16.8661
3.5247	16.8592
3.5104	16.7289
3.4962	16.7802
3.4821	16.7487
3.4681	16.6354
3.4543	16.5247
3.4405	16.6594
3.4269	16.4507
3.4133	16.5403
3.3999	16.3676
3.3866	16.2976
3.3733	16.3087
3.3602	16.1532
3.3472	16.1488
3.3343	16.0924
3.3215	15.9538
3.3088	16.0455
3.2961	15.7907
3.2836	15.754
3.2712	15.7653
3.2588	15.6864
3.2466	15.7402
3.2345	15.7144
3.2224	15.6177
3.2104	15.6316
3.1985	15.4898
3.1867	15.5243
3.175	15.6051
3.1634	15.4602
3.1519	15.3632
3.1404	15.2558
3.129	15.275
3.1178	15.3684
3.1065	15.3058
3.0954	15.2991
3.0844	15.1673
3.0734	15.1014
3.0625	15.1371
3.0517	15.0456
3.041	15.0675
3.0303	15.0194
3.0197	14.9103
3.0092	14.8976
2.9987	14.8293
2.9884	14.576
2.9781	14.4941
2.9678	14.3587
2.9577	13.9454
2.9476	13.6344
2.9376	13.5723
2.9276	14.0554
2.9177	14.3469
2.9079	14.4833
2.8982	14.5121
2.8885	14.5953
2.8789	14.6574
2.8693	14.7851
2.8598	14.6594
2.8504	14.5948
2.841	14.7112
2.8317	14.5187
2.8224	14.6862
2.8133	14.9964
2.8041	15.2883
2.7951	15.2712
2.786	15.5403
2.7771	15.4767
2.7682	15.5405
2.7594	15.5271
2.7506	15.4108
2.7418	15.8569
2.7332	15.482
2.7246	15.6413
2.716	15.412
2.7075	15.575
2.699	15.5246
2.6906	15.3827
2.6823	15.4548
2.674	15.2919
2.6657	15.9719
2.6575	15.3606
2.6494	15.4497
2.6413	15.3383
2.6332	15.3422
2.6252	15.4067
2.6173	15.6563
2.6094	15.3831
2.6015	15.2533
2.5937	15.8062
2.5859	15.2934
2.5782	15.2417
2.5706	15.2965
2.5629	15.4384
2.5554	15.1716
2.5478	15.1921
2.5403	14.9827
2.5329	15.2187
2.5255	15.0553
2.5181	15.0139
2.5108	14.8687
2.5035	14.9796
2.4963	14.829
2.4891	14.9496
2.482	14.9114
2.4749	14.8529
2.4678	14.7939
2.4608	14.6828
2.4538	14.7525
2.4468	14.8574
2.4399	14.7527
2.4331	14.7109
2.4262	14.7649
2.4194	14.7368
2.4127	14.7577
2.4059	14.6907
2.3993	14.7339
2.3926	14.6119
2.386	14.5498
2.3795	14.513
2.3729	14.5367
2.3664	14.6036
2.36	14.6377
2.3535	14.5998
2.3471	14.3874
2.3408	14.4252
2.3345	14.4723
2.3282	14.4758
2.3219	14.0957
2.3157	14.4059
2.3095	14.451
2.3034	14.3602
2.2972	14.1331
2.2911	14.3956
2.2851	14.2831
2.279	14.0966
2.2731	14.2105
2.2671	14.1571
2.2612	14.1083
2.2553	14.0515
2.2494	13.9443
2.2435	14.0957
2.2377	14.102
2.232	14.0447
2.2262	14.019
2.2205	13.8683
2.2148	13.8531
2.2091	14.0903
2.2035	13.8158
2.1979	13.9882
2.1923	13.7442
2.1868	13.8806
2.1812	13.7418
2.1758	13.9746
2.1703	14.0758
2.1649	13.9262
2.1595	13.5756
2.1541	13.8659
2.1487	13.6675
2.1434	13.7058
2.1381	13.8289
2.1328	13.6019
2.1275	13.4055
2.1223	13.567
2.1171	13.9449
2.112	13.5093
2.1068	13.5896
2.1017	13.2629
2.0966	13.4455
2.0915	13.3029
2.0865	13.5722
2.0814	13.2991
2.0764	13.0589
2.0715	13.1364
2.0665	13.3416
2.0616	12.9518
2.0567	13.4169
2.0518	13.2117
2.0469	13.0694
2.0421	13.174
2.0373	13.2045
2.0325	13.2655
2.0277	13.4136
2.0229	12.9913
2.0182	13.2538
2.0135	13.2984
2.0088	13.0821
2.0042	13.2784
