Name: Anhydrite CaSO_4
Type: Mineral
Class: Sulfate
Subclass: None
Particle Size: Medium
Sample No.: SO-1A
Owner: JPL
Wavelength Range: TIR
Origin: Canada, Nova Scotia
Description: Particle size was 45-125um.Collected by Ward's Original ASTER Spectral Library name was jpl.nicolet.mineral.sulfate.none.medium.so01a.spectrum.txt
Measurement: Hemispherical reflectance
X Units: Wavelength (micrometers)
Y Units: Reflectance (percent)
wavelength	value
15.3853	6.1934
15.1161	5.6619
14.8563	12.5575
14.6052	17.0016
14.3624	13.2025
14.1276	4.1468
13.9004	4.7376
13.6803	6.2359
13.4671	6.7359
13.2604	8.1317
13.06	9.8071
12.8656	11.4607
12.6769	13.3105
12.4936	14.61
12.3155	14.7239
12.1425	13.4843
11.9742	12.8362
11.8106	11.7395
11.6513	13.0668
11.4963	12.5303
11.3454	10.7942
11.1983	9.5924
11.0551	10.2655
10.9154	10.6022
10.7793	11.1771
10.6465	10.0358
10.5169	9.7415
10.3904	9.3535
10.267	8.5596
10.1464	7.9433
10.0287	7.3392
9.9136	6.5087
9.8012	6.6326
9.6913	7.2344
9.5838	7.1553
9.4787	7.9098
9.3758	8.1311
9.2752	8.7101
9.1767	10.2641
9.0803	14.1275
8.9858	17.4626
8.8934	23.1943
8.8028	30.1781
8.714	38.2628
8.627	40.8927
8.5417	38.6967
8.4581	37.7926
8.3761	39.5049
8.2957	38.1083
8.2169	25.5668
8.1395	20.4018
8.0635	14.079
7.989	5.238
7.9158	1.9004
7.8439	0.597
7.7734	0.4245
7.7041	0.3559
7.636	0.4425
7.5691	0.6384
7.5034	0.9785
7.4388	1.4334
7.3753	2.0605
7.3129	2.897
7.2515	3.8066
7.1912	4.6745
7.1318	5.0851
7.0734	6.3444
7.016	6.545
6.9595	6.92
6.9039	3.6737
6.8492	8.3807
6.7953	11.6961
6.7423	13.5154
6.6901	16.1857
6.6387	23.6979
6.5881	24.0373
6.5382	20.6597
6.4892	17.4906
6.4408	17.8437
6.3931	22.0736
6.3462	22.8218
6.2999	23.0726
6.2543	19.8599
6.2094	14.4289
6.1651	7.207
6.1214	9.5811
6.0784	14.8811
6.0359	17.08
5.994	18.4531
5.9527	20.4075
5.912	19.8522
5.8718	25.8609
5.8322	32.3626
5.7931	30.2781
5.7545	34.0671
5.7165	36.2176
5.6789	39.3863
5.6418	44.1293
5.6052	42.3199
5.5691	39.6683
5.5334	40.9071
5.4982	42.9476
5.4635	45.9608
5.4291	48.7798
5.3952	51.3757
5.3618	52.6783
5.3287	53.264
5.2961	53.9936
5.2638	54.3267
5.2319	55.295
5.2004	56.3927
5.1693	56.5692
5.1386	56.2979
5.1082	55.0972
5.0782	54.0237
5.0485	53.2792
5.0192	52.442
4.9902	51.5624
4.9616	50.0054
4.9332	43.6414
4.9052	47.5706
4.8776	48.046
4.8502	46.6029
4.8231	44.3041
4.7963	40.6461
4.7699	33.7277
4.7437	24.4592
4.7178	9.1116
4.6922	2.8802
4.6668	3.1441
4.6418	5.383
4.617	7.2968
4.5924	9.73
4.5681	12.4233
4.5441	11.2129
4.5203	9.5717
4.4968	8.2039
4.4735	6.6478
4.4505	7.1418
4.4277	9.9652
4.4051	13.0679
4.3828	13.1074
4.3607	12.5373
4.3388	12.81
4.3171	15.4108
4.2956	15.6614
4.2744	15.961
4.2534	20.3832
4.2325	26.8898
4.2119	27.1892
4.1915	27.7775
4.1712	34.8668
4.1512	44.9142
4.1313	48.7099
4.1117	51.1805
4.0922	52.976
4.0729	54.4787
4.0538	55.762
4.0349	56.6741
4.0161	57.1471
3.9976	56.4403
3.9792	53.4805
3.9609	55.4781
3.9428	57.3043
3.9249	58.3487
3.9072	60.1453
3.8896	61.7397
3.8722	62.702
3.8549	64.2879
3.8378	65.1296
3.8208	64.8956
3.804	63.3186
3.7873	63.8429
3.7708	66.0423
3.7544	67.5106
3.7382	68.0401
3.7221	68.2508
3.7061	67.9281
3.6903	67.0165
3.6746	67.2794
3.659	66.7871
3.6436	66.016
3.6283	65.7366
3.6131	65.3902
3.5981	64.8883
3.5832	64.1368
3.5684	63.2988
3.5537	62.2197
3.5391	61.2122
3.5247	59.6168
3.5104	57.8291
3.4962	56.0316
3.4821	54.5336
3.4681	53.4688
3.4543	52.307
3.4405	52.1886
3.4269	51.6252
3.4133	50.687
3.3999	49.7252
3.3866	48.7495
3.3733	47.5403
3.3602	46.2394
3.3472	44.8916
3.3343	44.055
3.3215	42.5472
3.3088	41.0382
3.2961	39.9533
3.2836	38.4739
3.2712	37.0798
3.2588	35.681
3.2466	34.1941
3.2345	32.6485
3.2224	31.1891
3.2104	29.5894
3.1985	27.9968
3.1867	26.0881
3.175	24.8749
3.1634	23.8487
3.1519	22.8044
3.1404	21.5564
3.129	20.6963
3.1178	19.5922
3.1065	18.7263
3.0954	17.8085
3.0844	17.0621
3.0734	16.5185
3.0625	16.1453
3.0517	15.779
3.041	15.3467
3.0303	14.9137
3.0197	14.3142
3.0092	14.0157
2.9987	13.2933
2.9884	12.8906
2.9781	12.5267
2.9678	11.997
2.9577	11.76
2.9476	11.3441
2.9376	10.9738
2.9276	10.8551
2.9177	10.7366
2.9079	10.345
2.8982	9.9835
2.8885	9.2076
2.8789	9.5719
2.8693	9.2097
2.8598	9.9359
2.8504	11.3457
2.841	12.0216
2.8317	12.2705
2.8224	13.7834
2.8133	14.6292
2.8041	15.5428
2.7951	15.2795
2.786	17.9159
2.7771	19.4054
2.7682	21.9178
2.7594	23.7761
2.7506	27.9695
2.7418	32.8727
2.7332	37.3392
2.7246	43.1621
2.716	46.7781
2.7075	50.9799
2.699	54.4605
2.6906	56.9896
2.6823	59.1641
2.674	60.6052
2.6657	63.7762
2.6575	62.8646
2.6494	63.8997
2.6413	64.9305
2.6332	65.9786
2.6252	66.2667
2.6173	67.5858
2.6094	67.1132
2.6015	67.3062
2.5937	68.9861
2.5859	67.5998
2.5782	67.4222
2.5706	67.669
2.5629	68.024
2.5554	67.2976
2.5478	67.6215
2.5403	67.4358
2.5329	67.63
2.5255	67.7771
2.5181	67.6808
2.5108	67.3346
2.5035	67.3043
2.4963	67.2284
2.4891	67.1606
2.482	67.1025
2.4749	67.3559
2.4678	67.6857
2.4608	67.6015
2.4538	67.9534
2.4468	68.515
2.4399	68.8777
2.4331	69.0892
2.4262	69.7635
2.4194	70.1721
2.4127	70.9524
2.4059	71.5911
2.3993	72.7105
2.3926	73.7092
2.386	74.5279
2.3795	75.2776
2.3729	76.1895
2.3664	76.5628
2.36	77.0935
2.3535	77.4767
2.3471	77.8719
2.3408	78.398
2.3345	78.8795
2.3282	79.1728
2.3219	79.6254
2.3157	79.6703
2.3095	79.9018
2.3034	79.9128
2.2972	79.9453
2.2911	79.9903
2.2851	79.8698
2.279	79.903
2.2731	79.5397
2.2671	79.5554
2.2612	79.6904
2.2553	79.753
2.2494	79.9423
2.2435	79.9075
2.2377	79.8201
2.232	79.5804
2.2262	79.2029
2.2205	78.8457
2.2148	78.7911
2.2091	79.0319
2.2035	79.1802
2.1979	79.2573
2.1923	79.3485
2.1868	79.46
2.1812	79.4948
2.1758	79.5708
2.1703	79.8681
2.1649	79.8942
2.1595	79.8904
2.1541	79.8998
2.1487	80.0896
2.1434	80.0548
2.1381	80.4016
2.1328	80.4046
2.1275	80.5445
2.1223	80.7027
2.1171	80.6064
2.112	80.4841
2.1068	80.7161
2.1017	80.9017
2.0966	80.8647
2.0915	80.9045
2.0865	80.9886
2.0814	80.9808
2.0764	81.152
2.0715	80.7947
2.0665	80.7688
2.0616	80.8093
2.0567	80.6006
2.0518	80.3209
2.0469	80.5
2.0421	80.1093
2.0373	79.953
2.0325	79.4325
2.0277	79.4197
2.0229	79.1328
2.0182	78.6896
2.0135	77.8391
2.0088	77.4368
2.0042	76.4044
