Name: Natrolite Na_2Al_2Si_3O_10.2H_2O
Type: Mineral
Class: Silicate
Subclass: Tectosilicate
Particle Size: Medium
Sample No.: TS-8A
Owner: JPL
Wavelength Range: VSWIR
Origin: India, Maharashtra, Poona.
Description: Particle size was 45-125um.Collected by:  Ward's Original ASTER Spectral Library name was jpl.perkin.mineral.silicate.tectosilicate.medium.ts08a.spectrum.txt
Measurement: Hemispherical reflectance
X Units: Wavelength (micrometers)
Y Units: Reflectance (percent)
wavelength	value
2.5	38.7387
2.494	38.0457
2.488	36.6883
2.482	34.7031
2.476	32.3178
2.47	30.0133
2.464	28.4786
2.458	27.7686
2.452	27.4727
2.446	27.0164
2.44	25.6915
2.434	24.3282
2.428	23.7806
2.422	25.0838
2.416	27.7288
2.41	31.2574
2.404	34.8637
2.398	37.8778
2.392	40.0972
2.386	41.576
2.38	42.698
2.374	43.687
2.368	44.991
2.362	46.3118
2.356	47.6516
2.35	48.6773
2.344	49.7836
2.338	50.9434
2.332	52.0886
2.326	53.274
2.32	54.4129
2.314	55.3473
2.308	56.2064
2.302	56.831
2.296	56.8638
2.29	56.4766
2.284	55.8028
2.278	55.2048
2.272	55.1684
2.266	55.4481
2.26	56.0974
2.254	56.4731
2.248	56.4822
2.242	56.0477
2.236	55.3052
2.23	54.3038
2.224	52.8473
2.218	50.8651
2.212	48.5352
2.206	46.1739
2.2	44.6456
2.194	44.5642
2.188	45.8433
2.182	47.4035
2.176	48.5892
2.17	49.0072
2.164	49.1217
2.158	49.5126
2.152	50.097
2.146	50.569
2.14	50.9249
2.134	50.8347
2.128	50.1387
2.122	49.2271
2.116	47.9115
2.11	46.1444
2.104	43.9116
2.098	41.5117
2.092	39.6185
2.086	38.604
2.08	38.5507
2.074	39.1727
2.068	39.7761
2.062	40.1201
2.056	39.8728
2.05	39.0959
2.044	37.6593
2.038	35.5063
2.032	32.5756
2.026	29.6279
2.02	27.481
2.014	26.2135
2.008	25.7471
2.002	26.098
1.996	27.2343
1.99	28.7428
1.984	30.2476
1.978	31.2172
1.972	31.2143
1.966	30.1426
1.96	26.9713
1.954	20.4455
1.948	12.229
1.942	8.3208
1.936	10.682
1.93	15.7998
1.924	20.9427
1.918	25.2897
1.912	29.128
1.906	32.8566
1.9	37.1016
1.894	42.323
1.888	49.5894
1.882	56.5623
1.876	61.2802
1.87	64.9002
1.864	67.0836
1.858	68.4112
1.852	69.3231
1.846	69.7469
1.84	69.8276
1.834	69.1937
1.828	68.2004
1.822	67.2628
1.816	67.0993
1.81	68.0856
1.804	69.3267
1.798	70.2783
1.792	70.6336
1.786	70.5369
1.78	69.8651
1.774	68.6355
1.768	67.9928
1.762	69.3664
1.756	71.1643
1.75	72.0659
1.744	71.967
1.738	71.8057
1.732	72.1406
1.726	72.605
1.72	72.6631
1.714	72.4794
1.708	72.2578
1.702	72.1206
1.696	71.909
1.69	71.6634
1.684	71.2042
1.678	70.7675
1.672	70.3813
1.666	69.7763
1.66	69.2732
1.654	68.8238
1.648	68.1631
1.642	67.728
1.636	67.1758
1.63	66.8349
1.624	66.3878
1.618	66.0749
1.612	65.7059
1.606	65.4628
1.6	65.3878
1.594	65.5305
1.588	65.7819
1.582	65.847
1.576	65.8025
1.57	65.5418
1.564	65.3013
1.558	65.3065
1.552	65.6336
1.546	66.1966
1.54	66.6224
1.534	66.8244
1.528	66.7955
1.522	66.6153
1.516	66.154
1.51	65.5509
1.504	64.2739
1.498	62.0611
1.492	58.4966
1.486	58.0371
1.48	60.1935
1.474	59.769
1.468	56.3044
1.462	50.401
1.456	48.4014
1.45	52.3256
1.444	55.8386
1.438	56.5408
1.432	57.5042
1.426	59.2021
1.42	61.9178
1.414	65.3158
1.408	68.6463
1.402	71.6292
1.396	74.067
1.39	75.5128
1.384	76.3448
1.378	77.1652
1.372	77.5247
1.366	77.396
1.36	76.7387
1.354	76.497
1.348	77.0592
1.342	76.8587
1.336	76.881
1.33	78.4445
1.324	80.4417
1.318	81.7074
1.312	82.3203
1.306	82.6631
1.3	82.6413
1.294	82.8049
1.288	82.9554
1.282	82.933
1.276	82.7999
1.27	82.7525
1.264	82.6004
1.258	82.484
1.252	82.3276
1.246	82.2976
1.24	82.3047
1.234	82.4686
1.228	82.5112
1.222	82.4122
1.216	82.3711
1.21	82.065
1.204	82.3596
1.198	82.5224
1.192	82.1632
1.186	81.0904
1.18	80.9783
1.174	81.8165
1.168	82.0912
1.162	82.5671
1.156	83.4603
1.15	84.2093
1.144	84.6443
1.138	84.9404
1.132	85.0922
1.126	85.063
1.12	85.0965
1.114	85.1253
1.108	85.1678
1.102	85.0815
1.096	85.258
1.09	85.2886
1.084	85.2475
1.078	85.242
1.072	85.2078
1.066	85.2995
1.06	85.204
1.054	85.2292
1.048	85.1993
1.042	85.0021
1.036	84.9473
1.03	84.9039
1.024	84.7299
1.018	84.6262
1.012	84.4777
1.006	84.1478
1	83.8779
0.994	83.6744
0.988	83.4357
0.982	83.341
0.976	83.4681
0.97	83.6598
0.964	83.95
0.958	84.3861
0.952	84.6931
0.946	84.7614
0.94	84.8695
0.934	84.8391
0.928	85.0019
0.922	85.0337
0.916	85.0751
0.91	85.09
0.904	85.0988
0.898	85.0427
0.892	85.0729
0.886	85.0389
0.88	85.1284
0.874	85.0265
0.868	85.0679
0.862	85.1225
0.856	85.3894
0.85	85.3847
0.844	85.336
0.838	85.4061
0.832	85.3552
0.826	85.3241
0.82	85.3773
0.814	85.3305
0.808	85.2924
0.802	85.3068
0.796	85.2071
0.79	85.1525
0.784	85.1036
0.778	85.065
0.772	84.9725
0.766	84.9183
0.76	84.9254
0.754	84.8784
0.748	84.8137
0.742	84.8191
0.736	84.815
0.73	84.8154
0.724	84.8135
0.718	84.7467
0.712	84.7376
0.706	84.7232
0.7	84.6688
0.694	84.6587
0.688	84.625
0.682	84.5832
0.676	84.5485
0.67	84.5187
0.664	84.4878
0.658	84.435
0.652	84.4019
0.646	84.3578
0.64	84.3024
0.634	84.269
0.628	84.2112
0.622	84.145
0.616	84.1048
0.61	84.0245
0.604	83.9513
0.598	83.9084
0.592	83.8805
0.586	83.7818
0.58	83.6797
0.574	83.5563
0.568	83.4225
0.562	83.2509
0.556	83.0985
0.55	82.8875
0.544	82.6871
0.538	82.4553
0.532	82.2127
0.526	81.9419
0.52	81.6302
0.514	81.3301
0.508	80.9947
0.502	80.6612
0.496	80.3477
0.49	80.0319
0.484	79.6343
0.478	79.2833
0.472	78.9743
0.466	78.6422
0.46	78.2844
0.454	77.8874
0.448	77.5362
0.442	77.1696
0.436	76.7842
0.43	76.359
0.424	76.0222
0.418	75.7497
0.412	75.5828
0.406	75.3424
0.4	75.082
