Name: Galena PbS
Type: Mineral
Class: Sulfide
Subclass: None
Particle Size: Fine
Sample No.: S-7A
Owner: JPL
Wavelength Range: VSWIR
Origin: USA, Kansas, Cherokee County, Galena
Description: Particle size was 0-45um.Collected by Grieger's Inc. Original ASTER Spectral Library name was jpl.beckman.mineral.sulfide.none.fine.s07a.spectrum.txt
Measurement: Hemispherical reflectance
X Units: Wavelength (micrometers)
Y Units: Reflectance (percent)
wavelength	value
0.4	16.05
0.403	15.79
0.406	15.7
0.409	15.46
0.412	15.39
0.415	15.27
0.418	15.12
0.421	15.07
0.424	14.91
0.427	14.81
0.43	14.64
0.433	14.56
0.436	14.5
0.439	14.27
0.442	14.24
0.445	14.17
0.448	14.13
0.451	14
0.454	13.82
0.457	13.86
0.46	13.81
0.463	13.59
0.466	13.63
0.469	13.5
0.472	13.54
0.475	13.27
0.478	13.2
0.481	13.24
0.484	13.08
0.487	13.06
0.49	12.91
0.493	12.82
0.496	12.88
0.499	12.85
0.502	12.7
0.505	12.62
0.508	12.46
0.511	12.57
0.514	12.44
0.517	12.4
0.52	12.35
0.523	12.22
0.526	12.26
0.529	12.19
0.532	12.08
0.535	12.1
0.538	11.99
0.541	12.02
0.544	12.03
0.547	11.89
0.55	11.89
0.553	11.86
0.556	11.9
0.559	11.86
0.562	11.96
0.565	11.87
0.568	11.82
0.571	11.82
0.574	11.73
0.577	11.73
0.58	11.73
0.583	11.68
0.586	11.7
0.589	11.76
0.592	11.67
0.595	11.62
0.598	11.63
0.601	11.71
0.604	11.68
0.607	11.73
0.61	11.67
0.613	11.63
0.616	11.74
0.619	11.64
0.622	11.7
0.625	11.79
0.628	11.73
0.631	11.74
0.634	11.71
0.637	11.76
0.64	11.79
0.643	11.63
0.646	11.76
0.649	11.8
0.652	11.79
0.655	11.82
0.658	11.7
0.661	11.79
0.664	11.77
0.667	11.76
0.67	11.81
0.673	11.75
0.676	11.76
0.679	11.74
0.682	11.75
0.685	11.74
0.688	11.69
0.691	11.72
0.694	11.68
0.697	11.66
0.7	11.68
0.703	11.57
0.706	11.5
0.709	11.66
0.712	11.69
0.715	11.57
0.718	11.56
0.721	11.61
0.724	11.44
0.727	11.49
0.73	11.49
0.733	11.5
0.736	11.45
0.739	11.52
0.742	11.38
0.745	11.38
0.748	11.42
0.751	11.44
0.754	11.5
0.757	11.36
0.76	11.33
0.763	11.31
0.766	11.41
0.769	11.3
0.772	11.32
0.775	11.18
0.778	11.26
0.781	11.31
0.784	11.22
0.787	11.3
0.79	11.29
0.793	11.23
0.796	11.26
0.799	11.4
0.808	11.47
0.82	11.49
0.832	11.45
0.844	11.32
0.856	11.33
0.868	11.29
0.88	11.19
0.892	11.08
0.904	11.08
0.916	11
0.928	11.02
0.94	10.92
0.952	10.84
0.964	10.78
0.976	10.77
0.988	10.78
1	10.7
1.012	10.67
1.024	10.57
1.036	10.54
1.048	10.44
1.06	10.49
1.072	10.41
1.084	10.39
1.096	10.34
1.108	10.4
1.12	10.35
1.132	10.29
1.144	10.25
1.156	10.25
1.168	10.27
1.18	10.28
1.192	10.22
1.204	10.16
1.216	10.17
1.228	10.12
1.24	10.1
1.252	10.04
1.264	10.06
1.276	10.08
1.288	10.03
1.3	10.03
1.312	10.01
1.324	10.02
1.336	9.94
1.348	9.95
1.36	9.92
1.372	9.89
1.384	9.88
1.396	9.88
1.408	9.88
1.42	9.86
1.432	9.89
1.444	9.89
1.456	9.91
1.468	9.85
1.48	9.83
1.492	9.81
1.504	9.9
1.516	9.88
1.528	9.87
1.54	9.85
1.552	9.82
1.564	9.84
1.576	9.8
1.588	9.83
1.6	9.78
1.612	9.78
1.624	9.7
1.636	9.82
1.648	9.77
1.66	9.79
1.672	9.82
1.684	9.8
1.696	9.81
1.708	9.73
1.72	9.73
1.732	9.7
1.744	9.7
1.756	9.75
1.768	9.65
1.78	9.7
1.792	9.73
1.804	9.72
1.816	9.73
1.828	9.69
1.84	9.71
1.852	9.69
1.864	9.62
1.876	9.71
1.888	9.69
1.9	9.76
1.912	9.68
1.924	9.65
1.936	9.64
1.948	9.67
1.96	9.61
1.972	9.66
1.984	9.72
1.996	9.72
2.008	9.68
2.02	9.76
2.032	9.69
2.044	9.75
2.056	9.69
2.068	9.77
2.08	9.73
2.092	9.76
2.104	9.76
2.116	9.77
2.128	9.81
2.14	9.74
2.152	9.67
2.164	9.69
2.176	9.74
2.188	9.65
2.2	9.75
2.212	9.71
2.224	9.69
2.236	9.73
2.248	9.78
2.26	9.83
2.272	9.82
2.284	9.85
2.296	9.87
2.308	9.84
2.32	9.87
2.332	9.84
2.344	9.87
2.356	9.83
2.368	9.83
2.38	9.86
2.392	9.92
2.404	9.95
2.416	10.01
2.428	10.04
2.44	10
2.452	10.03
2.464	10.03
2.476	10.08
2.488	10.23
2.5	10.25
