Name: Rutile TiO_2
Type: Mineral
Class: Oxide
Subclass: None
Particle Size: Fine
Sample No.: O-2A
Owner: JPL
Wavelength Range: TIR
Origin: N/A
Description: Particle size was 0-45um.Collected by JPL Original ASTER Spectral Library name was jpl.nicolet.mineral.oxide.none.fine.o02a.spectrum.txt
Measurement: Hemispherical reflectance
X Units: Wavelength (micrometers)
Y Units: Reflectance (percent)
wavelength	value
15.3853	10.4883
15.1161	10.2132
14.8563	9.9587
14.6052	10.4444
14.3624	10.12
14.1276	10.0558
13.9004	9.829
13.6803	9.659
13.4671	9.2572
13.2604	8.9873
13.06	8.1285
12.8656	7.4856
12.6769	6.8732
12.4936	6.0295
12.3155	5.3813
12.1425	4.6782
11.9742	3.9405
11.8106	3.1338
11.6513	2.6153
11.4963	2.5454
11.3454	2.2696
11.1983	2.2688
11.0551	2.5372
10.9154	2.597
10.7793	2.727
10.6465	3.1148
10.5169	3.5091
10.3904	3.792
10.267	4.1355
10.1464	4.2949
10.0287	4.6224
9.9136	4.6318
9.8012	4.5319
9.6913	4.9833
9.5838	5.5579
9.4787	6.226
9.3758	7.0967
9.2752	8.4295
9.1767	9.1654
9.0803	9.8342
8.9858	10.3013
8.8934	11.243
8.8028	12.1326
8.714	13.3393
8.627	14.0206
8.5417	14.7334
8.4581	15.3142
8.3761	15.9564
8.2957	16.9866
8.2169	17.8632
8.1395	18.6267
8.0635	19.1872
7.989	19.988
7.9158	21.0911
7.8439	22.1136
7.7734	23.5254
7.7041	25.0237
7.636	26.3578
7.5691	27.5706
7.5034	28.7466
7.4388	29.663
7.3753	30.4675
7.3129	30.9452
7.2515	31.423
7.1912	31.6783
7.1318	32.0476
7.0734	32.3356
7.016	32.3062
6.9595	33.1468
6.9039	33.3436
6.8492	34.3083
6.7953	35.5272
6.7423	36.0552
6.6901	37.536
6.6387	39.6875
6.5881	40.0274
6.5382	40.6571
6.4892	42.6772
6.4408	42.1976
6.3931	42.2164
6.3462	42.842
6.2999	41.818
6.2543	41.8384
6.2094	41.6535
6.1651	41.757
6.1214	42.2295
6.0784	42.7945
6.0359	43.3038
5.994	44.1208
5.9527	44.8999
5.912	45.8108
5.8718	46.9633
5.8322	47.9062
5.7931	48.2855
5.7545	49.1769
5.7165	49.7025
5.6789	49.7436
5.6418	50.4875
5.6052	49.9012
5.5691	49.1289
5.5334	50.1423
5.4982	50.6496
5.4635	51.4859
5.4291	51.7932
5.3952	51.6004
5.3618	51.5939
5.3287	51.877
5.2961	52.2782
5.2638	52.5307
5.2319	52.9716
5.2004	53.3471
5.1693	53.4563
5.1386	53.5819
5.1082	53.8742
5.0782	54.0503
5.0485	54.3147
5.0192	54.5668
4.9902	54.5662
4.9616	54.9076
4.9332	55.0293
4.9052	55.2516
4.8776	55.4958
4.8502	55.5634
4.8231	55.7374
4.7963	55.765
4.7699	55.8638
4.7437	55.8634
4.7178	55.7984
4.6922	55.8841
4.6668	56.1971
4.6418	56.3872
4.617	56.5487
4.5924	56.6256
4.5681	56.7595
4.5441	56.8394
4.5203	56.7742
4.4968	56.8235
4.4735	56.807
4.4505	56.9416
4.4277	56.8473
4.4051	56.9712
4.3828	56.9783
4.3607	57.0115
4.3388	57.0451
4.3171	56.9567
4.2956	56.9264
4.2744	56.9558
4.2534	56.9679
4.2325	56.9076
4.2119	56.9427
4.1915	56.9136
4.1712	56.9952
4.1512	56.9144
4.1313	56.9244
4.1117	56.8091
4.0922	56.8551
4.0729	56.7419
4.0538	56.6288
4.0349	56.2905
4.0161	55.9605
3.9976	55.448
3.9792	55.2735
3.9609	55.4571
3.9428	55.7648
3.9249	55.7766
3.9072	55.8391
3.8896	55.7329
3.8722	55.729
3.8549	55.6213
3.8378	55.5561
3.8208	55.6554
3.804	55.5486
3.7873	55.5505
3.7708	55.5613
3.7544	55.3899
3.7382	55.2799
3.7221	55.1962
3.7061	55.0442
3.6903	54.8676
3.6746	54.725
3.659	54.5288
3.6436	54.4071
3.6283	54.2007
3.6131	54.0324
3.5981	53.7972
3.5832	53.7186
3.5684	53.4598
3.5537	53.2041
3.5391	52.8885
3.5247	52.5479
3.5104	51.6804
3.4962	51.3821
3.4821	51.3983
3.4681	51.3708
3.4543	51.1403
3.4405	50.8325
3.4269	49.9607
3.4133	49.604
3.3999	49.8655
3.3866	49.6528
3.3733	49.5714
3.3602	49.4946
3.3472	49.3499
3.3343	49.392
3.3215	49.0663
3.3088	48.8996
3.2961	48.6649
3.2836	48.331
3.2712	48.1393
3.2588	47.5168
3.2466	47.3288
3.2345	47.1112
3.2224	46.7059
3.2104	46.4548
3.1985	45.9667
3.1867	45.7988
3.175	45.4139
3.1634	45.0949
3.1519	44.7238
3.1404	44.4258
3.129	44.1797
3.1178	43.7544
3.1065	43.3806
3.0954	42.7703
3.0844	42.1145
3.0734	40.9286
3.0625	38.9278
3.0517	36.1029
3.041	35.8718
3.0303	36.7372
3.0197	38.5225
3.0092	39.6341
2.9987	40.2102
2.9884	40.1636
2.9781	39.9731
2.9678	39.833
2.9577	39.8884
2.9476	40.163
2.9376	40.265
2.9276	40.4559
2.9177	40.991
2.9079	41.1111
2.8982	41.4159
2.8885	41.6817
2.8789	41.8536
2.8693	41.9027
2.8598	42.5449
2.8504	42.8578
2.841	43.091
2.8317	43.3501
2.8224	43.6031
2.8133	43.6617
2.8041	44.3824
2.7951	44.2462
2.786	45.103
2.7771	45.5155
2.7682	45.9722
2.7594	46.2513
2.7506	46.5283
2.7418	46.7339
2.7332	44.4168
2.7246	45.4587
2.716	47.9219
2.7075	50.3322
2.699	51.004
2.6906	51.403
2.6823	51.7231
2.674	52.1723
2.6657	53.1656
2.6575	51.8741
2.6494	51.8653
2.6413	51.8915
2.6332	52.0196
2.6252	52.0103
2.6173	52.5691
2.6094	52.0598
2.6015	52.0064
2.5937	52.7919
2.5859	51.8794
2.5782	51.7484
2.5706	51.7501
2.5629	51.7889
2.5554	51.3209
2.5478	51.4444
2.5403	51.1926
2.5329	51.375
2.5255	51.0532
2.5181	51.1015
2.5108	51.1042
2.5035	50.9883
2.4963	50.9679
2.4891	50.8688
2.482	50.7809
2.4749	50.9511
2.4678	50.6707
2.4608	50.7473
2.4538	50.5145
2.4468	50.6934
2.4399	50.6768
2.4331	50.492
2.4262	50.5131
2.4194	50.5216
2.4127	50.5213
2.4059	50.3868
2.3993	50.3394
2.3926	50.0759
2.386	50.2851
2.3795	50.2643
2.3729	50.2987
2.3664	50.3151
2.36	50.3025
2.3535	49.9944
2.3471	50.152
2.3408	50.1883
2.3345	50.106
2.3282	49.8496
2.3219	49.6824
2.3157	49.6721
2.3095	49.4634
2.3034	49.48
2.2972	49.5142
2.2911	49.7753
2.2851	49.6691
2.279	49.8417
2.2731	49.9126
2.2671	49.622
2.2612	49.7868
2.2553	49.8484
2.2494	49.6968
2.2435	49.7229
2.2377	49.5564
2.232	49.7104
2.2262	49.7003
2.2205	49.5385
2.2148	49.4488
2.2091	49.4955
2.2035	49.4558
2.1979	49.3644
2.1923	49.2894
2.1868	49.477
2.1812	49.3304
2.1758	49.4291
2.1703	49.274
2.1649	49.5139
2.1595	49.1391
2.1541	49.1659
2.1487	49.2664
2.1434	48.8744
2.1381	49.1749
2.1328	49.0158
2.1275	49.0928
2.1223	48.9761
2.1171	49.0682
2.112	49.2668
2.1068	49.4159
2.1017	48.7507
2.0966	48.9426
2.0915	48.7011
2.0865	48.6667
2.0814	48.5438
2.0764	48.5817
2.0715	48.9421
2.0665	48.4472
2.0616	48.7188
2.0567	48.5073
2.0518	48.638
2.0469	48.5416
2.0421	48.4082
2.0373	48.6523
2.0325	48.4092
2.0277	48.6429
2.0229	48.2802
2.0182	48.4782
2.0135	48.4351
2.0088	48.2854
2.0042	48.3506
