Name: Prehnite Ca_2Al_2Si_3O_10(OH)_2
Type: Mineral
Class: Silicate
Subclass: Phyllosilicate
Particle Size: Fine
Sample No.: PS-21A
Owner: JPL
Wavelength Range: VSWIR
Origin: USA, Virginia, Centerville.
Description: Particle size was 0-45um. Collected by:  Burminco Original ASTER Spectral Library name was jpl.perkin.mineral.silicate.phyllosilicate.fine.ps21a.spectrum.txt
Measurement: Hemispherical reflectance
X Units: Wavelength (micrometers)
Y Units: Reflectance (percent)
wavelength	value
2.5	55.5828
2.494	55.463
2.488	55.4862
2.482	55.6607
2.476	55.6001
2.47	55.7666
2.464	56.7631
2.458	57.6869
2.452	58.61
2.446	59.0905
2.44	58.7694
2.434	57.6272
2.428	55.9532
2.422	53.9121
2.416	51.8053
2.41	49.8122
2.404	48.0413
2.398	46.4162
2.392	44.849
2.386	43.7028
2.38	43.2754
2.374	42.7687
2.368	41.3886
2.362	39.6507
2.356	39.2261
2.35	40.9826
2.344	43.4837
2.338	44.7898
2.332	45.418
2.326	47.7845
2.32	53.105
2.314	59.3906
2.308	63.5715
2.302	64.6391
2.296	63.8967
2.29	62.7911
2.284	62.143
2.278	62.3116
2.272	63.3712
2.266	64.9092
2.26	65.9314
2.254	66.0211
2.248	64.9313
2.242	63.2017
2.236	61.9809
2.23	62.4445
2.224	64.3128
2.218	66.5488
2.212	68.7359
2.206	70.9964
2.2	72.7227
2.194	73.6055
2.188	74.0997
2.182	74.5558
2.176	74.8269
2.17	75.2427
2.164	75.4992
2.158	75.9236
2.152	76.0243
2.146	76.1967
2.14	76.3677
2.134	76.3975
2.128	76.2518
2.122	76.1261
2.116	75.989
2.11	75.8138
2.104	75.7463
2.098	75.7756
2.092	75.9451
2.086	76.0503
2.08	76.1922
2.074	76.2637
2.068	76.3205
2.062	76.4035
2.056	76.5037
2.05	76.5272
2.044	76.6002
2.038	76.5849
2.032	76.5034
2.026	76.4485
2.02	76.4106
2.014	76.537
2.008	76.4629
2.002	76.5524
1.996	76.4893
1.99	76.4724
1.984	76.4575
1.978	76.405
1.972	76.2202
1.966	76.0664
1.96	76.0473
1.954	75.9544
1.948	75.7647
1.942	75.7135
1.936	75.484
1.93	75.5995
1.924	75.577
1.918	75.6031
1.912	75.7105
1.906	75.6026
1.9	75.9101
1.894	76.3116
1.888	76.558
1.882	76.5014
1.876	76.7598
1.87	77.2366
1.864	77.5434
1.858	77.7698
1.852	77.9147
1.846	77.9328
1.84	77.9507
1.834	78.0946
1.828	78.1941
1.822	78.3599
1.816	78.5438
1.81	78.6242
1.804	78.7467
1.798	78.7606
1.792	78.7746
1.786	78.7978
1.78	78.7771
1.774	78.7702
1.768	78.7936
1.762	78.6807
1.756	78.6321
1.75	78.7247
1.744	78.7642
1.738	78.7088
1.732	78.8678
1.726	78.8806
1.72	79.0173
1.714	79.0332
1.708	79.0366
1.702	79.1444
1.696	79.1341
1.69	79.087
1.684	79.1446
1.678	79.1018
1.672	79.1563
1.666	79.1516
1.66	79.1631
1.654	79.2241
1.648	79.1988
1.642	79.1989
1.636	79.1149
1.63	79.2204
1.624	79.161
1.618	79.0789
1.612	79.2063
1.606	79.1709
1.6	79.274
1.594	79.1842
1.588	79.1335
1.582	79.2135
1.576	79.1059
1.57	79.1632
1.564	79.1591
1.558	79.0029
1.552	78.988
1.546	78.9746
1.54	78.8663
1.534	78.7996
1.528	78.7885
1.522	78.5986
1.516	78.3649
1.51	77.8554
1.504	77.0788
1.498	75.3631
1.492	73.4628
1.486	71.4467
1.48	65.8677
1.474	65.7739
1.468	73.1561
1.462	76.1094
1.456	76.6406
1.45	77.1716
1.444	77.4692
1.438	77.5292
1.432	77.6447
1.426	78.4006
1.42	78.4723
1.414	78.595
1.408	78.6684
1.402	78.8744
1.396	78.9556
1.39	79.1199
1.384	79.1017
1.378	79.213
1.372	79.1247
1.366	79.1642
1.36	79.2358
1.354	79.2281
1.348	79.1766
1.342	79.1309
1.336	79.0632
1.33	78.9389
1.324	78.9885
1.318	78.9107
1.312	78.8291
1.306	78.7032
1.3	78.7082
1.294	78.7457
1.288	78.5316
1.282	78.639
1.276	79.0643
1.27	78.9289
1.264	78.974
1.258	78.9359
1.252	78.9574
1.246	78.9077
1.24	78.9677
1.234	78.9312
1.228	78.9003
1.222	78.9109
1.216	78.874
1.21	78.886
1.204	78.8503
1.198	78.8295
1.192	78.8685
1.186	78.7985
1.18	78.7791
1.174	78.7808
1.168	78.7666
1.162	78.7552
1.156	78.8113
1.15	78.7691
1.144	78.748
1.138	78.7722
1.132	78.7682
1.126	78.7626
1.12	78.7649
1.114	78.6693
1.108	78.5924
1.102	78.7829
1.096	78.6201
1.09	78.6497
1.084	78.6384
1.078	78.6381
1.072	78.5664
1.066	78.5739
1.06	78.5488
1.054	78.5795
1.048	78.4954
1.042	78.5685
1.036	78.5034
1.03	78.4487
1.024	78.3595
1.018	78.2832
1.012	78.2294
1.006	78.3906
1	78.2716
0.994	78.3933
0.988	78.3542
0.982	78.3965
0.976	78.3309
0.97	78.4074
0.964	78.447
0.958	78.3765
0.952	78.4605
0.946	78.3782
0.94	78.3942
0.934	78.4928
0.928	78.473
0.922	78.4125
0.916	78.4227
0.91	78.4533
0.904	78.4787
0.898	78.5244
0.892	78.5294
0.886	78.581
0.88	78.4915
0.874	78.4997
0.868	78.4847
0.862	78.6118
0.856	78.5916
0.85	78.6372
0.844	78.626
0.838	78.696
0.832	78.645
0.826	78.7077
0.82	78.7032
0.814	78.6691
0.808	78.7441
0.802	78.7546
0.796	78.6451
0.79	78.6776
0.784	78.6102
0.778	78.5962
0.772	78.5522
0.766	78.5825
0.76	78.574
0.754	78.5126
0.748	78.4988
0.742	78.4943
0.736	78.4683
0.73	78.4498
0.724	78.4138
0.718	78.3872
0.712	78.3381
0.706	78.2989
0.7	78.287
0.694	78.2695
0.688	78.2176
0.682	78.1926
0.676	78.1481
0.67	78.1026
0.664	78.0848
0.658	78.0461
0.652	78.0117
0.646	77.9774
0.64	77.9266
0.634	77.9034
0.628	77.8673
0.622	77.8274
0.616	77.8006
0.61	77.7683
0.604	77.7469
0.598	77.7471
0.592	77.7595
0.586	77.7225
0.58	77.6926
0.574	77.6577
0.568	77.6375
0.562	77.5755
0.556	77.5125
0.55	77.4359
0.544	77.3727
0.538	77.288
0.532	77.196
0.526	77.1114
0.52	77.02
0.514	76.8937
0.508	76.757
0.502	76.5656
0.496	76.3707
0.49	76.1696
0.484	75.9541
0.478	75.7731
0.472	75.5732
0.466	75.3795
0.46	75.1325
0.454	74.8479
0.448	74.5119
0.442	74.0658
0.436	73.5111
0.43	72.8962
0.424	72.6552
0.418	72.5962
0.412	72.4838
0.406	72.194
0.4	71.8648
