Name: Labradorite (Feldspar) (NaSi,CaAl)AlSi_2O_8
Type: Mineral
Class: Silicate
Subclass: Tectosilicate
Particle Size: Fine
Sample No.: TS-2A
Owner: JPL
Wavelength Range: VSWIR
Origin: Mexico, Sonora, Pinacate
Description: Particle size was 0-45um.Collected by Burminco Original ASTER Spectral Library name was jpl.beckman.mineral.silicate.tectosilicate.fine.ts02a.spectrum.txt
Measurement: Hemispherical reflectance
X Units: Wavelength (micrometers)
Y Units: Reflectance (percent)
wavelength	value
0.4	76.85
0.403	77.09
0.406	77.42
0.409	77.53
0.412	77.53
0.415	77.65
0.418	77.68
0.421	77.67
0.424	77.79
0.427	77.98
0.43	78.15
0.433	78.29
0.436	78.16
0.439	78.52
0.442	78.58
0.445	78.68
0.448	78.67
0.451	78.81
0.454	79.04
0.457	79.12
0.46	79.21
0.463	79.31
0.466	79.36
0.469	79.64
0.472	79.81
0.475	79.7
0.478	79.75
0.481	79.8
0.484	79.85
0.487	80.12
0.49	79.89
0.493	79.93
0.496	80.1
0.499	80.37
0.502	80.13
0.505	80.29
0.508	80.32
0.511	80.49
0.514	80.56
0.517	80.53
0.52	80.78
0.523	80.73
0.526	80.8
0.529	80.73
0.532	80.87
0.535	80.83
0.538	80.7
0.541	80.97
0.544	81.04
0.547	80.99
0.55	81.12
0.553	81.25
0.556	81.41
0.559	81.26
0.562	81.84
0.565	81.61
0.568	81.54
0.571	81.56
0.574	81.36
0.577	81.29
0.58	81.39
0.583	81.41
0.586	81.45
0.589	81.48
0.592	81.62
0.595	81.64
0.598	81.51
0.601	81.59
0.604	81.58
0.607	81.95
0.61	81.74
0.613	81.7
0.616	81.71
0.619	81.77
0.622	81.63
0.625	81.66
0.628	81.73
0.631	81.74
0.634	81.63
0.637	81.76
0.64	81.77
0.643	81.74
0.646	81.62
0.649	81.77
0.652	81.87
0.655	81.87
0.658	81.61
0.661	81.7
0.664	81.92
0.667	81.9
0.67	81.79
0.673	81.97
0.676	81.98
0.679	81.96
0.682	81.91
0.685	82.03
0.688	82.07
0.691	82.02
0.694	81.98
0.697	81.91
0.7	82.06
0.703	81.86
0.706	81.78
0.709	81.95
0.712	81.98
0.715	81.92
0.718	81.85
0.721	81.85
0.724	81.88
0.727	81.87
0.73	81.8
0.733	81.97
0.736	82.05
0.739	81.9
0.742	81.8
0.745	82
0.748	81.85
0.751	81.87
0.754	81.82
0.757	81.82
0.76	81.93
0.763	81.79
0.766	81.77
0.769	81.99
0.772	81.92
0.775	81.89
0.778	81.78
0.781	81.81
0.784	81.89
0.787	81.87
0.79	81.76
0.793	81.79
0.796	81.76
0.799	81.94
0.808	81.77
0.82	81.65
0.832	81.73
0.844	81.89
0.856	81.85
0.868	81.77
0.88	81.77
0.892	81.66
0.904	81.58
0.916	81.52
0.928	81.49
0.94	81.41
0.952	81.41
0.964	81.29
0.976	81.08
0.988	81.02
1	80.81
1.012	80.71
1.024	80.59
1.036	80.49
1.048	80.39
1.06	80.22
1.072	80.1
1.084	80
1.096	79.8
1.108	79.8
1.12	79.74
1.132	79.66
1.144	79.44
1.156	79.28
1.168	79.17
1.18	79.12
1.192	79.07
1.204	79.03
1.216	78.85
1.228	78.82
1.24	78.87
1.252	78.84
1.264	78.86
1.276	78.84
1.288	78.87
1.3	78.74
1.312	78.76
1.324	78.69
1.336	78.62
1.348	78.72
1.36	78.81
1.372	78.73
1.384	78.81
1.396	78.88
1.408	78.85
1.42	78.91
1.432	79.1
1.444	79.11
1.456	79.24
1.468	79.26
1.48	79.43
1.492	79.52
1.504	79.51
1.516	79.51
1.528	79.66
1.54	79.66
1.552	79.61
1.564	79.71
1.576	79.76
1.588	79.78
1.6	79.78
1.612	79.89
1.624	79.76
1.636	79.87
1.648	79.96
1.66	79.93
1.672	80
1.684	80.04
1.696	80.06
1.708	80.05
1.72	80.09
1.732	80.09
1.744	80.05
1.756	80.12
1.768	80.12
1.78	80.08
1.792	80.15
1.804	80.2
1.816	80.07
1.828	80.17
1.84	80.11
1.852	80.05
1.864	80.08
1.876	79.96
1.888	79.92
1.9	79.82
1.912	79.85
1.924	79.82
1.936	79.75
1.948	79.8
1.96	79.77
1.972	79.91
1.984	79.98
1.996	80.12
2.008	80.2
2.02	80.2
2.032	80.39
2.044	80.43
2.056	80.46
2.068	80.41
2.08	80.45
2.092	80.49
2.104	80.62
2.116	80.7
2.128	80.73
2.14	80.77
2.152	80.55
2.164	80.55
2.176	80.51
2.188	80.21
2.2	80.17
2.212	80.07
2.224	80.2
2.236	80.16
2.248	80.13
2.26	80.08
2.272	80.23
2.284	80.28
2.296	80.29
2.308	80.52
2.32	80.71
2.332	80.74
2.344	80.68
2.356	80.71
2.368	80.59
2.38	80.59
2.392	80.47
2.404	80.54
2.416	80.45
2.428	80.46
2.44	80.42
2.452	80.31
2.464	80.31
2.476	80.2
2.488	80.5
2.5	80.68
