Name: Stibnite Sb_2S_3
Type: Mineral
Class: Sulfide
Subclass: None
Particle Size: Fine
Sample No.: S-6A
Owner: JPL
Wavelength Range: VSWIR
Origin: USA, Utah, Tooele County, Gold Hill
Description: Particle size was  0-45um.Collected by Burminco Original ASTER Spectral Library name was jpl.beckman.mineral.sulfide.none.fine.s06a.spectrum.txt
Measurement: Hemispherical reflectance
X Units: Wavelength (micrometers)
Y Units: Reflectance (percent)
wavelength	value
0.4	11.97
0.403	11.84
0.406	11.7
0.409	11.77
0.412	11.7
0.415	11.62
0.418	11.48
0.421	11.44
0.424	11.51
0.427	11.47
0.43	11.4
0.433	11.3
0.436	11.25
0.439	11.32
0.442	11.26
0.445	11.33
0.448	11.17
0.451	11.12
0.454	11.07
0.457	11.22
0.46	11.16
0.463	11.1
0.466	11.1
0.469	11
0.472	11.07
0.475	11
0.478	10.97
0.481	10.88
0.484	10.93
0.487	10.97
0.49	10.82
0.493	10.75
0.496	10.76
0.499	10.74
0.502	10.71
0.505	10.64
0.508	10.6
0.511	10.62
0.514	10.55
0.517	10.53
0.52	10.47
0.523	10.47
0.526	10.42
0.529	10.38
0.532	10.29
0.535	10.19
0.538	10.16
0.541	10.02
0.544	10.15
0.547	10.01
0.55	9.96
0.553	9.95
0.556	9.94
0.559	9.85
0.562	9.93
0.565	9.92
0.568	9.82
0.571	9.75
0.574	9.64
0.577	9.55
0.58	9.52
0.583	9.48
0.586	9.52
0.589	9.37
0.592	9.36
0.595	9.37
0.598	9.44
0.601	9.34
0.604	9.35
0.607	9.32
0.61	9.24
0.613	9.24
0.616	9.18
0.619	9.21
0.622	9.23
0.625	9.22
0.628	9.17
0.631	9.15
0.634	9.13
0.637	9.13
0.64	9.19
0.643	9.21
0.646	9.17
0.649	9.12
0.652	9.13
0.655	9.21
0.658	9.17
0.661	9.19
0.664	9.22
0.667	9.14
0.67	9.18
0.673	9.23
0.676	9.34
0.679	9.26
0.682	9.3
0.685	9.39
0.688	9.45
0.691	9.43
0.694	9.36
0.697	9.55
0.7	9.62
0.703	9.79
0.706	9.9
0.709	10.06
0.712	10.17
0.715	10.37
0.718	10.61
0.721	10.94
0.724	11.33
0.727	11.78
0.73	12.25
0.733	12.89
0.736	13.62
0.739	14.46
0.742	15.42
0.745	16.58
0.748	17.9
0.751	19.4
0.754	21.2
0.757	23.14
0.76	25.34
0.763	27.83
0.766	30.47
0.769	33.21
0.772	36.04
0.775	39.05
0.778	42.03
0.781	44.91
0.784	47.9
0.787	50.57
0.79	53.12
0.793	55.43
0.796	57.53
0.799	59.19
0.808	64.11
0.82	68.68
0.832	71.74
0.844	73.91
0.856	75.74
0.868	77.09
0.88	77.96
0.892	78.88
0.904	79.4
0.916	79.85
0.928	80.31
0.94	80.63
0.952	80.98
0.964	81.21
0.976	81.35
0.988	81.44
1	81.62
1.012	81.82
1.024	81.83
1.036	81.87
1.048	82.04
1.06	82.17
1.072	82.28
1.084	82.22
1.096	82.29
1.108	82.38
1.12	82.54
1.132	82.59
1.144	82.55
1.156	82.6
1.168	82.54
1.18	82.61
1.192	82.68
1.204	82.81
1.216	82.78
1.228	82.79
1.24	82.8
1.252	82.81
1.264	82.89
1.276	82.95
1.288	83.08
1.3	83.01
1.312	82.99
1.324	82.95
1.336	83
1.348	83.03
1.36	83.12
1.372	83.19
1.384	83.28
1.396	83.18
1.408	83.18
1.42	83.22
1.432	83.16
1.444	83.3
1.456	83.26
1.468	83.31
1.48	83.44
1.492	83.49
1.504	83.57
1.516	83.46
1.528	83.49
1.54	83.55
1.552	83.64
1.564	83.73
1.576	83.77
1.588	83.7
1.6	83.75
1.612	83.82
1.624	83.89
1.636	83.94
1.648	83.89
1.66	84
1.672	84.06
1.684	84.14
1.696	84.11
1.708	84.2
1.72	84.23
1.732	84.24
1.744	84.1
1.756	84.08
1.768	84.21
1.78	84.29
1.792	84.28
1.804	84.23
1.816	84.24
1.828	84.23
1.84	84.23
1.852	84.25
1.864	84.3
1.876	84.22
1.888	84.17
1.9	83.98
1.912	83.77
1.924	83.69
1.936	83.55
1.948	83.57
1.96	83.69
1.972	83.83
1.984	84.11
1.996	84.29
2.008	84.4
2.02	84.54
2.032	84.48
2.044	84.56
2.056	84.83
2.068	84.82
2.08	84.81
2.092	84.95
2.104	85.11
2.116	85.31
2.128	85.37
2.14	85.15
2.152	85.07
2.164	85
2.176	84.9
2.188	84.92
2.2	84.91
2.212	84.83
2.224	84.88
2.236	84.9
2.248	84.91
2.26	84.89
2.272	84.88
2.284	84.94
2.296	85.1
2.308	85.21
2.32	85.39
2.332	85.48
2.344	85.61
2.356	85.64
2.368	85.49
2.38	85.48
2.392	85.37
2.404	85.44
2.416	85.47
2.428	85.46
2.44	85.43
2.452	85.36
2.464	85.28
2.476	85.32
2.488	85.62
2.5	85.93
