Name: Sodalite Na_8Al_6Si_6O_24Cl_2
Type: Mineral
Class: Silicate
Subclass: Tectosilicate
Particle Size: Fine
Sample No.: TS-10A
Owner: JPL
Wavelength Range: TIR
Origin: Canada, Ontario, Hastings County, Bancroft
Description: Particle size was 0-45um.Collected by JPL Original ASTER Spectral Library name was jpl.nicolet.mineral.silicate.tectosilicate.fine.ts10a.spectrum.txt
Measurement: Hemispherical reflectance
X Units: Wavelength (micrometers)
Y Units: Reflectance (percent)
wavelength	value
15.3853	6.8205
15.1161	4.8483
14.8563	2.1829
14.6052	3.325
14.3624	4.0881
14.1276	3.4749
13.9004	2.1798
13.6803	4.6291
13.4671	3.6959
13.2604	2.3044
13.06	3.9275
12.8656	6.3862
12.6769	7.7022
12.4936	9.0497
12.3155	10.1256
12.1425	11.5205
11.9742	12.2675
11.8106	11.6944
11.6513	11.3576
11.4963	9.1365
11.3454	7.8758
11.1983	9.1568
11.0551	9.0494
10.9154	9.293
10.7793	8.9684
10.6465	8.7381
10.5169	8.8938
10.3904	10.6937
10.267	15.206
10.1464	14.9276
10.0287	15.8957
9.9136	15.7465
9.8012	15.9322
9.6913	15.7883
9.5838	16.2969
9.4787	19.2628
9.3758	18.007
9.2752	11.3862
9.1767	7.7304
9.0803	6.541
8.9858	5.7502
8.8934	5.2521
8.8028	4.7536
8.714	4.7083
8.627	4.8215
8.5417	4.9376
8.4581	5.4558
8.3761	6.2556
8.2957	7.6254
8.2169	8.8297
8.1395	8.662
8.0635	8.7451
7.989	9.975
7.9158	10.8256
7.8439	11.1655
7.7734	11.4154
7.7041	11.68
7.636	11.6142
7.5691	11.452
7.5034	10.041
7.4388	11.2736
7.3753	11.2401
7.3129	9.8401
7.2515	8.442
7.1912	7.6351
7.1318	7.0715
7.0734	6.5593
7.016	6.0051
6.9595	5.5107
6.9039	5.2049
6.8492	5.4784
6.7953	5.9243
6.7423	6.4046
6.6901	7.0752
6.6387	8.4742
6.5881	9.1041
6.5382	11.0557
6.4892	13.8494
6.4408	13.9081
6.3931	12.8572
6.3462	13.5417
6.2999	13.1582
6.2543	13.1172
6.2094	12.3022
6.1651	12.2897
6.1214	11.7605
6.0784	12.5725
6.0359	12.115
5.994	13.2533
5.9527	11.8957
5.912	9.8791
5.8718	8.5264
5.8322	13.5575
5.7931	19.3911
5.7545	21.8703
5.7165	22.4465
5.6789	23.3069
5.6418	25.839
5.6052	24.1758
5.5691	18.3305
5.5334	23.4536
5.4982	31.5374
5.4635	35.6491
5.4291	41.1531
5.3952	46.6063
5.3618	49.7443
5.3287	51.3828
5.2961	52.2907
5.2638	52.6695
5.2319	51.7658
5.2004	47.5334
5.1693	38.7672
5.1386	25.9168
5.1082	33.2521
5.0782	41.6231
5.0485	44.1181
5.0192	46.032
4.9902	45.5165
4.9616	47.506
4.9332	37.4968
4.9052	36.7481
4.8776	36.5827
4.8502	40.5733
4.8231	47.6371
4.7963	51.3407
4.7699	55.7193
4.7437	58.4561
4.7178	57.6688
4.6922	55.8921
4.6668	56.1245
4.6418	59.1776
4.617	62.3834
4.5924	64.4635
4.5681	65.4127
4.5441	65.9165
4.5203	66.3349
4.4968	66.7798
4.4735	67.5474
4.4505	68.3627
4.4277	68.9111
4.4051	68.9527
4.3828	69.2964
4.3607	69.3827
4.3388	69.158
4.3171	69.3915
4.2956	69.4416
4.2744	68.4304
4.2534	69.0141
4.2325	70.0969
4.2119	69.6026
4.1915	68.9941
4.1712	68.4991
4.1512	67.716
4.1313	66.685
4.1117	65.3504
4.0922	63.459
4.0729	60.188
4.0538	55.211
4.0349	47.4032
4.0161	41.9044
3.9976	38.6715
3.9792	34.5257
3.9609	35.1392
3.9428	40.1362
3.9249	44.777
3.9072	46.1944
3.8896	47.0462
3.8722	47.8138
3.8549	48.5631
3.8378	50.4125
3.8208	54.1819
3.804	59.3318
3.7873	65.0877
3.7708	67.1185
3.7544	67.894
3.7382	68.8367
3.7221	69.4787
3.7061	69.5121
3.6903	69.3901
3.6746	69.3084
3.659	69.0623
3.6436	68.6388
3.6283	67.9975
3.6131	67.2129
3.5981	66.1368
3.5832	64.2646
3.5684	61.5989
3.5537	59.1711
3.5391	56.4021
3.5247	52.4875
3.5104	47.9644
3.4962	44.8994
3.4821	42.8546
3.4681	43.5266
3.4543	46.6794
3.4405	47.5334
3.4269	47.3106
3.4133	47.0233
3.3999	47.0056
3.3866	46.9225
3.3733	46.4447
3.3602	45.8944
3.3472	45.47
3.3343	51.3783
3.3215	55.8621
3.3088	56.949
3.2961	56.4418
3.2836	57.6743
3.2712	57.9499
3.2588	57.9364
3.2466	57.777
3.2345	57.4318
3.2224	57.0765
3.2104	56.8908
3.1985	56.3323
3.1867	55.8287
3.175	55.2038
3.1634	54.6309
3.1519	53.969
3.1404	53.2994
3.129	52.9214
3.1178	52.3517
3.1065	51.5741
3.0954	51.1633
3.0844	50.7576
3.0734	50.4441
3.0625	49.9077
3.0517	49.3826
3.041	49.0994
3.0303	48.7001
3.0197	48.5285
3.0092	48.3421
2.9987	48.1202
2.9884	47.5966
2.9781	47.2899
2.9678	47.0708
2.9577	46.7184
2.9476	46.4868
2.9376	46.3845
2.9276	46.1643
2.9177	45.9731
2.9079	45.9508
2.8982	45.9764
2.8885	46.1267
2.8789	46.3615
2.8693	46.4828
2.8598	46.2727
2.8504	46.2772
2.841	45.9104
2.8317	46.0258
2.8224	46.3575
2.8133	48.0816
2.8041	50.1114
2.7951	50.947
2.786	52.3664
2.7771	53.6084
2.7682	55.0434
2.7594	55.8642
2.7506	57.9673
2.7418	61.4179
2.7332	63.0401
2.7246	68.0075
2.716	69.0448
2.7075	71.6622
2.699	74.2379
2.6906	77.2466
2.6823	79.2803
2.674	80.6719
2.6657	83.3271
2.6575	81.6278
2.6494	81.9071
2.6413	82.3665
2.6332	82.8943
2.6252	82.9356
2.6173	84.2473
2.6094	83.2647
2.6015	82.9939
2.5937	84.5226
2.5859	82.8947
2.5782	82.4452
2.5706	82.3069
2.5629	82.4265
2.5554	80.6576
2.5478	80.2039
2.5403	79.1161
2.5329	78.8575
2.5255	78.9917
2.5181	79.4744
2.5108	79.9792
2.5035	80.2226
2.4963	80.3942
2.4891	80.7222
2.482	81.0614
2.4749	81.3476
2.4678	81.7472
2.4608	82.0805
2.4538	82.3364
2.4468	82.7084
2.4399	82.7831
2.4331	82.9271
2.4262	83.0254
2.4194	83.4884
2.4127	83.383
2.4059	83.6195
2.3993	83.7088
2.3926	83.4431
2.386	83.6529
2.3795	83.7045
2.3729	83.4892
2.3664	83.4688
2.36	83.0829
2.3535	82.8649
2.3471	82.4582
2.3408	82.4148
2.3345	82.4895
2.3282	82.6155
2.3219	82.6969
2.3157	83
2.3095	83.0878
2.3034	83.1955
2.2972	83.2623
2.2911	83.4818
2.2851	83.4683
2.279	83.7452
2.2731	83.9002
2.2671	83.9633
2.2612	83.9379
2.2553	84.3016
2.2494	84.3409
2.2435	84.3387
2.2377	84.6731
2.232	84.6083
2.2262	84.4832
2.2205	84.7486
2.2148	84.8014
2.2091	84.7517
2.2035	84.678
2.1979	84.7685
2.1923	84.8258
2.1868	84.8198
2.1812	85.044
2.1758	85.0095
2.1703	85.0158
2.1649	84.9102
2.1595	85.0792
2.1541	85.1311
2.1487	84.9015
2.1434	84.7403
2.1381	85.1827
2.1328	85.036
2.1275	85.2492
2.1223	85.2944
2.1171	85.2207
2.112	85.3028
2.1068	85.3035
2.1017	85.3742
2.0966	85.2445
2.0915	85.4815
2.0865	85.3446
2.0814	85.2643
2.0764	85.4662
2.0715	85.5269
2.0665	85.182
2.0616	85.4083
2.0567	85.1733
2.0518	85.5312
2.0469	85.2941
2.0421	85.3526
2.0373	85.099
2.0325	85.2077
2.0277	85.4366
2.0229	85.2582
2.0182	85.3708
2.0135	85.1971
2.0088	85.3694
2.0042	84.8749
