Name: Chabazite CaAl2Si4O12.6H2O
Type: Mineral
Class: Silicate
Subclass: Tectosilicate
Particle Size: Solid
Sample No.: chabazite_1
Owner: JHU
Wavelength Range: TIR
Origin: W. J. Ehmann #40; from Kyogle, N.S.W., Australia.
Description: The sample was a white crystalline mass.  Petrographically the sample appears to be pure chabazite. Sample had cleavage face.(Framework silicates) (Zeolite Group) Original ASTER Spectral Library name was jhu.nicolet.mineral.silicate.tectosilicate.solid.chabaz1.spectrum.txt
Measurement: Bidirectional reflectance
X Units: Wavelength (micrometers)
Y Units: Reflectance (percent)
wavelength	value
25.0442	8.5097
24.3388	8.2871
23.6719	7.5571
23.0407	6.249
22.4422	5.9314
21.8741	5.9104
21.334	5.9309
20.8199	5.7388
20.33	5.5522
19.8627	6.0969
19.4163	7.1518
18.9896	6.9448
18.5812	4.3516
18.19	3.6355
17.815	3.741
17.4551	3.9285
17.1094	4.1277
16.7772	4.3081
16.4576	4.5315
16.15	4.8218
15.8537	5.2439
15.568	5.4621
15.2925	4.7776
15.0265	3.4184
14.7697	3.0681
14.5214	3.1018
14.2814	3.1531
14.0492	3.1904
13.8244	3.1326
13.6067	3.0124
13.3957	2.8586
13.1912	2.8569
12.9929	2.7839
12.8004	2.6851
12.6135	2.7322
12.432	2.8882
12.2557	3.1128
12.0843	3.3137
11.9176	3.5605
11.7555	3.758
11.5977	3.9851
11.444	4.3391
11.2944	4.5442
11.1487	4.8249
11.0067	5.1814
10.8682	5.6648
10.7332	6.2407
10.6015	7.0869
10.473	7.9236
10.3476	8.633
10.2251	9.3674
10.1056	10.395
9.9887	11.4797
9.8746	12.5962
9.763	13.7483
9.6539	14.7248
9.5472	14.9226
9.4429	13.5803
9.3408	11.0981
9.2409	9.072
9.1431	7.9533
9.0474	7.3284
8.9536	6.9433
8.8618	6.7529
8.7718	6.6797
8.6837	6.6482
8.5973	6.6465
8.5126	6.6033
8.4295	6.1267
8.3481	4.6228
8.2682	2.2849
8.1898	0.8459
8.1129	0.4832
8.0374	0.5046
7.9634	0.6238
7.8906	0.7573
7.8192	0.8909
7.7491	1.0098
7.6802	1.1357
7.6126	1.24
7.5461	1.3523
7.4807	1.4524
7.4165	1.5581
7.3534	1.6572
7.2914	1.7375
7.2303	1.7981
7.1703	1.8635
7.1113	1.9812
7.0533	2.061
6.9962	2.0991
6.94	2.1228
6.8847	2.1497
6.8302	2.1526
6.7767	2.1492
6.7239	2.1648
6.672	2.1726
6.6209	2.1738
6.5705	2.166
6.5209	2.1746
6.4721	2.1753
6.424	2.1655
6.3766	2.1982
6.3299	2.2292
6.2838	2.2737
6.2385	2.3347
6.1937	2.4126
6.1496	2.4565
6.1062	2.3621
6.0633	2.136
6.0211	1.9358
5.9794	1.7961
5.9383	1.7471
5.8978	1.779
5.8578	1.845
5.8184	1.8921
5.7794	1.9521
5.741	1.9932
5.7031	2.0261
5.6657	2.0588
5.6288	2.0786
5.5924	2.1164
5.5564	2.1389
5.5209	2.1543
5.4859	2.1689
5.4513	2.1907
5.4171	2.2085
5.3833	2.2295
5.35	2.2393
5.3171	2.2656
5.2846	2.2754
5.2524	2.2798
5.2207	2.2998
5.1893	2.3081
5.1584	2.3232
5.1277	2.3359
5.0975	2.3459
5.0676	2.3633
5.038	2.3706
5.0088	2.3743
4.98	2.385
4.9514	2.397
4.9232	2.4111
4.8953	2.416
4.8678	2.4219
4.8405	2.4358
4.8135	2.448
4.7868	2.4543
4.7605	2.4622
4.7344	2.4651
4.7086	2.4719
4.6831	2.4844
4.6578	2.4902
4.6328	2.4995
4.6081	2.501
4.5837	2.509
4.5595	2.5166
4.5356	2.519
4.5119	2.5322
4.4884	2.5371
4.4652	2.5522
4.4423	2.5444
4.4196	2.5515
4.3971	2.5557
4.3748	2.5632
4.3528	2.5698
4.331	2.5757
4.3094	2.5803
4.288	2.581
4.2668	2.5945
4.2458	2.5945
4.2251	2.602
4.2045	2.6057
4.1841	2.6118
4.164	2.6147
4.144	2.6291
4.1242	2.6255
4.1046	2.6406
4.0852	2.6426
4.066	2.6631
4.047	2.6714
4.0281	2.6687
4.0094	2.6746
3.9909	2.6819
3.9725	2.6897
3.9544	2.6907
3.9363	2.6924
3.9185	2.7012
3.9008	2.7151
3.8833	2.7165
3.8659	2.7231
3.8487	2.7246
3.8316	2.7305
3.8147	2.7278
3.7979	2.7349
3.7813	2.7439
3.7648	2.7544
3.7485	2.7537
3.7323	2.7534
3.7162	2.7666
3.7003	2.771
3.6845	2.7756
3.6689	2.782
3.6534	2.7832
3.638	2.7974
3.6227	2.8049
3.6076	2.8052
3.5926	2.8039
3.5777	2.8232
3.563	2.8264
3.5484	2.8435
3.5338	2.8354
3.5195	2.853
3.5052	2.8672
3.491	2.8689
3.477	2.8772
3.463	2.8772
3.4492	2.8813
3.4355	2.8889
3.4219	2.9087
3.4084	2.9043
3.395	2.9099
3.3817	2.9072
3.3685	2.9065
3.3554	2.917
3.3425	2.9133
3.3296	2.9309
3.3168	2.9331
3.3041	2.9346
3.2915	2.9556
3.279	2.959
3.2666	2.9709
3.2543	2.9731
3.2421	2.9814
3.23	2.9858
3.218	2.9949
3.206	3.0002
3.1942	3.0007
3.1824	3.0124
3.1707	3.0127
3.1591	3.0183
3.1476	3.0168
3.1362	3.0161
3.1249	3.0144
3.1136	3.0056
3.1024	3.0068
3.0913	2.9812
3.0803	2.9753
3.0694	2.9495
3.0585	2.9397
3.0477	2.9307
3.037	2.9294
3.0264	2.9184
3.0158	2.917
3.0053	2.9089
2.9949	2.8909
2.9845	2.8696
2.9743	2.8518
2.9641	2.8225
2.9539	2.7905
2.9439	2.7751
2.9339	2.7344
2.9239	2.7087
2.9141	2.6716
2.9043	2.6518
2.8946	2.6374
2.8849	2.6069
2.8753	2.5791
2.8658	2.5469
2.8563	2.5332
2.8469	2.5139
2.8375	2.4734
2.8282	2.4573
2.819	2.4375
2.8098	2.3977
2.8007	2.3511
2.7917	2.3118
2.7827	2.2607
2.7738	2.2258
2.7649	2.1909
2.7561	2.1641
2.7473	2.1746
2.7386	2.1948
2.7299	2.2432
2.7213	2.2834
2.7128	2.3323
2.7043	2.373
2.6959	2.3987
2.6875	2.4382
2.6791	2.4539
2.6709	2.4668
2.6626	2.4971
2.6545	2.5154
2.6463	2.5276
2.6382	2.5388
2.6302	2.5339
2.6222	2.5659
2.6143	2.5696
2.6064	2.5635
2.5986	2.5859
2.5908	2.6086
2.583	2.5957
2.5753	2.6121
2.5677	2.6326
2.5601	2.6333
2.5525	2.6296
2.545	2.6365
2.5375	2.6482
2.5301	2.6484
2.5227	2.6533
2.5154	2.6555
2.5081	2.6663
2.5008	2.6736
2.4936	2.6748
2.4864	2.6641
2.4793	2.6848
2.4722	2.667
2.4651	2.6858
2.4581	2.6855
2.4511	2.6968
2.4442	2.7065
2.4373	2.7041
2.4305	2.6999
2.4236	2.7014
2.4169	2.6987
2.4101	2.7185
2.4034	2.7285
2.3967	2.7295
2.3901	2.7219
2.3835	2.7302
2.377	2.7385
2.3704	2.7139
2.364	2.7129
2.3575	2.7226
2.3511	2.7446
2.3447	2.7219
2.3384	2.7305
2.3321	2.7285
2.3258	2.7358
2.3195	2.7143
2.3133	2.7158
2.3071	2.7143
2.301	2.7256
2.2949	2.7485
2.2888	2.7341
2.2828	2.7544
2.2767	2.7295
2.2708	2.7617
2.2648	2.75
2.2589	2.769
2.253	2.7573
2.2471	2.7451
2.2413	2.7685
2.2355	2.7637
2.2297	2.7583
2.224	2.7419
2.2183	2.7397
2.2126	2.7642
2.207	2.7588
2.2013	2.7417
2.1957	2.748
2.1902	2.7734
2.1846	2.751
2.1791	2.7412
2.1736	2.7417
2.1682	2.7788
2.1628	2.7698
2.1574	2.7488
2.152	2.7612
2.1466	2.7229
2.1413	2.7334
2.136	2.7307
2.1308	2.7397
2.1255	2.7375
2.1203	2.7146
2.1151	2.7236
2.11	2.7339
2.1048	2.7246
2.0997	2.7446
2.0946	2.7546
2.0895	2.7353
2.0845	2.7427
2.0795	2.6997
