Name: Ferroaxinite Ca_2Fe^2+Al_2BSi_4O_15(OH)
Type: Mineral
Class: Silicate
Subclass: Cyclosilicate
Particle Size: Fine
Sample No.: CS-4A
Owner: JPL
Wavelength Range: VSWIR
Origin: Mexico, Baja California Norte, Los Gavelontos
Description: Particle size was 0-45um.Collected by Ward's Original ASTER Spectral Library name was jpl.beckman.mineral.silicate.cyclosilicate.fine.cs04a.spectrum.txt
Measurement: Hemispherical reflectance
X Units: Wavelength (micrometers)
Y Units: Reflectance (percent)
wavelength	value
0.4	44.13
0.403	44.84
0.406	45.17
0.409	44.25
0.412	41.98
0.415	42.85
0.418	43.8
0.421	44.11
0.424	44.11
0.427	44.26
0.43	44.31
0.433	44.4
0.436	44.35
0.439	44.85
0.442	45.48
0.445	46.16
0.448	46.64
0.451	46.91
0.454	47.42
0.457	47.62
0.46	47.8
0.463	47.97
0.466	48.03
0.469	48.17
0.472	48.6
0.475	48.84
0.478	48.82
0.481	48.82
0.484	48.9
0.487	48.74
0.49	48.73
0.493	48.72
0.496	48.86
0.499	48.88
0.502	48.93
0.505	49
0.508	48.91
0.511	48.89
0.514	48.9
0.517	49.18
0.52	49.19
0.523	49.19
0.526	49.27
0.529	49.39
0.532	49.36
0.535	49.41
0.538	49.67
0.541	49.58
0.544	49.72
0.547	49.91
0.55	50.16
0.553	50.27
0.556	50.45
0.559	50.59
0.562	50.96
0.565	51.13
0.568	51.28
0.571	51.48
0.574	51.42
0.577	51.74
0.58	51.91
0.583	52.01
0.586	52.28
0.589	52.65
0.592	52.74
0.595	52.9
0.598	53.24
0.601	53.62
0.604	53.84
0.607	53.93
0.61	54.22
0.613	54.42
0.616	54.65
0.619	54.72
0.622	55.14
0.625	55.28
0.628	55.5
0.631	55.64
0.634	55.92
0.637	56.22
0.64	56.32
0.643	56.48
0.646	56.83
0.649	57
0.652	57.18
0.655	57.41
0.658	57.79
0.661	57.97
0.664	58.09
0.667	58.44
0.67	58.69
0.673	58.78
0.676	59.09
0.679	59.32
0.682	59.64
0.685	59.63
0.688	60
0.691	60.25
0.694	60.45
0.697	60.49
0.7	60.66
0.703	60.84
0.706	61.31
0.709	61.52
0.712	61.5
0.715	61.67
0.718	61.98
0.721	62.1
0.724	62.21
0.727	62.57
0.73	62.63
0.733	62.75
0.736	62.88
0.739	63.09
0.742	63.23
0.745	63.38
0.748	63.48
0.751	63.63
0.754	63.67
0.757	63.95
0.76	64.01
0.763	64.06
0.766	64.16
0.769	64.42
0.772	64.54
0.775	64.5
0.778	64.58
0.781	64.83
0.784	64.97
0.787	65
0.79	65.08
0.793	65.3
0.796	65.29
0.799	65.26
0.808	65.35
0.82	65.07
0.832	64.5
0.844	63.72
0.856	62.37
0.868	60.83
0.88	58.75
0.892	56.47
0.904	53.97
0.916	51.31
0.928	48.35
0.94	45.38
0.952	42.28
0.964	39.38
0.976	36.56
0.988	33.95
1	31.5
1.012	29.35
1.024	27.4
1.036	25.76
1.048	24.24
1.06	22.96
1.072	21.9
1.084	20.95
1.096	20.22
1.108	19.6
1.12	19.1
1.132	18.65
1.144	18.42
1.156	18.31
1.168	18.32
1.18	18.42
1.192	18.61
1.204	18.99
1.216	19.43
1.228	20.12
1.24	20.8
1.252	21.75
1.264	22.81
1.276	24.03
1.288	25.59
1.3	27.31
1.312	29.26
1.324	31.42
1.336	33.73
1.348	36.33
1.36	39.14
1.372	41.86
1.384	44.77
1.396	47.48
1.408	50.08
1.42	52.67
1.432	54.97
1.444	56.85
1.456	58.36
1.468	59.58
1.48	60.35
1.492	60.77
1.504	61.05
1.516	60.76
1.528	60.51
1.54	60.11
1.552	59.8
1.564	59.6
1.576	59.12
1.588	58.52
1.6	57.84
1.612	57.04
1.624	56.25
1.636	55.4
1.648	54.48
1.66	53.47
1.672	52.64
1.684	51.76
1.696	50.87
1.708	49.95
1.72	48.92
1.732	48.01
1.744	47.14
1.756	46.31
1.768	45.45
1.78	44.62
1.792	43.77
1.804	43
1.816	42.4
1.828	41.6
1.84	40.84
1.852	40.22
1.864	39.52
1.876	38.87
1.888	38.23
1.9	37.74
1.912	37.18
1.924	36.82
1.936	36.28
1.948	35.97
1.96	35.55
1.972	35.4
1.984	35.19
1.996	34.96
2.008	34.84
2.02	34.61
2.032	34.46
2.044	34.36
2.056	34.33
2.068	34.27
2.08	34.25
2.092	34.31
2.104	34.52
2.116	34.62
2.128	34.61
2.14	34.82
2.152	35.01
2.164	35.25
2.176	35.46
2.188	35.62
2.2	36.05
2.212	36.47
2.224	36.85
2.236	36.93
2.248	37.05
2.26	36.97
2.272	36.88
2.284	36.49
2.296	35.83
2.308	35.63
2.32	36.42
2.332	38.57
2.344	40.77
2.356	41.83
2.368	42.96
2.38	45.08
2.392	47.47
2.404	49.34
2.416	50.69
2.428	51.88
2.44	52.79
2.452	53.73
2.464	54.55
2.476	55.14
2.488	55.85
2.5	56.35
