Name: Enstatite Mg2Si2O6
Type: Mineral
Class: Silicate
Subclass: Inosilicate
Particle Size: Coarse
Sample No.: enstatite_1
Owner: JHU
Wavelength Range: TIR
Origin: Sample from Frank Smith Mine, near Barkly Wes, SouthAfrica via the Smithsonian (sample no. NMNH 128288).
Description: Sample was a single light green piece, apparently part of a single crystal, with a large area of contamination by a dark green mineral, discarded during crushing. A small amount of black mineral veining was present. Under the microscope, the hand-picked material appeared moderately altered. A higher index of refraction than expected indicated probable higher iron content than pure enstatite. Particle size was 74-250 Micrometers.(Chain Silicates) (Pyroxene Group) Original ASTER Spectral Library name was jhu.nicolet.mineral.silicate.inosilicate.coarse.enstat1.spectrum.txt
Measurement: Bidirectional reflectance
X Units: Wavelength (micrometers)
Y Units: Reflectance (percent)
wavelength	value
25.0442	5.6721
24.3388	5.092
23.6719	4.8996
23.0407	5.728
22.4422	6.5202
21.8741	7.2612
21.334	6.8735
20.8199	7.1328
20.33	8.1924
19.8627	9.6562
19.4163	10.508
18.9896	9.1396
18.5812	8.5171
18.19	9.0097
17.815	7.4346
17.4551	8.1504
17.1094	7.4971
16.7772	6.1479
16.4576	5.1572
16.15	3.2229
15.8537	2.4956
15.568	2.4841
15.2925	2.6907
15.0265	2.1077
14.7697	2.4346
14.5214	2.9448
14.2814	2.7029
14.0492	2.3198
13.8244	2.5957
13.6067	2.1785
13.3957	2.3088
13.1912	2.386
12.9929	2.5212
12.8004	2.7251
12.6135	2.8689
12.432	2.9978
12.2557	3.25
12.0843	3.5354
11.9176	4.0037
11.7555	4.7236
11.5977	5.3552
11.444	5.6113
11.2944	4.563
11.1487	4.0449
11.0067	3.7444
10.8682	4.7966
10.7332	5.6235
10.6015	5.5925
10.473	6.1203
10.3476	5.978
10.2251	6.1633
10.1056	5.5246
9.9887	5.1352
9.8746	5.9451
9.763	5.1321
9.6539	4.6545
9.5472	6.3071
9.4429	6.6323
9.3408	7.0508
9.2409	7.0896
9.1431	6.9018
9.0474	7.0564
8.9536	7.3352
8.8618	7.2793
8.7718	7.1963
8.6837	7.2097
8.5973	5.541
8.5126	3.2815
8.4295	1.1521
8.3481	0.4346
8.2682	0.6003
8.1898	0.7864
8.1129	0.9658
8.0374	1.1267
7.9634	1.2822
7.8906	1.4182
7.8192	1.5566
7.7491	1.675
7.6802	1.7878
7.6126	1.8979
7.5461	2.0142
7.4807	2.1157
7.4165	2.2004
7.3534	2.2707
7.2914	2.3691
7.2303	2.448
7.1703	2.5483
7.1113	2.5991
7.0533	2.594
6.9962	2.5974
6.94	2.6692
6.8847	2.7231
6.8302	2.7864
6.7767	2.8039
6.7239	2.7893
6.672	2.7422
6.6209	2.7664
6.5705	2.8848
6.5209	2.9397
6.4721	2.8752
6.424	2.7683
6.3766	2.5864
6.3299	2.456
6.2838	2.4551
6.2385	2.4665
6.1937	2.4868
6.1496	2.5923
6.1062	2.6521
6.0633	2.6296
6.0211	2.633
5.9794	2.8242
5.9383	3.1304
5.8978	3.332
5.8578	3.3301
5.8184	3.2996
5.7794	3.3213
5.741	3.3352
5.7031	3.3894
5.6657	3.4289
5.6288	3.5268
5.5924	3.675
5.5564	3.9128
5.5209	4.0666
5.4859	4.0386
5.4513	4.0361
5.4171	4.1633
5.3833	4.3769
5.35	4.4473
5.3171	4.4241
5.2846	4.3301
5.2524	4.2258
5.2207	4.1035
5.1893	3.8523
5.1584	3.5774
5.1277	3.5264
5.0975	3.6499
5.0676	3.8103
5.038	3.9846
5.0088	4.155
4.98	4.2891
4.9514	4.363
4.9232	4.3596
4.8953	4.3516
4.8678	4.2934
4.8405	4.2673
4.8135	4.3569
4.7868	4.5657
4.7605	4.8579
4.7344	5.1274
4.7086	5.3362
4.6831	5.5193
4.6578	5.6626
4.6328	5.9302
4.6081	6.3393
4.5837	6.7651
4.5595	7.1218
4.5356	7.4446
4.5119	7.7158
4.4884	7.8647
4.4652	7.9309
4.4423	7.9717
4.4196	8.0095
4.3971	8.0361
4.3748	8.0688
4.3528	8.0796
4.331	8.0915
4.3094	8.1059
4.288	8.1247
4.2668	8.1655
4.2458	8.2085
4.2251	8.2297
4.2045	8.2536
4.1841	8.2732
4.164	8.3047
4.144	8.324
4.1242	8.3511
4.1046	8.374
4.0852	8.4057
4.066	8.4172
4.047	8.4365
4.0281	8.4524
4.0094	8.4624
3.9909	8.4468
3.9725	8.4761
3.9544	8.497
3.9363	8.5093
3.9185	8.5285
3.9008	8.5349
3.8833	8.5356
3.8659	8.5334
3.8487	8.5342
3.8316	8.5232
3.8147	8.511
3.7979	8.5034
3.7813	8.5014
3.7648	8.5005
3.7485	8.4912
3.7323	8.48
3.7162	8.4641
3.7003	8.4404
3.6845	8.4197
3.6689	8.4079
3.6534	8.386
3.638	8.383
3.6227	8.3711
3.6076	8.3513
3.5926	8.3293
3.5777	8.2976
3.563	8.271
3.5484	8.2414
3.5338	8.2097
3.5195	8.1533
3.5052	8.0937
3.491	8.0705
3.477	8.04
3.463	8.0068
3.4492	7.9643
3.4355	7.9133
3.4219	7.8833
3.4084	7.8511
3.395	7.8811
3.3817	7.8662
3.3685	7.81
3.3554	7.6977
3.3425	7.8074
3.3296	7.8681
3.3168	7.8708
3.3041	7.8533
3.2915	7.8247
3.279	7.7969
3.2666	7.7644
3.2543	7.7353
3.2421	7.7092
3.23	7.6621
3.218	7.6262
3.206	7.593
3.1942	7.5696
3.1824	7.5356
3.1707	7.5
3.1591	7.4441
3.1476	7.3872
3.1362	7.3484
3.1249	7.3078
3.1136	7.2585
3.1024	7.2334
3.0913	7.198
3.0803	7.1584
3.0694	7.1384
3.0585	7.1074
3.0477	7.0703
3.037	7.0254
3.0264	7.0027
3.0158	6.9587
3.0053	6.9206
2.9949	6.8943
2.9845	6.8467
2.9743	6.792
2.9641	6.7261
2.9539	6.6889
2.9439	6.6228
2.9339	6.5972
2.9239	6.5749
2.9141	6.5605
2.9043	6.529
2.8946	6.4919
2.8849	6.4353
2.8753	6.3757
2.8658	6.301
2.8563	6.1994
2.8469	6.1037
2.8375	5.987
2.8282	5.9097
2.819	5.7805
2.8098	5.6321
2.8007	5.5576
2.7917	5.5395
2.7827	5.5032
2.7738	5.4753
2.7649	5.4355
2.7561	5.3281
2.7473	5.241
2.7386	5.1052
2.7299	4.884
2.7213	4.5403
2.7128	4.1736
2.7043	4.3679
2.6959	5.4241
2.6875	6.8257
2.6791	8.0393
2.6709	8.7998
2.6626	9.144
2.6545	9.2063
2.6463	9.2207
2.6382	9.2217
2.6302	9.2473
2.6222	9.2427
2.6143	9.249
2.6064	9.1902
2.5986	9.1855
2.5908	9.1699
2.583	9.1526
2.5753	9.1306
2.5677	9.073
2.5601	9.0427
2.5525	9.032
2.545	9.0451
2.5375	9.0034
2.5301	8.9966
2.5227	8.9594
2.5154	8.9262
2.5081	8.9043
2.5008	8.8825
2.4936	8.8762
2.4864	8.8266
2.4793	8.8386
2.4722	8.8159
2.4651	8.8142
2.4581	8.779
2.4511	8.7605
2.4442	8.717
2.4373	8.677
2.4305	8.6833
2.4236	8.6279
2.4169	8.6499
2.4101	8.635
2.4034	8.6028
2.3967	8.519
2.3901	8.4873
2.3835	8.4353
2.377	8.4221
2.3704	8.4284
2.364	8.4284
2.3575	8.4089
2.3511	8.3838
2.3447	8.2912
2.3384	8.2304
2.3321	8.1484
2.3258	8.1006
2.3195	8.0332
2.3133	8.0246
2.3071	8.0708
2.301	8.053
2.2949	8.0654
2.2888	8.0508
2.2828	8.0058
2.2767	8.019
2.2708	7.99
2.2648	7.9768
2.2589	7.9575
2.253	7.9321
2.2471	7.9092
2.2413	7.875
2.2355	7.8364
2.2297	7.8196
2.224	7.7671
2.2183	7.7292
2.2126	7.7107
2.207	7.6687
2.2013	7.6367
2.1957	7.5918
2.1902	7.55
2.1846	7.5083
2.1791	7.4641
2.1736	7.4189
2.1682	7.3301
2.1628	7.3418
2.1574	7.2895
2.152	7.2409
2.1466	7.196
2.1413	7.1445
2.136	7.1133
2.1308	7.039
2.1255	7.0017
2.1203	6.9609
2.1151	6.9033
2.11	6.8572
2.1048	6.7837
2.0997	6.7456
2.0946	6.7324
2.0895	6.6692
2.0845	6.6245
2.0795	6.5334
