Name: Cookeite LiAl_4(Si_3Al)O_10(OH)_8
Type: Mineral
Class: Silicate
Subclass: Phyllosilicate
Particle Size: Coarse
Sample No.: PS-9A
Owner: JPL
Wavelength Range: TIR
Origin: USA, Arkansas, Pulaski County
Description: Particle size was 125-500um.Collected by JPL Original ASTER Spectral Library name was jpl.nicolet.mineral.silicate.phyllosilicate.coarse.ps09a.spectrum.txt
Measurement: Hemispherical reflectance
X Units: Wavelength (micrometers)
Y Units: Reflectance (percent)
wavelength	value
15.3853	3.2039
15.1161	3.1197
14.8563	2.891
14.6052	2.7208
14.3624	2.535
14.1276	2.9404
13.9004	3.0584
13.6803	3.3093
13.4671	2.6429
13.2604	2.3358
13.06	2.2775
12.8656	2.2717
12.6769	2.2808
12.4936	2.6279
12.3155	2.0636
12.1425	1.8301
11.9742	2.1059
11.8106	2.7
11.6513	3.3646
11.4963	4.3151
11.3454	4.9488
11.1983	5.2898
11.0551	6.0238
10.9154	6.44
10.7793	6.3376
10.6465	7.1514
10.5169	7.0786
10.3904	7.9334
10.267	10.0685
10.1464	11.3111
10.0287	12.9389
9.9136	16.6611
9.8012	17.9518
9.6913	18.6588
9.5838	18.0062
9.4787	21.6575
9.3758	25.3094
9.2752	25.0213
9.1767	24.3212
9.0803	22.7234
8.9858	16.3396
8.8934	15.2819
8.8028	10.9467
8.714	6.7098
8.627	3.8531
8.5417	2.9643
8.4581	1.9682
8.3761	1.7004
8.2957	1.2734
8.2169	1.2153
8.1395	1.082
8.0635	0.7265
7.989	0.8001
7.9158	0.7404
7.8439	0.9387
7.7734	1.0897
7.7041	1.2338
7.636	1.4271
7.5691	1.6759
7.5034	1.857
7.4388	2.0379
7.3753	2.2578
7.3129	2.5962
7.2515	2.6412
7.1912	2.8348
7.1318	3.1008
7.0734	3.2168
7.016	3.3914
6.9595	3.5898
6.9039	3.6908
6.8492	3.9622
6.7953	3.9869
6.7423	4.3083
6.6901	4.5147
6.6387	4.5246
6.5881	4.684
6.5382	4.9119
6.4892	4.9238
6.4408	5.1372
6.3931	5.3054
6.3462	5.442
6.2999	5.4619
6.2543	5.6239
6.2094	5.5584
6.1651	5.4022
6.1214	5.3753
6.0784	5.3929
6.0359	5.3983
5.994	5.5438
5.9527	5.5519
5.912	5.7014
5.8718	5.9473
5.8322	6.0346
5.7931	6.257
5.7545	6.412
5.7165	6.4038
5.6789	6.4256
5.6418	6.4642
5.6052	6.3582
5.5691	6.4626
5.5334	6.3971
5.4982	6.4009
5.4635	6.4872
5.4291	6.5639
5.3952	6.5359
5.3618	6.5874
5.3287	6.8919
5.2961	7.0608
5.2638	7.5464
5.2319	7.9668
5.2004	8.3965
5.1693	8.9373
5.1386	9.4656
5.1082	9.8184
5.0782	10.1011
5.0485	10.2486
5.0192	10.4399
4.9902	10.4972
4.9616	10.5842
4.9332	10.5915
4.9052	10.5823
4.8776	10.7285
4.8502	10.8558
4.8231	11.0234
4.7963	11.1384
4.7699	11.2994
4.7437	11.5234
4.7178	11.8469
4.6922	12.1427
4.6668	12.7074
4.6418	13.195
4.617	13.8168
4.5924	14.4253
4.5681	15.033
4.5441	15.9062
4.5203	16.6263
4.4968	17.5318
4.4735	18.6505
4.4505	19.6174
4.4277	20.4371
4.4051	21.875
4.3828	23.4439
4.3607	24.668
4.3388	25.51
4.3171	26.0482
4.2956	26.6493
4.2744	27.051
4.2534	27.5054
4.2325	27.7802
4.2119	28.2733
4.1915	28.6481
4.1712	29.015
4.1512	29.353
4.1313	29.4942
4.1117	29.7155
4.0922	29.8987
4.0729	29.9118
4.0538	29.8947
4.0349	30.0937
4.0161	30.1493
3.9976	30.2972
3.9792	30.3781
3.9609	30.394
3.9428	30.3624
3.9249	30.1938
3.9072	30.147
3.8896	30.0075
3.8722	29.8484
3.8549	29.6412
3.8378	29.5109
3.8208	29.3822
3.804	29.203
3.7873	28.9508
3.7708	28.7956
3.7544	28.4473
3.7382	27.9709
3.7221	27.4194
3.7061	26.9926
3.6903	26.7874
3.6746	26.6026
3.659	26.3175
3.6436	26.1703
3.6283	26.0182
3.6131	25.8601
3.5981	25.6605
3.5832	25.5232
3.5684	25.2343
3.5537	25.138
3.5391	24.7041
3.5247	24.4294
3.5104	24.0197
3.4962	23.6273
3.4821	23.2496
3.4681	23.0552
3.4543	22.4093
3.4405	22.0475
3.4269	21.4131
3.4133	21.1898
3.3999	20.7351
3.3866	20.4044
3.3733	19.8609
3.3602	19.4204
3.3472	18.9192
3.3343	18.185
3.3215	17.7503
3.3088	17.1899
3.2961	16.5451
3.2836	16.1175
3.2712	15.5866
3.2588	14.9546
3.2466	14.5356
3.2345	13.9558
3.2224	13.574
3.2104	13.0676
3.1985	12.5352
3.1867	12.1011
3.175	11.3154
3.1634	10.7592
3.1519	10.2925
3.1404	9.6594
3.129	9.1158
3.1178	8.5826
3.1065	8.0739
3.0954	7.6497
3.0844	7.1537
3.0734	6.9493
3.0625	6.4697
3.0517	6.395
3.041	6.1009
3.0303	5.7582
3.0197	5.6517
3.0092	5.4451
2.9987	5.263
2.9884	5.3232
2.9781	5.6562
2.9678	5.7709
2.9577	6.0995
2.9476	6.6741
2.9376	7.057
2.9276	7.1746
2.9177	7.1147
2.9079	6.7377
2.8982	6.5019
2.8885	5.9508
2.8789	5.6536
2.8693	5.6902
2.8598	5.6991
2.8504	5.6101
2.841	5.5834
2.8317	5.4653
2.8224	5.7378
2.8133	5.9296
2.8041	6.0604
2.7951	6.125
2.786	6.1677
2.7771	5.9801
2.7682	5.599
2.7594	4.4201
2.7506	4.2123
2.7418	3.7423
2.7332	3.5284
2.7246	3.6188
2.716	4.2007
2.7075	4.9385
2.699	7.0773
2.6906	11.7226
2.6823	14.7139
2.674	16.8167
2.6657	18.0166
2.6575	19.1152
2.6494	20.0037
2.6413	20.4967
2.6332	20.6768
2.6252	20.9458
2.6173	20.9855
2.6094	21.4727
2.6015	22.0438
2.5937	22.3826
2.5859	23.1454
2.5782	23.6347
2.5706	24.1989
2.5629	24.6523
2.5554	24.8297
2.5478	25.1642
2.5403	25.5648
2.5329	26.1102
2.5255	26.0737
2.5181	26.1107
2.5108	26.0447
2.5035	25.9309
2.4963	26.0286
2.4891	25.9698
2.482	26.4069
2.4749	26.8131
2.4678	27.1345
2.4608	26.8559
2.4538	26.9307
2.4468	26.7859
2.4399	26.7889
2.4331	27.0463
2.4262	27.8672
2.4194	28.0749
2.4127	28.2308
2.4059	27.5267
2.3993	27.5099
2.3926	26.8854
2.386	26.0252
2.3795	24.8837
2.3729	23.8431
2.3664	23.0026
2.36	22.4261
2.3535	23.2986
2.3471	25.0172
2.3408	26.6461
2.3345	28.1504
2.3282	29.467
2.3219	30.5523
2.3157	32.017
2.3095	33.123
2.3034	34.3944
2.2972	35.8572
2.2911	36.4997
2.2851	37.1035
2.279	37.0769
2.2731	36.4328
2.2671	35.6386
2.2612	34.7777
2.2553	34.1026
2.2494	33.6626
2.2435	33.7684
2.2377	33.74
2.232	33.3121
2.2262	32.3126
2.2205	30.115
2.2148	28.4276
2.2091	29.0422
2.2035	30.527
2.1979	30.4091
2.1923	29.6572
2.1868	29.2471
2.1812	28.7052
2.1758	29.7207
2.1703	31.3268
2.1649	34.2873
2.1595	38.1202
2.1541	42.6466
2.1487	46.3619
2.1434	49.0238
2.1381	50.8763
2.1328	51.4699
2.1275	52.3021
2.1223	52.4496
2.1171	52.7087
2.112	52.3914
2.1068	52.7547
2.1017	52.6088
2.0966	52.4162
2.0915	52.9393
2.0865	52.9688
2.0814	52.9473
2.0764	53.3358
2.0715	52.4908
2.0665	52.9012
2.0616	52.743
2.0567	52.2954
2.0518	52.065
2.0469	51.5124
2.0421	50.8346
2.0373	50.9732
2.0325	50.6218
2.0277	50.4966
2.0229	50.025
2.0182	50.6728
2.0135	50.4793
2.0088	50.9916
2.0042	51.0404
