Name: Olivine (Fo92) (Fe+2,Mg)2SiO4
Type: Mineral
Class: Silicate
Subclass: Nesosilicate
Particle Size: Coarse
Sample No.: olivine_11
Owner: JHU
Wavelength Range: TIR
Origin: Chavira olivine-peridot mine, near Camargo, Chihuahua,Mexico via the Smithsonian (sample no. NMNH 137044)
Description: Sample consisted of many 0.5 cm particles, green in color, appearing pure, plus one large fragment.  The large (1.3 cm x 1 cm) fragment seemed to contain much of contamination, probably diopside, and was discarded.  The hand-picked sample seemed quite clean, except for one grain of pyroxene seen under the microscope and a small amount of limonitic staining on some grains. Particle size was 75 - 250  Micrometers. (Isolated tetrahedra); (Olivine Group) Original ASTER Spectral Library name was jhu.nicolet.mineral.silicate.nesosilicate.coarse.olivi11.spectrum.txt
Measurement: Bidirectional reflectance
X Units: Wavelength (micrometers)
Y Units: Reflectance (percent)
wavelength	value
25.0442	13.083
24.3388	14.9423
23.6719	18.8352
23.0407	15.6677
22.4422	12.2893
21.8741	8.353
21.334	7.1948
20.8199	5.74
20.33	5.9878
19.8627	10.2177
19.4163	10.7639
18.9896	14.0822
18.5812	11.9362
18.19	11.1557
17.815	9.1491
17.4551	7.322
17.1094	5.2507
16.7772	4.366
16.4576	5.135
16.15	6.1496
15.8537	6.5652
15.568	5.7517
15.2925	3.6099
15.0265	1.9299
14.7697	1.5627
14.5214	1.7439
14.2814	1.9226
14.0492	2.1599
13.8244	2.3406
13.6067	2.5273
13.3957	2.7122
13.1912	2.9075
12.9929	3.0686
12.8004	3.2983
12.6135	3.5137
12.432	3.7808
12.2557	4.1406
12.0843	4.6929
11.9176	5.5093
11.7555	4.9187
11.5977	6.4238
11.444	10.1933
11.2944	12.8532
11.1487	14.1711
11.0067	15.3125
10.8682	16.7031
10.7332	18.1245
10.6015	19.423
10.473	19.2087
10.3476	12.5869
10.2251	11.8442
10.1056	14.3256
9.9887	12.2861
9.8746	12.1347
9.763	11.7888
9.6539	10.9265
9.5472	9.8706
9.4429	9.1101
9.3408	9.0657
9.2409	7.6682
9.1431	5.8132
9.0474	4.1326
8.9536	2.6062
8.8618	1.2781
8.7718	0.7991
8.6837	0.9124
8.5973	1.0117
8.5126	1.1216
8.4295	1.1916
8.3481	1.301
8.2682	1.3916
8.1898	1.4653
8.1129	1.5945
8.0374	1.7339
7.9634	1.8669
7.8906	1.9534
7.8192	1.9924
7.7491	2.042
7.6802	2.115
7.6126	2.1443
7.5461	2.1746
7.4807	2.2749
7.4165	2.4104
7.3534	2.5417
7.2914	2.7046
7.2303	2.7539
7.1703	2.8008
7.1113	2.9394
7.0533	2.9534
6.9962	3.1492
6.94	3.4082
6.8847	3.6389
6.8302	3.655
6.7767	3.7017
6.7239	3.9726
6.672	4.2593
6.6209	4.4436
6.5705	4.4883
6.5209	4.4761
6.4721	4.5151
6.424	4.5403
6.3766	4.5632
6.3299	4.613
6.2838	4.4971
6.2385	4.5115
6.1937	4.6037
6.1496	4.5915
6.1062	4.354
6.0633	3.7881
6.0211	3.0076
5.9794	2.7446
5.9383	2.8213
5.8978	2.8389
5.8578	2.8115
5.8184	2.8428
5.7794	2.8838
5.741	2.8782
5.7031	2.6623
5.6657	2.4297
5.6288	2.2803
5.5924	2.3005
5.5564	2.6186
5.5209	2.7873
5.4859	2.8354
5.4513	2.822
5.4171	2.897
5.3833	3.0737
5.35	3.2241
5.3171	3.3545
5.2846	3.3982
5.2524	3.3928
5.2207	3.3848
5.1893	3.5134
5.1584	3.7361
5.1277	3.9975
5.0975	4.219
5.0676	4.3948
5.038	4.4631
5.0088	4.4155
4.98	4.291
4.9514	4.1167
4.9232	4.2256
4.8953	4.6743
4.8678	5.468
4.8405	6.1824
4.8135	6.532
4.7868	6.7439
4.7605	6.9065
4.7344	7.0205
4.7086	7.1177
4.6831	7.2051
4.6578	7.2981
4.6328	7.3669
4.6081	7.4475
4.5837	7.5393
4.5595	7.6325
4.5356	7.7278
4.5119	7.8293
4.4884	7.9287
4.4652	8.0183
4.4423	8.1023
4.4196	8.1826
4.3971	8.2641
4.3748	8.352
4.3528	8.4377
4.331	8.5151
4.3094	8.594
4.288	8.6596
4.2668	8.7304
4.2458	8.8244
4.2251	8.9006
4.2045	8.9729
4.1841	9.0456
4.164	9.1228
4.144	9.1823
4.1242	9.2407
4.1046	9.3047
4.0852	9.3742
4.066	9.4043
4.047	9.4211
4.0281	9.3747
4.0094	9.3696
3.9909	9.479
3.9725	9.5981
3.9544	9.7077
3.9363	9.7573
3.9185	9.8188
3.9008	9.8667
3.8833	9.8894
3.8659	9.9316
3.8487	9.9487
3.8316	9.9834
3.8147	10.0522
3.7979	10.0986
3.7813	10.1618
3.7648	10.2405
3.7485	10.3127
3.7323	10.3672
3.7162	10.4175
3.7003	10.5024
3.6845	10.572
3.6689	10.6242
3.6534	10.6823
3.638	10.7297
3.6227	10.7885
3.6076	10.8467
3.5926	10.9043
3.5777	10.9392
3.563	10.9812
3.5484	11.0227
3.5338	11.07
3.5195	11.1035
3.5052	11.0971
3.491	11.1533
3.477	11.2065
3.463	11.2761
3.4492	11.2822
3.4355	11.2783
3.4219	11.2509
3.4084	11.2685
3.395	11.3603
3.3817	11.3896
3.3685	11.4092
3.3554	11.4748
3.3425	11.5039
3.3296	11.56
3.3168	11.6196
3.3041	11.6523
3.2915	11.7085
3.279	11.7383
3.2666	11.7619
3.2543	11.7693
3.2421	11.8032
3.23	11.8327
3.218	11.8318
3.206	11.8486
3.1942	11.8781
3.1824	11.8889
3.1707	11.9048
3.1591	11.9111
3.1476	11.9143
3.1362	11.9116
3.1249	11.9209
3.1136	11.9133
3.1024	11.9275
3.0913	11.9482
3.0803	11.9709
3.0694	11.9768
3.0585	11.9834
3.0477	12.0066
3.037	11.9922
3.0264	11.9975
3.0158	11.9587
3.0053	11.8806
2.9949	11.9331
2.9845	11.9187
2.9743	11.8984
2.9641	11.938
2.9539	11.9392
2.9439	11.9631
2.9339	11.9633
2.9239	11.9467
2.9141	11.9804
2.9043	11.9961
2.8946	12.0022
2.8849	12.0112
2.8753	11.9389
2.8658	11.9494
2.8563	11.9858
2.8469	11.8503
2.8375	11.5681
2.8282	11.9021
2.819	12.0605
2.8098	11.8925
2.8007	11.3564
2.7917	12.0859
2.7827	12.2932
2.7738	12.3574
2.7649	12.3891
2.7561	12.4465
2.7473	12.5112
2.7386	12.5612
2.7299	12.6352
2.7213	12.6552
2.7128	12.6872
2.7043	12.7121
2.6959	12.7341
2.6875	12.7854
2.6791	12.8342
2.6709	12.8515
2.6626	12.852
2.6545	12.8571
2.6463	12.8152
2.6382	12.852
2.6302	12.8554
2.6222	12.8537
2.6143	12.8735
2.6064	12.8794
2.5986	12.875
2.5908	12.8999
2.583	12.9277
2.5753	12.9121
2.5677	12.9297
2.5601	12.9043
2.5525	12.893
2.545	12.8925
2.5375	12.8925
2.5301	12.8798
2.5227	12.8217
2.5154	12.8598
2.5081	12.8364
2.5008	12.8247
2.4936	12.8398
2.4864	12.8374
2.4793	12.7778
2.4722	12.7778
2.4651	12.7549
2.4581	12.7661
2.4511	12.7231
2.4442	12.6938
2.4373	12.7207
2.4305	12.6836
2.4236	12.7011
2.4169	12.6584
2.4101	12.7028
2.4034	12.6985
2.3967	12.6716
2.3901	12.6513
2.3835	12.6074
2.377	12.6467
2.3704	12.5947
2.364	12.6372
2.3575	12.5808
2.3511	12.612
2.3447	12.5678
2.3384	12.5295
2.3321	12.5166
2.3258	12.5188
2.3195	12.4648
2.3133	12.4716
2.3071	12.4072
2.301	12.3943
2.2949	12.4143
2.2888	12.3855
2.2828	12.3664
2.2767	12.3349
2.2708	12.3369
2.2648	12.3735
2.2589	12.3637
2.253	12.3252
2.2471	12.2883
2.2413	12.3017
2.2355	12.2746
2.2297	12.2502
2.224	12.248
2.2183	12.2278
2.2126	12.226
2.207	12.1567
2.2013	12.1772
2.1957	12.2004
2.1902	12.1799
2.1846	12.2121
2.1791	12.145
2.1736	12.2053
2.1682	12.164
2.1628	12.1679
2.1574	12.1494
2.152	12.1587
2.1466	12.0783
2.1413	12.1294
2.136	12.0822
2.1308	12.0913
2.1255	12.0683
2.1203	12.0988
2.1151	12.1142
2.11	12.122
2.1048	12.0537
2.0997	12.0478
2.0946	12.1076
2.0895	12.1008
2.0845	12.1206
2.0795	12.0459
