Name: Magnesiochromite MgCr_2O_4
Type: Mineral
Class: Oxide
Subclass: None
Particle Size: Medium
Sample No.: O-8A
Owner: JPL
Wavelength Range: VSWIR
Origin: Canada, Quebec, Coleraine Township.
Description: Particle size was 45-125um.Collected by:  Ward's Original ASTER Spectral Library name was jpl.perkin.mineral.oxide.none.medium.o08a.spectrum.txt
Measurement: Hemispherical reflectance
X Units: Wavelength (micrometers)
Y Units: Reflectance (percent)
wavelength	value
2.5	4.2489
2.494	4.3285
2.488	4.3625
2.482	4.2641
2.476	4.3865
2.47	4.3107
2.464	4.5022
2.458	4.2809
2.452	4.3212
2.446	4.3488
2.44	4.5115
2.434	4.3361
2.428	4.458
2.422	4.4236
2.416	4.4875
2.41	4.4807
2.404	4.4045
2.398	4.4503
2.392	4.5001
2.386	4.4795
2.38	4.5133
2.374	4.4452
2.368	4.4677
2.362	4.4291
2.356	4.4635
2.35	4.441
2.344	4.4152
2.338	4.4227
2.332	4.3752
2.326	4.3667
2.32	4.3872
2.314	4.4069
2.308	4.4303
2.302	4.4051
2.296	4.434
2.29	4.479
2.284	4.4766
2.278	4.4648
2.272	4.5222
2.266	4.5466
2.26	4.4887
2.254	4.5556
2.248	4.5276
2.242	4.5497
2.236	4.5584
2.23	4.5908
2.224	4.6366
2.218	4.5752
2.212	4.7375
2.206	4.7372
2.2	4.6857
2.194	4.6679
2.188	4.7182
2.182	4.7081
2.176	4.6554
2.17	4.7561
2.164	4.7085
2.158	4.7514
2.152	4.7075
2.146	4.6937
2.14	4.7971
2.134	4.6731
2.128	4.6771
2.122	4.7241
2.116	4.6498
2.11	4.626
2.104	4.5551
2.098	4.6631
2.092	4.6462
2.086	4.6183
2.08	4.5905
2.074	4.648
2.068	4.6149
2.062	4.6334
2.056	4.611
2.05	4.6565
2.044	4.699
2.038	4.5821
2.032	4.5816
2.026	4.5424
2.02	4.6106
2.014	4.5751
2.008	4.5779
2.002	4.5989
1.996	4.6524
1.99	4.6608
1.984	4.5949
1.978	4.6643
1.972	4.5971
1.966	4.6002
1.96	4.5936
1.954	4.5999
1.948	4.5808
1.942	4.6207
1.936	4.6878
1.93	4.6516
1.924	4.6393
1.918	4.6511
1.912	4.6318
1.906	4.7187
1.9	4.6901
1.894	4.7877
1.888	4.7092
1.882	4.7321
1.876	4.8284
1.87	4.7592
1.864	4.8268
1.858	4.8816
1.852	4.9496
1.846	4.8269
1.84	4.8824
1.834	4.9351
1.828	4.888
1.822	5.0205
1.816	5.0087
1.81	4.9862
1.804	4.9897
1.798	5.0613
1.792	5.0487
1.786	4.9946
1.78	5.0809
1.774	5.0778
1.768	5.1881
1.762	5.2031
1.756	5.2375
1.75	5.2196
1.744	5.2821
1.738	5.2861
1.732	5.3236
1.726	5.3945
1.72	5.3563
1.714	5.4209
1.708	5.5274
1.702	5.5264
1.696	5.5849
1.69	5.5965
1.684	5.6799
1.678	5.52
1.672	5.6418
1.666	5.7988
1.66	5.8993
1.654	5.8729
1.648	5.9353
1.642	6.2063
1.636	6.1702
1.63	6.1484
1.624	6.2742
1.618	6.2801
1.612	6.5113
1.606	6.5674
1.6	6.6609
1.594	6.6669
1.588	6.7861
1.582	6.8892
1.576	7.0525
1.57	7.1408
1.564	7.2629
1.558	7.4077
1.552	7.5314
1.546	7.6848
1.54	7.8075
1.534	7.9266
1.528	8.0981
1.522	8.2387
1.516	8.2911
1.51	8.4093
1.504	8.6002
1.498	8.6456
1.492	8.819
1.486	8.8991
1.48	8.9527
1.474	9.0343
1.468	9.0828
1.462	9.0794
1.456	9.0571
1.45	9.0875
1.444	9.0767
1.438	9.1133
1.432	9.0443
1.426	9.0517
1.42	8.9985
1.414	8.8724
1.408	8.8393
1.402	8.789
1.396	8.6481
1.39	8.4134
1.384	8.5699
1.378	8.5573
1.372	8.5648
1.366	8.5085
1.36	8.3433
1.354	8.3851
1.348	8.2716
1.342	8.1358
1.336	8.0952
1.33	8.0318
1.324	8.0086
1.318	7.8796
1.312	7.8712
1.306	7.8431
1.3	7.7786
1.294	7.7199
1.288	7.6384
1.282	7.6877
1.276	7.6447
1.27	7.6476
1.264	7.5654
1.258	7.5652
1.252	7.5619
1.246	7.5016
1.24	7.5193
1.234	7.5037
1.228	7.4808
1.222	7.5254
1.216	7.5215
1.21	7.5111
1.204	7.5143
1.198	7.5064
1.192	7.4932
1.186	7.4687
1.18	7.4542
1.174	7.4905
1.168	7.4859
1.162	7.5179
1.156	7.5653
1.15	7.4617
1.144	7.508
1.138	7.4893
1.132	7.4593
1.126	7.47
1.12	7.4405
1.114	7.4478
1.108	7.4765
1.102	7.3745
1.096	7.33
1.09	7.3235
1.084	7.3629
1.078	7.3916
1.072	7.2793
1.066	7.2355
1.06	7.1716
1.054	7.0974
1.048	7.0633
1.042	7.0288
1.036	6.9584
1.03	6.943
1.024	6.8889
1.018	6.7837
1.012	6.7208
1.006	6.7035
1	6.7014
0.994	6.5595
0.988	6.5375
0.982	6.5906
0.976	6.5629
0.97	6.4188
0.964	6.4432
0.958	6.3982
0.952	6.3696
0.946	6.2884
0.94	6.3509
0.934	6.2933
0.928	6.321
0.922	6.2624
0.916	6.2935
0.91	6.2425
0.904	6.2376
0.898	6.2183
0.892	6.2618
0.886	6.2291
0.88	6.2162
0.874	6.2202
0.868	6.1406
0.862	6.1904
0.856	6.5719
0.85	6.5788
0.844	6.5635
0.838	6.5576
0.832	6.5534
0.826	6.5566
0.82	6.5397
0.814	6.5361
0.808	6.5245
0.802	6.5238
0.796	6.5097
0.79	6.5013
0.784	6.4908
0.778	6.4764
0.772	6.4604
0.766	6.447
0.76	6.4381
0.754	6.4333
0.748	6.4215
0.742	6.4023
0.736	6.3836
0.73	6.3719
0.724	6.3612
0.718	6.3468
0.712	6.3323
0.706	6.3174
0.7	6.313
0.694	6.3044
0.688	6.304
0.682	6.3118
0.676	6.3172
0.67	6.3204
0.664	6.3256
0.658	6.3375
0.652	6.358
0.646	6.3778
0.64	6.3892
0.634	6.3877
0.628	6.377
0.622	6.3563
0.616	6.3355
0.61	6.3147
0.604	6.2965
0.598	6.2869
0.592	6.2843
0.586	6.2833
0.58	6.2869
0.574	6.2937
0.568	6.3038
0.562	6.3156
0.556	6.3385
0.55	6.3569
0.544	6.3767
0.538	6.3913
0.532	6.4035
0.526	6.4127
0.52	6.42
0.514	6.4311
0.508	6.4391
0.502	6.4483
0.496	6.4607
0.49	6.4758
0.484	6.4912
0.478	6.494
0.472	6.4993
0.466	6.5068
0.46	6.5222
0.454	6.5381
0.448	6.5494
0.442	6.5618
0.436	6.5703
0.43	6.5788
0.424	6.5906
0.418	6.6069
0.412	6.6341
0.406	6.6664
0.4	6.7169
