Name: Microcline (Feldspar) (K,Na)AlSi_3O_8
Type: Mineral
Class: Silicate
Subclass: Tectosilicate
Particle Size: Coarse
Sample No.: TS-17A
Owner: JPL
Wavelength Range: VSWIR
Description: Particle size was 125-500um.Collected by JPL Original ASTER Spectral Library name was jpl.beckman.mineral.silicate.tectosilicate.coarse.ts17a.spectrum.txt
Measurement: Hemispherical reflectance
X Units: Wavelength (micrometers)
Y Units: Reflectance (percent)
wavelength	value
0.4	31.44
0.403	32.19
0.406	32.74
0.409	33.13
0.412	33.6
0.415	34.12
0.418	34.64
0.421	35.08
0.424	35.7
0.427	36.27
0.43	36.99
0.433	37.65
0.436	38.27
0.439	38.82
0.442	39.42
0.445	39.92
0.448	40.47
0.451	40.88
0.454	41.02
0.457	41.59
0.46	41.83
0.463	42.2
0.466	42.49
0.469	42.69
0.472	43.01
0.475	43.31
0.478	43.75
0.481	44.02
0.484	44.29
0.487	44.58
0.49	44.97
0.493	45.33
0.496	45.92
0.499	46.24
0.502	46.65
0.505	47.14
0.508	47.5
0.511	47.9
0.514	48.39
0.517	48.83
0.52	49.31
0.523	49.76
0.526	50.08
0.529	50.58
0.532	51.1
0.535	51.56
0.538	52.29
0.541	52.66
0.544	53.15
0.547	53.96
0.55	54.56
0.553	55.37
0.556	55.97
0.559	56.5
0.562	57.94
0.565	58.63
0.568	59.27
0.571	59.87
0.574	60.42
0.577	61.28
0.58	61.75
0.583	62.27
0.586	62.69
0.589	63.26
0.592	63.81
0.595	64.3
0.598	64.41
0.601	64.77
0.604	64.94
0.607	65.11
0.61	65.34
0.613	65.42
0.616	65.52
0.619	65.56
0.622	65.66
0.625	65.65
0.628	65.91
0.631	65.93
0.634	66.06
0.637	66.05
0.64	66.16
0.643	66.19
0.646	66.45
0.649	66.52
0.652	66.67
0.655	66.7
0.658	66.82
0.661	66.73
0.664	66.99
0.667	67.02
0.67	67.07
0.673	67.28
0.676	67.18
0.679	67.42
0.682	67.52
0.685	67.7
0.688	67.57
0.691	67.62
0.694	67.69
0.697	67.86
0.7	67.71
0.703	68.17
0.706	68.2
0.709	68.36
0.712	68.43
0.715	68.5
0.718	68.42
0.721	68.65
0.724	68.76
0.727	68.73
0.73	68.81
0.733	68.75
0.736	68.95
0.739	68.85
0.742	68.97
0.745	69.01
0.748	68.96
0.751	69.07
0.754	69.18
0.757	69.21
0.76	69.18
0.763	69.26
0.766	69.31
0.769	69.41
0.772	69.28
0.775	69.43
0.778	69.47
0.781	69.47
0.784	69.47
0.787	69.56
0.79	69.63
0.793	69.66
0.796	69.77
0.799	69.71
0.808	70.21
0.82	70.18
0.832	70.24
0.844	70.15
0.856	70.36
0.868	70.36
0.88	70.27
0.892	70.56
0.904	70.65
0.916	70.7
0.928	71.07
0.94	71.28
0.952	71.42
0.964	71.84
0.976	72.06
0.988	72.3
1	72.45
1.012	72.63
1.024	72.77
1.036	72.83
1.048	72.95
1.06	73.21
1.072	73.26
1.084	73.48
1.096	73.63
1.108	73.67
1.12	73.9
1.132	74.03
1.144	74.18
1.156	74.36
1.168	74.38
1.18	74.63
1.192	74.86
1.204	74.9
1.216	75.1
1.228	75.32
1.24	75.41
1.252	75.67
1.264	75.8
1.276	75.89
1.288	75.93
1.3	76.08
1.312	76.14
1.324	76.06
1.336	76.12
1.348	76.26
1.36	76.3
1.372	75.98
1.384	74.63
1.396	69.61
1.408	66.89
1.42	71.68
1.432	73.64
1.444	74.17
1.456	74.6
1.468	74.93
1.48	75.47
1.492	75.89
1.504	76.35
1.516	76.76
1.528	76.88
1.54	77.38
1.552	77.5
1.564	77.71
1.576	77.97
1.588	77.99
1.6	78.2
1.612	78.3
1.624	78.39
1.636	78.47
1.648	78.54
1.66	78.62
1.672	78.68
1.684	78.76
1.696	78.76
1.708	78.88
1.72	78.8
1.732	78.76
1.744	78.67
1.756	78.48
1.768	78.56
1.78	78.47
1.792	78.38
1.804	78.45
1.816	78.35
1.828	78.2
1.84	78.09
1.852	77.86
1.864	77.19
1.876	75.51
1.888	72.89
1.9	69.3
1.912	67.22
1.924	66.57
1.936	66.62
1.948	67.27
1.96	67.85
1.972	68.87
1.984	70.03
1.996	71.13
2.008	72.2
2.02	73.12
2.032	73.86
2.044	74.36
2.056	74.73
2.068	75.08
2.08	75.09
2.092	74.93
2.104	74.87
2.116	74.76
2.128	74.75
2.14	74.2
2.152	72.94
2.164	70.63
2.176	66.87
2.188	63.14
2.2	63.05
2.212	66.1
2.224	69.09
2.236	70.45
2.248	71.13
2.26	71.66
2.272	71.75
2.284	71.24
2.296	70
2.308	67.98
2.32	66.16
2.332	64.56
2.344	64.1
2.356	64.33
2.368	64.65
2.38	64.57
2.392	64.05
2.404	63.06
2.416	61.7
2.428	60.4
2.44	59.8
2.452	59.49
2.464	59.58
2.476	59.51
2.488	59.68
2.5	60.02
