Name: Tremolite Ca2(Mg, Fe+2)5Si8O22(OH)2
Type: Mineral
Class: Silicate
Subclass: Inosilicate
Particle Size: Coarse
Sample No.: tremol_2
Owner: JHU
Wavelength Range: TIR
Origin: Canada via the Smithsonian (sample no. NMNH 117611)
Description: The sample consisted of a single 21.41 g piece of euhedral crystal, translucent deep brown in color. A very small amount of calcite contamination was removed with HCl.  Microscopic examination showed the sample to be virtually all pure, clean tremolite, with a very small amount (<1%) of low efractive index impurity.Particle size was 75 - 250 micrometers. (Chain Silicates); (Amphibole Group) Original ASTER Spectral Library name was jhu.nicolet.mineral.silicate.inosilicate.coarse.tremol2.spectrum.txt
Measurement: Bidirectional reflectance
X Units: Wavelength (micrometers)
Y Units: Reflectance (percent)
wavelength	value
25.044	4.3818
24.339	4.7266
23.672	5.1509
23.041	5.8833
22.442	7.1723
21.874	8.2002
21.334	7.2751
20.82	6.9555
20.33	7.7075
19.863	8.5932
19.416	8.8122
18.99	9.4402
18.581	10.407
18.19	9.2473
17.815	8.6323
17.455	7.2143
17.109	4.5835
16.777	2.3408
16.458	1.2974
16.15	1.2754
15.854	1.3904
15.568	1.5659
15.292	1.8206
15.027	2.1018
14.77	1.7429
14.521	1.6426
14.281	1.7649
14.049	1.8425
13.824	1.8865
13.607	2.1487
13.396	2.3535
13.191	1.8726
12.993	1.7087
12.8	1.9048
12.614	2.0215
12.432	2.1296
12.256	2.2263
12.084	2.3352
11.918	2.469
11.755	2.6111
11.598	2.7134
11.444	2.937
11.294	3.1792
11.149	3.5337
11.007	3.9348
10.868	4.2856
10.733	4.2788
10.602	4.5417
10.473	5.6435
10.348	7.1667
10.225	8.6479
10.106	9.5537
9.9887	9.5674
9.8746	8.5027
9.763	6.4101
9.6539	5.1418
9.5472	5.3616
9.4429	6.073
9.3408	6.4553
9.2409	6.5014
9.1431	6.1098
9.0474	5.3711
8.9536	5.2429
8.8618	4.719
8.7718	4.751
8.6837	5.4941
8.5973	5.1445
8.5126	3.5054
8.4295	1.9531
8.3481	0.9666
8.2682	0.4875
8.1898	0.519
8.1129	0.6511
8.0374	0.7905
7.9634	0.9392
7.8906	1.0859
7.8192	1.2253
7.7491	1.3425
7.6802	1.4539
7.6126	1.5459
7.5461	1.6404
7.4807	1.7261
7.4165	1.8257
7.3534	1.9248
7.2914	2.0369
7.2303	2.1448
7.1703	2.27
7.1113	2.4155
7.0533	2.5561
6.9962	2.6601
6.94	2.7407
6.8847	2.8284
6.8302	2.918
6.7767	3.0159
6.7239	3.1641
6.672	3.3328
6.6209	3.4875
6.5705	3.5354
6.5209	3.4263
6.4721	3.2187
6.424	2.9263
6.3766	2.6623
6.3299	2.4675
6.2838	2.3433
6.2385	2.2781
6.1937	2.2808
6.1496	2.3296
6.1062	2.4238
6.0633	2.511
6.0211	2.5579
5.9794	2.5444
5.9383	2.5532
5.8978	2.5967
5.8578	2.6641
5.8184	2.7417
5.7794	2.79
5.741	2.8127
5.7031	2.834
5.6657	2.873
5.6288	2.9331
5.5924	3.0183
5.5564	3.0886
5.5209	3.2087
5.4859	3.4277
5.4513	3.7368
5.4171	4.0991
5.3833	4.4416
5.35	4.7063
5.3171	4.8808
5.2846	5.0683
5.2524	5.2339
5.2207	5.2312
5.1893	5.0151
5.1584	4.6907
5.1277	4.3716
5.0975	4.1528
5.0676	4.0427
5.038	4.0412
5.0088	4.1352
4.98	4.3108
4.9514	4.5403
4.9232	4.7712
4.8953	5.0051
4.8678	5.2624
4.8405	5.4812
4.8135	5.7087
4.7868	5.9783
4.7605	6.3037
4.7344	6.6609
4.7086	6.9783
4.6831	7.2309
4.6578	7.4629
4.6328	7.7297
4.6081	8.0862
4.5837	8.5132
4.5595	8.9975
4.5356	9.521
4.5119	10.033
4.4884	10.507
4.4652	10.907
4.4423	11.228
4.4196	11.481
4.3971	11.655
4.3748	11.796
4.3528	11.894
4.331	11.954
4.3094	12
4.288	12.052
4.2668	12.093
4.2458	12.132
4.2251	12.177
4.2045	12.211
4.1841	12.254
4.164	12.289
4.144	12.326
4.1242	12.361
4.1046	12.403
4.0852	12.455
4.066	12.498
4.047	12.554
4.0281	12.595
4.0094	12.644
3.9909	12.688
3.9725	12.737
3.9544	12.8
3.9363	12.862
3.9185	12.91
3.9008	12.96
3.8833	12.998
3.8659	13.031
3.8487	13.045
3.8316	13.061
3.8147	13.072
3.7979	13.077
3.7813	13.083
3.7648	13.095
3.7485	13.098
3.7323	13.095
3.7162	13.095
3.7003	13.091
3.6845	13.083
3.6689	13.067
3.6534	13.083
3.638	13.099
3.6227	13.103
3.6076	13.115
3.5926	13.117
3.5777	13.118
3.563	13.102
3.5484	13.085
3.5338	13.067
3.5195	13.055
3.5052	13.032
3.491	13.031
3.477	13.032
3.463	13.016
3.4492	12.983
3.4355	12.966
3.4219	12.912
3.4084	12.881
3.395	12.829
3.3817	12.768
3.3685	12.732
3.3554	12.657
3.3425	12.591
3.3296	12.546
3.3168	12.556
3.3041	12.577
3.2915	12.582
3.279	12.53
3.2666	12.419
3.2543	12.337
3.2421	12.307
3.23	12.387
3.218	12.518
3.206	12.619
3.1942	12.618
3.1824	12.585
3.1707	12.546
3.1591	12.508
3.1476	12.48
3.1362	12.326
3.1249	12.231
3.1136	12.259
3.1024	12.357
3.0913	12.413
3.0803	12.43
3.0694	12.452
3.0585	12.429
3.0477	12.403
3.037	12.359
3.0264	12.294
3.0158	12.264
3.0053	12.202
2.9949	12.177
2.9845	12.142
2.9743	12.096
2.9641	12.063
2.9539	12.068
2.9439	12.045
2.9339	12.011
2.9239	12.02
2.9141	11.988
2.9043	12.002
2.8946	11.969
2.8849	11.949
2.8753	11.948
2.8658	11.911
2.8563	11.855
2.8469	11.795
2.8375	11.735
2.8282	11.66
2.819	11.612
2.8098	11.639
2.8007	11.686
2.7917	11.7
2.7827	11.752
2.7738	11.658
2.7649	11.276
2.7561	10.813
2.7473	10.087
2.7386	8.1216
2.7299	5.0513
2.7213	3.0842
2.7128	5.3982
2.7043	3.2378
2.6959	2.9248
2.6875	4.624
2.6791	7.4004
2.6709	10.559
2.6626	12.262
2.6545	12.33
2.6463	12.315
2.6382	12.441
2.6302	12.521
2.6222	12.545
2.6143	12.5
2.6064	12.438
2.5986	12.421
2.5908	12.365
2.583	12.278
2.5753	12.205
2.5677	12.114
2.5601	12.071
2.5525	12.057
2.545	12.048
2.5375	12.077
2.5301	12.122
2.5227	12.1
2.5154	12.089
2.5081	12.059
2.5008	12.045
2.4936	11.934
2.4864	11.824
2.4793	11.771
2.4722	11.657
2.4651	11.574
2.4581	11.552
2.4511	11.531
2.4442	11.481
2.4373	11.501
2.4305	11.548
2.4236	11.565
2.4169	11.614
2.4101	11.667
2.4034	11.542
2.3967	11.171
2.3901	10.711
2.3835	10.233
2.377	9.7251
2.3704	10.255
2.364	10.915
2.3575	11.318
2.3511	11.519
2.3447	11.582
2.3384	11.602
2.3321	11.423
2.3258	10.938
2.3195	9.8537
2.3133	8.956
2.3071	9.3103
2.301	10.226
2.2949	10.918
2.2888	11.308
2.2828	11.51
2.2767	11.734
2.2708	11.88
2.2648	12.075
2.2589	12.213
2.253	12.239
2.2471	12.308
2.2413	12.284
2.2355	12.372
2.2297	12.362
2.224	12.36
2.2183	12.396
2.2126	12.419
2.207	12.344
2.2013	12.366
2.1957	12.393
2.1902	12.384
2.1846	12.376
2.1791	12.373
2.1736	12.394
2.1682	12.36
2.1628	12.432
2.1574	12.391
2.152	12.4
2.1466	12.317
2.1413	12.378
2.136	12.351
2.1308	12.287
2.1255	12.245
2.1203	12.272
2.1151	12.23
2.11	12.275
2.1048	12.269
2.0997	12.283
2.0946	12.342
2.0895	12.374
2.0845	12.379
2.0795	12.407
