Name: Chlorite
Type: Mineral
Class: Silicate
Subclass: Phyllosilicate
Particle Size: Medium
Sample No.: PS-12F
Owner: JPL
Wavelength Range: TIR
Origin: USA, New Mexico
Description: Particle size was 45-125um.Collected by Ward's Original ASTER Spectral Library name was jpl.nicolet.mineral.silicate.phyllosilicate.medium.ps12f.spectrum.txt
Measurement: Hemispherical reflectance
X Units: Wavelength (micrometers)
Y Units: Reflectance (percent)
wavelength	value
15.3853	3.8539
15.1161	3.9514
14.8563	3.5023
14.6052	2.635
14.3624	2.2846
14.1276	2.1548
13.9004	2.5799
13.6803	2.9266
13.4671	3.0424
13.2604	3.2705
13.06	2.9018
12.8656	2.7223
12.6769	2.4634
12.4936	2.73
12.3155	2.2725
12.1425	1.9561
11.9742	1.8777
11.8106	2.2567
11.6513	2.6665
11.4963	3.0975
11.3454	3.3119
11.1983	3.8325
11.0551	4.1716
10.9154	4.9978
10.7793	5.6779
10.6465	6.8643
10.5169	8.2276
10.3904	9.828
10.267	11.0108
10.1464	12.9441
10.0287	15.0791
9.9136	15.9651
9.8012	16.1447
9.6913	15.2032
9.5838	14.0088
9.4787	13.0824
9.3758	10.3759
9.2752	6.153
9.1767	3.8837
9.0803	2.6873
8.9858	2.0945
8.8934	1.9582
8.8028	1.916
8.714	1.8509
8.627	1.715
8.5417	2.4897
8.4581	2.6164
8.3761	3.235
8.2957	3.5294
8.2169	3.8778
8.1395	3.9079
8.0635	3.7628
7.989	3.935
7.9158	3.9206
7.8439	4.0797
7.7734	4.2647
7.7041	4.3826
7.636	4.55
7.5691	4.8852
7.5034	5.1252
7.4388	5.485
7.3753	5.7172
7.3129	6.0381
7.2515	6.275
7.1912	6.5503
7.1318	6.7759
7.0734	6.954
7.016	7.1117
6.9595	7.3072
6.9039	7.2812
6.8492	7.3033
6.7953	7.1809
6.7423	7.1481
6.6901	6.9953
6.6387	6.9536
6.5881	6.8059
6.5382	6.5385
6.4892	6.5407
6.4408	6.3033
6.3931	6.2015
6.3462	5.912
6.2999	5.7023
6.2543	5.6741
6.2094	5.8064
6.1651	5.71
6.1214	5.971
6.0784	6.0977
6.0359	6.2328
5.994	6.4139
5.9527	6.4157
5.912	6.6229
5.8718	6.9671
5.8322	7.4066
5.7931	7.7248
5.7545	8.0846
5.7165	8.3594
5.6789	8.4919
5.6418	8.5517
5.6052	8.5737
5.5691	8.8871
5.5334	9.1693
5.4982	9.4957
5.4635	9.8817
5.4291	9.8468
5.3952	9.6741
5.3618	9.5671
5.3287	9.638
5.2961	9.6765
5.2638	9.9059
5.2319	10.0856
5.2004	10.3018
5.1693	10.3847
5.1386	10.4258
5.1082	10.6292
5.0782	10.5831
5.0485	10.6993
5.0192	10.8854
4.9902	11.1588
4.9616	11.3889
4.9332	11.9327
4.9052	12.5748
4.8776	13.1908
4.8502	13.8308
4.8231	14.3859
4.7963	14.9812
4.7699	15.7861
4.7437	16.616
4.7178	17.4058
4.6922	18.0049
4.6668	18.8022
4.6418	19.5329
4.617	20.225
4.5924	21.2034
4.5681	21.9837
4.5441	22.9656
4.5203	23.6082
4.4968	24.1159
4.4735	24.7887
4.4505	25.3694
4.4277	26.0369
4.4051	26.5729
4.3828	27.0528
4.3607	27.6538
4.3388	28.1113
4.3171	28.7349
4.2956	29.071
4.2744	29.3737
4.2534	29.7587
4.2325	29.9938
4.2119	30.3761
4.1915	30.6107
4.1712	30.8942
4.1512	31.1595
4.1313	31.282
4.1117	31.4389
4.0922	31.6296
4.0729	31.8102
4.0538	31.855
4.0349	31.9026
4.0161	31.8352
3.9976	31.7913
3.9792	31.7414
3.9609	31.8603
3.9428	31.649
3.9249	31.5642
3.9072	31.5035
3.8896	31.2345
3.8722	31.0549
3.8549	30.8096
3.8378	30.4988
3.8208	30.2564
3.804	30.0501
3.7873	29.8775
3.7708	29.5169
3.7544	29.2559
3.7382	28.9736
3.7221	28.6075
3.7061	28.3089
3.6903	27.9707
3.6746	27.66
3.659	27.2164
3.6436	26.8955
3.6283	26.3037
3.6131	25.8357
3.5981	25.1886
3.5832	24.708
3.5684	24.1887
3.5537	23.6488
3.5391	23.2848
3.5247	22.7207
3.5104	22.488
3.4962	21.9927
3.4821	21.6419
3.4681	21.1683
3.4543	20.8714
3.4405	20.4022
3.4269	20.0373
3.4133	19.5279
3.3999	19.1019
3.3866	18.6455
3.3733	18.2283
3.3602	17.6831
3.3472	17.2543
3.3343	16.7052
3.3215	16.1833
3.3088	15.6804
3.2961	15.1515
3.2836	14.7553
3.2712	14.1709
3.2588	13.4412
3.2466	13.0069
3.2345	12.4332
3.2224	11.8609
3.2104	11.3611
3.1985	10.8138
3.1867	10.2528
3.175	9.805
3.1634	9.2387
3.1519	8.7551
3.1404	8.207
3.129	7.8582
3.1178	7.2287
3.1065	6.9554
3.0954	6.6508
3.0844	6.1459
3.0734	5.9165
3.0625	5.3371
3.0517	5.2152
3.041	4.9672
3.0303	4.5991
3.0197	4.5285
3.0092	4.2286
2.9987	3.7988
2.9884	4.1373
2.9781	3.8455
2.9678	3.9
2.9577	3.4227
2.9476	3.5901
2.9376	3.6995
2.9276	3.5343
2.9177	3.6894
2.9079	3.8072
2.8982	3.7933
2.8885	4.2687
2.8789	4.2959
2.8693	4.3183
2.8598	4.5015
2.8504	4.1349
2.841	4.27
2.8317	4.2295
2.8224	4.1656
2.8133	4.05
2.8041	4.276
2.7951	4.8359
2.786	5.7135
2.7771	6.5346
2.7682	6.6598
2.7594	6.3907
2.7506	7.2492
2.7418	8.8556
2.7332	12.2859
2.7246	16.549
2.716	20.8065
2.7075	22.6474
2.699	23.0394
2.6906	27.8411
2.6823	30.2834
2.674	31.4252
2.6657	32.2365
2.6575	32.8338
2.6494	33.7751
2.6413	34.439
2.6332	35.2718
2.6252	35.5538
2.6173	35.6874
2.6094	35.961
2.6015	36.0231
2.5937	36.4548
2.5859	36.6037
2.5782	36.5518
2.5706	36.8957
2.5629	37.1441
2.5554	37.5344
2.5478	37.8016
2.5403	38.0631
2.5329	38.4969
2.5255	38.5092
2.5181	38.9172
2.5108	39.1721
2.5035	39.6161
2.4963	40.0574
2.4891	40.5948
2.482	41.3934
2.4749	42.2993
2.4678	42.9643
2.4608	43.6928
2.4538	44.1812
2.4468	44.2665
2.4399	44.3063
2.4331	44.4176
2.4262	44.3984
2.4194	44.2005
2.4127	44.4552
2.4059	44.0819
2.3993	43.4922
2.3926	42.5996
2.386	41.0564
2.3795	39.059
2.3729	37.2722
2.3664	36.0282
2.36	35.8334
2.3535	35.9297
2.3471	36.3418
2.3408	37.6428
2.3345	38.616
2.3282	39.9025
2.3219	40.7011
2.3157	41.5951
2.3095	42.4088
2.3034	43.3033
2.2972	43.9028
2.2911	43.944
2.2851	43.7663
2.279	42.6946
2.2731	41.1374
2.2671	38.9401
2.2612	37.7467
2.2553	38.7426
2.2494	41.6424
2.2435	45.2267
2.2377	48.3679
2.232	50.2502
2.2262	51.9438
2.2205	52.9345
2.2148	53.6126
2.2091	53.9357
2.2035	54.7618
2.1979	54.9653
2.1923	55.3573
2.1868	55.4814
2.1812	55.6919
2.1758	55.8497
2.1703	55.953
2.1649	56.1141
2.1595	56.1001
2.1541	56.0983
2.1487	56.108
2.1434	56.0148
2.1381	56.146
2.1328	55.7911
2.1275	55.9117
2.1223	55.8161
2.1171	56.2336
2.112	56.207
2.1068	56.2175
2.1017	56.1654
2.0966	55.9627
2.0915	56.0873
2.0865	55.8471
2.0814	55.3326
2.0764	55.1454
2.0715	55.1599
2.0665	54.8128
2.0616	54.2634
2.0567	53.8683
2.0518	53.83
2.0469	53.1805
2.0421	52.4609
2.0373	52.2314
2.0325	51.4518
2.0277	50.945
2.0229	50.2633
2.0182	49.943
2.0135	49.5267
2.0088	49.4498
2.0042	49.3331
