Name: Rhodochrosite MnCO_3
Type: Mineral
Class: Carbonate
Subclass: None
Particle Size: Medium
Sample No.: C-8A
Owner: JPL
Wavelength Range: VSWIR
Origin: USA, Montana, Silver Bow County, Butte
Description: Particle size was 45-125um.Collected by Ward's Original ASTER Spectral Library name was jpl.beckman.mineral.carbonate.none.medium.c08a.spectrum.txt
Measurement: Hemispherical reflectance
X Units: Wavelength (micrometers)
Y Units: Reflectance (percent)
wavelength	value
0.4	49.78
0.403	36.43
0.406	22.11
0.409	38.38
0.412	50.22
0.415	55.34
0.418	56.34
0.421	56.41
0.424	55.95
0.427	55.23
0.43	54.52
0.433	53.63
0.436	53.18
0.439	52.92
0.442	52.87
0.445	53.08
0.448	53.58
0.451	54.16
0.454	55.02
0.457	55.86
0.46	56.53
0.463	58.05
0.466	59.23
0.469	60.56
0.472	61.69
0.475	62.77
0.478	63.65
0.481	64.24
0.484	64.69
0.487	64.99
0.49	65.17
0.493	65.28
0.496	65.27
0.499	65.17
0.502	65.01
0.505	64.85
0.508	64.49
0.511	64.12
0.514	63.63
0.517	62.95
0.52	62.41
0.523	61.68
0.526	60.92
0.529	60.25
0.532	59.51
0.535	58.9
0.538	58.54
0.541	58.22
0.544	57.94
0.547	57.81
0.55	57.93
0.553	58.28
0.556	58.68
0.559	58.93
0.562	60.17
0.565	60.75
0.568	61.6
0.571	62.52
0.574	63.42
0.577	64.4
0.58	65.44
0.583	66.3
0.586	67.34
0.589	68.2
0.592	69.12
0.595	69.74
0.598	70.42
0.601	71.21
0.604	71.8
0.607	72.07
0.61	72.46
0.613	72.77
0.616	72.99
0.619	73.21
0.622	73.43
0.625	73.55
0.628	73.66
0.631	73.84
0.634	73.85
0.637	74.09
0.64	74.06
0.643	74.18
0.646	74.21
0.649	74.35
0.652	74.46
0.655	74.51
0.658	74.58
0.661	74.57
0.664	74.79
0.667	74.67
0.67	74.74
0.673	74.85
0.676	74.82
0.679	74.88
0.682	75
0.685	74.95
0.688	75.08
0.691	75.07
0.694	75.16
0.697	75.18
0.7	75.22
0.703	75.29
0.706	75.35
0.709	75.5
0.712	75.41
0.715	75.52
0.718	75.46
0.721	75.55
0.724	75.59
0.727	75.61
0.73	75.61
0.733	75.58
0.736	75.64
0.739	75.59
0.742	75.72
0.745	75.6
0.748	75.72
0.751	75.67
0.754	75.73
0.757	75.88
0.76	75.69
0.763	75.75
0.766	75.74
0.769	75.76
0.772	75.9
0.775	75.96
0.778	75.96
0.781	75.83
0.784	75.85
0.787	75.89
0.79	76.03
0.793	75.98
0.796	75.98
0.799	76.1
0.808	76.21
0.82	76.22
0.832	76.28
0.844	76.27
0.856	76.34
0.868	76.33
0.88	76.26
0.892	76.25
0.904	76.06
0.916	76.04
0.928	75.95
0.94	75.92
0.952	75.79
0.964	75.71
0.976	75.63
0.988	75.38
1	75.31
1.012	75.34
1.024	75.26
1.036	75.21
1.048	75.18
1.06	75.17
1.072	75.12
1.084	75.25
1.096	75.29
1.108	75.3
1.12	75.52
1.132	75.42
1.144	75.47
1.156	75.52
1.168	75.44
1.18	75.49
1.192	75.58
1.204	75.6
1.216	75.57
1.228	75.54
1.24	75.51
1.252	75.6
1.264	75.59
1.276	75.65
1.288	75.7
1.3	75.71
1.312	75.7
1.324	75.58
1.336	75.71
1.348	75.59
1.36	75.75
1.372	75.7
1.384	75.7
1.396	75.59
1.408	75.37
1.42	75.42
1.432	75.46
1.444	75.64
1.456	75.67
1.468	75.85
1.48	75.95
1.492	76.15
1.504	76.39
1.516	76.56
1.528	76.74
1.54	76.78
1.552	76.83
1.564	76.86
1.576	76.9
1.588	77.04
1.6	77.17
1.612	77.17
1.624	77.27
1.636	77.17
1.648	77.25
1.66	77.23
1.672	77.37
1.684	77.36
1.696	77.34
1.708	77.3
1.72	77.23
1.732	77.09
1.744	76.88
1.756	76.85
1.768	76.9
1.78	77.12
1.792	77.21
1.804	77.06
1.816	76.85
1.828	76.73
1.84	76.35
1.852	75.98
1.864	75.46
1.876	74.31
1.888	73.15
1.9	73.12
1.912	73.01
1.924	72.83
1.936	72.78
1.948	72.82
1.96	72.93
1.972	73.04
1.984	73.19
1.996	73.07
2.008	73.27
2.02	74.5
2.032	75.33
2.044	75.84
2.056	76.05
2.068	76.15
2.08	76.31
2.092	76.24
2.104	76.26
2.116	76.35
2.128	76.05
2.14	75.46
2.152	74.69
2.164	74.33
2.176	74.41
2.188	74.5
2.2	74.3
2.212	73.82
2.224	73.22
2.236	72.27
2.248	71
2.26	69.52
2.272	67.88
2.284	65.57
2.296	62.84
2.308	60.35
2.32	58.78
2.332	57.54
2.344	56.11
2.356	55.42
2.368	58.21
2.38	64.41
2.392	69.18
2.404	70.31
2.416	69.59
2.428	68.06
2.44	66.24
2.452	63.76
2.464	60.45
2.476	56.87
2.488	53.75
2.5	51.56
