Name: Olivine (Fo92) (Fe+2,Mg)2SiO4
Type: Mineral
Class: Silicate
Subclass: Nesosilicate
Particle Size: Fine
Sample No.: olivine_1
Owner: JHU
Wavelength Range: TIR
Origin: Kiglapait Intrusion, Labrador via Trude King #KI3005(obtained from S.A. Morse, Univ. of Mass.)
Description: Initially, the specimen was contaminated with pyroxene, spinel, and ilmenite.  Heavy liquid separation, followed by magnetic separation and hand picking, allowed olivines of different iron content to be obtained.  The sample was ground to <30 micrometers and wet sieved with methanol.  Sample preparation by Trude King, USGS, Denver. Particle size was Less than 2 Micrometers. (Isolated tetrahedra); (Olivine Group) Original ASTER Spectral Library name was jhu.nicolet.mineral.silicate.nesosilicate.powder.olivin1.spectrum.txt
Measurement: Transmission
X Units: Wavelength (micrometers)
Y Units: Transmittance (percent)
wavelength	value
25.0442	45.6405
24.3388	45.8456
23.6719	48.9862
23.0407	48.079
22.4422	38.3944
21.8741	29.371
21.334	19.0908
20.8199	17.2929
20.33	20.5634
19.8627	20.1997
19.4163	21.2543
18.9896	28.3046
18.5812	32.7758
18.19	31.186
17.815	27.038
17.4551	29.9594
17.1094	39.5394
16.7772	51.2113
16.4576	60.0277
16.15	67.9276
15.8537	73.4339
15.568	76.1741
15.2925	77.7122
15.0265	77.4002
14.7697	75.7186
14.5214	74.1741
14.2814	71.7881
14.0492	68.6346
13.8244	64.627
13.6067	60.2618
13.3957	55.41
13.1912	50.4034
12.9929	44.993
12.8004	39.1327
12.6135	33.2431
12.432	27.2082
12.2557	21.0312
12.0843	14.6162
11.9176	19.832
11.7555	13.091
11.5977	9.0742
11.444	7.6018
11.2944	8.7336
11.1487	10.0942
11.0067	11.6269
10.8682	12.5385
10.7332	20.7687
10.6015	13.4004
10.473	13.4985
10.3476	15.6235
10.2251	19.0571
10.1056	23.9675
9.9887	29.578
9.8746	35.4386
9.763	41.0246
9.6539	45.578
9.5472	49.681
9.4429	53.9256
9.3408	57.7887
9.2409	60.515
9.1431	63.4137
9.0474	67.7711
8.9536	71.5555
8.8618	74.928
8.7718	77.5848
8.6837	79.8841
8.5973	81.9251
8.5126	83.9856
8.4295	85.9842
8.3481	87.6765
8.2682	89.1126
8.1898	90.2381
8.1129	91.0632
8.0374	91.5662
7.9634	91.8772
7.8906	92.0476
7.8192	92.1043
7.7491	92.0989
7.6802	92.1267
7.6126	92.0281
7.5461	91.8606
7.4807	91.6289
7.4165	91.3191
7.3534	90.7688
7.2914	90.2317
7.2303	89.3963
7.1703	88.8406
7.1113	88.1306
7.0533	87.5113
6.9962	87.1321
6.94	86.801
6.8847	86.3396
6.8302	85.9939
6.7767	85.7576
6.7239	85.4773
6.672	84.9812
6.6209	84.573
6.5705	83.9612
6.5209	83.3963
6.4721	82.6824
6.424	82.0271
6.3766	81.4402
6.3299	80.6321
6.2838	79.837
6.2385	78.8816
6.1937	77.8738
6.1496	76.8587
6.1062	75.7796
6.0633	75.948
6.0211	76.1695
5.9794	76.0359
5.9383	75.7376
5.8978	75.4544
5.8578	75.0882
5.8184	74.3523
5.7794	73.7811
5.741	73.3172
5.7031	73.0989
5.6657	73.013
5.6288	72.6512
5.5924	72.3548
5.5564	72.0535
5.5209	71.7398
5.4859	71.4197
5.4513	71.0775
5.4171	70.6385
5.3833	70.3231
5.35	69.942
5.3171	69.598
5.2846	69.3104
5.2524	68.9031
5.2207	68.5047
5.1893	68.1273
5.1584	67.7811
5.1277	67.4349
5.0975	67.0687
5.0676	66.7425
5.038	66.3831
5.0088	65.9984
4.98	65.6282
4.9514	65.2562
4.9232	64.9373
4.8953	64.5501
4.8678	64.1742
4.8405	63.827
4.8135	63.4825
4.7868	63.1446
4.7605	62.7918
4.7344	62.4452
4.7086	62.0985
4.6831	61.7765
4.6578	61.4376
4.6328	61.1121
4.6081	60.787
4.5837	60.4388
4.5595	60.0965
4.5356	59.7596
4.5119	59.4481
4.4884	59.1585
4.4652	58.7796
4.4423	58.4803
4.4196	58.1522
4.3971	57.8634
4.3748	57.5516
4.3528	57.2049
4.331	56.8993
4.3094	56.6319
4.288	56.2906
4.2668	56.0165
4.2458	55.7259
4.2251	55.4266
4.2045	55.131
4.1841	54.8587
4.164	54.5782
4.144	54.3204
4.1242	53.973
4.1046	53.7323
4.0852	53.4227
4.066	53.14
4.047	52.8866
4.0281	52.6293
4.0094	52.3448
3.9909	52.0665
3.9725	51.7828
3.9544	51.5277
3.9363	51.2591
3.9185	50.9877
3.9008	50.7591
3.8833	50.4867
3.8659	50.2557
3.8487	50.0116
3.8316	49.7335
3.8147	49.5043
3.7979	49.2655
3.7813	49.0138
3.7648	48.7806
3.7485	48.5255
3.7323	48.264
3.7162	48.0643
3.7003	47.8051
3.6845	47.631
3.6689	47.3578
3.6534	47.1095
3.638	46.8607
3.6227	46.6483
3.6076	46.42
3.5926	46.2269
3.5777	45.9301
3.563	45.7452
3.5484	45.5294
3.5338	45.2694
3.5195	45.0057
3.5052	44.6271
3.491	44.5128
3.477	44.2997
3.463	44.1224
3.4492	43.8771
3.4355	43.5805
3.4219	43.1893
3.4084	43.0692
3.395	43.0548
3.3817	42.7902
3.3685	42.6945
3.3554	42.5888
3.3425	42.4953
3.3296	42.3192
3.3168	42.1408
3.3041	41.9093
3.2915	41.7511
3.279	41.5717
3.2666	41.3817
3.2543	41.1974
3.2421	41.0136
3.23	40.7977
3.218	40.6857
3.206	40.474
3.1942	40.2626
3.1824	40.0883
3.1707	39.975
3.1591	39.7436
3.1476	39.5297
3.1362	39.245
3.1249	39.1005
3.1136	38.9052
3.1024	38.747
3.0913	38.5609
3.0803	38.3759
3.0694	38.2021
3.0585	38.0277
3.0477	37.788
3.037	37.6708
3.0264	37.4574
3.0158	37.2714
3.0053	37.0531
2.9949	36.8095
2.9845	36.6015
2.9743	36.2934
2.9641	36.0551
2.9539	35.8183
2.9439	35.58
2.9339	35.4853
2.9239	35.2895
2.9141	35.0961
2.9043	35.1313
2.8946	35.1137
2.8849	35.1591
2.8753	35.1376
2.8658	35.1171
2.8563	35.1982
2.8469	35.2348
2.8375	35.2836
2.8282	35.2016
2.819	35.2465
2.8098	35.2128
2.8007	35.2148
2.7917	35.3905
2.7827	35.4657
2.7738	35.4999
2.7649	35.5253
2.7561	35.602
2.7473	35.748
2.7386	35.7343
2.7299	35.871
2.7213	35.8163
2.7128	35.7401
2.7043	35.5683
2.6959	35.5219
2.6875	35.5175
2.6791	35.5141
2.6709	35.2909
2.6626	35.2694
2.6545	35.1171
2.6463	35.0429
2.6382	35.0819
2.6302	35.0058
2.6222	34.8837
2.6143	34.7763
2.6064	34.621
2.5986	34.5907
2.5908	34.58
2.583	34.4745
2.5753	34.3446
2.5677	34.3183
2.5601	34.248
2.5525	34.1191
2.545	34.0946
2.5375	34.0243
2.5301	33.9735
2.5227	33.8651
2.5154	33.872
2.5081	33.8349
2.5008	33.7499
2.4936	33.5995
2.4864	33.5585
2.4793	33.4901
2.4722	33.4784
2.4651	33.4267
2.4581	33.2362
2.4511	33.0741
2.4442	33.0439
2.4373	33.0917
2.4305	33.08
2.4236	32.9609
2.4169	32.7402
2.4101	32.8798
2.4034	32.8241
2.3967	32.6728
2.3901	32.6464
2.3835	32.496
2.377	32.4784
2.3704	32.4941
2.364	32.54
2.3575	32.454
2.3511	32.3134
2.3447	32.1835
2.3384	32.2626
2.3321	32.2587
2.3258	32.0741
2.3195	32.078
2.3133	31.8984
2.3071	31.9374
2.301	31.9306
2.2949	31.7538
2.2888	31.7538
2.2828	31.7109
2.2767	31.6532
2.2708	31.7128
2.2648	31.4687
2.2589	31.5683
2.253	31.3027
2.2471	31.4472
2.2413	31.2636
2.2355	31.2695
2.2297	31.2265
2.224	31.1425
2.2183	31.1112
2.2126	31.0429
2.207	30.9413
2.2013	30.9237
2.1957	31.0527
2.1902	30.912
2.1846	31.0195
2.1791	30.7851
2.1736	30.6679
2.1682	30.7284
2.1628	31.121
2.1574	30.5546
2.152	30.6171
2.1466	30.3671
2.1413	30.4394
2.136	30.2304
2.1308	30.2831
2.1255	30.328
2.1203	30.3827
2.1151	30.1327
2.11	30.2812
2.1048	30.2206
2.0997	30.1503
2.0946	30.0956
2.0895	29.8905
2.0845	29.9843
2.0795	29.9648
