Name: Aragonite CaCO3
Type: Mineral
Class: Carbonate
Subclass: None
Particle Size: Fine
Sample No.: aragonite_1
Owner: JHU
Wavelength Range: TIR
Origin: Sample from Horenec, Bilina, Cechy, Czechoslovakia, viaSmithsonian (sample no. NMNH B10083).
Description: The sample was composed of two transparent, colorless pieces: one prismatic, 1.8 cm x 1.8 cm x 2 cm, and weighing about 2 g; the other a 5 mm x 5 mm x 5 mm cleavage fragment weighing 0.65 g.  No impurities were detected in hand sample or microscopically. Particle size was less than 2 Micrometers. Original ASTER Spectral Library name was jhu.nicolet.mineral.carbonate.none.powder.aragon1.spectrum.txt
Measurement: Transmission
X Units: Wavelength (micrometers)
Y Units: Transmittance (percent)
wavelength	value
25.0442	92.0076
24.3388	90.906
23.6719	91.9529
23.0407	93.406
22.4422	94.1658
21.8741	95.3455
21.334	94.1033
20.8199	95.0408
20.33	96.322
19.8627	96.9451
19.4163	97.4705
18.9896	98.1609
18.5812	98.2712
18.19	98.2224
17.815	98.0749
17.4551	97.7068
17.1094	97.4099
16.7772	97.782
16.4576	97.7322
16.15	97.8201
15.8537	98.8552
15.568	99.6843
15.2925	99.7781
15.0265	99.2634
14.7697	99.4333
14.5214	98.0955
14.2814	83.075
14.0492	73.3963
13.8244	96.6443
13.6067	97.6326
13.3957	97.406
13.1912	97.2366
12.9929	97.4299
12.8004	96.9841
12.6135	97.7288
12.432	98.2058
12.2557	98.1897
12.0843	97.2234
11.9176	92.7673
11.7555	71.6116
11.5977	24.6391
11.444	82.9964
11.2944	94.0466
11.1487	97.1248
11.0067	96.4197
10.8682	97.0369
10.7332	97.823
10.6015	97.8733
10.473	97.5115
10.3476	97.0276
10.2251	96.3835
10.1056	95.8191
9.9887	95.1213
9.8746	94.0398
9.763	93.1721
9.6539	93.4104
9.5472	93.3323
9.4429	92.762
9.3408	92.0232
9.2409	79.991
9.1431	92.8323
9.0474	93.0667
8.9536	93.1467
8.8618	92.4656
8.7718	91.9988
8.6837	91.8528
8.5973	91.4797
8.5126	90.9949
8.4295	90.781
8.3481	90.8699
8.2682	90.8565
8.1898	90.0618
8.1129	89.2595
8.0374	88.1736
7.9634	87.2517
7.8906	86.0303
7.8192	84.5301
7.7491	83.2608
7.6802	81.6436
7.6126	80.0896
7.5461	78.043
7.4807	75.4148
7.4165	72.0096
7.3534	68.095
7.2914	63.2118
7.2303	56.8436
7.1703	48.8651
7.1113	40.0871
7.0533	30.9777
6.9962	22.8654
6.94	13.0566
6.8847	5.4043
6.8302	2.6992
6.7767	0.7893
6.7239	1.1865
6.672	2.5188
6.6209	4.7793
6.5705	9.5771
6.5209	19.2524
6.4721	32.1877
6.424	43.9103
6.3766	51.5216
6.3299	60.5147
6.2838	66.2518
6.2385	68.7791
6.1937	69.9962
6.1496	71.8536
6.1062	74.7354
6.0633	77.0625
6.0211	77.419
5.9794	78.8995
5.9383	83.1429
5.8978	86.3985
5.8578	88.4802
5.8184	89.6936
5.7794	90.8145
5.741	91.7791
5.7031	92.6914
5.6657	93.3484
5.6288	90.667
5.5924	83.2276
5.5564	90.6248
5.5209	94.489
5.4859	95.3584
5.4513	95.9062
5.4171	96.3015
5.3833	96.6084
5.35	96.959
5.3171	97.2107
5.2846	97.4385
5.2524	97.668
5.2207	97.8301
5.1893	98.0078
5.1584	98.1208
5.1277	98.238
5.0975	98.376
5.0676	98.4675
5.038	98.5647
5.0088	98.718
4.98	98.8025
4.9514	98.8586
4.9232	98.9665
4.8953	99.0549
4.8678	99.094
4.8405	99.2107
4.8135	99.2112
4.7868	99.2912
4.7605	99.3108
4.7344	99.3083
4.7086	99.2849
4.6831	99.2966
4.6578	99.2639
4.6328	99.2761
4.6081	99.4177
4.5837	99.4465
4.5595	99.4636
4.5356	99.5925
4.5119	99.5671
4.4884	99.6902
4.4652	99.6995
4.4423	99.7053
4.4196	99.7204
4.3971	99.7385
4.3748	99.7995
4.3528	99.7649
4.331	99.7375
4.3094	99.7204
4.288	99.6853
4.2668	99.6897
4.2458	99.6604
4.2251	99.6619
4.2045	99.6721
4.1841	99.6946
4.164	99.7302
4.144	99.7131
4.1242	99.7029
4.1046	99.5686
4.0852	99.6277
4.066	99.3415
4.047	98.7849
4.0281	97.2869
4.0094	95.49
3.9909	95.1331
3.9725	94.2156
3.9544	94.2288
3.9363	96.1609
3.9185	96.2253
3.9008	97.426
3.8833	98.0002
3.8659	98.282
3.8487	98.5725
3.8316	98.5666
3.8147	98.5124
3.7979	98.6648
3.7813	98.8303
3.7648	99.2639
3.7485	99.7038
3.7323	99.7722
3.7162	99.7556
3.7003	99.6716
3.6845	99.7751
3.6689	99.758
3.6534	99.6716
3.638	99.7859
3.6227	99.6662
3.6076	99.594
3.5926	99.5471
3.5777	99.6628
3.563	99.405
3.5484	99.4651
3.5338	99.2859
3.5195	98.8611
3.5052	97.7634
3.491	98.5017
3.477	98.4978
3.463	98.4123
3.4492	97.676
3.4355	96.4861
3.4219	95.238
3.4084	96.1956
3.395	97.0076
3.3817	97.0544
3.3685	97.2966
3.3554	97.0745
3.3425	97.1975
3.3296	97.8591
3.3168	98.0945
3.3041	98.2932
3.2915	98.3479
3.279	98.324
3.2666	98.2908
3.2543	98.2458
3.2421	98.1521
3.23	97.9001
3.218	97.5447
3.206	97.3455
3.1942	97.2146
3.1824	97.0623
3.1707	96.6755
3.1591	96.2966
3.1476	95.8249
3.1362	95.3992
3.1249	94.946
3.1136	94.7175
3.1024	94.8132
3.0913	94.6834
3.0803	94.4431
3.0694	94.2595
3.0585	94.1834
3.0477	94.4177
3.037	94.0173
3.0264	93.5164
3.0158	92.6365
3.0053	91.908
2.9949	91.3728
2.9845	90.9724
2.9743	90.0818
2.9641	89.0203
2.9539	88.0818
2.9439	87.3015
2.9339	86.5408
2.9239	85.8836
2.9141	85.7547
2.9043	86.0564
2.8946	86.4881
2.8849	87.2244
2.8753	87.8797
2.8658	88.8748
2.8563	89.4451
2.8469	90.239
2.8375	91.0046
2.8282	91.4539
2.819	91.8884
2.8098	92.1921
2.8007	92.8728
2.7917	93.3093
2.7827	93.988
2.7738	94.4851
2.7649	95.0203
2.7561	95.5789
2.7473	95.8318
2.7386	96.2429
2.7299	96.2751
2.7213	96.5789
2.7128	96.4734
2.7043	96.4333
2.6959	96.574
2.6875	96.6267
2.6791	96.5544
2.6709	96.614
2.6626	96.5359
2.6545	96.199
2.6463	96.2273
2.6382	96.4617
2.6302	96.071
2.6222	96.1179
2.6143	96.0476
2.6064	95.9451
2.5986	95.9958
2.5908	96.1306
2.583	96.031
2.5753	95.8845
2.5677	95.7712
2.5601	95.7029
2.5525	95.6443
2.545	95.7654
2.5375	95.533
2.5301	95.5037
2.5227	95.3044
2.5154	95.5271
2.5081	95.4373
2.5008	95.3298
2.4936	95.2908
2.4864	95.2849
2.4793	95.2849
2.4722	95.2458
2.4651	95.1423
2.4581	95.0408
2.4511	95.1365
2.4442	94.8923
2.4373	94.906
2.4305	94.9861
2.4236	95.0037
2.4169	94.9626
2.4101	94.8689
2.4034	94.947
2.3967	94.6209
2.3901	94.8162
2.3835	94.7185
2.377	95.0251
2.3704	94.6189
2.364	94.4314
2.3575	94.5955
2.3511	94.7498
2.3447	94.533
2.3384	94.3376
2.3321	94.1189
2.3258	94.238
2.3195	94.2673
2.3133	94.1873
2.3071	94.3943
2.301	94.6013
2.2949	93.9861
2.2888	94.2673
2.2828	94.0251
2.2767	94.0251
2.2708	94.4177
2.2648	94.2419
2.2589	93.7185
2.253	93.6267
2.2471	93.7498
2.2413	94.0095
2.2355	93.8904
2.2297	94.2361
2.224	93.8923
2.2183	94.1248
2.2126	93.4216
2.207	94.0408
2.2013	93.658
2.1957	93.8865
2.1902	93.8123
2.1846	93.8748
2.1791	93.2576
2.1736	93.6716
2.1682	93.8669
2.1628	93.7341
2.1574	93.5701
2.152	93.8396
2.1466	93.1091
2.1413	93.4099
2.136	93.4255
2.1308	93.449
2.1255	93.3357
2.1203	93.2771
2.1151	93.5037
2.11	93.2107
2.1048	93.3748
2.0997	93.3318
2.0946	93.6404
2.0895	93.2146
2.0845	93.7185
2.0795	93.0544
