Name: Andalusite Al2SiO5
Type: Mineral
Class: Silicate
Subclass: Nesosilicate
Particle Size: Coarse
Sample No.: andalusite_1
Owner: JHU
Wavelength Range: TIR
Origin: Sample from St. Theresa, Espirito Santo, Brazil via Smithsonian(sample no. NMNH R17898).
Description: Sample was composed of two crystals, one clear and one pale pink. Both appeared pure, both 1 cm x 1 cm x 5 cm. Examination under a petrographic microscope indicated pure and clean samples. Sample grains chosen for microprobe analysis were clear, but with poor polish in part. Particle size was 74-250 Micrometers.(Isolated tetrahedra) (Al2SiO5 Group) Original ASTER Spectral Library name was jhu.nicolet.mineral.silicate.nesosilicate.coarse.andalu1.spectrum.txt
Measurement: Bidirectional Reflectance
X Units: Wavelength (micrometers)
Y Units: Reflectance (percent)
wavelength	value
25.0442	4.5864
24.3388	5.1252
23.6719	6.5176
23.0407	8.227
22.4422	8.854
21.8741	11.3208
21.334	5.7949
20.8199	4.1912
20.33	5.0337
19.8627	5.8511
19.4163	4.1265
18.9896	4.8525
18.5812	6.0491
18.19	6.6057
17.815	5.8784
17.4551	5.1235
17.1094	5.4473
16.7772	5.7981
16.4576	6.0827
16.15	6.3828
15.8537	6.6809
15.568	7.0117
15.2925	7.239
15.0265	6.9783
14.7697	7.822
14.5214	8.6357
14.2814	8.2888
14.0492	6.9758
13.8244	5.9597
13.6067	5.573
13.3957	4.7783
13.1912	3.6875
12.9929	2.7754
12.8004	1.7749
12.6135	1.5518
12.432	1.6299
12.2557	1.8706
12.0843	2.1318
11.9176	2.3918
11.7555	2.707
11.5977	3.2458
11.444	3.7947
11.2944	4.4497
11.1487	5.1504
11.0067	5.7964
10.8682	5.1348
10.7332	7.521
10.6015	9.5183
10.473	9.6262
10.3476	6.9919
10.2251	10.6806
10.1056	11.2973
9.9887	11.341
9.8746	11.1274
9.763	10.1323
9.6539	8.8896
9.5472	8.259
9.4429	8.1406
9.3408	8.1701
9.2409	7.8896
9.1431	6.9597
9.0474	5.5386
8.9536	4.3816
8.8618	3.3879
8.7718	2.4849
8.6837	1.6628
8.5973	0.8833
8.5126	0.4561
8.4295	0.3547
8.3481	0.4045
8.2682	0.4766
8.1898	0.552
8.1129	0.6121
8.0374	0.6799
7.9634	0.7285
7.8906	0.7683
7.8192	0.8074
7.7491	0.8545
7.6802	0.9099
7.6126	0.9487
7.5461	1.0105
7.4807	1.0771
7.4165	1.1504
7.3534	1.2886
7.2914	1.4783
7.2303	1.6694
7.1703	1.8618
7.1113	1.9966
7.0533	2.1509
6.9962	2.2593
6.94	2.2078
6.8847	2.1235
6.8302	2.2217
6.7767	2.2993
6.7239	2.2239
6.672	2.0654
6.6209	2.0198
6.5705	2.0977
6.5209	2.1804
6.4721	2.2761
6.424	2.4756
6.3766	2.6448
6.3299	2.6743
6.2838	2.8608
6.2385	2.9585
6.1937	3.1904
6.1496	3.4409
6.1062	3.6943
6.0633	4.074
6.0211	4.0161
5.9794	3.7322
5.9383	3.8645
5.8978	4.1243
5.8578	4.3381
5.8184	4.5537
5.7794	4.9487
5.741	4.9629
5.7031	5.03
5.6657	4.9682
5.6288	4.5581
5.5924	3.624
5.5564	2.729
5.5209	2.323
5.4859	2.4165
5.4513	2.5642
5.4171	2.0398
5.3833	2.0718
5.35	2.4055
5.3171	2.6941
5.2846	2.5383
5.2524	2.478
5.2207	2.8874
5.1893	3.7683
5.1584	4.0268
5.1277	3.2917
5.0975	3.2087
5.0676	3.6211
5.038	4.2375
5.0088	4.0515
4.98	3.1074
4.9514	2.644
4.9232	2.9639
4.8953	3.9841
4.8678	5.2407
4.8405	6.1758
4.8135	7.2309
4.7868	8.386
4.7605	8.8415
4.7344	8.8088
4.7086	8.9687
4.6831	9.5708
4.6578	10.1902
4.6328	10.6306
4.6081	10.8547
4.5837	10.8801
4.5595	10.9377
4.5356	11.0764
4.5119	11.2878
4.4884	11.4687
4.4652	11.5901
4.4423	11.6841
4.4196	11.7617
4.3971	11.8503
4.3748	11.9338
4.3528	12.0056
4.331	12.0583
4.3094	12.0888
4.288	12.1389
4.2668	12.2153
4.2458	12.2768
4.2251	12.334
4.2045	12.3899
4.1841	12.4458
4.164	12.4685
4.144	12.4914
4.1242	12.5063
4.1046	12.541
4.0852	12.5769
4.066	12.5962
4.047	12.6108
4.0281	12.6311
4.0094	12.6506
3.9909	12.6726
3.9725	12.6819
3.9544	12.7121
3.9363	12.7378
3.9185	12.7641
3.9008	12.7549
3.8833	12.7519
3.8659	12.7175
3.8487	12.6477
3.8316	12.6142
3.8147	12.6687
3.7979	12.7583
3.7813	12.8305
3.7648	12.8772
3.7485	12.8757
3.7323	12.8681
3.7162	12.8662
3.7003	12.8513
3.6845	12.8032
3.6689	12.7168
3.6534	12.643
3.638	12.5481
3.6227	12.3918
3.6076	12.3286
3.5926	12.3806
3.5777	12.4575
3.563	12.51
3.5484	12.5219
3.5338	12.5197
3.5195	12.5332
3.5052	12.518
3.491	12.5803
3.477	12.6186
3.463	12.6506
3.4492	12.6428
3.4355	12.6279
3.4219	12.5268
3.4084	12.541
3.395	12.6628
3.3817	12.6924
3.3685	12.737
3.3554	12.7939
3.3425	12.8134
3.3296	12.8259
3.3168	12.8242
3.3041	12.8335
3.2915	12.7978
3.279	12.7819
3.2666	12.7566
3.2543	12.7517
3.2421	12.7678
3.23	12.739
3.218	12.6936
3.206	12.7043
3.1942	12.6987
3.1824	12.708
3.1707	12.7033
3.1591	12.6853
3.1476	12.6782
3.1362	12.6274
3.1249	12.624
3.1136	12.5869
3.1024	12.5608
3.0913	12.4712
3.0803	12.3405
3.0694	12.2248
3.0585	11.9712
3.0477	12.164
3.037	12.3462
3.0264	12.4038
3.0158	12.4248
3.0053	12.4033
2.9949	12.4321
2.9845	12.4353
2.9743	12.384
2.9641	12.3449
2.9539	12.2976
2.9439	12.1567
2.9339	11.8994
2.9239	11.186
2.9141	10.0005
2.9043	9.6628
2.8946	10.0273
2.8849	9.6853
2.8753	11.2917
2.8658	11.8694
2.8563	12.0412
2.8469	10.8017
2.8375	9.3078
2.8282	11.584
2.819	12.3159
2.8098	12.4057
2.8007	12.4243
2.7917	12.4204
2.7827	11.5549
2.7738	12.0844
2.7649	12.2656
2.7561	12.3513
2.7473	12.424
2.7386	11.4729
2.7299	12.4987
2.7213	12.6015
2.7128	12.6421
2.7043	12.5407
2.6959	12.7946
2.6875	12.9314
2.6791	12.977
2.6709	12.9817
2.6626	13.0488
2.6545	13.0312
2.6463	13.0466
2.6382	13.0376
2.6302	12.9785
2.6222	13.0217
2.6143	13
2.6064	12.9609
2.5986	12.9863
2.5908	12.9963
2.583	12.9409
2.5753	12.9643
2.5677	12.9738
2.5601	12.9568
2.5525	12.9131
2.545	12.9184
2.5375	12.9272
2.5301	12.9043
2.5227	12.9038
2.5154	12.8845
2.5081	12.8928
2.5008	12.9243
2.4936	12.8447
2.4864	12.8466
2.4793	12.8584
2.4722	12.8173
2.4651	12.7666
2.4581	12.8039
2.4511	12.8169
2.4442	12.7331
2.4373	12.7478
2.4305	12.7358
2.4236	12.7299
2.4169	12.7138
2.4101	12.7649
2.4034	12.709
2.3967	12.6699
2.3901	12.6582
2.3835	12.6357
2.377	12.6445
2.3704	12.646
2.364	12.6284
2.3575	12.542
2.3511	12.5464
2.3447	12.5947
2.3384	12.643
2.3321	12.6277
2.3258	12.6496
2.3195	12.6135
2.3133	12.6184
2.3071	12.6284
2.301	12.6262
2.2949	12.6164
2.2888	12.5971
2.2828	12.5869
2.2767	12.5571
2.2708	12.5778
2.2648	12.5737
2.2589	12.5361
2.253	12.552
2.2471	12.5105
2.2413	12.5373
2.2355	12.5149
2.2297	12.508
2.224	12.5158
2.2183	12.5454
2.2126	12.5383
2.207	12.5527
2.2013	12.5649
2.1957	12.5918
2.1902	12.5998
2.1846	12.5757
2.1791	12.6565
2.1736	12.6457
2.1682	12.6718
2.1628	12.6389
2.1574	12.6645
2.152	12.6777
2.1466	12.6396
2.1413	12.6867
2.136	12.6926
2.1308	12.6955
2.1255	12.7368
2.1203	12.7841
2.1151	12.7756
2.11	12.7534
2.1048	12.7883
2.0997	12.7617
2.0946	12.7671
2.0895	12.7903
2.0845	12.7983
2.0795	12.8027
