Name: Scorodite Fe^3+AsO_4.2H_2O
Type: Mineral
Class: Arsenate
Subclass: None
Particle Size: Fine
Sample No.: A-2A
Owner: JPL
Wavelength Range: VSWIR
Origin: USA, Utah, Tooele County, Gold Hill
Description: Particle size was 0-45um.Collected by Ward's Original ASTER Spectral Library name was jpl.beckman.mineral.arsenate.none.fine.a02.spectrum.txt
Measurement: Hemispherical reflectance
X Units: Wavelength (micrometers)
Y Units: Reflectance (percent)
wavelength	value
0.4	27.7
0.403	28.53
0.406	29.19
0.409	29.67
0.412	30.04
0.415	30.4
0.418	30.71
0.421	30.61
0.424	30.48
0.427	30.5
0.43	31.01
0.433	30.99
0.436	32.08
0.439	36.28
0.442	38.47
0.445	40.09
0.448	41.08
0.451	42.01
0.454	42.54
0.457	43.05
0.46	43.2
0.463	43.83
0.466	44.45
0.469	44.9
0.472	45.62
0.475	46.54
0.478	47.49
0.481	48.6
0.484	49.71
0.487	51.08
0.49	52.17
0.493	53.28
0.496	54.45
0.499	55.2
0.502	56.1
0.505	56.84
0.508	57.54
0.511	57.94
0.514	58.33
0.517	58.63
0.52	58.97
0.523	59.23
0.526	59.4
0.529	59.48
0.532	59.71
0.535	59.63
0.538	59.72
0.541	59.93
0.544	59.93
0.547	60.01
0.55	60.02
0.553	60.24
0.556	60.27
0.559	60.24
0.562	60.73
0.565	60.83
0.568	60.93
0.571	60.99
0.574	61
0.577	61.2
0.58	61.57
0.583	61.51
0.586	61.93
0.589	62.32
0.592	62.42
0.595	62.56
0.598	62.98
0.601	63.34
0.604	63.83
0.607	64.02
0.61	64.5
0.613	64.81
0.616	65.06
0.619	65.27
0.622	65.83
0.625	66.22
0.628	66.53
0.631	66.87
0.634	67.43
0.637	67.76
0.64	67.99
0.643	68.4
0.646	68.7
0.649	69.16
0.652	69.38
0.655	69.94
0.658	70.29
0.661	70.39
0.664	70.74
0.667	71.03
0.67	71.26
0.673	71.44
0.676	71.74
0.679	72.02
0.682	72.01
0.685	72.29
0.688	72.4
0.691	72.49
0.694	72.44
0.697	72.78
0.7	72.75
0.703	72.99
0.706	72.97
0.709	73.14
0.712	73.32
0.715	73.08
0.718	72.98
0.721	73.13
0.724	73.2
0.727	73.11
0.73	73.18
0.733	73.16
0.736	73.02
0.739	72.82
0.742	72.96
0.745	73.01
0.748	72.88
0.751	72.9
0.754	72.85
0.757	72.76
0.76	72.51
0.763	72.51
0.766	72.6
0.769	72.52
0.772	72.46
0.775	72.53
0.778	72.46
0.781	72.3
0.784	72.34
0.787	72.37
0.79	72.36
0.793	72.17
0.796	72.36
0.799	72.38
0.808	72.52
0.82	72.52
0.832	72.69
0.844	72.9
0.856	73.13
0.868	73.48
0.88	73.58
0.892	73.93
0.904	74.22
0.916	74.38
0.928	74.82
0.94	75.21
0.952	75.42
0.964	75.67
0.976	75.79
0.988	75.92
1	76.07
1.012	76.51
1.024	76.7
1.036	76.9
1.048	77.05
1.06	77.1
1.072	77.29
1.084	77.44
1.096	77.64
1.108	77.63
1.12	77.81
1.132	77.98
1.144	78.07
1.156	78.04
1.168	78.17
1.18	78.14
1.192	78.22
1.204	78.57
1.216	78.73
1.228	78.92
1.24	79.04
1.252	79.18
1.264	79.32
1.276	79.32
1.288	79.42
1.3	79.31
1.312	79.24
1.324	79.2
1.336	79.19
1.348	79.17
1.36	78.93
1.372	78.62
1.384	78.61
1.396	78.14
1.408	77.28
1.42	76.01
1.432	73.59
1.444	70.18
1.456	69.04
1.468	71.53
1.48	72.82
1.492	73.36
1.504	73.3
1.516	72.68
1.528	72.25
1.54	72.59
1.552	72.56
1.564	71.92
1.576	71.2
1.588	70.26
1.6	69.41
1.612	68.44
1.624	67.52
1.636	66.59
1.648	65.65
1.66	64.75
1.672	63.87
1.684	63.11
1.696	62.42
1.708	61.89
1.72	61.36
1.732	61.07
1.744	60.68
1.756	60.34
1.768	60.03
1.78	59.82
1.792	59.46
1.804	59.35
1.816	59.16
1.828	59.09
1.84	58.98
1.852	58.89
1.864	58.75
1.876	58.49
1.888	58.08
1.9	57.3
1.912	55.89
1.924	53.81
1.936	50.96
1.948	47.66
1.96	46.19
1.972	46.65
1.984	47.1
1.996	47.7
2.008	48.97
2.02	50.08
2.032	50.5
2.044	50.4
2.056	50.27
2.068	50.2
2.08	50.15
2.092	50.19
2.104	50.39
2.116	50.81
2.128	51.23
2.14	51.58
2.152	52.01
2.164	52.37
2.176	52.81
2.188	53.3
2.2	53.76
2.212	54.29
2.224	54.91
2.236	55.33
2.248	55.56
2.26	55.53
2.272	55.49
2.284	55.09
2.296	54.25
2.308	53.02
2.32	52.27
2.332	52.08
2.344	52.3
2.356	52.21
2.368	51.98
2.38	51.41
2.392	50.75
2.404	49.8
2.416	48.92
2.428	47.87
2.44	46.75
2.452	45.37
2.464	43.62
2.476	41.49
2.488	39.2
2.5	37.13
