Name: Talc Mg3Si4O10(OH)2
Type: Mineral
Class: Silicate
Subclass: Phyllosilicate
Particle Size: Solid
Sample No.: talc_1
Owner: JHU
Wavelength Range: TIR
Origin: Feiser Mine, Ruby Mountains, Montana, USA via Jim Crowley,USGS
Description: Sample had fracture surface. The hand sample was massive, compact, translucent, and light green in color.  Under the microscope, sample was cryptocrystalline and appeared pure.  XRD analysis indicates pure talc. (Sheets silicates);  (Talc/Pyrophyllite Group) Original ASTER Spectral Library name was jhu.nicolet.mineral.silicate.phyllosilicate.solid.talc1.spectrum.txt
Measurement: Bidirectional reflectance
X Units: Wavelength (micrometers)
Y Units: Reflectance (percent)
wavelength	value
25.0442	6.6001
24.3388	7.3176
23.6719	8.7141
23.0407	8.614
22.4422	10.5918
21.8741	11.3891
21.334	15.2202
20.8199	17.0229
20.33	17.414
19.8627	15.2011
19.4163	17.1167
18.9896	17.687
18.5812	16.1357
18.19	13.4257
17.815	13.3786
17.4551	10.8557
17.1094	4.3347
16.7772	1.3386
16.4576	1.4897
16.15	1.8638
15.8537	2.3086
15.568	2.7983
15.2925	3.4978
15.0265	5.5979
14.7697	9.3454
14.5214	7.8415
14.2814	1.5652
14.0492	1.4351
13.8244	1.8108
13.6067	2.0254
13.3957	2.2058
13.1912	2.374
12.9929	2.478
12.8004	2.5542
12.6135	2.6101
12.432	2.7175
12.2557	2.8323
12.0843	2.9409
11.9176	3.0779
11.7555	3.187
11.5977	3.2776
11.444	3.3425
11.2944	3.4683
11.1487	3.584
11.0067	3.729
10.8682	3.9082
10.7332	4.1125
10.6015	4.3867
10.473	4.6494
10.3476	4.9563
10.2251	5.3804
10.1056	6.0215
9.9887	7.0222
9.8746	9.6013
9.763	12.6757
9.6539	14.2028
9.5472	14.4358
9.4429	12.144
9.3408	12.3418
9.2409	12.9909
9.1431	13.4384
9.0474	14.1384
8.9536	14.448
8.8618	14.5766
8.7718	14.7019
8.6837	14.1611
8.5973	12.0154
8.5126	9.6218
8.4295	7.084
8.3481	4.7519
8.2682	2.9927
8.1898	2.051
8.1129	1.5962
8.0374	1.4006
7.9634	1.3057
7.8906	1.3159
7.8192	1.2646
7.7491	1.2163
7.6802	1.2063
7.6126	1.2305
7.5461	1.2803
7.4807	1.3174
7.4165	1.3542
7.3534	1.3752
7.2914	1.4104
7.2303	1.4028
7.1703	1.426
7.1113	1.4714
7.0533	1.5095
6.9962	1.5286
6.94	1.553
6.8847	1.5884
6.8302	1.5959
6.7767	1.6626
6.7239	1.7224
6.672	1.7493
6.6209	1.7551
6.5705	1.7458
6.5209	1.7617
6.4721	1.7996
6.424	1.8074
6.3766	1.8274
6.3299	1.8406
6.2838	1.8467
6.2385	1.8503
6.1937	1.8179
6.1496	1.791
6.1062	1.7322
6.0633	1.7024
6.0211	1.7017
5.9794	1.6797
5.9383	1.7175
5.8978	1.7698
5.8578	1.7388
5.8184	1.7693
5.7794	1.8215
5.741	1.8052
5.7031	1.7727
5.6657	1.7881
5.6288	1.8215
5.5924	1.8184
5.5564	1.7895
5.5209	1.783
5.4859	1.7793
5.4513	1.8108
5.4171	1.856
5.3833	1.8603
5.35	1.855
5.3171	1.8962
5.2846	1.9231
5.2524	1.905
5.2207	1.8801
5.1893	1.9001
5.1584	1.937
5.1277	1.9504
5.0975	2.0234
5.0676	2.1633
5.038	2.2266
5.0088	2.2439
4.98	2.2522
4.9514	2.2388
4.9232	2.238
4.8953	2.2947
4.8678	2.3276
4.8405	2.3406
4.8135	2.3584
4.7868	2.3806
4.7605	2.4121
4.7344	2.4275
4.7086	2.4192
4.6831	2.4172
4.6578	2.4241
4.6328	2.4482
4.6081	2.5168
4.5837	2.5476
4.5595	2.5669
4.5356	2.5771
4.5119	2.5842
4.4884	2.5979
4.4652	2.595
4.4423	2.6023
4.4196	2.6247
4.3971	2.6521
4.3748	2.6677
4.3528	2.6714
4.331	2.6755
4.3094	2.698
4.288	2.699
4.2668	2.7104
4.2458	2.7205
4.2251	2.7295
4.2045	2.7402
4.1841	2.7449
4.164	2.7541
4.144	2.7393
4.1242	2.7546
4.1046	2.7705
4.0852	2.7676
4.066	2.7578
4.047	2.7664
4.0281	2.7703
4.0094	2.7849
3.9909	2.7898
3.9725	2.7888
3.9544	2.7915
3.9363	2.7971
3.9185	2.8083
3.9008	2.8025
3.8833	2.8064
3.8659	2.8132
3.8487	2.8227
3.8316	2.8227
3.8147	2.8257
3.7979	2.8352
3.7813	2.8391
3.7648	2.8467
3.7485	2.8455
3.7323	2.8381
3.7162	2.8486
3.7003	2.8501
3.6845	2.8271
3.6689	2.8259
3.6534	2.8303
3.638	2.8269
3.6227	2.811
3.6076	2.8269
3.5926	2.8181
3.5777	2.8091
3.563	2.8027
3.5484	2.793
3.5338	2.762
3.5195	2.6648
3.5052	2.4514
3.491	2.5388
3.477	2.5989
3.463	2.6096
3.4492	2.5518
3.4355	2.4521
3.4219	2.2632
3.4084	2.2722
3.395	2.4109
3.3817	2.4099
3.3685	2.4519
3.3554	2.4873
3.3425	2.5896
3.3296	2.5627
3.3168	2.4802
3.3041	2.5271
3.2915	2.6081
3.279	2.6123
3.2666	2.6201
3.2543	2.6135
3.2421	2.6047
3.23	2.6018
3.218	2.5808
3.206	2.5576
3.1942	2.5425
3.1824	2.5273
3.1707	2.5039
3.1591	2.4873
3.1476	2.4705
3.1362	2.4697
3.1249	2.4592
3.1136	2.4458
3.1024	2.425
3.0913	2.4148
3.0803	2.4045
3.0694	2.3879
3.0585	2.3945
3.0477	2.3752
3.037	2.3633
3.0264	2.3459
3.0158	2.3364
3.0053	2.3413
2.9949	2.313
2.9845	2.3042
2.9743	2.2866
2.9641	2.2627
2.9539	2.2747
2.9439	2.2498
2.9339	2.259
2.9239	2.2368
2.9141	2.2541
2.9043	2.2505
2.8946	2.2336
2.8849	2.2432
2.8753	2.2595
2.8658	2.2522
2.8563	2.2488
2.8469	2.2432
2.8375	2.2329
2.8282	2.1877
2.819	2.1992
2.8098	2.123
2.8007	2.1152
2.7917	2.0815
2.7827	2.0876
2.7738	2.1174
2.7649	2.144
2.7561	2.1592
2.7473	2.1802
2.7386	2.1301
2.7299	2.0151
2.7213	1.6162
2.7128	2.1702
2.7043	2.7012
2.6959	2.8403
2.6875	2.8723
2.6791	2.8613
2.6709	2.9053
2.6626	2.9123
2.6545	2.9043
2.6463	2.8513
2.6382	2.8547
2.6302	2.8281
2.6222	2.835
2.6143	2.8103
2.6064	2.8057
2.5986	2.7649
2.5908	2.7568
2.583	2.7417
2.5753	2.7056
2.5677	2.7107
2.5601	2.7214
2.5525	2.7195
2.545	2.7358
2.5375	2.7092
2.5301	2.6821
2.5227	2.6816
2.5154	2.6562
2.5081	2.7134
2.5008	2.6709
2.4936	2.6753
2.4864	2.687
2.4793	2.6572
2.4722	2.6333
2.4651	2.5449
2.4581	2.5933
2.4511	2.6089
2.4442	2.6182
2.4373	2.6196
2.4305	2.6294
2.4236	2.6389
2.4169	2.6758
2.4101	2.7036
2.4034	2.645
2.3967	2.4897
2.3901	2.4653
2.3835	2.5185
2.377	2.5674
2.3704	2.5869
2.364	2.6536
2.3575	2.6411
2.3511	2.6509
2.3447	2.7007
2.3384	2.6955
2.3321	2.6643
2.3258	2.5146
2.3195	2.4424
2.3133	2.1848
2.3071	2.2676
2.301	2.417
2.2949	2.4951
2.2888	2.3223
2.2828	2.5168
2.2767	2.5842
2.2708	2.6909
2.2648	2.6819
2.2589	2.7551
2.253	2.7871
2.2471	2.7954
2.2413	2.7893
2.2355	2.7578
2.2297	2.7808
2.224	2.8247
2.2183	2.803
2.2126	2.812
2.207	2.8384
2.2013	2.8315
2.1957	2.8384
2.1902	2.8716
2.1846	2.8694
2.1791	2.8245
2.1736	2.833
2.1682	2.8506
2.1628	2.8694
2.1574	2.8257
2.152	2.9111
2.1466	2.8948
2.1413	2.9084
2.136	2.8567
2.1308	2.8782
2.1255	2.8525
2.1203	2.8979
2.1151	2.8979
2.11	2.9416
2.1048	2.9192
2.0997	2.9394
2.0946	2.9172
2.0895	2.9836
2.0845	2.9563
2.0795	2.9463
