Name: Chlorite
Type: Mineral
Class: Silicate
Subclass: Phyllosilicate
Particle Size: Coarse
Sample No.: PS-12F
Owner: JPL
Wavelength Range: VSWIR
Origin: USA, New Mexico
Description: Particle size was 125-500um.Collected by Ward's Original ASTER Spectral Library name was jpl.beckman.mineral.silicate.phyllosilicate.coarse.ps12f.spectrum.txt
Measurement: Hemispherical reflectance
X Units: Wavelength (micrometers)
Y Units: Reflectance (percent)
wavelength	value
0.4	5.75
0.403	5.85
0.406	5.85
0.409	5.97
0.412	6.08
0.415	6.15
0.418	6.39
0.421	6.37
0.424	6.38
0.427	6.66
0.43	6.67
0.433	6.78
0.436	7.08
0.439	7.2
0.442	7.22
0.445	7.38
0.448	7.43
0.451	7.55
0.454	7.55
0.457	7.53
0.46	7.6
0.463	7.6
0.466	7.8
0.469	7.78
0.472	7.91
0.475	7.94
0.478	7.98
0.481	8.24
0.484	8.11
0.487	8.33
0.49	8.35
0.493	8.44
0.496	8.63
0.499	8.6
0.502	8.82
0.505	8.94
0.508	8.98
0.511	9.09
0.514	9.23
0.517	9.25
0.52	9.29
0.523	9.39
0.526	9.46
0.529	9.39
0.532	9.57
0.535	9.52
0.538	9.52
0.541	9.67
0.544	9.56
0.547	9.68
0.55	9.69
0.553	9.57
0.556	9.67
0.559	9.56
0.562	9.73
0.565	9.7
0.568	9.76
0.571	9.65
0.574	9.61
0.577	9.49
0.58	9.46
0.583	9.49
0.586	9.29
0.589	9.3
0.592	9.25
0.595	9.13
0.598	9.24
0.601	9.02
0.604	9.11
0.607	9.1
0.61	9.01
0.613	8.98
0.616	8.98
0.619	8.8
0.622	8.72
0.625	8.73
0.628	8.64
0.631	8.69
0.634	8.61
0.637	8.52
0.64	8.54
0.643	8.34
0.646	8.37
0.649	8.28
0.652	8.3
0.655	8.23
0.658	8.08
0.661	8.07
0.664	8.01
0.667	8.01
0.67	8.02
0.673	7.91
0.676	7.9
0.679	7.9
0.682	7.84
0.685	7.9
0.688	7.88
0.691	7.71
0.694	7.77
0.697	7.69
0.7	7.66
0.703	7.79
0.706	7.59
0.709	7.53
0.712	7.59
0.715	7.61
0.718	7.71
0.721	7.53
0.724	7.47
0.727	7.53
0.73	7.59
0.733	7.57
0.736	7.55
0.739	7.41
0.742	7.57
0.745	7.59
0.748	7.5
0.751	7.51
0.754	7.47
0.757	7.62
0.76	7.69
0.763	7.58
0.766	7.56
0.769	7.61
0.772	7.64
0.775	7.74
0.778	7.73
0.781	7.57
0.784	7.72
0.787	7.67
0.79	7.68
0.793	7.79
0.796	7.62
0.799	7.78
0.808	8.11
0.82	7.98
0.832	7.75
0.844	7.62
0.856	7.52
0.868	7.43
0.88	7.44
0.892	7.44
0.904	7.38
0.916	7.32
0.928	7.31
0.94	7.45
0.952	7.51
0.964	7.62
0.976	7.74
0.988	7.83
1	7.8
1.012	7.7
1.024	7.68
1.036	7.76
1.048	7.72
1.06	7.69
1.072	7.66
1.084	7.81
1.096	7.71
1.108	7.75
1.12	7.8
1.132	7.83
1.144	7.91
1.156	8.02
1.168	8.11
1.18	8.24
1.192	8.41
1.204	8.7
1.216	8.93
1.228	9.11
1.24	9.48
1.252	9.78
1.264	9.97
1.276	10.22
1.288	10.48
1.3	10.77
1.312	11.08
1.324	11.55
1.336	11.8
1.348	12.19
1.36	12.52
1.372	12.87
1.384	13.14
1.396	12.85
1.408	11.95
1.42	13.73
1.432	14.12
1.444	14.44
1.456	14.83
1.468	15.22
1.48	15.69
1.492	16.07
1.504	16.37
1.516	16.62
1.528	16.89
1.54	17.07
1.552	17.5
1.564	17.89
1.576	18.35
1.588	18.9
1.6	19.45
1.612	19.9
1.624	20.41
1.636	20.91
1.648	21.38
1.66	21.85
1.672	22.5
1.684	22.97
1.696	23.48
1.708	23.96
1.72	24.3
1.732	24.76
1.744	25.15
1.756	25.61
1.768	26.09
1.78	26.52
1.792	26.79
1.804	27.03
1.816	27.25
1.828	27.52
1.84	27.76
1.852	27.9
1.864	28.05
1.876	28.18
1.888	28.23
1.9	28.55
1.912	28.91
1.924	29.2
1.936	29.37
1.948	29.26
1.96	29.12
1.972	28.88
1.984	28.43
1.996	28.07
2.008	28.39
2.02	29.29
2.032	30.36
2.044	31.6
2.056	32.43
2.068	33.27
2.08	33.87
2.092	34.25
2.104	34.54
2.116	34.49
2.128	34.51
2.14	34.51
2.152	34.42
2.164	34.22
2.176	33.94
2.188	33.46
2.2	32.79
2.212	31.72
2.224	29.39
2.236	25.61
2.248	21.68
2.26	20.58
2.272	22.11
2.284	23.27
2.296	23.21
2.308	21.94
2.32	20.82
2.332	19.58
2.344	18.4
2.356	18.14
2.368	19.18
2.38	21.13
2.392	22.88
2.404	23.86
2.416	24.19
2.428	24.33
2.44	24.13
2.452	23.64
2.464	22.88
2.476	22.04
2.488	21.27
2.5	20.89
