Name: Beryl Be_3Al_2Si_6O_18
Type: Mineral
Class: Silicate
Subclass: Cyclosilicate
Particle Size: Fine
Sample No.: CS-2A
Owner: JPL
Wavelength Range: TIR
Origin: Brazil, Minas Gerais
Description: Particle size was 0-45um.Collected by Ward's Original ASTER Spectral Library name was jpl.nicolet.mineral.silicate.cyclosilicate.fine.cs02a.spectrum.txt
Measurement: Hemispherical reflectance
X Units: Wavelength (micrometers)
Y Units: Reflectance (percent)
wavelength	value
15.3853	4.6441
15.1161	5.0998
14.8563	6.5976
14.6052	9.0373
14.3624	7.6202
14.1276	3.783
13.9004	4.0375
13.6803	5.15
13.4671	6.5766
13.2604	6.7092
13.06	4.5573
12.8656	3.1381
12.6769	4.0328
12.4936	5.2169
12.3155	6.0044
12.1425	4.4702
11.9742	3.1704
11.8106	3.0917
11.6513	3.9884
11.4963	5.0555
11.3454	5.5419
11.1983	6.091
11.0551	6.6484
10.9154	7.6388
10.7793	9.4507
10.6465	11.333
10.5169	13.2753
10.3904	15.2818
10.267	14.6658
10.1464	12.7951
10.0287	9.3371
9.9136	7.768
9.8012	9.5136
9.6913	8.7324
9.5838	7.2184
9.4787	7.5154
9.3758	7.8059
9.2752	8.141
9.1767	7.966
9.0803	7.5411
8.9858	6.2346
8.8934	5.6214
8.8028	4.9252
8.714	4.1812
8.627	4.2856
8.5417	4.8937
8.4581	5.7095
8.3761	8.2869
8.2957	11.547
8.2169	12.1286
8.1395	12.6332
8.0635	13.1125
7.989	13.8985
7.9158	14.4845
7.8439	14.589
7.7734	13.4556
7.7041	8.4103
7.636	5.1421
7.5691	3.302
7.5034	2.3855
7.4388	2.0319
7.3753	1.7527
7.3129	1.9093
7.2515	2.1385
7.1912	2.311
7.1318	2.5642
7.0734	2.8224
7.016	3.1351
6.9595	3.7309
6.9039	3.8018
6.8492	4.119
6.7953	4.875
6.7423	5.6831
6.6901	6.7627
6.6387	8.0482
6.5881	9.365
6.5382	9.8094
6.4892	6.5561
6.4408	6.5641
6.3931	8.6954
6.3462	10.4227
6.2999	10.6057
6.2543	7.7823
6.2094	10.8623
6.1651	8.739
6.1214	6.1489
6.0784	10.1843
6.0359	11.6103
5.994	15.6351
5.9527	17.7756
5.912	17.7699
5.8718	17.6303
5.8322	16.8845
5.7931	16.3567
5.7545	17.0415
5.7165	18.0913
5.6789	18.5778
5.6418	18.8897
5.6052	17.4693
5.5691	18.251
5.5334	18.4318
5.4982	18.434
5.4635	20.336
5.4291	22.4054
5.3952	23.394
5.3618	23.8896
5.3287	23.5227
5.2961	23.0293
5.2638	20.8595
5.2319	17.8069
5.2004	15.1445
5.1693	14.1727
5.1386	14.2106
5.1082	15.2816
5.0782	17.6658
5.0485	20.1265
5.0192	22.2085
4.9902	24.1544
4.9616	26.2514
4.9332	27.5854
4.9052	29.1028
4.8776	31.4676
4.8502	33.8032
4.8231	35.3752
4.7963	37.4877
4.7699	40.332
4.7437	42.0976
4.7178	43.6724
4.6922	44.4478
4.6668	44.805
4.6418	45.4141
4.617	46.5643
4.5924	47.6013
4.5681	48.2661
4.5441	49.04
4.5203	49.5326
4.4968	49.6133
4.4735	49.3913
4.4505	49.5745
4.4277	50.4944
4.4051	51.5424
4.3828	52.3527
4.3607	52.4163
4.3388	53.1166
4.3171	52.7501
4.2956	50.4585
4.2744	44.3364
4.2534	37.4314
4.2325	28.4631
4.2119	38.5114
4.1915	51.0887
4.1712	56.2561
4.1512	56.845
4.1313	56.9355
4.1117	57.1031
4.0922	56.9979
4.0729	57.0214
4.0538	57.291
4.0349	57.2359
4.0161	57.5807
3.9976	57.776
3.9792	57.9187
3.9609	58.0802
3.9428	58.1908
3.9249	58.1691
3.9072	58.361
3.8896	58.3168
3.8722	58.4904
3.8549	58.5005
3.8378	58.53
3.8208	58.5281
3.804	58.6288
3.7873	58.5099
3.7708	58.6404
3.7544	58.6058
3.7382	58.6057
3.7221	58.4946
3.7061	58.6222
3.6903	58.5617
3.6746	58.446
3.659	58.4899
3.6436	58.4095
3.6283	58.3434
3.6131	58.3735
3.5981	58.4433
3.5832	58.424
3.5684	58.3496
3.5537	58.2873
3.5391	58.2601
3.5247	58.0961
3.5104	57.657
3.4962	57.4563
3.4821	57.5341
3.4681	57.5227
3.4543	57.3484
3.4405	57.0307
3.4269	56.5949
3.4133	56.1013
3.3999	56.547
3.3866	56.6817
3.3733	56.543
3.3602	56.8797
3.3472	56.9699
3.3343	56.9078
3.3215	56.9098
3.3088	56.8434
3.2961	56.7393
3.2836	56.6401
3.2712	56.6596
3.2588	56.5644
3.2466	56.5094
3.2345	56.3171
3.2224	55.8654
3.2104	55.6193
3.1985	55.7271
3.1867	55.6119
3.175	55.614
3.1634	55.3344
3.1519	55.2902
3.1404	55.2844
3.129	54.986
3.1178	54.6482
3.1065	54.1483
3.0954	53.5682
3.0844	53.6609
3.0734	54.0923
3.0625	54.2432
3.0517	53.9022
3.041	53.9024
3.0303	53.5161
3.0197	53.258
3.0092	52.9163
2.9987	52.4011
2.9884	51.9938
2.9781	51.3547
2.9678	50.66
2.9577	49.8433
2.9476	49.1815
2.9376	49.5852
2.9276	49.8032
2.9177	49.4072
2.9079	48.8928
2.8982	48.131
2.8885	47.0947
2.8789	45.4
2.8693	43.6689
2.8598	42.6909
2.8504	41.918
2.841	41.2052
2.8317	40.9319
2.8224	39.8022
2.8133	37.0697
2.8041	37.2689
2.7951	35.4257
2.786	28.0468
2.7771	20.8933
2.7682	36.4167
2.7594	36.5174
2.7506	34.4909
2.7418	30.8937
2.7332	27.3052
2.7246	28.381
2.716	24.6291
2.7075	12.2704
2.699	12.8732
2.6906	27.6899
2.6823	34.3971
2.674	37.6276
2.6657	41.7083
2.6575	41.6914
2.6494	43.3424
2.6413	44.6186
2.6332	45.136
2.6252	44.7796
2.6173	44.5955
2.6094	42.9293
2.6015	42.0815
2.5937	43.2064
2.5859	41.9762
2.5782	42.1844
2.5706	43.236
2.5629	44.6677
2.5554	45.9468
2.5478	49.4552
2.5403	52.1172
2.5329	54.1798
2.5255	55.0949
2.5181	56.1151
2.5108	56.7362
2.5035	57.3697
2.4963	58.2664
2.4891	58.8661
2.482	59.3017
2.4749	59.6171
2.4678	59.9308
2.4608	60.2546
2.4538	60.5703
2.4468	60.8332
2.4399	60.9891
2.4331	61.2692
2.4262	61.3057
2.4194	61.5258
2.4127	61.6002
2.4059	61.6872
2.3993	61.7152
2.3926	61.7049
2.386	61.7174
2.3795	61.8249
2.3729	61.9029
2.3664	61.8974
2.36	62.0396
2.3535	61.9203
2.3471	62.061
2.3408	62.2634
2.3345	62.3049
2.3282	62.318
2.3219	62.2733
2.3157	62.2577
2.3095	62.4881
2.3034	62.6011
2.2972	62.5204
2.2911	62.4938
2.2851	62.4405
2.279	62.2886
2.2731	62.5686
2.2671	62.6129
2.2612	62.6441
2.2553	62.578
2.2494	62.6636
2.2435	62.5899
2.2377	62.7957
2.232	62.5252
2.2262	62.703
2.2205	62.7234
2.2148	62.706
2.2091	62.7539
2.2035	62.4867
2.1979	62.6388
2.1923	62.6871
2.1868	62.8878
2.1812	62.6897
2.1758	62.6732
2.1703	62.6431
2.1649	62.6215
2.1595	62.7811
2.1541	62.362
2.1487	62.7175
2.1434	62.6567
2.1381	62.9027
2.1328	62.9298
2.1275	62.8848
2.1223	62.9571
2.1171	62.8274
2.112	62.6387
2.1068	62.9703
2.1017	62.9295
2.0966	62.8976
2.0915	62.8245
2.0865	62.896
2.0814	62.9866
2.0764	62.8928
2.0715	62.6893
2.0665	63.0003
2.0616	62.9072
2.0567	63.3839
2.0518	62.8601
2.0469	62.6968
2.0421	63.2165
2.0373	63.0582
2.0325	63.0324
2.0277	63.0324
2.0229	63.0012
2.0182	63.0773
2.0135	63.0219
2.0088	62.9692
2.0042	62.9816
