Name: Fluorite CaF_2
Type: Mineral
Class: Halide
Subclass: none
Particle Size: Medium
Sample No.: H-2B
Owner: JPL
Wavelength Range: VSWIR
Origin: United Kingdom, England, Durham County, Weardal.
Description: Particle size was 45-125um. Collected by:  Ward's Original ASTER Spectral Library name was jpl.perkin.mineral.halide.none.medium.h02b.spectrum.txt
Measurement: Hemispherical reflectance
X Units: Wavelength (micrometers)
Y Units: Reflectance (percent)
wavelength	value
2.5	66.3166
2.494	66.1004
2.488	66.3196
2.482	66.4792
2.476	66.5861
2.47	66.8314
2.464	66.9091
2.458	67.114
2.452	67.2377
2.446	67.3593
2.44	67.5021
2.434	67.6345
2.428	67.7085
2.422	67.8355
2.416	67.969
2.41	68.0147
2.404	68.1042
2.398	68.3011
2.392	68.3996
2.386	68.5498
2.38	68.6816
2.374	68.7232
2.368	68.9635
2.362	69.0345
2.356	69.1333
2.35	69.194
2.344	69.3037
2.338	69.3829
2.332	69.3794
2.326	69.3188
2.32	69.3913
2.314	69.3896
2.308	69.4421
2.302	69.4945
2.296	69.4889
2.29	69.5322
2.284	69.4975
2.278	69.5168
2.272	69.4856
2.266	69.494
2.26	69.5192
2.254	69.4965
2.248	69.5213
2.242	69.5874
2.236	69.5605
2.23	69.6506
2.224	69.5889
2.218	69.6374
2.212	69.8738
2.206	69.9524
2.2	70.0121
2.194	69.9848
2.188	70.1316
2.182	70.2483
2.176	70.221
2.17	70.391
2.164	70.4386
2.158	70.6233
2.152	70.6847
2.146	70.6717
2.14	70.6387
2.134	70.5313
2.128	70.3701
2.122	70.2729
2.116	69.966
2.11	69.7047
2.104	69.5286
2.098	69.2864
2.092	69.3303
2.086	69.3245
2.08	69.3511
2.074	69.4358
2.068	69.4005
2.062	69.3773
2.056	69.4573
2.05	69.4258
2.044	69.3797
2.038	69.402
2.032	69.2821
2.026	69.1804
2.02	69.0749
2.014	68.9447
2.008	68.7594
2.002	68.6165
1.996	68.4015
1.99	68.107
1.984	67.824
1.978	67.6207
1.972	67.3163
1.966	67.1266
1.96	67.0019
1.954	66.9068
1.948	66.7253
1.942	66.7011
1.936	66.6536
1.93	66.728
1.924	66.8232
1.918	67.1115
1.912	67.5672
1.906	67.9713
1.9	68.6441
1.894	69.3102
1.888	69.7861
1.882	70.1126
1.876	70.3657
1.87	70.6435
1.864	70.6949
1.858	70.8525
1.852	70.8592
1.846	70.8412
1.84	70.9315
1.834	70.9049
1.828	70.9366
1.822	70.9922
1.816	70.9353
1.81	70.948
1.804	70.9118
1.798	71.0053
1.792	70.9953
1.786	70.9797
1.78	70.9545
1.774	70.9291
1.768	70.9574
1.762	70.9646
1.756	70.9623
1.75	71.0631
1.744	71.0813
1.738	71.1028
1.732	71.1747
1.726	71.2027
1.72	71.1834
1.714	71.1359
1.708	71.1444
1.702	71.143
1.696	71.1139
1.69	71.1744
1.684	71.1785
1.678	71.1464
1.672	71.171
1.666	71.1861
1.66	71.1632
1.654	71.1306
1.648	71.1818
1.642	70.995
1.636	71.0851
1.63	71.0766
1.624	71.1279
1.618	71.0591
1.612	71.1157
1.606	71.117
1.6	71.0795
1.594	71.0897
1.588	71.0975
1.582	71.0368
1.576	71.0438
1.57	71.069
1.564	70.9694
1.558	70.9559
1.552	70.9589
1.546	70.8913
1.54	70.9356
1.534	70.8877
1.528	70.8269
1.522	70.7627
1.516	70.7811
1.51	70.7199
1.504	70.5842
1.498	70.6146
1.492	70.5003
1.486	70.5033
1.48	70.3816
1.474	70.2513
1.468	70.2697
1.462	70.2412
1.456	70.1848
1.45	70.1941
1.444	70.2192
1.438	70.2034
1.432	70.1971
1.426	70.323
1.42	70.3115
1.414	70.4173
1.408	70.5507
1.402	70.7058
1.396	70.9189
1.39	70.9987
1.384	70.9789
1.378	71.0218
1.372	71.0423
1.366	71.0809
1.36	71.0218
1.354	70.9464
1.348	71.0783
1.342	71.0215
1.336	71.0668
1.33	71.0871
1.324	71.0947
1.318	71.043
1.312	71.0587
1.306	71.0677
1.3	71.159
1.294	71.0893
1.288	70.9923
1.282	71.0367
1.276	71.047
1.27	71.055
1.264	71.1022
1.258	71.0499
1.252	71.1119
1.246	70.9967
1.24	71.1167
1.234	71.0333
1.228	71.0686
1.222	71.0534
1.216	71.0699
1.21	71.017
1.204	71.0687
1.198	71.0146
1.192	71.0216
1.186	71.0639
1.18	71.0697
1.174	71.0567
1.168	71.0934
1.162	71.0281
1.156	71.0677
1.15	71.0929
1.144	71.0523
1.138	71.0751
1.132	71.1207
1.126	71.145
1.12	71.1321
1.114	71.1756
1.108	71.1387
1.102	71.2045
1.096	71.1563
1.09	71.1402
1.084	71.1904
1.078	71.1568
1.072	71.1457
1.066	71.1762
1.06	71.2056
1.054	71.118
1.048	71.1509
1.042	71.1545
1.036	71.1553
1.03	71.1502
1.024	71.2001
1.018	71.1668
1.012	71.1788
1.006	71.2187
1	71.1514
0.994	71.1915
0.988	71.1855
0.982	71.0738
0.976	71.2013
0.97	71.1329
0.964	71.1643
0.958	71.1838
0.952	71.1717
0.946	71.1938
0.94	71.2158
0.934	71.1881
0.928	71.1839
0.922	71.2117
0.916	71.1871
0.91	71.1828
0.904	71.2137
0.898	71.1431
0.892	71.1369
0.886	71.2129
0.88	71.1762
0.874	71.1495
0.868	71.1376
0.862	71.1557
0.856	71.3898
0.85	71.3956
0.844	71.3663
0.838	71.3829
0.832	71.3661
0.826	71.3451
0.82	71.3235
0.814	71.3482
0.808	71.3593
0.802	71.2913
0.796	71.2597
0.79	71.2036
0.784	71.1697
0.778	71.1264
0.772	71.0593
0.766	71.053
0.76	71.0191
0.754	70.9935
0.748	70.9067
0.742	70.8674
0.736	70.796
0.73	70.7521
0.724	70.6732
0.718	70.5906
0.712	70.5148
0.706	70.4715
0.7	70.3483
0.694	70.2936
0.688	70.2158
0.682	70.156
0.676	70.1168
0.67	70.007
0.664	69.9151
0.658	69.7962
0.652	69.6447
0.646	69.5319
0.64	69.3774
0.634	69.2346
0.628	69.1076
0.622	68.986
0.616	68.8623
0.61	68.7733
0.604	68.7107
0.598	68.6788
0.592	68.6555
0.586	68.5824
0.58	68.4911
0.574	68.4487
0.568	68.3968
0.562	68.337
0.556	68.2405
0.55	68.152
0.544	68.0583
0.538	67.9639
0.532	67.8803
0.526	67.7596
0.52	67.6735
0.514	67.5758
0.508	67.4553
0.502	67.3249
0.496	67.1798
0.49	67.0432
0.484	66.8976
0.478	66.8245
0.472	66.7442
0.466	66.6221
0.46	66.4841
0.454	66.3367
0.448	66.1188
0.442	65.9083
0.436	65.7269
0.43	65.4666
0.424	65.1703
0.418	65.0314
0.412	64.8953
0.406	64.6945
0.4	64.4449
