Name: AtacamiteCu_2Cl(OH)_3
Type: Mineral
Class: Halide
Subclass: None
Particle Size: Fine
Sample No.: H-4A
Owner: JPL
Wavelength Range: TIR
Origin: Chile, Atacama, Copiapo
Description: Particle size was 0-45um.Collected by Grieger's Inc. Original ASTER Spectral Library name was jpl.nicolet.mineral.halide.none.fine.h04a.spectrum.txt
Measurement: Hemispherical reflectance
X Units: Wavelength (micrometers)
Y Units: Reflectance (percent)
wavelength	value
15.3853	1.4949
15.1161	1.8848
14.8563	2.029
14.6052	1.5958
14.3624	2.04
14.1276	2.2579
13.9004	2.4035
13.6803	2.4705
13.4671	2.6204
13.2604	2.6015
13.06	2.7069
12.8656	2.4996
12.6769	2.6031
12.4936	2.6839
12.3155	2.5041
12.1425	2.3193
11.9742	2.5198
11.8106	2.6954
11.6513	2.3863
11.4963	2.4533
11.3454	2.9465
11.1983	2.8796
11.0551	2.5732
10.9154	2.5129
10.7793	2.674
10.6465	2.6756
10.5169	2.7729
10.3904	2.8411
10.267	3.0516
10.1464	3.1542
10.0287	3.0189
9.9136	3.199
9.8012	3.8686
9.6913	3.9174
9.5838	4.1059
9.4787	4.2073
9.3758	3.4634
9.2752	3.034
9.1767	2.4514
9.0803	2.1891
8.9858	2.1661
8.8934	1.9386
8.8028	2.0768
8.714	1.9745
8.627	1.8722
8.5417	2.0482
8.4581	2.3923
8.3761	2.7114
8.2957	3.5307
8.2169	4.4956
8.1395	5.4232
8.0635	6.5088
7.989	7.5445
7.9158	8.2012
7.8439	8.7474
7.7734	9.1542
7.7041	9.6345
7.636	10.0102
7.5691	10.5764
7.5034	10.7435
7.4388	11.0534
7.3753	11.4582
7.3129	12.0909
7.2515	12.4741
7.1912	12.7053
7.1318	12.7018
7.0734	12.8115
7.016	12.7772
6.9595	12.8558
6.9039	13.2311
6.8492	13.4576
6.7953	13.7861
6.7423	14.1881
6.6901	14.3111
6.6387	14.0578
6.5881	14.3559
6.5382	14.3895
6.4892	13.6174
6.4408	13.1394
6.3931	12.2911
6.3462	11.1245
6.2999	9.7904
6.2543	8.3965
6.2094	6.4754
6.1651	4.6707
6.1214	3.7224
6.0784	3.2348
6.0359	3.0635
5.994	3.7163
5.9527	4.8791
5.912	5.9691
5.8718	6.8927
5.8322	7.9763
5.7931	9.1849
5.7545	10.7082
5.7165	11.8759
5.6789	12.0331
5.6418	10.7991
5.6052	12.194
5.5691	13.2383
5.5334	13.623
5.4982	13.9282
5.4635	14.0936
5.4291	14.2451
5.3952	14.6005
5.3618	15.4116
5.3287	16.6831
5.2961	17.2357
5.2638	17.604
5.2319	18.0762
5.2004	18.0341
5.1693	16.9876
5.1386	15.1851
5.1082	14.8271
5.0782	17.4813
5.0485	19.4809
5.0192	21.3404
4.9902	22.4495
4.9616	23.2406
4.9332	23.7779
4.9052	24.02
4.8776	24.1622
4.8502	24.2547
4.8231	24.2247
4.7963	24.4814
4.7699	24.7628
4.7437	25.028
4.7178	25.2295
4.6922	25.4786
4.6668	25.9606
4.6418	26.5068
4.617	27.0258
4.5924	27.4009
4.5681	27.9529
4.5441	28.2103
4.5203	28.7034
4.4968	29.0944
4.4735	29.579
4.4505	29.9695
4.4277	30.3214
4.4051	30.9137
4.3828	31.2942
4.3607	31.8327
4.3388	32.2788
4.3171	32.7627
4.2956	33.3613
4.2744	34.0525
4.2534	34.1454
4.2325	34.9994
4.2119	35.0726
4.1915	35.1817
4.1712	35.472
4.1512	35.7029
4.1313	36.0729
4.1117	36.1051
4.0922	36.417
4.0729	36.5062
4.0538	36.7953
4.0349	36.7068
4.0161	36.589
3.9976	36.9661
3.9792	36.8533
3.9609	36.6311
3.9428	36.3496
3.9249	35.3625
3.9072	36.1418
3.8896	36.2333
3.8722	36.1548
3.8549	35.7803
3.8378	35.5977
3.8208	35.3548
3.804	34.9234
3.7873	34.4608
3.7708	33.845
3.7544	33.4001
3.7382	32.7951
3.7221	32.1615
3.7061	31.4919
3.6903	30.7553
3.6746	29.9608
3.659	29.1293
3.6436	28.2312
3.6283	27.4505
3.6131	26.6329
3.5981	25.8658
3.5832	25.0358
3.5684	24.094
3.5537	22.9186
3.5391	21.5453
3.5247	20.3445
3.5104	19.182
3.4962	18.6287
3.4821	18.1744
3.4681	17.6297
3.4543	16.9376
3.4405	16.261
3.4269	15.351
3.4133	14.3262
3.3999	13.7896
3.3866	13.2566
3.3733	12.3407
3.3602	11.8635
3.3472	11.1843
3.3343	11.0714
3.3215	10.3768
3.3088	9.5707
3.2961	9.0928
3.2836	8.6077
3.2712	8.2005
3.2588	7.6333
3.2466	7.0948
3.2345	6.8348
3.2224	6.5743
3.2104	6.2836
3.1985	5.7058
3.1867	4.9738
3.175	4.3835
3.1634	3.9865
3.1519	3.6666
3.1404	3.414
3.129	3.1574
3.1178	2.9671
3.1065	3.0142
3.0954	2.8708
3.0844	3.0497
3.0734	3.1223
3.0625	2.9911
3.0517	3.0775
3.041	2.7834
3.0303	2.6541
3.0197	2.8067
3.0092	2.6584
2.9987	2.9994
2.9884	3.1955
2.9781	2.6603
2.9678	2.1396
2.9577	1.525
2.9476	1.5095
2.9376	1.6802
2.9276	1.7944
2.9177	1.6398
2.9079	2.3126
2.8982	2.3339
2.8885	1.4911
2.8789	1.4335
2.8693	1.5724
2.8598	1.5272
2.8504	1.8832
2.841	2.0338
2.8317	2.437
2.8224	2.8263
2.8133	2.9402
2.8041	2.9749
2.7951	3.1325
2.786	3.3111
2.7771	3.4003
2.7682	3.3854
2.7594	3.8304
2.7506	4.6743
2.7418	5.5376
2.7332	7.544
2.7246	9.6805
2.716	12.4743
2.7075	13.6801
2.699	17.7754
2.6906	22.8446
2.6823	26.8825
2.674	30.1177
2.6657	32.2304
2.6575	34.8267
2.6494	35.8699
2.6413	36.7718
2.6332	36.7552
2.6252	38.0356
2.6173	38.9421
2.6094	39.3946
2.6015	39.6587
2.5937	39.6747
2.5859	41.2532
2.5782	42.2919
2.5706	42.629
2.5629	42.5358
2.5554	42.8609
2.5478	44.2327
2.5403	46.0634
2.5329	47.0175
2.5255	48.0259
2.5181	49.0427
2.5108	50.2909
2.5035	50.8893
2.4963	51.3555
2.4891	51.2827
2.482	50.455
2.4749	48.2066
2.4678	43.445
2.4608	47.8386
2.4538	52.6316
2.4468	54.4366
2.4399	55.4059
2.4331	56.0688
2.4262	56.8601
2.4194	57.099
2.4127	56.9951
2.4059	56.7113
2.3993	56.5653
2.3926	57.244
2.386	57.762
2.3795	57.1554
2.3729	57.6036
2.3664	58.1528
2.36	58.6951
2.3535	58.9745
2.3471	58.5737
2.3408	57.1606
2.3345	57.782
2.3282	60.1412
2.3219	61.3123
2.3157	61.3322
2.3095	61.7309
2.3034	62.0642
2.2972	62.6244
2.2911	62.3728
2.2851	61.6026
2.279	61.2164
2.2731	61.1243
2.2671	61.3978
2.2612	60.9962
2.2553	60.9858
2.2494	61.2352
2.2435	62.7255
2.2377	64.6037
2.232	66.0211
2.2262	67.0503
2.2205	67.3206
2.2148	67.5823
2.2091	67.0983
2.2035	67.8904
2.1979	67.9365
2.1923	68.2806
2.1868	68.7663
2.1812	68.8484
2.1758	68.5308
2.1703	67.6734
2.1649	66.3542
2.1595	64.3212
2.1541	65.6578
2.1487	68.115
2.1434	69.7727
2.1381	70.7757
2.1328	71.3879
2.1275	71.6987
2.1223	71.8233
2.1171	71.8858
2.112	71.6544
2.1068	71.519
2.1017	71.5765
2.0966	71.4704
2.0915	71.5808
2.0865	71.4298
2.0814	70.9738
2.0764	71.2073
2.0715	70.8655
2.0665	70.7975
2.0616	70.6539
2.0567	70.3539
2.0518	69.7329
2.0469	69.4548
2.0421	69.1079
2.0373	68.6641
2.0325	67.7355
2.0277	67.0043
2.0229	66.6954
2.0182	66.1704
2.0135	65.4105
2.0088	64.6722
2.0042	62.9281
