Name: Muscovite KAl_2(Si_3Al)O_10(OH,F)_2
Type: Mineral
Class: Silicate
Subclass: Phyllosilicate
Particle Size: Medium
Sample No.: PS-16A
Owner: JPL
Wavelength Range: TIR
Origin: USA, Connecticut
Description: Particle size was 45-125um.Collected by Ward's Original ASTER Spectral Library name was jpl.nicolet.mineral.silicate.phyllosilicate.medium.ps16a.spectrum.txt
Measurement: Hemispherical reflectance
X Units: Wavelength (micrometers)
Y Units: Reflectance (percent)
wavelength	value
15.3853	2.6608
15.1161	3.1454
14.8563	2.8553
14.6052	3.5292
14.3624	3.1941
14.1276	4.0239
13.9004	4.4768
13.6803	4.4581
13.4671	4.7435
13.2604	4.0615
13.06	3.7032
12.8656	4.3766
12.6769	5.0424
12.4936	5.0498
12.3155	4.7685
12.1425	5.5145
11.9742	6.5235
11.8106	7.8095
11.6513	8.429
11.4963	8.1789
11.3454	7.928
11.1983	7.8996
11.0551	8.2093
10.9154	7.7146
10.7793	7.4749
10.6465	7.3289
10.5169	8.1678
10.3904	9.9441
10.267	11.757
10.1464	14.062
10.0287	14.8917
9.9136	16.0291
9.8012	17.1947
9.6913	20.7925
9.5838	22.6202
9.4787	16.337
9.3758	17.7166
9.2752	20.9008
9.1767	22.5309
9.0803	21.2504
8.9858	20.2477
8.8934	18.8551
8.8028	17.3539
8.714	14.807
8.627	10.8436
8.5417	10.2331
8.4581	9.2616
8.3761	8.5274
8.2957	7.8943
8.2169	7.0032
8.1395	5.3162
8.0635	3.7268
7.989	2.9003
7.9158	2.4245
7.8439	2.5843
7.7734	2.691
7.7041	3.0501
7.636	3.3938
7.5691	3.9447
7.5034	4.3771
7.4388	4.96
7.3753	5.4534
7.3129	5.6741
7.2515	6.2146
7.1912	6.7887
7.1318	7.2532
7.0734	7.798
7.016	8.2819
6.9595	8.8411
6.9039	9.2952
6.8492	9.8226
6.7953	10.3532
6.7423	10.5707
6.6901	10.9989
6.6387	11.802
6.5881	11.8532
6.5382	12.1695
6.4892	13.3234
6.4408	13.7003
6.3931	13.5814
6.3462	13.183
6.2999	12.5769
6.2543	12.1131
6.2094	11.938
6.1651	11.8997
6.1214	12.3041
6.0784	12.6579
6.0359	12.4675
5.994	12.4131
5.9527	12.1337
5.912	12.1434
5.8718	12.6685
5.8322	13.1655
5.7931	13.1728
5.7545	13.1931
5.7165	13.106
5.6789	12.8915
5.6418	12.603
5.6052	12.2906
5.5691	12.0346
5.5334	12.2993
5.4982	12.9356
5.4635	13.6225
5.4291	13.9988
5.3952	14.1471
5.3618	14.3784
5.3287	14.9371
5.2961	15.7492
5.2638	16.8714
5.2319	18.3947
5.2004	19.8901
5.1693	21.0441
5.1386	22.0443
5.1082	23.0203
5.0782	23.554
5.0485	23.9079
5.0192	24.2346
4.9902	24.4823
4.9616	26.0576
4.9332	27.0623
4.9052	27.7424
4.8776	29.5303
4.8502	30.9374
4.8231	31.7702
4.7963	31.8855
4.7699	32.27
4.7437	33.3222
4.7178	34.2695
4.6922	34.836
4.6668	35.7907
4.6418	36.9837
4.617	38.6523
4.5924	39.8789
4.5681	40.9288
4.5441	41.6695
4.5203	42.1486
4.4968	42.6037
4.4735	43.1437
4.4505	44.0696
4.4277	44.9404
4.4051	45.7365
4.3828	46.6575
4.3607	47.2436
4.3388	47.6525
4.3171	47.8283
4.2956	47.9613
4.2744	48.1469
4.2534	48.3279
4.2325	48.3688
4.2119	48.4911
4.1915	48.4317
4.1712	48.4417
4.1512	48.5467
4.1313	48.5789
4.1117	48.6573
4.0922	48.7395
4.0729	48.8316
4.0538	48.8746
4.0349	49.0059
4.0161	49.043
3.9976	49.0949
3.9792	49.2183
3.9609	49.5412
3.9428	49.609
3.9249	49.8079
3.9072	49.9265
3.8896	49.9183
3.8722	49.8797
3.8549	49.8766
3.8378	49.7274
3.8208	49.7295
3.804	49.47
3.7873	49.2848
3.7708	48.8951
3.7544	48.3739
3.7382	47.711
3.7221	47.2338
3.7061	46.8749
3.6903	46.6128
3.6746	46.385
3.659	46.0083
3.6436	45.7827
3.6283	45.3144
3.6131	45.1142
3.5981	44.472
3.5832	44.0559
3.5684	43.5742
3.5537	42.95
3.5391	42.6496
3.5247	42.1712
3.5104	41.6155
3.4962	41.1922
3.4821	40.7906
3.4681	40.3766
3.4543	39.9026
3.4405	39.3768
3.4269	38.871
3.4133	38.0881
3.3999	37.6251
3.3866	37.2342
3.3733	36.6716
3.3602	36.2783
3.3472	35.7447
3.3343	35.3513
3.3215	34.9591
3.3088	34.3494
3.2961	34.1306
3.2836	33.8296
3.2712	33.4877
3.2588	33.3542
3.2466	32.8839
3.2345	32.6202
3.2224	32.2767
3.2104	31.6683
3.1985	31.3883
3.1867	30.9048
3.175	30.8187
3.1634	30.4814
3.1519	30.1924
3.1404	29.8741
3.129	29.58
3.1178	29.3604
3.1065	29.0495
3.0954	28.7561
3.0844	28.6073
3.0734	28.4271
3.0625	28.3334
3.0517	28.008
3.041	27.7848
3.0303	27.5198
3.0197	27.443
3.0092	27.4428
2.9987	27.2421
2.9884	27.3574
2.9781	27.5517
2.9678	27.3862
2.9577	27.2974
2.9476	27.3518
2.9376	27.2949
2.9276	26.9789
2.9177	26.9103
2.9079	26.7452
2.8982	26.8124
2.8885	26.7025
2.8789	26.7762
2.8693	27.1288
2.8598	27.1557
2.8504	27.2322
2.841	26.8192
2.8317	26.6359
2.8224	26.1357
2.8133	25.1146
2.8041	22.3605
2.7951	17.9659
2.786	13.3734
2.7771	9.586
2.7682	7.2605
2.7594	5.7791
2.7506	5.6631
2.7418	5.915
2.7332	6.5066
2.7246	9.6085
2.716	18.6528
2.7075	30.917
2.699	37.3287
2.6906	42.7223
2.6823	46.0839
2.674	48.1235
2.6657	50.8168
2.6575	51.7215
2.6494	52.9646
2.6413	53.4509
2.6332	53.6385
2.6252	53.6087
2.6173	54.0337
2.6094	53.9296
2.6015	54.5624
2.5937	56.1497
2.5859	56.1006
2.5782	56.1863
2.5706	56.6375
2.5629	57.3484
2.5554	57.5211
2.5478	57.8473
2.5403	57.8307
2.5329	57.8564
2.5255	57.5672
2.5181	56.8831
2.5108	56.0348
2.5035	55.3415
2.4963	54.693
2.4891	54.4791
2.482	54.2623
2.4749	54.0361
2.4678	53.366
2.4608	52.8598
2.4538	52.337
2.4468	52.0169
2.4399	51.5994
2.4331	51.7087
2.4262	52.3949
2.4194	53.5516
2.4127	54.634
2.4059	55.9422
2.3993	56.4197
2.3926	56.5165
2.386	56.5139
2.3795	56.4985
2.3729	56.6657
2.3664	56.614
2.36	56.3061
2.3535	55.3958
2.3471	55.2058
2.3408	55.8144
2.3345	57.073
2.3282	58.3892
2.3219	59.9388
2.3157	60.9447
2.3095	62.4006
2.3034	63.1408
2.2972	64.2045
2.2911	64.6566
2.2851	65.0125
2.279	65.2877
2.2731	65.1819
2.2671	65.1985
2.2612	65.0036
2.2553	64.6496
2.2494	64.3798
2.2435	63.7817
2.2377	63.0204
2.232	62.4107
2.2262	61.4752
2.2205	59.7598
2.2148	56.84
2.2091	53.3082
2.2035	50.7076
2.1979	49.7026
2.1923	51.1092
2.1868	54.3107
2.1812	58.1292
2.1758	61.6306
2.1703	63.9174
2.1649	65.1956
2.1595	66.2764
2.1541	66.9331
2.1487	67.5209
2.1434	67.6286
2.1381	67.9248
2.1328	68.0439
2.1275	67.9423
2.1223	67.8998
2.1171	68.1465
2.112	68.3111
2.1068	68.5872
2.1017	68.8956
2.0966	69.2236
2.0915	69.2969
2.0865	69.734
2.0814	69.7148
2.0764	70.1456
2.0715	69.9079
2.0665	69.7638
2.0616	70.2069
2.0567	70.0985
2.0518	70.0178
2.0469	70.3782
2.0421	70.1927
2.0373	70.2374
2.0325	70.4345
2.0277	70.2984
2.0229	70.1732
2.0182	70.2853
2.0135	70.1008
2.0088	70.2309
2.0042	70.3642
