Name: Almandine Fe3+2Al2(SiO4)3
Type: Mineral
Class: Silicate
Subclass: Nesosilicate
Particle Size: Coarse
Sample No.: almandine_1
Owner: JHU
Wavelength Range: TIR
Origin: Sample from Stikine River, Fort Wrangell, Alaska, USA via theSmithsonian (sample no. NMNH 104490-7).
Description: The sample was a single deep maroon crystal about 2 cm in diameter with good crystal faces, except for one fractured edge.  Weight was 17 g.  A thin, soft, almost transparent film was buffed off crystal faces.  Microscopic examination showed contamination by about 1% opaques and 1% quartz. Particle size was 74-250 Micrometers.(Isolated Tetrahedra) (Garnet Group) Original ASTER Spectral Library name was jhu.nicolet.mineral.silicate.nesosilicate.coarse.almand1.spectrum.txt
Measurement: Bidirectional reflectance
X Units: Wavelength (micrometers)
Y Units: Reflectance (percent)
wavelength	value
25.0442	2.3457
24.3388	3.2151
23.6719	4.2239
23.0407	5.7119
22.4422	8.9101
21.8741	9.5656
21.334	9.208
20.8199	12.2028
20.33	12.144
19.8627	11.622
19.4163	9.1618
18.9896	5.6601
18.5812	4.6416
18.19	1.3652
17.815	3.6672
17.4551	7.2366
17.1094	7.8598
16.7772	6.51
16.4576	3.1614
16.15	0.6587
15.8537	0.6372
15.568	0.7056
15.2925	0.6655
15.0265	0.9216
14.7697	1.1501
14.5214	1.3269
14.2814	1.5051
14.0492	1.6492
13.8244	1.731
13.6067	1.8801
13.3957	2.0002
13.1912	2.0847
12.9929	2.2693
12.8004	2.4216
12.6135	2.5854
12.432	2.79
12.2557	3.001
12.0843	3.3484
11.9176	3.8784
11.7555	4.5991
11.5977	5.9878
11.444	8.1858
11.2944	6.4253
11.1487	7.8511
11.0067	9.3183
10.8682	7.4985
10.7332	2.689
10.6015	2.135
10.473	4.8672
10.3476	9.8244
10.2251	11.5908
10.1056	11.9658
9.9887	11.821
9.8746	11.3747
9.763	10.4997
9.6539	8.8418
9.5472	6.9734
9.4429	5.1057
9.3408	3.0969
9.2409	1.3887
9.1431	0.3342
9.0474	0.1602
8.9536	0.2551
8.8618	0.3467
8.7718	0.4534
8.6837	0.5259
8.5973	0.6033
8.5126	0.6919
8.4295	0.7932
8.3481	0.8853
8.2682	0.9651
8.1898	1.0601
8.1129	1.145
8.0374	1.2109
7.9634	1.3127
7.8906	1.425
7.8192	1.5149
7.7491	1.5996
7.6802	1.6143
7.6126	1.606
7.5461	1.6042
7.4807	1.6106
7.4165	1.6196
7.3534	1.5874
7.2914	1.5703
7.2303	1.5915
7.1703	1.6482
7.1113	1.7292
7.0533	1.8186
6.9962	1.9099
6.94	1.926
6.8847	1.8914
6.8302	1.863
6.7767	1.8606
6.7239	1.8918
6.672	1.9319
6.6209	2.0227
6.5705	2.1194
6.5209	2.2019
6.4721	2.2529
6.424	2.3376
6.3766	2.4639
6.3299	2.582
6.2838	2.6638
6.2385	2.7205
6.1937	2.7541
6.1496	2.7886
6.1062	2.8115
6.0633	2.8315
6.0211	2.8403
5.9794	2.8296
5.9383	2.7659
5.8978	2.6872
5.8578	2.5105
5.8184	2.2163
5.7794	1.9954
5.741	1.8572
5.7031	1.7666
5.6657	1.7212
5.6288	1.7275
5.5924	1.7485
5.5564	1.7646
5.5209	1.771
5.4859	1.8237
5.4513	1.9158
5.4171	1.9805
5.3833	2.0813
5.35	2.158
5.3171	2.1509
5.2846	2.158
5.2524	2.2158
5.2207	2.3213
5.1893	2.4346
5.1584	2.5701
5.1277	2.762
5.0975	2.9858
5.0676	3.2429
5.038	3.4741
5.0088	3.6404
4.98	3.7522
4.9514	3.875
4.9232	3.9785
4.8953	4.0752
4.8678	4.1372
4.8405	4.1995
4.8135	4.2876
4.7868	4.3801
4.7605	4.4675
4.7344	4.5486
4.7086	4.6113
4.6831	4.6838
4.6578	4.7534
4.6328	4.8181
4.6081	4.8784
4.5837	4.9411
4.5595	5.0061
4.5356	5.0583
4.5119	5.1062
4.4884	5.1794
4.4652	5.2412
4.4423	5.3108
4.4196	5.3813
4.3971	5.4485
4.3748	5.5168
4.3528	5.5661
4.331	5.6282
4.3094	5.6965
4.288	5.7422
4.2668	5.8098
4.2458	5.8689
4.2251	5.9409
4.2045	6.0168
4.1841	6.0652
4.164	6.1291
4.144	6.1806
4.1242	6.2461
4.1046	6.2908
4.0852	6.3716
4.066	6.4341
4.047	6.5058
4.0281	6.5559
4.0094	6.6067
3.9909	6.6609
3.9725	6.7075
3.9544	6.7615
3.9363	6.8137
3.9185	6.8489
3.9008	6.8703
3.8833	6.8789
3.8659	6.884
3.8487	6.8967
3.8316	6.9145
3.8147	6.938
3.7979	6.9729
3.7813	7.0151
3.7648	7.0644
3.7485	7.1125
3.7323	7.1667
3.7162	7.2165
3.7003	7.2742
3.6845	7.323
3.6689	7.3728
3.6534	7.427
3.638	7.4724
3.6227	7.5044
3.6076	7.5366
3.5926	7.5808
3.5777	7.6208
3.563	7.6499
3.5484	7.686
3.5338	7.7263
3.5195	7.7468
3.5052	7.7742
3.491	7.8191
3.477	7.8459
3.463	7.8684
3.4492	7.8865
3.4355	7.894
3.4219	7.8989
3.4084	7.9238
3.395	7.9426
3.3817	7.9656
3.3685	7.9812
3.3554	7.9885
3.3425	8.0234
3.3296	8.0227
3.3168	8.0198
3.3041	8.0351
3.2915	8.0183
3.279	8.0325
3.2666	8.0178
3.2543	8.0168
3.2421	7.9968
3.23	7.9861
3.218	7.958
3.206	7.9463
3.1942	7.9377
3.1824	7.9104
3.1707	7.8742
3.1591	7.8459
3.1476	7.8269
3.1362	7.7893
3.1249	7.7436
3.1136	7.719
3.1024	7.6809
3.0913	7.6328
3.0803	7.5818
3.0694	7.5405
3.0585	7.5044
3.0477	7.4433
3.037	7.4065
3.0264	7.3601
3.0158	7.3008
3.0053	7.2344
2.9949	7.1963
2.9845	7.1421
2.9743	7.072
2.9641	7.0073
2.9539	6.9487
2.9439	6.8872
2.9339	6.8284
2.9239	6.7776
2.9141	6.7014
2.9043	6.6277
2.8946	6.5159
2.8849	6.415
2.8753	6.3442
2.8658	6.2783
2.8563	6.1626
2.8469	6.0725
2.8375	5.8511
2.8282	5.7932
2.819	5.7895
2.8098	5.8357
2.8007	5.865
2.7917	5.8879
2.7827	5.8987
2.7738	5.8965
2.7649	5.8601
2.7561	5.8091
2.7473	5.7561
2.7386	5.6997
2.7299	5.6474
2.7213	5.6252
2.7128	5.6062
2.7043	5.5686
2.6959	5.4875
2.6875	5.4409
2.6791	5.3586
2.6709	5.3262
2.6626	5.2624
2.6545	5.219
2.6463	5.1694
2.6382	5.1128
2.6302	5.051
2.6222	5.0122
2.6143	4.977
2.6064	4.8935
2.5986	4.8586
2.5908	4.8093
2.583	4.7612
2.5753	4.7312
2.5677	4.6753
2.5601	4.6604
2.5525	4.6006
2.545	4.5762
2.5375	4.5339
2.5301	4.4748
2.5227	4.4538
2.5154	4.4231
2.5081	4.3894
2.5008	4.3826
2.4936	4.3486
2.4864	4.2912
2.4793	4.2839
2.4722	4.27
2.4651	4.2573
2.4581	4.2353
2.4511	4.1938
2.4442	4.2007
2.4373	4.1704
2.4305	4.1616
2.4236	4.1592
2.4169	4.1426
2.4101	4.1435
2.4034	4.0823
2.3967	4.0752
2.3901	4.0796
2.3835	4.0432
2.377	4.0469
2.3704	4.031
2.364	4.0234
2.3575	4.0312
2.3511	4.0417
2.3447	4.0351
2.3384	4.0234
2.3321	4.0156
2.3258	4.0141
2.3195	3.9927
2.3133	4.0141
2.3071	4.0478
2.301	4.0273
2.2949	4.0254
2.2888	4.0293
2.2828	4.0215
2.2767	4.0259
2.2708	4.0185
2.2648	4.0425
2.2589	4.0205
2.253	4.0351
2.2471	4.0671
2.2413	4.0742
2.2355	4.0871
2.2297	4.083
2.224	4.0679
2.2183	4.0737
2.2126	4.1321
2.207	4.0747
2.2013	4.1116
2.1957	4.1352
2.1902	4.1282
2.1846	4.1453
2.1791	4.176
2.1736	4.1741
2.1682	4.2109
2.1628	4.1916
2.1574	4.1848
2.152	4.1924
2.1466	4.206
2.1413	4.2012
2.136	4.2041
2.1308	4.227
2.1255	4.2383
2.1203	4.2541
2.1151	4.2715
2.11	4.2668
2.1048	4.281
2.0997	4.2978
2.0946	4.3245
2.0895	4.3252
2.0845	4.3371
2.0795	4.3411
