Name: Vermiculite (Mg,Fe^2+,Al)_3(Al,Si)_4O_10(OH)_2.4H_2O
Type: Mineral
Class: Silicate
Subclass: Phyllosilicate
Particle Size: Coarse
Sample No.: PS-18A
Owner: JPL
Wavelength Range: TIR
Origin: USA, Texas, Llano County, Llano
Description: Particle size was 125-500um.Collected by Clay Mineral Society Original ASTER Spectral Library name was jpl.nicolet.mineral.silicate.phyllosilicate.coarse.ps18a.spectrum.txt
Measurement: Hemispherical reflectance
X Units: Wavelength (micrometers)
Y Units: Reflectance (percent)
wavelength	value
15.3853	4.2096
15.1161	3.7592
14.8563	4.088
14.6052	3.3421
14.3624	2.6136
14.1276	2.4462
13.9004	2.3025
13.6803	2.201
13.4671	2.4792
13.2604	2.0978
13.06	2.6366
12.8656	4.0733
12.6769	5.0393
12.4936	5.5287
12.3155	6.1904
12.1425	6.3746
11.9742	6.5785
11.8106	5.7657
11.6513	4.8697
11.4963	5.1077
11.3454	6.9849
11.1983	12.0789
11.0551	11.1566
10.9154	6.9057
10.7793	6.5312
10.6465	6.7406
10.5169	7.3111
10.3904	8.23
10.267	9.0118
10.1464	9.8449
10.0287	10.7828
9.9136	11.3314
9.8012	11.0014
9.6913	9.9653
9.5838	8.9298
9.4787	8.2185
9.3758	6.6277
9.2752	5.7015
9.1767	5.2522
9.0803	4.7825
8.9858	4.3517
8.8934	4.1463
8.8028	4.0373
8.714	4.2902
8.627	3.9849
8.5417	4.0095
8.4581	3.6757
8.3761	3.7726
8.2957	3.5985
8.2169	3.7811
8.1395	3.9208
8.0635	3.9333
7.989	3.9509
7.9158	4.1916
7.8439	4.3139
7.7734	4.414
7.7041	4.4166
7.636	4.5225
7.5691	4.7227
7.5034	4.7603
7.4388	5.1259
7.3753	5.3905
7.3129	5.6341
7.2515	6.1802
7.1912	6.9266
7.1318	8.1436
7.0734	9.6684
7.016	12.1284
6.9595	12.9367
6.9039	13.589
6.8492	13.8258
6.7953	14.2009
6.7423	15.7612
6.6901	16.5486
6.6387	16.588
6.5881	19.7586
6.5382	22.1193
6.4892	21.4055
6.4408	23.7965
6.3931	23.091
6.3462	19.5007
6.2999	16.9291
6.2543	9.58
6.2094	4.9701
6.1651	2.9999
6.1214	2.0523
6.0784	1.5957
6.0359	1.4289
5.994	1.3524
5.9527	1.2822
5.912	1.5253
5.8718	1.4441
5.8322	1.5619
5.7931	1.8073
5.7545	1.8935
5.7165	2.0742
5.6789	2.2364
5.6418	2.313
5.6052	2.385
5.5691	2.2893
5.5334	2.2762
5.4982	2.5129
5.4635	2.7039
5.4291	3.4708
5.3952	4.4793
5.3618	5.3307
5.3287	6.7812
5.2961	7.9574
5.2638	8.9309
5.2319	9.7076
5.2004	11.4857
5.1693	13.4456
5.1386	15.002
5.1082	15.7413
5.0782	15.231
5.0485	14.8947
5.0192	17.6043
4.9902	19.0571
4.9616	19.7049
4.9332	20.1521
4.9052	20.3928
4.8776	20.8914
4.8502	21.2808
4.8231	21.578
4.7963	21.6691
4.7699	21.6842
4.7437	21.3518
4.7178	20.5534
4.6922	19.0476
4.6668	17.1473
4.6418	15.294
4.617	13.7161
4.5924	13.3373
4.5681	13.9998
4.5441	15.2028
4.5203	16.6088
4.4968	17.9538
4.4735	18.7483
4.4505	18.3296
4.4277	18.6489
4.4051	19.3489
4.3828	20.2314
4.3607	21.0259
4.3388	21.2762
4.3171	20.7905
4.2956	20.838
4.2744	20.9784
4.2534	21.7053
4.2325	22.0207
4.2119	22.6394
4.1915	23.1041
4.1712	22.6978
4.1512	22.053
4.1313	21.5434
4.1117	20.9596
4.0922	20.0238
4.0729	18.4513
4.0538	16.1735
4.0349	13.0712
4.0161	9.8027
3.9976	7.2279
3.9792	5.8897
3.9609	5.3668
3.9428	5.4794
3.9249	5.5617
3.9072	5.8513
3.8896	6.1137
3.8722	6.5396
3.8549	6.6382
3.8378	7.1115
3.8208	7.1006
3.804	7.0592
3.7873	8.0248
3.7708	9.109
3.7544	11.0407
3.7382	13.6207
3.7221	16.7935
3.7061	20.192
3.6903	21.5233
3.6746	21.9818
3.659	22.2262
3.6436	22.0039
3.6283	21.5903
3.6131	21.107
3.5981	20.6134
3.5832	19.8146
3.5684	18.6589
3.5537	16.9535
3.5391	15.2272
3.5247	12.2046
3.5104	10.9801
3.4962	7.9278
3.4821	5.7055
3.4681	5.0542
3.4543	4.8486
3.4405	4.7026
3.4269	4.7328
3.4133	4.6861
3.3999	4.9863
3.3866	4.9866
3.3733	4.9289
3.3602	4.8079
3.3472	4.6309
3.3343	4.4928
3.3215	4.6103
3.3088	4.5558
3.2961	4.9619
3.2836	5.3957
3.2712	5.7245
3.2588	6.4642
3.2466	9.3283
3.2345	10.0919
3.2224	10.2372
3.2104	10.2244
3.1985	10.0851
3.1867	10.0538
3.175	9.9026
3.1634	9.6578
3.1519	9.6301
3.1404	9.2221
3.129	8.9299
3.1178	8.8436
3.1065	8.5422
3.0954	8.6074
3.0844	8.3759
3.0734	8.3396
3.0625	8.2498
3.0517	8.2866
3.041	8.3453
3.0303	8.3345
3.0197	8.4208
3.0092	8.4888
2.9987	8.4999
2.9884	8.6246
2.9781	8.4909
2.9678	8.4049
2.9577	8.2936
2.9476	8.2181
2.9376	8.5774
2.9276	8.415
2.9177	8.8284
2.9079	8.6735
2.8982	8.942
2.8885	8.7582
2.8789	8.9606
2.8693	8.9969
2.8598	9.148
2.8504	9.2666
2.841	9.3943
2.8317	9.2036
2.8224	9.1358
2.8133	9.2033
2.8041	9.2027
2.7951	9.3724
2.786	9.5239
2.7771	9.5066
2.7682	9.2854
2.7594	9.5558
2.7506	9.6641
2.7418	9.6033
2.7332	10.5631
2.7246	10.0763
2.716	9.7955
2.7075	10.4617
2.699	14.0433
2.6906	20.192
2.6823	25.198
2.674	30.1319
2.6657	31.039
2.6575	34.6791
2.6494	36.2172
2.6413	37.6117
2.6332	38.0982
2.6252	38.8558
2.6173	37.7123
2.6094	38.8636
2.6015	38.9631
2.5937	37.1055
2.5859	38.57
2.5782	38.5676
2.5706	37.7555
2.5629	36.542
2.5554	37.4595
2.5478	36.6071
2.5403	35.5834
2.5329	33.5318
2.5255	31.3614
2.5181	29.8459
2.5108	29.6021
2.5035	29.3631
2.4963	30.1444
2.4891	31.6729
2.482	32.8086
2.4749	33.5856
2.4678	34.6407
2.4608	35.0645
2.4538	35.4677
2.4468	36.7317
2.4399	37.7954
2.4331	38.8122
2.4262	40.0942
2.4194	41.6051
2.4127	42.6775
2.4059	43.2138
2.3993	43.7808
2.3926	44.2972
2.386	45.1166
2.3795	45.8328
2.3729	47.6078
2.3664	48.7543
2.36	49.381
2.3535	48.7619
2.3471	46.4208
2.3408	43.0143
2.3345	40.4059
2.3282	38.3907
2.3219	37.5651
2.3157	37.8548
2.3095	39.1632
2.3034	40.9736
2.2972	42.2774
2.2911	43.4466
2.2851	45.4674
2.279	46.8298
2.2731	47.3143
2.2671	48.636
2.2612	50.9752
2.2553	51.4635
2.2494	51.8065
2.2435	52.8171
2.2377	55.1493
2.232	57.8175
2.2262	59.8274
2.2205	60.8493
2.2148	61.4668
2.2091	62.227
2.2035	62.9711
2.1979	63.3255
2.1923	63.646
2.1868	63.855
2.1812	63.6821
2.1758	63.9645
2.1703	63.8728
2.1649	63.4809
2.1595	63.2026
2.1541	62.9477
2.1487	62.7023
2.1434	61.8272
2.1381	61.1559
2.1328	60.4801
2.1275	60.8271
2.1223	60.7476
2.1171	60.8884
2.112	60.4071
2.1068	60.3557
2.1017	60.5749
2.0966	60.2201
2.0915	59.8895
2.0865	60.3171
2.0814	60.6892
2.0764	60.9071
2.0715	60.9682
2.0665	61.0755
2.0616	61.0101
2.0567	60.4806
2.0518	60.2752
2.0469	59.8723
2.0421	59.4462
2.0373	59.1001
2.0325	58.9875
2.0277	58.5371
2.0229	58.0404
2.0182	57.4595
2.0135	57.5263
2.0088	57.037
2.0042	56.6323
