Name: Grossular Ca3Al2(Si04)3
Type: Mineral
Class: Silicate
Subclass: Nesosilicate
Particle Size: Coarse
Sample No.: grossul_2
Owner: JHU
Wavelength Range: TIR
Origin: Sample from Pear Gillis Farm, Beach Glen, Buncombe Co.,North Carolina via the Smithsonian (sample no. NMNH 155371).
Description: The sample was a spherical cluster of small crystals about 1.5 cm in diameter.  Green interstitial material, probably diopside, occurred between many small brown euhedral crystals of grossular, which were hand-picked from the crushed sample.  Under the petrographic microscope, a very small amount of alteration of grossular crystals was seen. Particle size was 74-250 Micrometers. (Isolated Tetrahedra); Garnet Group Original ASTER Spectral Library name was jhu.nicolet.mineral.silicate.nesosilicate.coarse.grossu2.spectrum.txt
Measurement: Bidirectional reflectance
X Units: Wavelength (micrometers)
Y Units: Reflectance (percent)
wavelength	value
25.0442	3.137
24.3388	3.5727
23.6719	5.2617
23.0407	7.6694
22.4422	8.1096
21.8741	7.4968
21.334	7.7095
20.8199	8.1594
20.33	7.5488
19.8627	6.9321
19.4163	5.0469
18.9896	1.9365
18.5812	4.3896
18.19	6.1003
17.815	5.1379
17.4551	2.9578
17.1094	0.8423
16.7772	0.4221
16.4576	0.8811
16.15	0.9084
15.8537	0.4358
15.568	0.6619
15.2925	0.8118
15.0265	0.9387
14.7697	1.0559
14.5214	1.1301
14.2814	1.2581
14.0492	1.366
13.8244	1.448
13.6067	1.5737
13.3957	1.6843
13.1912	1.8113
12.9929	1.929
12.8004	2.1311
12.6135	2.4302
12.432	2.8198
12.2557	3.4221
12.0843	4.6177
11.9176	5.7029
11.7555	5.1516
11.5977	6.4575
11.444	4.9526
11.2944	2.1467
11.1487	2.6377
11.0067	5.9128
10.8682	8.0054
10.7332	8.6506
10.6015	9.0053
10.473	9.2719
10.3476	9.2771
10.2251	9.1255
10.1056	8.7756
9.9887	7.8318
9.8746	6.7412
9.763	5.1814
9.6539	3.5413
9.5472	1.9468
9.4429	0.6074
9.3408	0.0742
9.2409	0.0874
9.1431	0.1633
9.0474	0.2554
8.9536	0.3169
8.8618	0.3677
8.7718	0.4219
8.6837	0.481
8.5973	0.5454
8.5126	0.5908
8.4295	0.6216
8.3481	0.647
8.2682	0.6919
8.1898	0.7456
8.1129	0.7827
8.0374	0.843
7.9634	0.8774
7.8906	0.9314
7.8192	0.9712
7.7491	0.9873
7.6802	1.0007
7.6126	0.9983
7.5461	0.9839
7.4807	0.9949
7.4165	1.0466
7.3534	1.0928
7.2914	1.1457
7.2303	1.2029
7.1703	1.2007
7.1113	1.2051
7.0533	1.2622
6.9962	1.3206
6.94	1.3904
6.8847	1.5486
6.8302	1.7754
6.7767	1.978
6.7239	2.1023
6.672	2.2307
6.6209	2.3989
6.5705	2.6133
6.5209	2.8516
6.4721	3.0073
6.424	3.0154
6.3766	2.9932
6.3299	2.9521
6.2838	2.8943
6.2385	2.7832
6.1937	2.4795
6.1496	2.0579
6.1062	1.6033
6.0633	1.279
6.0211	1.1133
5.9794	1.0237
5.9383	0.9648
5.8978	0.9468
5.8578	0.9585
5.8184	0.9792
5.7794	1.0137
5.741	1.0708
5.7031	1.1387
5.6657	1.2393
5.6288	1.3276
5.5924	1.376
5.5564	1.4131
5.5209	1.4487
5.4859	1.4233
5.4513	1.4404
5.4171	1.5793
5.3833	1.7446
5.35	1.9431
5.3171	2.2253
5.2846	2.7986
5.2524	3.4831
5.2207	3.946
5.1893	4.1872
5.1584	4.3596
5.1277	4.5161
5.0975	4.6816
5.0676	4.729
5.038	4.7524
5.0088	4.8391
4.98	5.0005
4.9514	5.112
4.9232	5.177
4.8953	5.2278
4.8678	5.2546
4.8405	5.2995
4.8135	5.3332
4.7868	5.3533
4.7605	5.3794
4.7344	5.4057
4.7086	5.4099
4.6831	5.415
4.6578	5.4211
4.6328	5.4153
4.6081	5.4209
4.5837	5.4328
4.5595	5.4419
4.5356	5.4543
4.5119	5.4617
4.4884	5.4636
4.4652	5.4812
4.4423	5.499
4.4196	5.5137
4.3971	5.5344
4.3748	5.563
4.3528	5.582
4.331	5.603
4.3094	5.6384
4.288	5.6658
4.2668	5.7126
4.2458	5.7541
4.2251	5.7888
4.2045	5.8332
4.1841	5.8674
4.164	5.9011
4.144	5.9192
4.1242	5.9468
4.1046	5.9426
4.0852	5.9226
4.066	5.8826
4.047	5.8354
4.0281	5.7873
4.0094	5.7446
3.9909	5.7141
3.9725	5.7109
3.9544	5.7456
3.9363	5.8093
3.9185	5.8662
3.9008	5.9292
3.8833	5.9895
3.8659	6.0415
3.8487	6.1042
3.8316	6.1521
3.8147	6.2051
3.7979	6.237
3.7813	6.2771
3.7648	6.3147
3.7485	6.3501
3.7323	6.3789
3.7162	6.4197
3.7003	6.4592
3.6845	6.5051
3.6689	6.5481
3.6534	6.5925
3.638	6.6338
3.6227	6.6584
3.6076	6.6943
3.5926	6.7278
3.5777	6.7397
3.563	6.7593
3.5484	6.768
3.5338	6.78
3.5195	6.7778
3.5052	6.76
3.491	6.77
3.477	6.7756
3.463	6.7932
3.4492	6.7798
3.4355	6.7737
3.4219	6.7397
3.4084	6.7424
3.395	6.7585
3.3817	6.7373
3.3685	6.728
3.3554	6.7214
3.3425	6.7265
3.3296	6.7102
3.3168	6.6889
3.3041	6.6692
3.2915	6.636
3.279	6.5993
3.2666	6.5818
3.2543	6.5554
3.2421	6.5288
3.23	6.4829
3.218	6.4429
3.206	6.3943
3.1942	6.3525
3.1824	6.3159
3.1707	6.2771
3.1591	6.2368
3.1476	6.1824
3.1362	6.1411
3.1249	6.0806
3.1136	6.0471
3.1024	6.0112
3.0913	5.9717
3.0803	5.9419
3.0694	5.915
3.0585	5.8904
3.0477	5.8716
3.037	5.8469
3.0264	5.8293
3.0158	5.7754
3.0053	5.75
2.9949	5.6951
2.9845	5.6543
2.9743	5.6047
2.9641	5.5574
2.9539	5.5168
2.9439	5.49
2.9339	5.4805
2.9239	5.4651
2.9141	5.4451
2.9043	5.4267
2.8946	5.3684
2.8849	5.2829
2.8753	5.1929
2.8658	5.1267
2.8563	5.0205
2.8469	4.4736
2.8375	3.4448
2.8282	2.4167
2.819	1.9761
2.8098	2.2312
2.8007	1.8748
2.7917	2.1235
2.7827	1.7593
2.7738	1.4258
2.7649	1.9145
2.7561	1.9834
2.7473	1.2515
2.7386	1.8237
2.7299	2.3437
2.7213	2.8061
2.7128	2.9402
2.7043	5.9053
2.6959	6.3691
2.6875	6.612
2.6791	6.6748
2.6709	6.7026
2.6626	6.77
2.6545	6.7905
2.6463	6.7917
2.6382	6.7866
2.6302	6.7593
2.6222	6.8052
2.6143	6.8017
2.6064	6.7995
2.5986	6.8315
2.5908	6.8723
2.583	6.8281
2.5753	6.8479
2.5677	6.8464
2.5601	6.8498
2.5525	6.8215
2.545	6.8249
2.5375	6.8291
2.5301	6.8042
2.5227	6.7937
2.5154	6.7788
2.5081	6.8061
2.5008	6.7793
2.4936	6.7705
2.4864	6.8013
2.4793	6.8481
2.4722	6.8623
2.4651	6.8955
2.4581	6.9331
2.4511	6.9097
2.4442	6.9079
2.4373	6.9438
2.4305	6.9404
2.4236	6.9382
2.4169	6.9995
2.4101	6.9975
2.4034	6.998
2.3967	7.0093
2.3901	6.8506
2.3835	6.8213
2.377	6.822
2.3704	6.7817
2.364	6.7607
2.3575	6.7991
2.3511	6.895
2.3447	6.957
2.3384	7.0093
2.3321	7.083
2.3258	7.166
2.3195	7.2314
2.3133	7.2712
2.3071	7.2947
2.301	7.3071
2.2949	7.312
2.2888	7.2803
2.2828	7.2954
2.2767	7.2925
2.2708	7.2627
2.2648	7.2114
2.2589	7.1831
2.253	7.2539
2.2471	7.3003
2.2413	7.3388
2.2355	7.373
2.2297	7.4267
2.224	7.4399
2.2183	7.4775
2.2126	7.4736
2.207	7.4346
2.2013	7.4619
2.1957	7.5068
2.1902	7.5552
2.1846	7.5691
2.1791	7.6015
2.1736	7.6284
2.1682	7.6665
2.1628	7.6972
2.1574	7.6738
2.152	7.6865
2.1466	7.7065
2.1413	7.7258
2.136	7.7546
2.1308	7.7385
2.1255	7.7656
2.1203	7.7217
2.1151	7.7505
2.11	7.7734
2.1048	7.7759
2.0997	7.7571
2.0946	7.7825
2.0895	7.8064
2.0845	7.7676
2.0795	7.7595
