Name: Olivine (Fo92) (Fe+2,Mg)2SiO4
Type: Mineral
Class: Silicate
Subclass: Nesosilicate
Particle Size: Solid
Sample No.: olivine_12
Owner: JHU
Wavelength Range: TIR
Origin: Ward's Natural Science Establishment.
Description: The hand sample consisted of small, translucent green beads of green olivine a few millimeters in diameter.  Under the microscope, the sample appeared to be pure forsterite.(Isolated tetrahedra); (Olivine Group) Original ASTER Spectral Library name was jhu.nicolet.mineral.silicate.nesosilicate.solid.olivi12.spectrum.txt
Measurement: Bidirectional reflectance
X Units: Wavelength (micrometers)
Y Units: Reflectance (percent)
wavelength	value
25.0442	30.3837
24.3388	36.4926
23.6719	41.4315
23.0407	33.8178
22.4422	26.5168
21.8741	24.2197
21.334	20.0383
20.8199	11.9839
20.33	12.2951
19.8627	22.2309
19.4163	21.6313
18.9896	29.5014
18.5812	26.6742
18.19	24.8239
17.815	19.5405
17.4551	14.3208
17.1094	10.289
16.7772	10.1665
16.4576	13.4843
16.15	15.8203
15.8537	15.5637
15.568	12.2527
15.2925	6.9084
15.0265	4.5298
14.7697	4.3555
14.5214	4.6504
14.2814	5.0046
14.0492	5.404
13.8244	5.7798
13.6067	6.1972
13.3957	6.6958
13.1912	7.1538
12.9929	7.6826
12.8004	8.2705
12.6135	8.9795
12.432	9.8442
12.2557	11.008
12.0843	12.8772
11.9176	14.3659
11.7555	11.948
11.5977	16.3798
11.444	22.5659
11.2944	26.8346
11.1487	28.9223
11.0067	29.8036
10.8682	30.5514
10.7332	31.5216
10.6015	33.2611
10.473	35.2126
10.3476	22.6552
10.2251	22.9186
10.1056	28.757
9.9887	26.5876
9.8746	28.6286
9.763	27.8783
9.6539	25.5705
9.5472	23.507
9.4429	22.3139
9.3408	20.663
9.2409	14.2558
9.1431	8.6155
9.0474	4.686
8.9536	2.606
8.8618	2.0269
8.7718	2.0061
8.6837	2.0989
8.5973	2.241
8.5126	2.406
8.4295	2.5447
8.3481	2.6848
8.2682	2.8264
8.1898	2.9497
8.1129	3.0554
8.0374	3.1562
7.9634	3.2471
7.8906	3.3442
7.8192	3.4241
7.7491	3.4905
7.6802	3.5627
7.6126	3.6182
7.5461	3.6836
7.4807	3.7375
7.4165	3.8125
7.3534	3.8694
7.2914	3.925
7.2303	3.9814
7.1703	4.0437
7.1113	4.0881
7.0533	4.1433
6.9962	4.1785
6.94	4.2146
6.8847	4.2656
6.8302	4.2888
6.7767	4.3174
6.7239	4.3367
6.672	4.3745
6.6209	4.4058
6.5705	4.438
6.5209	4.4932
6.4721	4.5322
6.424	4.5608
6.3766	4.603
6.3299	4.6496
6.2838	4.689
6.2385	4.7029
6.1937	4.7151
6.1496	4.7285
6.1062	4.7327
6.0633	4.77
6.0211	4.7659
5.9794	4.7629
5.9383	4.7493
5.8978	4.7617
5.8578	4.7864
5.8184	4.7793
5.7794	4.8066
5.741	4.8215
5.7031	4.833
5.6657	4.8777
5.6288	4.9026
5.5924	4.9248
5.5564	4.947
5.5209	4.9621
5.4859	4.9768
5.4513	4.9873
5.4171	4.9914
5.3833	5.0181
5.35	5.0195
5.3171	5.0432
5.2846	5.0493
5.2524	5.0659
5.2207	5.0776
5.1893	5.0857
5.1584	5.0967
5.1277	5.1077
5.0975	5.1106
5.0676	5.1201
5.038	5.1308
5.0088	5.1409
4.98	5.157
4.9514	5.1555
4.9232	5.1643
4.8953	5.1755
4.8678	5.1789
4.8405	5.1916
4.8135	5.197
4.7868	5.2163
4.7605	5.2314
4.7344	5.2407
4.7086	5.248
4.6831	5.2539
4.6578	5.2727
4.6328	5.2815
4.6081	5.3047
4.5837	5.3039
4.5595	5.3174
4.5356	5.3298
4.5119	5.3291
4.4884	5.3328
4.4652	5.3462
4.4423	5.3572
4.4196	5.3545
4.3971	5.3586
4.3748	5.3572
4.3528	5.3703
4.331	5.3747
4.3094	5.3677
4.288	5.3752
4.2668	5.383
4.2458	5.3828
4.2251	5.3996
4.2045	5.3872
4.1841	5.4187
4.164	5.4097
4.144	5.4165
4.1242	5.418
4.1046	5.4263
4.0852	5.4309
4.066	5.4309
4.047	5.447
4.0281	5.4448
4.0094	5.4595
3.9909	5.4563
3.9725	5.4595
3.9544	5.4519
3.9363	5.468
3.9185	5.4751
3.9008	5.4785
3.8833	5.4761
3.8659	5.4714
3.8487	5.468
3.8316	5.4836
3.8147	5.4761
3.7979	5.4792
3.7813	5.48
3.7648	5.4878
3.7485	5.4851
3.7323	5.487
3.7162	5.491
3.7003	5.4858
3.6845	5.4897
3.6689	5.491
3.6534	5.4995
3.638	5.4997
3.6227	5.5049
3.6076	5.5105
3.5926	5.49
3.5777	5.5129
3.563	5.5156
3.5484	5.5132
3.5338	5.5149
3.5195	5.5312
3.5052	5.5566
3.491	5.5271
3.477	5.5239
3.463	5.5305
3.4492	5.5339
3.4355	5.5454
3.4219	5.6123
3.4084	5.5478
3.395	5.5198
3.3817	5.5095
3.3685	5.4927
3.3554	5.4805
3.3425	5.4834
3.3296	5.4822
3.3168	5.4924
3.3041	5.4944
3.2915	5.5012
3.279	5.4985
3.2666	5.4973
3.2543	5.5007
3.2421	5.5002
3.23	5.5007
3.218	5.4958
3.206	5.4968
3.1942	5.5068
3.1824	5.5012
3.1707	5.5078
3.1591	5.5063
3.1476	5.4997
3.1362	5.4912
3.1249	5.5046
3.1136	5.4844
3.1024	5.4888
3.0913	5.4856
3.0803	5.4924
3.0694	5.4714
3.0585	5.4692
3.0477	5.4734
3.037	5.4753
3.0264	5.4665
3.0158	5.4448
3.0053	5.4368
2.9949	5.438
2.9845	5.4531
2.9743	5.439
2.9641	5.4404
2.9539	5.426
2.9439	5.4311
2.9339	5.4324
2.9239	5.4043
2.9141	5.4028
2.9043	5.404
2.8946	5.3989
2.8849	5.3989
2.8753	5.3977
2.8658	5.3716
2.8563	5.383
2.8469	5.3818
2.8375	5.3662
2.8282	5.3579
2.819	5.3623
2.8098	5.3306
2.8007	5.3332
2.7917	5.3364
2.7827	5.3227
2.7738	5.3188
2.7649	5.2942
2.7561	5.2786
2.7473	5.3061
2.7386	5.2856
2.7299	5.2922
2.7213	5.2637
2.7128	5.2812
2.7043	5.2524
2.6959	5.2441
2.6875	5.2388
2.6791	5.2314
2.6709	5.2329
2.6626	5.2388
2.6545	5.2224
2.6463	5.2451
2.6382	5.2173
2.6302	5.2056
2.6222	5.2261
2.6143	5.2163
2.6064	5.1987
2.5986	5.2046
2.5908	5.1963
2.583	5.1865
2.5753	5.1745
2.5677	5.1909
2.5601	5.1653
2.5525	5.1814
2.545	5.1846
2.5375	5.187
2.5301	5.1631
2.5227	5.1587
2.5154	5.1728
2.5081	5.1592
2.5008	5.1645
2.4936	5.1658
2.4864	5.1416
2.4793	5.1369
2.4722	5.1272
2.4651	5.1118
2.4581	5.1203
2.4511	5.1157
2.4442	5.1108
2.4373	5.1216
2.4305	5.1225
2.4236	5.1182
2.4169	5.0891
2.4101	5.1152
2.4034	5.0908
2.3967	5.0854
2.3901	5.0784
2.3835	5.0786
2.377	5.0979
2.3704	5.082
2.364	5.0757
2.3575	5.0552
2.3511	5.0752
2.3447	5.093
2.3384	5.0776
2.3321	5.0713
2.3258	5.0644
2.3195	5.0823
2.3133	5.0859
2.3071	5.0549
2.301	5.0644
2.2949	5.0752
2.2888	5.0871
2.2828	5.0891
2.2767	5.0742
2.2708	5.0683
2.2648	5.0852
2.2589	5.0654
2.253	5.0823
2.2471	5.1064
2.2413	5.0869
2.2355	5.0676
2.2297	5.1055
2.224	5.0871
2.2183	5.1037
2.2126	5.1035
2.207	5.0884
2.2013	5.0918
2.1957	5.1167
2.1902	5.1318
2.1846	5.1172
2.1791	5.1059
2.1736	5.1162
2.1682	5.1382
2.1628	5.1372
2.1574	5.1138
2.152	5.1015
2.1466	5.0972
2.1413	5.1308
2.136	5.1133
2.1308	5.0996
2.1255	5.1182
2.1203	5.1411
2.1151	5.082
2.11	5.1831
2.1048	5.1079
2.0997	5.1079
2.0946	5.1719
2.0895	5.1875
2.0845	5.1841
2.0795	5.1416
