Name: Magnetite Fe^2+Fe_2^3+O_4
Type: Mineral
Class: Oxide
Subclass: None
Particle Size: Coarse
Sample No.: O-4A
Owner: JPL
Wavelength Range: TIR
Origin: Canada, Ontario, Haliburton County, Wilberforce
Description: Particle size was 125-500um.Collected by Ward's Original ASTER Spectral Library name was jpl.nicolet.mineral.oxide.none.coarse.o04a.spectrum.txt
Measurement: Hemispherical reflectance
X Units: Wavelength (micrometers)
Y Units: Reflectance (percent)
wavelength	value
15.3853	20.6884
15.1161	20.4237
14.8563	20.2977
14.6052	19.8894
14.3624	19.692
14.1276	19.1361
13.9004	18.4664
13.6803	18.0895
13.4671	17.3256
13.2604	17.0807
13.06	16.557
12.8656	16.4738
12.6769	16.3519
12.4936	16.1545
12.3155	16.1523
12.1425	16.1889
11.9742	15.9788
11.8106	15.8757
11.6513	15.9019
11.4963	15.8871
11.3454	16.0482
11.1983	15.9392
11.0551	16.0728
10.9154	16.0604
10.7793	15.83
10.6465	15.9453
10.5169	16.0466
10.3904	15.8018
10.267	16.0747
10.1464	16.1211
10.0287	16.222
9.9136	16.4991
9.8012	16.7867
9.6913	16.7061
9.5838	16.7418
9.4787	16.7822
9.3758	16.5557
9.2752	16.8098
9.1767	16.6401
9.0803	16.4281
8.9858	16.5414
8.8934	16.5483
8.8028	16.5749
8.714	16.3991
8.627	16.3789
8.5417	16.3661
8.4581	16.2435
8.3761	16.3666
8.2957	16.1698
8.2169	16.1584
8.1395	16.141
8.0635	16.0871
7.989	16.016
7.9158	16.1444
7.8439	15.9942
7.7734	16.0138
7.7041	16.0589
7.636	15.9527
7.5691	15.969
7.5034	15.9558
7.4388	15.9815
7.3753	15.9649
7.3129	16.0495
7.2515	15.9153
7.1912	15.9607
7.1318	16.0423
7.0734	16.0017
7.016	16.0067
6.9595	16.0279
6.9039	15.9802
6.8492	15.9754
6.7953	15.9816
6.7423	15.7802
6.6901	15.6829
6.6387	16.1407
6.5881	15.8133
6.5382	15.7587
6.4892	16.0801
6.4408	15.7394
6.3931	15.7616
6.3462	15.9195
6.2999	15.626
6.2543	15.7018
6.2094	15.6396
6.1651	15.7508
6.1214	15.7208
6.0784	15.7623
6.0359	15.6626
5.994	15.6277
5.9527	15.5657
5.912	15.5489
5.8718	15.4667
5.8322	15.5588
5.7931	15.4546
5.7545	15.4832
5.7165	15.3866
5.6789	15.3571
5.6418	15.4032
5.6052	15.2464
5.5691	15.2992
5.5334	15.3105
5.4982	15.1268
5.4635	15.157
5.4291	15.0899
5.3952	15.1484
5.3618	14.9928
5.3287	15.0408
5.2961	15.0838
5.2638	14.9848
5.2319	15.0327
5.2004	15.0835
5.1693	15.0358
5.1386	14.9921
5.1082	15.0402
5.0782	14.9602
5.0485	14.9279
5.0192	14.8472
4.9902	14.8699
4.9616	14.9019
4.9332	14.9394
4.9052	14.8653
4.8776	14.8531
4.8502	14.8554
4.8231	14.8317
4.7963	14.7528
4.7699	14.6862
4.7437	14.7612
4.7178	14.7131
4.6922	14.6949
4.6668	14.7345
4.6418	14.7329
4.617	14.6905
4.5924	14.6939
4.5681	14.6872
4.5441	14.6862
4.5203	14.5906
4.4968	14.637
4.4735	14.5646
4.4505	14.5435
4.4277	14.5702
4.4051	14.5266
4.3828	14.5636
4.3607	14.4544
4.3388	14.4283
4.3171	14.4095
4.2956	14.3196
4.2744	14.2531
4.2534	14.3276
4.2325	14.2589
4.2119	14.3885
4.1915	14.3881
4.1712	14.3706
4.1512	14.3627
4.1313	14.3498
4.1117	14.3863
4.0922	14.3518
4.0729	14.2987
4.0538	14.3033
4.0349	14.2487
4.0161	14.2194
3.9976	14.2131
3.9792	14.3063
3.9609	14.2776
3.9428	14.2627
3.9249	14.1077
3.9072	14.2048
3.8896	14.1209
3.8722	14.1725
3.8549	14.094
3.8378	14.1047
3.8208	14.0168
3.804	14.0084
3.7873	14.0752
3.7708	14.0287
3.7544	14.0083
3.7382	13.989
3.7221	14.193
3.7061	13.9057
3.6903	14.0204
3.6746	13.9223
3.659	13.8649
3.6436	14.0096
3.6283	13.9393
3.6131	13.9425
3.5981	13.833
3.5832	13.8533
3.5684	13.8945
3.5537	13.8239
3.5391	13.8817
3.5247	13.7861
3.5104	13.9387
3.4962	13.7834
3.4821	13.9231
3.4681	13.8433
3.4543	13.7855
3.4405	13.8554
3.4269	13.7387
3.4133	13.7519
3.3999	13.8069
3.3866	13.5876
3.3733	13.5995
3.3602	13.6563
3.3472	13.6234
3.3343	13.714
3.3215	13.6199
3.3088	13.5665
3.2961	13.641
3.2836	13.568
3.2712	13.5107
3.2588	13.3652
3.2466	13.5184
3.2345	13.4055
3.2224	13.4512
3.2104	13.5569
3.1985	13.4064
3.1867	13.4736
3.175	13.4596
3.1634	13.3828
3.1519	13.2722
3.1404	13.4636
3.129	13.4377
3.1178	13.3577
3.1065	13.3744
3.0954	13.44
3.0844	13.3186
3.0734	13.3957
3.0625	13.3271
3.0517	13.3867
3.041	13.2792
3.0303	13.3542
3.0197	13.1786
3.0092	13.261
2.9987	13.3361
2.9884	13.3374
2.9781	13.2241
2.9678	13.2538
2.9577	13.248
2.9476	13.1372
2.9376	13.3767
2.9276	13.195
2.9177	13.1162
2.9079	13.1342
2.8982	13.1474
2.8885	13.0198
2.8789	13.0496
2.8693	13.0651
2.8598	13.0546
2.8504	13.1997
2.841	13.0763
2.8317	13.0378
2.8224	12.8211
2.8133	13.175
2.8041	12.9414
2.7951	12.9072
2.786	12.8684
2.7771	12.5218
2.7682	13.073
2.7594	12.8556
2.7506	12.8466
2.7418	13.0214
2.7332	12.8525
2.7246	13.0811
2.716	12.948
2.7075	12.8868
2.699	12.7554
2.6906	12.8105
2.6823	12.8572
2.674	12.7217
2.6657	13.0009
2.6575	12.7127
2.6494	12.7044
2.6413	12.7012
2.6332	12.6245
2.6252	12.7514
2.6173	12.995
2.6094	12.745
2.6015	12.5856
2.5937	12.853
2.5859	12.7452
2.5782	12.5268
2.5706	12.5909
2.5629	12.6312
2.5554	12.3194
2.5478	12.4982
2.5403	12.4298
2.5329	12.4673
2.5255	12.4197
2.5181	12.4955
2.5108	12.393
2.5035	12.319
2.4963	12.2841
2.4891	12.3583
2.482	12.3464
2.4749	12.2873
2.4678	12.2353
2.4608	12.1478
2.4538	12.383
2.4468	12.2624
2.4399	12.2921
2.4331	12.0993
2.4262	12.072
2.4194	12.4268
2.4127	12.0384
2.4059	12.212
2.3993	12.1972
2.3926	12.1311
2.386	12.0955
2.3795	12.2594
2.3729	12.0138
2.3664	12.2123
2.36	11.9308
2.3535	12.2793
2.3471	11.7899
2.3408	12.2117
2.3345	12.0095
2.3282	12.0994
2.3219	11.8645
2.3157	11.8079
2.3095	11.9541
2.3034	11.9056
2.2972	11.9846
2.2911	12.0085
2.2851	11.9521
2.279	11.8132
2.2731	11.9289
2.2671	11.9391
2.2612	11.8055
2.2553	11.8633
2.2494	11.6868
2.2435	11.9753
2.2377	11.6327
2.232	11.6722
2.2262	11.6531
2.2205	11.7549
2.2148	11.7764
2.2091	11.8017
2.2035	11.505
2.1979	11.6028
2.1923	11.5139
2.1868	11.6018
2.1812	11.5823
2.1758	11.6185
2.1703	11.4776
2.1649	11.4339
2.1595	11.5418
2.1541	11.5585
2.1487	11.5155
2.1434	11.4854
2.1381	11.2753
2.1328	11.4883
2.1275	11.1134
2.1223	11.6482
2.1171	11.2847
2.112	11.1992
2.1068	11.2472
2.1017	11.2948
2.0966	11.7295
2.0915	11.0792
2.0865	11.289
2.0814	11.1003
2.0764	11.4009
2.0715	11.3316
2.0665	10.8654
2.0616	11.2615
2.0567	11.3273
2.0518	11.018
2.0469	11.0972
2.0421	11.1389
2.0373	11.6006
2.0325	11.2506
2.0277	10.8031
2.0229	10.9039
2.0182	11.2207
2.0135	11.2611
2.0088	11.0338
2.0042	11.3367
