Name: Triphylite Li(Mn,Fe)PO_4
Type: Mineral
Class: Phosphate
Subclass: None
Particle Size: Fine
Sample No.: P-4A
Owner: JPL
Wavelength Range: VSWIR
Origin: USA, New Hampshire, North Graton, Palermo Mine.
Description: Particle size was 0-45um.Collected by:  Burminco Original ASTER Spectral Library name was jpl.perkin.mineral.phosphate.none.fine.p04a.spectrum.txt
Measurement: Hemispherical reflectance
X Units: Wavelength (micrometers)
Y Units: Reflectance (percent)
wavelength	value
2.5	78.5065
2.494	78.6398
2.488	78.6494
2.482	78.7565
2.476	78.998
2.47	79.1585
2.464	79.317
2.458	79.3784
2.452	79.3842
2.446	79.4987
2.44	79.7417
2.434	79.7637
2.428	79.805
2.422	80.026
2.416	80.0224
2.41	80.1238
2.404	80.3146
2.398	80.3378
2.392	80.5519
2.386	80.6672
2.38	80.8359
2.374	80.912
2.368	81.0054
2.362	81.1837
2.356	81.237
2.35	81.3588
2.344	81.4569
2.338	81.4479
2.332	81.5211
2.326	81.4673
2.32	81.4671
2.314	81.4675
2.308	81.4746
2.302	81.4292
2.296	81.4736
2.29	81.4368
2.284	81.4068
2.278	81.4406
2.272	81.3731
2.266	81.4083
2.26	81.3023
2.254	81.3694
2.248	81.3202
2.242	81.3455
2.236	81.4286
2.23	81.3684
2.224	81.4859
2.218	81.5633
2.212	81.5263
2.206	81.6939
2.2	81.8067
2.194	81.752
2.188	81.923
2.182	81.8848
2.176	82
2.17	82.158
2.164	82.2156
2.158	82.2624
2.152	82.3645
2.146	82.2993
2.14	82.2004
2.134	81.9997
2.128	81.8804
2.122	81.4984
2.116	81.1928
2.11	80.7855
2.104	80.5054
2.098	80.2299
2.092	80.2221
2.086	80.1879
2.08	80.2167
2.074	80.1102
2.068	80.055
2.062	79.9765
2.056	79.9289
2.05	79.8217
2.044	79.7114
2.038	79.5914
2.032	79.5469
2.026	79.2903
2.02	79.1155
2.014	78.9405
2.008	78.6803
2.002	78.5434
1.996	78.3009
1.99	77.9804
1.984	77.64
1.978	77.3682
1.972	77.0153
1.966	76.8384
1.96	76.4981
1.954	76.2611
1.948	75.9078
1.942	75.6701
1.936	75.4399
1.93	75.2256
1.924	74.9441
1.918	74.8234
1.912	74.5117
1.906	74.2304
1.9	74.0037
1.894	73.6113
1.888	73.388
1.882	73.1355
1.876	72.7222
1.87	72.3442
1.864	71.9441
1.858	71.6084
1.852	71.1347
1.846	70.7681
1.84	70.2097
1.834	69.7809
1.828	69.3179
1.822	68.854
1.816	68.2741
1.81	67.886
1.804	67.2766
1.798	66.8011
1.792	66.2614
1.786	65.6808
1.78	65.1539
1.774	64.5368
1.768	63.9593
1.762	63.4381
1.756	62.858
1.75	62.2942
1.744	61.6956
1.738	61.1335
1.732	60.5597
1.726	59.9565
1.72	59.3934
1.714	58.7929
1.708	58.228
1.702	57.5939
1.696	57.019
1.69	56.3739
1.684	55.7467
1.678	55.1279
1.672	54.5066
1.666	53.9173
1.66	53.3884
1.654	52.6506
1.648	52.2097
1.642	51.7034
1.636	51.1126
1.63	50.4956
1.624	49.9107
1.618	49.4298
1.612	48.8917
1.606	48.366
1.6	47.8048
1.594	47.3275
1.588	46.7843
1.582	46.3189
1.576	45.7389
1.57	45.3366
1.564	44.8168
1.558	44.3549
1.552	43.8869
1.546	43.3894
1.54	42.9757
1.534	42.5595
1.528	42.1397
1.522	41.7278
1.516	41.3252
1.51	40.9328
1.504	40.5449
1.498	40.1718
1.492	39.8355
1.486	39.4909
1.48	39.201
1.474	38.9449
1.468	38.6334
1.462	38.297
1.456	38.0551
1.45	37.7547
1.444	37.5662
1.438	37.3306
1.432	37.1041
1.426	36.9416
1.42	36.7126
1.414	36.531
1.408	36.4519
1.402	36.3443
1.396	36.2518
1.39	36.1371
1.384	35.9961
1.378	36.0094
1.372	35.7981
1.366	35.7519
1.36	35.7526
1.354	35.7717
1.348	35.7051
1.342	35.7327
1.336	35.7313
1.33	35.8237
1.324	35.7988
1.318	35.8947
1.312	35.8665
1.306	36.0017
1.3	36.0286
1.294	36.092
1.288	36.143
1.282	36.1971
1.276	36.2825
1.27	36.3349
1.264	36.3909
1.258	36.3331
1.252	36.4003
1.246	36.3286
1.24	36.2969
1.234	36.1817
1.228	36.0246
1.222	35.8358
1.216	35.6215
1.21	35.3616
1.204	35.0716
1.198	34.7069
1.192	34.2993
1.186	33.8355
1.18	33.3344
1.174	32.7665
1.168	32.1787
1.162	31.587
1.156	30.9848
1.15	30.4288
1.144	29.7729
1.138	29.219
1.132	28.6473
1.126	28.2049
1.12	27.7329
1.114	27.265
1.108	26.8388
1.102	26.6094
1.096	26.2774
1.09	26.0918
1.084	25.8999
1.078	25.8186
1.072	25.7981
1.066	25.8447
1.06	25.9052
1.054	26.0327
1.048	26.2556
1.042	26.5336
1.036	26.7715
1.03	27.1202
1.024	27.589
1.018	28.0307
1.012	28.5963
1.006	29.1696
1	29.8022
0.994	30.57
0.988	31.3334
0.982	32.1845
0.976	33.1775
0.97	34.1977
0.964	35.2178
0.958	36.3016
0.952	37.5148
0.946	38.7976
0.94	40.1503
0.934	41.5317
0.928	42.9555
0.922	44.4553
0.916	45.908
0.91	47.5092
0.904	49.0833
0.898	50.6322
0.892	52.2603
0.886	53.8372
0.88	55.3767
0.874	56.8399
0.868	58.3825
0.862	59.8071
0.856	61.7475
0.85	63.1607
0.844	64.425
0.838	65.6068
0.832	66.713
0.826	67.6355
0.82	68.488
0.814	69.2253
0.808	69.8804
0.802	70.3783
0.796	70.7187
0.79	70.977
0.784	71.1521
0.778	71.2022
0.772	71.1327
0.766	71.0603
0.76	70.8865
0.754	70.5879
0.748	70.3137
0.742	70.0554
0.736	69.7554
0.73	69.5684
0.724	69.3795
0.718	69.215
0.712	69.1287
0.706	69.1084
0.7	69.1529
0.694	69.1954
0.688	69.2821
0.682	69.3631
0.676	69.4535
0.67	69.5645
0.664	69.6899
0.658	69.78
0.652	69.7796
0.646	69.6742
0.64	69.37
0.634	68.7681
0.628	67.7932
0.622	66.5664
0.616	65.325
0.61	64.3761
0.604	63.9347
0.598	63.9338
0.592	64.1269
0.586	64.2559
0.58	64.2248
0.574	64.0202
0.568	63.7628
0.562	63.5459
0.556	63.4426
0.55	63.3854
0.544	63.2932
0.538	63.1227
0.532	62.7685
0.526	62.2177
0.52	61.5774
0.514	60.9389
0.508	60.166
0.502	58.6032
0.496	57.0538
0.49	57.1431
0.484	57.0338
0.478	55.8422
0.472	52.5591
0.466	52.2284
0.46	51.6387
0.454	50.9095
0.448	50.5612
0.442	50.0766
0.436	49.5373
0.43	48.5649
0.424	47.2414
0.418	45.7986
0.412	43.8109
0.406	41.6392
0.4	40.6366
