Name: Topaz Al2SiO4(F,OH)2
Type: Mineral
Class: Silicate
Subclass: Nesosilicate
Particle Size: Fine
Sample No.: topaz_3
Owner: JHU
Wavelength Range: TIR
Origin: Durango, Mexico via Don Hoover, USGS
Description: The sample was composed of several different colorless crystal fragments, each less than a centimeter on a side. Petrographically the sample appeared to be clean and free of obvious fluid inclusions. Particle size was Less than 2  Micrometers.(Isolated tetrahedra) Original ASTER Spectral Library name was jhu.nicolet.mineral.silicate.nesosilicate.powder.topaz3.spectrum.txt
Measurement: Transmission
X Units: Wavelength (micrometers)
Y Units: Transmittance (percent)
wavelength	value
25.0442	65.7342
24.3388	69.6756
23.6719	47.703
23.0407	46.0389
22.4422	18.3906
21.8741	6.207
21.334	25.289
20.8199	9.9258
20.33	23.3163
19.8627	21.6152
19.4163	21.5869
18.9896	15.5332
18.5812	39.7938
18.19	61.703
17.815	43.4843
17.4551	57.7811
17.1094	46.0897
16.7772	53.2518
16.4576	21.832
16.15	2.6172
15.8537	4.1562
15.568	10.8476
15.2925	15.3574
15.0265	23.9072
14.7697	52.1913
14.5214	66.3846
14.2814	72.3787
14.0492	67.0321
13.8244	79.5779
13.6067	83.5667
13.3957	85.2146
13.1912	85.1795
12.9929	82.8181
12.8004	79.0174
12.6135	77.0936
12.432	71.6922
12.2557	64.307
12.0843	51.8358
11.9176	35.0219
11.7555	17.3012
11.5977	5.2309
11.444	1.3926
11.2944	1.2993
11.1487	2.5059
11.0067	3.9966
10.8682	6.0547
10.7332	8.0903
10.6015	8.539
10.473	8.9243
10.3476	13.0644
10.2251	24.3564
10.1056	34.3153
9.9887	24.4672
9.8746	26.5966
9.763	38.8397
9.6539	46.3036
9.5472	50.7674
9.4429	53.371
9.3408	55.1776
9.2409	56.4647
9.1431	58.0506
9.0474	60.5648
8.9536	63.1512
8.8618	65.3973
8.7718	67.2015
8.6837	69.1033
8.5973	70.4056
8.5126	72.6985
8.4295	75.3147
8.3481	78.128
8.2682	80.6885
8.1898	83.0909
8.1129	84.99
8.0374	86.3474
7.9634	87.4578
7.8906	88.572
7.8192	89.3093
7.7491	89.8711
7.6802	90.2129
7.6126	90.6123
7.5461	91.0108
7.4807	91.3005
7.4165	91.5535
7.3534	91.6668
7.2914	91.834
7.2303	91.9187
7.1703	91.0908
7.1113	91.0479
7.0533	92.0447
6.9962	92.3406
6.94	92.5681
6.8847	92.8565
6.8302	92.9531
6.7767	93.0186
6.7239	93.3691
6.672	93.8308
6.6209	94.1104
6.5705	94.3857
6.5209	94.365
6.4721	94.3418
6.424	94.4187
6.3766	94.2556
6.3299	93.8936
6.2838	93.6484
6.2385	93.3984
6.1937	93.2305
6.1496	92.1414
6.1062	92.2908
6.0633	92.3369
6.0211	92.2139
5.9794	92.8533
5.9383	94.0447
5.8978	94.9297
5.8578	95.3894
5.8184	95.7058
5.7794	95.8489
5.741	96.1335
5.7031	96.2175
5.6657	96.2087
5.6288	96.2353
5.5924	95.9922
5.5564	95.656
5.5209	95.4043
5.4859	95.4678
5.4513	95.6738
5.4171	95.9124
5.3833	95.8037
5.35	95.8328
5.3171	96.0261
5.2846	96.2742
5.2524	96.459
5.2207	96.7537
5.1893	96.9727
5.1584	97.1135
5.1277	97.2949
5.0975	97.3271
5.0676	97.3445
5.038	97.4167
5.0088	97.4287
4.98	97.5105
4.9514	97.5647
4.9232	97.5432
4.8953	97.6189
4.8678	97.7248
4.8405	97.7063
4.8135	97.8274
4.7868	97.8513
4.7605	97.7595
4.7344	97.8342
4.7086	97.7761
4.6831	97.8093
4.6578	97.8044
4.6328	97.8523
4.6081	97.9607
4.5837	97.926
4.5595	97.9827
4.5356	97.9392
4.5119	97.9587
4.4884	97.9597
4.4652	98.0041
4.4423	97.9353
4.4196	97.9636
4.3971	97.9817
4.3748	97.9646
4.3528	98.074
4.331	98.0222
4.3094	98.0154
4.288	97.9851
4.2668	98.0413
4.2458	98.0222
4.2251	97.99
4.2045	98.0315
4.1841	97.9871
4.164	98.0085
4.144	97.9954
4.1242	97.9827
4.1046	97.9299
4.0852	97.9807
4.066	97.9988
4.047	97.9807
4.0281	97.9748
4.0094	97.9226
3.9909	97.9319
3.9725	98.0593
3.9544	97.9646
3.9363	98.0222
3.9185	98.0784
3.9008	98.0622
3.8833	98.0588
3.8659	97.8791
3.8487	97.9392
3.8316	97.9382
3.8147	98.071
3.7979	97.9587
3.7813	97.9734
3.7648	97.9265
3.7485	97.9143
3.7323	97.8718
3.7162	97.7751
3.7003	97.6663
3.6845	97.7722
3.6689	97.697
3.6534	97.6995
3.638	97.5486
3.6227	97.4851
3.6076	97.3943
3.5926	97.4631
3.5777	97.3845
3.563	97.363
3.5484	97.1623
3.5338	97.157
3.5195	97.0393
3.5052	96.8298
3.491	96.8259
3.477	96.6814
3.463	96.6819
3.4492	96.5452
3.4355	96.2751
3.4219	96.1541
3.4084	95.926
3.395	95.9978
3.3817	95.9373
3.3685	95.7952
3.3554	95.6604
3.3425	95.4607
3.3296	95.3635
3.3168	95.0803
3.3041	95.0134
3.2915	94.8772
3.279	94.6584
3.2666	94.469
3.2543	94.24
3.2421	93.8792
3.23	93.4807
3.218	93.2146
3.206	92.8171
3.1942	92.6331
3.1824	92.3635
3.1707	92.1658
3.1591	91.8943
3.1476	91.7566
3.1362	91.4597
3.1249	91.3953
3.1136	91.2595
3.1024	91.1257
3.0913	91.0017
3.0803	90.9793
3.0694	90.7586
3.0585	90.7429
3.0477	90.6902
3.037	90.3728
3.0264	90.3865
3.0158	90.2322
3.0053	89.9832
2.9949	89.8289
2.9845	89.9783
2.9743	89.9978
2.9641	90.2312
2.9539	90.4539
2.9439	90.6326
2.9339	90.6062
2.9239	90.4431
2.9141	90.5896
2.9043	90.7664
2.8946	90.8396
2.8849	90.8484
2.8753	90.7586
2.8658	90.8523
2.8563	91.0593
2.8469	91.4851
2.8375	91.7468
2.8282	92.0095
2.819	92.4509
2.8098	92.6052
2.8007	92.6619
2.7917	92.864
2.7827	93.1091
2.7738	93.2673
2.7649	93.5212
2.7561	94.1375
2.7473	94.4617
2.7386	94.657
2.7299	95.3591
2.7213	95.5632
2.7128	95.7742
2.7043	96.239
2.6959	96.3748
2.6875	96.407
2.6791	96.5466
2.6709	96.7507
2.6626	96.3005
2.6545	96.2732
2.6463	96.1843
2.6382	96.2146
2.6302	96.4226
2.6222	96.1013
2.6143	96.0779
2.6064	96.1882
2.5986	96.2224
2.5908	96.1755
2.583	96.2263
2.5753	95.9841
2.5677	95.8552
2.5601	95.9763
2.5525	95.7869
2.545	95.9763
2.5375	95.9529
2.5301	95.7126
2.5227	95.4255
2.5154	95.5701
2.5081	95.5798
2.5008	95.572
2.4936	95.6326
2.4864	95.6892
2.4793	95.3435
2.4722	95.5232
2.4651	95.2849
2.4581	95.2888
2.4511	95.2849
2.4442	95.2693
2.4373	95.2517
2.4305	95.2927
2.4236	95.4294
2.4169	95.2224
2.4101	95.1736
2.4034	95.1404
2.3967	95.0388
2.3901	95.0876
2.3835	95.238
2.377	95.0955
2.3704	94.8318
2.364	94.9294
2.3575	95.0564
2.3511	95.0408
2.3447	94.8689
2.3384	94.9373
2.3321	94.5701
2.3258	94.7341
2.3195	94.8943
2.3133	94.9373
2.3071	94.7849
2.301	94.9451
2.2949	94.8474
2.2888	94.8142
2.2828	94.7654
2.2767	94.8611
2.2708	94.7654
2.2648	94.8787
2.2589	95.0505
2.253	94.7595
2.2471	94.9158
2.2413	94.656
2.2355	95.0388
2.2297	95.0486
2.224	94.6404
2.2183	94.9314
2.2126	94.8826
2.207	94.8044
2.2013	94.7263
2.1957	94.6423
2.1902	94.7732
2.1846	94.9841
2.1791	94.7341
2.1736	95.0955
2.1682	95.3044
2.1628	95.2771
2.1574	95.2341
2.152	94.7459
2.1466	94.8748
2.1413	94.9763
2.136	95.0388
2.1308	95.1169
2.1255	95.2419
2.1203	95.3005
2.1151	95.0662
2.11	95.0388
2.1048	95.0466
2.0997	95.1443
2.0946	95.3044
2.0895	95.324
2.0845	95.1638
2.0795	95.613
