Name: Tourmaline (Schorl) NaFe3+2Al6(BO3)3Si6O18(OH)4
Type: Mineral
Class: Silicate
Subclass: Cyclosilicate
Particle Size: Coarse
Sample No.: tourmal_2
Owner: JHU
Wavelength Range: TIR
Origin: Minas Gerais, Brazil via the Hunt and Salisbury Collection#120B (purchased from Ward's Natural Science Establishment)
Description: The sample was a translucent, blue, single crystal.  It appeared quite pure under the petrographic microscope.(Ring Silicates)Particle size was 75 - 250  Micrometers. Original ASTER Spectral Library name was jhu.nicolet.mineral.silicate.cyclosilicate.coarse.tourma2.spectrum.txt
Measurement: Bidirectional reflectance
X Units: Wavelength (micrometers)
Y Units: Reflectance (percent)
wavelength	value
25.0442	2.4961
24.3388	2.8254
23.6719	3.1643
23.0407	2.8647
22.4422	2.8064
21.8741	2.6914
21.334	2.9268
20.8199	3.3682
20.33	3.8318
19.8627	4.1199
19.4163	4.2717
18.9896	4.1133
18.5812	3.5439
18.19	3.0579
17.815	2.9014
17.4551	2.6658
17.1094	2.9353
16.7772	3.0425
16.4576	3.0422
16.15	3.6389
15.8537	2.7983
15.568	1.5991
15.2925	1.4421
15.0265	1.3769
14.7697	1.4175
14.5214	1.0652
14.2814	1.2913
14.0492	1.3726
13.8244	1.0276
13.6067	0.8184
13.3957	1.0193
13.1912	1.0439
12.9929	1.1152
12.8004	1.5146
12.6135	1.6572
12.432	0.9311
12.2557	0.8745
12.0843	0.9363
11.9176	1.0254
11.7555	1.0623
11.5977	1.092
11.444	1.2043
11.2944	1.3206
11.1487	1.3992
11.0067	1.4983
10.8682	1.6089
10.7332	1.7634
10.6015	1.917
10.473	2.1233
10.3476	2.3994
10.2251	2.7021
10.1056	2.8542
9.9887	2.7913
9.8746	2.8093
9.763	3.0105
9.6539	3.0776
9.5472	2.8994
9.4429	2.7664
9.3408	2.7507
9.2409	2.1887
9.1431	2.1614
9.0474	2.292
8.9536	2.2217
8.8618	1.9941
8.7718	0.897
8.6837	0.2439
8.5973	0.3159
8.5126	0.4524
8.4295	0.5688
8.3481	0.6836
8.2682	0.7976
8.1898	0.9077
8.1129	1.0469
8.0374	1.157
7.9634	1.3196
7.8906	1.5332
7.8192	1.6125
7.7491	1.4936
7.6802	1.417
7.6126	1.4333
7.5461	1.5972
7.4807	1.7263
7.4165	1.7878
7.3534	1.8057
7.2914	1.6345
7.2303	1.3337
7.1703	0.9744
7.1113	0.6187
7.0533	0.4199
6.9962	0.2981
6.94	0.3127
6.8847	0.426
6.8302	0.5447
6.7767	0.6438
6.7239	0.7473
6.672	0.8411
6.6209	0.9255
6.5705	1.0022
6.5209	1.0808
6.4721	1.1509
6.424	1.2156
6.3766	1.2793
6.3299	1.3259
6.2838	1.3782
6.2385	1.4106
6.1937	1.4294
6.1496	1.4424
6.1062	1.4368
6.0633	1.4233
6.0211	1.4067
5.9794	1.4045
5.9383	1.3784
5.8978	1.3833
5.8578	1.448
5.8184	1.5376
5.7794	1.6301
5.741	1.7358
5.7031	1.8389
5.6657	1.8957
5.6288	1.9045
5.5924	1.8669
5.5564	1.8254
5.5209	1.7986
5.4859	1.8425
5.4513	1.9338
5.4171	2.0295
5.3833	2.0681
5.35	2.123
5.3171	2.22
5.2846	2.2815
5.2524	2.2832
5.2207	2.3003
5.1893	2.3738
5.1584	2.404
5.1277	2.3889
5.0975	2.3643
5.0676	2.3308
5.038	2.3308
5.0088	2.3567
4.98	2.4109
4.9514	2.4944
4.9232	2.5857
4.8953	2.7014
4.8678	2.8476
4.8405	3.0132
4.8135	3.186
4.7868	3.3552
4.7605	3.5176
4.7344	3.6816
4.7086	3.8288
4.6831	3.9963
4.6578	4.1238
4.6328	4.2175
4.6081	4.2183
4.5837	4.1189
4.5595	3.9277
4.5356	3.7026
4.5119	3.4731
4.4884	3.2842
4.4652	3.1348
4.4423	3.0095
4.4196	2.9172
4.3971	2.8618
4.3748	2.8472
4.3528	2.8501
4.331	2.8935
4.3094	2.9536
4.288	3.0293
4.2668	3.1223
4.2458	3.2314
4.2251	3.3572
4.2045	3.5088
4.1841	3.7053
4.164	3.925
4.144	4.1687
4.1242	4.4065
4.1046	4.6394
4.0852	4.8574
4.066	5.0224
4.047	5.1235
4.0281	5.1379
4.0094	5.0661
3.9909	4.9062
3.9725	4.6909
3.9544	4.4482
3.9363	4.227
3.9185	4.0315
3.9008	3.8362
3.8833	3.6306
3.8659	3.4094
3.8487	3.2082
3.8316	3.081
3.8147	3.0537
3.7979	3.0918
3.7813	3.1704
3.7648	3.2778
3.7485	3.406
3.7323	3.5347
3.7162	3.6536
3.7003	3.7646
3.6845	3.8826
3.6689	4.02
3.6534	4.2068
3.638	4.4258
3.6227	4.6699
3.6076	4.9307
3.5926	5.1733
3.5777	5.3364
3.563	5.4426
3.5484	5.5517
3.5338	5.6633
3.5195	5.7532
3.5052	5.823
3.491	5.8867
3.477	5.904
3.463	5.8872
3.4492	5.8733
3.4355	5.8679
3.4219	5.8974
3.4084	5.9538
3.395	6.0273
3.3817	6.0498
3.3685	6.0571
3.3554	6.0532
3.3425	6.0271
3.3296	6.0039
3.3168	5.9682
3.3041	5.9294
3.2915	5.8926
3.279	5.8613
3.2666	5.8074
3.2543	5.7659
3.2421	5.7134
3.23	5.6572
3.218	5.5942
3.206	5.5593
3.1942	5.5151
3.1824	5.4604
3.1707	5.4004
3.1591	5.3098
3.1476	5.2248
3.1362	5.1128
3.1249	4.9834
3.1136	4.8694
3.1024	4.7388
3.0913	4.5752
3.0803	4.4126
3.0694	4.2778
3.0585	4.1069
3.0477	3.9355
3.037	3.7644
3.0264	3.5659
3.0158	3.3281
3.0053	3.0796
2.9949	2.8818
2.9845	2.7629
2.9743	2.6794
2.9641	2.657
2.9539	2.6509
2.9439	2.6592
2.9339	2.644
2.9239	2.5732
2.9141	2.4221
2.9043	2.1497
2.8946	1.8662
2.8849	1.6252
2.8753	1.4397
2.8658	1.3938
2.8563	1.4148
2.8469	1.446
2.8375	1.4468
2.8282	1.3496
2.819	1.1992
2.8098	1.2021
2.8007	1.314
2.7917	1.637
2.7827	2.199
2.7738	2.8923
2.7649	3.291
2.7561	2.0373
2.7473	2.0801
2.7386	2.7517
2.7299	4.2446
2.7213	4.1118
2.7128	4.3013
2.7043	4.7309
2.6959	5.0273
2.6875	4.4722
2.6791	4.8044
2.6709	5.5635
2.6626	5.8042
2.6545	5.8459
2.6463	5.8047
2.6382	5.7851
2.6302	5.7263
2.6222	5.6514
2.6143	5.6023
2.6064	5.5852
2.5986	5.583
2.5908	5.5491
2.583	5.5383
2.5753	5.5163
2.5677	5.4912
2.5601	5.4919
2.5525	5.4687
2.545	5.4682
2.5375	5.4709
2.5301	5.4333
2.5227	5.3791
2.5154	5.3762
2.5081	5.3628
2.5008	5.3725
2.4936	5.3469
2.4864	5.3848
2.4793	5.4431
2.4722	5.4963
2.4651	5.5486
2.4581	5.6047
2.4511	5.689
2.4442	5.7571
2.4373	5.7817
2.4305	5.7585
2.4236	5.6899
2.4169	5.6037
2.4101	5.5229
2.4034	5.3874
2.3967	5.2143
2.3901	4.8848
2.3835	4.5915
2.377	4.4099
2.3704	4.5508
2.364	4.927
2.3575	5.2593
2.3511	5.4978
2.3447	5.6631
2.3384	5.6951
2.3321	5.708
2.3258	5.718
2.3195	5.6511
2.3133	5.4573
2.3071	5.2764
2.301	5.3386
2.2949	5.6201
2.2888	5.8826
2.2828	6.0356
2.2767	6.0654
2.2708	5.9599
2.2648	5.7761
2.2589	5.4053
2.253	4.9431
2.2471	4.779
2.2413	5.1062
2.2355	5.5137
2.2297	5.6548
2.224	5.6684
2.2183	5.5491
2.2126	5.2942
2.207	4.9758
2.2013	4.9416
2.1957	5.1975
2.1902	5.5493
2.1846	5.7717
2.1791	5.8826
2.1736	5.9223
2.1682	5.956
2.1628	5.9739
2.1574	5.9973
2.152	5.9516
2.1466	5.9809
2.1413	5.9751
2.136	6.0032
2.1308	5.9787
2.1255	5.9587
2.1203	5.958
2.1151	5.9565
2.11	5.9167
2.1048	5.9429
2.0997	5.9294
2.0946	5.946
2.0895	5.9055
2.0845	5.8747
2.0795	5.8611
