Name: Atacamite Cu_2Cl(OH)_3
Type: Mineral
Class: Halide
Subclass: None
Particle Size: Coarse
Sample No.: H-4A
Owner: JPL
Wavelength Range: TIR
Origin: Chile, Atacama, Copiapo
Description: Particle size was 125-500um.Collected by Grieger's Inc. Original ASTER Spectral Library name was jpl.nicolet.mineral.halide.none.coarse.h04a.spectrum.txt
Measurement: Hemispherical reflectance
X Units: Wavelength (micrometers)
Y Units: Reflectance (percent)
wavelength	value
15.3853	1.2051
15.1161	1.2508
14.8563	1.4374
14.6052	1.1408
14.3624	1.2642
14.1276	1.388
13.9004	1.5273
13.6803	1.4425
13.4671	1.6495
13.2604	1.6281
13.06	1.7257
12.8656	1.7368
12.6769	1.773
12.4936	1.679
12.3155	1.728
12.1425	1.7747
11.9742	1.9043
11.8106	2.318
11.6513	2.0193
11.4963	1.8113
11.3454	1.919
11.1983	2.4938
11.0551	2.1298
10.9154	2.5263
10.7793	2.2901
10.6465	2.3659
10.5169	2.637
10.3904	2.7278
10.267	3.2786
10.1464	4.3676
10.0287	4.46
9.9136	5.3159
9.8012	6.4718
9.6913	7.2135
9.5838	7.6795
9.4787	7.2081
9.3758	5.6394
9.2752	3.8371
9.1767	2.668
9.0803	1.9215
8.9858	1.457
8.8934	1.1533
8.8028	1.0555
8.714	0.8985
8.627	0.9763
8.5417	0.7514
8.4581	0.9056
8.3761	0.8371
8.2957	0.8074
8.2169	0.9787
8.1395	0.9131
8.0635	0.9982
7.989	1.1132
7.9158	1.1963
7.8439	1.256
7.7734	1.2187
7.7041	1.3157
7.636	1.436
7.5691	1.3685
7.5034	1.382
7.4388	1.3351
7.3753	1.3828
7.3129	1.5034
7.2515	1.5046
7.1912	1.5435
7.1318	1.47
7.0734	1.5285
7.016	1.634
6.9595	1.4979
6.9039	1.5918
6.8492	1.5037
6.7953	1.4635
6.7423	1.6478
6.6901	1.5865
6.6387	1.6802
6.5881	1.7506
6.5382	1.7602
6.4892	1.6733
6.4408	1.6067
6.3931	1.7266
6.3462	1.6103
6.2999	1.5097
6.2543	1.5071
6.2094	1.4463
6.1651	1.3449
6.1214	1.261
6.0784	1.3138
6.0359	1.2277
5.994	1.1542
5.9527	1.1642
5.912	1.3246
5.8718	1.3232
5.8322	1.2493
5.7931	1.5369
5.7545	1.56
5.7165	1.5244
5.6789	1.633
5.6418	1.707
5.6052	1.5662
5.5691	1.7267
5.5334	1.7402
5.4982	1.7273
5.4635	1.7779
5.4291	1.7898
5.3952	1.907
5.3618	1.8507
5.3287	1.892
5.2961	1.9334
5.2638	2.0546
5.2319	2.0667
5.2004	1.9813
5.1693	2.1141
5.1386	2.0792
5.1082	2.0384
5.0782	2.1998
5.0485	2.2453
5.0192	2.3663
4.9902	2.4096
4.9616	2.5678
4.9332	2.6325
4.9052	2.7066
4.8776	2.6645
4.8502	2.7362
4.8231	2.7553
4.7963	2.7731
4.7699	2.8444
4.7437	2.8495
4.7178	3.089
4.6922	2.9532
4.6668	3.1694
4.6418	3.2461
4.617	3.4898
4.5924	3.684
4.5681	3.6836
4.5441	3.7934
4.5203	4.1049
4.4968	4.2858
4.4735	4.2059
4.4505	4.2371
4.4277	4.507
4.4051	4.5435
4.3828	4.8696
4.3607	4.7562
4.3388	4.9187
4.3171	5.1063
4.2956	5.2028
4.2744	5.4038
4.2534	5.345
4.2325	5.5021
4.2119	5.5879
4.1915	5.6056
4.1712	5.4544
4.1512	5.3978
4.1313	5.413
4.1117	5.5266
4.0922	5.3491
4.0729	5.4184
4.0538	5.4133
4.0349	5.2446
4.0161	5.1698
3.9976	5.2755
3.9792	5.2112
3.9609	5.0277
3.9428	4.9251
3.9249	4.6259
3.9072	4.771
3.8896	4.8756
3.8722	4.8391
3.8549	4.8616
3.8378	4.8183
3.8208	4.6731
3.804	4.6204
3.7873	4.4625
3.7708	4.452
3.7544	4.1845
3.7382	4.0956
3.7221	4.151
3.7061	3.9212
3.6903	3.8486
3.6746	3.6481
3.659	3.5221
3.6436	3.4374
3.6283	3.2067
3.6131	3.3094
3.5981	3.2186
3.5832	3.0553
3.5684	3.0016
3.5537	2.8517
3.5391	2.5745
3.5247	2.3346
3.5104	2.2739
3.4962	2.4152
3.4821	2.4617
3.4681	2.3674
3.4543	2.3141
3.4405	2.4074
3.4269	2.3839
3.4133	2.2418
3.3999	2.0928
3.3866	2.104
3.3733	2.2146
3.3602	1.978
3.3472	1.9573
3.3343	2.132
3.3215	2.0146
3.3088	1.9798
3.2961	1.8466
3.2836	1.7986
3.2712	1.9103
3.2588	1.8019
3.2466	1.7472
3.2345	1.8527
3.2224	1.8906
3.2104	1.7532
3.1985	1.7427
3.1867	1.7289
3.175	1.8754
3.1634	1.7619
3.1519	1.8347
3.1404	1.8023
3.129	1.6875
3.1178	1.7042
3.1065	1.9042
3.0954	1.776
3.0844	1.9824
3.0734	1.7787
3.0625	1.8182
3.0517	1.8694
3.041	2.0797
3.0303	2.1719
3.0197	2.271
3.0092	2.8691
2.9987	3.6467
2.9884	4.3323
2.9781	3.1168
2.9678	2.1127
2.9577	0.8829
2.9476	1.2096
2.9376	1.3314
2.9276	1.4769
2.9177	1.6027
2.9079	2.3738
2.8982	2.3156
2.8885	1.5882
2.8789	0.9731
2.8693	0.8596
2.8598	1.0781
2.8504	1.0249
2.841	1.1753
2.8317	1.0601
2.8224	1.2152
2.8133	1.017
2.8041	1.3641
2.7951	1.2719
2.786	1.2855
2.7771	1.5037
2.7682	1.3377
2.7594	1.5428
2.7506	1.5388
2.7418	1.7888
2.7332	1.8668
2.7246	2.0468
2.716	2.1413
2.7075	2.2637
2.699	2.4743
2.6906	2.9521
2.6823	3.1604
2.674	3.8371
2.6657	4.2923
2.6575	4.8098
2.6494	5.0944
2.6413	5.3889
2.6332	5.4444
2.6252	5.85
2.6173	6.1315
2.6094	6.3739
2.6015	6.6543
2.5937	6.687
2.5859	6.9099
2.5782	7.4507
2.5706	7.7309
2.5629	7.7474
2.5554	7.8603
2.5478	8.0802
2.5403	8.8153
2.5329	9.4801
2.5255	9.9405
2.5181	10.8765
2.5108	11.5558
2.5035	12.1515
2.4963	12.2611
2.4891	12.3216
2.482	11.3346
2.4749	10.1669
2.4678	9.1741
2.4608	10.0853
2.4538	12.464
2.4468	13.904
2.4399	14.6726
2.4331	15.0909
2.4262	15.6663
2.4194	15.7575
2.4127	15.3068
2.4059	15.2398
2.3993	15.0438
2.3926	15.6508
2.386	15.9785
2.3795	15.7075
2.3729	16.0655
2.3664	16.5919
2.36	17.0173
2.3535	17.0946
2.3471	17.0619
2.3408	16.3253
2.3345	16.8767
2.3282	18.048
2.3219	18.7254
2.3157	18.1803
2.3095	18.3074
2.3034	18.786
2.2972	19.3038
2.2911	19.2179
2.2851	18.6961
2.279	18.3425
2.2731	18.6645
2.2671	18.2226
2.2612	18.1006
2.2553	18.2658
2.2494	18.7128
2.2435	20.7356
2.2377	22.4892
2.232	24.5068
2.2262	25.676
2.2205	26.0876
2.2148	26.3729
2.2091	26.0284
2.2035	26.6054
2.1979	27.1222
2.1923	27.3998
2.1868	27.8795
2.1812	28.2068
2.1758	27.695
2.1703	27.2589
2.1649	25.7442
2.1595	24.35
2.1541	25.2855
2.1487	27.5533
2.1434	29.3155
2.1381	30.7142
2.1328	31.3136
2.1275	31.7001
2.1223	31.6361
2.1171	31.8352
2.112	31.7615
2.1068	31.1813
2.1017	31.3217
2.0966	31.0417
2.0915	30.7303
2.0865	31.4521
2.0814	31.1651
2.0764	30.4728
2.0715	30.631
2.0665	30.4515
2.0616	30.1845
2.0567	29.9947
2.0518	29.3285
2.0469	29.0214
2.0421	28.3853
2.0373	27.755
2.0325	26.9218
2.0277	26.1466
2.0229	25.7213
2.0182	25.0583
2.0135	24.4361
2.0088	22.8782
2.0042	21.4383
