Name: Muscovite KAl_2(Si_3Al)O_10(OH,F)_2
Type: Mineral
Class: Silicate
Subclass: Phyllosilicate
Particle Size: Fine
Sample No.: PS-16A
Owner: JPL
Wavelength Range: VSWIR
Origin: USA, Connecticut.
Description: Particle size was 0-45um.Collected by:  Ward's Original ASTER Spectral Library name was jpl.perkin.mineral.silicate.phyllosilicate.fine.ps16a.spectrum.txt
Measurement: Hemispherical reflectance
X Units: Wavelength (micrometers)
Y Units: Reflectance (percent)
wavelength	value
2.5	47.3287
2.494	47.4176
2.488	47.2822
2.482	47.4685
2.476	47.3606
2.47	47.4464
2.464	47.2462
2.458	47.4096
2.452	47.3433
2.446	47.2037
2.44	47.455
2.434	47.5007
2.428	47.75
2.422	48.1192
2.416	48.3918
2.41	48.7202
2.404	48.9958
2.398	49.3248
2.392	49.5304
2.386	49.5679
2.38	49.7288
2.374	49.8853
2.368	49.9925
2.362	50.0286
2.356	50.0051
2.35	49.9933
2.344	50.0358
2.338	50.0867
2.332	50.42
2.326	50.6937
2.32	50.9469
2.314	51.2829
2.308	51.5972
2.302	51.7659
2.296	51.9952
2.29	52.0267
2.284	52.1429
2.278	52.1609
2.272	52.1516
2.266	52.1109
2.26	52.0368
2.254	51.9103
2.248	51.9499
2.242	51.8597
2.236	51.7287
2.23	51.5876
2.224	51.4241
2.218	50.9299
2.212	50.1334
2.206	49.3835
2.2	48.8135
2.194	48.9294
2.188	49.633
2.182	50.9528
2.176	51.9337
2.17	52.7238
2.164	53.3047
2.158	53.8336
2.152	54.0937
2.146	54.2752
2.14	54.4157
2.134	54.3904
2.128	54.384
2.122	54.2496
2.116	54.148
2.11	53.9955
2.104	53.8253
2.098	53.8783
2.092	53.983
2.086	54.042
2.08	54.1637
2.074	54.1864
2.068	54.2039
2.062	54.3117
2.056	54.3728
2.05	54.3398
2.044	54.4393
2.038	54.5184
2.032	54.5001
2.026	54.4723
2.02	54.4231
2.014	54.3959
2.008	54.4522
2.002	54.3648
1.996	54.331
1.99	54.2036
1.984	54.185
1.978	54.1651
1.972	54.1414
1.966	54.0419
1.96	54.0264
1.954	53.9635
1.948	53.8281
1.942	53.9688
1.936	53.8173
1.93	53.7354
1.924	53.8297
1.918	53.9449
1.912	54.0213
1.906	54.2349
1.9	54.5893
1.894	54.8537
1.888	55.0259
1.882	55.2696
1.876	55.4002
1.87	55.509
1.864	55.5787
1.858	55.5818
1.852	55.6203
1.846	55.7084
1.84	55.7789
1.834	55.7078
1.828	55.7142
1.822	55.7544
1.816	55.7601
1.81	55.7442
1.804	55.7353
1.798	55.8306
1.792	55.8109
1.786	55.8065
1.78	55.8574
1.774	55.8883
1.768	55.8237
1.762	55.8959
1.756	55.8965
1.75	55.907
1.744	55.9829
1.738	56.0547
1.732	56.1077
1.726	56.1411
1.72	56.1078
1.714	56.1845
1.708	56.1582
1.702	56.0464
1.696	56.141
1.69	56.1733
1.684	56.1275
1.678	56.1952
1.672	56.1847
1.666	56.1263
1.66	56.1014
1.654	56.2141
1.648	56.2565
1.642	56.3466
1.636	56.2556
1.63	56.1955
1.624	56.2992
1.618	56.2806
1.612	56.3371
1.606	56.3619
1.6	56.4601
1.594	56.3979
1.588	56.3888
1.582	56.4128
1.576	56.4957
1.57	56.4672
1.564	56.5197
1.558	56.377
1.552	56.4864
1.546	56.4045
1.54	56.4206
1.534	56.422
1.528	56.4895
1.522	56.4512
1.516	56.3869
1.51	56.4793
1.504	56.4677
1.498	56.4432
1.492	56.3981
1.486	56.4849
1.48	56.467
1.474	56.4127
1.468	56.4131
1.462	56.3975
1.456	56.3725
1.45	56.3652
1.444	56.3701
1.438	56.3303
1.432	56.1321
1.426	55.8919
1.42	55.2135
1.414	54.0947
1.408	54.0566
1.402	54.7208
1.396	55.6709
1.39	56.4715
1.384	56.7438
1.378	56.7884
1.372	56.8413
1.366	56.9925
1.36	56.9683
1.354	56.8692
1.348	56.8766
1.342	56.943
1.336	56.9053
1.33	57.0274
1.324	56.9489
1.318	56.9235
1.312	56.8961
1.306	57.0128
1.3	56.9779
1.294	56.9413
1.288	56.9722
1.282	57.0369
1.276	56.9722
1.27	57.0663
1.264	57.0003
1.258	57.0172
1.252	57.0317
1.246	57.0206
1.24	57.0396
1.234	57.067
1.228	57.0342
1.222	57.0343
1.216	57.0089
1.21	57.0812
1.204	57.0992
1.198	57.09
1.192	57.0982
1.186	57.0774
1.18	57.1367
1.174	57.0816
1.168	57.1009
1.162	57.1607
1.156	57.1439
1.15	57.1795
1.144	57.2014
1.138	57.2281
1.132	57.1884
1.126	57.2125
1.12	57.1774
1.114	57.197
1.108	57.2561
1.102	57.2484
1.096	57.3176
1.09	57.4299
1.084	57.2614
1.078	57.2947
1.072	57.3985
1.066	57.3593
1.06	57.3227
1.054	57.377
1.048	57.4147
1.042	57.5091
1.036	57.4899
1.03	57.4777
1.024	57.6023
1.018	57.5837
1.012	57.4688
1.006	57.6284
1	57.5766
0.994	57.5887
0.988	57.6372
0.982	57.7443
0.976	57.6796
0.97	57.6999
0.964	57.6762
0.958	57.7848
0.952	57.8046
0.946	57.8152
0.94	57.7907
0.934	57.921
0.928	57.9347
0.922	58.0308
0.916	58.02
0.91	58.083
0.904	58.1113
0.898	58.1901
0.892	58.2198
0.886	58.264
0.88	58.3542
0.874	58.3561
0.868	58.31
0.862	58.4294
0.856	58.4298
0.85	58.4965
0.844	58.5697
0.838	58.5937
0.832	58.6181
0.826	58.6624
0.82	58.7331
0.814	58.7623
0.808	58.7861
0.802	58.8245
0.796	58.8047
0.79	58.8276
0.784	58.8595
0.778	58.8562
0.772	58.8735
0.766	58.9004
0.76	58.9174
0.754	58.911
0.748	58.9245
0.742	58.9361
0.736	58.924
0.73	58.9488
0.724	58.9247
0.718	58.9401
0.712	58.9187
0.706	58.9352
0.7	58.9045
0.694	58.8637
0.688	58.8533
0.682	58.839
0.676	58.8269
0.67	58.7949
0.664	58.7618
0.658	58.7197
0.652	58.6994
0.646	58.6545
0.64	58.6302
0.634	58.5831
0.628	58.5436
0.622	58.4874
0.616	58.4219
0.61	58.3502
0.604	58.2916
0.598	58.2217
0.592	58.164
0.586	58.0517
0.58	57.9296
0.574	57.7905
0.568	57.6648
0.562	57.5034
0.556	57.3483
0.55	57.1611
0.544	56.9506
0.538	56.7083
0.532	56.476
0.526	56.2101
0.52	55.9492
0.514	55.6914
0.508	55.4233
0.502	55.1723
0.496	54.9375
0.49	54.7135
0.484	54.4259
0.478	54.1452
0.472	53.8869
0.466	53.6711
0.46	53.4185
0.454	53.1082
0.448	52.7224
0.442	52.2198
0.436	51.6907
0.43	51.1273
0.424	50.5307
0.418	49.9145
0.412	49.2961
0.406	48.6391
0.4	47.9104
