Name: Antigorite (Mg, Fe+2)3 Si2O5(OH)4
Type: Mineral
Class: Silicate
Subclass: Phyllosilicate
Particle Size: Solid
Sample No.: antigorite_1
Owner: JHU.
Wavelength Range: TIR
Origin: Sample from Kalsertal, Tyrol, Austria, via the Smithsonian(sample no. NMNH B17958, borrowed from Jim Crowley, USGS).
Description: The sample was a large green single crystal.  It appeared to be mostly pure antigorite under the microscope, but some (<3%) alteration or impurity was present, possibly chrysotile. (Sheet silicates)  (Serpentine/Kaolin Group) Sample had cleavage face. Original ASTER Spectral Library name was jhu.nicolet.mineral.silicate.phyllosilicate.solid.antigo1.spectrum.txt
Measurement: Bidirectional reflectance
X Units: Wavelength (micrometers)
Y Units: Reflectance (percent)
wavelength	value
25.0442	33.9882
24.3388	32.786
23.6719	33.3437
23.0407	40.9262
22.4422	45.7518
21.8741	50.8016
21.334	54.5008
20.8199	55.8168
20.33	54.3089
19.8627	47.7394
19.4163	44.4406
18.9896	29.3945
18.5812	16.2128
18.19	14.352
17.815	15.6621
17.4551	16.6591
17.1094	17.1994
16.7772	18.248
16.4576	21.4267
16.15	25.2565
15.8537	28.0793
15.568	31.5404
15.2925	34.04
15.0265	35.2841
14.7697	33.7135
14.5214	27.6039
14.2814	19.538
14.0492	15.1867
13.8244	10.8471
13.6067	8.4013
13.3957	7.6155
13.1912	7.7763
12.9929	8.2656
12.8004	8.623
12.6135	9.0146
12.432	9.5134
12.2557	9.9638
12.0843	10.5146
11.9176	11.063
11.7555	11.5224
11.5977	12.063
11.444	12.7627
11.2944	13.52
11.1487	14.2951
11.0067	15.2819
10.8682	16.5517
10.7332	18.3837
10.6015	21.2214
10.473	24.3464
10.3476	27.2934
10.2251	31.7323
10.1056	35.9789
9.9887	38.9682
9.8746	42.9796
9.763	46.9486
9.6539	52.0106
9.5472	55.8412
9.4429	50.1581
9.3408	40.7821
9.2409	36.3366
9.1431	35.6244
9.0474	34.245
8.9536	26.3398
8.8618	20.7968
8.7718	12.4658
8.6837	4.7646
8.5973	2.3401
8.5126	2.9473
8.4295	3.3813
8.3481	3.8374
8.2682	3.8196
8.1898	3.998
8.1129	4.4097
8.0374	4.7422
7.9634	5.0461
7.8906	5.3452
7.8192	5.6169
7.7491	5.8479
7.6802	6.0803
7.6126	6.2322
7.5461	6.3518
7.4807	6.4429
7.4165	6.5403
7.3534	6.6286
7.2914	6.7219
7.2303	6.8244
7.1703	6.9121
7.1113	7.0134
7.0533	7.0681
6.9962	7.1335
6.94	7.188
6.8847	7.2326
6.8302	7.2519
6.7767	7.2781
6.7239	7.3147
6.672	7.3218
6.6209	7.3518
6.5705	7.3428
6.5209	7.3965
6.4721	7.4233
6.424	7.4148
6.3766	7.4414
6.3299	7.4614
6.2838	7.4909
6.2385	7.5295
6.1937	7.5386
6.1496	7.5356
6.1062	7.5359
6.0633	7.5759
6.0211	7.6064
5.9794	7.6313
5.9383	7.6003
5.8978	7.5901
5.8578	7.6059
5.8184	7.5471
5.7794	7.655
5.741	7.7556
5.7031	7.7243
5.6657	7.6999
5.6288	7.6963
5.5924	7.6938
5.5564	7.6902
5.5209	7.7119
5.4859	7.7202
5.4513	7.7439
5.4171	7.7436
5.3833	7.7688
5.35	7.7707
5.3171	7.79
5.2846	7.8137
5.2524	7.8274
5.2207	7.8503
5.1893	7.8667
5.1584	7.8762
5.1277	7.8828
5.0975	7.8691
5.0676	7.8572
5.038	7.8418
5.0088	7.8423
4.98	7.8203
4.9514	7.8252
4.9232	7.8096
4.8953	7.7966
4.8678	7.7969
4.8405	7.7954
4.8135	7.8049
4.7868	7.7898
4.7605	7.7898
4.7344	7.8059
4.7086	7.8281
4.6831	7.8469
4.6578	7.8603
4.6328	7.8838
4.6081	7.9092
4.5837	7.9219
4.5595	7.9463
4.5356	7.9629
4.5119	7.9751
4.4884	7.9841
4.4652	7.99
4.4423	7.9834
4.4196	7.9761
4.3971	7.9848
4.3748	7.9785
4.3528	7.9726
4.331	7.9785
4.3094	7.9668
4.288	7.9761
4.2668	7.9731
4.2458	7.9831
4.2251	7.9861
4.2045	7.9853
4.1841	7.9956
4.164	8.0166
4.144	8.0259
4.1242	8.0224
4.1046	8.0552
4.0852	8.0659
4.066	8.0654
4.047	8.0793
4.0281	8.0737
4.0094	8.0576
3.9909	8.053
3.9725	8.0442
3.9544	8.0451
3.9363	8.0595
3.9185	8.0493
3.9008	8.039
3.8833	8.0166
3.8659	7.9858
3.8487	7.9751
3.8316	7.9629
3.8147	7.9248
3.7979	7.8906
3.7813	7.8906
3.7648	7.8745
3.7485	7.8662
3.7323	7.8281
3.7162	7.7746
3.7003	7.7783
3.6845	7.7705
3.6689	7.7646
3.6534	7.7436
3.638	7.7102
3.6227	7.6889
3.6076	7.6658
3.5926	7.6416
3.5777	7.6135
3.563	7.581
3.5484	7.5591
3.5338	7.5229
3.5195	7.4927
3.5052	7.477
3.491	7.4712
3.477	7.4472
3.463	7.4419
3.4492	7.4223
3.4355	7.4165
3.4219	7.4389
3.4084	7.4311
3.395	7.4116
3.3817	7.395
3.3685	7.4109
3.3554	7.3891
3.3425	7.3542
3.3296	7.3147
3.3168	7.3127
3.3041	7.302
3.2915	7.2705
3.279	7.2641
3.2666	7.2451
3.2543	7.2234
3.2421	7.209
3.23	7.2029
3.218	7.1858
3.206	7.1767
3.1942	7.1584
3.1824	7.1343
3.1707	7.1255
3.1591	7.1106
3.1476	7.0864
3.1362	7.0674
3.1249	7.0588
3.1136	7.0261
3.1024	7.0249
3.0913	7.0061
3.0803	7.0012
3.0694	6.9936
3.0585	6.966
3.0477	6.9492
3.037	6.9365
3.0264	6.9287
3.0158	6.8984
3.0053	6.8909
2.9949	6.8782
2.9845	6.8569
2.9743	6.8203
2.9641	6.8
2.9539	6.7798
2.9439	6.7495
2.9339	6.7119
2.9239	6.7026
2.9141	6.6594
2.9043	6.6357
2.8946	6.6457
2.8849	6.6252
2.8753	6.6057
2.8658	6.5725
2.8563	6.5693
2.8469	6.539
2.8375	6.5217
2.8282	6.4475
2.819	6.4082
2.8098	6.3994
2.8007	6.3369
2.7917	6.3235
2.7827	6.3076
2.7738	6.3118
2.7649	6.2727
2.7561	6.2021
2.7473	6.1457
2.7386	6.0771
2.7299	6.0723
2.7213	6.1323
2.7128	6.1079
2.7043	5.9551
2.6959	6.2388
2.6875	6.5259
2.6791	6.8379
2.6709	6.8545
2.6626	6.8208
2.6545	6.7886
2.6463	6.7754
2.6382	6.792
2.6302	6.7392
2.6222	6.7471
2.6143	6.7055
2.6064	6.6426
2.5986	6.6015
2.5908	6.5537
2.583	6.4756
2.5753	6.4619
2.5677	6.4341
2.5601	6.4443
2.5525	6.438
2.545	6.4346
2.5375	6.4424
2.5301	6.4199
2.5227	6.3266
2.5154	6.3262
2.5081	6.3149
2.5008	6.3369
2.4936	6.3447
2.4864	6.3965
2.4793	6.3813
2.4722	6.418
2.4651	6.3926
2.4581	6.3931
2.4511	6.3188
2.4442	6.3086
2.4373	6.3476
2.4305	6.3364
2.4236	6.3032
2.4169	6.3086
2.4101	6.3808
2.4034	6.3618
2.3967	6.3711
2.3901	6.3579
2.3835	6.3091
2.377	6.3735
2.3704	6.5005
2.364	6.52
2.3575	6.4941
2.3511	6.3525
2.3447	6.1875
2.3384	6.0859
2.3321	6.0244
2.3258	5.9922
2.3195	6.0527
2.3133	6.082
2.3071	6.1465
2.301	6.2334
2.2949	6.2353
2.2888	6.3193
2.2828	6.376
2.2767	6.4267
2.2708	6.5049
2.2648	6.6767
2.2589	6.8183
2.253	6.8242
2.2471	6.9189
2.2413	7.0137
2.2355	7.2207
2.2297	7.5185
2.224	7.751
2.2183	7.8887
2.2126	7.958
2.207	7.957
2.2013	7.9824
2.1957	8.0078
2.1902	8.0752
2.1846	8.0547
2.1791	8.0547
2.1736	8.0713
2.1682	8.0332
2.1628	8.001
2.1574	7.9853
2.152	7.8984
2.1466	7.8525
2.1413	7.7676
2.136	7.7773
2.1308	7.7627
2.1255	7.8301
2.1203	7.8457
2.1151	7.7627
2.11	7.7734
2.1048	7.791
2.0997	7.8603
2.0946	7.8799
2.0895	7.876
2.0845	7.9648
2.0795	8.0722
