Name: Lizardite Mg3Si2O5(OH)4
Type: Mineral
Class: Silicate
Subclass: Phyllosilicate
Particle Size: Fine
Sample No.: lizard_1
Owner: JHU
Wavelength Range: TIR
Origin: Austria via the Smithsonian (sample no. NMNH R4687),acquired from Trude King, USGS.
Description: Sample was a small amount of fine white powder.  Only one anomalous grain was noted under the microscope with high birefringence (calcite or dolomite?).  (However, the infrared spectrum does not display any carbonate bands.) XRD Analysis:  Pure lizardite; sample was too small for chemical analysis. Sample size was less than 2 micrometers.(Sheet Silicates); (Serpentine/Kaoline Group) Original ASTER Spectral Library name was jhu.nicolet.mineral.silicate.phyllosilicate.powder.lizard1.spectrum.txt
Measurement: Transmission
X Units: Wavelength (micrometers)
Y Units: Transmittance (percent)
wavelength	value
25.0442	43.8827
24.3388	37.1718
23.6719	29.7655
23.0407	16.0644
22.4422	14.9472
21.8741	22.9921
21.334	30.1093
20.8199	37.371
20.33	43.5175
19.8627	51.201
19.4163	60.4735
18.9896	63.2069
18.5812	58.243
18.19	50.9579
17.815	43.7431
17.4551	41.0751
17.1094	41.414
16.7772	42.454
16.4576	34.9667
16.15	33.0546
15.8537	36.5595
15.568	41.9765
15.2925	49.0585
15.0265	59.4481
14.7697	66.908
14.5214	70.2254
14.2814	74.7908
14.0492	77.1102
13.8244	79.594
13.6067	82.0511
13.3957	84.1228
13.1912	85.5218
12.9929	86.4905
12.8004	87.117
12.6135	87.7049
12.432	87.7327
12.2557	87.6248
12.0843	87.9514
11.9176	87.4885
11.7555	86.7932
11.5977	85.5818
11.444	83.4949
11.2944	80.4143
11.1487	74.9793
11.0067	63.411
10.8682	45.8221
10.7332	26.2265
10.6015	16.6294
10.473	13.5708
10.3476	15.1801
10.2251	17.3837
10.1056	21.0322
9.9887	26.2841
9.8746	34.079
9.763	42.0722
9.6539	46.7421
9.5472	44.9398
9.4429	40.5575
9.3408	36.7553
9.2409	34.1293
9.1431	40.6254
9.0474	57.266
8.9536	70.3836
8.8618	76.0398
8.7718	79.2776
8.6837	81.5974
8.5973	83.3352
8.5126	84.9519
8.4295	86.2703
8.3481	87.364
8.2682	88.2559
8.1898	89.0274
8.1129	89.6668
8.0374	90.1377
7.9634	90.501
7.8906	90.9714
7.8192	91.3281
7.7491	91.4441
7.6802	91.5527
7.6126	91.6604
7.5461	91.864
7.4807	91.999
7.4165	92.1594
7.3534	92.1033
7.2914	92.0432
7.2303	92.0147
7.1703	91.905
7.1113	91.5225
7.0533	91.0713
6.9962	90.4356
6.94	89.9529
6.8847	89.8416
6.8302	90.0979
6.7767	90.5403
6.7239	91.0505
6.672	91.5242
6.6209	92.0391
6.5705	92.4089
6.5209	92.4607
6.4721	92.4568
6.424	92.4558
6.3766	92.2781
6.3299	91.9685
6.2838	91.6025
6.2385	91.2351
6.1937	90.8604
6.1496	90.2068
6.1062	90.499
6.0633	90.6231
6.0211	90.4773
5.9794	91.0046
5.9383	92.0823
5.8978	93.1492
5.8578	93.8135
5.8184	94.2966
5.7794	94.5147
5.741	94.7795
5.7031	94.9275
5.6657	95.0859
5.6288	95.1885
5.5924	95.248
5.5564	95.3408
5.5209	95.3782
5.4859	95.4617
5.4513	95.5498
5.4171	95.6931
5.3833	95.6951
5.35	95.7976
5.3171	95.9109
5.2846	96.0166
5.2524	96.1072
5.2207	96.1599
5.1893	96.1807
5.1584	96.21
5.1277	96.2529
5.0975	96.2522
5.0676	96.2227
5.038	96.2146
5.0088	96.2673
4.98	96.301
4.9514	96.3679
4.9232	96.3679
4.8953	96.3987
4.8678	96.3987
4.8405	96.4197
4.8135	96.5227
4.7868	96.5173
4.7605	96.5173
4.7344	96.5471
4.7086	96.5354
4.6831	96.5613
4.6578	96.6013
4.6328	96.6755
4.6081	96.6892
4.5837	96.6487
4.5595	96.7424
4.5356	96.6956
4.5119	96.6575
4.4884	96.6746
4.4652	96.6057
4.4423	96.6233
4.4196	96.5955
4.3971	96.5842
4.3748	96.5652
4.3528	96.551
4.331	96.6267
4.3094	96.5901
4.288	96.5964
4.2668	96.5837
4.2458	96.5994
4.2251	96.5837
4.2045	96.5881
4.1841	96.5803
4.164	96.6208
4.144	96.531
4.1242	96.5784
4.1046	96.6121
4.0852	96.5398
4.066	96.6199
4.047	96.5945
4.0281	96.5798
4.0094	96.5867
3.9909	96.5085
3.9725	96.5374
3.9544	96.5374
3.9363	96.5022
3.9185	96.5828
3.9008	96.4631
3.8833	96.5544
3.8659	96.3455
3.8487	96.4167
3.8316	96.3933
3.8147	96.3494
3.7979	96.3044
3.7813	96.323
3.7648	96.2502
3.7485	96.1531
3.7323	96.1199
3.7162	96.0159
3.7003	95.9612
3.6845	95.9451
3.6689	95.8972
3.6534	95.8513
3.638	95.7795
3.6227	95.7458
3.6076	95.6057
3.5926	95.5867
3.5777	95.5632
3.563	95.4495
3.5484	95.3972
3.5338	95.3069
3.5195	95.1521
3.5052	94.9397
3.491	94.8972
3.477	94.8005
3.463	94.7087
3.4492	94.6331
3.4355	94.5042
3.4219	94.3396
3.4084	94.0842
3.395	94.2087
3.3817	94.1101
3.3685	94.1116
3.3554	94.0701
3.3425	93.9963
3.3296	93.9104
3.3168	93.74
3.3041	93.6052
3.2915	93.5413
3.279	93.406
3.2666	93.2659
3.2543	93.1389
3.2421	93.0828
3.23	92.7131
3.218	92.592
3.206	92.3342
3.1942	92.1345
3.1824	91.8748
3.1707	91.6492
3.1591	91.3045
3.1476	90.948
3.1362	90.6091
3.1249	90.3904
3.1136	90.2029
3.1024	89.8582
3.0913	89.5437
3.0803	89.3103
3.0694	89.1072
3.0585	88.8279
3.0477	88.4959
3.037	88.1619
3.0264	87.7976
3.0158	87.5134
3.0053	87.0193
2.9949	86.7615
2.9845	86.6687
2.9743	86.5115
2.9641	86.4373
2.9539	86.3318
2.9439	86.3885
2.9339	86.239
2.9239	86.2654
2.9141	86.3748
2.9043	86.3338
2.8946	86.5662
2.8849	86.3367
2.8753	86.1287
2.8658	85.8338
2.8563	85.6638
2.8469	85.1892
2.8375	84.6775
2.8282	83.7049
2.819	82.615
2.8098	82.1541
2.8007	82.5857
2.7917	82.867
2.7827	82.617
2.7738	82.4842
2.7649	83.5056
2.7561	82.5681
2.7473	76.9266
2.7386	71.7693
2.7299	69.7928
2.7213	56.2001
2.7128	32.8105
2.7043	56.0077
2.6959	78.243
2.6875	87.9851
2.6791	90.9851
2.6709	92.1541
2.6626	92.5818
2.6545	93.0867
2.6463	93.2898
2.6382	93.4822
2.6302	93.5662
2.6222	93.7498
2.6143	93.8044
2.6064	93.8796
2.5986	93.8328
2.5908	93.7859
2.583	94.071
2.5753	93.8513
2.5677	93.7595
2.5601	94.0564
2.5525	93.7341
2.545	93.9724
2.5375	94.0779
2.5301	93.7849
2.5227	93.7127
2.5154	93.6423
2.5081	93.6033
2.5008	93.8669
2.4936	93.9334
2.4864	93.9451
2.4793	93.7263
2.4722	93.6423
2.4651	93.5584
2.4581	93.863
2.4511	93.6365
2.4442	93.7146
2.4373	93.6013
2.4305	93.7263
2.4236	93.7459
2.4169	93.6033
2.4101	93.6287
2.4034	93.8318
2.3967	93.6345
2.3901	93.7185
2.3835	93.574
2.377	93.5779
2.3704	93.4099
2.364	93.5896
2.3575	93.2732
2.3511	93.5427
2.3447	93.406
2.3384	93.3591
2.3321	93.156
2.3258	93.1267
2.3195	93.3064
2.3133	93.4099
2.3071	93.5037
2.301	93.5642
2.2949	93.5466
2.2888	93.5232
2.2828	93.5076
2.2767	93.6345
2.2708	93.4861
2.2648	93.8455
2.2589	93.5349
2.253	93.822
2.2471	93.8923
2.2413	93.6345
2.2355	93.8123
2.2297	93.9841
2.224	93.3279
2.2183	93.7673
2.2126	93.8982
2.207	93.8923
2.2013	93.6951
2.1957	94.0095
2.1902	93.9548
2.1846	94.0779
2.1791	93.8669
2.1736	94.1091
2.1682	94.1716
2.1628	94.281
2.1574	94.3591
2.152	94.3201
2.1466	94.199
2.1413	94.2576
2.136	94.2341
2.1308	93.9451
2.1255	94.3787
2.1203	94.5076
2.1151	94.7419
2.11	94.5466
2.1048	94.4959
2.0997	94.4998
2.0946	94.1755
2.0895	94.7537
2.0845	95.3865
2.0795	94.031
