Name: Dolomite CaMg(CO_3)_2
Type: Mineral
Class: Carbonate
Subclass: None
Particle Size: Fine
Sample No.: C-5C
Owner: JPL
Wavelength Range: TIR
Origin: USA, California, Los Angeles County, Palos Verdes
Description: Particle size was 0-45um.Collected by Burminco Original ASTER Spectral Library name was jpl.nicolet.mineral.carbonate.none.fine.c05c.spectrum.txt
Measurement: Hemispherical reflectance
X Units: Wavelength (micrometers)
Y Units: Reflectance (percent)
wavelength	value
15.3853	16.3975
15.1161	17.7218
14.8563	20.3987
14.6052	21.762
14.3624	22.0287
14.1276	18.3524
13.9004	9.5357
13.6803	1.9368
13.4671	13.0078
13.2604	29.2053
13.06	38.3339
12.8656	41.8892
12.6769	43.8752
12.4936	45.5608
12.3155	46.3066
12.1425	45.8865
11.9742	43.7214
11.8106	36.5375
11.6513	29.0151
11.4963	12.5698
11.3454	9.1083
11.1983	23.9756
11.0551	36.6337
10.9154	38.2274
10.7793	39.0834
10.6465	39.9322
10.5169	39.5445
10.3904	40.3666
10.267	39.207
10.1464	39.1082
10.0287	38.4721
9.9136	37.8902
9.8012	36.3205
9.6913	31.0283
9.5838	31.7259
9.4787	36.5954
9.3758	33.3064
9.2752	26.1311
9.1767	26.2894
9.0803	22.5915
8.9858	28.4325
8.8934	28.9615
8.8028	29.5934
8.714	26.9091
8.627	27.8466
8.5417	25.1673
8.4581	22.4347
8.3761	21.3524
8.2957	25.1502
8.2169	24.5723
8.1395	20.1528
8.0635	20.9688
7.989	21.6944
7.9158	22.0601
7.8439	22.4554
7.7734	20.0646
7.7041	18.1726
7.636	18.3324
7.5691	17.8219
7.5034	15.5237
7.4388	14.583
7.3753	13.6892
7.3129	11.8235
7.2515	10.4244
7.1912	9.5031
7.1318	9.0524
7.0734	9.9129
7.016	13.5472
6.9595	13.3438
6.9039	13.2324
6.8492	13.6471
6.7953	14.2502
6.7423	14.9589
6.6901	16.0608
6.6387	18.1847
6.5881	20.1604
6.5382	21.7372
6.4892	24.3603
6.4408	26.673
6.3931	28.712
6.3462	26.6813
6.2999	15.0747
6.2543	8.3045
6.2094	6.044
6.1651	5.304
6.1214	4.2272
6.0784	3.7505
6.0359	4.0639
5.994	4.8678
5.9527	5.7065
5.912	7.0045
5.8718	8.1001
5.8322	9.2936
5.7931	10.0418
5.7545	11.0549
5.7165	12.2205
5.6789	12.9472
5.6418	12.5242
5.6052	11.3263
5.5691	8.8024
5.5334	5.0436
5.4982	3.5323
5.4635	7.1011
5.4291	19.5306
5.3952	29.9161
5.3618	36.1903
5.3287	40.1902
5.2961	43.298
5.2638	47.4216
5.2319	51.9907
5.2004	55.5939
5.1693	58.6255
5.1386	61.2174
5.1082	62.752
5.0782	60.6602
5.0485	60.9688
5.0192	67.3556
4.9902	68.7549
4.9616	69.6658
4.9332	70.1878
4.9052	70.7478
4.8776	71.0342
4.8502	71.2023
4.8231	71.1787
4.7963	70.9105
4.7699	70.51
4.7437	69.6982
4.7178	67.7688
4.6922	63.5399
4.6668	55.2463
4.6418	49.6271
4.617	48.5169
4.5924	51.5573
4.5681	56.3273
4.5441	59.4719
4.5203	61.8037
4.4968	65.7597
4.4735	65.8896
4.4505	62.2786
4.4277	62.1696
4.4051	65.4763
4.3828	68.606
4.3607	70.7619
4.3388	67.9099
4.3171	65.4472
4.2956	64.6802
4.2744	64.594
4.2534	66.5136
4.2325	66.6347
4.2119	67.0368
4.1915	68.2104
4.1712	66.8856
4.1512	64.5401
4.1313	64.0831
4.1117	63.2216
4.0922	61.2807
4.0729	57.6955
4.0538	52.9216
4.0349	45.8447
4.0161	35.9942
3.9976	24.4785
3.9792	14.1771
3.9609	8.7966
3.9428	9.0056
3.9249	10.0687
3.9072	12.9639
3.8896	17.1221
3.8722	18.5586
3.8549	23.8961
3.8378	30.82
3.8208	25.2932
3.804	19.6636
3.7873	25.6247
3.7708	34.1794
3.7544	44.7233
3.7382	56.245
3.7221	60.7323
3.7061	62.7542
3.6903	64.8158
3.6746	65.9996
3.659	66.4622
3.6436	66.3791
3.6283	66.1564
3.6131	65.5998
3.5981	65.0295
3.5832	64.3745
3.5684	62.725
3.5537	57.7334
3.5391	56.4593
3.5247	52.4341
3.5104	43.1414
3.4962	29.8782
3.4821	22.0044
3.4681	18.2105
3.4543	16.0893
3.4405	17.7138
3.4269	23.4665
3.4133	25.6867
3.3999	26.9971
3.3866	28.5561
3.3733	31.4146
3.3602	28.045
3.3472	25.2013
3.3343	24.0696
3.3215	23.4161
3.3088	20.6811
3.2961	31.7635
3.2836	47.2189
3.2712	52.2626
3.2588	54.9603
3.2466	56.7472
3.2345	57.9824
3.2224	58.9286
3.2104	59.5466
3.1985	60.0412
3.1867	60.1763
3.175	60.2582
3.1634	59.9873
3.1519	59.466
3.1404	58.4766
3.129	58.6212
3.1178	58.7365
3.1065	58.8675
3.0954	58.7948
3.0844	58.1094
3.0734	58.5579
3.0625	59.1727
3.0517	59.5697
3.041	59.6725
3.0303	60.1306
3.0197	60.7221
3.0092	60.7856
2.9987	61.2091
2.9884	60.8145
2.9781	60.8782
2.9678	60.9818
2.9577	60.9943
2.9476	61.1325
2.9376	61.1188
2.9276	61.3403
2.9177	61.5927
2.9079	62.073
2.8982	63.052
2.8885	63.7085
2.8789	64.2295
2.8693	64.6193
2.8598	65.3839
2.8504	65.33
2.841	66.4709
2.8317	67.6523
2.8224	68.784
2.8133	69.4492
2.8041	69.796
2.7951	69.6774
2.786	69.5877
2.7771	68.6397
2.7682	68.1908
2.7594	70.3808
2.7506	72.7004
2.7418	75.385
2.7332	77.795
2.7246	79.6093
2.716	80.897
2.7075	82.5041
2.699	83.1667
2.6906	83.6065
2.6823	84.7115
2.674	86.1525
2.6657	87.6881
2.6575	87.9007
2.6494	88.3072
2.6413	88.7437
2.6332	88.9526
2.6252	89.1025
2.6173	89.488
2.6094	89.3449
2.6015	89.2609
2.5937	89.55
2.5859	89.1569
2.5782	88.6073
2.5706	88.1146
2.5629	87.3442
2.5554	86.1313
2.5478	84.1219
2.5403	80.6611
2.5329	76.8444
2.5255	74.1879
2.5181	72.7572
2.5108	72.8281
2.5035	73.8676
2.4963	74.8859
2.4891	76.3641
2.482	77.6099
2.4749	78.3383
2.4678	78.6394
2.4608	79.0461
2.4538	80.1718
2.4468	81.4343
2.4399	83.0977
2.4331	84.2879
2.4262	85.4468
2.4194	86.6595
2.4127	87.3829
2.4059	87.9351
2.3993	88.2631
2.3926	88.7566
2.386	89.1157
2.3795	89.3664
2.3729	89.6657
2.3664	89.7391
2.36	89.5055
2.3535	88.7285
2.3471	86.8214
2.3408	84.6915
2.3345	82.5485
2.3282	80.8917
2.3219	80.4361
2.3157	80.9207
2.3095	81.215
2.3034	81.8414
2.2972	82.5642
2.2911	83.0691
2.2851	83.6697
2.279	83.7466
2.2731	84.1885
2.2671	84.5765
2.2612	85.4173
2.2553	86.389
2.2494	87.3629
2.2435	88.0363
2.2377	88.64
2.232	89.2062
2.2262	89.576
2.2205	89.703
2.2148	90.0873
2.2091	90.3257
2.2035	90.6099
2.1979	90.9312
2.1923	90.9851
2.1868	91.3939
2.1812	91.492
2.1758	91.4728
2.1703	91.5373
2.1649	91.544
2.1595	91.5631
2.1541	91.2416
2.1487	91.2778
2.1434	91.0118
2.1381	91.0915
2.1328	91.2725
2.1275	91.3645
2.1223	91.4604
2.1171	91.5582
2.112	91.7254
2.1068	91.5797
2.1017	91.9708
2.0966	91.7065
2.0915	92.0277
2.0865	91.7739
2.0814	92.2641
2.0764	91.8813
2.0715	92.1626
2.0665	92.0459
2.0616	92.1096
2.0567	92.2772
2.0518	92.2593
2.0469	92.2347
2.0421	92.2013
2.0373	92.1386
2.0325	92.1947
2.0277	92.436
2.0229	92.0427
2.0182	91.8951
2.0135	91.7748
2.0088	91.9094
2.0042	91.6758
