Name: Sphalerite (Zn,Fe)S
Type: Mineral
Class: Sulfide
Subclass: None
Particle Size: Fine
Sample No.: S-1A
Owner: JPL
Wavelength Range: VSWIR
Origin: USA, Oklahoma, Ottawa County, Picher
Description: Particle size was 0-45um.Collected by JPL Original ASTER Spectral Library name was jpl.beckman.mineral.sulfide.none.fine.s01a.spectrum.txt
Measurement: Hemispherical reflectance
X Units: Wavelength (micrometers)
Y Units: Reflectance (percent)
wavelength	value
0.4	19.25
0.403	20.25
0.406	20.95
0.409	21.48
0.412	22.13
0.415	22.69
0.418	23.04
0.421	23.35
0.424	23.79
0.427	24.06
0.43	24.53
0.433	24.76
0.436	25.18
0.439	25.59
0.442	26.13
0.445	26.6
0.448	26.97
0.451	27.36
0.454	28.03
0.457	28.35
0.46	28.52
0.463	29
0.466	29.38
0.469	29.84
0.472	30.29
0.475	30.75
0.478	31.37
0.481	31.67
0.484	32.2
0.487	32.57
0.49	32.82
0.493	33.27
0.496	33.66
0.499	33.96
0.502	34.7
0.505	35.09
0.508	35.58
0.511	36.07
0.514	36.48
0.517	37.04
0.52	37.29
0.523	37.79
0.526	38.24
0.529	38.69
0.532	39.21
0.535	39.44
0.538	39.87
0.541	40.14
0.544	40.72
0.547	41.07
0.55	41.33
0.553	41.77
0.556	42.09
0.559	42.32
0.562	42.93
0.565	43.26
0.568	43.55
0.571	43.71
0.574	43.77
0.577	44
0.58	44.3
0.583	44.54
0.586	44.78
0.589	44.9
0.592	45.17
0.595	45.38
0.598	45.61
0.601	45.78
0.604	45.91
0.607	46.09
0.61	46.32
0.613	46.33
0.616	46.44
0.619	46.38
0.622	46.59
0.625	46.7
0.628	46.82
0.631	46.9
0.634	46.96
0.637	47.08
0.64	47.19
0.643	47.39
0.646	47.56
0.649	47.62
0.652	47.88
0.655	48.03
0.658	48.26
0.661	48.43
0.664	48.51
0.667	48.77
0.67	48.95
0.673	49.11
0.676	49.37
0.679	49.55
0.682	49.75
0.685	49.98
0.688	50.15
0.691	50.27
0.694	50.45
0.697	50.73
0.7	50.84
0.703	51.13
0.706	51.38
0.709	51.62
0.712	51.81
0.715	52.14
0.718	52.34
0.721	52.53
0.724	52.8
0.727	53.09
0.73	53.23
0.733	53.53
0.736	53.66
0.739	53.62
0.742	53.92
0.745	54.08
0.748	54.08
0.751	54.22
0.754	54.22
0.757	54.43
0.76	54.59
0.763	54.58
0.766	54.76
0.769	54.83
0.772	54.91
0.775	55.04
0.778	55.13
0.781	55.17
0.784	55.22
0.787	55.33
0.79	55.43
0.793	55.38
0.796	55.55
0.799	55.43
0.808	56.04
0.82	56.28
0.832	56.54
0.844	56.84
0.856	56.96
0.868	57.18
0.88	57.3
0.892	57.57
0.904	57.84
0.916	58.02
0.928	58.04
0.94	58.23
0.952	58.26
0.964	58.37
0.976	58.36
0.988	58.36
1	58.56
1.012	58.69
1.024	58.59
1.036	58.64
1.048	58.61
1.06	58.61
1.072	58.6
1.084	58.57
1.096	58.61
1.108	58.69
1.12	58.78
1.132	58.7
1.144	58.61
1.156	58.56
1.168	58.44
1.18	58.55
1.192	58.59
1.204	58.63
1.216	58.55
1.228	58.49
1.24	58.4
1.252	58.46
1.264	58.37
1.276	58.32
1.288	58.38
1.3	58.4
1.312	58.36
1.324	58.26
1.336	58.3
1.348	58.26
1.36	58.24
1.372	58.19
1.384	58.2
1.396	58.12
1.408	58.03
1.42	58.08
1.432	58.04
1.444	58.05
1.456	58.16
1.468	58.12
1.48	58.12
1.492	58.19
1.504	58.06
1.516	58.16
1.528	58.1
1.54	58.15
1.552	58.1
1.564	57.96
1.576	58.03
1.588	58.08
1.6	58.14
1.612	58.21
1.624	58.17
1.636	58.14
1.648	58.23
1.66	58.24
1.672	58.32
1.684	58.36
1.696	58.44
1.708	58.58
1.72	58.73
1.732	58.93
1.744	59.1
1.756	59.29
1.768	59.41
1.78	59.61
1.792	59.71
1.804	59.86
1.816	59.74
1.828	59.83
1.84	59.82
1.852	59.75
1.864	59.8
1.876	59.72
1.888	59.59
1.9	59.27
1.912	59.03
1.924	58.73
1.936	58.18
1.948	57.75
1.96	57.21
1.972	56.64
1.984	55.99
1.996	55.45
2.008	54.68
2.02	53.86
2.032	53
2.044	52.08
2.056	50.95
2.068	49.8
2.08	48.8
2.092	47.65
2.104	46.55
2.116	45.49
2.128	44.36
2.14	43.05
2.152	41.82
2.164	40.57
2.176	39.46
2.188	38.3
2.2	37.26
2.212	36.1
2.224	35.06
2.236	34.1
2.248	33.05
2.26	32.12
2.272	31.25
2.284	30.4
2.296	29.46
2.308	28.54
2.32	27.74
2.332	27.12
2.344	26.44
2.356	25.81
2.368	25.24
2.38	24.62
2.392	24.05
2.404	23.59
2.416	23.13
2.428	22.65
2.44	22.22
2.452	21.78
2.464	21.37
2.476	20.99
2.488	20.82
2.5	20.52
