Name: Fluorite CaF_2
Type: Mineral
Class: Halide
Subclass: None
Particle Size: Coarse
Sample No.: H-2B
Owner: JPL
Wavelength Range: TIR
Origin: United Kingdom, England, Durham County, Weardal
Description: Particle size was 125-500um.Collected by Ward's Original ASTER Spectral Library name was jpl.nicolet.mineral.halide.none.coarse.h02b.spectrum.txt
Measurement: Hemispherical reflectance
X Units: Wavelength (micrometers)
Y Units: Reflectance (percent)
wavelength	value
15.3853	0.6945
15.1161	0.6085
14.8563	0.7498
14.6052	0.9906
14.3624	1.0258
14.1276	0.7957
13.9004	0.9175
13.6803	1.1089
13.4671	1.5395
13.2604	1.8549
13.06	2.4245
12.8656	3.5553
12.6769	4.077
12.4936	5.0435
12.3155	4.2955
12.1425	5.2904
11.9742	6.6492
11.8106	7.5858
11.6513	8.8275
11.4963	9.5976
11.3454	10.6176
11.1983	12.1198
11.0551	13.3877
10.9154	14.5135
10.7793	15.5219
10.6465	16.5567
10.5169	17.2829
10.3904	17.8095
10.267	18.0152
10.1464	18.2142
10.0287	17.5791
9.9136	17.1726
9.8012	16.9351
9.6913	17.2849
9.5838	17.5791
9.4787	17.8352
9.3758	19.9542
9.2752	21.4364
9.1767	22.2658
9.0803	23.491
8.9858	24.0391
8.8934	23.9514
8.8028	23.3467
8.714	23.9145
8.627	23.605
8.5417	29.9162
8.4581	32.9914
8.3761	34.4825
8.2957	35.0129
8.2169	35.1287
8.1395	33.138
8.0635	30.3911
7.989	28.961
7.9158	28.3121
7.8439	27.9571
7.7734	28.1361
7.7041	28.4985
7.636	28.7255
7.5691	28.6481
7.5034	28.4519
7.4388	27.7808
7.3753	27.4508
7.3129	26.8227
7.2515	25.8198
7.1912	23.656
7.1318	21.4753
7.0734	20.8027
7.016	21.1513
6.9595	22.5698
6.9039	23.0036
6.8492	23.484
6.7953	23.4045
6.7423	21.6318
6.6901	21.0605
6.6387	21.9306
6.5881	21.1854
6.5382	21.8181
6.4892	24.9534
6.4408	24.2546
6.3931	23.762
6.3462	23.2182
6.2999	20.8103
6.2543	18.9116
6.2094	16.94
6.1651	15.3355
6.1214	14.7487
6.0784	15.0696
6.0359	15.6428
5.994	17.4456
5.9527	19.2564
5.912	22.058
5.8718	25.9918
5.8322	29.5377
5.7931	31.8454
5.7545	34.6852
5.7165	36.9034
5.6789	36.5016
5.6418	35.4265
5.6052	33.7707
5.5691	33.8198
5.5334	34.4251
5.4982	35.5417
5.4635	36.9841
5.4291	36.2556
5.3952	34.201
5.3618	33.5658
5.3287	33.429
5.2961	33.6139
5.2638	33.914
5.2319	35.1
5.2004	36.3243
5.1693	35.8666
5.1386	35.4496
5.1082	35.0924
5.0782	34.1884
5.0485	33.714
5.0192	33.5608
4.9902	33.3565
4.9616	34.2259
4.9332	35.1151
4.9052	37.1688
4.8776	41.4882
4.8502	44.1309
4.8231	45.719
4.7963	46.8094
4.7699	47.6771
4.7437	48.2749
4.7178	48.4503
4.6922	47.0992
4.6668	47.7092
4.6418	49.7394
4.617	51.3023
4.5924	52.2176
4.5681	52.5686
4.5441	52.026
4.5203	50.3497
4.4968	47.9644
4.4735	47.3224
4.4505	48.3433
4.4277	49.5834
4.4051	51.0411
4.3828	52.9546
4.3607	54.9692
4.3388	56.2474
4.3171	56.8385
4.2956	56.7305
4.2744	53.8173
4.2534	56.6166
4.2325	58.6592
4.2119	59.1788
4.1915	59.4307
4.1712	60.332
4.1512	61.074
4.1313	61.7299
4.1117	62.4673
4.0922	63.2041
4.0729	63.7365
4.0538	63.983
4.0349	64.027
4.0161	64.1155
3.9976	64.2778
3.9792	64.5908
3.9609	65.0938
3.9428	65.5657
3.9249	65.8398
3.9072	65.9569
3.8896	65.8129
3.8722	65.5757
3.8549	65.4061
3.8378	65.4323
3.8208	65.5545
3.804	65.6725
3.7873	65.5271
3.7708	65.2131
3.7544	64.8949
3.7382	64.5406
3.7221	64.4536
3.7061	64.5173
3.6903	64.5052
3.6746	64.3984
3.659	64.2023
3.6436	63.7283
3.6283	63.2267
3.6131	62.7161
3.5981	62.1362
3.5832	61.5465
3.5684	60.7903
3.5537	60.0529
3.5391	59.2574
3.5247	58.3449
3.5104	57.0749
3.4962	55.9311
3.4821	54.9874
3.4681	53.9592
3.4543	52.8232
3.4405	51.3044
3.4269	49.657
3.4133	48.062
3.3999	47.0142
3.3866	45.7669
3.3733	44.0308
3.3602	42.8801
3.3472	41.3953
3.3343	39.8382
3.3215	38.2176
3.3088	36.5131
3.2961	34.8946
3.2836	33.2658
3.2712	31.694
3.2588	30.1493
3.2466	28.5863
3.2345	26.998
3.2224	25.633
3.2104	24.3175
3.1985	22.9073
3.1867	21.6539
3.175	20.4236
3.1634	19.313
3.1519	18.228
3.1404	17.3565
3.129	16.5484
3.1178	15.751
3.1065	15.0401
3.0954	14.4672
3.0844	14.0511
3.0734	13.7013
3.0625	13.1689
3.0517	12.968
3.041	12.8213
3.0303	12.2769
3.0197	12.0981
3.0092	11.8846
2.9987	11.4944
2.9884	11.0399
2.9781	10.7664
2.9678	10.5317
2.9577	10.4706
2.9476	10.555
2.9376	10.6011
2.9276	10.6457
2.9177	10.3895
2.9079	10.7392
2.8982	10.9976
2.8885	11.1802
2.8789	11.3972
2.8693	11.7991
2.8598	12.2385
2.8504	12.9128
2.841	13.1879
2.8317	13.9559
2.8224	14.6973
2.8133	15.4907
2.8041	16.5838
2.7951	17.1454
2.786	18.9285
2.7771	20.1487
2.7682	21.9741
2.7594	23.4187
2.7506	26.0744
2.7418	30.6724
2.7332	34.7376
2.7246	41.7163
2.716	46.2559
2.7075	52.1619
2.699	56.3182
2.6906	59.8193
2.6823	62.5366
2.674	64.4248
2.6657	68.0694
2.6575	66.198
2.6494	66.8732
2.6413	67.7436
2.6332	68.7642
2.6252	69.1908
2.6173	71.034
2.6094	70.1716
2.6015	70.1398
2.5937	72.2632
2.5859	70.4228
2.5782	70.14
2.5706	70.5325
2.5629	71.1207
2.5554	69.844
2.5478	70.1017
2.5403	69.7986
2.5329	70.0688
2.5255	69.9622
2.5181	69.9879
2.5108	70.3457
2.5035	70.2313
2.4963	70.5875
2.4891	70.8472
2.482	71.039
2.4749	71.1576
2.4678	71.4441
2.4608	71.7329
2.4538	71.9537
2.4468	72.3339
2.4399	72.3713
2.4331	72.6467
2.4262	73.0049
2.4194	73.1832
2.4127	73.2856
2.4059	73.3813
2.3993	73.5323
2.3926	73.7757
2.386	74.0144
2.3795	74.1522
2.3729	74.1618
2.3664	74.3812
2.36	74.3685
2.3535	74.6317
2.3471	74.6528
2.3408	74.8414
2.3345	74.9855
2.3282	75.1189
2.3219	75.1642
2.3157	75.2812
2.3095	75.1961
2.3034	75.178
2.2972	75.1904
2.2911	75.2751
2.2851	75.3871
2.279	75.2604
2.2731	75.3853
2.2671	75.3794
2.2612	75.4066
2.2553	75.4858
2.2494	75.4629
2.2435	75.5806
2.2377	75.4672
2.232	75.3646
2.2262	75.4706
2.2205	75.4364
2.2148	75.4591
2.2091	75.2503
2.2035	75.4146
2.1979	75.3011
2.1923	75.4512
2.1868	75.3318
2.1812	75.162
2.1758	75.1619
2.1703	75.2319
2.1649	75.2296
2.1595	75.1824
2.1541	75.1912
2.1487	75.1263
2.1434	75.0019
2.1381	74.9748
2.1328	74.9118
2.1275	75.0045
2.1223	74.9614
2.1171	74.9268
2.112	74.5595
2.1068	74.9338
2.1017	74.7008
2.0966	74.5351
2.0915	74.3784
2.0865	74.38
2.0814	74.5739
2.0764	74.0979
2.0715	74.4188
2.0665	74.1345
2.0616	73.9827
2.0567	73.4958
2.0518	73.6508
2.0469	73.3652
2.0421	73.6419
2.0373	73.1547
2.0325	72.8874
2.0277	73.0155
2.0229	72.4256
2.0182	72.2379
2.0135	71.9742
2.0088	71.5962
2.0042	71.6616
