Name: Corrensite (Mg,Fe)_9(Si,Al)_8O_20(OH)_10._xH_2O
Type: Mineral
Class: Silicate
Subclass: Phyllosilicate
Particle Size: Medium
Sample No.: PS-10A
Owner: JPL
Wavelength Range: TIR
Origin: USA, Washington, Packwood
Description: Particle size was 45-125um.Collected by Clay Mineral Society Original ASTER Spectral Library name was jpl.nicolet.mineral.silicate.phyllosilicate.medium.ps10a.spectrum.txt
Measurement: Hemispherical reflectance
X Units: Wavelength (micrometers)
Y Units: Reflectance (percent)
wavelength	value
15.3853	1.8344
15.1161	1.9107
14.8563	1.8636
14.6052	1.6771
14.3624	1.8646
14.1276	1.9757
13.9004	1.9785
13.6803	2.0712
13.4671	2.1231
13.2604	2.3009
13.06	2.2477
12.8656	2.5861
12.6769	2.0758
12.4936	2.2241
12.3155	1.707
12.1425	2.0281
11.9742	2.4004
11.8106	2.6003
11.6513	2.8023
11.4963	3.0568
11.3454	3.1458
11.1983	3.2338
11.0551	3.7492
10.9154	3.9563
10.7793	4.2381
10.6465	4.9722
10.5169	5.3257
10.3904	5.4359
10.267	6.1401
10.1464	6.48
10.0287	7.6261
9.9136	8.3416
9.8012	8.8001
9.6913	9.2027
9.5838	9.4017
9.4787	8.656
9.3758	8.2166
9.2752	8.6155
9.1767	8.1524
9.0803	7.662
8.9858	7.4047
8.8934	7.0468
8.8028	6.9627
8.714	7.0646
8.627	6.6197
8.5417	7.8625
8.4581	8.2641
8.3761	8.5129
8.2957	8.6281
8.2169	8.0957
8.1395	6.9371
8.0635	5.0602
7.989	3.8691
7.9158	3.2171
7.8439	2.5731
7.7734	2.4439
7.7041	2.5256
7.636	2.3629
7.5691	2.448
7.5034	2.3761
7.4388	2.45
7.3753	2.6195
7.3129	2.6566
7.2515	2.8199
7.1912	3.1037
7.1318	3.1832
7.0734	3.2563
7.016	3.3566
6.9595	3.653
6.9039	3.7492
6.8492	3.8319
6.7953	3.9696
6.7423	3.9322
6.6901	3.9359
6.6387	4.1363
6.5881	4.0717
6.5382	4.2107
6.4892	4.4652
6.4408	4.4882
6.3931	4.2099
6.3462	3.6608
6.2999	3.3046
6.2543	3.0458
6.2094	2.6065
6.1651	2.2578
6.1214	2.2056
6.0784	2.1947
6.0359	2.2586
5.994	2.55
5.9527	2.8296
5.912	3.305
5.8718	4.0642
5.8322	4.7005
5.7931	5.19
5.7545	5.6389
5.7165	5.8778
5.6789	5.9074
5.6418	5.5527
5.6052	5.3017
5.5691	5.4551
5.5334	6.1019
5.4982	6.6829
5.4635	7.4965
5.4291	7.6605
5.3952	6.8957
5.3618	6.593
5.3287	6.716
5.2961	7.136
5.2638	7.862
5.2319	8.9986
5.2004	10.0837
5.1693	10.4249
5.1386	10.589
5.1082	10.9175
5.0782	10.7474
5.0485	10.8692
5.0192	11.0023
4.9902	11.4871
4.9616	12.7975
4.9332	13.8806
4.9052	15.1665
4.8776	16.8673
4.8502	17.8905
4.8231	18.4516
4.7963	18.9613
4.7699	19.3188
4.7437	19.8709
4.7178	20.3269
4.6922	20.6236
4.6668	21.1301
4.6418	22.0081
4.617	22.9551
4.5924	23.6806
4.5681	24.3222
4.5441	24.8792
4.5203	25.1072
4.4968	25.2297
4.4735	25.7395
4.4505	26.4005
4.4277	27.1084
4.4051	27.7699
4.3828	28.6959
4.3607	29.3665
4.3388	30.152
4.3171	30.7406
4.2956	31.1305
4.2744	31.721
4.2534	32.4253
4.2325	32.9622
4.2119	33.5056
4.1915	34.0104
4.1712	34.4314
4.1512	35.0225
4.1313	35.4495
4.1117	35.8904
4.0922	36.1379
4.0729	36.3698
4.0538	36.5101
4.0349	36.3334
4.0161	36.3423
3.9976	35.8889
3.9792	35.8399
3.9609	36.0491
3.9428	36.5324
3.9249	36.7757
3.9072	37.0107
3.8896	36.7441
3.8722	36.6194
3.8549	36.4052
3.8378	36.1713
3.8208	36.1469
3.804	36.1052
3.7873	36.0016
3.7708	35.5662
3.7544	35.1405
3.7382	34.6624
3.7221	34.1135
3.7061	33.6931
3.6903	33.0035
3.6746	32.3526
3.659	31.7078
3.6436	31.0976
3.6283	30.2737
3.6131	29.642
3.5981	28.7954
3.5832	28
3.5684	26.9575
3.5537	26.1649
3.5391	25.3034
3.5247	24.2593
3.5104	23.2139
3.4962	22.1828
3.4821	21.5077
3.4681	20.83
3.4543	20.0573
3.4405	19.3194
3.4269	18.3103
3.4133	17.4986
3.3999	16.8127
3.3866	15.9975
3.3733	15.1908
3.3602	14.4284
3.3472	13.6465
3.3343	13.0725
3.3215	12.4669
3.3088	11.7886
3.2961	11.1554
3.2836	10.6021
3.2712	9.9258
3.2588	9.3082
3.2466	8.7607
3.2345	8.3249
3.2224	7.6525
3.2104	7.2846
3.1985	7.0681
3.1867	6.5322
3.175	6.0796
3.1634	5.7454
3.1519	5.3791
3.1404	5.0505
3.129	4.9092
3.1178	4.6478
3.1065	4.403
3.0954	4.3462
3.0844	4.0933
3.0734	4.1623
3.0625	3.9442
3.0517	3.7943
3.041	3.5734
3.0303	3.6883
3.0197	3.6911
3.0092	3.5301
2.9987	3.4404
2.9884	3.4304
2.9781	3.3105
2.9678	3.1241
2.9577	2.9928
2.9476	2.9702
2.9376	2.9374
2.9276	3.0217
2.9177	2.9159
2.9079	3.0765
2.8982	3.0863
2.8885	3.1208
2.8789	3.1674
2.8693	3.1115
2.8598	3.176
2.8504	3.0591
2.841	3.043
2.8317	3.0629
2.8224	3.0895
2.8133	2.8894
2.8041	3.1246
2.7951	2.8608
2.786	3.0846
2.7771	3.038
2.7682	3.623
2.7594	3.8797
2.7506	4.4784
2.7418	5.4697
2.7332	6.9178
2.7246	9.5937
2.716	13.7466
2.7075	20.1998
2.699	25.6046
2.6906	29.7092
2.6823	33.0454
2.674	35.0795
2.6657	36.5783
2.6575	38.4451
2.6494	39.6361
2.6413	40.5064
2.6332	40.9873
2.6252	41.4544
2.6173	41.812
2.6094	42.1505
2.6015	42.7418
2.5937	42.2445
2.5859	42.8224
2.5782	43.0225
2.5706	43.0277
2.5629	43.3169
2.5554	43.5695
2.5478	43.6678
2.5403	43.7363
2.5329	43.8211
2.5255	44.1212
2.5181	44.3076
2.5108	44.4769
2.5035	44.5426
2.4963	44.9123
2.4891	45.2608
2.482	45.5969
2.4749	46.0777
2.4678	46.5722
2.4608	47.144
2.4538	47.6475
2.4468	48.1786
2.4399	48.508
2.4331	48.9366
2.4262	49.4449
2.4194	49.5863
2.4127	49.9049
2.4059	49.6696
2.3993	49.987
2.3926	50.1185
2.386	50.3305
2.3795	50.2678
2.3729	49.9565
2.3664	49.7766
2.36	49.5927
2.3535	49.6349
2.3471	49.7299
2.3408	49.9889
2.3345	50.2549
2.3282	50.8216
2.3219	50.9591
2.3157	51.351
2.3095	51.5691
2.3034	51.5646
2.2972	51.7169
2.2911	52.2538
2.2851	52.9049
2.279	53.7123
2.2731	54.3253
2.2671	54.8855
2.2612	55.1671
2.2553	55.7163
2.2494	56.1759
2.2435	57.3557
2.2377	58.3193
2.232	59.3444
2.2262	60.1521
2.2205	60.7788
2.2148	60.9624
2.2091	61.1646
2.2035	61.5547
2.1979	61.4838
2.1923	62.019
2.1868	62.493
2.1812	62.7978
2.1758	63.0411
2.1703	63.3667
2.1649	63.4412
2.1595	63.7475
2.1541	63.8795
2.1487	63.9752
2.1434	63.5781
2.1381	63.7474
2.1328	63.522
2.1275	63.7207
2.1223	63.9647
2.1171	63.7437
2.112	63.61
2.1068	63.6951
2.1017	63.6283
2.0966	63.734
2.0915	63.5082
2.0865	63.444
2.0814	63.2191
2.0764	62.9723
2.0715	62.7494
2.0665	62.8053
2.0616	62.3461
2.0567	62.1103
2.0518	61.8756
2.0469	61.5697
2.0421	61.5992
2.0373	60.9247
2.0325	60.9376
2.0277	60.6043
2.0229	60.063
2.0182	59.6311
2.0135	59.1372
2.0088	59.159
2.0042	59.0597
