Name: Cordierite Mg_2Al_3(Si_5Al)O_18
Type: Mineral
Class: Silicate
Subclass: Cyclosilicate
Particle Size: Coarse
Sample No.: CS-3A
Owner: JPL
Wavelength Range: TIR
Origin: Canada, Northwest Territories, Mackenzie District, Great Bear Lake
Description: Particle size was 125-500um.Collected by Ward's Original ASTER Spectral Library name was jpl.nicolet.mineral.silicate.cyclosilicate.coarse.cs03a.spectrum.txt
Measurement: Hemispherical reflectance
X Units: Wavelength (micrometers)
Y Units: Reflectance (percent)
wavelength	value
15.3853	2.863
15.1161	3.6454
14.8563	3.9463
14.6052	3.9255
14.3624	3.9638
14.1276	4.2826
13.9004	4.8429
13.6803	6.0742
13.4671	8.0841
13.2604	8.6575
13.06	13.5683
12.8656	11.8057
12.6769	7.1087
12.4936	2.4388
12.3155	2.7769
12.1425	3.3558
11.9742	3.9455
11.8106	4.9106
11.6513	5.5529
11.4963	6.7472
11.3454	8.0453
11.1983	10.6455
11.0551	14.7591
10.9154	13.1426
10.7793	10.0472
10.6465	18.7709
10.5169	27.7833
10.3904	37.3881
10.267	37.6686
10.1464	35.4051
10.0287	22.7963
9.9136	13.8058
9.8012	13.4347
9.6913	13.9291
9.5838	12.6027
9.4787	10.9929
9.3758	7.5388
9.2752	4.8319
9.1767	3.6837
9.0803	3.472
8.9858	3.8573
8.8934	5.2413
8.8028	7.1319
8.714	7.0391
8.627	9.1538
8.5417	14.6317
8.4581	21.042
8.3761	23.3807
8.2957	24.3304
8.2169	23.0211
8.1395	13.473
8.0635	4.5473
7.989	1.5896
7.9158	0.6162
7.8439	0.3095
7.7734	0.2444
7.7041	0.2893
7.636	0.2416
7.5691	0.428
7.5034	0.2971
7.4388	0.4798
7.3753	0.6279
7.3129	0.5121
7.2515	0.6152
7.1912	0.8164
7.1318	0.8813
7.0734	0.91
7.016	0.9692
6.9595	1.1386
6.9039	1.1084
6.8492	1.0965
6.7953	1.0524
6.7423	1.0016
6.6901	1.1749
6.6387	1.3864
6.5881	1.3815
6.5382	1.5146
6.4892	1.5554
6.4408	1.4257
6.3931	1.3908
6.3462	1.4106
6.2999	1.4206
6.2543	1.393
6.2094	1.5206
6.1651	1.4857
6.1214	1.438
6.0784	1.5697
6.0359	1.7396
5.994	1.8916
5.9527	2.0104
5.912	2.0606
5.8718	2.2365
5.8322	2.3389
5.7931	2.3695
5.7545	2.6411
5.7165	2.8419
5.6789	3.1125
5.6418	3.4259
5.6052	3.6856
5.5691	3.9218
5.5334	3.9191
5.4982	3.8492
5.4635	3.563
5.4291	3.1805
5.3952	2.9571
5.3618	2.6337
5.3287	2.4339
5.2961	2.5029
5.2638	2.5579
5.2319	2.7538
5.2004	3.0321
5.1693	3.6272
5.1386	4.5483
5.1082	5.5005
5.0782	6.7563
5.0485	8.2202
5.0192	9.5022
4.9902	10.2744
4.9616	12.2356
4.9332	14.326
4.9052	16.2609
4.8776	17.4864
4.8502	18.5926
4.8231	19.3129
4.7963	19.5034
4.7699	19.6224
4.7437	20.275
4.7178	21.5687
4.6922	22.1598
4.6668	23.0091
4.6418	23.3215
4.617	23.4096
4.5924	23.6348
4.5681	24.6459
4.5441	26.1805
4.5203	26.5943
4.4968	24.7245
4.4735	20.6428
4.4505	20.3811
4.4277	21.5625
4.4051	20.9104
4.3828	10.8084
4.3607	17.5846
4.3388	7.5515
4.3171	10.0655
4.2956	8.7558
4.2744	5.8279
4.2534	3.5812
4.2325	12.3517
4.2119	14.1034
4.1915	8.5155
4.1712	13.7844
4.1512	30.5676
4.1313	33.6741
4.1117	32.8788
4.0922	32.3048
4.0729	29.9205
4.0538	34.3861
4.0349	38.7719
4.0161	40.9749
3.9976	41.9009
3.9792	42.723
3.9609	43.4409
3.9428	43.9739
3.9249	44.3766
3.9072	44.7464
3.8896	45.0967
3.8722	45.2661
3.8549	45.3173
3.8378	45.2372
3.8208	43.601
3.804	46.0581
3.7873	46.4146
3.7708	46.4802
3.7544	46.6208
3.7382	46.5467
3.7221	46.5124
3.7061	46.3367
3.6903	46.163
3.6746	46.1642
3.659	45.9846
3.6436	45.976
3.6283	45.7141
3.6131	45.5749
3.5981	45.2966
3.5832	44.9469
3.5684	44.5841
3.5537	44.2481
3.5391	43.9625
3.5247	43.5877
3.5104	43.0382
3.4962	42.511
3.4821	42.2146
3.4681	41.9333
3.4543	41.7594
3.4405	41.5889
3.4269	41.1234
3.4133	40.6896
3.3999	40.4573
3.3866	40.3175
3.3733	39.8263
3.3602	39.4699
3.3472	39.0845
3.3343	38.8695
3.3215	38.3288
3.3088	37.8003
3.2961	37.3141
3.2836	36.9674
3.2712	36.7292
3.2588	36.1102
3.2466	35.6591
3.2345	35.4426
3.2224	34.7418
3.2104	33.8615
3.1985	32.9134
3.1867	32.5836
3.175	32.3276
3.1634	31.7145
3.1519	31.3782
3.1404	30.9879
3.129	30.4186
3.1178	30.0205
3.1065	29.315
3.0954	27.6274
3.0844	25.9642
3.0734	26.9536
3.0625	27.6584
3.0517	27.6058
3.041	27.448
3.0303	26.8208
3.0197	26.1549
3.0092	25.6658
2.9987	25.156
2.9884	24.3373
2.9781	23.7975
2.9678	22.9726
2.9577	22.2552
2.9476	21.3885
2.9376	20.4626
2.9276	19.5531
2.9177	18.6118
2.9079	17.4541
2.8982	16.5485
2.8885	15.4549
2.8789	14.5052
2.8693	13.4618
2.8598	12.3203
2.8504	11.2924
2.841	10.7184
2.8317	9.9863
2.8224	8.9805
2.8133	7.1055
2.8041	5.2231
2.7951	4.3383
2.786	5.6783
2.7771	6.7762
2.7682	6.3651
2.7594	5.106
2.7506	4.6501
2.7418	5.5498
2.7332	6.0971
2.7246	5.7884
2.716	4.3778
2.7075	3.738
2.699	5.1435
2.6906	9.9953
2.6823	14.7536
2.674	17.5484
2.6657	19.4351
2.6575	20.1918
2.6494	20.4216
2.6413	21.0574
2.6332	21.7074
2.6252	22.0249
2.6173	22.4641
2.6094	22.5308
2.6015	22.9012
2.5937	24.0619
2.5859	23.5304
2.5782	23.9715
2.5706	25.1798
2.5629	26.7447
2.5554	27.0891
2.5478	28.8023
2.5403	31.0838
2.5329	34.2315
2.5255	37.0377
2.5181	39.6225
2.5108	42.077
2.5035	44.4266
2.4963	46.6662
2.4891	48.8883
2.482	50.2283
2.4749	51.7194
2.4678	53.3055
2.4608	54.6429
2.4538	55.8373
2.4468	57.0794
2.4399	57.9241
2.4331	58.8854
2.4262	59.2262
2.4194	60.0401
2.4127	60.9338
2.4059	61.3986
2.3993	61.7182
2.3926	61.9474
2.386	62.3738
2.3795	62.4048
2.3729	62.6225
2.3664	62.8663
2.36	62.7516
2.3535	62.7267
2.3471	62.9558
2.3408	63.0696
2.3345	63.3429
2.3282	63.3261
2.3219	63.4523
2.3157	63.4048
2.3095	63.7261
2.3034	63.4279
2.2972	63.6537
2.2911	63.3863
2.2851	63.3813
2.279	63.3147
2.2731	63.3172
2.2671	63.2115
2.2612	63.2142
2.2553	62.9308
2.2494	63.2453
2.2435	63.406
2.2377	63.6849
2.232	63.7397
2.2262	63.8634
2.2205	63.8022
2.2148	63.7955
2.2091	63.6034
2.2035	63.441
2.1979	63.8381
2.1923	64.1942
2.1868	64.4185
2.1812	64.3216
2.1758	64.4437
2.1703	64.6251
2.1649	65.0474
2.1595	65.4646
2.1541	66.0639
2.1487	66.5518
2.1434	66.67
2.1381	67.0196
2.1328	67.2103
2.1275	67.0763
2.1223	67.4144
2.1171	67.261
2.112	67.1301
2.1068	67.1317
2.1017	67.0952
2.0966	66.7699
2.0915	66.9982
2.0865	67.0196
2.0814	67.2516
2.0764	67.2921
2.0715	68.3604
2.0665	68.3371
2.0616	68.6071
2.0567	69.1615
2.0518	68.6986
2.0469	68.8599
2.0421	68.7861
2.0373	68.73
2.0325	68.9348
2.0277	68.9394
2.0229	68.7103
2.0182	68.2764
2.0135	63.8399
2.0088	68.21
2.0042	67.8498
