Name: Ulexite NaCaB5O6(OH)6 * 5H2O
Type: Mineral
Class: Borate
Subclass: None
Particle Size: Coarse
Sample No.: Ulexite
Owner: USGS
Wavelength Range: All
Origin: Boron, California
Description: Ulexite powder from Boron, CaliforniaSample was Unsieved coarse powder. Original ASTER Spectral Library name was usgs.perknic.mineral.borate.none.coarse.ulexitc.spectrum.txt
Measurement: Directional Hemispherical Reflectance
X Units: Wavelength (micrometers)
Y Units: Reflectance (percent)
wavelength	value
13.9	2.348
13.644	1.885
13.398	2.328
13.16	1.689
12.93	2.019
12.708	2.4
12.494	2.822
12.287	3.183
12.086	3.492
11.892	3.142
11.704	4.027
11.522	4.367
11.346	2.843
11.175	1.658
11.009	1.895
10.848	2.256
10.691	2.359
10.539	2.606
10.391	2.729
10.247	3.275
10.108	3.317
9.972	4.038
9.839	3.523
9.71	2.194
9.585	2.575
9.462	3.193
9.343	3.296
9.226	3.049
9.113	2.843
9.002	2.925
8.894	2.493
8.789	1.7
8.686	1.37
8.585	1.154
8.487	1.349
8.391	1.607
8.297	1.607
8.205	1.926
8.115	1.288
8.027	0.845
7.941	0.989
7.857	1.267
7.774	1.473
7.694	1.638
7.614	2.215
7.537	2.441
7.461	2.029
7.387	1.792
7.314	1.607
7.242	1.236
7.172	1.617
7.103	1.658
7.036	2.111
6.97	2.235
6.905	1.288
6.841	0.803
6.778	0.793
6.717	0.721
6.657	0.731
6.597	0.896
6.539	1.03
6.482	1.154
6.426	1.246
6.37	1.257
6.316	1.298
6.263	1.267
6.21	1.226
6.159	1.133
6.108	1.092
6.058	1.174
6.009	1.164
5.96	1.071
5.913	1.339
5.866	1.432
5.82	1.679
5.775	1.905
5.73	2.173
5.686	2.39
5.643	2.513
5.6	2.637
5.558	2.709
5.517	2.74
5.476	2.74
5.436	2.771
5.396	2.833
5.357	2.833
5.319	2.853
5.281	2.822
5.243	2.853
5.206	2.925
5.17	3.049
5.134	3.028
5.099	3.09
5.064	3.069
5.03	3.049
4.996	3.028
4.962	3.059
4.929	3.038
4.897	3.069
4.865	3.1
4.833	3.049
4.802	2.946
4.771	2.946
4.74	2.833
4.71	2.791
4.68	2.781
4.651	2.812
4.622	2.76
4.593	2.75
4.565	2.719
4.537	2.709
4.509	2.699
4.482	2.719
4.455	2.781
4.428	2.771
4.402	2.833
4.376	2.884
4.35	2.863
4.325	2.905
4.3	2.822
4.275	2.853
4.251	2.863
4.226	2.74
4.202	2.493
4.179	2.462
4.155	2.565
4.132	2.771
4.109	2.688
4.086	2.678
4.064	2.616
4.042	2.596
4.02	2.616
3.998	2.565
3.977	2.575
3.956	2.544
3.935	2.606
3.914	2.771
3.893	2.936
3.873	2.987
3.853	2.987
3.833	2.966
3.813	3.018
3.794	2.966
3.774	3.059
3.755	2.884
3.736	2.936
3.717	3.008
3.699	3.049
3.68	3.172
3.662	3.08
3.644	3.152
3.626	3.049
3.609	2.956
3.591	2.884
3.574	2.833
3.557	2.771
3.54	2.771
3.523	2.606
3.506	2.627
3.49	2.585
3.473	2.575
3.457	2.554
3.441	2.421
3.425	2.379
3.409	2.317
3.394	2.369
3.378	2.184
3.363	2.245
3.348	2.328
3.333	2.225
3.318	2.153
3.303	2.122
3.288	2.07
3.274	2.142
3.259	2.06
3.245	1.998
3.231	1.864
3.217	1.844
3.203	1.689
3.189	1.586
3.176	1.483
3.162	1.566
3.149	1.638
3.135	1.524
3.122	1.483
3.109	1.483
3.096	1.421
3.083	1.339
3.07	1.36
3.058	1.473
3.045	1.36
3.033	1.308
3.02	1.308
3.008	1.205
2.996	1.298
2.984	1.236
2.972	1.246
2.96	1.267
2.948	1.339
2.937	1.442
2.925	1.257
2.913	1.071
2.902	1.009
2.891	0.917
2.879	0.989
2.868	0.989
2.857	1.02
2.846	0.917
2.835	0.906
2.825	0.948
2.814	0.896
2.803	0.999
2.793	1.02
2.782	1.215
2.772	0.845
2.761	1.102
2.751	1.308
2.741	1.813
2.731	2.41
2.721	3.049
2.711	3.924
2.701	4.851
2.691	5.665
2.681	6.252
2.672	7.159
2.662	7.581
2.653	8.353
2.643	8.817
2.634	9.311
2.624	9.94
2.615	10.444
2.606	10.331
2.597	10.712
2.588	10.485
2.579	10.928
2.57	10.897
2.561	11.093
2.552	11.072
2.543	10.691
2.535	10.588
2.526	10.424
2.517	10.619
2.509	10.279
2.5	10.29
2.486	10.201
2.472	10.471
2.458	11.469
2.444	11.891
2.43	12.632
2.416	12.873
2.402	13.712
2.388	14.731
2.374	15.788
2.36	16.544
2.346	17.302
2.332	17.627
2.318	17.943
2.304	18.308
2.29	18.301
2.276	18.008
2.262	17.229
2.248	16.343
2.234	16.365
2.22	15.993
2.206	15.321
2.192	14.289
2.178	13.675
2.164	14.024
2.15	14.733
2.136	14.43
2.122	14.304
2.108	15.12
2.094	15.592
2.08	15.826
2.066	16.102
2.052	16.339
2.038	16.339
2.024	15.896
2.01	15.392
1.996	13.805
1.982	12.728
1.968	11.706
1.954	10.91
1.94	13.232
1.926	16.467
1.912	19.461
1.898	22.689
1.884	25.416
1.87	27.086
1.856	28.226
1.842	29.045
1.828	29.486
1.814	29.759
1.8	29.205
1.786	29.072
1.772	28.979
1.758	29.177
1.744	29.188
1.73	29.527
1.716	29.789
1.702	29.837
1.688	29.984
1.674	30.169
1.66	30.489
1.646	30.518
1.632	31.005
1.618	31.304
1.604	31.695
1.59	32.105
1.576	32.178
1.562	32.012
1.548	31.496
1.534	31.135
1.52	30.664
1.506	29.581
1.492	28.92
1.478	27.738
1.464	27.574
1.45	29.019
1.436	27.207
1.422	31.972
1.408	39.763
1.394	45.691
1.38	49.438
1.366	50.927
1.352	51.897
1.338	53.784
1.324	56.265
1.31	58.367
1.296	59.895
1.282	59.992
1.268	59.846
1.254	59.503
1.24	59.476
1.226	59.608
1.212	60.178
1.198	60.771
1.184	62.59
1.17	65.579
1.156	68.265
1.142	69.777
1.128	70.429
1.114	70.869
1.1	71.161
1.086	71.516
1.072	71.473
1.058	71.225
1.044	70.591
1.03	69.67
1.016	68.805
1.002	68.022
0.988	66.71
0.974	67.141
0.96	70.272
0.946	71.882
0.932	72.374
0.918	72.815
0.904	72.758
0.89	73.226
0.876	73.652
0.862	73.303
0.848	73.212
0.834	73.316
0.82	73.264
0.806	73.202
0.792	73.186
0.778	73.103
0.764	73.058
0.75	73.031
0.736	73.331
0.722	73.467
0.708	73.523
0.694	73.576
0.68	73.614
0.666	73.62
0.652	73.611
0.638	73.597
0.624	73.584
0.61	73.652
0.596	73.7
0.582	73.717
0.568	73.669
0.554	73.644
0.54	73.525
0.526	73.466
0.512	73.437
0.498	73.421
0.484	73.173
0.47	73.083
0.456	72.986
0.442	72.783
0.428	72.61
0.414	72.459
0.4	72.303
