Name: Pyrophyllite Al_2Si_4O_10(OH)_2
Type: Mineral
Class: Silicate
Subclass: Phyllosilicate
Particle Size: Medium
Sample No.: PS-7A
Owner: JPL
Wavelength Range: TIR
Origin: USA, California
Description: Particle size was 45-125um.Collected by Ward's Original ASTER Spectral Library name was jpl.nicolet.mineral.silicate.phyllosilicate.medium.ps07a.spectrum.txt
Measurement: Hemispherical reflectance
X Units: Wavelength (micrometers)
Y Units: Reflectance (percent)
wavelength	value
15.3853	4.7841
15.1161	3.229
14.8563	2.663
14.6052	3.0345
14.3624	3.2594
14.1276	3.7485
13.9004	4.6374
13.6803	4.9386
13.4671	5.0369
13.2604	6.0908
13.06	7.0675
12.8656	8.2145
12.6769	7.9693
12.4936	8.021
12.3155	5.5973
12.1425	6.0128
11.9742	6.4156
11.8106	6.0086
11.6513	5.8586
11.4963	7.371
11.3454	8.6135
11.1983	9.1674
11.0551	9.0867
10.9154	9.5349
10.7793	9.9068
10.6465	11.0379
10.5169	14.778
10.3904	10.4601
10.267	7.6633
10.1464	9.6061
10.0287	10.9745
9.9136	11.9613
9.8012	13.2835
9.6913	15.0746
9.5838	19.3194
9.4787	26.5853
9.3758	33.6665
9.2752	39.9561
9.1767	42.819
9.0803	42.1363
8.9858	26.2881
8.8934	39.1018
8.8028	42.785
8.714	42.5776
8.627	39.6483
8.5417	37.6307
8.4581	33.6223
8.3761	29.5146
8.2957	25.718
8.2169	19.2866
8.1395	12.956
8.0635	8.3756
7.989	5.2147
7.9158	3.0406
7.8439	1.9095
7.7734	1.164
7.7041	0.9479
7.636	0.8369
7.5691	1.0514
7.5034	1.3074
7.4388	1.7802
7.3753	2.188
7.3129	2.6618
7.2515	3.4043
7.1912	3.9052
7.1318	4.5592
7.0734	5.1301
7.016	6.0587
6.9595	6.4143
6.9039	6.8637
6.8492	7.1103
6.7953	7.7483
6.7423	8.1385
6.6901	8.9038
6.6387	9.804
6.5881	9.5664
6.5382	9.8629
6.4892	11.5756
6.4408	12.3428
6.3931	12.3599
6.3462	12.1704
6.2999	11.7976
6.2543	11.4965
6.2094	11.4509
6.1651	12.1733
6.1214	13.626
6.0784	14.4996
6.0359	15.4412
5.994	15.2934
5.9527	13.9686
5.912	13.7142
5.8718	14.3343
5.8322	13.9269
5.7931	12.2983
5.7545	12.3292
5.7165	12.6361
5.6789	12.7004
5.6418	11.8673
5.6052	11.1624
5.5691	10.9566
5.5334	11.1327
5.4982	11.5123
5.4635	11.8648
5.4291	11.3963
5.3952	9.9157
5.3618	8.0941
5.3287	6.8561
5.2961	6.472
5.2638	8.302
5.2319	10.567
5.2004	12.1821
5.1693	13.1105
5.1386	14.2627
5.1082	13.9711
5.0782	13.6037
5.0485	13.3491
5.0192	14.232
4.9902	15.1792
4.9616	18.5269
4.9332	22.3069
4.9052	26.5677
4.8776	32.4342
4.8502	36.8629
4.8231	38.6341
4.7963	39.9454
4.7699	40.4881
4.7437	42.1908
4.7178	42.9251
4.6922	43.5201
4.6668	45.1952
4.6418	48.1657
4.617	50.1106
4.5924	50.7046
4.5681	49.9904
4.5441	50.1491
4.5203	49.4267
4.4968	48.4335
4.4735	48.5647
4.4505	50.7868
4.4277	53.0358
4.4051	54.0361
4.3828	55.6832
4.3607	57.4846
4.3388	58.735
4.3171	59.1918
4.2956	59.0736
4.2744	59.9418
4.2534	61.6807
4.2325	62.7366
4.2119	63.6466
4.1915	63.9014
4.1712	64.5374
4.1512	65.0171
4.1313	65.3341
4.1117	65.7835
4.0922	66.1819
4.0729	66.4723
4.0538	66.6879
4.0349	66.8415
4.0161	66.8584
3.9976	67.0995
3.9792	67.2454
3.9609	67.5359
3.9428	67.7365
3.9249	67.8137
3.9072	67.7711
3.8896	67.5732
3.8722	67.3994
3.8549	67.2316
3.8378	66.9923
3.8208	66.7838
3.804	66.6467
3.7873	66.3352
3.7708	66.0275
3.7544	65.7712
3.7382	65.539
3.7221	65.1475
3.7061	64.4134
3.6903	58.5901
3.6746	60.2501
3.659	61.9148
3.6436	64.079
3.6283	65.0017
3.6131	65.0804
3.5981	64.6753
3.5832	64.2124
3.5684	64.2227
3.5537	64.2022
3.5391	63.9179
3.5247	63.4915
3.5104	62.2737
3.4962	61.9222
3.4821	61.997
3.4681	62.0781
3.4543	61.6925
3.4405	60.8699
3.4269	59.261
3.4133	58.5477
3.3999	59.1513
3.3866	58.9602
3.3733	58.5079
3.3602	58.7506
3.3472	58.5559
3.3343	58.5127
3.3215	58.1903
3.3088	57.7845
3.2961	57.1365
3.2836	56.5959
3.2712	56.6902
3.2588	56.2607
3.2466	55.6091
3.2345	55.149
3.2224	54.8835
3.2104	54.4409
3.1985	54.0845
3.1867	53.6433
3.175	52.5268
3.1634	52.1924
3.1519	52.189
3.1404	52.0768
3.129	51.687
3.1178	51.1547
3.1065	50.3349
3.0954	49.9701
3.0844	49.6803
3.0734	49.2923
3.0625	48.8185
3.0517	48.4211
3.041	48.1625
3.0303	47.3534
3.0197	46.8189
3.0092	44.7682
2.9987	44.5419
2.9884	43.3467
2.9781	42.1491
2.9678	42.677
2.9577	44.2034
2.9476	45.5904
2.9376	44.9311
2.9276	43.0594
2.9177	41.3271
2.9079	42.7738
2.8982	41.601
2.8885	40.0581
2.8789	40.1113
2.8693	36.9734
2.8598	37.809
2.8504	38.5318
2.841	39.4486
2.8317	41.7842
2.8224	42.031
2.8133	40.7313
2.8041	39.9391
2.7951	38.9744
2.786	35.5159
2.7771	35.5442
2.7682	30.0943
2.7594	25.0162
2.7506	22.9241
2.7418	13.9067
2.7332	12.5407
2.7246	8.9097
2.716	6.6947
2.7075	11.4024
2.699	18.5175
2.6906	28.2802
2.6823	35.553
2.674	40.1431
2.6657	44.9459
2.6575	46.7981
2.6494	48.7265
2.6413	48.3669
2.6332	48.7912
2.6252	48.4304
2.6173	45.9164
2.6094	40.0359
2.6015	40.8295
2.5937	44.3641
2.5859	48.0159
2.5782	51.7691
2.5706	49.5412
2.5629	52.3986
2.5554	52.183
2.5478	49.6906
2.5403	53.3942
2.5329	54.0433
2.5255	52.325
2.5181	49.0132
2.5108	47.0255
2.5035	47.6756
2.4963	48.6117
2.4891	49.7551
2.482	50.809
2.4749	54.133
2.4678	54.583
2.4608	55.0095
2.4538	54.602
2.4468	55.4976
2.4399	55.6007
2.4331	54.2832
2.4262	54.777
2.4194	56.2871
2.4127	56.9218
2.4059	56.5112
2.3993	56.6477
2.3926	55.8865
2.386	56.9704
2.3795	59.6927
2.3729	62.4031
2.3664	61.0309
2.36	60.2328
2.3535	59.6979
2.3471	59.0397
2.3408	61.4499
2.3345	61.3837
2.3282	57.8873
2.3219	53.9372
2.3157	55.0035
2.3095	58.1997
2.3034	60.3385
2.2972	61.8304
2.2911	62.6295
2.2851	64.2607
2.279	66.7066
2.2731	69.2888
2.2671	70.7335
2.2612	71.6962
2.2553	72.5974
2.2494	73.8112
2.2435	74.5005
2.2377	75.371
2.232	75.5494
2.2262	74.6216
2.2205	71.7999
2.2148	72.3049
2.2091	70.3394
2.2035	72.4333
2.1979	73.0183
2.1923	72.467
2.1868	70.5622
2.1812	65.6994
2.1758	56.0223
2.1703	42.8783
2.1649	40.8927
2.1595	53.858
2.1541	62.1993
2.1487	69.2432
2.1434	73.502
2.1381	74.8313
2.1328	76.4255
2.1275	77.925
2.1223	80.273
2.1171	81.2432
2.112	82.8016
2.1068	83.8778
2.1017	83.7658
2.0966	83.5447
2.0915	82.348
2.0865	80.2795
2.0814	79.0566
2.0764	80.7008
2.0715	80.8439
2.0665	80.4071
2.0616	81.3892
2.0567	83.4068
2.0518	84.9961
2.0469	85.6
2.0421	86.1175
2.0373	86.1018
2.0325	85.9936
2.0277	86.0974
2.0229	85.8918
2.0182	85.9201
2.0135	85.9222
2.0088	86.1147
2.0042	86.2716
