Name: Arsenopyrite FeAsS
Type: Mineral
Class: Sulfide
Subclass: None
Particle Size: Coarse
Sample No.: S-5A
Owner: JPL
Wavelength Range: TIR
Origin: USA, Nevada, Lander County, Austin
Description: Particle size was 125-500um.Collected by Burminco Original ASTER Spectral Library name was jpl.nicolet.mineral.sulfide.none.coarse.s05a.spectrum.txt
Measurement: Hemispherical reflectance
X Units: Wavelength (micrometers)
Y Units: Reflectance (percent)
wavelength	value
15.3853	11.291
15.1161	11.5578
14.8563	11.1754
14.6052	11.4313
14.3624	11.3907
14.1276	11.4422
13.9004	11.4012
13.6803	11.4906
13.4671	11.7759
13.2604	12.055
13.06	12.4704
12.8656	14.0992
12.6769	13.2746
12.4936	13.9349
12.3155	10.6449
12.1425	11.0354
11.9742	11.303
11.8106	11.5388
11.6513	11.4531
11.4963	11.4184
11.3454	11.5381
11.1983	11.6015
11.0551	11.6441
10.9154	11.7556
10.7793	11.8405
10.6465	12.2272
10.5169	12.1301
10.3904	12.2378
10.267	12.4408
10.1464	12.561
10.0287	13.0075
9.9136	13.5385
9.8012	14.0723
9.6913	14.7103
9.5838	15.986
9.4787	17.9965
9.3758	22.6794
9.2752	26.0002
9.1767	26.7374
9.0803	26.9055
8.9858	26.7532
8.8934	26.116
8.8028	24.9589
8.714	23.5084
8.627	20.1236
8.5417	23.7739
8.4581	24.09
8.3761	24.0778
8.2957	24.2772
8.2169	24.1836
8.1395	22.0228
8.0635	18.315
7.989	15.6457
7.9158	13.6536
7.8439	12.3283
7.7734	11.8238
7.7041	11.4059
7.636	11.0422
7.5691	10.6983
7.5034	10.5786
7.4388	10.4628
7.3753	10.3389
7.3129	10.3005
7.2515	10.4266
7.1912	10.4712
7.1318	10.42
7.0734	10.3932
7.016	10.4411
6.9595	10.4282
6.9039	10.3183
6.8492	10.3884
6.7953	10.1245
6.7423	9.8629
6.6901	9.9276
6.6387	10.1588
6.5881	10.1038
6.5382	9.8612
6.4892	10.2991
6.4408	10.2605
6.3931	10.2862
6.3462	10.1878
6.2999	9.69
6.2543	9.5833
6.2094	9.5735
6.1651	9.7122
6.1214	9.9729
6.0784	10.1388
6.0359	10.0935
5.994	10.1308
5.9527	9.8894
5.912	9.9268
5.8718	10.1246
5.8322	10.1956
5.7931	10.2548
5.7545	10.4058
5.7165	10.5113
5.6789	10.3052
5.6418	10.1714
5.6052	9.721
5.5691	9.6643
5.5334	9.708
5.4982	9.9089
5.4635	10.0463
5.4291	9.9371
5.3952	9.5793
5.3618	9.3741
5.3287	9.368
5.2961	9.4643
5.2638	9.3869
5.2319	9.7113
5.2004	9.903
5.1693	9.7791
5.1386	9.7749
5.1082	9.7412
5.0782	9.7296
5.0485	9.6845
5.0192	9.6576
4.9902	9.6647
4.9616	9.7675
4.9332	9.9567
4.9052	10.3362
4.8776	10.86
4.8502	11.2384
4.8231	11.3303
4.7963	11.451
4.7699	11.5279
4.7437	11.6551
4.7178	11.5339
4.6922	11.3892
4.6668	11.3765
4.6418	11.6105
4.617	11.6768
4.5924	11.6671
4.5681	11.6589
4.5441	11.5458
4.5203	11.3717
4.4968	11.1578
4.4735	11.1888
4.4505	11.1204
4.4277	11.2512
4.4051	11.3085
4.3828	11.3778
4.3607	11.494
4.3388	11.6478
4.3171	11.5434
4.2956	11.5229
4.2744	11.5388
4.2534	11.4535
4.2325	11.4652
4.2119	11.5039
4.1915	11.5349
4.1712	11.6559
4.1512	11.539
4.1313	11.734
4.1117	11.5848
4.0922	11.6919
4.0729	11.7399
4.0538	11.6242
4.0349	11.7502
4.0161	11.7419
3.9976	11.7046
3.9792	11.6744
3.9609	11.7455
3.9428	11.7361
3.9249	11.7038
3.9072	11.7377
3.8896	11.6113
3.8722	11.7387
3.8549	11.5754
3.8378	11.5452
3.8208	11.6675
3.804	11.446
3.7873	11.5601
3.7708	11.4771
3.7544	11.4315
3.7382	11.5516
3.7221	11.425
3.7061	11.3009
3.6903	11.3936
3.6746	11.3554
3.659	11.4303
3.6436	11.3309
3.6283	11.3714
3.6131	11.2377
3.5981	11.2589
3.5832	11.1046
3.5684	11.1342
3.5537	11.056
3.5391	10.9242
3.5247	11.0193
3.5104	10.9113
3.4962	10.8469
3.4821	10.9084
3.4681	10.8149
3.4543	10.6204
3.4405	10.6007
3.4269	10.5644
3.4133	10.5255
3.3999	10.4745
3.3866	10.3349
3.3733	10.3529
3.3602	10.1526
3.3472	10.2646
3.3343	9.9531
3.3215	9.9591
3.3088	9.8741
3.2961	9.7126
3.2836	9.6992
3.2712	9.6684
3.2588	9.5902
3.2466	9.4836
3.2345	9.5138
3.2224	9.3635
3.2104	9.3903
3.1985	9.107
3.1867	9.241
3.175	9.0923
3.1634	9.0106
3.1519	8.9914
3.1404	8.9412
3.129	8.8583
3.1178	8.8875
3.1065	8.642
3.0954	8.6715
3.0844	8.5503
3.0734	8.6017
3.0625	8.6747
3.0517	8.6538
3.041	8.4533
3.0303	8.4727
3.0197	8.6017
3.0092	8.6041
2.9987	8.5191
2.9884	8.5562
2.9781	8.4929
2.9678	8.3117
2.9577	8.4347
2.9476	8.339
2.9376	8.512
2.9276	8.5698
2.9177	8.6401
2.9079	8.5678
2.8982	8.7273
2.8885	8.7454
2.8789	8.6742
2.8693	8.9565
2.8598	8.9755
2.8504	9.1805
2.841	9.1124
2.8317	9.2057
2.8224	9.345
2.8133	9.3654
2.8041	9.5445
2.7951	9.5869
2.786	9.8852
2.7771	9.7103
2.7682	10.0374
2.7594	10.1078
2.7506	10.2245
2.7418	10.7004
2.7332	10.7782
2.7246	11.0453
2.716	11.1912
2.7075	11.219
2.699	11.4413
2.6906	11.6523
2.6823	11.721
2.674	11.6969
2.6657	11.8984
2.6575	11.7159
2.6494	11.8413
2.6413	11.5386
2.6332	11.75
2.6252	11.8244
2.6173	11.8347
2.6094	11.7614
2.6015	11.663
2.5937	11.8471
2.5859	11.6567
2.5782	11.6008
2.5706	11.6755
2.5629	11.824
2.5554	11.4918
2.5478	11.7128
2.5403	11.5352
2.5329	11.5038
2.5255	11.3352
2.5181	11.5432
2.5108	11.5082
2.5035	11.5383
2.4963	11.3848
2.4891	11.4581
2.482	11.6273
2.4749	11.3413
2.4678	11.4519
2.4608	11.7126
2.4538	11.5366
2.4468	11.5942
2.4399	11.4296
2.4331	11.4357
2.4262	11.5129
2.4194	11.3564
2.4127	11.4536
2.4059	11.3998
2.3993	11.3578
2.3926	11.5866
2.386	11.3053
2.3795	11.5142
2.3729	11.3504
2.3664	11.5878
2.36	11.4307
2.3535	11.2848
2.3471	11.3259
2.3408	11.3989
2.3345	11.3819
2.3282	11.3847
2.3219	11.4528
2.3157	11.1695
2.3095	11.2809
2.3034	11.2426
2.2972	11.1335
2.2911	11.3432
2.2851	11.254
2.279	11.2077
2.2731	11.3845
2.2671	11.2303
2.2612	11.2224
2.2553	11.2584
2.2494	11.2921
2.2435	11.1833
2.2377	11.1901
2.232	11.1158
2.2262	11.2858
2.2205	11.2831
2.2148	11.1302
2.2091	11.2117
2.2035	11.14
2.1979	11.142
2.1923	11.1602
2.1868	11.0916
2.1812	10.9488
2.1758	11.0788
2.1703	11.2429
2.1649	11.2888
2.1595	10.9558
2.1541	11.0384
2.1487	11.0385
2.1434	10.9212
2.1381	11.3045
2.1328	10.8843
2.1275	11.1595
2.1223	11.2783
2.1171	11.0581
2.112	10.6538
2.1068	11.0764
2.1017	11.2107
2.0966	11.0672
2.0915	10.9224
2.0865	11.2577
2.0814	10.9468
2.0764	10.8792
2.0715	10.8496
2.0665	10.8931
2.0616	10.9037
2.0567	11.0873
2.0518	11.0662
2.0469	10.8393
2.0421	10.9954
2.0373	11.0428
2.0325	11.0789
2.0277	10.971
2.0229	10.9311
2.0182	10.8554
2.0135	11.1342
2.0088	10.971
2.0042	10.7126
