Name: Prehnite Ca2Al2Si3O10(OH)2
Type: Mineral
Class: Silicate
Subclass: Phyllosilicate
Particle Size: Fine
Sample No.: prehnite_1
Owner: JHU
Wavelength Range: TIR
Origin: Paterson, New Jersey, USA via Norma Vergo
Description: The sample consisted of a cluster of light green, translucent crystals weighing about 14 g. Purity appeared high in hand sample and under the microscope.Particle size was Less than 2  Micrometers. (Sheet Silicates); (Chlorite Group) Original ASTER Spectral Library name was jhu.nicolet.mineral.silicate.phyllosilicate.powder.prehni1.spectrum.txt
Measurement: Transmission
X Units: Wavelength (micrometers)
Y Units: Transmittance (percent)
wavelength	value
25.0442	60.9139
24.3388	47.2655
23.6719	44.6327
23.0407	40.83
22.4422	44.9452
21.8741	52.0643
21.334	47.1913
20.8199	50.2889
20.33	50.2987
19.8627	50.9764
19.4163	53.9686
18.9896	52.9227
18.5812	48.2303
18.19	54.0555
17.815	67.8162
17.4551	80.2635
17.1094	86.5603
16.7772	90.3142
16.4576	91.8591
16.15	92.9822
15.8537	91.6013
15.568	91.7351
15.2925	90.616
15.0265	86.9597
14.7697	86.6702
14.5214	84.6585
14.2814	81.0765
14.0492	75.618
13.8244	66.5428
13.6067	51.6424
13.3957	41.6483
13.1912	45.911
12.9929	56.1834
12.8004	68.0936
12.6135	66.1561
12.432	62.5194
12.2557	58.6371
12.0843	70.244
11.9176	73.6248
11.7555	72.0081
11.5977	66.8597
11.444	62.8573
11.2944	62.3245
11.1487	57.0848
11.0067	46.8759
10.8682	34.4257
10.7332	27.4599
10.6015	29.3412
10.473	35.6039
10.3476	31.4179
10.2251	23.8793
10.1056	19.4765
9.9887	20.9951
9.8746	26.9218
9.763	36.7548
9.6539	49.681
9.5472	52.5956
9.4429	35.4755
9.3408	32.7333
9.2409	36.3183
9.1431	36.0341
9.0474	37.244
8.9536	45.9164
8.8618	56.5648
8.7718	63.4779
8.6837	68.8651
8.5973	72.3409
8.5126	75.2608
8.4295	77.7425
8.3481	80.0391
8.2682	82.1084
8.1898	83.6817
8.1129	85.0183
8.0374	86.1797
7.9634	87.1199
7.8906	87.958
7.8192	88.4922
7.7491	88.8479
7.6802	88.9539
7.6126	89.6106
7.5461	91.1204
7.4807	90.8792
7.4165	91.0066
7.3534	91.3694
7.2914	92.1231
7.2303	91.4209
7.1703	88.6914
7.1113	89.4348
7.0533	91.2952
6.9962	91.9785
6.94	93.3799
6.8847	92.4461
6.8302	93.4915
6.7767	94.3623
6.7239	94.3096
6.672	93.4187
6.6209	90.9912
6.5705	90.0215
6.5209	89.6123
6.4721	88.5383
6.424	88.6892
6.3766	88.5828
6.3299	89.3938
6.2838	91.2246
6.2385	87.7674
6.1937	90.042
6.1496	92.2813
6.1062	94.2727
6.0633	96.3425
6.0211	97.4705
5.9794	97.6865
5.9383	96.3796
5.8978	97.1504
5.8578	98.3962
5.8184	98.5957
5.7794	99.0979
5.741	99.1855
5.7031	99.2295
5.6657	99.3293
5.6288	99.4092
5.5924	99.5378
5.5564	99.5635
5.5209	99.5652
5.4859	99.456
5.4513	99.3674
5.4171	99.4443
5.3833	99.7002
5.35	99.8467
5.3171	100.155
5.2846	100.367
5.2524	100.6
5.2207	100.722
5.1893	100.811
5.1584	100.835
5.1277	100.847
5.0975	100.933
5.0676	101.018
5.038	101.09
5.0088	101.111
4.98	101.132
4.9514	101.158
4.9232	101.165
4.8953	101.155
4.8678	101.157
4.8405	101.197
4.8135	101.291
4.7868	101.32
4.7605	101.397
4.7344	101.424
4.7086	101.439
4.6831	101.42
4.6578	101.45
4.6328	101.476
4.6081	101.474
4.5837	101.487
4.5595	101.497
4.5356	101.442
4.5119	101.419
4.4884	101.366
4.4652	101.278
4.4423	101.265
4.4196	101.252
4.3971	101.241
4.3748	101.233
4.3528	101.204
4.331	101.187
4.3094	101.153
4.288	101.154
4.2668	101.125
4.2458	101.128
4.2251	101.08
4.2045	101.028
4.1841	101.013
4.164	100.97
4.144	100.897
4.1242	100.872
4.1046	100.845
4.0852	100.765
4.066	100.679
4.047	100.638
4.0281	100.604
4.0094	100.523
3.9909	100.439
3.9725	100.309
3.9544	100.162
3.9363	100.128
3.9185	100.113
3.9008	99.9524
3.8833	99.8801
3.8659	99.7595
3.8487	99.6394
3.8316	99.4949
3.8147	99.3972
3.7979	99.2956
3.7813	99.3577
3.7648	99.3323
3.7485	99.3049
3.7323	99.324
3.7162	99.1853
3.7003	99.0779
3.6845	98.989
3.6689	98.9177
3.6534	98.8328
3.638	98.7156
3.6227	98.6921
3.6076	98.6682
3.5926	98.5691
3.5777	98.4748
3.563	98.2966
3.5484	98.1081
3.5338	97.9939
3.5195	97.8538
3.5052	97.5608
3.491	97.5139
3.477	97.4226
3.463	97.3772
3.4492	97.2502
3.4355	97.0413
3.4219	96.8225
3.4084	96.4358
3.395	96.6155
3.3817	96.1565
3.3685	95.9788
3.3554	96.1116
3.3425	96.3103
3.3296	96.5623
3.3168	96.4436
3.3041	96.2756
3.2915	96.115
3.279	95.9158
3.2666	95.8562
3.2543	95.738
3.2421	95.6091
3.23	95.3806
3.218	95.092
3.206	94.9436
3.1942	95.1721
3.1824	95.7517
3.1707	96.1487
3.1591	96.3166
3.1476	96.3987
3.1362	96.488
3.1249	96.5159
3.1136	96.4397
3.1024	96.2439
3.0913	95.8767
3.0803	95.3718
3.0694	94.9822
3.0585	94.7859
3.0477	94.866
3.037	95.0906
3.0264	95.24
3.0158	95.2009
3.0053	95.0632
2.9949	94.8494
2.9845	94.6677
2.9743	94.5408
2.9641	94.5183
2.9539	94.1638
2.9439	93.1384
2.9339	91.6453
2.9239	89.8289
2.9141	86.1697
2.9043	78.8601
2.8946	74.7039
2.8849	74.0135
2.8753	66.243
2.8658	58.0643
2.8563	70.2479
2.8469	85.6687
2.8375	94.7468
2.8282	98.5935
2.819	100.012
2.8098	100.61
2.8007	100.735
2.7917	100.775
2.7827	100.775
2.7738	100.852
2.7649	100.769
2.7561	100.527
2.7473	100.793
2.7386	100.462
2.7299	100.677
2.7213	100.49
2.7128	100.654
2.7043	100.324
2.6959	100.046
2.6875	99.9226
2.6791	99.654
2.6709	99.3445
2.6626	99.5017
2.6545	99.4304
2.6463	99.3357
2.6382	99.2419
2.6302	98.8572
2.6222	99.0359
2.6143	98.8962
2.6064	98.6521
2.5986	98.7947
2.5908	98.6677
2.583	98.4226
2.5753	98.4158
2.5677	98.4138
2.5601	98.3318
2.5525	98.3601
2.545	98.2429
2.5375	98.2888
2.5301	98.1814
2.5227	98.0642
2.5154	98.0759
2.5081	98.0681
2.5008	97.9001
2.4936	97.7927
2.4864	97.7361
2.4793	97.699
2.4722	97.6248
2.4651	97.6091
2.4581	97.5955
2.4511	97.5876
2.4442	97.4138
2.4373	97.3943
2.4305	97.3142
2.4236	97.3513
2.4169	97.1736
2.4101	96.988
2.4034	96.988
2.3967	97.0154
2.3901	96.9333
2.3835	96.8376
2.377	96.8552
2.3704	96.8669
2.364	96.8142
2.3575	96.7107
2.3511	96.7849
2.3447	96.9392
2.3384	96.8923
2.3321	96.8083
2.3258	96.8357
2.3195	96.8923
2.3133	96.9626
2.3071	97.0388
2.301	96.906
2.2949	96.8513
2.2888	96.8669
2.2828	96.8787
2.2767	96.9529
2.2708	96.8064
2.2648	96.8826
2.2589	96.9216
2.253	97.0154
2.2471	96.8591
2.2413	96.8982
2.2355	96.8064
2.2297	97.0017
2.224	97.0857
2.2183	97.072
2.2126	97.0955
2.207	97.2107
2.2013	97.1423
2.1957	97.0251
2.1902	97.1013
2.1846	97.1111
2.1791	97.1638
2.1736	97.197
2.1682	97.0935
2.1628	97.2888
2.1574	97.2654
2.152	97.199
2.1466	97.3162
2.1413	97.2576
2.136	97.1951
2.1308	97.3904
2.1255	97.2537
2.1203	97.113
2.1151	97.4412
2.11	97.4138
2.1048	97.4451
2.0997	97.238
2.0946	97.2849
2.0895	97.5662
2.0845	97.5427
2.0795	97.3982
