Name: Montmorillonite (Na,Ca)0.33(Al,Mg)2Si4O10(OH)2.nH2O
Type: Mineral
Class: Silicate
Subclass: Phyllosilicate
Particle Size: Coarse
Sample No.: montmor_2
Owner: JHU
Wavelength Range: TIR
Origin: Gonzales Co., Texas via the Hunt and Salisbury Collection(#CMS STx-1) (Purchased from the Clay Mineral Society Repository)
Description: The sample was a white, earthy clay. The bulk sample contains calcite, but <2 micrometer size fraction used in the spectral measurements is pure montmorillonite. Particle size was 0-2 micrometers, but packed powder simulates coarse.(Sheet Silicates); (SmectiteGroup) Original ASTER Spectral Library name was jhu.nicolet.mineral.silicate.phyllosilicate.packed.montmo2.spectrum.txt
Measurement: Bidirectional reflectance
X Units: Wavelength (micrometers)
Y Units: Reflectance (percent)
wavelength	value
25.0442	9.9785
24.3388	10.4028
23.6719	10.9133
23.0407	11.0317
22.4422	11.4282
21.8741	12.1062
21.334	13.2754
20.8199	13.5273
20.33	11.3886
19.8627	10.342
19.4163	11.4404
18.9896	12.8095
18.5812	13.0608
18.19	12.5486
17.815	12.1233
17.4551	11.3928
17.1094	10.5503
16.7772	9.3991
16.4576	7.7473
16.15	6.5356
15.8537	5.6391
15.568	4.1179
15.2925	3.5471
15.0265	3.5393
14.7697	3.6741
14.5214	3.8537
14.2814	3.957
14.0492	4.168
13.8244	4.3767
13.6067	4.5803
13.3957	4.8276
13.1912	5.0598
12.9929	5.2241
12.8004	5.291
12.6135	5.3118
12.432	5.4468
12.2557	5.5705
12.0843	5.6147
11.9176	5.5647
11.7555	5.5361
11.5977	5.6929
11.444	5.8667
11.2944	6.0085
11.1487	6.2021
11.0067	6.3442
10.8682	6.2527
10.7332	6.207
10.6015	6.4109
10.473	6.7243
10.3476	7.1184
10.2251	7.6045
10.1056	8.1264
9.9887	8.7575
9.8746	9.4844
9.763	10.3589
9.6539	11.5232
9.5472	12.9814
9.4429	14.6704
9.3408	15.7866
9.2409	15.3857
9.1431	14.0288
9.0474	12.9008
8.9536	12.7334
8.8618	12.9494
8.7718	13.0915
8.6837	13.021
8.5973	12.7429
8.5126	12.2773
8.4295	11.4885
8.3481	9.4819
8.2682	6.0388
8.1898	2.9399
8.1129	1.2473
8.0374	0.9529
7.9634	1.2187
7.8906	1.6023
7.8192	2.0134
7.7491	2.4228
7.6802	2.8113
7.6126	3.1677
7.5461	3.5046
7.4807	3.8179
7.4165	4.0952
7.3534	4.3674
7.2914	4.5984
7.2303	4.8345
7.1703	5.0454
7.1113	5.2265
7.0533	5.3479
6.9962	5.4809
6.94	5.6699
6.8847	5.8882
6.8302	6.0618
6.7767	6.1965
6.7239	6.3147
6.672	6.4773
6.6209	6.5847
6.5705	6.6318
6.5209	6.6597
6.4721	6.6113
6.424	6.469
6.3766	6.2163
6.3299	5.7595
6.2838	4.9988
6.2385	4.1716
6.1937	3.6016
6.1496	3.3198
6.1062	3.2082
6.0633	3.26
6.0211	3.5588
5.9794	3.989
5.9383	4.594
5.8978	5.2463
5.8578	5.7861
5.8184	6.1909
5.7794	6.563
5.741	6.9282
5.7031	7.1809
5.6657	7.334
5.6288	7.3823
5.5924	7.3381
5.5564	7.2065
5.5209	7.0478
5.4859	6.9436
5.4513	6.9189
5.4171	7.0129
5.3833	7.1916
5.35	7.417
5.3171	7.6489
5.2846	7.8415
5.2524	8.0032
5.2207	8.1282
5.1893	8.2536
5.1584	8.3823
5.1277	8.5381
5.0975	8.751
5.0676	9.0022
5.038	9.2954
5.0088	9.6137
4.98	9.9082
4.9514	10.1792
4.9232	10.4114
4.8953	10.6015
4.8678	10.7551
4.8405	10.8645
4.8135	10.9768
4.7868	11.0952
4.7605	11.2019
4.7344	11.3039
4.7086	11.394
4.6831	11.4709
4.6578	11.5427
4.6328	11.6162
4.6081	11.6875
4.5837	11.7256
4.5595	11.7583
4.5356	11.7802
4.5119	11.8037
4.4884	11.8215
4.4652	11.8554
4.4423	11.8623
4.4196	11.8733
4.3971	11.883
4.3748	11.8813
4.3528	11.8818
4.331	11.8867
4.3094	11.9021
4.288	11.9326
4.2668	11.9846
4.2458	12.0337
4.2251	12.0857
4.2045	12.1401
4.1841	12.1958
4.164	12.2751
4.144	12.3315
4.1242	12.4184
4.1046	12.5105
4.0852	12.6259
4.066	12.7614
4.047	12.8999
4.0281	13.0295
4.0094	13.146
3.9909	13.2285
3.9725	13.2707
3.9544	13.2776
3.9363	13.2658
3.9185	13.2219
3.9008	13.1853
3.8833	13.1296
3.8659	13.0764
3.8487	12.9939
3.8316	12.9179
3.8147	12.8244
3.7979	12.7163
3.7813	12.6035
3.7648	12.4636
3.7485	12.3171
3.7323	12.1665
3.7162	12.0224
3.7003	11.8742
3.6845	11.7351
3.6689	11.6157
3.6534	11.4817
3.638	11.3435
3.6227	11.2014
3.6076	11.0512
3.5926	10.8916
3.5777	10.7217
3.563	10.539
3.5484	10.3481
3.5338	10.1501
3.5195	9.9365
3.5052	9.7322
3.491	9.5674
3.477	9.3738
3.463	9.1592
3.4492	8.9328
3.4355	8.7104
3.4219	8.4814
3.4084	8.29
3.395	8.0705
3.3817	7.8728
3.3685	7.6865
3.3554	7.4748
3.3425	7.2659
3.3296	7.0513
3.3168	6.8479
3.3041	6.6533
3.2915	6.4455
3.279	6.25
3.2666	6.052
3.2543	5.8481
3.2421	5.6733
3.23	5.4966
3.218	5.3147
3.206	5.1514
3.1942	4.9917
3.1824	4.8337
3.1707	4.6973
3.1591	4.5395
3.1476	4.4128
3.1362	4.2937
3.1249	4.1675
3.1136	4.0793
3.1024	3.9807
3.0913	3.9143
3.0803	3.8559
3.0694	3.824
3.0585	3.7949
3.0477	3.7881
3.037	3.7622
3.0264	3.697
3.0158	3.6313
3.0053	3.5432
2.9949	3.4604
2.9845	3.3901
2.9743	3.3235
2.9641	3.2497
2.9539	3.1833
2.9439	3.1145
2.9339	3.0581
2.9239	3.0073
2.9141	2.968
2.9043	2.9194
2.8946	2.8684
2.8849	2.8144
2.8753	2.769
2.8658	2.7156
2.8563	2.6955
2.8469	2.6326
2.8375	2.5867
2.8282	2.5373
2.819	2.51
2.8098	2.4836
2.8007	2.4067
2.7917	2.3169
2.7827	2.1977
2.7738	2.094
2.7649	2.0071
2.7561	1.9434
2.7473	1.9612
2.7386	2.0164
2.7299	2.0945
2.7213	2.3245
2.7128	2.8296
2.7043	3.6387
2.6959	4.906
2.6875	6.53
2.6791	7.8721
2.6709	8.7776
2.6626	9.5075
2.6545	9.9695
2.6463	10.3159
2.6382	10.5937
2.6302	10.8169
2.6222	10.9897
2.6143	11.1401
2.6064	11.2695
2.5986	11.3886
2.5908	11.5266
2.583	11.6389
2.5753	11.73
2.5677	11.8183
2.5601	11.8835
2.5525	12.0068
2.545	12.0664
2.5375	12.1399
2.5301	12.2251
2.5227	12.3144
2.5154	12.3779
2.5081	12.4926
2.5008	12.5803
2.4936	12.6645
2.4864	12.6845
2.4793	12.728
2.4722	12.7021
2.4651	12.6811
2.4581	12.6594
2.4511	12.6997
2.4442	12.6684
2.4373	12.7798
2.4305	12.8344
2.4236	12.9519
2.4169	13.0417
2.4101	13.1091
2.4034	13.1587
2.3967	13.2451
2.3901	13.3574
2.3835	13.4463
2.377	13.581
2.3704	13.6635
2.364	13.812
2.3575	13.9311
2.3511	14.0361
2.3447	14.1611
2.3384	14.2773
2.3321	14.3803
2.3258	14.4834
2.3195	14.6562
2.3133	14.8764
2.3071	15.0903
2.301	15.2868
2.2949	15.4653
2.2888	15.6425
2.2828	15.7212
2.2767	15.7934
2.2708	15.7988
2.2648	15.6547
2.2589	15.4926
2.253	15.1665
2.2471	14.8928
2.2413	14.6132
2.2355	14.3586
2.2297	14.0656
2.224	13.8176
2.2183	13.5341
2.2126	13.416
2.207	13.7551
2.2013	14.333
2.1957	15.008
2.1902	15.5239
2.1846	15.9951
2.1791	16.3432
2.1736	16.5659
2.1682	16.8225
2.1628	16.9155
2.1574	17.008
2.152	16.9875
2.1466	16.9787
2.1413	17.0598
2.136	17.0717
2.1308	17.0576
2.1255	17.1074
2.1203	17.0864
2.1151	17.1096
2.11	17.1713
2.1048	17.125
2.0997	17.1474
2.0946	17.2041
2.0895	17.2341
2.0845	17.2202
2.0795	17.2885
