Name: Anthophyllite (Mg,Fe^2+)_7Si_8O_22(OH)_2
Type: Mineral
Class: Silicate
Subclass: Inosilicate
Particle Size: Coarse
Sample No.: IN-8A
Owner: JPL
Wavelength Range: VSWIR
Origin: USA, North Carolina
Description: Particle size was 125-500um.Collected by Ward's Original ASTER Spectral Library name was jpl.beckman.mineral.silicate.inosilicate.coarse.in08a.spectrum.txt
Measurement: Hemispherical reflectance
X Units: Wavelength (micrometers)
Y Units: Reflectance (percent)
wavelength	value
0.4	39.7
0.403	40.2
0.406	40.59
0.409	40.9
0.412	41.18
0.415	41.67
0.418	41.97
0.421	42.08
0.424	42.34
0.427	42.64
0.43	43.02
0.433	43.41
0.436	43.67
0.439	44.07
0.442	44.11
0.445	44.49
0.448	44.69
0.451	44.99
0.454	45.16
0.457	45.29
0.46	45.62
0.463	45.93
0.466	46.2
0.469	46.53
0.472	46.95
0.475	47.4
0.478	47.52
0.481	47.7
0.484	47.89
0.487	47.91
0.49	47.97
0.493	47.83
0.496	48.2
0.499	48.56
0.502	48.7
0.505	48.47
0.508	48.92
0.511	49.28
0.514	49.26
0.517	49.24
0.52	49.4
0.523	49.26
0.526	49.08
0.529	49.05
0.532	49
0.535	49.01
0.538	49.14
0.541	48.95
0.544	48.97
0.547	49.02
0.55	49.24
0.553	49.42
0.556	49.63
0.559	49.62
0.562	49.73
0.565	49.86
0.568	49.84
0.571	50.07
0.574	49.79
0.577	49.66
0.58	49.54
0.583	49.57
0.586	49.6
0.589	49.79
0.592	49.64
0.595	49.57
0.598	49.6
0.601	49.82
0.604	49.79
0.607	49.71
0.61	49.68
0.613	49.57
0.616	49.39
0.619	49.48
0.622	49.3
0.625	49.16
0.628	49.16
0.631	49.36
0.634	49.45
0.637	49.37
0.64	49.36
0.643	49.18
0.646	49.01
0.649	48.96
0.652	49.07
0.655	49.13
0.658	49.13
0.661	49.18
0.664	49.25
0.667	49.33
0.67	49.27
0.673	49.27
0.676	49.05
0.679	49.07
0.682	48.87
0.685	48.98
0.688	48.82
0.691	48.7
0.694	48.64
0.697	48.68
0.7	48.74
0.703	48.53
0.706	48.39
0.709	48.27
0.712	48.18
0.715	48.24
0.718	48.01
0.721	48.09
0.724	48.07
0.727	47.78
0.73	47.72
0.733	47.58
0.736	47.58
0.739	47.32
0.742	47.26
0.745	46.95
0.748	46.86
0.751	46.78
0.754	46.66
0.757	46.43
0.76	46.26
0.763	45.86
0.766	45.83
0.769	45.69
0.772	45.68
0.775	45.37
0.778	45.15
0.781	44.83
0.784	44.63
0.787	44.27
0.79	44.03
0.793	43.77
0.796	43.52
0.799	43.1
0.808	42.11
0.82	40.71
0.832	39.28
0.844	37.91
0.856	36.78
0.868	35.72
0.88	34.74
0.892	33.91
0.904	33.14
0.916	32.7
0.928	32.38
0.94	32.11
0.952	32.21
0.964	32.46
0.976	32.92
0.988	33.61
1	34.4
1.012	35.32
1.024	35.99
1.036	36.69
1.048	37.28
1.06	37.76
1.072	38.29
1.084	38.84
1.096	39.21
1.108	39.6
1.12	40.07
1.132	40.39
1.144	40.76
1.156	41.04
1.168	41.36
1.18	41.59
1.192	41.87
1.204	42.01
1.216	42.31
1.228	42.54
1.24	42.8
1.252	43.15
1.264	43.33
1.276	43.55
1.288	44
1.3	44.37
1.312	44.77
1.324	45.13
1.336	45.5
1.348	46
1.36	46.3
1.372	46.43
1.384	40.21
1.396	44.82
1.408	47.24
1.42	47.85
1.432	48.48
1.444	49.27
1.456	49.93
1.468	50.43
1.48	50.9
1.492	51.4
1.504	51.85
1.516	52.24
1.528	52.56
1.54	53
1.552	53.3
1.564	53.66
1.576	54.07
1.588	54.24
1.6	54.45
1.612	54.72
1.624	54.9
1.636	54.99
1.648	55.08
1.66	55.24
1.672	55.35
1.684	55.28
1.696	55.31
1.708	55.22
1.72	55.13
1.732	55.07
1.744	55.02
1.756	54.86
1.768	54.74
1.78	54.5
1.792	54.39
1.804	54.14
1.816	53.77
1.828	53.54
1.84	53.11
1.852	52.78
1.864	52.48
1.876	52.04
1.888	51.67
1.9	51.28
1.912	50.91
1.924	50.44
1.936	49.99
1.948	49.52
1.96	49.09
1.972	48.63
1.984	48.23
1.996	48.07
2.008	47.7
2.02	47.72
2.032	47.57
2.044	47.31
2.056	46.88
2.068	46.26
2.08	45.87
2.092	45.5
2.104	45.14
2.116	44.66
2.128	44.18
2.14	43.9
2.152	43.48
2.164	43.11
2.176	42.76
2.188	42.37
2.2	41.96
2.212	41.06
2.224	40.11
2.236	39.2
2.248	38.03
2.26	36.1
2.272	33.3
2.284	29.88
2.296	27.39
2.308	27.48
2.32	29.98
2.332	32.99
2.344	34.28
2.356	33.88
2.368	32.37
2.38	31.42
2.392	31.97
2.404	33.29
2.416	34.15
2.428	34.19
2.44	34.03
2.452	33.85
2.464	33.98
2.476	34.43
2.488	35.1
2.5	35.57
