Name: Clinochlore (Chlorite) (Mg,Al)_6(Si,Al)_4O_10(OH)_8
Type: Mineral
Class: Silicate
Subclass: Phyllosilicate
Particle Size: Coarse
Sample No.: PS-12A
Owner: JPL
Wavelength Range: TIR
Origin: USA, California, El Dorado County, Flagstaff Hill
Description: Particle size was 125-500um.Collected by Clay Mineral Society Original ASTER Spectral Library name was jpl.nicolet.mineral.silicate.phyllosilicate.coarse.ps12a.spectrum.txt
Measurement: Hemispherical reflectance
X Units: Wavelength (micrometers)
Y Units: Reflectance (percent)
wavelength	value
15.3853	6.0734
15.1161	6.0124
14.8563	5.4384
14.6052	4.4348
14.3624	3.2183
14.1276	3.0275
13.9004	3.4519
13.6803	3.7394
13.4671	4.4846
13.2604	5.7359
13.06	5.1996
12.8656	4.0858
12.6769	2.9509
12.4936	2.6626
12.3155	2.5862
12.1425	2.2334
11.9742	2.2248
11.8106	3.0939
11.6513	3.9037
11.4963	4.1844
11.3454	4.715
11.1983	5.4936
11.0551	6.0792
10.9154	7.3216
10.7793	8.907
10.6465	11.5111
10.5169	13.6051
10.3904	15.0263
10.267	17.3973
10.1464	21.3909
10.0287	25.114
9.9136	26.1218
9.8012	26.5768
9.6913	24.3185
9.5838	20.3511
9.4787	19.7768
9.3758	18.5671
9.2752	10.1085
9.1767	5.2804
9.0803	2.3056
8.9858	1.25
8.8934	0.4574
8.8028	0.4207
8.714	0.3841
8.627	0.4215
8.5417	0.6187
8.4581	0.6242
8.3761	1.0058
8.2957	1.3116
8.2169	1.4031
8.1395	1.8163
8.0635	1.8917
7.989	2.1167
7.9158	2.5534
7.8439	2.5916
7.7734	2.7972
7.7041	3.05
7.636	3.1623
7.5691	3.4482
7.5034	3.59
7.4388	3.8288
7.3753	4.0077
7.3129	4.2943
7.2515	4.5059
7.1912	4.7298
7.1318	4.937
7.0734	5.1462
7.016	5.3924
6.9595	5.5525
6.9039	5.6257
6.8492	5.7848
6.7953	5.9057
6.7423	5.7953
6.6901	5.9073
6.6387	5.8977
6.5881	5.9941
6.5382	5.8632
6.4892	5.7741
6.4408	5.6066
6.3931	5.5538
6.3462	5.4436
6.2999	5.3072
6.2543	5.3643
6.2094	5.4241
6.1651	5.5531
6.1214	5.5494
6.0784	5.6949
6.0359	5.9357
5.994	5.8586
5.9527	5.9421
5.912	6.0316
5.8718	6.147
5.8322	6.3061
5.7931	6.4857
5.7545	6.8924
5.7165	7.2544
5.6789	7.3202
5.6418	7.4993
5.6052	7.5794
5.5691	7.764
5.5334	8.0886
5.4982	8.1531
5.4635	8.6318
5.4291	8.7948
5.3952	8.9917
5.3618	9.094
5.3287	9.0717
5.2961	9.169
5.2638	9.3332
5.2319	9.3902
5.2004	9.4933
5.1693	9.6409
5.1386	9.7258
5.1082	9.725
5.0782	9.8515
5.0485	10.0278
5.0192	9.8861
4.9902	9.9733
4.9616	10.1642
4.9332	10.3853
4.9052	10.728
4.8776	10.9889
4.8502	11.3972
4.8231	11.955
4.7963	12.535
4.7699	12.9134
4.7437	13.6737
4.7178	14.4234
4.6922	15.1065
4.6668	15.68
4.6418	16.2212
4.617	16.6871
4.5924	17.49
4.5681	18.2636
4.5441	18.8858
4.5203	19.1984
4.4968	19.5523
4.4735	20.0894
4.4505	20.4467
4.4277	20.8663
4.4051	21.3114
4.3828	21.6017
4.3607	21.9239
4.3388	22.2404
4.3171	22.5231
4.2956	22.7182
4.2744	23.2206
4.2534	23.3276
4.2325	23.5854
4.2119	23.8969
4.1915	24.0856
4.1712	24.2243
4.1512	24.4387
4.1313	24.6213
4.1117	24.6757
4.0922	24.8602
4.0729	24.9742
4.0538	25.0895
4.0349	25.1737
4.0161	25.2366
3.9976	25.2183
3.9792	25.2159
3.9609	25.2505
3.9428	25.2091
3.9249	25.1621
3.9072	25.0505
3.8896	25.0235
3.8722	24.8841
3.8549	24.6227
3.8378	24.5843
3.8208	24.4538
3.804	24.3206
3.7873	24.3275
3.7708	24.0973
3.7544	23.9703
3.7382	23.7631
3.7221	23.5637
3.7061	23.456
3.6903	23.2345
3.6746	23.1221
3.659	22.7674
3.6436	22.516
3.6283	22.2503
3.6131	21.9642
3.5981	21.6319
3.5832	21.1474
3.5684	20.7493
3.5537	20.4089
3.5391	20.1575
3.5247	19.7816
3.5104	19.5717
3.4962	19.2856
3.4821	18.9939
3.4681	18.8693
3.4543	18.5709
3.4405	18.3807
3.4269	17.9961
3.4133	17.7922
3.3999	17.5124
3.3866	17.372
3.3733	16.89
3.3602	16.7151
3.3472	16.4728
3.3343	16.0722
3.3215	15.9138
3.3088	15.7946
3.2961	15.4158
3.2836	15.136
3.2712	14.6915
3.2588	14.5629
3.2466	14.0473
3.2345	13.8096
3.2224	13.4826
3.2104	12.99
3.1985	12.5683
3.1867	12.0948
3.175	11.5817
3.1634	11.0753
3.1519	10.5428
3.1404	10.2868
3.129	9.917
3.1178	9.5614
3.1065	8.9754
3.0954	8.5535
3.0844	8.2592
3.0734	7.7596
3.0625	7.3118
3.0517	7.0529
3.041	6.6947
3.0303	6.4672
3.0197	6.0814
3.0092	5.8592
2.9987	5.5141
2.9884	5.4995
2.9781	5.3
2.9678	5.0968
2.9577	5.0027
2.9476	4.8349
2.9376	4.8655
2.9276	4.7593
2.9177	4.6845
2.9079	4.8307
2.8982	5.0695
2.8885	5.3504
2.8789	5.3792
2.8693	5.5881
2.8598	5.6612
2.8504	5.4933
2.841	5.336
2.8317	5.1773
2.8224	5.1415
2.8133	5.0862
2.8041	5.1179
2.7951	5.3205
2.786	6.3356
2.7771	7.2026
2.7682	8.5621
2.7594	8.697
2.7506	8.6455
2.7418	9.2144
2.7332	9.2973
2.7246	10.2996
2.716	13.0237
2.7075	18.9298
2.699	21.4009
2.6906	22.724
2.6823	23.8362
2.674	24.6337
2.6657	25.0936
2.6575	25.1488
2.6494	25.5369
2.6413	25.6666
2.6332	26.132
2.6252	26.2863
2.6173	26.3676
2.6094	26.4506
2.6015	26.3036
2.5937	26.5029
2.5859	26.3681
2.5782	26.5553
2.5706	26.5313
2.5629	26.9177
2.5554	26.8958
2.5478	27.1789
2.5403	27.3012
2.5329	27.5669
2.5255	27.5518
2.5181	27.7916
2.5108	28.0812
2.5035	28.0855
2.4963	28.1741
2.4891	28.396
2.482	28.7768
2.4749	29.2573
2.4678	29.8685
2.4608	30.3697
2.4538	30.9573
2.4468	31.4833
2.4399	31.63
2.4331	31.6977
2.4262	31.8967
2.4194	31.9175
2.4127	31.4415
2.4059	31.1078
2.3993	30.8023
2.3926	30.6363
2.386	30.0424
2.3795	29.0628
2.3729	27.6956
2.3664	26.4798
2.36	25.087
2.3535	24.3117
2.3471	23.8801
2.3408	24.1178
2.3345	24.8296
2.3282	25.4415
2.3219	26.1899
2.3157	26.5635
2.3095	26.9059
2.3034	27.3835
2.2972	28.0521
2.2911	28.874
2.2851	29.723
2.279	29.9977
2.2731	29.7203
2.2671	28.6618
2.2612	27.8491
2.2553	27.2428
2.2494	27.8686
2.2435	30.2664
2.2377	33.4216
2.232	35.6572
2.2262	37.1634
2.2205	38.1987
2.2148	38.997
2.2091	39.1931
2.2035	39.5887
2.1979	39.8902
2.1923	40.1351
2.1868	40.3054
2.1812	40.6704
2.1758	40.6588
2.1703	40.7982
2.1649	40.7143
2.1595	40.8371
2.1541	40.9738
2.1487	40.9658
2.1434	40.8682
2.1381	40.6456
2.1328	40.6332
2.1275	40.5687
2.1223	40.4077
2.1171	40.3193
2.112	40.6435
2.1068	40.4869
2.1017	40.7975
2.0966	40.2464
2.0915	40.4817
2.0865	40.0458
2.0814	39.5474
2.0764	39.8663
2.0715	39.6831
2.0665	39.2745
2.0616	38.8591
2.0567	38.7907
2.0518	38.426
2.0469	38.2311
2.0421	37.6863
2.0373	37.5435
2.0325	37.4243
2.0277	36.3741
2.0229	35.9816
2.0182	35.4425
2.0135	35.2694
2.0088	34.739
2.0042	34.8456
