Name: Epidote Ca2(Al,Fe+3)3(SiO4)3(OH)
Type: Mineral
Class: Silicate
Subclass: Sorosilicate
Particle Size: Solid
Sample No.: epidote_1
Owner: JHU
Wavelength Range: TIR
Origin: Donated by Bruce Hemingway;  Sample from Prince of WalesIsland, Alaska.
Description: The sample consisted of several deep green epidote crystals, 2 cm x 1 cm x 1 cm in size.  The sample looked pure in hand specimen and microscopic examination indicated pure, unaltered epidote. (Epidote Group) Original ASTER Spectral Library name was jhu.nicolet.mineral.silicate.sorosilicate.solid.epidot1.spectrum.txt
Measurement: Bidirectional reflectance
X Units: Wavelength (micrometers)
Y Units: Reflectance (percent)
wavelength	value
25.0442	57.3358
24.3388	49.996
23.6719	51.5155
23.0407	45.5595
22.4422	45.8378
21.8741	43.6874
21.334	38.1293
20.8199	30.8779
20.33	35.3832
19.8627	39.9262
19.4163	41.6874
18.9896	41.9369
18.5812	43.122
18.19	48.7902
17.815	56.5099
17.4551	47.2509
17.1094	39.7719
16.7772	35.0751
16.4576	31.3446
16.15	23.9091
15.8537	26.4006
15.568	32.1711
15.2925	41.7374
15.0265	45.8546
14.7697	43.4589
14.5214	42.7763
14.2814	37.9174
14.0492	24.3754
13.8244	12.1819
13.6067	15.1994
13.3957	17.8107
13.1912	19.7275
12.9929	21.2631
12.8004	22.5996
12.6135	23.9582
12.432	25.383
12.2557	27.1332
12.0843	28.8862
11.9176	30.5231
11.7555	34.7299
11.5977	37.549
11.444	46.8417
11.2944	54.2501
11.1487	47.0087
11.0067	42.2001
10.8682	33.1674
10.7332	30.9736
10.6015	44.1981
10.473	68.4569
10.3476	69.679
10.2251	56.2621
10.1056	40.5614
9.9887	31.7699
9.8746	20.6848
9.763	23.5844
9.6539	33.998
9.5472	47.2382
9.4429	55.9168
9.3408	57.7618
9.2409	58.2772
9.1431	55.5145
9.0474	51.7425
8.9536	49.1698
8.8618	45.1376
8.7718	38.3134
8.6837	27.1962
8.5973	15.2636
8.5126	8.3237
8.4295	10.3891
8.3481	12.3779
8.2682	13.844
8.1898	14.9502
8.1129	15.7837
8.0374	16.4453
7.9634	16.9336
7.8906	17.2973
7.8192	17.6489
7.7491	17.9641
7.6802	18.2592
7.6126	18.5476
7.5461	18.7963
7.4807	18.9797
7.4165	19.2146
7.3534	19.392
7.2914	19.5913
7.2303	19.7951
7.1703	19.8618
7.1113	20.0312
7.0533	20.0834
6.9962	20.2983
6.94	20.4797
6.8847	20.6083
6.8302	20.6567
6.7767	20.8408
6.7239	20.8251
6.672	21.0654
6.6209	21.2297
6.5705	21.2656
6.5209	21.2905
6.4721	21.477
6.424	21.4164
6.3766	21.4438
6.3299	21.6162
6.2838	21.6384
6.2385	21.6879
6.1937	21.7016
6.1496	21.8422
6.1062	21.9824
6.0633	22.0659
6.0211	21.9013
5.9794	21.9755
5.9383	21.7394
5.8978	21.6235
5.8578	21.7275
5.8184	21.7768
5.7794	21.6787
5.741	21.7983
5.7031	21.8085
5.6657	21.7412
5.6288	21.7944
5.5924	21.8229
5.5564	21.8398
5.5209	21.9118
5.4859	21.9033
5.4513	21.9995
5.4171	22.1196
5.3833	22.0981
5.35	22.1542
5.3171	22.1276
5.2846	22.1945
5.2524	22.2021
5.2207	22.1747
5.1893	22.2221
5.1584	22.2175
5.1277	22.2404
5.0975	22.2309
5.0676	22.2167
5.038	22.1945
5.0088	22.1928
4.98	22.1733
4.9514	22.1225
4.9232	22.0666
4.8953	22.0234
4.8678	21.9958
4.8405	22.0168
4.8135	21.9912
4.7868	21.9924
4.7605	22.0082
4.7344	22.0375
4.7086	22.0507
4.6831	22.0612
4.6578	22.1008
4.6328	22.0966
4.6081	22.1035
4.5837	22.1367
4.5595	22.1782
4.5356	22.1894
4.5119	22.2143
4.4884	22.2001
4.4652	22.2158
4.4423	22.2275
4.4196	22.2353
4.3971	22.2197
4.3748	22.1962
4.3528	22.1555
4.331	22.0886
4.3094	22.0351
4.288	21.9736
4.2668	21.9243
4.2458	21.8867
4.2251	21.9438
4.2045	22.0148
4.1841	22.0248
4.164	22.0229
4.144	22.0288
4.1242	22.018
4.1046	22.0297
4.0852	21.9985
4.066	22.0205
4.047	21.9985
4.0281	21.998
4.0094	21.9916
3.9909	21.958
3.9725	21.9814
3.9544	21.9672
3.9363	21.9892
3.9185	21.9736
3.9008	21.9526
3.8833	21.9409
3.8659	21.9145
3.8487	21.8915
3.8316	21.9057
3.8147	21.8632
3.7979	21.8281
3.7813	21.7944
3.7648	21.7617
3.7485	21.7475
3.7323	21.7055
3.7162	21.6811
3.7003	21.6645
3.6845	21.6376
3.6689	21.6176
3.6534	21.601
3.638	21.572
3.6227	21.5561
3.6076	21.539
3.5926	21.5266
3.5777	21.5109
3.563	21.4836
3.5484	21.4787
3.5338	21.4829
3.5195	21.5007
3.5052	21.5942
3.491	21.4663
3.477	21.4279
3.463	21.4038
3.4492	21.4084
3.4355	21.4445
3.4219	21.5993
3.4084	21.4338
3.395	21.267
3.3817	21.2683
3.3685	21.1789
3.3554	21.1025
3.3425	21.0412
3.3296	21.0063
3.3168	20.9875
3.3041	20.9653
3.2915	20.9682
3.279	20.9172
3.2666	20.8654
3.2543	20.8723
3.2421	20.8322
3.23	20.8456
3.218	20.8273
3.206	20.7954
3.1942	20.8066
3.1824	20.7873
3.1707	20.7626
3.1591	20.7529
3.1476	20.788
3.1362	20.7812
3.1249	20.8242
3.1136	20.8295
3.1024	20.8544
3.0913	20.852
3.0803	20.8586
3.0694	20.8837
3.0585	20.8691
3.0477	20.9287
3.037	21.0275
3.0264	21.2248
3.0158	21.3251
3.0053	21.4123
2.9949	21.6064
2.9845	21.8281
2.9743	21.6437
2.9641	21.4599
2.9539	19.5227
2.9439	15.9191
2.9339	16.1066
2.9239	17.0634
2.9141	17.5949
2.9043	17.9511
2.8946	18.1064
2.8849	18.1845
2.8753	18.1962
2.8658	18.3027
2.8563	18.2861
2.8469	18.2944
2.8375	18.3671
2.8282	18.3403
2.819	18.4804
2.8098	18.4126
2.8007	18.5122
2.7917	18.4306
2.7827	18.4589
2.7738	18.4619
2.7649	18.4941
2.7561	18.4951
2.7473	18.4365
2.7386	18.7402
2.7299	18.4824
2.7213	18.541
2.7128	18.4834
2.7043	18.5029
2.6959	18.4184
2.6875	18.5415
2.6791	18.4843
2.6709	18.4619
2.6626	18.4497
2.6545	18.498
2.6463	18.4633
2.6382	18.4707
2.6302	18.622
2.6222	18.4169
2.6143	18.4985
2.6064	18.5214
2.5986	18.3442
2.5908	18.4145
2.583	18.5712
2.5753	18.4599
2.5677	18.4829
2.5601	18.4746
2.5525	18.4028
2.545	18.3461
2.5375	18.3813
2.5301	18.4062
2.5227	18.371
2.5154	18.4189
2.5081	18.4126
2.5008	18.3984
2.4936	18.4335
2.4864	18.4145
2.4793	18.4301
2.4722	18.3989
2.4651	18.4843
2.4581	18.4399
2.4511	18.4321
2.4442	18.4223
2.4373	18.4101
2.4305	18.4726
2.4236	18.3676
2.4169	18.4531
2.4101	18.4223
2.4034	18.3964
2.3967	18.4204
2.3901	18.3427
2.3835	18.2968
2.377	18.3691
2.3704	18.249
2.364	18.2919
2.3575	18.2099
2.3511	18.2255
2.3447	18.2001
2.3384	18.124
2.3321	18.1171
2.3258	18.2207
2.3195	18.2988
2.3133	18.1875
2.3071	18.207
2.301	18.2089
2.2949	18.2793
2.2888	18.3437
2.2828	18.333
2.2767	18.3847
2.2708	18.371
2.2648	18.3554
2.2589	18.3291
2.253	18.3515
2.2471	18.414
2.2413	18.4267
2.2355	18.5166
2.2297	18.457
2.224	18.6367
2.2183	18.5078
2.2126	18.5625
2.207	18.625
2.2013	18.4541
2.1957	18.5332
2.1902	18.5937
2.1846	18.6953
2.1791	18.5996
2.1736	18.5908
2.1682	18.6181
2.1628	18.621
2.1574	18.5156
2.152	18.5585
2.1466	18.5292
2.1413	18.6132
2.136	18.6728
2.1308	18.4931
2.1255	18.6015
2.1203	18.5859
2.1151	18.665
2.11	18.5781
2.1048	18.5751
2.0997	18.6689
2.0946	18.5273
2.0895	18.5585
2.0845	18.583
2.0795	18.5712
