Name: Glauconite (K,Na)(Fe^3+,Al,Mg)_2(Si,Al)_4O_10(OH)_2
Type: Mineral
Class: Silicate
Subclass: Phyllosilicate
Particle Size: Coarse
Sample No.: PS-19A
Owner: JPL
Wavelength Range: TIR
Origin: USA, New Jersey
Description: Particle size was 125-500um.Collected by Ward's Original ASTER Spectral Library name was jpl.nicolet.mineral.silicate.phyllosilicate.coarse.ps19a.spectrum.txt
Measurement: Hemispherical reflectance
X Units: Wavelength (micrometers)
Y Units: Reflectance (percent)
wavelength	value
15.3853	1.1252
15.1161	0.734
14.8563	1.0634
14.6052	0.966
14.3624	0.8824
14.1276	0.9744
13.9004	0.9251
13.6803	1.054
13.4671	1.4278
13.2604	1.1687
13.06	1.5363
12.8656	1.5833
12.6769	1.8035
12.4936	1.624
12.3155	1.8027
12.1425	1.5048
11.9742	1.7835
11.8106	1.815
11.6513	2.0255
11.4963	2.3687
11.3454	2.2935
11.1983	2.3976
11.0551	2.6851
10.9154	2.9157
10.7793	3.2277
10.6465	3.8368
10.5169	4.556
10.3904	5.5081
10.267	6.4553
10.1464	7.372
10.0287	8.0073
9.9136	8.4299
9.8012	9.3053
9.6913	9.9495
9.5838	10.4836
9.4787	10.4547
9.3758	8.5015
9.2752	6.7054
9.1767	5.4248
9.0803	4.676
8.9858	3.5891
8.8934	2.3656
8.8028	1.5737
8.714	1.0763
8.627	0.4674
8.5417	0.6438
8.4581	0.4477
8.3761	0.5427
8.2957	0.4821
8.2169	0.4399
8.1395	0.359
8.0635	0.3574
7.989	0.4447
7.9158	0.3046
7.8439	0.4789
7.7734	0.4188
7.7041	0.3963
7.636	0.5264
7.5691	0.5237
7.5034	0.5861
7.4388	0.581
7.3753	0.5943
7.3129	0.5774
7.2515	0.6048
7.1912	0.6071
7.1318	0.6118
7.0734	0.667
7.016	0.6483
6.9595	0.7594
6.9039	0.8603
6.8492	0.7789
6.7953	0.888
6.7423	0.9474
6.6901	0.9389
6.6387	0.9436
6.5881	1.03
6.5382	0.8465
6.4892	0.8295
6.4408	0.8752
6.3931	0.8622
6.3462	0.9021
6.2999	0.8944
6.2543	0.8529
6.2094	0.8927
6.1651	0.7644
6.1214	0.8911
6.0784	0.7963
6.0359	0.7811
5.994	0.7097
5.9527	0.916
5.912	0.8371
5.8718	0.8257
5.8322	0.8597
5.7931	1.0961
5.7545	1.0526
5.7165	1.1501
5.6789	1.2763
5.6418	1.1285
5.6052	1.2227
5.5691	1.2786
5.5334	1.3467
5.4982	1.412
5.4635	1.498
5.4291	1.4038
5.3952	1.5241
5.3618	1.6151
5.3287	1.6733
5.2961	1.7958
5.2638	1.9702
5.2319	1.9765
5.2004	2.073
5.1693	2.2657
5.1386	2.3609
5.1082	2.4743
5.0782	2.4228
5.0485	2.5828
5.0192	2.6037
4.9902	2.6416
4.9616	2.6789
4.9332	2.7374
4.9052	2.7023
4.8776	2.8838
4.8502	2.9369
4.8231	3.0549
4.7963	3.0524
4.7699	3.3453
4.7437	3.4301
4.7178	3.5274
4.6922	3.6341
4.6668	3.72
4.6418	3.83
4.617	3.9299
4.5924	4.0766
4.5681	4.297
4.5441	4.3689
4.5203	4.4024
4.4968	4.5865
4.4735	4.6069
4.4505	4.8287
4.4277	4.7541
4.4051	4.977
4.3828	5.0688
4.3607	5.2168
4.3388	5.1527
4.3171	5.2944
4.2956	5.2962
4.2744	5.4871
4.2534	5.4879
4.2325	5.55
4.2119	5.7285
4.1915	5.6975
4.1712	5.7253
4.1512	5.8187
4.1313	5.7987
4.1117	5.8696
4.0922	5.9834
4.0729	5.9587
4.0538	6.0066
4.0349	6.0039
4.0161	6.105
3.9976	6.1455
3.9792	6.0816
3.9609	5.9965
3.9428	6.0023
3.9249	5.9665
3.9072	5.9484
3.8896	5.9169
3.8722	5.7789
3.8549	5.7197
3.8378	5.5226
3.8208	5.336
3.804	5.3218
3.7873	5.2335
3.7708	4.8929
3.7544	4.8322
3.7382	4.5717
3.7221	4.3663
3.7061	4.3396
3.6903	4.0147
3.6746	3.7444
3.659	3.6376
3.6436	3.4872
3.6283	3.3679
3.6131	3.265
3.5981	3.077
3.5832	2.9574
3.5684	2.7663
3.5537	2.6766
3.5391	2.5398
3.5247	2.554
3.5104	2.4203
3.4962	2.3646
3.4821	2.1954
3.4681	2.1406
3.4543	2.0667
3.4405	1.9663
3.4269	2.0057
3.4133	1.8046
3.3999	1.7647
3.3866	1.6814
3.3733	1.6651
3.3602	1.5961
3.3472	1.7458
3.3343	1.5774
3.3215	1.5864
3.3088	1.4428
3.2961	1.6338
3.2836	1.5549
3.2712	1.6717
3.2588	1.5759
3.2466	1.4489
3.2345	1.544
3.2224	1.5414
3.2104	1.4435
3.1985	1.3506
3.1867	1.3734
3.175	1.3886
3.1634	1.3793
3.1519	1.4185
3.1404	1.4093
3.129	1.4381
3.1178	1.1944
3.1065	1.3
3.0954	1.2161
3.0844	1.2237
3.0734	1.372
3.0625	1.2245
3.0517	1.3447
3.041	1.3119
3.0303	1.292
3.0197	1.1616
3.0092	1.2203
2.9987	1.1947
2.9884	1.1591
2.9781	1.1607
2.9678	1.1785
2.9577	1.1546
2.9476	1.2458
2.9376	1.322
2.9276	1.1582
2.9177	1.0621
2.9079	1.2075
2.8982	1.3261
2.8885	1.3225
2.8789	1.3784
2.8693	1.3117
2.8598	1.287
2.8504	1.1815
2.841	1.3967
2.8317	1.1814
2.8224	1.2109
2.8133	0.982
2.8041	1.1751
2.7951	0.9548
2.786	1.0428
2.7771	0.851
2.7682	1.1308
2.7594	1.1799
2.7506	1.0648
2.7418	1.3117
2.7332	1.3297
2.7246	1.3552
2.716	1.7833
2.7075	1.8022
2.699	2.0943
2.6906	2.7007
2.6823	3.7707
2.674	4.9354
2.6657	5.7465
2.6575	6.4432
2.6494	7.1893
2.6413	7.6614
2.6332	8.3649
2.6252	8.535
2.6173	8.8966
2.6094	9.2193
2.6015	9.5747
2.5937	9.7213
2.5859	10.0464
2.5782	10.4862
2.5706	10.4406
2.5629	10.4851
2.5554	10.7317
2.5478	10.8624
2.5403	10.7072
2.5329	10.7002
2.5255	10.9096
2.5181	10.7846
2.5108	10.752
2.5035	10.8222
2.4963	10.9748
2.4891	10.9566
2.482	11.0614
2.4749	11.5331
2.4678	11.6293
2.4608	11.8654
2.4538	12.119
2.4468	12.3357
2.4399	12.6878
2.4331	13.0637
2.4262	13.2961
2.4194	13.7183
2.4127	13.8446
2.4059	13.7494
2.3993	13.4351
2.3926	13.0281
2.386	12.2588
2.3795	11.6809
2.3729	10.9969
2.3664	10.8163
2.36	11.0402
2.3535	11.3614
2.3471	11.7623
2.3408	12.0307
2.3345	12.0498
2.3282	11.7515
2.3219	10.6303
2.3157	10.0124
2.3095	9.7986
2.3034	10.3761
2.2972	11.1085
2.2911	12.1599
2.2851	13.6292
2.279	14.2452
2.2731	13.871
2.2671	13.9454
2.2612	14.0742
2.2553	13.7212
2.2494	13.8639
2.2435	14.4625
2.2377	14.6758
2.232	14.9399
2.2262	15.31
2.2205	15.6505
2.2148	16.0357
2.2091	15.7038
2.2035	15.7915
2.1979	15.8214
2.1923	15.9366
2.1868	16.0632
2.1812	15.7769
2.1758	16.1415
2.1703	15.8827
2.1649	15.9518
2.1595	15.5455
2.1541	15.7646
2.1487	15.6467
2.1434	15.5987
2.1381	15.3409
2.1328	15.1974
2.1275	15.2504
2.1223	14.9161
2.1171	15.0698
2.112	14.8584
2.1068	14.4396
2.1017	14.2657
2.0966	14.2814
2.0915	14.6148
2.0865	14.0858
2.0814	13.8748
2.0764	13.4191
2.0715	14.0307
2.0665	13.1894
2.0616	12.7531
2.0567	12.814
2.0518	12.4666
2.0469	12.5703
2.0421	12.6693
2.0373	12.2279
2.0325	12.1203
2.0277	11.3394
2.0229	11.8172
2.0182	11.3017
2.0135	11.5039
2.0088	10.9861
2.0042	10.8447
