Name: Kernite Na_2B_4O_6(OH)_2.3H_2O
Type: Mineral
Class: Borate
Subclass: None
Particle Size: Coarse
Sample No.: B-2A
Owner: JPL
Wavelength Range: VSWIR
Origin: USA, California, Kern County, Boron
Description: Particle size was 125-500um.Collected by JPL Original ASTER Spectral Library name was jpl.beckman.mineral.borate.none.coarse.b02.spectrum.txt
Measurement: Hemispherical reflectance
X Units: Wavelength (micrometers)
Y Units: Reflectance (percent)
wavelength	value
0.4	87.44
0.403	87.67
0.406	88.02
0.409	88.14
0.412	88.48
0.415	88.25
0.418	88.76
0.421	88.6
0.424	88.93
0.427	88.88
0.43	89.28
0.433	88.99
0.436	89.34
0.439	89.45
0.442	89.57
0.445	89.39
0.448	89.97
0.451	89.91
0.454	90.14
0.457	90.32
0.46	90.33
0.463	90.05
0.466	90.62
0.469	90.06
0.472	90.29
0.475	90.24
0.478	90.37
0.481	90.54
0.484	90.88
0.487	90.88
0.49	90.84
0.493	90.9
0.496	90.9
0.499	91.26
0.502	90.86
0.505	91.09
0.508	90.97
0.511	91.15
0.514	91.2
0.517	91.38
0.52	91.32
0.523	91.38
0.526	91.38
0.529	91.38
0.532	91.72
0.535	91.49
0.538	91.84
0.541	91.61
0.544	91.61
0.547	91.66
0.55	91.38
0.553	91.78
0.556	91.43
0.559	91.89
0.562	91.72
0.565	92.17
0.568	91.78
0.571	92.17
0.574	91.84
0.577	92.4
0.58	91.94
0.583	91.78
0.586	91.84
0.589	91.61
0.592	91.78
0.595	91.43
0.598	91.89
0.601	91.94
0.604	92.35
0.607	92.23
0.61	92.58
0.613	92.52
0.616	92.58
0.619	92.58
0.622	92.29
0.625	92.63
0.628	92.23
0.631	92.69
0.634	92.46
0.637	92.58
0.64	92.58
0.643	92.58
0.646	92.58
0.649	92.23
0.652	92.75
0.655	92.4
0.658	92.63
0.661	92.58
0.664	92.63
0.667	92.63
0.67	92.63
0.673	92.69
0.676	92.58
0.679	92.69
0.682	92.58
0.685	92.81
0.688	92.63
0.691	92.98
0.694	92.75
0.697	93.04
0.7	92.69
0.703	92.69
0.706	92.52
0.709	92.52
0.712	92.52
0.715	92.86
0.718	92.69
0.721	93.09
0.724	92.52
0.727	92.86
0.73	92.12
0.733	92.75
0.736	92.46
0.739	92.46
0.742	92.35
0.745	92.46
0.748	92.23
0.751	91.84
0.754	92.06
0.757	91.94
0.76	92
0.763	91.94
0.766	92.12
0.769	92.12
0.772	92.63
0.775	92.23
0.778	92.46
0.781	92.35
0.784	92.46
0.787	92.12
0.79	92.35
0.793	92.29
0.796	91.89
0.799	91.61
0.808	91.38
0.82	91.32
0.832	91.38
0.844	91.38
0.856	91.32
0.868	91.43
0.88	91.43
0.892	91.26
0.904	91.09
0.916	91.03
0.928	91.09
0.94	91.03
0.952	90.91
0.964	90.29
0.976	88.51
0.988	87.07
1	88.57
1.012	89.43
1.024	89.71
1.036	89.94
1.048	90.34
1.06	90.23
1.072	90.23
1.084	90.23
1.096	90.29
1.108	90.12
1.12	90.06
1.132	89.94
1.144	89.6
1.156	89.01
1.168	88.3
1.18	87.31
1.192	86.21
1.204	85.33
1.216	84.7
1.228	84.3
1.24	83.67
1.252	82.7
1.264	82.61
1.276	83.69
1.288	83.95
1.3	83.47
1.312	82.49
1.324	82.51
1.336	82.56
1.348	82.02
1.36	81.27
1.372	80.42
1.384	79.56
1.396	77.67
1.408	73.18
1.42	65.53
1.432	53.44
1.444	50.54
1.456	55.91
1.468	55.34
1.48	53.51
1.492	52.6
1.504	52.88
1.516	53.57
1.528	54.31
1.54	54.43
1.552	54.31
1.564	54.37
1.576	54.66
1.588	55.06
1.6	55.74
1.612	56.35
1.624	57.03
1.636	57.7
1.648	58.31
1.66	58.65
1.672	58.74
1.684	58.72
1.696	58.54
1.708	58.25
1.72	57.69
1.732	57.17
1.744	56.66
1.756	56.02
1.768	55.4
1.78	54.83
1.792	54.66
1.804	55.22
1.816	55.72
1.828	56.13
1.84	56.25
1.852	56.08
1.864	55.33
1.876	53.73
1.888	50.98
1.9	47.17
1.912	43.13
1.924	39.38
1.936	35.51
1.948	31.87
1.96	29.3
1.972	28.2
1.984	28.07
1.996	28.49
2.008	29.29
2.02	30.27
2.032	30.76
2.044	31.21
2.056	32.61
2.068	34.54
2.08	36
2.092	36.9
2.104	37.7
2.116	38.15
2.128	38.07
2.14	37.66
2.152	36.72
2.164	34.48
2.176	30.18
2.188	27.69
2.2	29.61
2.212	33.06
2.224	35.9
2.236	37.85
2.248	39.13
2.26	39.76
2.272	40.44
2.284	41.45
2.296	42.44
2.308	42.87
2.32	42.82
2.332	41.88
2.344	40.51
2.356	38.96
2.368	36.97
2.38	34.69
2.392	32.49
2.404	30.98
2.416	29.81
2.428	29.03
2.44	28.59
2.452	28.36
2.464	28.18
2.476	27.89
2.488	27.84
2.5	27.66
