Name: Marcasite FeS_2
Type: Mineral
Class: Sulfide
Subclass: None
Particle Size: Medium
Sample No.: S-10A
Owner: JPL
Wavelength Range: VSWIR
Origin: USA, Indiana, Jasper County, Rensselaer, Pleasant Ridge Quarry
Description: Particle size was 45-125um.Collected by Ward's Original ASTER Spectral Library name was jpl.beckman.mineral.sulfide.none.medium.s10a.spectrum.txt
Measurement: Hemispherical reflectance
X Units: Wavelength (micrometers)
Y Units: Reflectance (percent)
wavelength	value
0.4	1.89
0.403	1.85
0.406	1.91
0.409	1.79
0.412	1.78
0.415	1.84
0.418	1.85
0.421	1.9
0.424	1.78
0.427	1.84
0.43	1.78
0.433	1.9
0.436	1.9
0.439	1.96
0.442	1.72
0.445	1.83
0.448	1.89
0.451	1.95
0.454	2.02
0.457	1.94
0.46	1.94
0.463	1.95
0.466	2.01
0.469	1.96
0.472	2.02
0.475	1.96
0.478	2.08
0.481	2.06
0.484	2.13
0.487	2.12
0.49	2.17
0.493	2.17
0.496	2.27
0.499	2.33
0.502	2.32
0.505	2.38
0.508	2.38
0.511	2.36
0.514	2.48
0.517	2.53
0.52	2.58
0.523	2.64
0.526	2.58
0.529	2.65
0.532	2.71
0.535	2.76
0.538	2.77
0.541	2.82
0.544	2.74
0.547	2.9
0.55	3.06
0.553	3.05
0.556	3
0.559	3.04
0.562	3.16
0.565	3.22
0.568	3.22
0.571	3.39
0.574	3.54
0.577	3.41
0.58	3.38
0.583	3.45
0.586	3.63
0.589	3.69
0.592	3.74
0.595	3.87
0.598	3.79
0.601	3.92
0.604	3.92
0.607	3.96
0.61	3.96
0.613	3.96
0.616	4.07
0.619	4.13
0.622	4.17
0.625	4.17
0.628	4.24
0.631	4.24
0.634	4.35
0.637	4.41
0.64	4.36
0.643	4.42
0.646	4.45
0.649	4.64
0.652	4.7
0.655	4.7
0.658	4.64
0.661	4.81
0.664	4.8
0.667	4.75
0.67	4.99
0.673	4.98
0.676	5.03
0.679	5
0.682	5.15
0.685	5.27
0.688	5.2
0.691	5.23
0.694	5.26
0.697	5.4
0.7	5.38
0.703	5.61
0.706	5.49
0.709	5.61
0.712	5.67
0.715	5.62
0.718	5.78
0.721	5.8
0.724	5.71
0.727	5.88
0.73	5.89
0.733	6
0.736	6.06
0.739	6.05
0.742	6.11
0.745	6.11
0.748	6.26
0.751	6.29
0.754	6.28
0.757	6.27
0.76	6.35
0.763	6.38
0.766	6.38
0.769	6.55
0.772	6.55
0.775	6.67
0.778	6.69
0.781	6.67
0.784	6.71
0.787	6.9
0.79	7.05
0.793	7.01
0.796	6.92
0.799	7.03
0.808	7.31
0.82	7.45
0.832	7.62
0.844	7.77
0.856	7.85
0.868	7.98
0.88	8.22
0.892	8.34
0.904	8.46
0.916	8.69
0.928	8.82
0.94	8.89
0.952	9.01
0.964	9.18
0.976	9.29
0.988	9.52
1	9.56
1.012	9.64
1.024	9.79
1.036	9.99
1.048	10.09
1.06	10.33
1.072	10.38
1.084	10.57
1.096	10.61
1.108	10.77
1.12	10.84
1.132	11.08
1.144	11.16
1.156	11.29
1.168	11.36
1.18	11.45
1.192	11.54
1.204	11.72
1.216	11.77
1.228	11.97
1.24	12.14
1.252	12.19
1.264	12.29
1.276	12.41
1.288	12.52
1.3	12.6
1.312	12.74
1.324	12.91
1.336	12.96
1.348	13.08
1.36	13.12
1.372	13.26
1.384	13.33
1.396	13.47
1.408	13.54
1.42	13.72
1.432	13.77
1.444	13.91
1.456	13.94
1.468	14.03
1.48	14.19
1.492	14.24
1.504	14.37
1.516	14.53
1.528	14.51
1.54	14.69
1.552	14.76
1.564	14.81
1.576	14.87
1.588	15.01
1.6	15.05
1.612	15.05
1.624	15.19
1.636	15.23
1.648	15.28
1.66	15.41
1.672	15.48
1.684	15.59
1.696	15.71
1.708	15.71
1.72	15.78
1.732	15.9
1.744	15.9
1.756	15.86
1.768	16.02
1.78	16.06
1.792	16.12
1.804	16.22
1.816	16.31
1.828	16.24
1.84	16.36
1.852	16.44
1.864	16.48
1.876	16.47
1.888	16.54
1.9	16.7
1.912	16.67
1.924	16.64
1.936	16.79
1.948	16.89
1.96	16.87
1.972	16.94
1.984	17.02
1.996	17.09
2.008	17.13
2.02	17.17
2.032	17.29
2.044	17.34
2.056	17.4
2.068	17.33
2.08	17.54
2.092	17.56
2.104	17.59
2.116	17.66
2.128	17.62
2.14	17.72
2.152	17.86
2.164	17.81
2.176	17.8
2.188	17.76
2.2	17.88
2.212	17.82
2.224	17.92
2.236	17.99
2.248	18.04
2.26	18.06
2.272	18.08
2.284	18.13
2.296	18.11
2.308	18.23
2.32	18.37
2.332	18.46
2.344	18.52
2.356	18.46
2.368	18.45
2.38	18.57
2.392	18.61
2.404	18.61
2.416	18.63
2.428	18.59
2.44	18.7
2.452	18.74
2.464	18.76
2.476	18.76
2.488	18.8
2.5	18.94
