Name: Sodalite Na_8Al_6Si_6O_24Cl_2
Type: Mineral
Class: Silicate
Subclass: Tectosilicate
Particle Size: Coarse
Sample No.: TS-10A
Owner: JPL
Wavelength Range: VSWIR
Origin: Canada, Ontario, Hastings County, Bancroft.
Description: Particle size was 125-500um. Collected by:  JPL Original ASTER Spectral Library name was jpl.perkin.mineral.silicate.tectosilicate.coarse.ts10a.spectrum.txt
Measurement: Hemispherical reflectance
X Units: Wavelength (micrometers)
Y Units: Reflectance (percent)
wavelength	value
2.5	52.7884
2.494	52.9482
2.488	53.3658
2.482	54.1086
2.476	54.767
2.47	55.604
2.464	56.2496
2.458	57.0615
2.452	57.661
2.446	58.2415
2.44	58.746
2.434	59.191
2.428	59.5675
2.422	59.9369
2.416	60.3918
2.41	60.7574
2.404	61.0236
2.398	61.1203
2.392	61.3018
2.386	61.3871
2.38	61.3164
2.374	61.0998
2.368	60.8809
2.362	60.5333
2.356	60.0545
2.35	59.4983
2.344	59.0481
2.338	58.7098
2.332	58.7599
2.326	58.9932
2.32	59.455
2.314	59.9521
2.308	60.359
2.302	60.6014
2.296	61.0441
2.29	61.372
2.284	61.6761
2.278	62.0716
2.272	62.4614
2.266	62.7398
2.26	63.0176
2.254	63.3295
2.248	63.5019
2.242	63.9587
2.236	64.1902
2.23	64.5283
2.224	64.6306
2.218	64.8078
2.212	64.8848
2.206	65.0212
2.2	65.1663
2.194	65.2697
2.188	65.492
2.182	65.5723
2.176	65.8851
2.17	65.9147
2.164	65.9967
2.158	66.1736
2.152	66.2283
2.146	66.1644
2.14	66.1658
2.134	66.1213
2.128	66.0387
2.122	66.0725
2.116	65.9384
2.11	65.9972
2.104	65.9628
2.098	65.9306
2.092	66.0816
2.086	66.172
2.08	66.3012
2.074	66.2187
2.068	66.2754
2.062	66.3399
2.056	66.2218
2.05	66.2682
2.044	66.2481
2.038	66.2603
2.032	66.2275
2.026	66.1345
2.02	66.1095
2.014	65.8363
2.008	65.7913
2.002	65.4279
1.996	65.2903
1.99	65.1319
1.984	64.8721
1.978	64.7269
1.972	64.5896
1.966	64.4706
1.96	64.3465
1.954	64.0983
1.948	63.9889
1.942	63.7555
1.936	63.6573
1.93	63.5092
1.924	63.2526
1.918	62.9956
1.912	63.0806
1.906	63.6997
1.9	64.8466
1.894	65.8382
1.888	66.2951
1.882	66.6271
1.876	66.7846
1.87	66.901
1.864	67.1594
1.858	67.3165
1.852	67.3488
1.846	67.3877
1.84	67.3307
1.834	67.3828
1.828	67.3732
1.822	67.3942
1.816	67.3907
1.81	67.3501
1.804	67.364
1.798	67.3257
1.792	67.3021
1.786	67.2461
1.78	67.1314
1.774	67.0966
1.768	67.0054
1.762	66.965
1.756	66.9159
1.75	66.8125
1.744	66.807
1.738	66.7815
1.732	66.7282
1.726	66.7079
1.72	66.5955
1.714	66.5495
1.708	66.4742
1.702	66.4016
1.696	66.2759
1.69	66.1578
1.684	66.0281
1.678	65.9221
1.672	65.9669
1.666	65.7444
1.66	65.7504
1.654	65.5949
1.648	65.5943
1.642	65.4587
1.636	65.3242
1.63	65.2278
1.624	65.1502
1.618	64.9994
1.612	64.9505
1.606	64.6958
1.6	64.6238
1.594	64.5848
1.588	64.4253
1.582	64.2467
1.576	64.1971
1.57	64.0802
1.564	63.9151
1.558	64.2645
1.552	63.6554
1.546	63.594
1.54	63.4103
1.534	63.2873
1.528	63.2108
1.522	63.0968
1.516	62.9732
1.51	62.8409
1.504	62.6513
1.498	62.5239
1.492	62.4548
1.486	62.2398
1.48	62.1612
1.474	61.9475
1.468	61.8558
1.462	61.6154
1.456	61.4885
1.45	61.1712
1.444	60.9312
1.438	60.9469
1.432	60.9693
1.426	60.95
1.42	60.9425
1.414	60.9777
1.408	61.0119
1.402	61.1663
1.396	61.4935
1.39	61.473
1.384	61.6568
1.378	61.6567
1.372	61.6389
1.366	61.6593
1.36	61.5358
1.354	61.5368
1.348	61.4141
1.342	61.3867
1.336	61.3369
1.33	61.2401
1.324	61.249
1.318	61.1914
1.312	61.128
1.306	61.1324
1.3	61.0361
1.294	60.9705
1.288	60.8619
1.282	60.892
1.276	60.714
1.27	60.649
1.264	60.5119
1.258	60.4517
1.252	60.3203
1.246	60.1718
1.24	60.0134
1.234	59.9265
1.228	59.8608
1.222	59.6651
1.216	59.5613
1.21	59.3762
1.204	59.2322
1.198	59.0824
1.192	58.9438
1.186	58.7857
1.18	58.6398
1.174	58.4147
1.168	58.2287
1.162	58.1722
1.156	58.0147
1.15	57.8547
1.144	57.6682
1.138	57.5971
1.132	57.4386
1.126	57.3993
1.12	57.1924
1.114	57.0311
1.108	57.0217
1.102	56.8716
1.096	56.9169
1.09	56.7135
1.084	56.7497
1.078	56.7982
1.072	56.798
1.066	56.7331
1.06	56.7782
1.054	56.763
1.048	56.8665
1.042	56.8768
1.036	56.963
1.03	57.0681
1.024	57.167
1.018	57.1765
1.012	57.2153
1.006	57.4133
1	57.4222
0.994	57.6096
0.988	57.6826
0.982	57.8143
0.976	57.8677
0.97	57.9525
0.964	58.1002
0.958	58.1552
0.952	58.3169
0.946	58.3629
0.94	58.3905
0.934	58.5007
0.928	58.4695
0.922	58.5934
0.916	58.6025
0.91	58.5111
0.904	58.657
0.898	58.6783
0.892	58.6276
0.886	58.7309
0.88	58.7192
0.874	58.7715
0.868	58.7616
0.862	58.7036
0.856	58.9229
0.85	58.9297
0.844	58.8822
0.838	58.8656
0.832	58.8701
0.826	58.8007
0.82	58.6654
0.814	58.6146
0.808	58.4357
0.802	58.2082
0.796	57.96
0.79	57.761
0.784	57.4688
0.778	57.0144
0.772	56.5015
0.766	55.898
0.76	55.1184
0.754	54.1614
0.748	52.979
0.742	51.5577
0.736	49.8984
0.73	47.9676
0.724	45.6906
0.718	43.1647
0.712	40.49
0.706	37.7789
0.7	35.3099
0.694	33.2102
0.688	31.4472
0.682	29.9963
0.676	28.8106
0.67	27.9045
0.664	27.2378
0.658	26.6839
0.652	26.2227
0.646	25.9087
0.64	25.7215
0.634	25.5835
0.628	25.4114
0.622	25.1879
0.616	24.9308
0.61	24.6377
0.604	24.3959
0.598	24.3098
0.592	24.4072
0.586	24.5438
0.58	24.7412
0.574	25.0686
0.568	25.4633
0.562	25.7963
0.556	26.1266
0.55	26.5519
0.544	27.0043
0.538	27.4469
0.532	27.9814
0.526	28.6178
0.52	29.2285
0.514	29.8119
0.508	30.4757
0.502	31.2149
0.496	31.9387
0.49	32.6484
0.484	33.3521
0.478	34.1137
0.472	34.9056
0.466	35.6388
0.46	36.307
0.454	36.949
0.448	37.5099
0.442	37.9457
0.436	38.2437
0.43	38.4242
0.424	38.4866
0.418	38.4888
0.412	38.3653
0.406	38.0646
0.4	37.6103
