Name: Quartz SiO_2
Type: Mineral
Class: Silicate
Subclass: Tectosilicate
Particle Size: Fine
Sample No.: TS-1D
Owner: JPL
Wavelength Range: VSWIR
Origin: USA, Coloradi, Buffalo
Description: Milky quartz. Particle size was 0-45um.Collected by Ward's Original ASTER Spectral Library name was jpl.beckman.mineral.silicate.tectosilicate.fine.ts01d.spectrum.txt
Measurement: Hemispherical reflectance
X Units: Wavelength (micrometers)
Y Units: Reflectance (percent)
wavelength	value
0.4	76.73
0.403	76.79
0.406	76.92
0.409	77.07
0.412	77.06
0.415	77.04
0.418	77.2
0.421	77.3
0.424	77.32
0.427	77.09
0.43	77.42
0.433	77.46
0.436	77.35
0.439	77.42
0.442	77.53
0.445	77.75
0.448	77.64
0.451	77.77
0.454	77.77
0.457	77.94
0.46	77.86
0.463	77.77
0.466	77.76
0.469	77.84
0.472	78.1
0.475	77.83
0.478	77.99
0.481	78.18
0.484	78.17
0.487	78.08
0.49	78.06
0.493	78.18
0.496	78.2
0.499	78.08
0.502	78.12
0.505	78.37
0.508	78.28
0.511	78.22
0.514	78.42
0.517	78.45
0.52	78.43
0.523	78.35
0.526	78.46
0.529	78.47
0.532	78.38
0.535	78.35
0.538	78.51
0.541	78.44
0.544	78.45
0.547	78.64
0.55	78.63
0.553	78.6
0.556	78.72
0.559	78.73
0.562	79.13
0.565	78.98
0.568	79.02
0.571	78.79
0.574	78.67
0.577	78.67
0.58	78.7
0.583	78.52
0.586	78.63
0.589	78.65
0.592	78.72
0.595	78.67
0.598	78.73
0.601	78.85
0.604	78.93
0.607	78.8
0.61	78.86
0.613	78.91
0.616	78.75
0.619	78.82
0.622	78.82
0.625	78.66
0.628	78.72
0.631	78.93
0.634	78.75
0.637	78.79
0.64	78.88
0.643	78.7
0.646	78.79
0.649	78.82
0.652	78.69
0.655	78.77
0.658	78.67
0.661	78.61
0.664	78.71
0.667	78.82
0.67	78.84
0.673	78.84
0.676	78.73
0.679	78.81
0.682	78.8
0.685	78.76
0.688	78.82
0.691	78.82
0.694	78.8
0.697	78.73
0.7	78.79
0.703	78.62
0.706	78.69
0.709	78.81
0.712	78.66
0.715	78.72
0.718	78.85
0.721	78.73
0.724	78.76
0.727	78.71
0.73	78.87
0.733	78.81
0.736	78.69
0.739	78.77
0.742	78.88
0.745	78.8
0.748	78.75
0.751	78.75
0.754	78.69
0.757	78.66
0.76	78.86
0.763	78.57
0.766	78.69
0.769	78.89
0.772	78.8
0.775	78.68
0.778	78.72
0.781	78.85
0.784	78.68
0.787	78.93
0.79	78.75
0.793	78.88
0.796	79
0.799	79.06
0.808	78.97
0.82	78.99
0.832	78.97
0.844	79.13
0.856	79.07
0.868	79.11
0.88	79.05
0.892	79.05
0.904	78.96
0.916	78.97
0.928	79.02
0.94	79.03
0.952	79.02
0.964	79.01
0.976	79.04
0.988	78.97
1	79.04
1.012	79.02
1.024	78.91
1.036	78.96
1.048	79.01
1.06	79.01
1.072	78.92
1.084	78.98
1.096	78.97
1.108	78.92
1.12	79.11
1.132	79.04
1.144	78.96
1.156	78.99
1.168	78.88
1.18	78.82
1.192	78.88
1.204	78.92
1.216	78.79
1.228	78.88
1.24	78.86
1.252	78.89
1.264	78.9
1.276	78.93
1.288	78.91
1.3	78.85
1.312	78.8
1.324	78.74
1.336	78.73
1.348	78.71
1.36	78.87
1.372	78.76
1.384	78.78
1.396	78.74
1.408	78.81
1.42	78.85
1.432	78.67
1.444	78.87
1.456	78.82
1.468	78.82
1.48	78.76
1.492	78.81
1.504	78.81
1.516	78.86
1.528	78.82
1.54	78.86
1.552	78.76
1.564	78.9
1.576	78.8
1.588	78.79
1.6	78.89
1.612	78.93
1.624	78.81
1.636	78.89
1.648	78.83
1.66	78.89
1.672	78.9
1.684	78.96
1.696	78.86
1.708	78.97
1.72	78.96
1.732	78.92
1.744	78.91
1.756	78.82
1.768	78.92
1.78	78.9
1.792	78.98
1.804	78.87
1.816	78.93
1.828	78.93
1.84	78.83
1.852	78.73
1.864	78.7
1.876	78.77
1.888	78.6
1.9	78.74
1.912	78.68
1.924	78.71
1.936	78.66
1.948	78.68
1.96	78.64
1.972	78.78
1.984	78.89
1.996	78.91
2.008	79.1
2.02	79.18
2.032	79.23
2.044	79.32
2.056	79.2
2.068	79.2
2.08	79.38
2.092	79.41
2.104	79.62
2.116	79.76
2.128	79.73
2.14	79.61
2.152	79.44
2.164	79.31
2.176	79.19
2.188	79.01
2.2	78.95
2.212	79.06
2.224	79.16
2.236	79.2
2.248	79.16
2.26	79.15
2.272	79.29
2.284	79.24
2.296	79.27
2.308	79.43
2.32	79.69
2.332	79.64
2.344	79.63
2.356	79.67
2.368	79.56
2.38	79.73
2.392	79.58
2.404	79.55
2.416	79.7
2.428	79.58
2.44	79.62
2.452	79.59
2.464	79.62
2.476	79.62
2.488	80.02
2.5	80.23
