Name: Plumbojarosite PbFe_3^3+(SO_4)_4(OH)_12
Type: Mineral
Class: Sulfate
Subclass: None
Particle Size: Coarse
Sample No.: SO-7B
Owner: JPL
Wavelength Range: VSWIR
Origin: Mexico, Hidalgo, Zimapan, Lomo De Toro Mine.
Description: Particle size was 125-500um. Collected by:  Burminco Original ASTER Spectral Library name was jpl.perkin.mineral.sulfate.none.coarse.so07b.spectrum.txt
Measurement: Hemispherical reflectance
X Units: Wavelength (micrometers)
Y Units: Reflectance (percent)
wavelength	value
2.5	42.5803
2.494	43.2343
2.488	43.737
2.482	44.0513
2.476	44.5088
2.47	44.5864
2.464	44.6153
2.458	44.4239
2.452	44.3614
2.446	44.0238
2.44	43.6955
2.434	43.4501
2.428	43.4354
2.422	43.37
2.416	43.4414
2.41	43.5555
2.404	43.9069
2.398	44.5567
2.392	45.3641
2.386	46.1741
2.38	47.1927
2.374	48.0059
2.368	48.7358
2.362	49.3428
2.356	49.7735
2.35	50.1478
2.344	50.277
2.338	50.2414
2.332	49.9103
2.326	49.4441
2.32	48.8172
2.314	48.2108
2.308	47.6666
2.302	47.1723
2.296	46.6391
2.29	46.2211
2.284	46.0999
2.278	46.2018
2.272	46.6371
2.266	47.1073
2.26	47.361
2.254	47.6713
2.248	48.3002
2.242	49.2942
2.236	50.5952
2.23	51.9087
2.224	52.963
2.218	53.9933
2.212	54.7926
2.206	55.6007
2.2	56.3593
2.194	56.9905
2.188	57.5948
2.182	58.22
2.176	58.8754
2.17	59.3874
2.164	60.0118
2.158	60.4656
2.152	60.9556
2.146	61.2089
2.14	61.4436
2.134	61.5957
2.128	61.7387
2.122	61.7396
2.116	61.6671
2.11	61.6465
2.104	61.5161
2.098	61.5177
2.092	61.6182
2.086	61.6999
2.08	61.7861
2.074	61.6805
2.068	61.6319
2.062	61.5896
2.056	61.6181
2.05	61.6443
2.044	61.8512
2.038	61.9558
2.032	62.0436
2.026	62.1554
2.02	62.2537
2.014	62.3885
2.008	62.5324
2.002	62.5779
1.996	62.5845
1.99	62.6424
1.984	62.6745
1.978	62.5224
1.972	62.6113
1.966	62.4627
1.96	62.3746
1.954	62.2805
1.948	62.3539
1.942	62.3722
1.936	62.5095
1.93	62.7603
1.924	63.0781
1.918	63.5502
1.912	64.0969
1.906	64.531
1.9	64.7908
1.894	64.8831
1.888	64.6962
1.882	64.3737
1.876	64.2465
1.87	64.257
1.864	64.3397
1.858	64.4201
1.852	64.4692
1.846	64.3068
1.84	64.3039
1.834	64.7284
1.828	65.6407
1.822	66.3884
1.816	66.7827
1.81	67.1271
1.804	67.2317
1.798	67.3665
1.792	67.5208
1.786	67.6834
1.78	67.678
1.774	67.7547
1.768	67.8824
1.762	67.93
1.756	67.99
1.75	68.0876
1.744	68.1057
1.738	68.2175
1.732	68.3222
1.726	68.3864
1.72	68.4243
1.714	68.4736
1.708	68.3764
1.702	68.4348
1.696	68.3949
1.69	68.3654
1.684	68.4004
1.678	68.3858
1.672	68.3632
1.666	68.3761
1.66	68.3439
1.654	68.3774
1.648	68.1485
1.642	68.2825
1.636	68.1776
1.63	68.0855
1.624	68.0775
1.618	68.0713
1.612	67.972
1.606	67.9106
1.6	67.8321
1.594	67.7077
1.588	67.5502
1.582	67.4648
1.576	67.3644
1.57	67.1919
1.564	67.0506
1.558	66.8903
1.552	66.6615
1.546	66.5961
1.54	66.4775
1.534	66.4073
1.528	66.3529
1.522	66.3221
1.516	66.2946
1.51	66.2063
1.504	66.1162
1.498	65.8498
1.492	65.4196
1.486	64.75
1.48	64.7005
1.474	64.6809
1.468	64.8649
1.462	65.3082
1.456	65.712
1.45	66.1766
1.444	66.5317
1.438	66.8419
1.432	67.0179
1.426	67.0806
1.42	67.1646
1.414	67.1807
1.408	67.2013
1.402	67.2806
1.396	67.3149
1.39	67.2862
1.384	67.206
1.378	66.9669
1.372	66.7552
1.366	66.5664
1.36	66.355
1.354	66.1428
1.348	65.8414
1.342	65.6185
1.336	65.2943
1.33	64.9194
1.324	64.6944
1.318	64.3184
1.312	63.9804
1.306	63.6428
1.3	63.2778
1.294	62.8193
1.288	62.4639
1.282	62.11
1.276	61.6577
1.27	61.2578
1.264	60.7725
1.258	60.2993
1.252	59.8365
1.246	59.3141
1.24	58.8415
1.234	58.3384
1.228	57.8173
1.222	57.283
1.216	56.7697
1.21	56.2085
1.204	55.7101
1.198	55.0656
1.192	54.4664
1.186	54.0092
1.18	53.421
1.174	52.8024
1.168	52.2304
1.162	51.7017
1.156	51.1171
1.15	50.5298
1.144	49.8888
1.138	49.3521
1.132	48.8535
1.126	48.2739
1.12	47.739
1.114	47.2203
1.108	46.6373
1.102	46.0697
1.096	45.6093
1.09	45.1396
1.084	44.6166
1.078	44.1687
1.072	43.7143
1.066	43.2701
1.06	42.8894
1.054	42.4379
1.048	42.0545
1.042	41.632
1.036	41.3625
1.03	41.0465
1.024	40.6104
1.018	40.4049
1.012	40.1352
1.006	39.8486
1	39.6303
0.994	39.4306
0.988	39.2249
0.982	39.0115
0.976	38.8232
0.97	38.6956
0.964	38.6075
0.958	38.4921
0.952	38.4173
0.946	38.2895
0.94	38.2571
0.934	38.1927
0.928	38.2575
0.922	38.2476
0.916	38.2968
0.91	38.3278
0.904	38.4173
0.898	38.5797
0.892	38.7268
0.886	38.8752
0.88	39.0461
0.874	39.3309
0.868	39.6001
0.862	39.8533
0.856	40.5596
0.85	40.9673
0.844	41.3811
0.838	41.9
0.832	42.4064
0.826	42.978
0.82	43.5622
0.814	44.185
0.808	44.7825
0.802	45.4319
0.796	46.0425
0.79	46.6819
0.784	47.2695
0.778	47.8549
0.772	48.3722
0.766	48.8382
0.76	49.2129
0.754	49.5009
0.748	49.6886
0.742	49.7467
0.736	49.7141
0.73	49.5836
0.724	49.3293
0.718	49.0074
0.712	48.584
0.706	48.126
0.7	47.6251
0.694	47.0871
0.688	46.527
0.682	45.9541
0.676	45.376
0.67	44.8056
0.664	44.2199
0.658	43.6376
0.652	43.0441
0.646	42.4643
0.64	41.8603
0.634	41.233
0.628	40.6057
0.622	39.9417
0.616	39.2773
0.61	38.5958
0.604	37.8987
0.598	37.1973
0.592	36.4516
0.586	35.6258
0.58	34.7558
0.574	33.7462
0.568	32.6065
0.562	31.3963
0.556	29.9828
0.55	28.4994
0.544	26.9524
0.538	25.3731
0.532	23.8454
0.526	22.3666
0.52	20.9712
0.514	19.6826
0.508	18.4738
0.502	17.3954
0.496	16.3611
0.49	15.4239
0.484	14.5792
0.478	13.8428
0.472	13.2053
0.466	12.6425
0.46	12.0508
0.454	11.2511
0.448	10.1991
0.442	9.151
0.436	8.5209
0.43	8.1829
0.424	7.7853
0.418	7.276
0.412	6.6496
0.406	5.9713
0.4	5.3551
