Name: Chrysotile Mg3Si2O5(OH)4
Type: Mineral
Class: Silicate
Subclass: Phyllosilicate
Particle Size: Coarse
Sample No.: chrysotile_1
Owner: JHU
Wavelength Range: TIR
Origin: Smithsonian NMNH 91197; Sample from Kaapsche Hoop,Barberton, Transvaal (E), South Africa.
Description: The hand sample was fibrous, asbestiform. The sample was relatively clean and sample portions with dust adhering were discarded.  The remainder was a fibrous white mass weighing approximately 2.35 g.  Aside from adhering dust, the sample showed no contamination.  The sample appears to be pure chrysotile under the microscope. Particle size was 74-250 Micrometer - fiber bundle. (sheet silicates) (Serpentine/Kaplin Group) Original ASTER Spectral Library name was jhu.nicolet.mineral.silicate.phyllosilicate.coarse.chryso1.spectrum.txt
Measurement: Bidirectional reflectance
X Units: Wavelength (micrometers)
Y Units: Reflectance (percent)
wavelength	value
25.0442	8.2929
24.3388	8.1338
23.6719	7.3349
23.0407	12.091
22.4422	16.4326
21.8741	18.9091
21.334	20.6025
20.8199	19.5541
20.33	16.8586
19.8627	13.2563
19.4163	9.1128
18.9896	5.4438
18.5812	5.3696
18.19	5.8262
17.815	5.6042
17.4551	5.1763
17.1094	5.3708
16.7772	5.3379
16.4576	6.9121
16.15	8.2602
15.8537	10.3784
15.568	11.3405
15.2925	11.2986
15.0265	10.8279
14.7697	8.468
14.5214	4.9202
14.2814	2.5107
14.0492	1.8896
13.8244	1.9487
13.6067	2.1406
13.3957	2.605
13.1912	2.9092
12.9929	3.5339
12.8004	4.0981
12.6135	4.6391
12.432	5.1357
12.2557	5.5854
12.0843	5.9143
11.9176	6.228
11.7555	6.4453
11.5977	6.7373
11.444	7.0588
11.2944	7.4167
11.1487	7.5808
11.0067	7.4187
10.8682	7.2187
10.7332	6.749
10.6015	6.1968
10.473	6.7024
10.3476	8.0928
10.2251	9.1272
10.1056	10.0185
9.9887	12.6843
9.8746	14.0341
9.763	14.1289
9.6539	14.4397
9.5472	12.8518
9.4429	7.78
9.3408	6.4868
9.2409	7.5449
9.1431	10.0989
9.0474	12.7175
8.9536	13.5283
8.8618	8.8159
8.7718	3.397
8.6837	0.5735
8.5973	0.8154
8.5126	1.3154
8.4295	1.7954
8.3481	2.2124
8.2682	2.6406
8.1898	3.0413
8.1129	3.3743
8.0374	3.696
7.9634	3.9575
7.8906	4.198
7.8192	4.4443
7.7491	4.6968
7.6802	4.8904
7.6126	5.0295
7.5461	5.1396
7.4807	5.165
7.4165	5.3076
7.3534	5.6135
7.2914	5.6255
7.2303	5.7251
7.1703	5.9304
7.1113	6.1636
7.0533	6.436
6.9962	6.6887
6.94	6.7588
6.8847	6.7178
6.8302	6.6814
6.7767	7.175
6.7239	7.4138
6.672	7.551
6.6209	7.636
6.5705	7.6084
6.5209	7.4675
6.4721	7.0686
6.424	6.6247
6.3766	6.3384
6.3299	6.2041
6.2838	6.2566
6.2385	6.6245
6.1937	6.8625
6.1496	6.8745
6.1062	7.0095
6.0633	7.3706
6.0211	7.6455
5.9794	7.8913
5.9383	8.1943
5.8978	8.5378
5.8578	8.8987
5.8184	9.2292
5.7794	9.622
5.741	9.7671
5.7031	10.0105
5.6657	10.3547
5.6288	10.6963
5.5924	11.049
5.5564	11.3838
5.5209	11.6279
5.4859	11.8547
5.4513	12.1301
5.4171	12.1926
5.3833	12.2024
5.35	12.3015
5.3171	12.6689
5.2846	13.1958
5.2524	13.7834
5.2207	14.3679
5.1893	14.8315
5.1584	14.9174
5.1277	14.8696
5.0975	14.76
5.0676	14.58
5.038	14.478
5.0088	14.5849
4.98	14.968
4.9514	15.3005
4.9232	15.0752
4.8953	15.0359
4.8678	15.5661
4.8405	16.0747
4.8135	16.1984
4.7868	15.8855
4.7605	15.7739
4.7344	16.3637
4.7086	17.1096
4.6831	17.5615
4.6578	17.7187
4.6328	17.7917
4.6081	17.8901
4.5837	18.0224
4.5595	18.1684
4.5356	18.3122
4.5119	18.4956
4.4884	18.666
4.4652	18.7536
4.4423	18.8344
4.4196	18.9077
4.3971	18.9597
4.3748	19.04
4.3528	19.0898
4.331	19.1555
4.3094	19.2136
4.288	19.3056
4.2668	19.3789
4.2458	19.4833
4.2251	19.5529
4.2045	19.6333
4.1841	19.6997
4.164	19.7587
4.144	19.791
4.1242	19.8415
4.1046	19.8867
4.0852	19.9287
4.066	19.9531
4.047	19.9477
4.0281	19.9306
4.0094	19.9055
3.9909	19.8352
3.9725	19.7734
3.9544	19.6987
3.9363	19.6171
3.9185	19.5305
3.9008	19.4274
3.8833	19.2719
3.8659	19.1071
3.8487	18.9353
3.8316	18.7878
3.8147	18.6096
3.7979	18.4328
3.7813	18.174
3.7648	17.8361
3.7485	17.4709
3.7323	17.135
3.7162	17.038
3.7003	16.9982
3.6845	16.8632
3.6689	16.8293
3.6534	16.705
3.638	16.4875
3.6227	16.146
3.6076	15.9055
3.5926	15.728
3.5777	15.5249
3.563	15.3269
3.5484	14.9235
3.5338	14.0991
3.5195	12.5049
3.5052	10.5337
3.491	11.5012
3.477	11.9572
3.463	11.9919
3.4492	11.1958
3.4355	10.2192
3.4219	8.5823
3.4084	9.1865
3.395	10.489
3.3817	10.5202
3.3685	11.5017
3.3554	12.5232
3.3425	12.8508
3.3296	12.8757
3.3168	12.8432
3.3041	12.7917
3.2915	12.6826
3.279	12.562
3.2666	12.4204
3.2543	12.2531
3.2421	12.1235
3.23	12.0112
3.218	11.9624
3.206	11.851
3.1942	11.7082
3.1824	11.5461
3.1707	11.414
3.1591	11.2722
3.1476	11.146
3.1362	10.9646
3.1249	10.8681
3.1136	10.8081
3.1024	10.7539
3.0913	10.6958
3.0803	10.6506
3.0694	10.5581
3.0585	10.4902
3.0477	10.4057
3.037	10.3554
3.0264	10.282
3.0158	10.2092
3.0053	10.1396
2.9949	10.0884
2.9845	10.0312
2.9743	9.9607
2.9641	9.8952
2.9539	9.8218
2.9439	9.7627
2.9339	9.7397
2.9239	9.7522
2.9141	9.7241
2.9043	9.7461
2.8946	9.7217
2.8849	9.593
2.8753	9.3315
2.8658	9.0102
2.8563	8.9385
2.8469	9.0434
2.8375	9.0561
2.8282	8.9311
2.819	8.7422
2.8098	8.6152
2.8007	8.5156
2.7917	8.4194
2.7827	8.2573
2.7738	7.7055
2.7649	7.0459
2.7561	6.0073
2.7473	4.7124
2.7386	4.6216
2.7299	4.9302
2.7213	4.3091
2.7128	3.2307
2.7043	2.5496
2.6959	7.185
2.6875	9.8384
2.6791	13.997
2.6709	17.3271
2.6626	18.6086
2.6545	19.0559
2.6463	19.997
2.6382	20.9062
2.6302	21.0322
2.6222	21.2456
2.6143	21.1354
2.6064	20.8566
2.5986	20.853
2.5908	20.7023
2.583	20.1105
2.5753	19.8349
2.5677	19.6345
2.5601	19.3862
2.5525	19.5676
2.545	19.8916
2.5375	19.8986
2.5301	19.5285
2.5227	19.1398
2.5154	18.9917
2.5081	18.9777
2.5008	19.1037
2.4936	19.4936
2.4864	20.083
2.4793	20.3964
2.4722	20.6767
2.4651	20.8105
2.4581	20.7656
2.4511	20.6376
2.4442	20.6818
2.4373	20.4396
2.4305	20.3742
2.4236	20.4736
2.4169	21.0441
2.4101	21.1415
2.4034	21.0214
2.3967	20.9213
2.3901	21.1621
2.3835	21.0803
2.377	21.2783
2.3704	21.998
2.364	22.6083
2.3575	22.5129
2.3511	22.0334
2.3447	20.0957
2.3384	18.2131
2.3321	18.5356
2.3258	17.748
2.3195	18.2978
2.3133	19.5419
2.3071	20.6064
2.301	21.3476
2.2949	21.9106
2.2888	22.3486
2.2828	22.8413
2.2767	23.1386
2.2708	23.393
2.2648	23.7617
2.2589	24.352
2.253	24.5995
2.2471	24.9321
2.2413	25.3925
2.2355	25.8246
2.2297	26.2089
2.224	26.7255
2.2183	27.183
2.2126	27.3188
2.207	27.3105
2.2013	27.35
2.1957	27.4223
2.1902	27.4628
2.1846	27.4555
2.1791	27.4228
2.1736	27.5351
2.1682	27.5868
2.1628	27.5868
2.1574	27.4706
2.152	27.3168
2.1466	27.1513
2.1413	27.0629
2.136	27.0146
2.1308	26.7929
2.1255	26.5898
2.1203	26.8383
2.1151	27.0136
2.11	27.0908
2.1048	26.9648
2.0997	26.8364
2.0946	26.912
2.0895	27.0922
2.0845	27.4238
2.0795	27.5785
