Name: Hematite alpha Fe_2O_3
Type: Mineral
Class: Oxide
Subclass: None
Particle Size: Coarse
Sample No.: O-1A
Owner: JPL
Wavelength Range: VSWIR
Origin: USA, Alabama, Birmingham.
Description: Particle size was 125-500um.Collected by:  Burminco Original ASTER Spectral Library name was jpl.perkin.mineral.oxide.none.coarse.o01a.spectrum.txt
Measurement: Hemispherical reflectance
X Units: Wavelength (micrometers)
Y Units: Reflectance (percent)
wavelength	value
2.5	8.3782
2.494	8.3336
2.488	8.1289
2.482	8.3755
2.476	8.3081
2.47	8.2752
2.464	8.2918
2.458	8.2734
2.452	8.3327
2.446	8.2728
2.44	8.3555
2.434	8.2657
2.428	8.3047
2.422	8.3918
2.416	8.2577
2.41	8.2686
2.404	8.2946
2.398	8.3482
2.392	8.3663
2.386	8.3312
2.38	8.2415
2.374	8.3459
2.368	8.2949
2.362	8.2754
2.356	8.2963
2.35	8.3296
2.344	8.2725
2.338	8.2799
2.332	8.3025
2.326	8.2462
2.32	8.2811
2.314	8.2501
2.308	8.2482
2.302	8.2051
2.296	8.3206
2.29	8.2353
2.284	8.2125
2.278	8.2785
2.272	8.2339
2.266	8.194
2.26	8.1956
2.254	8.2127
2.248	8.1808
2.242	8.2343
2.236	8.118
2.23	8.1366
2.224	8.1504
2.218	8.1106
2.212	8.2288
2.206	8.1734
2.2	8.1654
2.194	8.2312
2.188	8.2686
2.182	8.2579
2.176	8.2332
2.17	8.1904
2.164	8.2167
2.158	8.2553
2.152	8.2425
2.146	8.2057
2.14	8.2198
2.134	8.2225
2.128	8.2312
2.122	8.2013
2.116	8.1278
2.11	8.1504
2.104	8.1222
2.098	8.0723
2.092	8.1385
2.086	8.1079
2.08	8.0762
2.074	8.1262
2.068	8.0631
2.062	8.1152
2.056	8.1238
2.05	8.1205
2.044	8.1596
2.038	8.0713
2.032	8.063
2.026	8.0927
2.02	8.0982
2.014	8.0956
2.008	8.136
2.002	8.0591
1.996	8.1264
1.99	8.0122
1.984	8.0997
1.978	7.9959
1.972	8.0858
1.966	8.0462
1.96	8.0826
1.954	8.0617
1.948	8.0485
1.942	8.0654
1.936	8.1247
1.93	8.107
1.924	8.1008
1.918	8.1205
1.912	8.1414
1.906	8.042
1.9	8.0259
1.894	8.092
1.888	8.1406
1.882	8.157
1.876	8.1539
1.87	8.1497
1.864	8.1813
1.858	8.0982
1.852	8.1583
1.846	8.1265
1.84	8.1088
1.834	8.0962
1.828	8.1536
1.822	8.0611
1.816	8.1388
1.81	8.0691
1.804	8.0751
1.798	8.1506
1.792	8.1316
1.786	8.0793
1.78	8.0926
1.774	8.0381
1.768	8.1334
1.762	8.07
1.756	8.048
1.75	8.092
1.744	8.1395
1.738	8.1137
1.732	8.1203
1.726	8.0762
1.72	8.0916
1.714	8.1182
1.708	8.0844
1.702	8.1437
1.696	8.0432
1.69	8.0906
1.684	8.081
1.678	8.0959
1.672	8.0844
1.666	8.1141
1.66	8.1197
1.654	8.1453
1.648	8.1967
1.642	8.1695
1.636	8.1187
1.63	8.1976
1.624	8.0952
1.618	8.2158
1.612	8.2454
1.606	8.2264
1.6	8.2288
1.594	8.2395
1.588	8.3032
1.582	8.2662
1.576	8.2939
1.57	8.2907
1.564	8.3058
1.558	8.2401
1.552	8.3616
1.546	8.361
1.54	8.3613
1.534	8.3256
1.528	8.3686
1.522	8.3915
1.516	8.3828
1.51	8.4072
1.504	8.4529
1.498	8.4694
1.492	8.5025
1.486	8.5806
1.48	8.5375
1.474	8.4878
1.468	8.51
1.462	8.5324
1.456	8.5797
1.45	8.5544
1.444	8.6621
1.438	8.6803
1.432	8.6641
1.426	8.708
1.42	8.6849
1.414	8.6385
1.408	8.6931
1.402	8.7985
1.396	8.8056
1.39	8.8057
1.384	8.9144
1.378	8.9955
1.372	8.9065
1.366	8.9386
1.36	8.9707
1.354	9.1222
1.348	9.0434
1.342	9.0337
1.336	9.1289
1.33	9.1047
1.324	9.1533
1.318	9.2468
1.312	9.2165
1.306	9.2432
1.3	9.2751
1.294	9.2687
1.288	9.3238
1.282	9.4085
1.276	9.3516
1.27	9.4254
1.264	9.4527
1.258	9.5216
1.252	9.5433
1.246	9.5395
1.24	9.5945
1.234	9.6618
1.228	9.6598
1.222	9.7561
1.216	9.7516
1.21	9.7918
1.204	9.8438
1.198	9.8486
1.192	9.888
1.186	9.9325
1.18	9.9981
1.174	10.0214
1.168	10.1062
1.162	10.0646
1.156	10.1701
1.15	10.1161
1.144	10.2497
1.138	10.3613
1.132	10.2442
1.126	10.3606
1.12	10.3542
1.114	10.4389
1.108	10.4771
1.102	10.4807
1.096	10.4706
1.09	10.5839
1.084	10.5844
1.078	10.5863
1.072	10.659
1.066	10.635
1.06	10.6933
1.054	10.6581
1.048	10.7603
1.042	10.6819
1.036	10.7329
1.03	10.6811
1.024	10.6919
1.018	10.6838
1.012	10.6875
1.006	10.6156
1	10.5354
0.994	10.4258
0.988	10.3565
0.982	10.2137
0.976	10.1472
0.97	10.0179
0.964	9.9215
0.958	9.7715
0.952	9.6261
0.946	9.5436
0.94	9.4686
0.934	9.3692
0.928	9.2937
0.922	9.1515
0.916	9.1298
0.91	9.0746
0.904	9.0354
0.898	8.9592
0.892	8.9749
0.886	8.9494
0.88	8.9476
0.874	8.9216
0.868	8.8933
0.862	8.941
0.856	9.2464
0.85	9.2929
0.844	9.348
0.838	9.4321
0.832	9.5043
0.826	9.5931
0.82	9.702
0.814	9.8022
0.808	9.9126
0.802	10.0389
0.796	10.1614
0.79	10.32
0.784	10.4523
0.778	10.583
0.772	10.7259
0.766	10.8652
0.76	10.9677
0.754	11.0534
0.748	11.1156
0.742	11.153
0.736	11.1476
0.73	11.1087
0.724	11.0479
0.718	10.9554
0.712	10.8518
0.706	10.7439
0.7	10.6214
0.694	10.518
0.688	10.4105
0.682	10.3194
0.676	10.2382
0.67	10.1717
0.664	10.1163
0.658	10.0761
0.652	10.0502
0.646	10.0368
0.64	10.0344
0.634	10.0442
0.628	10.0434
0.622	10.0513
0.616	10.0372
0.61	9.9902
0.604	9.8887
0.598	9.7193
0.592	9.4699
0.586	9.1334
0.58	8.7456
0.574	8.3604
0.568	7.9786
0.562	7.6531
0.556	7.3764
0.55	7.1764
0.544	7.0181
0.538	6.8969
0.532	6.8033
0.526	6.7257
0.52	6.6807
0.514	6.6487
0.508	6.6316
0.502	6.6369
0.496	6.6491
0.49	6.6567
0.484	6.6664
0.478	6.6975
0.472	6.7399
0.466	6.7847
0.46	6.8355
0.454	6.8833
0.448	6.9427
0.442	6.9837
0.436	7.009
0.43	7.0065
0.424	6.9851
0.418	6.9621
0.412	6.939
0.406	6.9096
0.4	6.8799
