Name: Tremolite Ca_2(Mg,Fe^2+)_5Si_8O_22(OH)_2
Type: Mineral
Class: Silicate
Subclass: Inosilicate
Particle Size: Fine
Sample No.: IN-5A
Owner: JPL
Wavelength Range: TIR
Origin: N/A
Description: Particle size was 0-45um.Collected by JPL Original ASTER Spectral Library name was jpl.nicolet.mineral.silicate.inosilicate.fine.in05a.spectrum.txt
Measurement: Hemispherical reflectance
X Units: Wavelength (micrometers)
Y Units: Reflectance (percent)
wavelength	value
15.3853	3.2046
15.1161	3.5557
14.8563	4.3115
14.6052	6.4094
14.3624	5.7451
14.1276	5.4801
13.9004	5.9791
13.6803	6.5899
13.4671	6.2223
13.2604	7.5629
13.06	9.3372
12.8656	5.8487
12.6769	8.1888
12.4936	10.2904
12.3155	12.7759
12.1425	13.622
11.9742	14.1746
11.8106	13.4819
11.6513	12.3088
11.4963	11.1467
11.3454	11.4271
11.1983	10.4436
11.0551	9.602
10.9154	10.3693
10.7793	8.4101
10.6465	9.2303
10.5169	15.4593
10.3904	18.2516
10.267	19.4359
10.1464	22.2376
10.0287	22.4119
9.9136	19.7793
9.8012	14.3091
9.6913	11.6992
9.5838	12.6446
9.4787	13.6603
9.3758	14.3039
9.2752	15.868
9.1767	15.8076
9.0803	13.203
8.9858	10.6428
8.8934	10.7249
8.8028	14.4834
8.714	16.819
8.627	15.0458
8.5417	9.2582
8.4581	6.5433
8.3761	5.2177
8.2957	4.8896
8.2169	5.399
8.1395	5.3715
8.0635	5.7301
7.989	6.8221
7.9158	7.8369
7.8439	8.8847
7.7734	9.3449
7.7041	9.91
7.636	10.6165
7.5691	10.9961
7.5034	11.1447
7.4388	10.977
7.3753	11.1944
7.3129	11.3349
7.2515	11.7351
7.1912	12.0749
7.1318	12.7452
7.0734	14.154
7.016	14.4014
6.9595	14.9426
6.9039	15.3731
6.8492	16.0139
6.7953	16.8513
6.7423	17.705
6.6901	18.9244
6.6387	21.2723
6.5881	23.0991
6.5382	25.127
6.4892	26.5521
6.4408	25.7413
6.3931	23.9601
6.3462	22.611
6.2999	19.2393
6.2543	17.8959
6.2094	17.0093
6.1651	17.681
6.1214	18.6669
6.0784	20.2309
6.0359	22.2037
5.994	23.6347
5.9527	21.6899
5.912	20.6853
5.8718	22.1606
5.8322	23.9675
5.7931	24.9159
5.7545	26.0085
5.7165	27.4802
5.6789	27.362
5.6418	27.9138
5.6052	27.6314
5.5691	24.8544
5.5334	29.4639
5.4982	30.7121
5.4635	30.2938
5.4291	31.607
5.3952	32.9881
5.3618	32.5982
5.3287	31.5026
5.2961	33.2317
5.2638	34.3137
5.2319	35.8517
5.2004	38.3609
5.1693	36.2767
5.1386	33.2658
5.1082	33.4912
5.0782	34.9312
5.0485	35.7977
5.0192	37.2852
4.9902	39.0152
4.9616	40.4296
4.9332	42.0983
4.9052	43.5594
4.8776	44.1769
4.8502	44.7249
4.8231	44.7625
4.7963	44.757
4.7699	47.1382
4.7437	49.825
4.7178	51.2804
4.6922	51.5961
4.6668	53.1312
4.6418	55.0948
4.617	57.3021
4.5924	58.6959
4.5681	59.8338
4.5441	61.498
4.5203	62.5182
4.4968	63.5522
4.4735	64.4239
4.4505	65.0446
4.4277	65.4952
4.4051	65.7196
4.3828	66.0131
4.3607	66.0673
4.3388	66.2374
4.3171	66.4331
4.2956	66.7508
4.2744	66.9197
4.2534	66.6768
4.2325	67.341
4.2119	66.9275
4.1915	66.689
4.1712	66.7151
4.1512	66.565
4.1313	66.5527
4.1117	66.4109
4.0922	66.2174
4.0729	65.9061
4.0538	65.0289
4.0349	62.5937
4.0161	59.2831
3.9976	53.2523
3.9792	50.4129
3.9609	52.0325
3.9428	56.6257
3.9249	58.7555
3.9072	59.5542
3.8896	60.0135
3.8722	60.1944
3.8549	60.6529
3.8378	61.4954
3.8208	63.5844
3.804	65.4478
3.7873	67.4188
3.7708	67.8274
3.7544	67.9369
3.7382	68.1254
3.7221	68.2036
3.7061	68.2306
3.6903	67.6901
3.6746	68.1688
3.659	68.1168
3.6436	67.8771
3.6283	68.0011
3.6131	67.835
3.5981	67.7162
3.5832	67.2134
3.5684	66.6913
3.5537	66.5338
3.5391	65.5438
3.5247	62.7921
3.5104	59.0218
3.4962	57.4361
3.4821	55.7193
3.4681	57.6503
3.4543	59.6504
3.4405	59.7519
3.4269	59.1341
3.4133	58.6877
3.3999	58.5818
3.3866	58.1203
3.3733	57.4623
3.3602	56.769
3.3472	55.814
3.3343	60.7451
3.3215	62.0573
3.3088	61.9189
3.2961	62.9267
3.2836	64.2273
3.2712	64.6867
3.2588	64.6287
3.2466	64.475
3.2345	64.3339
3.2224	64.1684
3.2104	63.9059
3.1985	63.382
3.1867	62.5754
3.175	61.9532
3.1634	61.8046
3.1519	61.8885
3.1404	62.2077
3.129	62.0391
3.1178	61.6436
3.1065	61.4301
3.0954	61.0803
3.0844	61.1241
3.0734	60.8499
3.0625	60.8375
3.0517	60.473
3.041	60.2385
3.0303	59.9332
3.0197	59.9753
3.0092	59.4404
2.9987	59.2881
2.9884	59.1059
2.9781	58.7395
2.9678	58.6622
2.9577	58.4606
2.9476	58.456
2.9376	58.1244
2.9276	58.2423
2.9177	58.4109
2.9079	58.2668
2.8982	58.3692
2.8885	58.428
2.8789	58.0729
2.8693	56.9803
2.8598	56.6507
2.8504	57.9734
2.841	58.7725
2.8317	59.0387
2.8224	59.1017
2.8133	58.8902
2.8041	59.2095
2.7951	58.5938
2.786	58.719
2.7771	58.4799
2.7682	57.5204
2.7594	58.6442
2.7506	59.7722
2.7418	58.8027
2.7332	47.7058
2.7246	19.6994
2.716	45.7306
2.7075	60.9134
2.699	60.0866
2.6906	59.5446
2.6823	67.2906
2.674	68.5732
2.6657	71.809
2.6575	70.4394
2.6494	70.4462
2.6413	70.235
2.6332	70.0059
2.6252	70.0174
2.6173	70.667
2.6094	69.9833
2.6015	69.5718
2.5937	70.927
2.5859	69.4803
2.5782	69.3136
2.5706	68.6583
2.5629	68.6854
2.5554	68.0339
2.5478	68.7845
2.5403	68.659
2.5329	68.6957
2.5255	68.7951
2.5181	68.3495
2.5108	68.1192
2.5035	68.2302
2.4963	67.7723
2.4891	67.6794
2.482	67.4587
2.4749	67.4032
2.4678	67.152
2.4608	66.8009
2.4538	67.7595
2.4468	67.6989
2.4399	67.5113
2.4331	69.1418
2.4262	69.2191
2.4194	68.2552
2.4127	67.9765
2.4059	68.8023
2.3993	67.6555
2.3926	63.901
2.386	60.9346
2.3795	63.0722
2.3729	66.4925
2.3664	68.2889
2.36	69.5142
2.3535	69.3085
2.3471	70.0288
2.3408	70.2989
2.3345	70.0459
2.3282	68.0291
2.3219	60.3144
2.3157	57.6411
2.3095	59.4859
2.3034	61.1267
2.2972	58.5698
2.2911	62.5648
2.2851	65.295
2.279	66.5323
2.2731	68.2107
2.2671	69.3481
2.2612	70.5917
2.2553	71.1441
2.2494	71.5279
2.2435	71.5171
2.2377	71.7255
2.232	71.7417
2.2262	71.8674
2.2205	71.7338
2.2148	71.8008
2.2091	72.002
2.2035	71.8444
2.1979	71.8176
2.1923	71.9067
2.1868	71.8706
2.1812	71.8183
2.1758	71.6533
2.1703	71.74
2.1649	71.872
2.1595	71.5371
2.1541	71.663
2.1487	71.7765
2.1434	71.4882
2.1381	71.6302
2.1328	71.3355
2.1275	71.5635
2.1223	71.3398
2.1171	71.5074
2.112	71.1343
2.1068	71.126
2.1017	72.2331
2.0966	71.8785
2.0915	71.8459
2.0865	71.8751
2.0814	71.9878
2.0764	71.8604
2.0715	72.1916
2.0665	72.2734
2.0616	72.063
2.0567	72.1423
2.0518	72.3772
2.0469	72.3398
2.0421	72.1204
2.0373	72.5007
2.0325	72.6536
2.0277	72.5482
2.0229	72.8182
2.0182	72.1766
2.0135	72.3839
2.0088	72.4669
2.0042	72.6492
