Name: Sodalite Na8Al6Si6O24Cl2
Type: Mineral
Class: Silicate
Subclass: Tectosilicate
Particle Size: Fine
Sample No.: sodalite_1
Owner: JHU
Wavelength Range: TIR
Origin: Bancroft, Ontario, Canada via Norma Vergo.
Description: The hand sample was a large chunk of vivid blue sodalite that appeared quite pure. Microscopic examination showed about 2% contamination with either a colorless mineral with 1degree yellow birefringence, or another colorless mineral with slight brownish staining, 2 degrees birefringence, and 2 directions of cleavage. One observed contaminant was a carbonate. Particle size was Less than 2 Micrometers. (Framework silicates); Feldspathoid Group Original ASTER Spectral Library name was jhu.nicolet.mineral.silicate.tectosilicate.powder.sodali1.spectrum.txt
Measurement: Transmission
X Units: Wavelength (micrometers)
Y Units: Transmittance (percent)
wavelength	value
25.0442	74.4686
24.3388	62.2264
23.6719	50.5194
23.0407	13.2187
22.4422	25.7753
21.8741	41.2909
21.334	16.3359
20.8199	33.8359
20.33	71.8904
19.8627	82.4861
19.4163	87.0427
18.9896	89.4646
18.5812	90.0994
18.19	90.7537
17.815	90.992
17.4551	90.8406
17.1094	90.2869
16.7772	90.4529
16.4576	90.1287
16.15	89.3142
15.8537	88.0691
15.568	84.7556
15.2925	74.8963
15.0265	35.8466
14.7697	63.8597
14.5214	77.3592
14.2814	69.8851
14.0492	43.619
13.8244	58.4203
13.6067	19.7587
13.3957	56.5575
13.1912	79.2029
12.9929	85.9241
12.8004	88.2273
12.6135	89.2737
12.432	89.6585
12.2557	89.0491
12.0843	87.4944
11.9176	85.0008
11.7555	81.8265
11.5977	77.8562
11.444	73.6312
11.2944	68.9774
11.1487	63.5492
11.0067	57.1747
10.8682	48.7894
10.7332	38.3578
10.6015	26.1708
10.473	13.955
10.3476	4.7764
10.2251	1.1182
10.1056	1.6352
9.9887	4.0791
9.8746	6.6855
9.763	7.3027
9.6539	10.9843
9.5472	20.1064
9.4429	30.6425
9.3408	37.5839
9.2409	42.3485
9.1431	46.434
9.0474	50.4257
8.9536	54.2323
8.8618	57.7782
8.7718	60.6746
8.6837	64.2069
8.5973	67.7335
8.5126	71.0428
8.4295	74.0499
8.3481	76.6697
8.2682	78.8086
8.1898	80.2647
8.1129	81.2012
8.0374	82.0423
7.9634	82.8992
7.8906	83.5869
7.8192	84.1526
7.7491	84.7005
7.6802	85.2019
7.6126	85.626
7.5461	86.0867
7.4807	84.3145
7.4165	86.3809
7.3534	86.843
7.2914	87.1934
7.2303	87.3975
7.1703	87.53
7.1113	87.6653
7.0533	87.6638
6.9962	87.6521
6.94	87.2959
6.8847	87.2366
6.8302	87.9841
6.7767	88.6201
6.7239	89.1065
6.672	89.3806
6.6209	89.3887
6.5705	89.2219
6.5209	89.626
6.4721	89.6062
6.424	89.4238
6.3766	89.3848
6.3299	89.3574
6.2838	89.0916
6.2385	88.5769
6.1937	87.9414
6.1496	87.8115
6.1062	87.7468
6.0633	88.3779
6.0211	88.5584
5.9794	88.9119
5.9383	89.407
5.8978	89.6189
5.8578	87.8797
5.8184	90.5076
5.7794	91.4295
5.741	91.6629
5.7031	91.708
5.6657	91.8076
5.6288	91.9775
5.5924	92.1524
5.5564	92.136
5.5209	92.2341
5.4859	92.3396
5.4513	92.4343
5.4171	92.5498
5.3833	92.7175
5.35	92.7566
5.3171	92.8533
5.2846	92.918
5.2524	93.0046
5.2207	93.0254
5.1893	93.0137
5.1584	92.8074
5.1277	92.3047
5.0975	92.7048
5.0676	92.8643
5.038	92.9226
5.0088	92.9783
4.98	92.9854
4.9514	93.0056
4.9232	92.7813
4.8953	92.7598
4.8678	92.7498
4.8405	92.8723
4.8135	93.0068
4.7868	93.0935
4.7605	93.1863
4.7344	93.2236
4.7086	93.2285
4.6831	93.199
4.6578	93.2656
4.6328	93.3242
4.6081	93.3408
4.5837	93.3669
4.5595	93.4138
4.5356	93.4055
4.5119	93.4211
4.4884	93.4002
4.4652	93.3875
4.4423	93.4119
4.4196	93.4119
4.3971	93.4163
4.3748	93.4143
4.3528	93.4587
4.331	93.4524
4.3094	93.4553
4.288	93.4534
4.2668	93.446
4.2458	93.4627
4.2251	93.4592
4.2045	93.449
4.1841	93.4417
4.164	93.4627
4.144	93.4783
4.1242	93.4788
4.1046	93.471
4.0852	93.4924
4.066	93.489
4.047	93.4807
4.0281	93.49
4.0094	93.4885
3.9909	93.5046
3.9725	93.5061
3.9544	93.4812
3.9363	93.4753
3.9185	93.4685
3.9008	93.4421
3.8833	93.4583
3.8659	93.408
3.8487	93.3904
3.8316	93.3743
3.8147	93.3523
3.7979	93.3298
3.7813	93.2644
3.7648	93.2351
3.7485	93.217
3.7323	93.2253
3.7162	93.1414
3.7003	93.1204
3.6845	93.0471
3.6689	93.0515
3.6534	92.9871
3.638	92.9265
3.6227	92.8987
3.6076	92.8582
3.5926	92.783
3.5777	92.7136
3.563	92.6824
3.5484	92.5979
3.5338	92.5588
3.5195	92.4827
3.5052	92.3962
3.491	92.2913
3.477	92.2307
3.463	92.1389
3.4492	92.0745
3.4355	92.0134
3.4219	91.8811
3.4084	91.7498
3.395	91.7229
3.3817	91.6702
3.3685	91.5803
3.3554	91.4812
3.3425	91.3948
3.3296	91.3792
3.3168	91.2771
3.3041	91.178
3.2915	91.0667
3.279	90.947
3.2666	90.7717
3.2543	90.6619
3.2421	90.5647
3.23	90.4304
3.218	90.2835
3.206	90.1565
3.1942	89.9607
3.1824	89.7776
3.1707	89.594
3.1591	89.3284
3.1476	89.0667
3.1362	88.7991
3.1249	88.4866
3.1136	88.1951
3.1024	88.0076
3.0913	87.864
3.0803	87.5769
3.0694	87.3103
3.0585	87.1072
3.0477	86.9373
3.037	86.6824
3.0264	86.2693
3.0158	85.8328
3.0053	85.4158
2.9949	85.0994
2.9845	84.8308
2.9743	84.4685
2.9641	83.9929
2.9539	83.6209
2.9439	83.3289
2.9339	83.283
2.9239	83.1053
2.9141	83.075
2.9043	83.0711
2.8946	83.2937
2.8849	83.489
2.8753	83.8982
2.8658	84.1756
2.8563	84.6023
2.8469	84.8328
2.8375	85.0594
2.8282	85.114
2.819	85.4021
2.8098	85.7752
2.8007	86.2556
2.7917	86.8328
2.7827	87.4959
2.7738	88.158
2.7649	88.9109
2.7561	89.4646
2.7473	90.2537
2.7386	90.5007
2.7299	91.0037
2.7213	91.325
2.7128	91.4773
2.7043	91.4773
2.6959	91.4451
2.6875	91.4373
2.6791	91.4119
2.6709	91.2244
2.6626	91.3806
2.6545	91.3289
2.6463	91.2898
2.6382	91.2927
2.6302	91.0916
2.6222	91.1365
2.6143	91.0711
2.6064	90.9646
2.5986	91.0867
2.5908	90.9685
2.583	90.7888
2.5753	90.8064
2.5677	90.8406
2.5601	90.739
2.5525	90.781
2.545	90.6492
2.5375	90.783
2.5301	90.6931
2.5227	90.6365
2.5154	90.5545
2.5081	90.5388
2.5008	90.4529
2.4936	90.3552
2.4864	90.3767
2.4793	90.2986
2.4722	90.2029
2.4651	90.2361
2.4581	90.2029
2.4511	90.2732
2.4442	90.242
2.4373	90.1209
2.4305	90.0388
2.4236	90.0818
2.4169	89.9783
2.4101	89.9685
2.4034	89.9724
2.3967	89.9002
2.3901	89.9002
2.3835	89.8787
2.377	89.8142
2.3704	89.8513
2.364	89.7732
2.3575	89.8045
2.3511	89.7361
2.3447	89.7888
2.3384	89.7673
2.3321	89.6091
2.3258	89.7146
2.3195	89.6951
2.3133	89.6345
2.3071	89.7048
2.301	89.6716
2.2949	89.7283
2.2888	89.6638
2.2828	89.5154
2.2767	89.6482
2.2708	89.5642
2.2648	89.6345
2.2589	89.5642
2.253	89.4783
2.2471	89.5427
2.2413	89.5017
2.2355	89.6423
2.2297	89.6326
2.224	89.6892
2.2183	89.7732
2.2126	89.6716
2.207	89.6091
2.2013	89.7595
2.1957	89.7029
2.1902	89.6814
2.1846	89.6404
2.1791	89.5798
2.1736	89.6345
2.1682	89.6814
2.1628	89.8123
2.1574	89.6091
2.152	89.7693
2.1466	89.8123
2.1413	89.9373
2.136	89.7849
2.1308	89.8904
2.1255	89.7537
2.1203	89.8006
2.1151	90.0076
2.11	89.6677
2.1048	89.7654
2.0997	89.8201
2.0946	89.9295
2.0895	89.824
2.0845	89.8357
2.0795	89.867
