Name: Apatite Ca_5(PO_4)_3F
Type: Mineral
Class: Phosphate
Subclass: None
Particle Size: Coarse
Sample No.: P-1A
Owner: JPL
Wavelength Range: TIR
Origin: Canada, Ontario, Lanark County, Perth
Description: Particle size was 125-500um.Collected by Ward's Original ASTER Spectral Library name was jpl.nicolet.mineral.phosphate.none.coarse.p01a.spectrum.txt
Measurement: Hemispherical reflectance
X Units: Wavelength (micrometers)
Y Units: Reflectance (percent)
wavelength	value
15.3853	1.1165
15.1161	1.277
14.8563	2.0306
14.6052	1.9851
14.3624	1.997
14.1276	2.0848
13.9004	1.7634
13.6803	2.3848
13.4671	2.4774
13.2604	2.481
13.06	2.6543
12.8656	3.0449
12.6769	3.1711
12.4936	3.4045
12.3155	3.4263
12.1425	3.3627
11.9742	3.5658
11.8106	3.5992
11.6513	3.6951
11.4963	4.091
11.3454	4.7119
11.1983	4.3486
11.0551	4.3798
10.9154	4.7316
10.7793	4.8708
10.6465	5.413
10.5169	5.8323
10.3904	6.8067
10.267	6.7549
10.1464	8.2998
10.0287	9.8697
9.9136	12.7838
9.8012	17.3352
9.6913	28.9228
9.5838	39.7764
9.4787	40.2891
9.3758	41.4472
9.2752	36.0541
9.1767	26.0531
9.0803	41.5951
8.9858	41.6417
8.8934	28.6566
8.8028	13.4328
8.714	4.4015
8.627	1.7219
8.5417	1.2538
8.4581	0.978
8.3761	1.1309
8.2957	0.8474
8.2169	1.1234
8.1395	1.116
8.0635	1.1232
7.989	0.9751
7.9158	1.3155
7.8439	1.1498
7.7734	1.4636
7.7041	1.591
7.636	1.8898
7.5691	2.1874
7.5034	2.613
7.4388	3.0449
7.3753	3.6404
7.3129	4.021
7.2515	4.2407
7.1912	4.0305
7.1318	3.1658
7.0734	2.891
7.016	2.6405
6.9595	3.2947
6.9039	2.9697
6.8492	2.9545
6.7953	3.5877
6.7423	4.0121
6.6901	4.6793
6.6387	5.6152
6.5881	6.5512
6.5382	6.9239
6.4892	7.0611
6.4408	6.854
6.3931	7.907
6.3462	7.9935
6.2999	12.2076
6.2543	14.5195
6.2094	13.696
6.1651	13.7809
6.1214	13.3182
6.0784	12.3338
6.0359	13.2523
5.994	15.5419
5.9527	18.0368
5.912	18.9218
5.8718	20.2498
5.8322	23.1343
5.7931	22.5879
5.7545	24.6282
5.7165	26.1789
5.6789	25.412
5.6418	27.2081
5.6052	24.6098
5.5691	23.4748
5.5334	26.136
5.4982	27.7158
5.4635	28.9663
5.4291	29.1647
5.3952	28.5232
5.3618	27.7858
5.3287	27.5522
5.2961	26.7526
5.2638	26.1408
5.2319	24.6044
5.2004	20.1524
5.1693	20.4159
5.1386	21.3393
5.1082	17.7012
5.0782	12.3924
5.0485	5.2901
5.0192	2.3408
4.9902	2.4257
4.9616	2.5552
4.9332	3.1907
4.9052	3.6908
4.8776	3.1957
4.8502	3.5784
4.8231	3.0179
4.7963	2.8308
4.7699	3.3069
4.7437	4.0676
4.7178	4.4906
4.6922	4.1871
4.6668	4.0113
4.6418	3.9356
4.617	4.7408
4.5924	7.6178
4.5681	8.6114
4.5441	11.1102
4.5203	16.5892
4.4968	22.2776
4.4735	25.5504
4.4505	28.2966
4.4277	30.6779
4.4051	32.4911
4.3828	32.3596
4.3607	32.5675
4.3388	34.483
4.3171	37.0952
4.2956	39.1656
4.2744	41.1861
4.2534	42.9839
4.2325	45.3313
4.2119	46.1856
4.1915	46.9622
4.1712	47.7373
4.1512	48.1998
4.1313	47.8441
4.1117	47.2695
4.0922	45.9612
4.0729	44.5846
4.0538	42.1338
4.0349	38.6732
4.0161	36.2161
3.9976	35.274
3.9792	32.4348
3.9609	34.9681
3.9428	37.8189
3.9249	39.8171
3.9072	40.6369
3.8896	41.0685
3.8722	41.0895
3.8549	41.1327
3.8378	41.024
3.8208	42.1726
3.804	43.8118
3.7873	45.7194
3.7708	45.9401
3.7544	45.6965
3.7382	45.4215
3.7221	45.2588
3.7061	45.1688
3.6903	45.0724
3.6746	44.9108
3.659	44.6444
3.6436	44.6241
3.6283	44.3488
3.6131	44.1468
3.5981	43.6351
3.5832	42.5461
3.5684	41.7142
3.5537	41.3291
3.5391	40.0445
3.5247	37.7834
3.5104	35.7233
3.4962	34.367
3.4821	32.4722
3.4681	32.6397
3.4543	33.9189
3.4405	34.8077
3.4269	34.7055
3.4133	33.9792
3.3999	33.411
3.3866	31.9451
3.3733	32.0106
3.3602	32.2169
3.3472	32.6354
3.3343	35.2176
3.3215	35.5187
3.3088	34.9917
3.2961	34.4479
3.2836	34.5565
3.2712	34.9574
3.2588	34.9793
3.2466	34.6078
3.2345	34.2421
3.2224	34.0279
3.2104	33.7534
3.1985	33.6034
3.1867	33.5062
3.175	33.2755
3.1634	32.8505
3.1519	32.5705
3.1404	32.4713
3.129	32.028
3.1178	31.8353
3.1065	31.4119
3.0954	31.415
3.0844	31.2774
3.0734	31.0448
3.0625	30.8267
3.0517	30.5117
3.041	30.3015
3.0303	29.6167
3.0197	28.8244
3.0092	28.1804
2.9987	27.3367
2.9884	26.009
2.9781	24.5283
2.9678	23.1346
2.9577	22.8046
2.9476	22.4327
2.9376	22.9252
2.9276	23.3405
2.9177	22.9475
2.9079	21.834
2.8982	20.5223
2.8885	18.5682
2.8789	16.8502
2.8693	14.7126
2.8598	13.3435
2.8504	11.9487
2.841	8.0228
2.8317	6.5811
2.8224	6.2242
2.8133	6.6039
2.8041	8.592
2.7951	10.8391
2.786	16.7371
2.7771	22.0623
2.7682	25.5404
2.7594	27.0208
2.7506	28.7343
2.7418	31.4574
2.7332	32.0588
2.7246	31.1436
2.716	30.4426
2.7075	42.0208
2.699	44.2695
2.6906	43.662
2.6823	42.5771
2.674	42.1917
2.6657	43.3619
2.6575	41.6442
2.6494	42.2695
2.6413	44.4716
2.6332	46.7123
2.6252	48.3447
2.6173	49.6584
2.6094	47.3759
2.6015	46.0301
2.5937	48.8985
2.5859	52.4119
2.5782	55.7873
2.5706	59.0865
2.5629	62.645
2.5554	63.6906
2.5478	64.219
2.5403	63.9599
2.5329	64.7389
2.5255	65.792
2.5181	66.4874
2.5108	67.3503
2.5035	67.8216
2.4963	68.3012
2.4891	68.9539
2.482	69.5813
2.4749	70.1456
2.4678	70.3403
2.4608	70.9765
2.4538	71.9003
2.4468	72.4293
2.4399	72.6131
2.4331	72.8389
2.4262	73.1821
2.4194	73.9222
2.4127	73.9842
2.4059	74.2843
2.3993	73.9047
2.3926	73.3927
2.386	73.729
2.3795	74.3363
2.3729	74.7573
2.3664	75.1291
2.36	74.4987
2.3535	73.9315
2.3471	73.6916
2.3408	73.3852
2.3345	73.1844
2.3282	72.9845
2.3219	71.9564
2.3157	70.3467
2.3095	71.3328
2.3034	73.0423
2.2972	73.4758
2.2911	73.4644
2.2851	74.9806
2.279	76.2735
2.2731	77.0471
2.2671	77.7007
2.2612	78.105
2.2553	78.248
2.2494	78.6195
2.2435	78.699
2.2377	78.787
2.232	78.7878
2.2262	79.079
2.2205	78.8544
2.2148	79.3258
2.2091	79.1952
2.2035	79.4512
2.1979	79.2886
2.1923	79.166
2.1868	78.7663
2.1812	78.3203
2.1758	78.1811
2.1703	77.7717
2.1649	77.3887
2.1595	77.1506
2.1541	77.3492
2.1487	77.3531
2.1434	78.0818
2.1381	78.778
2.1328	79.2351
2.1275	79.5419
2.1223	79.7038
2.1171	80.1474
2.112	79.8878
2.1068	79.9741
2.1017	79.94
2.0966	80.2096
2.0915	79.9906
2.0865	79.8833
2.0814	79.9284
2.0764	79.7183
2.0715	79.8195
2.0665	79.7813
2.0616	79.5156
2.0567	79.3305
2.0518	79.1626
2.0469	78.8601
2.0421	78.6077
2.0373	78.4054
2.0325	78.1455
2.0277	77.0818
2.0229	76.4636
2.0182	75.6621
2.0135	74.9875
2.0088	73.6745
2.0042	71.9056
