Name: Pyrophyllite Al_2Si_4O_10(OH)_2
Type: Mineral
Class: Silicate
Subclass: Phyllosilicate
Particle Size: Fine
Sample No.: PS-7A
Owner: JPL
Wavelength Range: VSWIR
Origin: USA, California
Description: Particle size was 0-45um.Collected by Ward's Original ASTER Spectral Library name was jpl.beckman.mineral.silicate.phyllosilicate.fine.ps07a.spectrum.txt
Measurement: Hemispherical reflectance
X Units: Wavelength (micrometers)
Y Units: Reflectance (percent)
wavelength	value
0.4	57.15
0.403	57.66
0.406	58.4
0.409	58.63
0.412	59.14
0.415	59.83
0.418	60
0.421	60.79
0.424	61.02
0.427	61.88
0.43	62.34
0.433	62.91
0.436	63.93
0.439	64.11
0.442	64.96
0.445	65.19
0.448	65.47
0.451	66.04
0.454	65.82
0.457	66.39
0.46	66.46
0.463	66.75
0.466	66.69
0.469	66.93
0.472	67.26
0.475	67.16
0.478	67.46
0.481	67.62
0.484	68.2
0.487	68.49
0.49	68.78
0.493	69.25
0.496	69.52
0.499	70.34
0.502	70.44
0.505	71.02
0.508	71.42
0.511	71.76
0.514	72.56
0.517	72.73
0.52	73.31
0.523	73.59
0.526	74.04
0.529	74.85
0.532	74.79
0.535	75.36
0.538	75.81
0.541	76.1
0.544	76.79
0.547	76.9
0.55	77.58
0.553	78.1
0.556	78.56
0.559	78.89
0.562	79.53
0.565	79.58
0.568	80.16
0.571	80.33
0.574	80.38
0.577	80.95
0.58	80.84
0.583	81.41
0.586	81.41
0.589	81.58
0.592	82.26
0.595	82.03
0.598	82.38
0.601	82.61
0.604	82.44
0.607	83.07
0.61	82.61
0.613	83.07
0.616	82.9
0.619	82.72
0.622	83.24
0.625	83.07
0.628	83.18
0.631	83.3
0.634	82.9
0.637	83.47
0.64	83.35
0.643	83.53
0.646	83.69
0.649	83.53
0.652	83.69
0.655	83.75
0.658	83.64
0.661	83.86
0.664	83.8
0.667	84.03
0.67	84.21
0.673	83.92
0.676	84.26
0.679	84.21
0.682	84.32
0.685	84.55
0.688	84.49
0.691	84.78
0.694	84.61
0.697	84.72
0.7	84.67
0.703	84.84
0.706	84.67
0.709	85.13
0.712	85.07
0.715	85.35
0.718	85.35
0.721	85.18
0.724	85.63
0.727	85.4
0.73	85.63
0.733	85.63
0.736	85.35
0.739	85.86
0.742	85.46
0.745	85.69
0.748	85.98
0.751	85.52
0.754	86.09
0.757	85.86
0.76	85.98
0.763	86.21
0.766	85.75
0.769	86.21
0.772	86.03
0.775	86.15
0.778	86.09
0.781	85.8
0.784	86.26
0.787	86.15
0.79	86.21
0.793	86.26
0.796	85.98
0.799	86.21
0.808	86.26
0.82	86.09
0.832	86.15
0.844	86.15
0.856	86.21
0.868	86.09
0.88	86.03
0.892	85.92
0.904	86.03
0.916	85.98
0.928	85.8
0.94	85.75
0.952	85.3
0.964	85.8
0.976	86.09
0.988	86.21
1	86.32
1.012	86.26
1.024	86.38
1.036	86.32
1.048	86.61
1.06	86.67
1.072	86.67
1.084	86.67
1.096	86.84
1.108	86.9
1.12	86.84
1.132	87.12
1.144	87
1.156	87
1.168	86.97
1.18	86.89
1.192	87.1
1.204	86.81
1.216	86.81
1.228	86.46
1.24	86.92
1.252	86.92
1.264	86.83
1.276	86.93
1.288	86.79
1.3	86.72
1.312	86.36
1.324	86.1
1.336	85.86
1.348	85.89
1.36	85.32
1.372	85.15
1.384	76.72
1.396	73.36
1.408	83.69
1.42	84.95
1.432	85.59
1.444	86.03
1.456	86.04
1.468	86.37
1.48	86.43
1.492	86.72
1.504	86.77
1.516	86.72
1.528	86.83
1.54	86.72
1.552	86.77
1.564	86.77
1.576	86.66
1.588	86.77
1.6	86.77
1.612	86.64
1.624	86.62
1.636	86.43
1.648	86.57
1.66	86.5
1.672	86.31
1.684	86.39
1.696	86.5
1.708	86.2
1.72	86.14
1.732	86.14
1.744	85.91
1.756	86.09
1.768	85.91
1.78	86.03
1.792	85.91
1.804	85.72
1.816	85.75
1.828	85.72
1.84	85.86
1.852	85.62
1.864	85.31
1.876	84.79
1.888	84.25
1.9	83.62
1.912	83.15
1.924	83
1.936	82.82
1.948	82.96
1.96	83.2
1.972	83.42
1.984	83.7
1.996	83.8
2.008	84.15
2.02	84.15
2.032	84.12
2.044	83.65
2.056	82.71
2.068	81.94
2.08	82.12
2.092	82.75
2.104	82.69
2.116	81.59
2.128	79.32
2.14	74.19
2.152	66.37
2.164	62.11
2.176	66.98
2.188	73.39
2.2	75.53
2.212	76.05
2.224	76.78
2.236	77.19
2.248	76.7
2.26	75.45
2.272	73.64
2.284	71.65
2.296	69.51
2.308	68.05
2.32	67.8
2.332	68.57
2.344	68.99
2.356	69.07
2.368	68.71
2.38	67.76
2.392	66.8
2.404	66.24
2.416	65.78
2.428	65.65
2.44	65.3
2.452	64.91
2.464	63.9
2.476	62.78
2.488	61.71
2.5	61.09
