Name: Hornblende Ca2(Fe+2,Mg)4Al(Si7Al)O22(OH,F)2
Type: Mineral
Class: Silicate
Subclass: Inosilicate
Particle Size: Solid
Sample No.: hornblen_1
Owner: JHU
Wavelength Range: TIR
Origin: Gore Mountain, New York via Hunt and Salisbury Collection,#177B (Purchased from Ward's Natural Science Establishment)
Description: The specimen was a cluster of very dark green single crystals half a centimeter to one centimeter in length and almost as wide. Sample had random polished surface.(Amphibole Group) Original ASTER Spectral Library name was jhu.nicolet.mineral.silicate.inosilicate.solid.hornbl1.spectrum.txt
Measurement: Bidirectional reflectance
X Units: Wavelength (micrometers)
Y Units: Reflectance (percent)
wavelength	value
25.0442	34.9765
24.3388	36.5204
23.6719	36.6366
23.0407	38.8266
22.4422	40.1513
21.8741	41.5702
21.334	41.8891
20.8199	42.2543
20.33	41.7528
19.8627	42.6122
19.4163	46.1522
18.9896	49.5782
18.5812	49.8866
18.19	46.9491
17.815	43.6925
17.4551	38.9953
17.1094	32.1742
16.7772	24.675
16.4576	20.8188
16.15	19.9047
15.8537	20.478
15.568	20.9448
15.2925	21.4628
15.0265	21.5776
14.7697	21.7119
14.5214	21.7726
14.2814	22.048
14.0492	22.4089
13.8244	23.1376
13.6067	23.7997
13.3957	23.7861
13.1912	23.8149
12.9929	24.2202
12.8004	24.874
12.6135	25.2548
12.432	25.5131
12.2557	25.9047
12.0843	26.7739
11.9176	27.8315
11.7555	28.8539
11.5977	29.6418
11.444	30.1552
11.2944	30.8981
11.1487	31.601
11.0067	32.6308
10.8682	33.955
10.7332	35.352
10.6015	37.1276
10.473	39.2382
10.3476	42.1918
10.2251	45.192
10.1056	46.889
9.9887	46.2177
9.8746	43.5341
9.763	42.5763
9.6539	44.2018
9.5472	46.0804
9.4429	46.3883
9.3408	45.2006
9.2409	43.3312
9.1431	41.2948
9.0474	39.0885
8.9536	34.3876
8.8618	27.5844
8.7718	25.1232
8.6837	21.4885
8.5973	14.7607
8.5126	12.1162
8.4295	12.5708
8.3481	13.4465
8.2682	13.8935
8.1898	14.0861
8.1129	14.2546
8.0374	14.6528
7.9634	15.1128
7.8906	15.5463
7.8192	15.9279
7.7491	16.1972
7.6802	16.4729
7.6126	16.7473
7.5461	16.966
7.4807	17.1511
7.4165	17.3327
7.3534	17.5002
7.2914	17.6687
7.2303	17.8313
7.1703	17.9824
7.1113	18.1052
7.0533	18.2639
6.9962	18.3747
6.94	18.4609
6.8847	18.5139
6.8302	18.6904
6.7767	18.8054
6.7239	18.9064
6.672	19.0197
6.6209	19.1574
6.5705	19.2465
6.5209	19.3129
6.4721	19.4062
6.424	19.4536
6.3766	19.4995
6.3299	19.517
6.2838	19.5437
6.2385	19.5344
6.1937	19.6149
6.1496	19.623
6.1062	19.6613
6.0633	19.6862
6.0211	19.6562
5.9794	19.666
5.9383	19.6491
5.8978	19.6374
5.8578	19.6547
5.8184	19.6784
5.7794	19.6999
5.741	19.7233
5.7031	19.7805
5.6657	19.8225
5.6288	19.8654
5.5924	19.9377
5.5564	19.9946
5.5209	20.0634
5.4859	20.0932
5.4513	20.1472
5.4171	20.1738
5.3833	20.1916
5.35	20.173
5.3171	20.2062
5.2846	20.2429
5.2524	20.2622
5.2207	20.2834
5.1893	20.279
5.1584	20.2668
5.1277	20.2651
5.0975	20.2702
5.0676	20.2551
5.038	20.2331
5.0088	20.2099
4.98	20.1967
4.9514	20.1928
4.9232	20.1848
4.8953	20.1652
4.8678	20.1545
4.8405	20.1513
4.8135	20.156
4.7868	20.152
4.7605	20.1452
4.7344	20.1555
4.7086	20.1511
4.6831	20.1745
4.6578	20.1845
4.6328	20.2036
4.6081	20.2272
4.5837	20.2373
4.5595	20.2531
4.5356	20.2556
4.5119	20.2775
4.4884	20.2783
4.4652	20.2558
4.4423	20.2741
4.4196	20.2648
4.3971	20.2465
4.3748	20.246
4.3528	20.2263
4.331	20.2214
4.3094	20.1984
4.288	20.1738
4.2668	20.1486
4.2458	20.1259
4.2251	20.1088
4.2045	20.0961
4.1841	20.0751
4.164	20.0654
4.144	20.0698
4.1242	20.07
4.1046	20.0561
4.0852	20.0498
4.066	20.0451
4.047	20.0434
4.0281	20.0429
4.0094	20.0424
3.9909	20.0471
3.9725	20.0429
3.9544	20.0363
3.9363	20.0349
3.9185	20.0292
3.9008	20.0292
3.8833	19.996
3.8659	19.9807
3.8487	19.9748
3.8316	19.9626
3.8147	19.9428
3.7979	19.9167
3.7813	19.9047
3.7648	19.894
3.7485	19.8715
3.7323	19.8452
3.7162	19.8254
3.7003	19.791
3.6845	19.7653
3.6689	19.7558
3.6534	19.7482
3.638	19.7231
3.6227	19.7189
3.6076	19.7011
3.5926	19.6948
3.5777	19.6562
3.563	19.6386
3.5484	19.6064
3.5338	19.5849
3.5195	19.5419
3.5052	19.496
3.491	19.466
3.477	19.4411
3.463	19.4301
3.4492	19.3986
3.4355	19.3657
3.4219	19.3535
3.4084	19.3251
3.395	19.3183
3.3817	19.2924
3.3685	19.3159
3.3554	19.3032
3.3425	19.3076
3.3296	19.3068
3.3168	19.2875
3.3041	19.2492
3.2915	19.2626
3.279	19.2641
3.2666	19.2148
3.2543	19.2084
3.2421	19.1572
3.23	19.1606
3.218	19.1425
3.206	19.1367
3.1942	19.1074
3.1824	19.0773
3.1707	19.0678
3.1591	19.0483
3.1476	19.0268
3.1362	18.9809
3.1249	18.9824
3.1136	18.9609
3.1024	18.9272
3.0913	18.9106
3.0803	18.8894
3.0694	18.8574
3.0585	18.8491
3.0477	18.8293
3.037	18.8076
3.0264	18.7778
3.0158	18.7607
3.0053	18.7102
2.9949	18.7153
2.9845	18.6875
2.9743	18.6503
2.9641	18.624
2.9539	18.602
2.9439	18.5539
2.9339	18.538
2.9239	18.5051
2.9141	18.4477
2.9043	18.4533
2.8946	18.4455
2.8849	18.4084
2.8753	18.3745
2.8658	18.3793
2.8563	18.3632
2.8469	18.3325
2.8375	18.3303
2.8282	18.3149
2.819	18.299
2.8098	18.2963
2.8007	18.267
2.7917	18.2685
2.7827	18.2736
2.7738	18.2355
2.7649	18.207
2.7561	18.1877
2.7473	18.1516
2.7386	18.1279
2.7299	18.0647
2.7213	18.0532
2.7128	18.0122
2.7043	17.9765
2.6959	17.966
2.6875	17.9848
2.6791	17.9873
2.6709	18
2.6626	17.9875
2.6545	17.9309
2.6463	17.8996
2.6382	17.872
2.6302	17.8769
2.6222	17.8242
2.6143	17.833
2.6064	17.8039
2.5986	17.8251
2.5908	17.7951
2.583	17.8
2.5753	17.7346
2.5677	17.707
2.5601	17.7412
2.5525	17.666
2.545	17.6438
2.5375	17.6674
2.5301	17.6118
2.5227	17.6503
2.5154	17.5913
2.5081	17.5908
2.5008	17.5761
2.4936	17.5805
2.4864	17.5459
2.4793	17.5097
2.4722	17.5146
2.4651	17.5205
2.4581	17.4863
2.4511	17.4951
2.4442	17.5029
2.4373	17.4804
2.4305	17.4594
2.4236	17.3994
2.4169	17.3847
2.4101	17.4204
2.4034	17.3794
2.3967	17.3955
2.3901	17.3359
2.3835	17.3447
2.377	17.3305
2.3704	17.3164
2.364	17.2524
2.3575	17.2636
2.3511	17.249
2.3447	17.2402
2.3384	17.2133
2.3321	17.2041
2.3258	17.1962
2.3195	17.2172
2.3133	17.1919
2.3071	17.1757
2.301	17.1684
2.2949	17.1777
2.2888	17.1591
2.2828	17.1333
2.2767	17.145
2.2708	17.1445
2.2648	17.1215
2.2589	17.1274
2.253	17.1377
2.2471	17.0937
2.2413	17.0942
2.2355	17.1235
2.2297	16.997
2.224	17.0214
2.2183	17.0468
2.2126	17.0219
2.207	16.977
2.2013	16.9209
2.1957	16.934
2.1902	17.0122
2.1846	16.9751
2.1791	16.893
2.1736	16.9218
2.1682	16.8925
2.1628	16.8769
2.1574	16.8676
2.152	16.8208
2.1466	16.811
2.1413	16.7978
2.136	16.8086
2.1308	16.7929
2.1255	16.7793
2.1203	16.7763
2.1151	16.7451
2.11	16.6777
2.1048	16.7002
2.0997	16.6728
2.0946	16.7119
2.0895	16.7539
2.0845	16.6757
2.0795	16.6533
