Name: Topaz Al_2SiO_4(F,OH)_2
Type: Mineral
Class: Silicate
Subclass: Nesosilicate
Particle Size: Medium
Sample No.: NS-6A
Owner: JPL
Wavelength Range: TIR
Origin: Australia, Western Australia, Grossmont
Description: Particle size was 45-125um.Collected by Ward's Original ASTER Spectral Library name was jpl.nicolet.mineral.silicate.nesosilicate.medium.ns06a.spectrum.txt
Measurement: Hemispherical reflectance
X Units: Wavelength (micrometers)
Y Units: Reflectance (percent)
wavelength	value
15.3853	28.1173
15.1161	24.8777
14.8563	14.7706
14.6052	5.3647
14.3624	0.8206
14.1276	0.9086
13.9004	0.5745
13.6803	1.474
13.4671	2.1833
13.2604	2.883
13.06	3.6503
12.8656	3.8504
12.6769	5.0263
12.4936	6.1364
12.3155	7.0645
12.1425	8.6435
11.9742	11.3882
11.8106	15.2832
11.6513	21.3156
11.4963	27.3307
11.3454	30.6773
11.1983	29.501
11.0551	28.8991
10.9154	26.7268
10.7793	26.9695
10.6465	30.1049
10.5169	32.9304
10.3904	32.6148
10.267	28.2425
10.1464	19.4671
10.0287	21.5263
9.9136	23.4148
9.8012	19.3402
9.6913	15.1411
9.5838	12.6063
9.4787	9.0288
9.3758	5.4769
9.2752	2.5951
9.1767	1.1149
9.0803	0.6019
8.9858	0.5114
8.8934	0.3044
8.8028	0.281
8.714	0.2208
8.627	0.7161
8.5417	0.8451
8.4581	0.3159
8.3761	0.3
8.2957	0.2459
8.2169	0.4424
8.1395	0.6377
8.0635	0.783
7.989	1.0703
7.9158	1.6066
7.8439	2.3064
7.7734	2.7612
7.7041	3.2988
7.636	3.8771
7.5691	4.442
7.5034	5.0466
7.4388	5.7153
7.3753	6.5542
7.3129	7.6015
7.2515	8.3602
7.1912	9.0366
7.1318	9.8123
7.0734	10.3251
7.016	10.7057
6.9595	11.8191
6.9039	12.5179
6.8492	13.3051
6.7953	13.6825
6.7423	13.3764
6.6901	14.2579
6.6387	16.0237
6.5881	16.4488
6.5382	16.9076
6.4892	18.6438
6.4408	18.4046
6.3931	19.2191
6.3462	20.7179
6.2999	20.6199
6.2543	21.0726
6.2094	21.8168
6.1651	22.6695
6.1214	23.4552
6.0784	24.5604
6.0359	25.7189
5.994	27.2927
5.9527	26.6112
5.912	24.3492
5.8718	23.2452
5.8322	20.9324
5.7931	19.1422
5.7545	19.8609
5.7165	20.1448
5.6789	18.1844
5.6418	15.3505
5.6052	11.1722
5.5691	8.2872
5.5334	7.0974
5.4982	7.1257
5.4635	7.7402
5.4291	8.3597
5.3952	8.3377
5.3618	8.4812
5.3287	9.3982
5.2961	10.7271
5.2638	12.6035
5.2319	16.3363
5.2004	20.6673
5.1693	24.1061
5.1386	26.8558
5.1082	29.4197
5.0782	32.1498
5.0485	34.0878
5.0192	35.5651
4.9902	35.194
4.9616	33.9964
4.9332	36.1649
4.9052	41.9196
4.8776	46.6907
4.8502	49.6753
4.8231	51.6149
4.7963	53.069
4.7699	53.6234
4.7437	54.1862
4.7178	54.4582
4.6922	54.6253
4.6668	54.7867
4.6418	54.5408
4.617	54.7264
4.5924	55.2493
4.5681	55.6301
4.5441	56.2808
4.5203	57.0677
4.4968	57.5547
4.4735	57.8604
4.4505	57.9551
4.4277	57.7473
4.4051	57.3189
4.3828	55.8978
4.3607	51.7314
4.3388	42.5392
4.3171	31.4181
4.2956	38.0726
4.2744	45.8958
4.2534	51.3239
4.2325	54.1215
4.2119	57.3371
4.1915	58.9674
4.1712	59.4397
4.1512	59.7635
4.1313	60.0949
4.1117	60.1995
4.0922	60.4392
4.0729	60.4685
4.0538	60.2621
4.0349	59.5449
4.0161	59.4078
3.9976	60.4579
3.9792	60.7504
3.9609	60.8719
3.9428	60.8542
3.9249	60.796
3.9072	60.4776
3.8896	59.8468
3.8722	59.2823
3.8549	58.7986
3.8378	58.9396
3.8208	59.1593
3.804	59.3747
3.7873	59.7365
3.7708	59.9374
3.7544	60.1307
3.7382	60.2413
3.7221	59.8437
3.7061	60.0348
3.6903	60.1102
3.6746	59.843
3.659	59.6139
3.6436	59.3354
3.6283	59.2103
3.6131	59.1638
3.5981	59.1707
3.5832	59.0595
3.5684	59.0541
3.5537	58.899
3.5391	58.9174
3.5247	58.837
3.5104	58.7928
3.4962	58.7156
3.4821	58.6793
3.4681	58.5048
3.4543	58.598
3.4405	58.4498
3.4269	58.0986
3.4133	57.806
3.3999	57.7296
3.3866	57.3892
3.3733	57.1842
3.3602	56.9562
3.3472	56.7271
3.3343	56.5763
3.3215	56.0738
3.3088	55.9215
3.2961	55.7134
3.2836	55.304
3.2712	54.9217
3.2588	54.3596
3.2466	53.8147
3.2345	53.6326
3.2224	53.1585
3.2104	52.6962
3.1985	52.1688
3.1867	51.6704
3.175	50.9842
3.1634	50.357
3.1519	49.9103
3.1404	49.493
3.129	49.0644
3.1178	48.5414
3.1065	47.6693
3.0954	46.7273
3.0844	45.8551
3.0734	45.0969
3.0625	44.445
3.0517	43.2059
3.041	41.9729
3.0303	40.8396
3.0197	39.6959
3.0092	37.9249
2.9987	37.1179
2.9884	35.7065
2.9781	35.1887
2.9678	35.0823
2.9577	36.1444
2.9476	37.4968
2.9376	38.0768
2.9276	38.1953
2.9177	38.2133
2.9079	36.4456
2.8982	35.5653
2.8885	35.8105
2.8789	35.6383
2.8693	35.52
2.8598	37.457
2.8504	38.4883
2.841	38.8527
2.8317	38.122
2.8224	37.7257
2.8133	37.2479
2.8041	36.4561
2.7951	33.9505
2.786	32.3802
2.7771	29.9667
2.7682	25.2819
2.7594	14.8961
2.7506	4.0822
2.7418	2.661
2.7332	5.6432
2.7246	22.0716
2.716	32.123
2.7075	39.3042
2.699	43.9493
2.6906	47.1275
2.6823	49.4822
2.674	50.854
2.6657	53.2841
2.6575	51.2036
2.6494	50.9026
2.6413	50.3493
2.6332	49.4407
2.6252	46.609
2.6173	45.589
2.6094	45.352
2.6015	44.0259
2.5937	47.5366
2.5859	46.5031
2.5782	46.2195
2.5706	42.9941
2.5629	40.2954
2.5554	35.7627
2.5478	33.6851
2.5403	34.4162
2.5329	33.7793
2.5255	35.461
2.5181	36.623
2.5108	40.361
2.5035	41.1654
2.4963	43.2808
2.4891	45.9964
2.482	47.8231
2.4749	48.076
2.4678	48.5995
2.4608	50.1738
2.4538	52.1468
2.4468	53.3635
2.4399	54.4398
2.4331	53.6775
2.4262	53.5058
2.4194	53.5474
2.4127	54.2498
2.4059	55.4966
2.3993	55.718
2.3926	56.1906
2.386	56.4031
2.3795	56.5723
2.3729	56.3354
2.3664	56.9782
2.36	57.2512
2.3535	57.629
2.3471	57.4387
2.3408	57.3072
2.3345	57.3932
2.3282	57.5129
2.3219	58.0045
2.3157	58.573
2.3095	59.1143
2.3034	59.3573
2.2972	59.8804
2.2911	60.5752
2.2851	61.0492
2.279	61.0973
2.2731	60.6822
2.2671	59.7591
2.2612	58.4099
2.2553	60.417
2.2494	61.1998
2.2435	61.2597
2.2377	61.2423
2.232	61.1889
2.2262	60.7548
2.2205	59.8648
2.2148	59.1103
2.2091	59.0815
2.2035	59.0422
2.1979	59.1563
2.1923	59.8101
2.1868	59.7192
2.1812	59.2312
2.1758	58.7153
2.1703	58.463
2.1649	58.2394
2.1595	57.5541
2.1541	56.2448
2.1487	56.6101
2.1434	57.2009
2.1381	58.1179
2.1328	59.5643
2.1275	60.1241
2.1223	60.4594
2.1171	60.2016
2.112	59.688
2.1068	58.7791
2.1017	57.6775
2.0966	54.7715
2.0915	46.6149
2.0865	31.4137
2.0814	25.1254
2.0764	43.2142
2.0715	54.2275
2.0665	58.093
2.0616	59.9779
2.0567	60.4363
2.0518	61.1356
2.0469	61.4617
2.0421	61.4708
2.0373	61.7322
2.0325	61.3381
2.0277	61.3762
2.0229	61.8293
2.0182	61.2339
2.0135	61.7728
2.0088	61.6529
2.0042	61.4057
