Name: Phlogopite KMg3Si3AlO10(F, OH)2
Type: Mineral
Class: Silicate
Subclass: Phyllosilicate
Particle Size: Solid
Sample No.: phlogop_2
Owner: JHU
Wavelength Range: TIR
Origin: Ontario, Canada via the Hunt and Salisbury Collection #23B
Description: This second sample of phlogopite also displayed the typical coppery luster of its micaceous sheets.  It appeared pure in hand sample and under the microscope.(Sheet Silicates); (Mica Group) Original ASTER Spectral Library name was jhu.nicolet.mineral.silicate.phyllosilicate.solid.phlogo2.spectrum.txt
Measurement: Bidirectional reflectance
X Units: Wavelength (micrometers)
Y Units: Reflectance (percent)
wavelength	value
25.0442	23.0488
24.3388	25.455
23.6719	28.2079
23.0407	31.7353
22.4422	36.6796
21.8741	45.5214
21.334	57.7186
20.8199	57.0917
20.33	53.9535
19.8627	55.4706
19.4163	53.1117
18.9896	52.1786
18.5812	55.8324
18.19	55.0033
17.815	41.7638
17.4551	21.7775
17.1094	10.707
16.7772	9.0224
16.4576	8.4785
16.15	7.79
15.8537	7.3928
15.568	7.5471
15.2925	8.0127
15.0265	7.7168
14.7697	7.6328
14.5214	7.9053
14.2814	8.0881
14.0492	8.6748
13.8244	9.0039
13.6067	8.3098
13.3957	7.7295
13.1912	8.196
12.9929	8.5866
12.8004	8.9758
12.6135	9.8672
12.432	10.279
12.2557	11.0766
12.0843	11.1548
11.9176	11.893
11.7555	12.9643
11.5977	13.6435
11.444	14.2939
11.2944	15.1245
11.1487	16.0681
11.0067	16.8413
10.8682	17.6992
10.7332	19.1445
10.6015	21.6874
10.473	25.8063
10.3476	30.1078
10.2251	31.2424
10.1056	33.954
9.9887	43.1256
9.8746	55.8358
9.763	58.7772
9.6539	52.0941
9.5472	45.5868
9.4429	42.723
9.3408	43.5289
9.2409	45.9271
9.1431	45.9237
9.0474	40.2506
8.9536	31.7577
8.8618	26.0922
8.7718	19.9057
8.6837	12.6089
8.5973	5.7856
8.5126	1.9409
8.4295	1.4893
8.3481	1.9748
8.2682	2.4482
8.1898	3.0723
8.1129	3.5054
8.0374	4.1084
7.9634	4.4416
7.8906	4.7942
7.8192	5.3989
7.7491	5.4558
7.6802	5.9204
7.6126	6.4443
7.5461	6.5903
7.4807	6.9475
7.4165	7.3767
7.3534	7.7209
7.2914	8.1106
7.2303	8.5483
7.1703	9.0459
7.1113	9.6975
7.0533	10.4089
6.9962	10.9414
6.94	11.5322
6.8847	12.3508
6.8302	12.934
6.7767	13.0547
6.7239	13.0844
6.672	13.521
6.6209	14.0561
6.5705	14.1565
6.5209	13.7624
6.4721	13.2905
6.424	12.9079
6.3766	12.6286
6.3299	11.9343
6.2838	11.1423
6.2385	10.6286
6.1937	10.529
6.1496	10.6089
6.1062	10.5588
6.0633	10.3659
6.0211	10.3066
5.9794	10.6123
5.9383	11.1123
5.8978	11.3933
5.8578	11.2964
5.8184	11.1238
5.7794	11.2165
5.741	11.5881
5.7031	12.0652
5.6657	12.332
5.6288	12.4487
5.5924	12.6457
5.5564	13.0095
5.5209	13.6093
5.4859	14.2363
5.4513	14.7573
5.4171	15.4414
5.3833	16.6181
5.35	18.3818
5.3171	20.6025
5.2846	22.5842
5.2524	23.4301
5.2207	23.6298
5.1893	23.632
5.1584	23.497
5.1277	23.2995
5.0975	22.7348
5.0676	21.9497
5.038	21.4001
5.0088	21.1511
4.98	21.3203
4.9514	21.559
4.9232	21.4291
4.8953	21.2238
4.8678	21.2861
4.8405	21.6747
4.8135	22.393
4.7868	23.3427
4.7605	24.392
4.7344	25.425
4.7086	26.2626
4.6831	27.0683
4.6578	28.1562
4.6328	29.3622
4.6081	30.339
4.5837	31.1279
4.5595	31.8759
4.5356	32.5404
4.5119	32.9838
4.4884	33.2968
4.4652	33.5192
4.4423	33.602
4.4196	33.6361
4.3971	33.6879
4.3748	33.7848
4.3528	33.8703
4.331	33.956
4.3094	34.0417
4.288	34.1274
4.2668	34.213
4.2458	34.2987
4.2251	34.3844
4.2045	34.4701
4.1841	34.4926
4.164	34.414
4.144	34.4545
4.1242	34.5341
4.1046	34.7275
4.0852	34.8341
4.066	34.8647
4.047	34.8825
4.0281	34.9057
4.0094	34.8922
3.9909	34.9943
3.9725	35.0448
3.9544	35.0773
3.9363	35.182
3.9185	35.1635
3.9008	35.1117
3.8833	35.0946
3.8659	35.2016
3.8487	35.37
3.8316	35.466
3.8147	35.434
3.7979	35.3969
3.7813	35.3583
3.7648	35.3266
3.7485	35.3688
3.7323	35.4733
3.7162	35.516
3.7003	35.519
3.6845	35.4643
3.6689	35.4613
3.6534	35.5155
3.638	35.6266
3.6227	35.703
3.6076	35.7116
3.5926	35.6757
3.5777	35.675
3.563	35.736
3.5484	35.7489
3.5338	35.6664
3.5195	35.5024
3.5052	35.2357
3.491	35.3539
3.477	35.4062
3.463	35.3896
3.4492	35.3593
3.4355	35.3261
3.4219	35.0375
3.4084	35.1454
3.395	35.2777
3.3817	35.2279
3.3685	35.4491
3.3554	35.6044
3.3425	35.5749
3.3296	35.4413
3.3168	35.266
3.3041	35.0707
3.2915	34.8485
3.279	34.5858
3.2666	34.2851
3.2543	33.9474
3.2421	33.5793
3.23	33.2358
3.218	33.0951
3.206	33.3197
3.1942	33.8617
3.1824	34.4887
3.1707	34.8295
3.1591	34.9482
3.1476	34.8883
3.1362	34.7382
3.1249	34.4818
3.1136	34.2655
3.1024	34.2094
3.0913	34.4591
3.0803	34.8993
3.0694	35.1752
3.0585	35.226
3.0477	35.2714
3.037	35.2802
3.0264	35.227
3.0158	35.1254
3.0053	35.0546
2.9949	35.1308
2.9845	35.268
2.9743	35.307
2.9641	35.2001
2.9539	34.9967
2.9439	34.8188
2.9339	34.6991
2.9239	34.5424
2.9141	34.4079
2.9043	34.3146
2.8946	34.2238
2.8849	34.0402
2.8753	33.8539
2.8658	33.6415
2.8563	33.2731
2.8469	32.8095
2.8375	32.3764
2.8282	31.7992
2.819	31.3898
2.8098	31.2116
2.8007	31.1366
2.7917	30.6064
2.7827	29.9672
2.7738	29.9592
2.7649	29.2101
2.7561	28.4738
2.7473	28.0265
2.7386	27.0532
2.7299	26.7167
2.7213	27.257
2.7128	25.832
2.7043	20.676
2.6959	18.7629
2.6875	23.9824
2.6791	31.9081
2.6709	34.2472
2.6626	34.3988
2.6545	33.8437
2.6463	32.8161
2.6382	32.3031
2.6302	32.6957
2.6222	33.1689
2.6143	33.3402
2.6064	33.3505
2.5986	33.2318
2.5908	32.9965
2.583	32.6435
2.5753	32.5111
2.5677	32.6254
2.5601	32.6476
2.5525	32.9252
2.545	33.2384
2.5375	33.4113
2.5301	33.5463
2.5227	33.5089
2.5154	33.2834
2.5081	33.0197
2.5008	32.9316
2.4936	33.0119
2.4864	33.12
2.4793	33.1818
2.4722	33.2397
2.4651	33.1554
2.4581	32.924
2.4511	32.5287
2.4442	32.173
2.4373	32.1672
2.4305	32.4318
2.4236	32.5382
2.4169	32.2375
2.4101	31.83
2.4034	31.5539
2.3967	31.0614
2.3901	29.703
2.3835	28.0878
2.377	28.2109
2.3704	29.4318
2.364	30.4423
2.3575	30.913
2.3511	30.9838
2.3447	30.5959
2.3384	29.4523
2.3321	27.5268
2.3258	26.4404
2.3195	26.8632
2.3133	27.9054
2.3071	29.414
2.301	30.7919
2.2949	31.6896
2.2888	32.4677
2.2828	33.3715
2.2767	34.0136
2.2708	34.3778
2.2648	34.5434
2.2589	34.433
2.253	34.0644
2.2471	33.7973
2.2413	34.2055
2.2355	34.9672
2.2297	35.3607
2.224	35.4814
2.2183	35.5556
2.2126	35.5678
2.207	35.5565
2.2013	35.5595
2.1957	35.5116
2.1902	35.5297
2.1846	35.5258
2.1791	35.495
2.1736	35.4687
2.1682	35.4467
2.1628	35.4198
2.1574	35.3944
2.152	35.3788
2.1466	35.3417
2.1413	35.3212
2.136	35.329
2.1308	35.3149
2.1255	35.3026
2.1203	35.3202
2.1151	35.3378
2.11	35.3661
2.1048	35.3695
2.0997	35.3905
2.0946	35.3593
2.0895	35.3144
2.0845	35.3085
2.0795	35.3495
