Name: Rutile TiO_2
Type: Mineral
Class: Oxide
Subclass: None
Particle Size: Medium
Sample No.: O-2A
Owner: JPL
Wavelength Range: TIR
Origin: N/A
Description: Particle size was 45-125um.Collected by JPL Original ASTER Spectral Library name was jpl.nicolet.mineral.oxide.none.medium.o02a.spectrum.txt
Measurement: Hemispherical reflectance
X Units: Wavelength (micrometers)
Y Units: Reflectance (percent)
wavelength	value
15.3853	35.0877
15.1161	34.1673
14.8563	33.9054
14.6052	33.0951
14.3624	32.4976
14.1276	31.6606
13.9004	31.2713
13.6803	30.744
13.4671	29.3467
13.2604	27.6244
13.06	25.2222
12.8656	21.7488
12.6769	18.2909
12.4936	14.6979
12.3155	11.196
12.1425	8.065
11.9742	5.2595
11.8106	3.1124
11.6513	2.2868
11.4963	1.6838
11.3454	1.5081
11.1983	1.6118
11.0551	1.5857
10.9154	1.7167
10.7793	1.7464
10.6465	1.992
10.5169	2.194
10.3904	2.4928
10.267	2.6793
10.1464	3.0175
10.0287	3.2301
9.9136	3.4435
9.8012	3.4576
9.6913	3.5416
9.5838	3.6586
9.4787	3.8305
9.3758	4.1093
9.2752	4.5065
9.1767	4.5973
9.0803	4.6476
8.9858	4.8017
8.8934	4.9527
8.8028	5.1539
8.714	5.2665
8.627	5.1436
8.5417	5.265
8.4581	5.3049
8.3761	5.4059
8.2957	5.5122
8.2169	5.872
8.1395	5.9797
8.0635	6.3329
7.989	6.5202
7.9158	6.7865
7.8439	7.1758
7.7734	7.8367
7.7041	8.7458
7.636	9.4585
7.5691	10.247
7.5034	11.0111
7.4388	11.8055
7.3753	12.4795
7.3129	13.0486
7.2515	13.6025
7.1912	14.3096
7.1318	14.9474
7.0734	15.5492
7.016	16.315
6.9595	17.1854
6.9039	17.7396
6.8492	18.5197
6.7953	19.4721
6.7423	19.7713
6.6901	20.6715
6.6387	22.0425
6.5881	22.2985
6.5382	22.5842
6.4892	24.0068
6.4408	23.8744
6.3931	24.3104
6.3462	25.1996
6.2999	24.9849
6.2543	25.4703
6.2094	25.7641
6.1651	26.6717
6.1214	27.2349
6.0784	28.1014
6.0359	28.6388
5.994	29.516
5.9527	30.0893
5.912	30.9235
5.8718	32.0315
5.8322	32.7996
5.7931	33.3593
5.7545	34.2879
5.7165	35.0827
5.6789	35.4875
5.6418	36.2406
5.6052	36.1746
5.5691	36.4938
5.5334	37.0818
5.4982	37.5748
5.4635	38.417
5.4291	38.7633
5.3952	38.8955
5.3618	39.2079
5.3287	39.6626
5.2961	40.1903
5.2638	40.5789
5.2319	41.3288
5.2004	41.7682
5.1693	42.0933
5.1386	42.3204
5.1082	42.6007
5.0782	42.8384
5.0485	43.184
5.0192	43.502
4.9902	43.8494
4.9616	44.2469
4.9332	44.5572
4.9052	44.9867
4.8776	45.3013
4.8502	45.5341
4.8231	45.7468
4.7963	45.8257
4.7699	45.6682
4.7437	45.327
4.7178	45.2678
4.6922	45.814
4.6668	46.5949
4.6418	47.1395
4.617	47.5775
4.5924	47.822
4.5681	48.1443
4.5441	48.3007
4.5203	48.3409
4.4968	48.4755
4.4735	48.5233
4.4505	48.5912
4.4277	48.7174
4.4051	48.8001
4.3828	48.8561
4.3607	48.9744
4.3388	48.9329
4.3171	48.8782
4.2956	48.756
4.2744	48.809
4.2534	48.7628
4.2325	48.8978
4.2119	48.9123
4.1915	48.9121
4.1712	48.9605
4.1512	48.8766
4.1313	48.8738
4.1117	48.7705
4.0922	48.762
4.0729	48.6368
4.0538	48.4575
4.0349	48.2502
4.0161	48.138
3.9976	47.9198
3.9792	47.7281
3.9609	47.7934
3.9428	47.8216
3.9249	47.5869
3.9072	47.6706
3.8896	47.5112
3.8722	47.5112
3.8549	47.332
3.8378	47.2887
3.8208	47.1958
3.804	47.1968
3.7873	47.0772
3.7708	47.0793
3.7544	46.984
3.7382	46.7961
3.7221	46.6532
3.7061	46.5132
3.6903	46.2678
3.6746	46.246
3.659	46.019
3.6436	45.831
3.6283	45.6325
3.6131	45.3402
3.5981	45.2463
3.5832	44.864
3.5684	44.6739
3.5537	44.3673
3.5391	44.1447
3.5247	43.7772
3.5104	43.2656
3.4962	42.9832
3.4821	42.9234
3.4681	42.5351
3.4543	42.4804
3.4405	42.0327
3.4269	41.7182
3.4133	41.2243
3.3999	41.1659
3.3866	40.7434
3.3733	40.508
3.3602	40.2248
3.3472	39.8536
3.3343	39.6925
3.3215	39.3423
3.3088	38.8451
3.2961	38.4586
3.2836	37.9854
3.2712	37.649
3.2588	37.1121
3.2466	36.6239
3.2345	36.1054
3.2224	35.6554
3.2104	35.6115
3.1985	35.1795
3.1867	34.9565
3.175	34.6848
3.1634	34.422
3.1519	34.1107
3.1404	33.752
3.129	33.4039
3.1178	33.0908
3.1065	32.4103
3.0954	31.4443
3.0844	29.9418
3.0734	27.7573
3.0625	23.9628
3.0517	19.4692
3.041	19.6614
3.0303	21.321
3.0197	24.498
3.0092	26.9735
2.9987	28.749
2.9884	29.4833
2.9781	29.3999
2.9678	29.2771
2.9577	28.9954
2.9476	29.6233
2.9376	30.4288
2.9276	31.2311
2.9177	31.8001
2.9079	32.3096
2.8982	32.6561
2.8885	33.2296
2.8789	33.4911
2.8693	33.7299
2.8598	34.1945
2.8504	34.737
2.841	35.1387
2.8317	35.2634
2.8224	35.5955
2.8133	35.5886
2.8041	36.0303
2.7951	35.8575
2.786	36.3765
2.7771	36.341
2.7682	36.6097
2.7594	36.5041
2.7506	36.6151
2.7418	36.9788
2.7332	36.0458
2.7246	36.8592
2.716	37.5058
2.7075	38.8847
2.699	39.3331
2.6906	39.7218
2.6823	40.1359
2.674	40.4333
2.6657	41.3403
2.6575	40.2475
2.6494	40.2709
2.6413	40.148
2.6332	40.4078
2.6252	40.2594
2.6173	40.748
2.6094	40.2211
2.6015	40.02
2.5937	40.7875
2.5859	40.0422
2.5782	39.894
2.5706	39.8005
2.5629	40.0543
2.5554	39.3556
2.5478	39.5634
2.5403	39.0686
2.5329	39.1756
2.5255	38.8798
2.5181	38.8504
2.5108	38.6577
2.5035	38.5893
2.4963	38.5206
2.4891	38.4836
2.482	38.2979
2.4749	38.2793
2.4678	38.1147
2.4608	38.1019
2.4538	38.1312
2.4468	38.288
2.4399	38.3209
2.4331	38.1748
2.4262	38.1696
2.4194	38.2682
2.4127	38.1656
2.4059	37.9302
2.3993	37.881
2.3926	37.8016
2.386	37.7085
2.3795	37.9548
2.3729	37.8056
2.3664	37.7521
2.36	37.6999
2.3535	37.6347
2.3471	37.5946
2.3408	37.4585
2.3345	37.4726
2.3282	37.2195
2.3219	37.0795
2.3157	36.7425
2.3095	36.542
2.3034	36.393
2.2972	36.3352
2.2911	36.5755
2.2851	36.8532
2.279	37.1027
2.2731	36.8652
2.2671	36.9406
2.2612	36.9687
2.2553	36.9772
2.2494	37.1319
2.2435	36.9148
2.2377	36.9539
2.232	36.8351
2.2262	36.8725
2.2205	36.8506
2.2148	36.7344
2.2091	36.7989
2.2035	36.5109
2.1979	36.5779
2.1923	36.5818
2.1868	36.6035
2.1812	36.5114
2.1758	36.5888
2.1703	36.5464
2.1649	36.3997
2.1595	36.4564
2.1541	36.4089
2.1487	36.3546
2.1434	35.9991
2.1381	36.0578
2.1328	36.0547
2.1275	36.2242
2.1223	35.9405
2.1171	35.7974
2.112	35.6728
2.1068	35.9996
2.1017	35.9423
2.0966	35.8726
2.0915	36.3813
2.0865	35.7205
2.0814	35.7417
2.0764	35.9466
2.0715	35.6669
2.0665	35.5421
2.0616	35.6713
2.0567	35.553
2.0518	35.6503
2.0469	35.4568
2.0421	35.3841
2.0373	35.4816
2.0325	35.2995
2.0277	35.0168
2.0229	35.0001
2.0182	35.2752
2.0135	35.4768
2.0088	34.8881
2.0042	35.1108
