Name: Riebeckite Na2(Fe+2,Mg)3Fe2+3Si8O22(OH)2
Type: Mineral
Class: Silicate
Subclass: Inosilicate
Particle Size: Coarse
Sample No.: riebeck_1
Owner: JHU
Wavelength Range: TIR
Origin: Hurricane Mountain, Conway, New Hampshire via theSmithsonian (sample no. NMNH 122689)
Description: The sample was an 11.54 g portion of a black crystal.  The crystal displayed a small amount of surficial limonitic stain, which could be brushed off.  The crushed sample was hand-picked to avoid grains containing small crystals of included quartz.  The resultant sample appeared very pure under the microscope (<1% impurities). Particle size was 75 - 250  Micrometers. (chain silicates); (Amphibole Group) Original ASTER Spectral Library name was jhu.nicolet.mineral.silicate.inosilicate.coarse.riebec1.spectrum.txt
Measurement: Bidirectional reflectance
X Units: Wavelength (micrometers)
Y Units: Reflectance (percent)
wavelength	value
25.0442	6.3525
24.3388	6.4931
23.6719	6.7866
23.0407	7.9375
22.4422	10.1045
21.8741	11.2104
21.334	10.8506
20.8199	12.2102
20.33	13.0966
19.8627	13.2058
19.4163	12.6382
18.9896	9.1863
18.5812	8.9912
18.19	10.4255
17.815	8.1972
17.4551	4.2378
17.1094	2.2607
16.7772	1.9514
16.4576	2.2021
16.15	2.4919
15.8537	2.7307
15.568	2.7771
15.2925	2.6445
15.0265	2.6736
14.7697	2.6191
14.5214	2.6999
14.2814	2.727
14.0492	2.8557
13.8244	2.9653
13.6067	3.1113
13.3957	3.2927
13.1912	3.2825
12.9929	3.1418
12.8004	3.0552
12.6135	3.2244
12.432	3.4163
12.2557	3.581
12.0843	3.7021
11.9176	3.8577
11.7555	4.0474
11.5977	4.2851
11.444	4.447
11.2944	4.5181
11.1487	4.6081
11.0067	4.8164
10.8682	5.2856
10.7332	5.9568
10.6015	7.0793
10.473	8.4324
10.3476	9.4065
10.2251	10.6069
10.1056	10.9846
9.9887	11.3747
9.8746	10.8825
9.763	10.707
9.6539	10.4287
9.5472	8.8874
9.4429	9.6587
9.3408	10.4416
9.2409	10.8442
9.1431	9.6489
9.0474	8.4421
8.9536	7.6382
8.8618	7.5537
8.7718	7.5688
8.6837	7.3816
8.5973	6.3992
8.5126	4.5996
8.4295	2.7768
8.3481	1.3828
8.2682	0.8149
8.1898	0.8643
8.1129	1.0225
8.0374	1.1765
7.9634	1.3228
7.8906	1.4663
7.8192	1.5808
7.7491	1.689
7.6802	1.7766
7.6126	1.8569
7.5461	1.949
7.4807	2.0583
7.4165	2.1641
7.3534	2.2498
7.2914	2.3166
7.2303	2.4206
7.1703	2.5227
7.1113	2.6435
7.0533	2.7756
6.9962	2.894
6.94	3.0181
6.8847	3.1287
6.8302	3.2131
6.7767	3.2761
6.7239	3.3293
6.672	3.3931
6.6209	3.4763
6.5705	3.5806
6.5209	3.676
6.4721	3.6621
6.424	3.5339
6.3766	3.3342
6.3299	3.1145
6.2838	2.949
6.2385	2.8345
6.1937	2.7886
6.1496	2.8403
6.1062	2.9394
6.0633	3.0449
6.0211	3.1399
5.9794	3.1592
5.9383	3.115
5.8978	3.0703
5.8578	3.0344
5.8184	2.9985
5.7794	2.9829
5.741	2.959
5.7031	2.937
5.6657	2.9175
5.6288	2.9241
5.5924	2.9729
5.5564	3.1035
5.5209	3.3061
5.4859	3.4895
5.4513	3.5705
5.4171	3.6699
5.3833	3.8381
5.35	4.031
5.3171	4.1826
5.2846	4.2856
5.2524	4.3704
5.2207	4.428
5.1893	4.488
5.1584	4.5657
5.1277	4.6575
5.0975	4.7292
5.0676	4.8071
5.038	4.9033
5.0088	5.0024
4.98	5.0964
4.9514	5.2285
4.9232	5.4021
4.8953	5.6291
4.8678	5.8227
4.8405	6.019
4.8135	6.1833
4.7868	6.3264
4.7605	6.4636
4.7344	6.6135
4.7086	6.802
4.6831	6.9968
4.6578	7.2029
4.6328	7.4534
4.6081	7.7492
4.5837	8.1033
4.5595	8.4114
4.5356	8.6816
4.5119	8.8938
4.4884	9.0984
4.4652	9.2539
4.4423	9.3913
4.4196	9.5246
4.3971	9.6277
4.3748	9.7109
4.3528	9.7759
4.331	9.8323
4.3094	9.8833
4.288	9.9372
4.2668	9.9519
4.2458	10.0432
4.2251	10.0874
4.2045	10.1626
4.1841	10.2221
4.164	10.281
4.144	10.3274
4.1242	10.3806
4.1046	10.4306
4.0852	10.4883
4.066	10.5442
4.047	10.6115
4.0281	10.6792
4.0094	10.7353
3.9909	10.8056
3.9725	10.8615
3.9544	10.9363
3.9363	10.9948
3.9185	11.0622
3.9008	11.1194
3.8833	11.1675
3.8659	11.209
3.8487	11.2424
3.8316	11.2685
3.8147	11.311
3.7979	11.3437
3.7813	11.3886
3.7648	11.436
3.7485	11.4431
3.7323	11.5066
3.7162	11.5322
3.7003	11.5771
3.6845	11.6015
3.6689	11.645
3.6534	11.6723
3.638	11.6855
3.6227	11.7192
3.6076	11.7512
3.5926	11.7871
3.5777	11.8071
3.563	11.8208
3.5484	11.8222
3.5338	11.8462
3.5195	11.8391
3.5052	11.8112
3.491	11.8178
3.477	11.8313
3.463	11.7961
3.4492	11.7317
3.4355	11.7107
3.4219	11.6118
3.4084	11.4941
3.395	11.4507
3.3817	11.4243
3.3685	11.4885
3.3554	11.605
3.3425	11.6953
3.3296	11.7343
3.3168	11.7285
3.3041	11.7632
3.2915	11.79
3.279	11.8117
3.2666	11.7954
3.2543	11.7551
3.2421	11.7016
3.23	11.6286
3.218	11.5798
3.206	11.5346
3.1942	11.52
3.1824	11.4758
3.1707	11.4592
3.1591	11.4807
3.1476	11.4555
3.1362	11.415
3.1249	11.3864
3.1136	11.365
3.1024	11.3298
3.0913	11.292
3.0803	11.2705
3.0694	11.2339
3.0585	11.196
3.0477	11.1784
3.037	11.1596
3.0264	11.1645
3.0158	11.1335
3.0053	11.1018
2.9949	11.1098
2.9845	11.1064
2.9743	11.0908
2.9641	11.0669
2.9539	11.0425
2.9439	11.0415
2.9339	11.0415
2.9239	11.0185
2.9141	11.0246
2.9043	11.0051
2.8946	10.9841
2.8849	10.9128
2.8753	10.8816
2.8658	10.884
2.8563	10.9143
2.8469	10.9587
2.8375	11.0454
2.8282	11.0803
2.819	11.0615
2.8098	11.0134
2.8007	10.8911
2.7917	10.6762
2.7827	10.1469
2.7738	6.8127
2.7649	3.7046
2.7561	5.5896
2.7473	4.4392
2.7386	4.7058
2.7299	8.6965
2.7213	10.0276
2.7128	11.4182
2.7043	11.4633
2.6959	12.2104
2.6875	12.7485
2.6791	12.9653
2.6709	12.9384
2.6626	12.9216
2.6545	12.8257
2.6463	12.9243
2.6382	12.988
2.6302	13.1042
2.6222	13.2136
2.6143	13.3017
2.6064	13.31
2.5986	13.2993
2.5908	13.3076
2.583	13.2844
2.5753	13.2932
2.5677	13.2817
2.5601	13.3064
2.5525	13.2434
2.545	13.2109
2.5375	13.1338
2.5301	12.9702
2.5227	12.9658
2.5154	12.9402
2.5081	12.9384
2.5008	12.9504
2.4936	12.9502
2.4864	13.0236
2.4793	13.1093
2.4722	13.1616
2.4651	13.1792
2.4581	13.2151
2.4511	13.0761
2.4442	12.9411
2.4373	12.8115
2.4305	12.4382
2.4236	12.0805
2.4169	11.8281
2.4101	11.8462
2.4034	12.0854
2.3967	12.4297
2.3901	12.7099
2.3835	12.9343
2.377	12.9961
2.3704	12.9738
2.364	12.6689
2.3575	11.958
2.3511	10.7944
2.3447	10.1264
2.3384	10.1899
2.3321	10.6826
2.3258	11.2075
2.3195	12.0195
2.3133	12.3091
2.3071	12.4663
2.301	12.6194
2.2949	12.8789
2.2888	12.9504
2.2828	12.9812
2.2767	13.0266
2.2708	13.0368
2.2648	13.0515
2.2589	13.0639
2.253	13.04
2.2471	13.0334
2.2413	13.0122
2.2355	12.9973
2.2297	12.9873
2.224	12.9709
2.2183	12.9167
2.2126	12.9853
2.207	12.925
2.2013	12.8908
2.1957	12.9084
2.1902	12.8842
2.1846	12.8222
2.1791	12.801
2.1736	12.7978
2.1682	12.7915
2.1628	12.8264
2.1574	12.7719
2.152	12.7063
2.1466	12.6826
2.1413	12.6757
2.136	12.6792
2.1308	12.6557
2.1255	12.6777
2.1203	12.7114
2.1151	12.6982
2.11	12.7031
2.1048	12.6611
2.0997	12.6631
2.0946	12.6985
2.0895	12.6884
2.0845	12.7168
2.0795	12.6738
