Name: Cassiterite SnO_2
Type: Mineral
Class: Oxide
Subclass: None
Particle Size: Fine
Sample No.: O-3A
Owner: JPL
Wavelength Range: VSWIR
Origin: USA, South Dakota, Lawrence County, Tinton
Description: Particle size was 0-45um.Collected by Burminco Original ASTER Spectral Library name was jpl.beckman.mineral.oxide.none.fine.o03a.spectrum.txt
Measurement: Hemispherical reflectance
X Units: Wavelength (micrometers)
Y Units: Reflectance (percent)
wavelength	value
0.4	6.87
0.403	6.82
0.406	6.88
0.409	6.88
0.412	6.82
0.415	6.87
0.418	6.87
0.421	6.98
0.424	7
0.427	7.04
0.43	7.11
0.433	7.08
0.436	7.04
0.439	7.24
0.442	7.22
0.445	7.26
0.448	7.25
0.451	7.34
0.454	7.31
0.457	7.3
0.46	7.45
0.463	7.49
0.466	7.56
0.469	7.56
0.472	7.56
0.475	7.67
0.478	7.54
0.481	7.77
0.484	7.86
0.487	7.82
0.49	7.92
0.493	7.94
0.496	8.01
0.499	7.99
0.502	8.15
0.505	8.2
0.508	8.27
0.511	8.29
0.514	8.51
0.517	8.39
0.52	8.36
0.523	8.56
0.526	8.62
0.529	8.76
0.532	8.75
0.535	8.87
0.538	8.78
0.541	8.97
0.544	9.11
0.547	9.13
0.55	9.14
0.553	9.15
0.556	9.27
0.559	9.28
0.562	9.56
0.565	9.64
0.568	9.87
0.571	9.75
0.574	9.78
0.577	9.93
0.58	10
0.583	10.2
0.586	10.49
0.589	10.77
0.592	10.77
0.595	10.77
0.598	11.01
0.601	11.06
0.604	11.21
0.607	11.03
0.61	11.12
0.613	11.37
0.616	11.3
0.619	11.41
0.622	11.56
0.625	11.63
0.628	11.78
0.631	11.87
0.634	12.04
0.637	12.06
0.64	12.07
0.643	12.32
0.646	12.43
0.649	12.52
0.652	12.73
0.655	12.73
0.658	12.71
0.661	12.7
0.664	12.83
0.667	12.91
0.67	13.03
0.673	13.1
0.676	13.2
0.679	13.37
0.682	13.24
0.685	13.37
0.688	13.47
0.691	13.5
0.694	13.66
0.697	13.64
0.7	13.8
0.703	13.84
0.706	13.88
0.709	14.03
0.712	13.97
0.715	14.06
0.718	14.15
0.721	14.13
0.724	14.27
0.727	14.37
0.73	14.35
0.733	14.41
0.736	14.44
0.739	14.53
0.742	14.51
0.745	14.64
0.748	14.73
0.751	14.73
0.754	14.72
0.757	14.74
0.76	14.83
0.763	14.88
0.766	14.89
0.769	14.94
0.772	15.03
0.775	14.99
0.778	14.99
0.781	15.01
0.784	15.05
0.787	15.13
0.79	15.17
0.793	15.31
0.796	15.19
0.799	15.24
0.808	15.29
0.82	15.29
0.832	15.21
0.844	15.27
0.856	15.3
0.868	15.28
0.88	15.35
0.892	15.4
0.904	15.52
0.916	15.66
0.928	15.8
0.94	16.01
0.952	16.2
0.964	16.37
0.976	16.48
0.988	16.58
1	16.57
1.012	16.68
1.024	16.72
1.036	16.69
1.048	16.55
1.06	16.55
1.072	16.49
1.084	16.46
1.096	16.33
1.108	16.34
1.12	16.3
1.132	16.17
1.144	16.14
1.156	16.05
1.168	16
1.18	15.8
1.192	15.91
1.204	15.73
1.216	15.71
1.228	15.63
1.24	15.6
1.252	15.5
1.264	15.47
1.276	15.41
1.288	15.4
1.3	15.27
1.312	15.17
1.324	15.12
1.336	15.1
1.348	15
1.36	14.9
1.372	14.72
1.384	14.78
1.396	14.64
1.408	14.55
1.42	14.45
1.432	14.36
1.444	14.19
1.456	14.18
1.468	14.02
1.48	13.91
1.492	13.83
1.504	13.69
1.516	13.58
1.528	13.48
1.54	13.4
1.552	13.23
1.564	13.25
1.576	13.1
1.588	12.99
1.6	12.9
1.612	12.79
1.624	12.68
1.636	12.61
1.648	12.49
1.66	12.4
1.672	12.33
1.684	12.21
1.696	12.23
1.708	12.07
1.72	12
1.732	11.89
1.744	11.77
1.756	11.69
1.768	11.59
1.78	11.49
1.792	11.44
1.804	11.37
1.816	11.23
1.828	11.2
1.84	11.16
1.852	10.99
1.864	10.88
1.876	10.91
1.888	10.75
1.9	10.65
1.912	10.62
1.924	10.48
1.936	10.4
1.948	10.37
1.96	10.28
1.972	10.21
1.984	10.1
1.996	10.11
2.008	10.06
2.02	9.91
2.032	9.88
2.044	9.83
2.056	9.73
2.068	9.61
2.08	9.64
2.092	9.49
2.104	9.48
2.116	9.35
2.128	9.27
2.14	9.23
2.152	9.21
2.164	9.08
2.176	8.99
2.188	8.95
2.2	8.83
2.212	8.77
2.224	8.75
2.236	8.63
2.248	8.6
2.26	8.53
2.272	8.51
2.284	8.44
2.296	8.35
2.308	8.3
2.32	8.24
2.332	8.21
2.344	8.17
2.356	8.1
2.368	8.02
2.38	7.97
2.392	7.91
2.404	7.85
2.416	7.83
2.428	7.78
2.44	7.7
2.452	7.66
2.464	7.59
2.476	7.52
2.488	7.59
2.5	7.56
