Name: Orthoclase KAlSi3O8
Type: Mineral
Class: Silicate
Subclass: Tectosilicate
Particle Size: Fine
Sample No.: orthocl_3
Owner: JHU
Wavelength Range: TIR
Origin: Harris Farm Mica Mine, near Oliver, Goochland Co., Virginiavia the Smithsonian (sample no. NMNH 113188)
Description: The hand sample is a single 11.97 g fragment of a single crystal.  It is twinned, translucent, light beige in color and appears very pure. Under the microscope, the sample is slightly altered to sericite, otherwise pure. Particle size was Less than 2 Micrometers.(Framework Silicates); (Feldspar Group) Original ASTER Spectral Library name was jhu.nicolet.mineral.silicate.tectosilicate.powder.orthoc3.spectrum.txt
Measurement: Transmission
X Units: Wavelength (micrometers)
Y Units: Transmittance (percent)
wavelength	value
25.0442	47.2108
24.3388	41.5468
23.6719	33.7636
23.0407	33.6835
22.4422	41.8124
21.8741	55.3631
21.334	63.3729
20.8199	72.1102
20.33	77.6316
19.8627	78.4456
19.4163	76.7308
18.9896	72.2068
18.5812	57.4188
18.19	59.242
17.815	58.2948
17.4551	47.2938
17.1094	40.2538
16.7772	46.0507
16.4576	53.8231
16.15	64.5125
15.8537	66.703
15.568	59.2528
15.2925	70.9827
15.0265	77.8079
14.7697	80.1429
14.5214	79.0125
14.2814	73.2991
14.0492	66.3035
13.8244	61.6739
13.6067	63.3778
13.3957	65.866
13.1912	66.203
12.9929	65.743
12.8004	68.4473
12.6135	73.6746
12.432	82.4363
12.2557	86.333
12.0843	85.0633
11.9176	82.5264
11.7555	79.4363
11.5977	76.0525
11.444	72.3262
11.2944	68.5081
11.1487	64.3724
11.0067	59.7655
10.8682	54.7716
10.7332	49.3339
10.6015	43.4003
10.473	36.7514
10.3476	29.8722
10.2251	23.6181
10.1056	18.6181
9.9887	14.8977
9.8746	13.143
9.763	13.0127
9.6539	12.9511
9.5472	13.4651
9.4429	15.9521
9.3408	20.538
9.2409	23.5449
9.1431	23.8144
9.0474	23.0991
8.9536	22.0937
8.8618	21.4081
8.7718	22.0851
8.6837	25.4252
8.5973	30.9211
8.5126	37.0531
8.4295	42.7035
8.3481	47.6654
8.2682	51.9066
8.1898	55.2586
8.1129	57.9193
8.0374	60.1356
7.9634	62.223
7.8906	63.9574
7.8192	65.3951
7.7491	66.7237
7.6802	67.8944
7.6126	69.0662
7.5461	70.0506
7.4807	70.9918
7.4165	71.7723
7.3534	72.5337
7.2914	73.2786
7.2303	73.888
7.1703	74.9905
7.1113	75.782
7.0533	76.2713
6.9962	76.8284
6.94	77.4695
6.8847	77.8025
6.8302	78.1634
6.7767	78.5872
6.7239	79.0013
6.672	79.472
6.6209	79.8997
6.5705	80.326
6.5209	80.5227
6.4721	80.8167
6.424	81.097
6.3766	81.1673
6.3299	81.2642
6.2838	81.3738
6.2385	81.3597
6.1937	81.073
6.1496	80.7752
6.1062	81.0664
6.0633	81.5203
6.0211	82.6448
5.9794	83.552
5.9383	83.7085
5.8978	83.7029
5.8578	83.7073
5.8184	84.0545
5.7794	84.094
5.741	84.1702
5.7031	84.222
5.6657	84.2097
5.6288	84.3015
5.5924	84.3938
5.5564	84.6443
5.5209	84.8728
5.4859	85.097
5.4513	85.2693
5.4171	85.5208
5.3833	85.6043
5.35	85.8269
5.3171	85.9837
5.2846	86.1497
5.2524	86.3181
5.2207	86.4622
5.1893	86.6634
5.1584	86.8313
5.1277	87.0232
5.0975	87.1636
5.0676	87.2932
5.038	87.4358
5.0088	87.5462
4.98	87.6475
4.9514	87.7215
4.9232	87.7644
4.8953	87.8389
4.8678	87.8721
4.8405	87.9404
4.8135	87.9871
4.7868	88.0525
4.7605	88.1409
4.7344	88.1778
4.7086	88.1985
4.6831	88.252
4.6578	88.2893
4.6328	88.3828
4.6081	88.6033
4.5837	88.5652
4.5595	88.5742
4.5356	88.6514
4.5119	88.6455
4.4884	88.7268
4.4652	88.804
4.4423	88.8631
4.4196	88.9363
4.3971	88.9732
4.3748	88.992
4.3528	89.0466
4.331	89.1155
4.3094	89.0869
4.288	89.1526
4.2668	89.2048
4.2458	89.1924
4.2251	89.2805
4.2045	89.2507
4.1841	89.2747
4.164	89.3428
4.144	89.3255
4.1242	89.3362
4.1046	89.3743
4.0852	89.3816
4.066	89.3255
4.047	89.406
4.0281	89.3928
4.0094	89.4558
3.9909	89.406
3.9725	89.3938
3.9544	89.4141
3.9363	89.4939
3.9185	89.5049
3.9008	89.4658
3.8833	89.4573
3.8659	89.4424
3.8487	89.4561
3.8316	89.489
3.8147	89.5401
3.7979	89.4407
3.7813	89.4382
3.7648	89.5
3.7485	89.4229
3.7323	89.4375
3.7162	89.459
3.7003	89.3562
3.6845	89.3347
3.6689	89.3435
3.6534	89.284
3.638	89.3428
3.6227	89.1914
3.6076	89.2171
3.5926	89.2735
3.5777	89.2058
3.563	89.198
3.5484	89.1404
3.5338	89.1123
3.5195	88.9939
3.5052	88.8936
3.491	88.8308
3.477	88.7793
3.463	88.7498
3.4492	88.655
3.4355	88.615
3.4219	88.4795
3.4084	88.3181
3.395	88.4314
3.3817	88.5694
3.3685	88.6257
3.3554	88.4646
3.3425	88.5183
3.3296	88.5654
3.3168	88.5381
3.3041	88.5681
3.2915	88.5388
3.279	88.4827
3.2666	88.3753
3.2543	88.3758
3.2421	88.3982
3.23	88.4221
3.218	88.3777
3.206	88.2966
3.1942	88.1565
3.1824	88.0877
3.1707	87.9646
3.1591	87.8269
3.1476	87.7439
3.1362	87.6038
3.1249	87.4143
3.1136	87.2757
3.1024	86.9964
3.0913	86.7322
3.0803	86.5398
3.0694	86.3401
3.0585	86.137
3.0477	86.0623
3.037	85.8572
3.0264	85.6873
3.0158	85.3616
3.0053	85.0198
2.9949	84.5862
2.9845	84.1258
2.9743	83.4065
2.9641	82.7679
2.9539	82.2556
2.9439	81.7742
2.9339	81.3611
2.9239	81.178
2.9141	81.0804
2.9043	81.0994
2.8946	81.2952
2.8849	81.4807
2.8753	81.5647
2.8658	81.9256
2.8563	82.1873
2.8469	82.4646
2.8375	82.9305
2.8282	83.2849
2.819	83.8011
2.8098	84.2014
2.8007	84.6023
2.7917	84.9436
2.7827	85.3289
2.7738	85.5921
2.7649	86.0525
2.7561	86.5706
2.7473	86.8347
2.7386	87.135
2.7299	87.2302
2.7213	87.1956
2.7128	87.0115
2.7043	87.4124
2.6959	87.555
2.6875	87.7361
2.6791	87.8772
2.6709	88.0589
2.6626	87.825
2.6545	87.698
2.6463	87.7361
2.6382	87.615
2.6302	87.8308
2.6222	87.7244
2.6143	87.6072
2.6064	87.7732
2.5986	87.6463
2.5908	87.6619
2.583	87.7967
2.5753	87.5935
2.5677	87.5242
2.5601	87.7595
2.5525	87.6228
2.545	87.5008
2.5375	87.5388
2.5301	87.3992
2.5227	87.4226
2.5154	87.4998
2.5081	87.5056
2.5008	87.4627
2.4936	87.4939
2.4864	87.3992
2.4793	87.242
2.4722	87.3172
2.4651	87.3377
2.4581	87.4509
2.4511	87.4607
2.4442	87.2195
2.4373	87.4304
2.4305	87.0799
2.4236	87.1482
2.4169	87.3279
2.4101	87.4177
2.4034	87.407
2.3967	87.2976
2.3901	87.1726
2.3835	87.0916
2.377	87.0232
2.3704	87.0388
2.364	87.0584
2.3575	87.0623
2.3511	86.9295
2.3447	86.99
2.3384	86.8718
2.3321	86.7498
2.3258	86.7537
2.3195	87.0203
2.3133	86.9656
2.3071	86.7576
2.301	86.8123
2.2949	86.8513
2.2888	86.9314
2.2828	86.6345
2.2767	86.6228
2.2708	86.8299
2.2648	86.8552
2.2589	86.6052
2.253	86.5955
2.2471	86.5838
2.2413	86.3552
2.2355	86.4256
2.2297	86.4724
2.224	86.5427
2.2183	86.3982
2.2126	86.697
2.207	86.6052
2.2013	86.3396
2.1957	86.3142
2.1902	86.3201
2.1846	86.4998
2.1791	86.197
2.1736	86.3845
2.1682	86.4373
2.1628	86.3435
2.1574	86.3045
2.152	86.1834
2.1466	86.1326
2.1413	86.1189
2.136	86.1521
2.1308	86.0642
2.1255	86.1111
2.1203	86.1658
2.1151	86.2263
2.11	86.3552
2.1048	85.8611
2.0997	86.0408
2.0946	86.2888
2.0895	86.3435
2.0845	86.1345
2.0795	86.1736
