Name: Spodumene LiAlS_2O_6
Type: Mineral
Class: Silicate
Subclass: Inosilicate
Particle Size: Medium
Sample No.: IN-13A
Owner: JPL
Wavelength Range: TIR
Origin: Brazil, Minas Gerais
Description: Particle size was 45-125um.Collected by Ward's Original ASTER Spectral Library name was jpl.nicolet.mineral.silicate.inosilicate.medium.in13a.spectrum.txt
Measurement: Hemispherical reflectance
X Units: Wavelength (micrometers)
Y Units: Reflectance (percent)
wavelength	value
15.3853	5.3973
15.1161	9.0787
14.8563	6.5029
14.6052	1.2969
14.3624	1.0835
14.1276	1.3366
13.9004	1.9756
13.6803	2.8046
13.4671	3.2969
13.2604	3.7685
13.06	4.2722
12.8656	4.8586
12.6769	5.3467
12.4936	5.6779
12.3155	6.0645
12.1425	6.7129
11.9742	7.5557
11.8106	8.6929
11.6513	10.5173
11.4963	7.2003
11.3454	8.9564
11.1983	11.7335
11.0551	15.4738
10.9154	19.4501
10.7793	21.8903
10.6465	22.9081
10.5169	23.5342
10.3904	23.542
10.267	22.4727
10.1464	18.7889
10.0287	13.3084
9.9136	14.4957
9.8012	21.5167
9.6913	24.189
9.5838	25.7261
9.4787	27.1405
9.3758	29.8101
9.2752	33.9845
9.1767	42.8617
9.0803	44.5373
8.9858	43.3142
8.8934	38.3426
8.8028	28.3207
8.714	22.5354
8.627	16.8633
8.5417	10.995
8.4581	9.0389
8.3761	11.0287
8.2957	11.3095
8.2169	5.9999
8.1395	2.4106
8.0635	0.9342
7.989	0.4114
7.9158	0.2096
7.8439	0.3404
7.7734	0.4203
7.7041	0.5131
7.636	0.6723
7.5691	0.9564
7.5034	1.0784
7.4388	1.4518
7.3753	1.7408
7.3129	1.914
7.2515	2.2804
7.1912	2.6501
7.1318	2.7278
7.0734	2.8852
7.016	3.1067
6.9595	3.8425
6.9039	3.9946
6.8492	4.6516
6.7953	5.379
6.7423	6.0147
6.6901	6.7559
6.6387	7.5142
6.5881	7.4672
6.5382	7.5927
6.4892	8.0252
6.4408	7.4785
6.3931	7.3981
6.3462	7.8478
6.2999	7.5606
6.2543	7.5259
6.2094	7.6605
6.1651	8.2683
6.1214	8.587
6.0784	8.9216
6.0359	9.1845
5.994	9.5778
5.9527	9.1262
5.912	8.5471
5.8718	8.4226
5.8322	8.715
5.7931	8.5789
5.7545	7.9226
5.7165	6.7148
5.6789	6.4593
5.6418	6.4523
5.6052	6.0503
5.5691	5.8321
5.5334	5.8921
5.4982	6.5774
5.4635	7.2684
5.4291	7.9483
5.3952	8.0689
5.3618	8.1288
5.3287	8.8916
5.2961	9.315
5.2638	12.3593
5.2319	17.2407
5.2004	19.4686
5.1693	20.4927
5.1386	21.602
5.1082	21.9092
5.0782	22.6774
5.0485	22.5766
5.0192	22.6921
4.9902	22.6682
4.9616	23.2667
4.9332	25.1155
4.9052	25.0494
4.8776	23.0401
4.8502	21.2907
4.8231	21.3971
4.7963	21.2986
4.7699	21.2627
4.7437	23.8227
4.7178	26.6493
4.6922	27.3478
4.6668	27.3416
4.6418	27.1896
4.617	29.7354
4.5924	30.648
4.5681	31.2334
4.5441	30.8134
4.5203	30.798
4.4968	33.2907
4.4735	35.7983
4.4505	39.794
4.4277	44.951
4.4051	50.4167
4.3828	55.5095
4.3607	59.0622
4.3388	61.9784
4.3171	64.0169
4.2956	64.9068
4.2744	65.684
4.2534	66.818
4.2325	66.8326
4.2119	68.1098
4.1915	68.9972
4.1712	69.339
4.1512	69.6563
4.1313	69.7625
4.1117	70.0312
4.0922	70.1358
4.0729	70.2306
4.0538	70.1887
4.0349	70.1054
4.0161	70.2094
3.9976	70.1361
3.9792	70.2797
3.9609	70.2958
3.9428	70.3402
3.9249	70.2013
3.9072	69.9775
3.8896	69.681
3.8722	69.6667
3.8549	69.7984
3.8378	70.4382
3.8208	71.2121
3.804	71.9106
3.7873	72.5532
3.7708	73.1142
3.7544	73.4216
3.7382	73.8273
3.7221	74.0839
3.7061	74.292
3.6903	74.4339
3.6746	74.6974
3.659	75.1459
3.6436	75.2625
3.6283	75.5389
3.6131	75.5933
3.5981	75.6638
3.5832	75.7866
3.5684	75.7387
3.5537	75.7153
3.5391	75.5532
3.5247	75.1675
3.5104	74.366
3.4962	73.9525
3.4821	73.9341
3.4681	73.8168
3.4543	73.7193
3.4405	73.1486
3.4269	72.4243
3.4133	71.6139
3.3999	71.8225
3.3866	71.9657
3.3733	71.5809
3.3602	71.9258
3.3472	72.0143
3.3343	71.9318
3.3215	71.8986
3.3088	71.582
3.2961	71.2038
3.2836	70.8252
3.2712	70.4034
3.2588	69.9138
3.2466	69.5007
3.2345	68.894
3.2224	68.554
3.2104	67.8367
3.1985	67.4975
3.1867	67.0816
3.175	66.6925
3.1634	66.4741
3.1519	66.1888
3.1404	65.7527
3.129	65.6058
3.1178	65.1797
3.1065	64.9574
3.0954	64.7523
3.0844	64.79
3.0734	64.5761
3.0625	64.4576
3.0517	64.3672
3.041	64.3678
3.0303	64.3139
3.0197	64.3183
3.0092	63.9441
2.9987	63.8662
2.9884	63.8735
2.9781	63.7908
2.9678	63.6646
2.9577	63.5837
2.9476	63.2262
2.9376	63.2424
2.9276	63.1595
2.9177	63.1724
2.9079	63.181
2.8982	63.3944
2.8885	63.461
2.8789	63.4564
2.8693	63.5751
2.8598	63.691
2.8504	64.1065
2.841	64.1082
2.8317	64.5175
2.8224	64.7364
2.8133	64.8757
2.8041	65.86
2.7951	65.5506
2.786	66.482
2.7771	66.2643
2.7682	66.4749
2.7594	64.6366
2.7506	66.8757
2.7418	69.1182
2.7332	68.8772
2.7246	71.6377
2.716	70.7524
2.7075	70.1834
2.699	71.2855
2.6906	75.7885
2.6823	78.6951
2.674	80.5872
2.6657	84.2847
2.6575	82.1025
2.6494	82.3925
2.6413	82.9934
2.6332	83.6051
2.6252	83.7955
2.6173	85.0376
2.6094	84.2403
2.6015	84.1734
2.5937	86.2038
2.5859	84.467
2.5782	84.1442
2.5706	84.5086
2.5629	85.2868
2.5554	84.1723
2.5478	84.3321
2.5403	84.1954
2.5329	84.4335
2.5255	84.4733
2.5181	84.3191
2.5108	84.4331
2.5035	84.4218
2.4963	84.5614
2.4891	84.4914
2.482	84.5668
2.4749	84.6474
2.4678	84.8242
2.4608	84.6996
2.4538	84.7894
2.4468	84.8828
2.4399	84.8248
2.4331	85.0015
2.4262	84.9926
2.4194	85.3213
2.4127	85.0472
2.4059	85.1526
2.3993	85.2492
2.3926	85.1363
2.386	85.0986
2.3795	85.1034
2.3729	85.2679
2.3664	85.3326
2.36	85.3843
2.3535	85.2415
2.3471	85.3513
2.3408	85.6047
2.3345	85.3386
2.3282	85.532
2.3219	85.3211
2.3157	85.577
2.3095	85.6371
2.3034	85.6628
2.2972	85.7095
2.2911	85.7175
2.2851	85.7672
2.279	85.7416
2.2731	85.8518
2.2671	85.8322
2.2612	85.8186
2.2553	85.8521
2.2494	85.9077
2.2435	85.8183
2.2377	86.0031
2.232	86.0166
2.2262	85.6603
2.2205	85.7427
2.2148	85.5244
2.2091	84.814
2.2035	84.9699
2.1979	85.378
2.1923	85.3442
2.1868	85.3932
2.1812	85.5719
2.1758	85.6609
2.1703	85.6891
2.1649	85.4736
2.1595	85.8232
2.1541	85.9205
2.1487	85.9421
2.1434	86.2331
2.1381	86.1427
2.1328	85.9628
2.1275	86.3073
2.1223	86.285
2.1171	86.2454
2.112	86.2737
2.1068	86.1747
2.1017	86.283
2.0966	86.3681
2.0915	86.1952
2.0865	86.2347
2.0814	86.0917
2.0764	86.4888
2.0715	85.9915
2.0665	86.4065
2.0616	86.2133
2.0567	86.2775
2.0518	86.2716
2.0469	86.2285
2.0421	86.4594
2.0373	86.3962
2.0325	86.4484
2.0277	86.6291
2.0229	86.3577
2.0182	86.4193
2.0135	86.3952
2.0088	86.2612
2.0042	86.3949
