Name: Heulandite (Na,Ca)2-3Al3(Al,Si)2Si13O36.12H2O
Type: Mineral
Class: Silicate
Subclass: Tectosilicate
Particle Size: Coarse
Sample No.: heulan_2
Owner: JHU
Wavelength Range: TIR
Origin: Gobel, Oregon via Joe Taggart, USGS, Denver, Colorado.
Description: The sample is composed of 1 cm diameter, pearly, translucent crystals in a white, fine-grained groundmass. Crystals were separated by hand and appear to be pure heulandite. Particle size was 74-250 micrometers.(Zeolite Group) Original ASTER Spectral Library name was jhu.nicolet.mineral.silicate.tectosilicate.coarse.heulan2.spectrum.txt
Measurement: Bidirectional reflectance
X Units: Wavelength (micrometers)
Y Units: Reflectance (percent)
wavelength	value
25.0442	3.4434
24.3388	3.5349
23.6719	3.47
23.0407	3.7786
22.4422	4.6045
21.8741	5.4851
21.334	6.4358
20.8199	6.331
20.33	4.8828
19.8627	3.2544
19.4163	2.352
18.9896	2.1692
18.5812	1.5229
18.19	1.1758
17.815	1.1941
17.4551	1.2656
17.1094	1.3342
16.7772	1.4233
16.4576	1.4231
16.15	1.3127
15.8537	1.1597
15.568	1.062
15.2925	1.0813
15.0265	1.1494
14.7697	1.1904
14.5214	1.2388
14.2814	1.2974
14.0492	1.3394
13.8244	1.3249
13.6067	1.2627
13.3957	1.2087
13.1912	1.2126
12.9929	1.2451
12.8004	1.2634
12.6135	1.2483
12.432	1.2703
12.2557	1.3831
12.0843	1.5364
11.9176	1.6709
11.7555	1.7812
11.5977	1.8953
11.444	1.9844
11.2944	2.0923
11.1487	2.2107
11.0067	2.3435
10.8682	2.4932
10.7332	2.6394
10.6015	2.8296
10.473	3.1094
10.3476	3.4726
10.2251	3.8437
10.1056	4.2258
9.9887	4.6186
9.8746	4.9165
9.763	5.0593
9.6539	5.1753
9.5472	5.4558
9.4429	5.9695
9.3408	6.5202
9.2409	6.5535
9.1431	6.1721
9.0474	5.7048
8.9536	5.2912
8.8618	4.9736
8.7718	4.7322
8.6837	4.4707
8.5973	4.2209
8.5126	4.1579
8.4295	4.1868
8.3481	4.0959
8.2682	3.7668
8.1898	3.2097
8.1129	2.1936
8.0374	1.1055
7.9634	0.406
7.8906	0.1433
7.8192	0.1238
7.7491	0.1763
7.6802	0.2451
7.6126	0.3166
7.5461	0.3879
7.4807	0.4578
7.4165	0.5237
7.3534	0.5859
7.2914	0.6436
7.2303	0.6943
7.1703	0.7407
7.1113	0.7869
7.0533	0.8247
6.9962	0.863
6.94	0.8987
6.8847	0.9307
6.8302	0.9631
6.7767	0.988
6.7239	1.0124
6.672	1.0295
6.6209	1.0413
6.5705	1.0508
6.5209	1.0627
6.4721	1.0649
6.424	1.0571
6.3766	1.0488
6.3299	1.0198
6.2838	0.9834
6.2385	0.946
6.1937	0.9077
6.1496	0.8403
6.1062	0.7432
6.0633	0.6924
6.0211	0.7131
5.9794	0.7644
5.9383	0.8469
5.8978	0.9663
5.8578	1.115
5.8184	1.251
5.7794	1.3713
5.741	1.4629
5.7031	1.5271
5.6657	1.5784
5.6288	1.6179
5.5924	1.6577
5.5564	1.7009
5.5209	1.7539
5.4859	1.8203
5.4513	1.9031
5.4171	1.9873
5.3833	2.0708
5.35	2.1321
5.3171	2.1853
5.2846	2.2197
5.2524	2.2534
5.2207	2.2864
5.1893	2.3271
5.1584	2.3787
5.1277	2.4502
5.0975	2.54
5.0676	2.6396
5.038	2.7402
5.0088	2.8279
4.98	2.8999
4.9514	2.9512
4.9232	2.9805
4.8953	2.9963
4.8678	2.9995
4.8405	2.9954
4.8135	2.9893
4.7868	2.9858
4.7605	2.9853
4.7344	2.9858
4.7086	2.9846
4.6831	2.9812
4.6578	2.98
4.6328	2.9819
4.6081	2.9897
4.5837	3.009
4.5595	3.0393
4.5356	3.0835
4.5119	3.1426
4.4884	3.2156
4.4652	3.3057
4.4423	3.4145
4.4196	3.5413
4.3971	3.6872
4.3748	3.8486
4.3528	4.0242
4.331	4.2119
4.3094	4.4092
4.288	4.6111
4.2668	4.8164
4.2458	5.019
4.2251	5.2222
4.2045	5.4145
4.1841	5.6023
4.164	5.782
4.144	5.9524
4.1242	6.114
4.1046	6.2671
4.0852	6.4104
4.066	6.5412
4.047	6.6518
4.0281	6.7419
4.0094	6.8113
3.9909	6.8613
3.9725	6.8967
3.9544	6.9184
3.9363	6.9231
3.9185	6.9116
3.9008	6.8801
3.8833	6.8323
3.8659	6.7654
3.8487	6.6828
3.8316	6.5835
3.8147	6.4687
3.7979	6.344
3.7813	6.207
3.7648	6.0622
3.7485	5.9082
3.7323	5.7471
3.7162	5.5784
3.7003	5.4026
3.6845	5.2202
3.6689	5.0349
3.6534	4.8481
3.638	4.6594
3.6227	4.4709
3.6076	4.2834
3.5926	4.0976
3.5777	3.9145
3.563	3.7358
3.5484	3.5625
3.5338	3.3933
3.5195	3.2288
3.5052	3.0686
3.491	2.9126
3.477	2.7649
3.463	2.6238
3.4492	2.4905
3.4355	2.3655
3.4219	2.2478
3.4084	2.1379
3.395	2.0361
3.3817	1.9434
3.3685	1.8601
3.3554	1.7847
3.3425	1.7168
3.3296	1.6545
3.3168	1.5996
3.3041	1.5503
3.2915	1.5049
3.279	1.4661
3.2666	1.4292
3.2543	1.3962
3.2421	1.3682
3.23	1.342
3.218	1.3186
3.206	1.2974
3.1942	1.2786
3.1824	1.261
3.1707	1.2444
3.1591	1.2275
3.1476	1.2122
3.1362	1.1978
3.1249	1.1831
3.1136	1.1702
3.1024	1.1592
3.0913	1.1511
3.0803	1.1453
3.0694	1.1406
3.0585	1.1365
3.0477	1.1318
3.037	1.1257
3.0264	1.1208
3.0158	1.1155
3.0053	1.1091
2.9949	1.1018
2.9845	1.0945
2.9743	1.0864
2.9641	1.0791
2.9539	1.0725
2.9439	1.0659
2.9339	1.0605
2.9239	1.0542
2.9141	1.0491
2.9043	1.0444
2.8946	1.04
2.8849	1.0364
2.8753	1.032
2.8658	1.0273
2.8563	1.0239
2.8469	1.019
2.8375	1.0151
2.8282	1.0122
2.819	1.009
2.8098	1.0071
2.8007	1.0034
2.7917	1.0012
2.7827	0.9958
2.7738	0.9888
2.7649	0.9802
2.7561	0.9734
2.7473	0.9866
2.7386	1.0134
2.7299	1.0923
2.7213	1.2107
2.7128	1.3896
2.7043	1.6045
2.6959	1.8284
2.6875	2.0671
2.6791	2.2886
2.6709	2.4932
2.6626	2.7075
2.6545	2.8982
2.6463	3.0657
2.6382	3.2129
2.6302	3.3193
2.6222	3.4311
2.6143	3.521
2.6064	3.5759
2.5986	3.6372
2.5908	3.6829
2.583	3.7212
2.5753	3.759
2.5677	3.7983
2.5601	3.8354
2.5525	3.8889
2.545	3.9438
2.5375	4.0095
2.5301	4.0828
2.5227	4.1643
2.5154	4.2527
2.5081	4.3494
2.5008	4.4499
2.4936	4.5532
2.4864	4.6548
2.4793	4.7532
2.4722	4.8469
2.4651	4.9382
2.4581	5.0359
2.4511	5.1418
2.4442	5.2654
2.4373	5.4101
2.4305	5.5766
2.4236	5.771
2.4169	5.9875
2.4101	6.2287
2.4034	6.4914
2.3967	6.7724
2.3901	7.0693
2.3835	7.3794
2.377	7.6985
2.3704	8.0256
2.364	8.355
2.3575	8.6811
2.3511	8.9927
2.3447	9.2866
2.3384	9.5591
2.3321	9.8083
2.3258	10.0354
2.3195	10.2434
2.3133	10.4292
2.3071	10.5957
2.301	10.7456
2.2949	10.8772
2.2888	11.0005
2.2828	11.1108
2.2767	11.2116
2.2708	11.2986
2.2648	11.3808
2.2589	11.4487
2.253	11.5058
2.2471	11.552
2.2413	11.5849
2.2355	11.6052
2.2297	11.6174
2.224	11.6198
2.2183	11.6179
2.2126	11.6086
2.207	11.5935
2.2013	11.5766
2.1957	11.5554
2.1902	11.5266
2.1846	11.5036
2.1791	11.4734
2.1736	11.4446
2.1682	11.4079
2.1628	11.3703
2.1574	11.3276
2.152	11.2876
2.1466	11.2451
2.1413	11.196
2.136	11.1496
2.1308	11.1028
2.1255	11.0476
2.1203	10.9948
2.1151	10.935
2.11	10.875
2.1048	10.8125
2.0997	10.7519
2.0946	10.6909
2.0895	10.636
2.0845	10.5783
2.0795	10.5273
