Name: Kernite  Na2B4O6(OH)2 * 3H2O
Type: Mineral
Class: Borate
Subclass: None
Particle Size: Coarse
Sample No.: None
Owner: USGS
Wavelength Range: All
Origin: Boron, California
Description: Kernite from Boron, California.Sample was Unsieved coarse powder. Original ASTER Spectral Library name was usgs.perknic.mineral.borate.none.coarse.kernitc.spectrum.txt
Measurement: Directional Hemispherical Reflectance
X Units: Wavelength (micrometers)
Y Units: Reflectance (percent)
wavelength	value
13.9	3.646
13.644	3.193
13.398	3.327
13.16	3.348
12.93	3.306
12.708	3.492
12.494	3.935
12.287	3.914
12.086	4.223
11.892	4.058
11.704	4.069
11.522	3.79
11.346	3.378
11.175	3.584
11.009	4.882
10.848	5.871
10.691	5.912
10.539	6.695
10.391	6.602
10.247	7.344
10.108	7.9
9.972	5.861
9.839	9.188
9.71	10.31
9.585	11.804
9.462	10.279
9.343	7.066
9.226	4.171
9.113	2.76
9.002	1.978
8.894	1.071
8.789	0.803
8.686	0.927
8.585	0.989
8.487	0.886
8.391	1.164
8.297	1.545
8.205	1.936
8.115	2.276
8.027	2.637
7.941	2.977
7.857	3.244
7.774	3.44
7.694	3.512
7.614	3.43
7.537	3.862
7.461	4.82
7.387	5.15
7.314	5.943
7.242	7.529
7.172	8.188
7.103	7.818
7.036	6.448
6.97	4.717
6.905	2.647
6.841	1.257
6.778	1.092
6.717	0.814
6.657	0.618
6.597	0.587
6.539	0.628
6.482	0.762
6.426	0.845
6.37	0.875
6.316	1.02
6.263	1.112
6.21	1.154
6.159	1.195
6.108	1.277
6.058	1.339
6.009	1.36
5.96	1.452
5.913	1.432
5.866	1.401
5.82	1.545
5.775	2.009
5.73	2.369
5.686	2.853
5.643	3.337
5.6	3.811
5.558	4.254
5.517	4.656
5.476	5.088
5.436	5.48
5.396	5.809
5.357	6.17
5.319	6.53
5.281	6.819
5.243	6.829
5.206	6.788
5.17	6.952
5.134	7.097
5.099	7.159
5.064	7.179
5.03	7.148
4.996	7.107
4.962	6.952
4.929	6.757
4.897	6.53
4.865	6.345
4.833	6.314
4.802	6.17
4.771	5.892
4.74	5.624
4.71	5.438
4.68	5.284
4.651	5.243
4.622	5.068
4.593	4.882
4.565	4.676
4.537	4.583
4.509	4.573
4.482	4.656
4.455	4.645
4.428	4.728
4.402	4.893
4.376	5.047
4.35	5.253
4.325	5.418
4.3	5.511
4.275	5.789
4.251	5.799
4.226	6.613
4.202	6.757
4.179	7.179
4.155	7.498
4.132	7.715
4.109	7.787
4.086	7.797
4.064	7.818
4.042	8.188
4.02	8.858
3.998	9.394
3.977	9.836
3.956	10.094
3.935	10.228
3.914	10.156
3.893	10.125
3.873	10.218
3.853	10.187
3.833	10.084
3.813	9.775
3.794	9.569
3.774	9.579
3.755	9.517
3.736	9.414
3.717	9.105
3.699	8.858
3.68	8.425
3.662	8.024
3.644	7.581
3.626	7.241
3.609	7.066
3.591	6.819
3.574	6.571
3.557	6.386
3.54	6.211
3.523	5.974
3.506	5.789
3.49	5.655
3.473	5.48
3.457	5.294
3.441	5.119
3.425	4.851
3.409	4.542
3.394	4.295
3.378	3.852
3.363	3.646
3.348	3.368
3.333	3.162
3.318	3.049
3.303	2.925
3.288	2.874
3.274	2.853
3.259	2.729
3.245	2.688
3.231	2.709
3.217	2.482
3.203	2.328
3.189	2.348
3.176	2.225
3.162	2.163
3.149	2.019
3.135	1.978
3.122	1.957
3.109	1.916
3.096	1.854
3.083	1.864
3.07	1.73
3.058	1.833
3.045	1.617
3.033	1.514
3.02	1.37
3.008	1.36
2.996	1.185
2.984	1.081
2.972	0.927
2.96	0.896
2.948	0.999
2.937	1.112
2.925	0.917
2.913	0.865
2.902	0.834
2.891	0.917
2.879	1.092
2.868	1.246
2.857	1.236
2.846	1.401
2.835	1.617
2.825	1.483
2.814	0.762
2.803	0.814
2.793	1.442
2.782	2.091
2.772	3.131
2.761	4.625
2.751	5.665
2.741	7.684
2.731	10.218
2.721	12.896
2.711	15.007
2.701	16.758
2.691	18.035
2.681	19.869
2.672	21.445
2.662	22.845
2.653	24.102
2.643	24.957
2.634	25.832
2.624	26.481
2.615	27.45
2.606	27.594
2.597	27.995
2.588	28.067
2.579	27.686
2.57	26.492
2.561	25.853
2.552	25.781
2.543	25.956
2.535	26.224
2.526	26.595
2.517	26.461
2.509	26.687
2.5	26.667
2.486	26.412
2.472	26.435
2.458	26.78
2.444	26.856
2.43	27.356
2.416	28.552
2.402	29.806
2.388	31.662
2.374	34
2.36	35.507
2.346	36.821
2.332	38.046
2.318	38.544
2.304	37.818
2.29	36.581
2.276	35.92
2.262	35.212
2.248	34.625
2.234	32.932
2.22	30.887
2.206	27.643
2.192	25.109
2.178	30.569
2.164	33.715
2.15	34.47
2.136	35.049
2.122	35.134
2.108	34.433
2.094	33.752
2.08	32.783
2.066	31.127
2.052	29.256
2.038	29.114
2.024	28.672
2.01	27.459
1.996	26.862
1.982	26.498
1.968	27.078
1.954	29.183
1.94	32.257
1.926	35.354
1.912	38.603
1.898	42.531
1.884	45.514
1.87	46.774
1.856	47.628
1.842	47.544
1.828	47.212
1.814	46.71
1.8	46.442
1.786	46.532
1.772	47.152
1.758	47.632
1.744	48.016
1.73	48.525
1.716	48.886
1.702	49.151
1.688	49.225
1.674	49.316
1.66	49.168
1.646	48.725
1.632	48.112
1.618	47.35
1.604	46.784
1.59	46.468
1.576	46.327
1.562	46.227
1.548	46.246
1.534	46.273
1.52	45.445
1.506	45.003
1.492	45.276
1.478	46.282
1.464	47.411
1.45	42.743
1.436	46.704
1.422	56.367
1.408	61.41
1.394	64.04
1.38	64.798
1.366	65.416
1.352	66.072
1.338	66.647
1.324	66.17
1.31	66.899
1.296	67.387
1.282	67.183
1.268	66.357
1.254	66.607
1.24	67.393
1.226	67.929
1.212	68.442
1.198	69.049
1.184	70.173
1.17	71.158
1.156	71.517
1.142	71.974
1.128	72.09
1.114	72.204
1.1	72.396
1.086	72.368
1.072	72.418
1.058	72.427
1.044	72.119
1.03	72.037
1.016	71.594
1.002	71.034
0.988	69.605
0.974	72.335
0.96	73.11
0.946	73.311
0.932	73.322
0.918	73.287
0.904	73.482
0.89	73.184
0.876	73.563
0.862	73.576
0.848	73.508
0.834	73.594
0.82	73.625
0.806	73.648
0.792	73.6
0.778	73.511
0.764	73.29
0.75	73.508
0.736	73.614
0.722	73.669
0.708	73.732
0.694	73.777
0.68	73.867
0.666	73.96
0.652	74.018
0.638	74.103
0.624	74.061
0.61	74.134
0.596	74.117
0.582	74.093
0.568	74.04
0.554	73.993
0.54	73.872
0.526	73.723
0.512	73.612
0.498	73.544
0.484	73.336
0.47	73.259
0.456	73.263
0.442	73.138
0.428	73.097
0.414	73.178
0.4	73.348
