Name: Howlite Ca_2B_5SiO_9(OH)_5
Type: Mineral
Class: Borate
Subclass: None
Particle Size: Fine
Sample No.: B-5A
Owner: JPL
Wavelength Range: VSWIR
Origin: USA, California, San Gabriel Mountains, Tick Canyon
Description: Particle size was 0-45um.Collected by Burminco Original ASTER Spectral Library name was jpl.beckman.mineral.borate.none.fine.b05.spectrum.txt
Measurement: Hemispherical reflectance
X Units: Wavelength (micrometers)
Y Units: Reflectance (percent)
wavelength	value
0.4	92.85
0.403	93.5
0.406	93.38
0.409	94.15
0.412	94.09
0.415	93.97
0.418	94.5
0.421	94.44
0.424	94.74
0.427	94.8
0.43	94.98
0.433	94.86
0.436	95.16
0.439	95.45
0.442	95.16
0.445	95.8
0.448	95.45
0.451	95.69
0.454	96.05
0.457	96.05
0.46	96.12
0.463	96.43
0.466	96.49
0.469	96.2
0.472	96.02
0.475	96.51
0.478	96.58
0.481	96.81
0.484	96.65
0.487	96.29
0.49	97.3
0.493	96.9
0.496	97.19
0.499	97.38
0.502	97.08
0.505	97.2
0.508	97.38
0.511	97.08
0.514	97.44
0.517	97.26
0.52	97.32
0.523	97.5
0.526	97.56
0.529	97.68
0.532	97.8
0.535	97.8
0.538	97.92
0.541	97.92
0.544	97.98
0.547	98.45
0.55	97.86
0.553	97.74
0.556	97.98
0.559	97.8
0.562	98.21
0.565	98.21
0.568	98.62
0.571	98.39
0.574	98.21
0.577	98.62
0.58	98.39
0.583	97.68
0.586	98.57
0.589	98.21
0.592	98.09
0.595	98.39
0.598	97.92
0.601	98.39
0.604	98.62
0.607	98.68
0.61	98.86
0.613	98.98
0.616	98.8
0.619	99.4
0.622	98.74
0.625	98.8
0.628	99.1
0.631	98.98
0.634	99.04
0.637	99.04
0.64	98.51
0.643	99.04
0.646	99.04
0.649	98.86
0.652	99.28
0.655	99.16
0.658	98.8
0.661	99.51
0.664	98.98
0.667	99.1
0.67	99.16
0.673	98.98
0.676	99.1
0.679	99.28
0.682	99.34
0.685	99.16
0.688	99.4
0.691	98.86
0.694	99.63
0.697	99.28
0.7	99.22
0.703	98.8
0.706	99.1
0.709	99.4
0.712	98.62
0.715	99.1
0.718	99.22
0.721	98.74
0.724	99.1
0.727	98.98
0.73	98.98
0.733	99.28
0.736	98.86
0.739	98.74
0.742	98.98
0.745	98.51
0.748	98.98
0.751	99.1
0.754	98.57
0.757	98.8
0.76	98.74
0.763	98.62
0.766	98.62
0.769	98.8
0.772	98.45
0.775	99.04
0.778	98.68
0.781	98.68
0.784	98.62
0.787	98.51
0.79	98.98
0.793	98.8
0.796	98.57
0.799	97.92
0.808	97.8
0.82	97.8
0.832	97.86
0.844	97.86
0.856	97.98
0.868	97.92
0.88	97.92
0.892	97.86
0.904	97.8
0.916	97.8
0.928	97.74
0.94	97.62
0.952	97.44
0.964	97.44
0.976	97.14
0.988	97.14
1	97.62
1.012	97.8
1.024	97.92
1.036	97.92
1.048	97.98
1.06	98.04
1.072	98.04
1.084	97.98
1.096	98.04
1.108	98.09
1.12	98.04
1.132	98.09
1.144	97.98
1.156	98.08
1.168	97.88
1.18	97.74
1.192	97.84
1.204	97.76
1.216	97.34
1.228	96.93
1.24	96.87
1.252	96.87
1.264	96.9
1.276	97.06
1.288	97.15
1.3	97.07
1.312	96.4
1.324	95.54
1.336	94.28
1.348	94.67
1.36	94.91
1.372	94.31
1.384	93.13
1.396	90.66
1.408	88.42
1.42	86.8
1.432	82.38
1.444	80.99
1.456	87.2
1.468	87.26
1.48	87.79
1.492	88.03
1.504	87.61
1.516	87.14
1.528	88.85
1.54	90.03
1.552	90.39
1.564	90.21
1.576	89.57
1.588	88.97
1.6	88.39
1.612	87.89
1.624	87.51
1.636	87.49
1.648	87.58
1.66	87.75
1.672	88.08
1.684	88.3
1.696	88.62
1.708	88.79
1.72	89.15
1.732	89.51
1.744	89.79
1.756	89.79
1.768	90.09
1.78	90.33
1.792	90.33
1.804	90.3
1.816	90.33
1.828	90.42
1.84	90.27
1.852	90.2
1.864	89.99
1.876	89.8
1.888	89.59
1.9	89.46
1.912	89.26
1.924	89.13
1.936	88.7
1.948	88.49
1.96	88.32
1.972	87.96
1.984	87.56
1.996	86.72
2.008	86.09
2.02	85.45
2.032	85.14
2.044	85.12
2.056	83.86
2.068	80.63
2.08	75.74
2.092	70.96
2.104	66.78
2.116	62.73
2.128	60.77
2.14	61.09
2.152	60.83
2.164	61.3
2.176	63.84
2.188	66.52
2.2	67.78
2.212	67.39
2.224	66.16
2.236	65.43
2.248	66.27
2.26	68.18
2.272	69.91
2.284	70.58
2.296	70.98
2.308	71.96
2.32	73.25
2.332	73.93
2.344	73.67
2.356	72.77
2.368	71.64
2.38	69.57
2.392	66.23
2.404	61.75
2.416	57.21
2.428	52.96
2.44	49.63
2.452	48.13
2.464	49.26
2.476	52.16
2.488	55.86
2.5	59
