Name: Anhydrite CaSO_4
Type: Mineral
Class: Sulfate
Subclass: None
Particle Size: Coarse
Sample No.: SO-1A
Owner: JPL
Wavelength Range: VSWIR
Origin: Canada, Nova Scotia.
Description: Particle size was 125-500um.Collected by:  Ward's Original ASTER Spectral Library name was jpl.perkin.mineral.sulfate.none.coarse.so01a.spectrum.txt
Measurement: Hemispherical reflectance
X Units: Wavelength (micrometers)
Y Units: Reflectance (percent)
wavelength	value
2.5	46.1203
2.494	46.0043
2.488	46.1533
2.482	46.1415
2.476	46.314
2.47	46.5838
2.464	46.6509
2.458	47.0359
2.452	47.3032
2.446	47.7508
2.44	48.0871
2.434	48.5799
2.428	48.9267
2.422	49.5105
2.416	50.1332
2.41	50.7802
2.404	51.5513
2.398	52.546
2.392	53.5944
2.386	54.5553
2.38	55.4429
2.374	56.4114
2.368	57.0646
2.362	57.732
2.356	58.4099
2.35	58.891
2.344	59.5133
2.338	60.0812
2.332	60.5972
2.326	61.0783
2.32	61.4023
2.314	61.649
2.308	61.8244
2.302	61.9855
2.296	62.0302
2.29	62.0572
2.284	61.988
2.278	61.8404
2.272	61.6801
2.266	61.6327
2.26	61.7222
2.254	61.8567
2.248	61.9279
2.242	61.8893
2.236	61.763
2.23	61.4342
2.224	61.0461
2.218	60.7281
2.212	60.8788
2.206	61.143
2.2	61.4509
2.194	61.5891
2.188	61.7529
2.182	61.9326
2.176	62.1645
2.17	62.3784
2.164	62.6858
2.158	62.8782
2.152	63.1571
2.146	63.3024
2.14	63.4695
2.134	63.4715
2.128	63.5398
2.122	63.5592
2.116	63.5541
2.11	63.3773
2.104	63.3291
2.098	63.3168
2.092	63.433
2.086	63.4859
2.08	63.5113
2.074	63.4817
2.068	63.407
2.062	63.2872
2.056	63.2721
2.05	62.9842
2.044	62.7281
2.038	62.4065
2.032	61.8613
2.026	61.2929
2.02	60.591
2.014	59.66
2.008	58.4684
2.002	56.847
1.996	54.8269
1.99	53.0295
1.984	51.7777
1.978	50.7651
1.972	49.986
1.966	49.5386
1.96	48.8206
1.954	47.6604
1.948	46.8551
1.942	46.6967
1.936	47.0715
1.93	48.2428
1.924	49.9146
1.918	51.8136
1.912	53.8855
1.906	56.1619
1.9	58.7958
1.894	61.1893
1.888	63.4357
1.882	65.3597
1.876	66.8214
1.87	68.1423
1.864	69.081
1.858	69.6354
1.852	70.0417
1.846	70.3265
1.84	70.5274
1.834	70.5323
1.828	70.5594
1.822	70.5464
1.816	70.4794
1.81	70.4438
1.804	70.3266
1.798	70.2509
1.792	69.9895
1.786	69.7302
1.78	69.5161
1.774	69.4358
1.768	69.3753
1.762	69.2384
1.756	69.1144
1.75	68.9952
1.744	69.2061
1.738	69.6364
1.732	70.0445
1.726	70.4771
1.72	70.9057
1.714	71.2219
1.708	71.5166
1.702	71.5974
1.696	71.7367
1.69	71.8464
1.684	71.8417
1.678	71.9201
1.672	71.7909
1.666	71.9179
1.66	71.7656
1.654	71.7738
1.648	71.7281
1.642	71.6151
1.636	71.6167
1.63	71.5141
1.624	71.4188
1.618	71.2862
1.612	71.1307
1.606	71.0138
1.6	70.8771
1.594	70.6969
1.588	70.5004
1.582	70.2309
1.576	70.1164
1.57	69.8778
1.564	69.5859
1.558	69.2249
1.552	68.7786
1.546	68.2513
1.54	67.8221
1.534	67.8103
1.528	67.8355
1.522	67.7158
1.516	67.5354
1.51	67.2245
1.504	66.7478
1.498	66.0619
1.492	65.4208
1.486	65.3783
1.48	65.3623
1.474	65.051
1.468	64.8394
1.462	64.5405
1.456	63.9417
1.45	62.9884
1.444	63.087
1.438	64.2753
1.432	65.1079
1.426	65.6616
1.42	66.4896
1.414	67.2024
1.408	68.1313
1.402	68.885
1.396	69.5814
1.39	69.9943
1.384	70.1582
1.378	70.3342
1.372	70.4974
1.366	70.549
1.36	70.5606
1.354	70.6027
1.348	70.7003
1.342	70.7697
1.336	70.8364
1.33	70.7654
1.324	70.8438
1.318	70.8551
1.312	70.8002
1.306	70.7844
1.3	70.7729
1.294	70.7313
1.288	70.7267
1.282	70.6605
1.276	70.565
1.27	70.5194
1.264	70.4703
1.258	70.2943
1.252	70.2363
1.246	70.1291
1.24	70.0836
1.234	69.9604
1.228	69.9218
1.222	69.7804
1.216	69.7124
1.21	69.6042
1.204	69.5245
1.198	69.4543
1.192	69.4626
1.186	69.3978
1.18	69.3424
1.174	69.3196
1.168	69.2902
1.162	69.3232
1.156	69.3574
1.15	69.3164
1.144	69.3324
1.138	69.3393
1.132	69.2773
1.126	69.1604
1.12	69.2286
1.114	69.0869
1.108	69.0294
1.102	69.0142
1.096	69.031
1.09	68.996
1.084	68.8883
1.078	68.7764
1.072	68.7744
1.066	68.7707
1.06	68.6734
1.054	68.6666
1.048	68.618
1.042	68.5574
1.036	68.4315
1.03	68.4866
1.024	68.4646
1.018	68.3805
1.012	68.3088
1.006	68.2447
1	68.197
0.994	68.1751
0.988	68.1893
0.982	68.1351
0.976	68.0971
0.97	68.0972
0.964	68.0499
0.958	68.0316
0.952	68.007
0.946	68.0383
0.94	67.9755
0.934	67.9353
0.928	67.8954
0.922	67.8627
0.916	67.8231
0.91	67.7449
0.904	67.816
0.898	67.7721
0.892	67.7108
0.886	67.6881
0.88	67.6054
0.874	67.5395
0.868	67.5658
0.862	67.4847
0.856	67.369
0.85	67.2884
0.844	67.196
0.838	67.1016
0.832	67.0647
0.826	66.9632
0.82	66.8709
0.814	66.7457
0.808	66.6197
0.802	66.51
0.796	66.2765
0.79	66.0335
0.784	65.7866
0.778	65.5589
0.772	65.2535
0.766	64.8996
0.76	64.5068
0.754	64.0773
0.748	63.6042
0.742	63.0574
0.736	62.5493
0.73	61.969
0.724	61.375
0.718	60.846
0.712	60.3487
0.706	59.8632
0.7	59.3951
0.694	58.8969
0.688	58.4115
0.682	57.9815
0.676	57.5271
0.67	57.0979
0.664	56.6612
0.658	56.2339
0.652	55.8756
0.646	55.4975
0.64	55.1331
0.634	54.7903
0.628	54.4617
0.622	54.2052
0.616	54.0073
0.61	53.8586
0.604	53.7415
0.598	53.6758
0.592	53.6524
0.586	53.6069
0.58	53.5955
0.574	53.5628
0.568	53.5415
0.562	53.538
0.556	53.5093
0.55	53.5154
0.544	53.4807
0.538	53.4592
0.532	53.4178
0.526	53.3792
0.52	53.3324
0.514	53.2704
0.508	53.1585
0.502	53.0192
0.496	52.8483
0.49	52.6233
0.484	52.3866
0.478	52.1719
0.472	51.89
0.466	51.6126
0.46	51.3004
0.454	50.9408
0.448	50.5697
0.442	50.1451
0.436	49.7335
0.43	49.284
0.424	48.8098
0.418	48.3378
0.412	47.8351
0.406	47.3441
0.4	46.7985
