Name: Tremolite Ca2(Mg, Fe+2)5Si8O22(OH)2
Type: Mineral
Class: Silicate
Subclass: Inosilicate
Particle Size: Solid
Sample No.: tremol_2
Owner: JHU
Wavelength Range: TIR
Origin: Canada via the Smithsonian (sample no. NMNH 117611)
Description: The sample consisted of a single 21.41 g piece of euhedral crystal, translucent deep brown in color. A very small amount of calcite contamination was removed with HCl.  Microscopic examination showed the sample to be virtually all pure, clean tremolite, with a very small amount (<1%) of low efractive index impurity. Sample had cleavage face. (Chain Silicates); (Amphibole Group) Original ASTER Spectral Library name was jhu.nicolet.mineral.silicate.inosilicate.solid.tremol2.spectrum.txt
Measurement: Bidirectional reflectance
X Units: Wavelength (micrometers)
Y Units: Reflectance (percent)
wavelength	value
25.0442	23.9726
24.3388	24.54
23.6719	27.3486
23.0407	30.7284
22.4422	37.4237
21.8741	43.9325
21.334	37.2401
20.8199	33.4081
20.33	38.8158
19.8627	45.3212
19.4163	45.8602
18.9896	48.1847
18.5812	54.0753
18.19	46.965
17.815	42.0822
17.4551	38.411
17.1094	25.4911
16.7772	12.4572
16.4576	9.4873
16.15	10.1377
15.8537	10.6841
15.568	11.8479
15.2925	13.1106
15.0265	14.7483
14.7697	12.0278
14.5214	11.749
14.2814	11.8579
14.0492	12.3235
13.8244	12.4834
13.6067	13.6035
13.3957	14.6428
13.1912	13.844
12.9929	12.5945
12.8004	13.1987
12.6135	13.7553
12.432	14.2783
12.2557	14.7866
12.0843	15.3881
11.9176	16.0932
11.7555	16.7583
11.5977	17.4321
11.444	18.4282
11.2944	19.894
11.1487	21.489
11.0067	23.4108
10.8682	25.2895
10.7332	24.7958
10.6015	26.4296
10.473	33.4662
10.3476	40.4852
10.2251	46.5609
10.1056	51.7206
9.9887	52.3475
9.8746	47.4579
9.763	37.7611
9.6539	31.8415
9.5472	33.2663
9.4429	36.6352
9.3408	38.0185
9.2409	39.5768
9.1431	37.2553
9.0474	32.3637
8.9536	29.9775
8.8618	28.5341
8.7718	30.6293
8.6837	34.9972
8.5973	32.3722
8.5126	22.4223
8.4295	14.1196
8.3481	7.6821
8.2682	2.8071
8.1898	2.7864
8.1129	3.582
8.0374	4.2617
7.9634	4.8347
7.8906	5.3281
7.8192	5.7847
7.7491	6.1487
7.6802	6.4729
7.6126	6.7595
7.5461	6.9971
7.4807	7.2239
7.4165	7.4287
7.3534	7.6052
7.2914	7.7551
7.2303	7.896
7.1703	8.0115
7.1113	8.144
7.0533	8.2468
6.9962	8.3269
6.94	8.4026
6.8847	8.4853
6.8302	8.5532
6.7767	8.6172
6.7239	8.6697
6.672	8.727
6.6209	8.7793
6.5705	8.8203
6.5209	8.9006
6.4721	8.935
6.424	8.9602
6.3766	9.0046
6.3299	9.0649
6.2838	9.1069
6.2385	9.1484
6.1937	9.1557
6.1496	9.206
6.1062	9.2058
6.0633	9.2619
6.0211	9.2805
5.9794	9.2676
5.9383	9.219
5.8978	9.2163
5.8578	9.2365
5.8184	9.2341
5.7794	9.3364
5.741	9.4204
5.7031	9.4228
5.6657	9.4128
5.6288	9.4219
5.5924	9.4397
5.5564	9.4536
5.5209	9.4699
5.4859	9.5146
5.4513	9.5605
5.4171	9.5876
5.3833	9.6303
5.35	9.6599
5.3171	9.6887
5.2846	9.7148
5.2524	9.7326
5.2207	9.7485
5.1893	9.7304
5.1584	9.7141
5.1277	9.695
5.0975	9.6823
5.0676	9.6606
5.038	9.6582
5.0088	9.6753
4.98	9.6924
4.9514	9.7014
4.9232	9.7251
4.8953	9.7522
4.8678	9.7827
4.8405	9.8095
4.8135	9.8503
4.7868	9.8862
4.7605	9.914
4.7344	9.9509
4.7086	10.0239
4.6831	10.0429
4.6578	10.0595
4.6328	10.1189
4.6081	10.1762
4.5837	10.2478
4.5595	10.3215
4.5356	10.4018
4.5119	10.4841
4.4884	10.5779
4.4652	10.6665
4.4423	10.7119
4.4196	10.7724
4.3971	10.823
4.3748	10.852
4.3528	10.8794
4.331	10.896
4.3094	10.8911
4.288	10.9155
4.2668	10.9404
4.2458	10.9516
4.2251	10.9648
4.2045	10.9663
4.1841	10.9863
4.164	11.0027
4.144	11.01
4.1242	11.0114
4.1046	11.0288
4.0852	11.0415
4.066	11.0493
4.047	11.0537
4.0281	11.0591
4.0094	11.0537
3.9909	11.06
3.9725	11.0713
3.9544	11.0727
3.9363	11.0739
3.9185	11.0798
3.9008	11.0776
3.8833	11.0813
3.8659	11.0761
3.8487	11.0727
3.8316	11.0742
3.8147	11.0683
3.7979	11.0605
3.7813	11.0464
3.7648	11.0342
3.7485	11.0278
3.7323	11.0171
3.7162	10.997
3.7003	10.9717
3.6845	10.9367
3.6689	10.9106
3.6534	10.9052
3.638	10.8945
3.6227	10.852
3.6076	10.8374
3.5926	10.8257
3.5777	10.7888
3.563	10.7612
3.5484	10.726
3.5338	10.665
3.5195	10.5927
3.5052	10.5029
3.491	10.5427
3.477	10.5385
3.463	10.5127
3.4492	10.4384
3.4355	10.3879
3.4219	10.28
3.4084	10.3095
3.395	10.3396
3.3817	10.3247
3.3685	10.3779
3.3554	10.3525
3.3425	10.2954
3.3296	10.2632
3.3168	10.2434
3.3041	10.2026
3.2915	10.1858
3.279	10.1379
3.2666	10.0788
3.2543	10.0227
3.2421	10.009
3.23	9.9646
3.218	9.9502
3.206	9.9299
3.1942	9.8906
3.1824	9.842
3.1707	9.7849
3.1591	9.7427
3.1476	9.6938
3.1362	9.6382
3.1249	9.5871
3.1136	9.5415
3.1024	9.5078
3.0913	9.4719
3.0803	9.4433
3.0694	9.395
3.0585	9.3664
3.0477	9.3489
3.037	9.3037
3.0264	9.2607
3.0158	9.2287
3.0053	9.1894
2.9949	9.177
2.9845	9.1684
2.9743	9.1162
2.9641	9.0698
2.9539	9.0498
2.9439	9.0151
2.9339	8.9961
2.9239	8.9565
2.9141	8.9219
2.9043	8.9045
2.8946	8.8789
2.8849	8.8459
2.8753	8.8305
2.8658	8.8147
2.8563	8.8127
2.8469	8.7842
2.8375	8.7629
2.8282	8.7373
2.819	8.719
2.8098	8.7168
2.8007	8.7104
2.7917	8.6924
2.7827	8.6692
2.7738	8.6865
2.7649	8.6135
2.7561	8.5676
2.7473	8.5657
2.7386	8.3144
2.7299	7.9446
2.7213	7.8222
2.7128	8.0097
2.7043	7.7251
2.6959	7.6782
2.6875	7.9697
2.6791	8.3779
2.6709	8.8745
2.6626	9.123
2.6545	9.1025
2.6463	9.0512
2.6382	9.042
2.6302	8.998
2.6222	8.9775
2.6143	8.9389
2.6064	8.8652
2.5986	8.8481
2.5908	8.8052
2.583	8.7842
2.5753	8.768
2.5677	8.7207
2.5601	8.6665
2.5525	8.6274
2.545	8.622
2.5375	8.6328
2.5301	8.622
2.5227	8.6118
2.5154	8.5469
2.5081	8.542
2.5008	8.5298
2.4936	8.4756
2.4864	8.4902
2.4793	8.4321
2.4722	8.3989
2.4651	8.372
2.4581	8.3633
2.4511	8.372
2.4442	8.3183
2.4373	8.3135
2.4305	8.3125
2.4236	8.3095
2.4169	8.2832
2.4101	8.3271
2.4034	8.2637
2.3967	8.1494
2.3901	8.0141
2.3835	7.9551
2.377	7.895
2.3704	8.0508
2.364	8.1177
2.3575	8.2095
2.3511	8.2246
2.3447	8.3242
2.3384	8.2832
2.3321	8.2295
2.3258	8.1172
2.3195	7.9092
2.3133	7.7304
2.3071	7.8603
2.301	8.0654
2.2949	8.1631
2.2888	8.2871
2.2828	8.3349
2.2767	8.4287
2.2708	8.4844
2.2648	8.5195
2.2589	8.5517
2.253	8.5752
2.2471	8.5947
2.2413	8.6513
2.2355	8.6767
2.2297	8.748
2.224	8.6455
2.2183	8.7392
2.2126	8.7178
2.207	8.6953
2.2013	8.7236
2.1957	8.7353
2.1902	8.789
2.1846	8.7988
2.1791	8.7636
2.1736	8.8291
2.1682	8.8301
2.1628	8.8261
2.1574	8.8222
2.152	8.7988
2.1466	8.8281
2.1413	8.8125
2.136	8.8496
2.1308	8.8125
2.1255	8.8281
2.1203	8.8457
2.1151	8.9179
2.11	8.8906
2.1048	8.8984
2.0997	8.9082
2.0946	8.9336
2.0895	8.958
2.0845	8.9345
2.0795	8.9228
