Name: Talc Mg3Si4O10(OH)2
Type: Mineral
Class: Silicate
Subclass: Phyllosilicate
Particle Size: Fine
Sample No.: talc_1
Owner: JHU
Wavelength Range: TIR
Origin: Feiser Mine, Ruby Mountains, Montana, USA via Jim Crowley,USGS
Description: The hand sample was massive, compact, translucent, and light green in color.  Under the microscope, sample was cryptocrystalline and appeared pure.  XRD analysis indicates pure talc.(Sheets silicates);  (Talc/Pyrophyllite Group)Sample particle size was less than 2 Micrometers. Original ASTER Spectral Library name was jhu.nicolet.mineral.silicate.phyllosilicate.powder.talc1.spectrum.txt
Measurement: Transmission
X Units: Wavelength (micrometers)
Y Units: Transmittance (percent)
wavelength	value
25.0442	46.8163
24.3388	44.8671
23.6719	19.6289
23.0407	21.1992
22.4422	8.3515
21.8741	8.2627
21.334	5.1445
20.8199	18.1337
20.33	30.3964
19.8627	35.1015
19.4163	45.098
18.9896	44.8226
18.5812	40.1181
18.19	58.4881
17.815	67.3636
17.4551	73.3851
17.1094	78.0203
16.7772	80.7654
16.4576	82.1746
16.15	83.7664
15.8537	84.4602
15.568	82.5901
15.2925	73.1487
15.0265	32.4296
14.7697	41.6664
14.5214	60.1883
14.2814	74.0594
14.0492	81.929
13.8244	85.501
13.6067	87.4383
13.3957	88.5791
13.1912	88.8357
12.9929	89.0059
12.8004	87.751
12.6135	88.4798
12.432	88.6179
12.2557	88.0117
12.0843	86.906
11.9176	85.6348
11.7555	83.5977
11.5977	80.9754
11.444	78.1849
11.2944	75.2669
11.1487	71.7449
11.0067	67.4747
10.8682	62.5228
10.7332	56.1896
10.6015	48.2091
10.473	39.8261
10.3476	32.1711
10.2251	23.7065
10.1056	14.6635
9.9887	6.573
9.8746	1.6008
9.763	1.8826
9.6539	5.4765
9.5472	8.3794
9.4429	17.5764
9.3408	27.1215
9.2409	34.3183
9.1431	39.548
9.0474	44.3348
8.9536	48.4852
8.8618	52.0094
8.7718	55.3773
8.6837	59.2738
8.5973	62.9591
8.5126	65.4925
8.4295	67.6126
8.3481	69.5985
8.2682	71.3113
8.1898	72.782
8.1129	74.178
8.0374	75.3055
7.9634	76.5992
7.8906	77.6619
7.8192	78.3357
7.7491	78.9395
7.6802	79.4454
7.6126	80.2278
7.5461	81.0047
7.4807	81.7183
7.4165	82.1775
7.3534	82.6297
7.2914	83.1228
7.2303	83.4192
7.1703	84.1597
7.1113	84.5686
7.0533	84.7449
6.9962	85.1746
6.94	85.7893
6.8847	86.0052
6.8302	86.1531
6.7767	86.4187
6.7239	86.7971
6.672	87.2009
6.6209	87.4505
6.5705	87.6663
6.5209	87.7732
6.4721	88.0257
6.424	88.2786
6.3766	88.3142
6.3299	88.3692
6.2838	88.4348
6.2385	88.2381
6.1937	87.68
6.1496	87.1599
6.1062	86.7493
6.0633	86.8548
6.0211	88.0134
5.9794	88.6843
5.9383	88.9221
5.8978	89.26
5.8578	89.0491
5.8184	89.4651
5.7794	89.7615
5.741	89.9798
5.7031	89.9827
5.6657	89.8162
5.6288	90.0047
5.5924	89.989
5.5564	89.801
5.5209	89.6492
5.4859	89.5798
5.4513	89.8557
5.4171	90.2703
5.3833	90.2866
5.35	90.3821
5.3171	90.5217
5.2846	90.7117
5.2524	90.6853
5.2207	90.5359
5.1893	90.634
5.1584	90.8948
5.1277	90.989
5.0975	91.2168
5.0676	91.5369
5.038	91.7681
5.0088	91.8137
4.98	91.8162
4.9514	91.9028
4.9232	91.8704
4.8953	91.9544
4.8678	92.0076
4.8405	92.1304
4.8135	92.2097
4.7868	92.2236
4.7605	92.2835
4.7344	92.3401
4.7086	92.3247
4.6831	92.3645
4.6578	92.4324
4.6328	92.4795
4.6081	92.6856
4.5837	92.6316
4.5595	92.6511
4.5356	92.6931
4.5119	92.6824
4.4884	92.6799
4.4652	92.6963
4.4423	92.7009
4.4196	92.7803
4.3971	92.8076
4.3748	92.8687
4.3528	92.8948
4.331	92.8557
4.3094	92.8857
4.288	92.8147
4.2668	92.8359
4.2458	92.9451
4.2251	92.9229
4.2045	92.9158
4.1841	92.886
4.164	92.9197
4.144	92.915
4.1242	92.9753
4.1046	92.9959
4.0852	92.9544
4.066	92.9788
4.047	92.9395
4.0281	93.0352
4.0094	92.9954
3.9909	92.9929
3.9725	92.9753
3.9544	92.949
3.9363	93.0088
3.9185	93.074
3.9008	92.9873
3.8833	93.0017
3.8659	92.9832
3.8487	93.0811
3.8316	93.0137
3.8147	93.0889
3.7979	93.0908
3.7813	93.0273
3.7648	93.0374
3.7485	92.9685
3.7323	92.9749
3.7162	92.9688
3.7003	92.9197
3.6845	92.8711
3.6689	92.8611
3.6534	92.803
3.638	92.8904
3.6227	92.8164
3.6076	92.8262
3.5926	92.8523
3.5777	92.7546
3.563	92.7734
3.5484	92.79
3.5338	92.7607
3.5195	92.7136
3.5052	92.7996
3.491	92.6814
3.477	92.6433
3.463	92.6668
3.4492	92.6628
3.4355	92.6023
3.4219	92.636
3.4084	92.4063
3.395	92.4053
3.3817	92.4011
3.3685	92.4863
3.3554	92.1553
3.3425	92.199
3.3296	92.1267
3.3168	92.2334
3.3041	92.1865
3.2915	92.2766
3.279	92.1785
3.2666	92.1589
3.2543	92.2097
3.2421	92.1936
3.23	92.1184
3.218	92.0813
3.206	92.0501
3.1942	91.9182
3.1824	91.926
3.1707	91.7732
3.1591	91.554
3.1476	91.5379
3.1362	91.3035
3.1249	91.1809
3.1136	91.0198
3.1024	90.6804
3.0913	90.3391
3.0803	90.1336
3.0694	90.01
3.0585	89.7205
3.0477	89.5296
3.037	89.28
3.0264	89.032
3.0158	88.6052
3.0053	88.0296
2.9949	87.4085
2.9845	86.6746
2.9743	85.614
2.9641	84.6863
2.9539	83.8679
2.9439	83.2581
2.9339	82.8767
2.9239	82.4085
2.9141	82.3416
2.9043	82.4148
2.8946	82.8338
2.8849	83.1209
2.8753	83.3553
2.8658	83.7615
2.8563	84.1658
2.8469	84.5369
2.8375	84.8533
2.8282	85.1131
2.819	85.823
2.8098	85.9593
2.8007	86.3811
2.7917	86.8455
2.7827	87.5349
2.7738	88.3377
2.7649	88.969
2.7561	89.8577
2.7473	90.3172
2.7386	90.8416
2.7299	90.0535
2.7213	71.0433
2.7128	87.18
2.7043	89.8616
2.6959	90.8963
2.6875	91.3435
2.6791	91.6853
2.6709	91.8513
2.6626	91.9363
2.6545	91.9041
2.6463	92.0193
2.6382	91.8748
2.6302	92.158
2.6222	92.1326
2.6143	91.9685
2.6064	92.0007
2.5986	92.199
2.5908	92.2029
2.583	92.4099
2.5753	92.1697
2.5677	92.1209
2.5601	92.1921
2.5525	91.9548
2.545	92.0837
2.5375	92.2546
2.5301	92.3211
2.5227	92.0037
2.5154	92.0662
2.5081	92.2478
2.5008	92.1609
2.4936	92.3406
2.4864	92.2752
2.4793	92.2048
2.4722	92.2048
2.4651	92.2693
2.4581	92.2859
2.4511	92.3904
2.4442	92.1013
2.4373	92.5623
2.4305	92.4099
2.4236	92.4812
2.4169	92.6091
2.4101	92.4421
2.4034	92.4382
2.3967	92.0896
2.3901	92.0447
2.3835	92.1687
2.377	92.117
2.3704	92.157
2.364	92.3357
2.3575	92.1726
2.3511	92.239
2.3447	92.1521
2.3384	92.2742
2.3321	92.1648
2.3258	91.949
2.3195	92.2498
2.3133	91.5281
2.3071	91.7166
2.301	91.2898
2.2949	92.2732
2.2888	92.0837
2.2828	92.1892
2.2767	92.0173
2.2708	91.9822
2.2648	92.2068
2.2589	92.0662
2.253	92.0447
2.2471	92.1755
2.2413	92.0701
2.2355	92.2068
2.2297	92.2654
2.224	92.113
2.2183	91.992
2.2126	92.1599
2.207	92.1209
2.2013	91.9451
2.1957	91.9705
2.1902	92.6267
2.1846	92.0271
2.1791	92.074
2.1736	92.2224
2.1682	92.1091
2.1628	92.1502
2.1574	92.2068
2.152	91.947
2.1466	91.908
2.1413	91.5955
2.136	92.238
2.1308	92.158
2.1255	91.9002
2.1203	91.8982
2.1151	91.9392
2.11	92.1365
2.1048	92.1658
2.0997	92.3377
2.0946	92.3865
2.0895	91.9568
2.0845	92.1365
2.0795	92.1345
