Name: Borax Na_2B_4O_5(OH)_4.8H_2O
Type: Mineral
Class: Borate
Subclass: None
Particle Size: Coarse
Sample No.: B-6A
Owner: JPL
Wavelength Range: VSWIR
Origin: USA, California, Kern County, Boron.
Description: Particle size was 125-500um.Collected by:  Burminco Original ASTER Spectral Library name was jpl.perkin.mineral.borate.none.coarse.b06a.spectrum.txt
Measurement: Hemispherical reflectance
X Units: Wavelength (micrometers)
Y Units: Reflectance (percent)
wavelength	value
2.5	10.7162
2.494	11.0307
2.488	11.6335
2.482	12.1254
2.476	12.5753
2.47	13.1137
2.464	13.4962
2.458	13.8136
2.452	13.995
2.446	14.1832
2.44	14.3668
2.434	14.6591
2.428	14.8978
2.422	15.3749
2.416	15.952
2.41	16.4913
2.404	17.1048
2.398	17.7583
2.392	18.4163
2.386	19.1111
2.38	19.8059
2.374	20.3956
2.368	20.9581
2.362	21.383
2.356	21.6704
2.35	21.9584
2.344	22.2062
2.338	22.3267
2.332	22.403
2.326	22.4641
2.32	22.5975
2.314	22.5867
2.308	22.5779
2.302	22.5476
2.296	22.6092
2.29	22.5704
2.284	22.6094
2.278	22.578
2.272	22.5869
2.266	22.5812
2.26	22.6212
2.254	22.7033
2.248	22.7152
2.242	22.8537
2.236	22.9974
2.23	23.0989
2.224	23.1917
2.218	23.4036
2.212	23.6779
2.206	23.9128
2.2	24.1508
2.194	24.2057
2.188	24.1447
2.182	24.0334
2.176	23.6387
2.17	23.0683
2.164	22.5126
2.158	22.0564
2.152	21.9815
2.146	22.3313
2.14	22.9866
2.134	23.5978
2.128	23.8625
2.122	23.8837
2.116	23.7859
2.11	23.5411
2.104	23.329
2.098	23.2665
2.092	23.2388
2.086	23.264
2.08	23.3046
2.074	23.2632
2.068	23.133
2.062	22.9986
2.056	22.8647
2.05	22.654
2.044	22.451
2.038	22.4173
2.032	22.2045
2.026	21.9886
2.02	21.7731
2.014	21.5623
2.008	21.3637
2.002	21.1239
1.996	20.9495
1.99	20.6864
1.984	20.4151
1.978	20.2714
1.972	20.0753
1.966	19.8053
1.96	19.3358
1.954	18.8902
1.948	18.2888
1.942	17.6958
1.936	17.1856
1.93	16.9914
1.924	17.1181
1.918	17.4294
1.912	18.0268
1.906	19.5485
1.9	22.4612
1.894	25.6793
1.888	28.6179
1.882	30.797
1.876	32.3891
1.87	33.8486
1.864	34.7895
1.858	35.4264
1.852	35.8802
1.846	36.2764
1.84	36.6147
1.834	36.8092
1.828	37.0641
1.822	37.3072
1.816	37.603
1.81	37.7996
1.804	38.1558
1.798	38.4507
1.792	38.7966
1.786	39.1382
1.78	39.525
1.774	39.9615
1.768	40.3097
1.762	40.6894
1.756	40.9473
1.75	41.1368
1.744	41.2981
1.738	41.3425
1.732	41.3752
1.726	41.3942
1.72	41.3391
1.714	41.276
1.708	41.2922
1.702	41.4562
1.696	41.5739
1.69	41.7061
1.684	41.921
1.678	42.0941
1.672	42.4394
1.666	42.7836
1.66	43.136
1.654	43.4788
1.648	43.887
1.642	44.3408
1.636	44.7311
1.63	45.1049
1.624	45.3972
1.618	45.7104
1.612	45.988
1.606	46.3122
1.6	46.5535
1.594	46.661
1.588	46.7062
1.582	46.7268
1.576	46.6661
1.57	46.5407
1.564	46.3615
1.558	46.3941
1.552	46.5255
1.546	46.92
1.54	47.4031
1.534	47.9466
1.528	48.4626
1.522	48.8651
1.516	49.0161
1.51	48.8643
1.504	48.2747
1.498	47.1463
1.492	45.9289
1.486	44.9307
1.48	44.645
1.474	45.0356
1.468	45.6669
1.462	46.6261
1.456	47.9185
1.45	48.8955
1.444	49.6733
1.438	50.2946
1.432	49.7078
1.426	48.8581
1.42	50.722
1.414	54.9355
1.408	58.9747
1.402	62.2484
1.396	64.8614
1.39	67.1791
1.384	68.7581
1.378	69.9252
1.372	70.7972
1.366	71.6778
1.36	72.5054
1.354	73.385
1.348	74.2673
1.342	75.2892
1.336	76.0779
1.33	76.8783
1.324	77.556
1.318	78.0026
1.312	78.3377
1.306	78.455
1.3	78.4495
1.294	78.0538
1.288	77.6891
1.282	77.6354
1.276	77.8761
1.27	78.0199
1.264	78.2038
1.258	78.3341
1.252	78.3417
1.246	78.4374
1.24	78.5618
1.234	78.7461
1.228	78.8104
1.222	78.9801
1.216	79.1349
1.21	79.2203
1.204	79.2681
1.198	79.2652
1.192	79.2375
1.186	79.3357
1.18	79.4291
1.174	79.4523
1.168	79.2967
1.162	78.9227
1.156	79.6749
1.15	81.4998
1.144	82.7074
1.138	83.372
1.132	83.6349
1.126	83.8286
1.12	84.0282
1.114	84.2504
1.108	84.3534
1.102	84.5144
1.096	84.6984
1.09	84.793
1.084	84.9134
1.078	84.9468
1.072	84.9107
1.066	85.042
1.06	84.9002
1.054	84.8415
1.048	84.7244
1.042	84.6541
1.036	84.5543
1.03	84.4952
1.024	84.3989
1.018	84.2816
1.012	84.1461
1.006	84.0435
1	83.9513
0.994	83.8308
0.988	83.7765
0.982	83.744
0.976	83.6615
0.97	83.8056
0.964	84.4788
0.958	85.0243
0.952	85.3713
0.946	85.5475
0.94	85.6969
0.934	85.8484
0.928	85.9855
0.922	86.0685
0.916	86.1634
0.91	86.2355
0.904	86.1436
0.898	86.2555
0.892	86.3143
0.886	86.3837
0.88	86.4871
0.874	86.4756
0.868	86.5244
0.862	86.5237
0.856	86.7297
0.85	86.7516
0.844	86.6919
0.838	86.7807
0.832	86.9106
0.826	86.969
0.82	86.9288
0.814	86.9239
0.808	87.0028
0.802	87.0215
0.796	86.9565
0.79	86.9349
0.784	86.9369
0.778	86.9584
0.772	86.9114
0.766	86.8993
0.76	86.9544
0.754	86.8971
0.748	86.8803
0.742	86.9135
0.736	87.0006
0.73	87.0193
0.724	87.0425
0.718	87.0493
0.712	87.0758
0.706	87.0646
0.7	87.0976
0.694	87.0783
0.688	87.0817
0.682	87.1098
0.676	87.1046
0.67	87.1101
0.664	87.0937
0.658	87.1284
0.652	87.1156
0.646	87.1188
0.64	87.1263
0.634	87.1121
0.628	87.1233
0.622	87.1142
0.616	87.133
0.61	87.0948
0.604	87.1148
0.598	87.1605
0.592	87.1949
0.586	87.2062
0.58	87.2038
0.574	87.1974
0.568	87.1973
0.562	87.1974
0.556	87.1513
0.55	87.1587
0.544	87.143
0.538	87.1156
0.532	87.1139
0.526	87.0939
0.52	87.046
0.514	87.0122
0.508	86.9672
0.502	86.9311
0.496	86.8107
0.49	86.7835
0.484	86.6743
0.478	86.5899
0.472	86.5216
0.466	86.4565
0.46	86.3888
0.454	86.3256
0.448	86.2237
0.442	86.1529
0.436	86.1241
0.43	86.0407
0.424	86.0407
0.418	86.0037
0.412	85.9887
0.406	85.9677
0.4	85.9571
