Name: Cryolite Na_3AlF_6
Type: Mineral
Class: Halide
Subclass: None
Particle Size: Medium
Sample No.: H-1A
Owner: JPL
Wavelength Range: VSWIR
Origin: Denmark, Greenland, Ivigtut.
Description: Particle size was 45-125um.Collected by:  Ward's Original ASTER Spectral Library name was jpl.perkin.mineral.halide.none.medium.h01a.spectrum.txt
Measurement: Hemispherical reflectance
X Units: Wavelength (micrometers)
Y Units: Reflectance (percent)
wavelength	value
2.5	84.3564
2.494	83.982
2.488	84.0149
2.482	83.8675
2.476	83.7014
2.47	83.7472
2.464	83.9153
2.458	84.0224
2.452	84.1168
2.446	84.3946
2.44	84.6074
2.434	84.7407
2.428	84.8785
2.422	84.8659
2.416	84.8695
2.41	84.8759
2.404	84.8977
2.398	85.0181
2.392	85.3247
2.386	85.3885
2.38	85.5972
2.374	85.8653
2.368	86.0904
2.362	86.3072
2.356	86.5014
2.35	86.628
2.344	86.8949
2.338	87.04
2.332	87.2324
2.326	87.5459
2.32	87.7427
2.314	87.7793
2.308	87.8833
2.302	87.9306
2.296	88.0345
2.29	88.034
2.284	88.1967
2.278	88.1208
2.272	88.1776
2.266	88.2336
2.26	88.2744
2.254	88.1662
2.248	88.1132
2.242	88.0834
2.236	87.9522
2.23	88.0283
2.224	88.1122
2.218	88.2913
2.212	88.4346
2.206	88.5632
2.2	88.7151
2.194	88.7057
2.188	88.8033
2.182	88.8652
2.176	88.9491
2.17	89.2083
2.164	89.4372
2.158	89.6445
2.152	89.7492
2.146	89.9223
2.14	89.8431
2.134	89.7768
2.128	89.6151
2.122	89.3938
2.116	89.1329
2.11	88.8329
2.104	88.4986
2.098	88.4156
2.092	88.4962
2.086	88.5366
2.08	88.5089
2.074	88.564
2.068	88.69
2.062	88.6928
2.056	88.8489
2.05	88.825
2.044	88.9454
2.038	88.9633
2.032	89.0607
2.026	88.9552
2.02	88.9839
2.014	88.9353
2.008	88.91
2.002	88.859
1.996	88.8091
1.99	88.6829
1.984	88.5433
1.978	88.3857
1.972	88.2165
1.966	87.9169
1.96	87.5624
1.954	87.1232
1.948	87.0386
1.942	86.9078
1.936	86.3406
1.93	86.0038
1.924	86.3346
1.918	87.0653
1.912	87.5419
1.906	88.0547
1.9	88.4809
1.894	89.0671
1.888	89.4177
1.882	89.6405
1.876	89.897
1.87	89.9256
1.864	90.1304
1.858	90.2065
1.852	90.2369
1.846	90.2536
1.84	90.3656
1.834	90.1995
1.828	90.3183
1.822	90.398
1.816	90.3904
1.81	90.4219
1.804	90.4217
1.798	90.5136
1.792	90.4044
1.786	90.4252
1.78	90.4248
1.774	90.4157
1.768	90.3258
1.762	90.3359
1.756	90.3246
1.75	90.38
1.744	90.4576
1.738	90.5516
1.732	90.5435
1.726	90.5289
1.72	90.5577
1.714	90.5566
1.708	90.5292
1.702	90.5704
1.696	90.6317
1.69	90.5638
1.684	90.6067
1.678	90.6053
1.672	90.5728
1.666	90.608
1.66	90.5726
1.654	90.4798
1.648	90.585
1.642	90.6007
1.636	90.5901
1.63	90.6223
1.624	90.5459
1.618	90.5724
1.612	90.543
1.606	90.5312
1.6	90.5781
1.594	90.5856
1.588	90.538
1.582	90.5415
1.576	90.528
1.57	90.5104
1.564	90.4723
1.558	90.4714
1.552	90.4012
1.546	90.3871
1.54	90.3386
1.534	90.3574
1.528	90.3176
1.522	90.2531
1.516	90.2186
1.51	90.1356
1.504	90.0865
1.498	90.0248
1.492	90.089
1.486	90.0558
1.48	89.996
1.474	89.8937
1.468	89.7682
1.462	89.65
1.456	89.621
1.45	89.6893
1.444	89.8049
1.438	89.7743
1.432	89.7102
1.426	89.8252
1.42	89.861
1.414	89.9279
1.408	90.1146
1.402	90.2011
1.396	90.3231
1.39	90.4375
1.384	90.4386
1.378	90.4327
1.372	90.4563
1.366	90.5284
1.36	90.4901
1.354	90.4658
1.348	90.3881
1.342	90.4651
1.336	90.4715
1.33	90.4742
1.324	90.4428
1.318	90.3736
1.312	90.4521
1.306	90.4278
1.3	90.4506
1.294	90.4311
1.288	90.4465
1.282	90.4126
1.276	90.3943
1.27	90.3809
1.264	90.4211
1.258	90.3945
1.252	90.3968
1.246	90.3634
1.24	90.3862
1.234	90.3377
1.228	90.3917
1.222	90.3602
1.216	90.2553
1.21	90.3559
1.204	90.2972
1.198	90.2318
1.192	90.3187
1.186	90.35
1.18	90.3613
1.174	90.3338
1.168	90.2824
1.162	90.3593
1.156	90.2843
1.15	90.3992
1.144	90.3369
1.138	90.4323
1.132	90.4204
1.126	90.351
1.12	90.3403
1.114	90.3988
1.108	90.3682
1.102	90.3496
1.096	90.415
1.09	90.3455
1.084	90.4091
1.078	90.3269
1.072	90.3358
1.066	90.38
1.06	90.3357
1.054	90.302
1.048	90.2739
1.042	90.3576
1.036	90.33
1.03	90.3462
1.024	90.3239
1.018	90.2764
1.012	90.2169
1.006	90.3909
1	90.2845
0.994	90.2939
0.988	90.2893
0.982	90.2403
0.976	90.2435
0.97	90.2135
0.964	90.2643
0.958	90.2181
0.952	90.2216
0.946	90.1768
0.94	90.1663
0.934	90.1696
0.928	90.1718
0.922	90.1612
0.916	90.1098
0.91	90.0652
0.904	90.0544
0.898	90.0682
0.892	89.9311
0.886	89.9669
0.88	89.9542
0.874	89.8838
0.868	89.8585
0.862	89.7872
0.856	89.9541
0.85	89.8178
0.844	89.896
0.838	89.8367
0.832	89.8674
0.826	89.862
0.82	89.8687
0.814	89.9049
0.808	89.9303
0.802	89.9067
0.796	89.838
0.79	89.777
0.784	89.8211
0.778	89.7378
0.772	89.8047
0.766	89.7782
0.76	89.7876
0.754	89.7958
0.748	89.7776
0.742	89.8151
0.736	89.7729
0.73	89.7906
0.724	89.7927
0.718	89.771
0.712	89.7854
0.706	89.7575
0.7	89.7665
0.694	89.7665
0.688	89.7772
0.682	89.7685
0.676	89.7338
0.67	89.7585
0.664	89.7157
0.658	89.7476
0.652	89.7299
0.646	89.7276
0.64	89.7106
0.634	89.7237
0.628	89.7523
0.622	89.7434
0.616	89.7289
0.61	89.7251
0.604	89.7104
0.598	89.7223
0.592	89.7689
0.586	89.7518
0.58	89.7138
0.574	89.6962
0.568	89.6831
0.562	89.6647
0.556	89.6185
0.55	89.5773
0.544	89.5513
0.538	89.4959
0.532	89.4733
0.526	89.3949
0.52	89.3635
0.514	89.2773
0.508	89.1865
0.502	89.0941
0.496	88.981
0.49	88.863
0.484	88.6821
0.478	88.5558
0.472	88.4083
0.466	88.2615
0.46	88.084
0.454	87.9191
0.448	87.7135
0.442	87.527
0.436	87.3222
0.43	87.1782
0.424	87.0695
0.418	86.8995
0.412	86.8113
0.406	86.727
0.4	86.6649
