Name: Strontianite SrCO_3
Type: Mineral
Class: Carbonate
Subclass: None
Particle Size: Coarse
Sample No.: C-1A
Owner: JPL
Wavelength Range: TIR
Origin: Germany, Westphalia, Hamm
Description: Particle size was 125-500um.Collected by Ward's Original ASTER Spectral Library name was jpl.nicolet.mineral.carbonate.none.coarse.c01a.spectrum.txt
Measurement: Hemispherical reflectance
X Units: Wavelength (micrometers)
Y Units: Reflectance (percent)
wavelength	value
15.3853	26.6784
15.1161	26.6744
14.8563	24.9843
14.6052	14.0017
14.3624	3.9327
14.1276	3.1261
13.9004	12.529
13.6803	23.7275
13.4671	27.7646
13.2604	29.2677
13.06	27.9819
12.8656	23.0662
12.6769	18.1348
12.4936	14.6589
12.3155	14.0323
12.1425	13.3196
11.9742	9.5044
11.8106	7.8264
11.6513	19.9951
11.4963	20.8722
11.3454	4.9726
11.1983	4.4816
11.0551	6.5435
10.9154	8.0401
10.7793	8.5888
10.6465	8.1687
10.5169	9.2368
10.3904	9.7282
10.267	11.5475
10.1464	14.3849
10.0287	14.6015
9.9136	13.2243
9.8012	12.9166
9.6913	11.7112
9.5838	10.4299
9.4787	9.1982
9.3758	4.4005
9.2752	6.0309
9.1767	9.6035
9.0803	9.8747
8.9858	8.6315
8.8934	7.1126
8.8028	5.4599
8.714	4.4389
8.627	4.1973
8.5417	4.4
8.4581	4.5865
8.3761	4.5538
8.2957	4.7912
8.2169	4.9759
8.1395	4.7484
8.0635	4.5627
7.989	4.1898
7.9158	4.3381
7.8439	4.3087
7.7734	4.3296
7.7041	4.4257
7.636	4.6536
7.5691	4.7535
7.5034	5.0203
7.4388	5.172
7.3753	5.4722
7.3129	6.0261
7.2515	6.6172
7.1912	7.1045
7.1318	7.9498
7.0734	9.0583
7.016	11.4577
6.9595	17.0227
6.9039	24.0074
6.8492	26.0956
6.7953	27.7598
6.7423	28.8307
6.6901	29.9609
6.6387	30.6589
6.5881	29.429
6.5382	26.8795
6.4892	22.903
6.4408	14.8149
6.3931	8.5019
6.3462	3.3233
6.2999	1.2171
6.2543	0.7689
6.2094	0.7361
6.1651	0.6448
6.1214	0.6173
6.0784	0.637
6.0359	0.8754
5.994	0.9044
5.9527	0.9638
5.912	1.0137
5.8718	1.1508
5.8322	1.5306
5.7931	1.871
5.7545	2.3798
5.7165	3.4202
5.6789	1.8483
5.6418	1.4376
5.6052	1.9084
5.5691	11.4775
5.5334	17.3576
5.4982	21.4727
5.4635	24.718
5.4291	27.1564
5.3952	28.9915
5.3618	30.7277
5.3287	32.7632
5.2961	34.9729
5.2638	36.9733
5.2319	38.2159
5.2004	38.0525
5.1693	38.5568
5.1386	39.5322
5.1082	41.3955
5.0782	44.9564
5.0485	47.2939
5.0192	48.5786
4.9902	49.4035
4.9616	50.2859
4.9332	50.5332
4.9052	51.8869
4.8776	54.2641
4.8502	55.0456
4.8231	53.537
4.7963	45.7651
4.7699	30.5092
4.7437	19.4221
4.7178	14.6835
4.6922	11.7569
4.6668	15.6644
4.6418	20.312
4.617	25.0906
4.5924	29.252
4.5681	32.5781
4.5441	35.5864
4.5203	35.9254
4.4968	35.2201
4.4735	36.3724
4.4505	40.5244
4.4277	43.1122
4.4051	43.8845
4.3828	40.725
4.3607	30.8121
4.3388	25.9347
4.3171	24.1354
4.2956	26.897
4.2744	30.4679
4.2534	30.933
4.2325	30.1924
4.2119	28.7451
4.1915	25.4395
4.1712	23.7361
4.1512	24.9306
4.1313	24.6503
4.1117	21.4234
4.0922	13.5591
4.0729	6.5122
4.0538	3.5537
4.0349	2.8868
4.0161	2.666
3.9976	2.6265
3.9792	2.7598
3.9609	3.037
3.9428	3.6454
3.9249	4.0985
3.9072	4.6207
3.8896	4.7647
3.8722	4.6722
3.8549	4.6688
3.8378	5.0165
3.8208	7.1653
3.804	14.2997
3.7873	22.5475
3.7708	26.582
3.7544	28.2833
3.7382	29.96
3.7221	31.6871
3.7061	33.1215
3.6903	34.2058
3.6746	34.693
3.659	34.528
3.6436	34.0868
3.6283	32.9277
3.6131	31.8593
3.5981	29.7114
3.5832	25.4763
3.5684	21.867
3.5537	15.8106
3.5391	8.3359
3.5247	5.0436
3.5104	5.5614
3.4962	4.3421
3.4821	3.2989
3.4681	3.3043
3.4543	3.4847
3.4405	4.0106
3.4269	4.1304
3.4133	3.8907
3.3999	3.7464
3.3866	4.0111
3.3733	5.0063
3.3602	7.3897
3.3472	10.4804
3.3343	14.415
3.3215	18.8756
3.3088	21.9425
3.2961	24.049
3.2836	25.7235
3.2712	27.0531
3.2588	28.2672
3.2466	29.0699
3.2345	30.184
3.2224	31.1174
3.2104	31.924
3.1985	32.8804
3.1867	32.9592
3.175	31.4852
3.1634	29.2958
3.1519	26.4134
3.1404	25.4628
3.129	25.7864
3.1178	28.7832
3.1065	30.8793
3.0954	32.5828
3.0844	33.5426
3.0734	34.1737
3.0625	34.7205
3.0517	34.9409
3.041	35.0348
3.0303	35.0073
3.0197	35.3519
3.0092	35.4781
2.9987	35.6772
2.9884	35.6698
2.9781	35.6746
2.9678	35.5889
2.9577	35.6469
2.9476	35.6959
2.9376	35.7694
2.9276	35.9537
2.9177	35.9994
2.9079	36.3341
2.8982	36.5689
2.8885	37.1366
2.8789	37.7095
2.8693	37.8742
2.8598	37.8151
2.8504	36.9076
2.841	33.9864
2.8317	29.2198
2.8224	27.2258
2.8133	26.7481
2.8041	32.9776
2.7951	36.7111
2.786	41.051
2.7771	44.159
2.7682	46.1333
2.7594	48.2525
2.7506	49.8904
2.7418	52.0698
2.7332	54.0029
2.7246	58.2373
2.716	63.1116
2.7075	68.1649
2.699	70.9249
2.6906	73.0615
2.6823	74.279
2.674	75.1259
2.6657	76.3887
2.6575	75.9638
2.6494	76.0979
2.6413	76.2168
2.6332	76.1208
2.6252	75.5823
2.6173	75.1536
2.6094	73.5981
2.6015	69.4756
2.5937	65.514
2.5859	57.8661
2.5782	50.1021
2.5706	42.7819
2.5629	36.6728
2.5554	33.1893
2.5478	34.2049
2.5403	36.0377
2.5329	39.6986
2.5255	43.2749
2.5181	46.3363
2.5108	48.4119
2.5035	49.6624
2.4963	50.3503
2.4891	51.7194
2.482	54.2286
2.4749	57.9686
2.4678	61.8915
2.4608	65.577
2.4538	68.5035
2.4468	70.4653
2.4399	72.0184
2.4331	73.1358
2.4262	73.7162
2.4194	74.2567
2.4127	75.131
2.4059	75.0791
2.3993	74.7879
2.3926	73.5062
2.386	70.8152
2.3795	66.37
2.3729	61.146
2.3664	56.4562
2.36	52.7108
2.3535	49.7089
2.3471	47.5688
2.3408	49.2719
2.3345	52.3315
2.3282	54.8604
2.3219	57.0909
2.3157	58.6102
2.3095	60.2014
2.3034	61.2979
2.2972	62.7462
2.2911	63.8627
2.2851	65.5552
2.279	66.9714
2.2731	68.5176
2.2671	70.2196
2.2612	71.8275
2.2553	73.273
2.2494	74.4967
2.2435	75.8291
2.2377	77.0289
2.232	78.0009
2.2262	78.9797
2.2205	79.8503
2.2148	80.6679
2.2091	81.2737
2.2035	81.9339
2.1979	81.7235
2.1923	81.2027
2.1868	80.3975
2.1812	79.4264
2.1758	79.3064
2.1703	79.6437
2.1649	81.5969
2.1595	82.7234
2.1541	83.2698
2.1487	84.1819
2.1434	84.5563
2.1381	84.9314
2.1328	84.9983
2.1275	85.3119
2.1223	85.604
2.1171	85.5426
2.112	85.9737
2.1068	86.2506
2.1017	86.3822
2.0966	86.5268
2.0915	86.4861
2.0865	86.3164
2.0814	86.8612
2.0764	86.2841
2.0715	86.5047
2.0665	86.9451
2.0616	86.3738
2.0567	86.5084
2.0518	86.3568
2.0469	86.1952
2.0421	86.0099
2.0373	85.2953
2.0325	83.9981
2.0277	83.3063
2.0229	81.8445
2.0182	80.3442
2.0135	79.8703
2.0088	80.8914
2.0042	81.793
