Name: Illite (K,H_3O)(Al,Mg,Fe)_2(Si,Al)_4O_10((OH)_2,H_2O)
Type: Mineral
Class: Silicate
Subclass: Phyllosilicate
Particle Size: Fine
Sample No.: PS-11A
Owner: JPL
Wavelength Range: VSWIR
Origin: USA, Wisconsin, Marblehead.
Description: Particle size was 0-45um.Collected by:  JPL Original ASTER Spectral Library name was jpl.perkin.mineral.silicate.phyllosilicate.fine.ps11a.spectrum.txt
Measurement: Hemispherical reflectance
X Units: Wavelength (micrometers)
Y Units: Reflectance (percent)
wavelength	value
2.5	57.6397
2.494	57.8327
2.488	57.937
2.482	58.287
2.476	58.2689
2.47	58.4835
2.464	58.6005
2.458	58.9019
2.452	58.9085
2.446	59.0158
2.44	59.3482
2.434	59.6327
2.428	60.2245
2.422	60.8226
2.416	61.5078
2.41	62.1248
2.404	62.4933
2.398	62.9014
2.392	63.268
2.386	63.4092
2.38	63.6882
2.374	63.7461
2.368	63.7645
2.362	63.6782
2.356	63.4645
2.35	63.0865
2.344	63.0074
2.338	63.2432
2.332	63.8683
2.326	64.7191
2.32	65.7043
2.314	66.7203
2.308	67.8916
2.302	68.8641
2.296	69.5746
2.29	69.9302
2.284	70.0525
2.278	69.9915
2.272	69.5277
2.266	68.8955
2.26	67.7878
2.254	66.5321
2.248	65.8804
2.242	65.2921
2.236	64.5341
2.23	63.7639
2.224	63.1139
2.218	63.1473
2.212	63.8423
2.206	64.7289
2.2	66.2583
2.194	67.5847
2.188	68.9396
2.182	70.2686
2.176	71.2944
2.17	72.1801
2.164	72.8853
2.158	73.4513
2.152	73.656
2.146	73.8579
2.14	73.8243
2.134	73.847
2.128	73.6186
2.122	73.3922
2.116	73.2493
2.11	72.9834
2.104	72.8997
2.098	72.7474
2.092	72.9382
2.086	73.0683
2.08	73.1867
2.074	73.2241
2.068	73.2373
2.062	73.2349
2.056	73.212
2.05	73.1914
2.044	73.0639
2.038	72.9355
2.032	72.7444
2.026	72.5188
2.02	72.2398
2.014	71.9505
2.008	71.6727
2.002	71.4053
1.996	70.9589
1.99	70.6185
1.984	70.1633
1.978	69.8078
1.972	69.3904
1.966	69.046
1.96	68.7448
1.954	68.4005
1.948	68.1788
1.942	67.7033
1.936	67.154
1.93	66.6706
1.924	65.9758
1.918	65.0512
1.912	64.3263
1.906	64.6005
1.9	66.2887
1.894	68.5925
1.888	70.5349
1.882	72.0485
1.876	73.0507
1.87	74.1749
1.864	74.7598
1.858	75.0318
1.852	75.1622
1.846	75.2967
1.84	75.3698
1.834	75.4143
1.828	75.3682
1.822	75.402
1.816	75.3535
1.81	75.3269
1.804	75.3383
1.798	75.3135
1.792	75.1429
1.786	75.1707
1.78	75.0597
1.774	75.0485
1.768	74.9907
1.762	75.0598
1.756	74.9483
1.75	74.9838
1.744	74.9369
1.738	74.9155
1.732	74.8748
1.726	74.9025
1.72	74.771
1.714	74.739
1.708	74.6541
1.702	74.5614
1.696	74.4511
1.69	74.3806
1.684	74.3334
1.678	74.2992
1.672	74.1566
1.666	74.1223
1.66	73.9416
1.654	73.9501
1.648	73.8368
1.642	73.7709
1.636	73.6287
1.63	73.5751
1.624	73.5412
1.618	73.3255
1.612	73.2724
1.606	73.3125
1.6	73.1734
1.594	73.0084
1.588	72.8636
1.582	72.7291
1.576	72.644
1.57	72.4864
1.564	72.3684
1.558	72.1356
1.552	72.1259
1.546	71.9602
1.54	71.8268
1.534	71.6764
1.528	71.4595
1.522	71.3166
1.516	71.1566
1.51	70.9693
1.504	70.8462
1.498	70.5801
1.492	70.4638
1.486	70.2454
1.48	69.9785
1.474	69.8022
1.468	69.4879
1.462	69.2979
1.456	69.1076
1.45	68.9147
1.444	68.5444
1.438	68.0136
1.432	67.1726
1.426	65.9209
1.42	64.2996
1.414	64.1261
1.408	64.8234
1.402	66.1606
1.396	67.0946
1.39	67.8465
1.384	68.2278
1.378	68.3783
1.372	68.3463
1.366	68.3395
1.36	68.2701
1.354	68.11
1.348	68.019
1.342	67.889
1.336	67.7882
1.33	67.5456
1.324	67.3701
1.318	67.3032
1.312	67.0779
1.306	66.9759
1.3	66.8104
1.294	66.5641
1.288	66.5462
1.282	66.3654
1.276	66.1991
1.27	65.9396
1.264	65.8903
1.258	65.6883
1.252	65.4389
1.246	65.2924
1.24	65.1596
1.234	64.9085
1.228	64.7762
1.222	64.5341
1.216	64.4283
1.21	64.2169
1.204	64.0413
1.198	63.844
1.192	63.5812
1.186	63.4182
1.18	63.2851
1.174	63.0232
1.168	62.8622
1.162	62.6749
1.156	62.534
1.15	62.3935
1.144	62.0655
1.138	61.8885
1.132	61.7193
1.126	61.6388
1.12	61.3923
1.114	61.1991
1.108	61.0104
1.102	60.7163
1.096	60.6051
1.09	60.3767
1.084	60.17
1.078	60.0196
1.072	59.8783
1.066	59.5819
1.06	59.4061
1.054	59.2471
1.048	58.9683
1.042	58.7954
1.036	58.53
1.03	58.349
1.024	58.1782
1.018	57.9584
1.012	57.6543
1.006	57.427
1	57.211
0.994	57.0413
0.988	56.7871
0.982	56.5919
0.976	56.3152
0.97	56.0562
0.964	55.8036
0.958	55.5667
0.952	55.3569
0.946	55.1282
0.94	54.9077
0.934	54.6614
0.928	54.3524
0.922	54.1628
0.916	53.8684
0.91	53.6335
0.904	53.3657
0.898	53.0203
0.892	52.8484
0.886	52.6206
0.88	52.2548
0.874	51.9111
0.868	51.6895
0.862	51.3603
0.856	51.0117
0.85	50.7946
0.844	50.4877
0.838	50.2285
0.832	49.9355
0.826	49.6809
0.82	49.3496
0.814	49.0581
0.808	48.7546
0.802	48.4592
0.796	48.0436
0.79	47.7677
0.784	47.4171
0.778	47.0662
0.772	46.7807
0.766	46.4268
0.76	46.1005
0.754	45.7854
0.748	45.436
0.742	45.1101
0.736	44.7757
0.73	44.4578
0.724	44.1284
0.718	43.7775
0.712	43.4428
0.706	43.1013
0.7	42.7729
0.694	42.4383
0.688	42.0971
0.682	41.7351
0.676	41.4122
0.67	41.0637
0.664	40.6995
0.658	40.3585
0.652	40.0142
0.646	39.666
0.64	39.2985
0.634	38.9563
0.628	38.5948
0.622	38.2443
0.616	37.8851
0.61	37.5325
0.604	37.1771
0.598	36.8303
0.592	36.491
0.586	36.128
0.58	35.7626
0.574	35.387
0.568	35.0346
0.562	34.6697
0.556	34.2364
0.55	33.8199
0.544	33.4027
0.538	32.9611
0.532	32.5248
0.526	32.1061
0.52	31.6574
0.514	31.1914
0.508	30.7025
0.502	30.2121
0.496	29.7097
0.49	29.2031
0.484	28.7048
0.478	28.3153
0.472	27.8995
0.466	27.4903
0.46	27.0508
0.454	26.5712
0.448	26.0511
0.442	25.4676
0.436	24.8669
0.43	24.2202
0.424	23.5819
0.418	22.9525
0.412	22.34
0.406	21.7144
0.4	21.0677
