Name: Colemanite Ca_2B_6O_11.5H_2O
Type: Mineral
Class: Borate
Subclass: None
Particle Size: Coarse
Sample No.: B-1A
Owner: JPL
Wavelength Range: TIR
Origin: USA, California, Kern County, Boron
Description: Particle size was 125-500um.Collected by Burminco Original ASTER Spectral Library name was jpl.nicolet.mineral.borate.none.coarse.b01a.spectrum.txt
Measurement: Hemispherical reflectance
X Units: Wavelength (micrometers)
Y Units: Reflectance (percent)
wavelength	value
15.3853	4.646
15.1161	4.8579
14.8563	5.3005
14.6052	5.3369
14.3624	5.5066
14.1276	5.6477
13.9004	6.2093
13.6803	7.2464
13.4671	5.9611
13.2604	7.8716
13.06	8.2894
12.8656	4.6577
12.6769	5.8532
12.4936	6.3132
12.3155	7.1204
12.1425	6.7521
11.9742	7.7502
11.8106	9.4975
11.6513	11.2037
11.4963	11.6551
11.3454	12.5946
11.1983	14.9028
11.0551	17.0286
10.9154	19.6626
10.7793	18.0822
10.6465	18.059
10.5169	20.0643
10.3904	18.9818
10.267	13.2454
10.1464	9.8798
10.0287	7.4675
9.9136	5.0176
9.8012	4.6196
9.6913	5.4596
9.5838	6.9434
9.4787	7.1609
9.3758	4.121
9.2752	2.8443
9.1767	1.91
9.0803	2.1312
8.9858	2.6009
8.8934	2.9494
8.8028	2.8359
8.714	2.673
8.627	2.6443
8.5417	1.9861
8.4581	1.3402
8.3761	1.2913
8.2957	1.9256
8.2169	2.6796
8.1395	3.2648
8.0635	2.6252
7.989	2.952
7.9158	4.1241
7.8439	4.5622
7.7734	4.212
7.7041	4.2412
7.636	6.3713
7.5691	9.5709
7.5034	10.5335
7.4388	9.843
7.3753	9.3742
7.3129	13.303
7.2515	14.138
7.1912	11.2299
7.1318	7.9318
7.0734	4.9761
7.016	2.0783
6.9595	0.8321
6.9039	0.5517
6.8492	0.5065
6.7953	0.3096
6.7423	0.2506
6.6901	0.1524
6.6387	0.3663
6.5881	0.3657
6.5382	0.5701
6.4892	0.6278
6.4408	0.5321
6.3931	0.7562
6.3462	0.6714
6.2999	0.7778
6.2543	0.8168
6.2094	0.7993
6.1651	0.8657
6.1214	0.9293
6.0784	0.9605
6.0359	0.8874
5.994	0.9478
5.9527	1.0279
5.912	0.9995
5.8718	1.0861
5.8322	0.944
5.7931	1.04
5.7545	1.0383
5.7165	1.1025
5.6789	1.0421
5.6418	1.1974
5.6052	1.2636
5.5691	1.2019
5.5334	1.266
5.4982	1.2772
5.4635	1.2876
5.4291	1.3693
5.3952	1.3282
5.3618	1.3177
5.3287	1.3763
5.2961	1.4344
5.2638	1.5054
5.2319	1.4762
5.2004	1.413
5.1693	1.551
5.1386	1.5041
5.1082	1.5107
5.0782	1.5669
5.0485	1.6363
5.0192	1.5134
4.9902	1.6084
4.9616	1.6143
4.9332	1.6637
4.9052	1.6123
4.8776	1.6234
4.8502	1.8068
4.8231	1.7284
4.7963	1.7403
4.7699	1.8135
4.7437	1.74
4.7178	1.8131
4.6922	1.6575
4.6668	1.797
4.6418	1.7287
4.617	1.7606
4.5924	1.7559
4.5681	1.7594
4.5441	1.8793
4.5203	1.7763
4.4968	1.8015
4.4735	1.8836
4.4505	1.899
4.4277	1.9
4.4051	1.9178
4.3828	1.9638
4.3607	1.8882
4.3388	2.0086
4.3171	1.99
4.2956	1.8766
4.2744	2.0484
4.2534	1.9846
4.2325	2.0531
4.2119	2.0254
4.1915	1.9548
4.1712	1.9896
4.1512	2.0126
4.1313	2.0792
4.1117	2.0961
4.0922	2.0807
4.0729	1.9616
4.0538	2.0691
4.0349	2.0027
4.0161	2.0304
3.9976	2.0931
3.9792	2.0819
3.9609	2.0611
3.9428	1.8996
3.9249	2.0449
3.9072	2.0138
3.8896	2.1655
3.8722	2.0848
3.8549	2.1158
3.8378	2.0634
3.8208	2.1465
3.804	1.9558
3.7873	2.195
3.7708	2.1044
3.7544	2.1937
3.7382	2.1515
3.7221	2.0991
3.7061	2.2743
3.6903	2.1435
3.6746	2.214
3.659	2.1881
3.6436	2.3106
3.6283	2.2313
3.6131	2.2202
3.5981	2.2925
3.5832	2.0922
3.5684	2.2838
3.5537	2.2645
3.5391	2.2898
3.5247	2.322
3.5104	2.3163
3.4962	2.361
3.4821	2.3606
3.4681	2.399
3.4543	2.452
3.4405	2.4958
3.4269	2.4372
3.4133	2.4527
3.3999	2.4987
3.3866	2.5271
3.3733	2.5597
3.3602	2.6018
3.3472	2.4013
3.3343	2.5575
3.3215	2.5897
3.3088	2.4835
3.2961	2.5451
3.2836	2.6005
3.2712	2.6103
3.2588	2.511
3.2466	2.6736
3.2345	2.7338
3.2224	2.6974
3.2104	2.6905
3.1985	2.7386
3.1867	2.7866
3.175	2.6564
3.1634	2.5738
3.1519	2.4556
3.1404	2.4077
3.129	2.3465
3.1178	2.3547
3.1065	2.333
3.0954	2.3535
3.0844	2.2362
3.0734	2.098
3.0625	2.0831
3.0517	1.8998
3.041	2
3.0303	1.8865
3.0197	1.6141
3.0092	1.6322
2.9987	1.5585
2.9884	1.5005
2.9781	1.3291
2.9678	1.345
2.9577	1.4542
2.9476	1.3428
2.9376	1.2044
2.9276	1.4317
2.9177	1.4807
2.9079	1.6341
2.8982	1.5271
2.8885	1.552
2.8789	1.4951
2.8693	1.7137
2.8598	1.7118
2.8504	1.5146
2.841	1.7785
2.8317	1.5212
2.8224	1.6449
2.8133	1.7529
2.8041	1.5888
2.7951	1.8173
2.786	2.1538
2.7771	2.0468
2.7682	1.3972
2.7594	1.215
2.7506	1.4962
2.7418	1.4945
2.7332	1.7205
2.7246	1.7906
2.716	1.6231
2.7075	1.8574
2.699	1.9895
2.6906	2.1273
2.6823	2.304
2.674	2.3233
2.6657	2.4807
2.6575	2.625
2.6494	2.6603
2.6413	2.7972
2.6332	2.919
2.6252	3.0015
2.6173	3.189
2.6094	3.0952
2.6015	3.1125
2.5937	3.363
2.5859	3.2377
2.5782	3.5079
2.5706	3.4837
2.5629	3.5437
2.5554	3.6151
2.5478	3.6189
2.5403	3.9724
2.5329	4.2881
2.5255	4.3454
2.5181	4.4548
2.5108	4.5705
2.5035	4.5328
2.4963	4.6212
2.4891	4.6321
2.482	4.7729
2.4749	4.6354
2.4678	4.4548
2.4608	4.5806
2.4538	4.4231
2.4468	4.6253
2.4399	4.9169
2.4331	4.8962
2.4262	5.0533
2.4194	5.4006
2.4127	5.5174
2.4059	5.9148
2.3993	6.2916
2.3926	6.8594
2.386	7.3346
2.3795	7.9911
2.3729	8.5629
2.3664	9.1012
2.36	9.8582
2.3535	10.7605
2.3471	11.1119
2.3408	11.5083
2.3345	12.1244
2.3282	12.4764
2.3219	13.0468
2.3157	13.3593
2.3095	13.4258
2.3034	13.2225
2.2972	13.3388
2.2911	13.1699
2.2851	13.1676
2.279	12.8923
2.2731	12.5581
2.2671	12.1998
2.2612	12.186
2.2553	11.9449
2.2494	11.2454
2.2435	10.7112
2.2377	10.2655
2.232	9.7346
2.2262	9.1103
2.2205	9.0224
2.2148	8.5963
2.2091	7.7771
2.2035	7.6531
2.1979	7.9402
2.1923	8.346
2.1868	8.4872
2.1812	8.6298
2.1758	8.6751
2.1703	9.1284
2.1649	9.0307
2.1595	9.567
2.1541	10.1602
2.1487	10.5631
2.1434	10.9192
2.1381	10.565
2.1328	10.3704
2.1275	9.1197
2.1223	8.3217
2.1171	7.5099
2.112	6.8854
2.1068	6.7316
2.1017	6.6774
2.0966	7.4765
2.0915	9.9486
2.0865	11.379
2.0814	12.496
2.0764	14.0712
2.0715	13.6511
2.0665	13.8974
2.0616	13.9738
2.0567	14.3325
2.0518	14.2286
2.0469	14.4887
2.0421	14.2045
2.0373	14.3694
2.0325	14.4244
2.0277	14.1437
2.0229	14.0665
2.0182	14.1358
2.0135	13.7763
2.0088	13.6535
2.0042	13.3741
