Name: Colemanite Ca_2B_6O_11.5H_2O
Type: Mineral
Class: Borate
Subclass: None
Particle Size: Fine
Sample No.: B-1A
Owner: JPL
Wavelength Range: VSWIR
Origin: USA, California, Kern County, Boron
Description: Particle size was 0-45um.Collected by Burminco Original ASTER Spectral Library name was jpl.beckman.mineral.borate.none.fine.b01.spectrum.txt
Measurement: Hemispherical reflectance
X Units: Wavelength (micrometers)
Y Units: Reflectance (percent)
wavelength	value
0.4	91.43
0.403	91.72
0.406	92.36
0.409	91.89
0.412	92.36
0.415	92.89
0.418	92.65
0.421	93.11
0.424	93.06
0.427	93.17
0.43	93.29
0.433	93.06
0.436	93.47
0.439	93.17
0.442	93.64
0.445	93.53
0.448	93.82
0.451	94.23
0.454	93.77
0.457	94.24
0.46	94.36
0.463	94.19
0.466	94.25
0.469	94.03
0.472	94.44
0.475	94.21
0.478	94.51
0.481	94.69
0.484	94.41
0.487	94.7
0.49	94.94
0.493	94.72
0.496	95.41
0.499	94.96
0.502	95.08
0.505	95.37
0.508	94.96
0.511	95.37
0.514	95.37
0.517	95.26
0.52	95.66
0.523	95.48
0.526	95.54
0.529	95.84
0.532	95.48
0.535	95.95
0.538	95.84
0.541	95.89
0.544	96.01
0.547	95.48
0.55	96.13
0.553	95.72
0.556	96.13
0.559	95.78
0.562	96.01
0.565	96.42
0.568	96.13
0.571	96.54
0.574	96.3
0.577	96.36
0.58	96.54
0.583	96.3
0.586	96.25
0.589	96.6
0.592	96.25
0.595	96.54
0.598	96.36
0.601	96.36
0.604	97.12
0.607	96.94
0.61	97.17
0.613	97.17
0.616	97
0.619	97.29
0.622	97.29
0.625	97.29
0.628	97.41
0.631	96.94
0.634	97.23
0.637	97.47
0.64	97.12
0.643	97.29
0.646	97.06
0.649	97.29
0.652	97.76
0.655	96.94
0.658	97.59
0.661	97.47
0.664	97.59
0.667	98.06
0.67	97.53
0.673	97.35
0.676	97.59
0.679	97
0.682	97.47
0.685	97.76
0.688	97.41
0.691	97.88
0.694	97.76
0.697	97.76
0.7	97.53
0.703	97.64
0.706	97.53
0.709	97.7
0.712	97.47
0.715	97.47
0.718	97.53
0.721	97.23
0.724	97.7
0.727	97.29
0.73	97.41
0.733	97.59
0.736	97.29
0.739	97.53
0.742	97.23
0.745	97.29
0.748	97.47
0.751	97.17
0.754	97.29
0.757	97.17
0.76	97.12
0.763	97.59
0.766	97.17
0.769	97.41
0.772	97.41
0.775	97.17
0.778	97.88
0.781	97.53
0.784	97.29
0.787	97.59
0.79	97.29
0.793	97.35
0.796	97.53
0.799	97
0.808	97.06
0.82	96.89
0.832	96.89
0.844	96.94
0.856	97
0.868	97
0.88	96.89
0.892	96.94
0.904	96.77
0.916	96.77
0.928	96.66
0.94	96.66
0.952	96.13
0.964	94.96
0.976	94.91
0.988	95.95
1	96.19
1.012	96.25
1.024	96.42
1.036	96.66
1.048	96.6
1.06	96.6
1.072	96.54
1.084	96.54
1.096	96.3
1.108	96.3
1.12	96.25
1.132	96.25
1.144	95.89
1.156	95.59
1.168	95.16
1.18	94.49
1.192	94.65
1.204	94.57
1.216	94.29
1.228	93.94
1.24	93.94
1.252	93.99
1.264	93.91
1.276	93.77
1.288	93.4
1.3	93.2
1.312	92.49
1.324	91.81
1.336	90.98
1.348	90.84
1.36	90.2
1.372	89.33
1.384	87.41
1.396	84.26
1.408	77.18
1.42	68.18
1.432	75.18
1.444	77.24
1.456	77.83
1.468	79.11
1.48	79.7
1.492	79.46
1.504	78.87
1.516	77.89
1.528	76.9
1.54	75.62
1.552	74.81
1.564	74.57
1.576	74.86
1.588	74.92
1.6	74.34
1.612	73.45
1.624	72.09
1.636	71.03
1.648	70.07
1.66	69.65
1.672	69.7
1.684	69.96
1.696	70.25
1.708	70.59
1.72	70.99
1.732	71.11
1.744	71.05
1.756	70.76
1.768	70.65
1.78	70.53
1.792	70.71
1.804	70.51
1.816	70.55
1.828	70.55
1.84	70.59
1.852	70.36
1.864	70.04
1.876	69.34
1.888	68.33
1.9	66.76
1.912	64.66
1.924	61.82
1.936	58.4
1.948	55.61
1.96	54.59
1.972	54.73
1.984	55.43
1.996	56.03
2.008	56.61
2.02	57.27
2.032	57.72
2.044	58.02
2.056	57.97
2.068	57.67
2.08	55.33
2.092	50.43
2.104	46.33
2.116	47.12
2.128	50.59
2.14	52.78
2.152	52.17
2.164	50.79
2.176	49.89
2.188	48.9
2.2	48.27
2.212	48.8
2.224	50.56
2.236	52.19
2.248	53.77
2.26	55.15
2.272	56.06
2.284	56.56
2.296	56.8
2.308	56.77
2.32	56.18
2.332	55.3
2.344	54.23
2.356	52.46
2.368	50.36
2.38	47.98
2.392	45.44
2.404	43.3
2.416	41.87
2.428	40.68
2.44	39.93
2.452	39.36
2.464	39.23
2.476	39.28
2.488	39.33
2.5	39.21
