Name: Olivine (Fo92) (Fe+2,Mg)2SiO4
Type: Mineral
Class: Silicate
Subclass: Nesosilicate
Particle Size: Solid
Sample No.: olivine_13
Owner: JHU
Wavelength Range: TIR
Origin: Rockport, Massachusetts via the Smithsonian (sample no.NMNH R3517)
Description: The sample was a large black fragment. Millimeter-wide serpentine (?) veins traversed the sample, which were discarded during initial sample crushing. Finer veins and light iron staining were too abundant to remove. Microscopic examination showed contamination by 1% magnetite inclusions and <1% limonitic material. The fayalite itself also seems to contain fluid inclusions. (Isolated tetrahedra); (Olivine Group) Original ASTER Spectral Library name was jhu.nicolet.mineral.silicate.nesosilicate.solid.olivin13.spectrum.txt
Measurement: Bidirectional reflectance
X Units: Wavelength (micrometers)
Y Units: Reflectance (percent)
wavelength	value
25.0442	5.6973
24.3388	5.6731
23.6719	6.2312
23.0407	6.8379
22.4422	7.667
21.8741	8.7817
21.334	11.7055
20.8199	12.9878
20.33	13.6833
19.8627	14.3027
19.4163	13.9116
18.9896	11.9233
18.5812	8.9038
18.19	7.001
17.815	8.0808
17.4551	8.8564
17.1094	9.0051
16.7772	7.6811
16.4576	5.0627
16.15	3.72
15.8537	3.967
15.568	4.1475
15.2925	4.4253
15.0265	4.5183
14.7697	4.6382
14.5214	4.779
14.2814	4.9565
14.0492	5.0178
13.8244	5.1164
13.6067	5.249
13.3957	5.4092
13.1912	5.6042
12.9929	5.8359
12.8004	5.959
12.6135	6.1777
12.432	6.5376
12.2557	6.9717
12.0843	8.0117
11.9176	7.2014
11.7555	8.884
11.5977	11.5949
11.444	13.1296
11.2944	14.3112
11.1487	16.0568
11.0067	16.281
10.8682	11.6186
10.7332	11.8659
10.6015	16.4585
10.473	15.4069
10.3476	11.063
10.2251	10.8078
10.1056	11.1977
9.9887	11.6574
9.8746	11.6162
9.763	10.5456
9.6539	8.5512
9.5472	6.0698
9.4429	4.071
9.3408	3.4006
9.2409	3.4194
9.1431	3.634
9.0474	3.5176
8.9536	3.2964
8.8618	3.4121
8.7718	3.5298
8.6837	3.5225
8.5973	3.3796
8.5126	3.3013
8.4295	3.2685
8.3481	3.2727
8.2682	3.3232
8.1898	3.3723
8.1129	3.4216
8.0374	3.4744
7.9634	3.5234
7.8906	3.5845
7.8192	3.6465
7.7491	3.6904
7.6802	3.7463
7.6126	3.7939
7.5461	3.8347
7.4807	3.8667
7.4165	3.9053
7.3534	3.936
7.2914	3.9521
7.2303	3.9709
7.1703	3.9863
7.1113	4.0181
7.0533	4.0222
6.9962	4.0471
6.94	4.0662
6.8847	4.0798
6.8302	4.0901
6.7767	4.1035
6.7239	4.123
6.672	4.1218
6.6209	4.1338
6.5705	4.1372
6.5209	4.1662
6.4721	4.1775
6.424	4.1802
6.3766	4.2217
6.3299	4.241
6.2838	4.2517
6.2385	4.2705
6.1937	4.2588
6.1496	4.2605
6.1062	4.2493
6.0633	4.2576
6.0211	4.2729
5.9794	4.2754
5.9383	4.26
5.8978	4.2698
5.8578	4.3015
5.8184	4.2876
5.7794	4.302
5.741	4.2986
5.7031	4.2939
5.6657	4.3059
5.6288	4.314
5.5924	4.3223
5.5564	4.3242
5.5209	4.3435
5.4859	4.3459
5.4513	4.362
5.4171	4.3672
5.3833	4.3769
5.35	4.3696
5.3171	4.3955
5.2846	4.4138
5.2524	4.4219
5.2207	4.4162
5.1893	4.4377
5.1584	4.4465
5.1277	4.4634
5.0975	4.467
5.0676	4.4697
5.038	4.4719
5.0088	4.4741
4.98	4.4712
4.9514	4.4888
4.9232	4.4919
4.8953	4.5
4.8678	4.4988
4.8405	4.52
4.8135	4.5261
4.7868	4.5393
4.7605	4.541
4.7344	4.5508
4.7086	4.5554
4.6831	4.5662
4.6578	4.5676
4.6328	4.5781
4.6081	4.5869
4.5837	4.5984
4.5595	4.6055
4.5356	4.615
4.5119	4.6225
4.4884	4.6267
4.4652	4.6355
4.4423	4.6372
4.4196	4.6582
4.3971	4.6643
4.3748	4.6745
4.3528	4.6782
4.331	4.697
4.3094	4.7016
4.288	4.7034
4.2668	4.7146
4.2458	4.718
4.2251	4.7307
4.2045	4.7388
4.1841	4.7554
4.164	4.7634
4.144	4.7737
4.1242	4.7761
4.1046	4.7847
4.0852	4.79
4.066	4.7939
4.047	4.8037
4.0281	4.8186
4.0094	4.8191
3.9909	4.8269
3.9725	4.8491
3.9544	4.8423
3.9363	4.8537
3.9185	4.8796
3.9008	4.8801
3.8833	4.8931
3.8659	4.897
3.8487	4.9087
3.8316	4.916
3.8147	4.9309
3.7979	4.9353
3.7813	4.9397
3.7648	4.9541
3.7485	4.9497
3.7323	4.9756
3.7162	4.9744
3.7003	4.9792
3.6845	4.9875
3.6689	4.9873
3.6534	4.9883
3.638	5.0122
3.6227	5.0049
3.6076	5.0068
3.5926	5.0188
3.5777	5.0393
3.563	5.053
3.5484	5.0344
3.5338	5.0603
3.5195	5.0561
3.5052	5.0769
3.491	5.0759
3.477	5.0835
3.463	5.0991
3.4492	5.1201
3.4355	5.1077
3.4219	5.124
3.4084	5.1189
3.395	5.1018
3.3817	5.1233
3.3685	5.1299
3.3554	5.1257
3.3425	5.1247
3.3296	5.1282
3.3168	5.1277
3.3041	5.1489
3.2915	5.1506
3.279	5.1521
3.2666	5.1609
3.2543	5.1423
3.2421	5.1443
3.23	5.1543
3.218	5.1504
3.206	5.1662
3.1942	5.1531
3.1824	5.1597
3.1707	5.1533
3.1591	5.1631
3.1476	5.1682
3.1362	5.1477
3.1249	5.1401
3.1136	5.1487
3.1024	5.1543
3.0913	5.1413
3.0803	5.1504
3.0694	5.1384
3.0585	5.1286
3.0477	5.1504
3.037	5.1377
3.0264	5.1138
3.0158	5.103
3.0053	5.0852
2.9949	5.0876
2.9845	5.093
2.9743	5.0642
2.9641	5.064
2.9539	5.0525
2.9439	5.0354
2.9339	5.0493
2.9239	5.0229
2.9141	5.0144
2.9043	5.0349
2.8946	5.0439
2.8849	5.0203
2.8753	5.0078
2.8658	5.032
2.8563	5.0019
2.8469	4.989
2.8375	4.9385
2.8282	4.887
2.819	4.8413
2.8098	4.8035
2.8007	4.7771
2.7917	4.7441
2.7827	4.7185
2.7738	4.7007
2.7649	4.6291
2.7561	4.6582
2.7473	4.769
2.7386	4.9983
2.7299	5.2698
2.7213	5.3403
2.7128	5.3982
2.7043	5.4128
2.6959	5.3911
2.6875	5.4177
2.6791	5.415
2.6709	5.3865
2.6626	5.3938
2.6545	5.414
2.6463	5.4136
2.6382	5.4126
2.6302	5.3701
2.6222	5.4238
2.6143	5.395
2.6064	5.3738
2.5986	5.4285
2.5908	5.4336
2.583	5.4116
2.5753	5.4321
2.5677	5.4236
2.5601	5.4321
2.5525	5.4067
2.545	5.4287
2.5375	5.4346
2.5301	5.4475
2.5227	5.4333
2.5154	5.4394
2.5081	5.4402
2.5008	5.4534
2.4936	5.4775
2.4864	5.4609
2.4793	5.4702
2.4722	5.499
2.4651	5.4736
2.4581	5.5049
2.4511	5.4936
2.4442	5.4848
2.4373	5.4897
2.4305	5.499
2.4236	5.5366
2.4169	5.5556
2.4101	5.5591
2.4034	5.5708
2.3967	5.5376
2.3901	5.5381
2.3835	5.5605
2.377	5.5693
2.3704	5.5549
2.364	5.5718
2.3575	5.5286
2.3511	5.5508
2.3447	5.5437
2.3384	5.5513
2.3321	5.5635
2.3258	5.5576
2.3195	5.5691
2.3133	5.5823
2.3071	5.5683
2.301	5.6081
2.2949	5.6492
2.2888	5.6035
2.2828	5.5896
2.2767	5.6196
2.2708	5.6142
2.2648	5.6367
2.2589	5.6474
2.253	5.6426
2.2471	5.6301
2.2413	5.6506
2.2355	5.6955
2.2297	5.6623
2.224	5.6645
2.2183	5.7065
2.2126	5.7036
2.207	5.6789
2.2013	5.6777
2.1957	5.6855
2.1902	5.6821
2.1846	5.6806
2.1791	5.7275
2.1736	5.7051
2.1682	5.7356
2.1628	5.6741
2.1574	5.7278
2.152	5.6877
2.1466	5.7256
2.1413	5.7024
2.136	5.7129
2.1308	5.7505
2.1255	5.7334
2.1203	5.7385
2.1151	5.7512
2.11	5.7532
2.1048	5.791
2.0997	5.8047
2.0946	5.7905
2.0895	5.7795
2.0845	5.7453
2.0795	5.7219
