Name: Galena PbS
Type: Mineral
Class: Sulfide
Subclass: None
Particle Size: Medium
Sample No.: S-7A
Owner: JPL
Wavelength Range: TIR
Origin: USA, Kansas, Cherokee County, Galena
Description: Particle size was 45-125um.Collected by Grieger's Inc. Original ASTER Spectral Library name was jpl.nicolet.mineral.sulfide.none.medium.s07a.spectrum.txt
Measurement: Hemispherical reflectance
X Units: Wavelength (micrometers)
Y Units: Reflectance (percent)
wavelength	value
15.3853	11.3498
15.1161	11.763
14.8563	11.8908
14.6052	12.3162
14.3624	12.0373
14.1276	12.1848
13.9004	12.5496
13.6803	12.536
13.4671	12.6912
13.2604	12.832
13.06	13.0169
12.8656	13.0235
12.6769	13.2525
12.4936	13.364
12.3155	13.2672
12.1425	13.5457
11.9742	13.6011
11.8106	13.6543
11.6513	13.6182
11.4963	13.7333
11.3454	13.8406
11.1983	13.9767
11.0551	13.9585
10.9154	14.2373
10.7793	14.3179
10.6465	14.3703
10.5169	14.4838
10.3904	14.4836
10.267	14.6205
10.1464	14.6928
10.0287	14.8652
9.9136	15.0774
9.8012	14.8974
9.6913	15.099
9.5838	15.2061
9.4787	15.2314
9.3758	15.2778
9.2752	15.0993
9.1767	15.2273
9.0803	15.2711
8.9858	15.5097
8.8934	15.5951
8.8028	15.4254
8.714	15.5077
8.627	15.696
8.5417	15.768
8.4581	15.944
8.3761	16.2179
8.2957	16.3432
8.2169	16.4671
8.1395	16.5636
8.0635	16.8624
7.989	16.9287
7.9158	17.0299
7.8439	17.1265
7.7734	17.1952
7.7041	17.2557
7.636	17.3362
7.5691	17.4094
7.5034	17.5154
7.4388	17.4337
7.3753	17.5414
7.3129	17.553
7.2515	17.7195
7.1912	17.8525
7.1318	17.952
7.0734	17.941
7.016	18.1658
6.9595	18.621
6.9039	18.4599
6.8492	18.5752
6.7953	18.994
6.7423	18.5315
6.6901	18.9589
6.6387	19.9799
6.5881	19.1853
6.5382	19.0934
6.4892	20.3829
6.4408	19.588
6.3931	19.419
6.3462	20.2634
6.2999	19.3674
6.2543	19.5054
6.2094	19.6153
6.1651	19.9991
6.1214	20.2271
6.0784	20.4568
6.0359	20.1901
5.994	20.4735
5.9527	20.1955
5.912	20.2798
5.8718	20.6415
5.8322	20.725
5.7931	20.258
5.7545	20.5199
5.7165	20.9336
5.6789	20.7501
5.6418	21.3209
5.6052	20.7912
5.5691	20.8862
5.5334	20.8266
5.4982	20.7588
5.4635	21.2048
5.4291	21.2121
5.3952	21.0754
5.3618	21.2683
5.3287	21.3617
5.2961	21.4127
5.2638	21.4292
5.2319	21.6346
5.2004	21.7188
5.1693	21.7499
5.1386	21.8102
5.1082	21.917
5.0782	21.8838
5.0485	21.9436
5.0192	22.0553
4.9902	22.0891
4.9616	22.1773
4.9332	22.2264
4.9052	22.2162
4.8776	22.4038
4.8502	22.4132
4.8231	22.4179
4.7963	22.5848
4.7699	22.6525
4.7437	22.7235
4.7178	22.7364
4.6922	22.6955
4.6668	22.8794
4.6418	22.8146
4.617	23.0157
4.5924	23.0812
4.5681	23.1301
4.5441	23.2066
4.5203	23.2617
4.4968	23.3376
4.4735	23.429
4.4505	23.5248
4.4277	23.4765
4.4051	23.516
4.3828	23.5671
4.3607	23.6294
4.3388	23.7296
4.3171	23.5344
4.2956	23.3277
4.2744	23.2376
4.2534	23.5771
4.2325	23.1954
4.2119	23.781
4.1915	24.1419
4.1712	24.0461
4.1512	24.1577
4.1313	24.2772
4.1117	24.4089
4.0922	24.3746
4.0729	24.4024
4.0538	24.4619
4.0349	24.4869
4.0161	24.4484
3.9976	24.5909
3.9792	24.4865
3.9609	24.5859
3.9428	24.5333
3.9249	24.6913
3.9072	24.6365
3.8896	24.8767
3.8722	24.8158
3.8549	24.903
3.8378	25.0772
3.8208	25.0033
3.804	24.9733
3.7873	25.1442
3.7708	25.0882
3.7544	25.2205
3.7382	25.2196
3.7221	25.2427
3.7061	25.2583
3.6903	25.158
3.6746	25.3558
3.659	25.3179
3.6436	25.3508
3.6283	25.3384
3.6131	25.3121
3.5981	25.2869
3.5832	25.2591
3.5684	25.2763
3.5537	25.2012
3.5391	25.2011
3.5247	25.27
3.5104	25.1437
3.4962	24.9879
3.4821	25.0032
3.4681	24.8388
3.4543	24.887
3.4405	24.7605
3.4269	24.6399
3.4133	24.5701
3.3999	24.5342
3.3866	24.2582
3.3733	24.2704
3.3602	23.9948
3.3472	23.7831
3.3343	23.7227
3.3215	23.5145
3.3088	23.4376
3.2961	23.3273
3.2836	22.9381
3.2712	22.758
3.2588	22.5506
3.2466	22.356
3.2345	21.9931
3.2224	21.6816
3.2104	21.4126
3.1985	20.9844
3.1867	20.7765
3.175	20.3791
3.1634	20.0974
3.1519	19.7506
3.1404	19.3793
3.129	18.9277
3.1178	18.6996
3.1065	18.3499
3.0954	17.79
3.0844	17.6172
3.0734	17.545
3.0625	17.1749
3.0517	17.093
3.041	16.7811
3.0303	16.6268
3.0197	16.4777
3.0092	16.5903
2.9987	16.3416
2.9884	16.3389
2.9781	16.0997
2.9678	16.2921
2.9577	16.1527
2.9476	16.1091
2.9376	16.1698
2.9276	15.9257
2.9177	16.0549
2.9079	16.0334
2.8982	15.9137
2.8885	16.0196
2.8789	15.8738
2.8693	15.8459
2.8598	15.9701
2.8504	16.0579
2.841	15.8745
2.8317	15.9072
2.8224	15.9116
2.8133	15.9772
2.8041	16.0318
2.7951	15.7524
2.786	16.2226
2.7771	15.769
2.7682	15.9393
2.7594	15.9914
2.7506	15.776
2.7418	16.0315
2.7332	15.9066
2.7246	16.1506
2.716	15.5779
2.7075	15.7818
2.699	15.6984
2.6906	15.677
2.6823	15.6924
2.674	15.9474
2.6657	16.3893
2.6575	15.6142
2.6494	15.6799
2.6413	15.7978
2.6332	15.6874
2.6252	15.8523
2.6173	15.8287
2.6094	15.7664
2.6015	15.6143
2.5937	16.2878
2.5859	15.7149
2.5782	15.5875
2.5706	15.6903
2.5629	15.8567
2.5554	15.3884
2.5478	15.5005
2.5403	15.692
2.5329	15.4524
2.5255	15.3823
2.5181	15.34
2.5108	15.4991
2.5035	15.3724
2.4963	15.505
2.4891	15.0973
2.482	15.3839
2.4749	15.451
2.4678	15.2296
2.4608	15.4366
2.4538	15.3472
2.4468	15.3278
2.4399	15.332
2.4331	15.3746
2.4262	15.2629
2.4194	15.3145
2.4127	15.2159
2.4059	15.2975
2.3993	15.4319
2.3926	15.3691
2.386	15.304
2.3795	15.4977
2.3729	15.2678
2.3664	15.259
2.36	15.1925
2.3535	15.2487
2.3471	15.1596
2.3408	15.3164
2.3345	15.1863
2.3282	15.1414
2.3219	15.3621
2.3157	15.3792
2.3095	15.1669
2.3034	15.2336
2.2972	15.2012
2.2911	15.3673
2.2851	15.2907
2.279	15.1231
2.2731	15.1204
2.2671	15.209
2.2612	15.3569
2.2553	15.3568
2.2494	15.2636
2.2435	15.2612
2.2377	15.2914
2.232	15.2574
2.2262	15.214
2.2205	15.0559
2.2148	15.3193
2.2091	15.4003
2.2035	15.2495
2.1979	15.1601
2.1923	15.3135
2.1868	15.4224
2.1812	15.2049
2.1758	15.4396
2.1703	14.9653
2.1649	15.1546
2.1595	15.1782
2.1541	15.0229
2.1487	15.2525
2.1434	14.9984
2.1381	15.1483
2.1328	15.0442
2.1275	15.5068
2.1223	15.3066
2.1171	15.1023
2.112	15.2609
2.1068	15.3854
2.1017	15.1722
2.0966	15.2982
2.0915	15.1981
2.0865	15.5329
2.0814	15.4141
2.0764	15.4361
2.0715	15.5722
2.0665	15.3435
2.0616	15.4477
2.0567	14.9789
2.0518	15.2404
2.0469	15.1469
2.0421	15.3738
2.0373	14.9716
2.0325	15.2226
2.0277	15.1057
2.0229	15.4238
2.0182	15.3018
2.0135	15.1608
2.0088	15.3857
2.0042	15.0098
