Name: Prehnite Ca2Al2Si3O10(OH)2
Type: Mineral
Class: Silicate
Subclass: Phyllosilicate
Particle Size: Solid
Sample No.: prehnite_1
Owner: JHU
Wavelength Range: TIR
Origin: Paterson, New Jersey, USA via Norma Vergo
Description: The sample consisted of a cluster of light green, translucent crystals weighing about 14 g. Purity appeared high in hand sample and under the microscope.(Sheet Silicates); (Chlorite Group) Original ASTER Spectral Library name was jhu.nicolet.mineral.silicate.phyllosilicate.solid.prehni1.spectrum.txt
Measurement: Bidirectional reflectance
X Units: Wavelength (micrometers)
Y Units: Reflectance (percent)
wavelength	value
25.0442	8.7805
24.3388	7.9848
23.6719	7.6499
23.0407	7.4824
22.4422	6.8642
21.8741	6.9599
21.334	8.2104
20.8199	10.1528
20.33	10.5046
19.8627	8.0928
19.4163	7.9175
18.9896	7.6909
18.5812	8.0952
18.19	8.0259
17.815	5.0693
17.4551	1.7478
17.1094	0.8445
16.7772	1.1758
16.4576	1.6045
16.15	1.9831
15.8537	2.3066
15.568	2.4028
15.2925	2.7331
15.0265	2.9101
14.7697	3.1431
14.5214	3.4568
14.2814	3.8132
14.0492	4.2432
13.8244	5.0168
13.6067	6.6023
13.3957	7.509
13.1912	8.1282
12.9929	7.6577
12.8004	3.3906
12.6135	3.2002
12.432	3.5764
12.2557	4.3264
12.0843	2.7065
11.9176	2.3003
11.7555	2.667
11.5977	3.1711
11.444	3.4231
11.2944	3.6716
11.1487	4.3752
11.0067	5.5815
10.8682	7.509
10.7332	8.5874
10.6015	7.8989
10.473	6.6853
10.3476	5.6128
10.2251	7.6045
10.1056	9.6892
9.9887	10.2507
9.8746	10.9677
9.763	11.6421
9.6539	9.6133
9.5472	6.3122
9.4429	5.8972
9.3408	9.9829
9.2409	13.2548
9.1431	12.9355
9.0474	12.6513
8.9536	11.8137
8.8618	9.834
8.7718	8.0984
8.6837	5.8093
8.5973	3.2905
8.5126	1.3943
8.4295	0.5168
8.3481	0.2815
8.2682	0.3298
8.1898	0.4363
8.1129	0.5427
8.0374	0.6489
7.9634	0.7554
7.8906	0.8618
7.8192	0.9539
7.7491	1.0381
7.6802	1.1221
7.6126	1.2061
7.5461	1.2712
7.4807	1.3345
7.4165	1.3865
7.3534	1.4314
7.2914	1.4746
7.2303	1.5164
7.1703	1.5522
7.1113	1.5808
7.0533	1.6094
6.9962	1.6331
6.94	1.6663
6.8847	1.6885
6.8302	1.7092
6.7767	1.7405
6.7239	1.769
6.672	1.792
6.6209	1.8098
6.5705	1.8113
6.5209	1.8308
6.4721	1.8303
6.424	1.8469
6.3766	1.8828
6.3299	1.9402
6.2838	1.9866
6.2385	2.0142
6.1937	2.0342
6.1496	2.0591
6.1062	2.0703
6.0633	2.0876
6.0211	2.0947
5.9794	2.0945
5.9383	2.0862
5.8978	2.0898
5.8578	2.0862
5.8184	2.0891
5.7794	2.1201
5.741	2.1367
5.7031	2.1602
5.6657	2.1702
5.6288	2.1963
5.5924	2.2244
5.5564	2.2417
5.5209	2.2471
5.4859	2.2214
5.4513	2.2053
5.4171	2.2324
5.3833	2.2624
5.35	2.3005
5.3171	2.3596
5.2846	2.4123
5.2524	2.4636
5.2207	2.4985
5.1893	2.5056
5.1584	2.5073
5.1277	2.5061
5.0975	2.5295
5.0676	2.5593
5.038	2.5859
5.0088	2.605
4.98	2.6287
4.9514	2.6538
4.9232	2.6897
4.8953	2.7153
4.8678	2.7439
4.8405	2.7634
4.8135	2.781
4.7868	2.7905
4.7605	2.803
4.7344	2.8274
4.7086	2.8472
4.6831	2.8591
4.6578	2.8718
4.6328	2.8918
4.6081	2.9043
4.5837	2.9285
4.5595	2.9409
4.5356	2.9504
4.5119	2.9607
4.4884	2.9788
4.4652	2.988
4.4423	3.0071
4.4196	3.0234
4.3971	3.0332
4.3748	3.043
4.3528	3.0539
4.331	3.062
4.3094	3.0693
4.288	3.0786
4.2668	3.0879
4.2458	3.104
4.2251	3.1123
4.2045	3.114
4.1841	3.1186
4.164	3.1282
4.144	3.1323
4.1242	3.1318
4.1046	3.1479
4.0852	3.1518
4.066	3.1606
4.047	3.1645
4.0281	3.1667
4.0094	3.1675
3.9909	3.1767
3.9725	3.177
3.9544	3.1865
3.9363	3.1941
3.9185	3.1999
3.9008	3.2014
3.8833	3.1929
3.8659	3.1921
3.8487	3.1987
3.8316	3.2063
3.8147	3.2058
3.7979	3.2168
3.7813	3.2244
3.7648	3.2305
3.7485	3.2205
3.7323	3.2207
3.7162	3.2258
3.7003	3.2268
3.6845	3.218
3.6689	3.2209
3.6534	3.2163
3.638	3.2207
3.6227	3.2312
3.6076	3.2371
3.5926	3.2392
3.5777	3.239
3.563	3.2544
3.5484	3.2595
3.5338	3.2629
3.5195	3.2671
3.5052	3.2768
3.491	3.2859
3.477	3.2905
3.463	3.2925
3.4492	3.2932
3.4355	3.2859
3.4219	3.2778
3.4084	3.2832
3.395	3.2847
3.3817	3.2866
3.3685	3.2817
3.3554	3.282
3.3425	3.269
3.3296	3.2519
3.3168	3.2429
3.3041	3.238
3.2915	3.2327
3.279	3.2314
3.2666	3.2288
3.2543	3.2314
3.2421	3.2143
3.23	3.207
3.218	3.1965
3.206	3.1829
3.1942	3.1577
3.1824	3.1357
3.1707	3.1328
3.1591	3.1323
3.1476	3.1306
3.1362	3.1245
3.1249	3.1155
3.1136	3.0964
3.1024	3.0991
3.0913	3.0918
3.0803	3.0908
3.0694	3.0842
3.0585	3.0769
3.0477	3.0432
3.037	3.0215
3.0264	2.9895
3.0158	2.9521
3.0053	2.8872
2.9949	2.8369
2.9845	2.8157
2.9743	2.8122
2.9641	2.8049
2.9539	2.7971
2.9439	2.8074
2.9339	2.8191
2.9239	2.7302
2.9141	2.5876
2.9043	2.4341
2.8946	2.3203
2.8849	2.2698
2.8753	2.3323
2.8658	2.4185
2.8563	1.967
2.8469	1.9792
2.8375	2.3215
2.8282	2.5437
2.819	2.6311
2.8098	2.667
2.8007	2.6794
2.7917	2.6789
2.7827	2.6948
2.7738	2.7273
2.7649	2.779
2.7561	2.8428
2.7473	2.9131
2.7386	2.937
2.7299	2.9851
2.7213	2.9997
2.7128	3.0466
2.7043	3.062
2.6959	3.102
2.6875	3.0947
2.6791	3.0886
2.6709	3.092
2.6626	3.0903
2.6545	3.1147
2.6463	3.0959
2.6382	3.0796
2.6302	3.0647
2.6222	3.0232
2.6143	3.0151
2.6064	2.9922
2.5986	2.9936
2.5908	2.9724
2.583	2.9712
2.5753	2.9338
2.5677	2.937
2.5601	2.9272
2.5525	2.956
2.545	2.9785
2.5375	2.9609
2.5301	2.9399
2.5227	2.939
2.5154	2.9502
2.5081	2.9731
2.5008	2.9722
2.4936	2.977
2.4864	2.9624
2.4793	2.956
2.4722	2.9507
2.4651	2.959
2.4581	2.9809
2.4511	2.9775
2.4442	2.9849
2.4373	2.9512
2.4305	2.9243
2.4236	2.8845
2.4169	2.834
2.4101	2.7983
2.4034	2.792
2.3967	2.7583
2.3901	2.7371
2.3835	2.7209
2.377	2.7353
2.3704	2.731
2.364	2.6475
2.3575	2.636
2.3511	2.6577
2.3447	2.7007
2.3384	2.6875
2.3321	2.6946
2.3258	2.7473
2.3195	2.8557
2.3133	2.8955
2.3071	2.925
2.301	2.9048
2.2949	2.9084
2.2888	2.8935
2.2828	2.8965
2.2767	2.8652
2.2708	2.8735
2.2648	2.9036
2.2589	2.9153
2.253	2.9228
2.2471	2.8559
2.2413	2.8486
2.2355	2.8672
2.2297	2.8887
2.224	2.9228
2.2183	2.9641
2.2126	2.998
2.207	3.0071
2.2013	3.0498
2.1957	3.0713
2.1902	3.0762
2.1846	3.1155
2.1791	3.0879
2.1736	3.104
2.1682	3.1409
2.1628	3.1299
2.1574	3.1301
2.152	3.0937
2.1466	3.1389
2.1413	3.1514
2.136	3.1536
2.1308	3.1545
2.1255	3.1399
2.1203	3.133
2.1151	3.1406
2.11	3.175
2.1048	3.1995
2.0997	3.1858
2.0946	3.2275
2.0895	3.2207
2.0845	3.2463
2.0795	3.2617
