Name: Sillimanite Al_2SiO_5
Type: Mineral
Class: Silicate
Subclass: Nesosilicate
Particle Size: Fine
Sample No.: NS-8A
Owner: JPL
Wavelength Range: VSWIR
Origin: Australia, South Australia, Williamstown
Description: Particle size was 0-45um.Collected by Ward's Original ASTER Spectral Library name was jpl.beckman.mineral.silicate.nesosilicate.fine.ns08a.spectrum.txt
Measurement: Hemispherical reflectance
X Units: Wavelength (micrometers)
Y Units: Reflectance (percent)
wavelength	value
0.4	68.47
0.403	69.09
0.406	69.3
0.409	69.82
0.412	70.02
0.415	70.32
0.418	70.83
0.421	70.92
0.424	71.44
0.427	71.56
0.43	71.89
0.433	72.16
0.436	72.43
0.439	72.66
0.442	72.94
0.445	73.19
0.448	73.22
0.451	73.48
0.454	73.6
0.457	73.66
0.46	73.89
0.463	73.96
0.466	74.05
0.469	74.25
0.472	74.36
0.475	74.51
0.478	74.71
0.481	74.96
0.484	74.94
0.487	75.08
0.49	75.41
0.493	75.52
0.496	75.56
0.499	75.73
0.502	75.73
0.505	75.95
0.508	76.2
0.511	76.17
0.514	76.24
0.517	76.36
0.52	76.52
0.523	76.72
0.526	76.66
0.529	76.75
0.532	76.62
0.535	76.79
0.538	76.99
0.541	77.14
0.544	77.14
0.547	77.26
0.55	77.36
0.553	77.49
0.556	77.52
0.559	77.54
0.562	77.92
0.565	77.96
0.568	77.96
0.571	77.87
0.574	77.86
0.577	77.9
0.58	77.99
0.583	78.04
0.586	77.94
0.589	77.98
0.592	77.88
0.595	78.27
0.598	78.25
0.601	78.36
0.604	78.33
0.607	78.34
0.61	78.33
0.613	78.35
0.616	78.52
0.619	78.3
0.622	78.39
0.625	78.32
0.628	78.36
0.631	78.4
0.634	78.36
0.637	78.41
0.64	78.34
0.643	78.57
0.646	78.57
0.649	78.59
0.652	78.57
0.655	78.68
0.658	78.79
0.661	78.84
0.664	78.78
0.667	78.73
0.67	78.63
0.673	78.84
0.676	78.68
0.679	78.89
0.682	78.79
0.685	78.78
0.688	78.92
0.691	79.01
0.694	79.04
0.697	79.01
0.7	79.03
0.703	79.04
0.706	79.06
0.709	79.18
0.712	79.09
0.715	79.23
0.718	79.19
0.721	79.14
0.724	79.1
0.727	79.24
0.73	79.07
0.733	79.16
0.736	79.18
0.739	79.22
0.742	79.3
0.745	79.1
0.748	79.13
0.751	79.3
0.754	79.22
0.757	79.11
0.76	79.22
0.763	79.15
0.766	79.31
0.769	79.13
0.772	79.15
0.775	79.22
0.778	79.18
0.781	79.2
0.784	79.26
0.787	79.26
0.79	79.2
0.793	79.15
0.796	79.12
0.799	79.18
0.808	79.34
0.82	79.23
0.832	79.15
0.844	79.26
0.856	79.34
0.868	79.38
0.88	79.28
0.892	79.25
0.904	79.31
0.916	79.22
0.928	79.26
0.94	79.34
0.952	79.26
0.964	79.4
0.976	79.39
0.988	79.45
1	79.34
1.012	79.26
1.024	79.37
1.036	79.4
1.048	79.39
1.06	79.33
1.072	79.35
1.084	79.41
1.096	79.49
1.108	79.47
1.12	79.54
1.132	79.59
1.144	79.54
1.156	79.66
1.168	79.54
1.18	79.61
1.192	79.57
1.204	79.59
1.216	79.56
1.228	79.57
1.24	79.56
1.252	79.54
1.264	79.52
1.276	79.53
1.288	79.55
1.3	79.48
1.312	79.43
1.324	79.41
1.336	79.35
1.348	79.37
1.36	79.35
1.372	79.1
1.384	78.59
1.396	78.48
1.408	78.35
1.42	79
1.432	79.13
1.444	79.32
1.456	79.26
1.468	79.32
1.48	79.39
1.492	79.49
1.504	79.36
1.516	79.46
1.528	79.43
1.54	79.48
1.552	79.51
1.564	79.46
1.576	79.45
1.588	79.52
1.6	79.55
1.612	79.51
1.624	79.44
1.636	79.49
1.648	79.51
1.66	79.49
1.672	79.32
1.684	79.28
1.696	79.18
1.708	79.12
1.72	79
1.732	78.95
1.744	79.07
1.756	78.97
1.768	78.98
1.78	78.96
1.792	79.04
1.804	78.99
1.816	78.97
1.828	78.92
1.84	78.92
1.852	78.91
1.864	78.9
1.876	78.76
1.888	78.53
1.9	78.13
1.912	77.93
1.924	77.99
1.936	78.1
1.948	78.28
1.96	78.36
1.972	78.42
1.984	78.62
1.996	78.79
2.008	78.8
2.02	78.88
2.032	78.92
2.044	78.91
2.056	78.78
2.068	78.82
2.08	78.9
2.092	79.01
2.104	78.93
2.116	78.96
2.128	78.81
2.14	78.4
2.152	77.75
2.164	77.31
2.176	77.06
2.188	76.68
2.2	76.4
2.212	76.71
2.224	77.45
2.236	77.65
2.248	77.62
2.26	77.3
2.272	77
2.284	76.68
2.296	76.3
2.308	75.97
2.32	76.15
2.332	76.14
2.344	76.02
2.356	75.99
2.368	75.95
2.38	75.83
2.392	75.59
2.404	75.68
2.416	75.53
2.428	75.31
2.44	75.11
2.452	74.94
2.464	74.85
2.476	74.73
2.488	74.93
2.5	75.19
