Name: Bornite Cu_5FeS_4
Type: Mineral
Class: Sulfide
Subclass: None
Particle Size: Fine
Sample No.: S-9A
Owner: JPL
Wavelength Range: TIR
Origin: USA, Arizona, Pinal County, Superior, Magma Mine
Description: Particle size was 0-45um.Collected by Burminco Original ASTER Spectral Library name was jpl.nicolet.mineral.sulfide.none.fine.s09a.spectrum.txt
Measurement: Hemispherical reflectance
X Units: Wavelength (micrometers)
Y Units: Reflectance (percent)
wavelength	value
15.3853	10.1181
15.1161	10.0869
14.8563	10.1406
14.6052	10.2301
14.3624	10.2419
14.1276	10.343
13.9004	10.1162
13.6803	10.2976
13.4671	10.312
13.2604	10.334
13.06	10.1435
12.8656	10.3879
12.6769	10.1787
12.4936	10.3948
12.3155	10.5502
12.1425	10.3921
11.9742	10.3474
11.8106	10.434
11.6513	10.5421
11.4963	10.3787
11.3454	10.4561
11.1983	10.357
11.0551	10.5129
10.9154	10.534
10.7793	10.5703
10.6465	10.5227
10.5169	10.6221
10.3904	10.6095
10.267	10.6307
10.1464	10.5421
10.0287	10.6358
9.9136	10.6616
9.8012	10.6284
9.6913	10.7117
9.5838	10.879
9.4787	10.6473
9.3758	10.9761
9.2752	11.0037
9.1767	10.9728
9.0803	11.1062
8.9858	11.1131
8.8934	11.1942
8.8028	11.0206
8.714	11.0531
8.627	10.9143
8.5417	11.0305
8.4581	10.9774
8.3761	11.0941
8.2957	11.1262
8.2169	10.945
8.1395	11.0359
8.0635	10.9207
7.989	10.9059
7.9158	10.9817
7.8439	10.8213
7.7734	10.9816
7.7041	10.8998
7.636	10.8433
7.5691	10.961
7.5034	10.9462
7.4388	10.8848
7.3753	10.8092
7.3129	10.8406
7.2515	10.8739
7.1912	10.9149
7.1318	10.9884
7.0734	10.9478
7.016	10.9282
6.9595	11.2015
6.9039	11.0816
6.8492	10.9845
6.7953	11.0869
6.7423	10.9464
6.6901	11.0769
6.6387	11.488
6.5881	11.1811
6.5382	11.0835
6.4892	11.4633
6.4408	11.0914
6.3931	11.0739
6.3462	11.1514
6.2999	11.0258
6.2543	10.9033
6.2094	10.9373
6.1651	11.055
6.1214	11.1921
6.0784	11.2118
6.0359	11.0836
5.994	11.1356
5.9527	10.998
5.912	11.0043
5.8718	11.0116
5.8322	11.1412
5.7931	10.8724
5.7545	10.9613
5.7165	10.9519
5.6789	11.0104
5.6418	11.1346
5.6052	10.8539
5.5691	10.8465
5.5334	10.8205
5.4982	10.8668
5.4635	10.8917
5.4291	10.9285
5.3952	10.8344
5.3618	10.9336
5.3287	10.907
5.2961	11.0076
5.2638	10.8575
5.2319	10.9339
5.2004	10.9572
5.1693	10.9325
5.1386	10.8805
5.1082	10.9537
5.0782	11.0319
5.0485	10.9087
5.0192	10.9639
4.9902	10.9096
4.9616	11.0087
4.9332	10.9173
4.9052	11.0258
4.8776	11.0441
4.8502	10.9917
4.8231	11.0543
4.7963	10.9842
4.7699	11.0242
4.7437	11.0454
4.7178	11.058
4.6922	11.0718
4.6668	10.9366
4.6418	11.0086
4.617	11.0968
4.5924	10.9783
4.5681	11.0129
4.5441	11.0123
4.5203	11.0029
4.4968	11.0678
4.4735	11.0944
4.4505	10.9955
4.4277	11.0867
4.4051	11.0619
4.3828	10.9725
4.3607	10.9535
4.3388	11.0668
4.3171	10.9506
4.2956	10.9638
4.2744	10.9925
4.2534	11.0583
4.2325	10.9921
4.2119	10.968
4.1915	11.0265
4.1712	11.0905
4.1512	11.0643
4.1313	11.0946
4.1117	11.078
4.0922	11.0478
4.0729	11.0106
4.0538	11.0132
4.0349	11.1067
4.0161	10.9999
3.9976	11.0999
3.9792	10.9799
3.9609	11.0195
3.9428	10.9568
3.9249	11.0581
3.9072	11.0057
3.8896	11.1062
3.8722	11.2062
3.8549	11.0604
3.8378	11.1886
3.8208	10.9513
3.804	11.057
3.7873	11.0676
3.7708	11.0701
3.7544	11.0823
3.7382	11.1438
3.7221	11.1008
3.7061	11.0997
3.6903	11.1053
3.6746	11.059
3.659	11.1557
3.6436	11.1366
3.6283	11.2021
3.6131	11.1151
3.5981	11.1373
3.5832	11.035
3.5684	11.1775
3.5537	11.1145
3.5391	11.0431
3.5247	11.1191
3.5104	11.2203
3.4962	11.2329
3.4821	11.1551
3.4681	11.1065
3.4543	11.0368
3.4405	11.0542
3.4269	11.2391
3.4133	11.1322
3.3999	11.2122
3.3866	11.2764
3.3733	11.3166
3.3602	11.0635
3.3472	11.1556
3.3343	11.2243
3.3215	11.0706
3.3088	11.1591
3.2961	11.0994
3.2836	11.1936
3.2712	11.1599
3.2588	11.2902
3.2466	11.0535
3.2345	10.9505
3.2224	11.2464
3.2104	11.1709
3.1985	11.1173
3.1867	11.1644
3.175	11.2237
3.1634	11.2179
3.1519	11.1432
3.1404	11.1527
3.129	11.1894
3.1178	11.1916
3.1065	11.2667
3.0954	11.1498
3.0844	11.1515
3.0734	11.0958
3.0625	11.3766
3.0517	11.0709
3.041	11.3202
3.0303	11.2195
3.0197	11.3102
3.0092	11.2665
2.9987	11.0343
2.9884	11.1986
2.9781	11.2566
2.9678	11.0613
2.9577	11.1157
2.9476	11.2011
2.9376	11.3107
2.9276	11.109
2.9177	11.1374
2.9079	11.2672
2.8982	11.0928
2.8885	11.3332
2.8789	11.2906
2.8693	11.2123
2.8598	11.0077
2.8504	11.2888
2.841	11.3208
2.8317	11.2695
2.8224	11.2015
2.8133	11.048
2.8041	11.1864
2.7951	10.89
2.786	11.2782
2.7771	11.4544
2.7682	11.2862
2.7594	11.1295
2.7506	10.9803
2.7418	11.1318
2.7332	11.1225
2.7246	11.1623
2.716	11.0776
2.7075	11.1753
2.699	11.0442
2.6906	11.0515
2.6823	11.1774
2.674	11.0278
2.6657	11.561
2.6575	11.0834
2.6494	11.0998
2.6413	11.0599
2.6332	11.0452
2.6252	11.0113
2.6173	11.2741
2.6094	11.1471
2.6015	11.0039
2.5937	11.531
2.5859	10.9336
2.5782	11.1044
2.5706	11.0518
2.5629	11.2133
2.5554	10.9373
2.5478	11.2004
2.5403	10.9958
2.5329	11.05
2.5255	11.0547
2.5181	11.0105
2.5108	10.9159
2.5035	11.0676
2.4963	10.9824
2.4891	11.1289
2.482	10.9667
2.4749	10.9831
2.4678	11.1253
2.4608	11.2586
2.4538	10.9903
2.4468	11.0534
2.4399	11.137
2.4331	10.9984
2.4262	10.9424
2.4194	11.1206
2.4127	11.1749
2.4059	11.1174
2.3993	11.0769
2.3926	11.0515
2.386	11.203
2.3795	11.2356
2.3729	11.0453
2.3664	11.162
2.36	11.1731
2.3535	11.1953
2.3471	11.1505
2.3408	10.9858
2.3345	11.198
2.3282	11.1132
2.3219	10.9499
2.3157	10.8848
2.3095	10.9325
2.3034	11.1226
2.2972	11.0581
2.2911	11.1436
2.2851	11.0633
2.279	11.2027
2.2731	11.0988
2.2671	10.9246
2.2612	11.0056
2.2553	11.2134
2.2494	11.1443
2.2435	11.2141
2.2377	11.1333
2.232	11.209
2.2262	11.0964
2.2205	11.1528
2.2148	11.0133
2.2091	11.1344
2.2035	11.1352
2.1979	10.9376
2.1923	10.9523
2.1868	11.1337
2.1812	10.8299
2.1758	11.1374
2.1703	11.2659
2.1649	10.9448
2.1595	11.3256
2.1541	11.0048
2.1487	10.9366
2.1434	11.1385
2.1381	10.9963
2.1328	11.1185
2.1275	10.8659
2.1223	11.0117
2.1171	11.402
2.112	11.0914
2.1068	10.7512
2.1017	11.284
2.0966	11.4065
2.0915	11.0046
2.0865	10.92
2.0814	10.9851
2.0764	10.9928
2.0715	10.9805
2.0665	11.0348
2.0616	11.3577
2.0567	11.0278
2.0518	11.2613
2.0469	10.8754
2.0421	11.1875
2.0373	10.8778
2.0325	11.2234
2.0277	11.1701
2.0229	11.2633
2.0182	10.9626
2.0135	10.8052
2.0088	10.8657
2.0042	11.0456
