Name: Barite BaSO_4
Type: Mineral
Class: Sulfate
Subclass: None
Particle Size: Fine
Sample No.: SO-3A
Owner: JPL
Wavelength Range: TIR
Origin: USA, South Carolina, Cherokee County, Kings Creek
Description: Particle size was 0-45um.Collected by Ward's Original ASTER Spectral Library name was jpl.nicolet.mineral.sulfate.none.fine.so03a.spectrum.txt
Measurement: Hemispherical reflectance
X Units: Wavelength (micrometers)
Y Units: Reflectance (percent)
wavelength	value
15.3853	2.9999
15.1161	4.1538
14.8563	14.3837
14.6052	24.8846
14.3624	26.536
14.1276	28.0148
13.9004	33.0943
13.6803	35.948
13.4671	38.2874
13.2604	40.5142
13.06	39.2527
12.8656	34.9659
12.6769	34.1448
12.4936	34.5512
12.3155	35.3165
12.1425	37.7564
11.9742	42.2532
11.8106	48.5313
11.6513	51.3712
11.4963	48.8943
11.3454	44.924
11.1983	41.3801
11.0551	38.733
10.9154	36.6698
10.7793	36.5996
10.6465	36.717
10.5169	33.6004
10.3904	27.27
10.267	19.176
10.1464	5.24
10.0287	19.5959
9.9136	17.2401
9.8012	14.629
9.6913	12.0492
9.5838	8.9943
9.4787	7.4981
9.3758	7.9368
9.2752	9.1809
9.1767	10.6753
9.0803	12.0731
8.9858	12.7983
8.8934	12.9893
8.8028	12.4999
8.714	10.2831
8.627	8.6667
8.5417	7.103
8.4581	5.6354
8.3761	5.48
8.2957	5.7639
8.2169	6.5205
8.1395	6.3633
8.0635	4.5464
7.989	2.4552
7.9158	1.7313
7.8439	2.2015
7.7734	3.8866
7.7041	6.9033
7.636	10.8291
7.5691	15.3417
7.5034	19.742
7.4388	22.4039
7.3753	27.4438
7.3129	33.2788
7.2515	41.1111
7.1912	47.8627
7.1318	49.276
7.0734	56.1897
7.016	57.9467
6.9595	53.5041
6.9039	58.9586
6.8492	61.2312
6.7953	63.9776
6.7423	64.6876
6.6901	64.9885
6.6387	62.8902
6.5881	51.9279
6.5382	41.8101
6.4892	39.8211
6.4408	38.9999
6.3931	43.8844
6.3462	49.3445
6.2999	42.7923
6.2543	40.4712
6.2094	44.3354
6.1651	49.4408
6.1214	56.9124
6.0784	65.3918
6.0359	67.5249
5.994	70.0639
5.9527	70.9022
5.912	70.5856
5.8718	70.4964
5.8322	70.3523
5.7931	71.5031
5.7545	73.2572
5.7165	73.9736
5.6789	73.805
5.6418	75.0864
5.6052	74.8449
5.5691	74.8727
5.5334	74.9888
5.4982	75.558
5.4635	76.6991
5.4291	77.4361
5.3952	78.9583
5.3618	80.6351
5.3287	81.584
5.2961	82.2038
5.2638	82.0782
5.2319	82.1451
5.2004	81.3527
5.1693	80.3838
5.1386	77.5778
5.1082	67.6744
5.0782	52.45
5.0485	73.6092
5.0192	72.614
4.9902	69.6381
4.9616	63.9006
4.9332	53.8869
4.9052	36.2095
4.8776	23.0498
4.8502	21.6068
4.8231	24.2957
4.7963	27.0481
4.7699	27.9591
4.7437	32.0415
4.7178	29.656
4.6922	27.5634
4.6668	27.1457
4.6418	33.3883
4.617	33.9174
4.5924	33.9925
4.5681	32.0755
4.5441	32.9975
4.5203	36.7219
4.4968	40.3301
4.4735	42.0557
4.4505	42.3863
4.4277	43.7863
4.4051	45.5154
4.3828	47.2728
4.3607	48.9905
4.3388	50.6149
4.3171	49.8297
4.2956	46.6485
4.2744	45.7681
4.2534	47.4141
4.2325	49.56
4.2119	54.5959
4.1915	60.38
4.1712	67.2148
4.1512	72.2699
4.1313	75.8664
4.1117	78.4465
4.0922	80.4756
4.0729	82.3691
4.0538	83.7876
4.0349	84.9353
4.0161	85.5916
3.9976	85.8782
3.9792	85.9773
3.9609	86.5601
3.9428	87.3507
3.9249	88.1284
3.9072	88.4024
3.8896	87.081
3.8722	87.3114
3.8549	88.0429
3.8378	88.8389
3.8208	89.9302
3.804	90.4989
3.7873	90.6428
3.7708	90.5864
3.7544	90.2842
3.7382	90.3441
3.7221	90.3327
3.7061	90.3996
3.6903	90.3153
3.6746	90.3865
3.659	90.2524
3.6436	89.996
3.6283	89.8041
3.6131	89.4835
3.5981	89.2946
3.5832	89.1146
3.5684	88.9651
3.5537	88.7066
3.5391	88.4633
3.5247	88.0629
3.5104	87.0005
3.4962	86.3556
3.4821	86.7359
3.4681	86.5996
3.4543	86.6205
3.4405	86.0313
3.4269	84.9101
3.4133	84.1467
3.3999	84.2086
3.3866	85.0285
3.3733	85.0503
3.3602	85.2639
3.3472	85.2174
3.3343	84.9903
3.3215	83.7454
3.3088	81.527
3.2961	81.5903
3.2836	81.6219
3.2712	81.916
3.2588	81.8967
3.2466	82.0506
3.2345	81.7484
3.2224	80.8739
3.2104	80.2268
3.1985	79.6427
3.1867	79.3728
3.175	78.9324
3.1634	78.5322
3.1519	78.1177
3.1404	77.8867
3.129	77.5571
3.1178	77.0782
3.1065	76.7304
3.0954	76.2586
3.0844	76.0335
3.0734	75.8619
3.0625	75.5879
3.0517	75.3106
3.041	75.0928
3.0303	74.9973
3.0197	74.7542
3.0092	74.4981
2.9987	74.4562
2.9884	74.2476
2.9781	74.1041
2.9678	73.9234
2.9577	73.6802
2.9476	73.5257
2.9376	73.6741
2.9276	73.7327
2.9177	73.7891
2.9079	73.7628
2.8982	74.0126
2.8885	74.3692
2.8789	74.4939
2.8693	74.5869
2.8598	75.0252
2.8504	75.7066
2.841	76.1603
2.8317	77.04
2.8224	77.6934
2.8133	78.4864
2.8041	79.6475
2.7951	80.2252
2.786	81.3171
2.7771	81.9807
2.7682	83.3791
2.7594	84.0678
2.7506	85.3121
2.7418	87.2642
2.7332	87.6357
2.7246	89.7414
2.716	89.3754
2.7075	90.4255
2.699	90.8745
2.6906	91.9586
2.6823	93.1215
2.674	93.813
2.6657	95.7616
2.6575	94.0997
2.6494	94.0784
2.6413	94.3377
2.6332	94.6983
2.6252	94.687
2.6173	95.7223
2.6094	95.1379
2.6015	95.0459
2.5937	96.4494
2.5859	95.0855
2.5782	94.9771
2.5706	95.0389
2.5629	95.5956
2.5554	94.5982
2.5478	94.8214
2.5403	94.6671
2.5329	94.8585
2.5255	94.6325
2.5181	94.6777
2.5108	94.6729
2.5035	94.639
2.4963	94.7213
2.4891	94.6584
2.482	94.8203
2.4749	94.8522
2.4678	94.9599
2.4608	94.8186
2.4538	94.9741
2.4468	95.0219
2.4399	95.1718
2.4331	95.0821
2.4262	95.1784
2.4194	95.2082
2.4127	95.2754
2.4059	95.1675
2.3993	95.3626
2.3926	95.3842
2.386	95.4953
2.3795	95.536
2.3729	95.4694
2.3664	95.7111
2.36	95.6232
2.3535	95.5946
2.3471	95.6138
2.3408	95.5938
2.3345	95.6924
2.3282	95.7606
2.3219	95.8176
2.3157	95.705
2.3095	95.6807
2.3034	96.005
2.2972	95.8125
2.2911	95.9536
2.2851	96.0288
2.279	95.8504
2.2731	95.7246
2.2671	95.7505
2.2612	95.979
2.2553	96.0127
2.2494	95.9429
2.2435	95.951
2.2377	96.1322
2.232	95.8874
2.2262	95.9973
2.2205	96.1496
2.2148	96.15
2.2091	96.1324
2.2035	96.058
2.1979	96.1757
2.1923	96.1858
2.1868	96.065
2.1812	96.1987
2.1758	96.1746
2.1703	96.0969
2.1649	96.175
2.1595	96.1512
2.1541	96.103
2.1487	96.1321
2.1434	96.2498
2.1381	96.2033
2.1328	96.2053
2.1275	96.3088
2.1223	96.4332
2.1171	96.0827
2.112	96.1563
2.1068	96.5055
2.1017	96.1282
2.0966	96.2311
2.0915	96.3166
2.0865	96.4044
2.0814	96.6883
2.0764	96.3129
2.0715	96.5533
2.0665	96.2095
2.0616	96.3216
2.0567	96.1698
2.0518	96.535
2.0469	96.3225
2.0421	96.532
2.0373	96.1158
2.0325	95.8692
2.0277	96.3646
2.0229	96.2571
2.0182	96.3609
2.0135	96.2809
2.0088	96.5065
2.0042	96.0861
