Name: Heulandite (Na,Ca)2-3Al3(Al,Si)2Si13O36.12H2O
Type: Mineral
Class: Silicate
Subclass: Tectosilicate
Particle Size: Fine
Sample No.: heulan_2
Owner: JHU
Wavelength Range: TIR
Origin: Gobel, Oregon via Joe Taggart, USGS, Denver, Colorado.
Description: The sample is composed of 1 cm diameter, pearly, translucent crystals in a white, fine-grained groundmass. Crystals were separated by hand and appear to be pure heulandite.Particle size was less than 2 micrometers.(Zeolite Group) Original ASTER Spectral Library name was jhu.nicolet.mineral.silicate.tectosilicate.powder.heulan2.spectrum.txt
Measurement: Transmission
X Units: Wavelength (micrometers)
Y Units: Transmittance (percent)
wavelength	value
25.0442	37.7538
24.3388	36.9569
23.6719	34.7831
23.0407	29.4999
22.4422	21.7978
21.8741	21.3867
21.334	22.6074
20.8199	32.1601
20.33	43.244
19.8627	49.1561
19.4163	49.1156
18.9896	49.6249
18.5812	55.3143
18.19	56.1678
17.815	54.286
17.4551	51.4003
17.1094	48.1005
16.7772	43.6058
16.4576	44.8563
16.15	52.3592
15.8537	57.8128
15.568	60.2635
15.2925	59.9471
15.0265	57.9081
14.7697	58.9696
14.5214	61.0575
14.2814	61.0526
14.0492	59.7162
13.8244	59.1053
13.6067	60.4112
13.3957	63.1536
13.1912	65.9139
12.9929	67.1453
12.8004	66.8377
12.6135	68.0701
12.432	73.1534
12.2557	79.8846
12.0843	82.9073
11.9176	83.0869
11.7555	81.3633
11.5977	79.1023
11.444	76.8125
11.2944	74.7029
11.1487	72.6297
11.0067	70.0889
10.8682	66.7532
10.7332	61.2835
10.6015	52.4989
10.473	40.161
10.3476	26.8705
10.2251	16.6164
10.1056	10.4511
9.9887	7.2431
9.8746	5.8298
9.763	5.2993
9.6539	5.1206
9.5472	5.1057
9.4429	5.3371
9.3408	6.0715
9.2409	8.1997
9.1431	11.4084
9.0474	14.427
8.9536	16.8049
8.8618	18.4843
8.7718	19.7321
8.6837	20.9169
8.5973	22.2927
8.5126	23.6982
8.4295	24.31
8.3481	23.769
8.2682	26.2011
8.1898	36.6449
8.1129	48.8534
8.0374	57.2538
7.9634	62.7298
7.8906	66.5828
7.8192	69.5858
7.7491	71.9495
7.6802	73.8768
7.6126	75.3714
7.5461	76.5604
7.4807	77.8348
7.4165	78.8348
7.3534	79.677
7.2914	80.3929
7.2303	81.0027
7.1703	81.3846
7.1113	81.8953
7.0533	82.3382
6.9962	82.9192
6.94	83.4275
6.8847	83.7967
6.8302	84.0686
6.7767	84.3916
6.7239	84.8264
6.672	85.0598
6.6209	85.2849
6.5705	85.1887
6.5209	85.4641
6.4721	85.4143
6.424	85.1648
6.3766	85.0296
6.3299	84.1858
6.2838	82.0037
6.2385	76.9759
6.1937	68.9446
6.1496	63.2286
6.1062	63.4603
6.0633	67.5421
6.0211	72.3296
5.9794	76.3697
5.9383	79.3536
5.8978	82.0098
5.8578	84.2537
5.8184	85.3069
5.7794	86.4114
5.741	86.9798
5.7031	87.357
5.6657	87.7219
5.6288	87.9422
5.5924	88.2053
5.5564	88.364
5.5209	88.5706
5.4859	88.8274
5.4513	89.0486
5.4171	89.1565
5.3833	89.4417
5.35	89.4927
5.3171	89.7332
5.2846	89.8489
5.2524	89.9483
5.2207	90.0777
5.1893	90.1768
5.1584	90.2825
5.1277	90.3723
5.0975	90.4807
5.0676	90.5593
5.038	90.677
5.0088	90.7561
4.98	90.8052
4.9514	90.8982
4.9232	90.9692
4.8953	90.9785
4.8678	91.0505
4.8405	91.0317
4.8135	91.0515
4.7868	91.0811
4.7605	91.1172
4.7344	91.124
4.7086	91.1875
4.6831	91.2136
4.6578	91.2166
4.6328	91.2634
4.6081	91.3218
4.5837	91.396
4.5595	91.4006
4.5356	91.4619
4.5119	91.4822
4.4884	91.5735
4.4652	91.6355
4.4423	91.7136
4.4196	91.7913
4.3971	91.8623
4.3748	91.9739
4.3528	92.0588
4.331	92.1148
4.3094	92.2034
4.288	92.2918
4.2668	92.3804
4.2458	92.4688
4.2251	92.5574
4.2045	92.646
4.1841	92.7412
4.164	92.8342
4.144	92.9006
4.1242	92.9421
4.1046	93.0208
4.0852	93.084
4.066	93.135
4.047	93.1819
4.0281	93.2148
4.0094	93.2402
3.9909	93.3049
3.9725	93.3496
3.9544	93.3919
3.9363	93.4099
3.9185	93.418
3.9008	93.4465
3.8833	93.4836
3.8659	93.4873
3.8487	93.4793
3.8316	93.4688
3.8147	93.4763
3.7979	93.4727
3.7813	93.459
3.7648	93.4053
3.7485	93.3645
3.7323	93.3816
3.7162	93.2971
3.7003	93.2708
3.6845	93.1858
3.6689	93.0938
3.6534	93.0574
3.638	92.9863
3.6227	92.8938
3.6076	92.8211
3.5926	92.7131
3.5777	92.6228
3.563	92.4988
3.5484	92.3709
3.5338	92.242
3.5195	92.0671
3.5052	91.9639
3.491	91.6543
3.477	91.4539
3.463	91.2656
3.4492	91.0518
3.4355	90.7842
3.4219	90.5401
3.4084	90.0369
3.395	89.5789
3.3817	89.126
3.3685	88.7129
3.3554	88.2254
3.3425	87.7334
3.3296	87.2168
3.3168	86.6582
3.3041	85.9529
3.2915	85.3025
3.279	84.4969
3.2666	83.6531
3.2543	82.7137
3.2421	81.7312
3.23	80.659
3.218	79.531
3.206	78.3577
3.1942	77.0848
3.1824	75.7767
3.1707	74.3816
3.1591	72.9139
3.1476	71.4007
3.1362	69.93
3.1249	68.4774
3.1136	67.201
3.1024	66.0892
3.0913	65.1649
3.0803	64.3953
3.0694	63.5975
3.0585	62.8084
3.0477	61.9505
3.037	61.0164
3.0264	60.0106
3.0158	58.9364
3.0053	57.6996
2.9949	56.4027
2.9845	55.1044
2.9743	53.8461
2.9641	52.6991
2.9539	51.8011
2.9439	51.0184
2.9339	50.5414
2.9239	50.2508
2.9141	50.1415
2.9043	50.2347
2.8946	50.4423
2.8849	50.7757
2.8753	51.0546
2.8658	51.3505
2.8563	51.6766
2.8469	52.0067
2.8375	52.3319
2.8282	52.6483
2.819	52.9159
2.8098	53.2074
2.8007	53.2967
2.7917	53.3397
2.7827	53.2342
2.7738	53.2391
2.7649	53.9081
2.7561	55.6703
2.7473	59.161
2.7386	63.6566
2.7299	68.7547
2.7213	72.744
2.7128	75.9593
2.7043	78.1111
2.6959	79.6658
2.6875	80.8318
2.6791	81.5066
2.6709	81.9593
2.6626	82.7542
2.6545	83.2205
2.6463	83.5154
2.6382	83.8889
2.6302	83.885
2.6222	84.2517
2.6143	84.3181
2.6064	84.4568
2.5986	84.7986
2.5908	84.8963
2.583	84.7561
2.5753	85.055
2.5677	85.074
2.5601	85.1678
2.5525	85.241
2.545	85.4021
2.5375	85.4383
2.5301	85.4949
2.5227	85.6013
2.5154	85.6345
2.5081	85.6609
2.5008	85.7185
2.4936	85.7849
2.4864	85.9041
2.4793	85.9304
2.4722	85.9431
2.4651	86.0574
2.4581	86.0115
2.4511	86.0447
2.4442	86.0681
2.4373	86.1189
2.4305	86.3064
2.4236	86.325
2.4169	86.2703
2.4101	86.2556
2.4034	86.3601
2.3967	86.4412
2.3901	86.5291
2.3835	86.4851
2.377	86.4783
2.3704	86.5525
2.364	86.6424
2.3575	86.5486
2.3511	86.6804
2.3447	86.6463
2.3384	86.6804
2.3321	86.6482
2.3258	86.5701
2.3195	86.7634
2.3133	86.6619
2.3071	86.7244
2.301	86.6892
2.2949	86.6853
2.2888	86.699
2.2828	86.5857
2.2767	86.5896
2.2708	86.5467
2.2648	86.5906
2.2589	86.7195
2.253	86.6834
2.2471	86.6521
2.2413	86.6697
2.2355	86.6531
2.2297	86.614
2.224	86.6424
2.2183	86.7224
2.2126	86.5984
2.207	86.4929
2.2013	86.6287
2.1957	86.614
2.1902	86.7547
2.1846	86.7
2.1791	86.4539
2.1736	86.5388
2.1682	86.4383
2.1628	86.6912
2.1574	86.6687
2.152	86.6023
2.1466	86.5554
2.1413	86.6052
2.136	86.5174
2.1308	86.4568
2.1255	86.5252
2.1203	86.4685
2.1151	86.4158
2.11	86.4763
2.1048	86.4627
2.0997	86.5779
2.0946	86.6052
2.0895	86.5662
2.0845	86.4275
2.0795	86.408
