Name: Titanite (Sphene) CaTiSiO_5
Type: Mineral
Class: Silicate
Subclass: Nesosilicate
Particle Size: Fine
Sample No.: NS-7A
Owner: JPL
Wavelength Range: VSWIR
Origin: Brazil, Minas Gerais, Capelinha.
Description: Particle size was 0-45um.Collected by:  JPL Original ASTER Spectral Library name was jpl.perkin.mineral.silicate.nesosilicate.fine.ns07a.spectrum.txt
Measurement: Hemispherical reflectance
X Units: Wavelength (micrometers)
Y Units: Reflectance (percent)
wavelength	value
2.5	75.8644
2.494	75.9398
2.488	76.1227
2.482	76.3718
2.476	76.6863
2.47	77.0236
2.464	77.5027
2.458	77.7683
2.452	77.9696
2.446	78.1761
2.44	78.1802
2.434	77.8459
2.428	77.0853
2.422	75.9367
2.416	74.522
2.41	73.2347
2.404	72.4222
2.398	72.3404
2.392	73.2666
2.386	75.0388
2.38	77.086
2.374	78.9576
2.368	80.1014
2.362	80.8771
2.356	81.2571
2.35	81.4297
2.344	81.5454
2.338	81.5592
2.332	81.4268
2.326	81.254
2.32	80.8623
2.314	80.5359
2.308	80.2673
2.302	79.8803
2.296	79.8666
2.29	79.81
2.284	79.7932
2.278	79.3039
2.272	78.4135
2.266	77.4413
2.26	77.2109
2.254	77.8169
2.248	78.4811
2.242	78.871
2.236	78.8029
2.23	78.6482
2.224	78.5801
2.218	78.6411
2.212	78.2888
2.206	77.2134
2.2	76.2531
2.194	77.3729
2.188	79.7649
2.182	81.6132
2.176	82.7017
2.17	83.4355
2.164	83.7444
2.158	84.153
2.152	84.3616
2.146	84.545
2.14	84.4857
2.134	84.4424
2.128	84.2852
2.122	84.059
2.116	83.8533
2.11	83.5599
2.104	83.3403
2.098	83.0806
2.092	83.169
2.086	83.1842
2.08	83.2464
2.074	83.3029
2.068	83.3557
2.062	83.4537
2.056	83.4491
2.05	83.445
2.044	83.5649
2.038	83.5177
2.032	83.5456
2.026	83.5166
2.02	83.5419
2.014	83.5257
2.008	83.4582
2.002	83.492
1.996	83.3505
1.99	83.2016
1.984	83.2079
1.978	83.0102
1.972	82.921
1.966	82.881
1.96	82.7973
1.954	82.7539
1.948	82.7895
1.942	82.68
1.936	82.6154
1.93	82.8171
1.924	82.8968
1.918	82.9567
1.912	83.1141
1.906	83.2161
1.9	83.4722
1.894	83.6224
1.888	83.8093
1.882	83.9443
1.876	84.1606
1.87	84.1403
1.864	84.2249
1.858	84.1938
1.852	84.2645
1.846	84.1871
1.84	84.2267
1.834	84.1516
1.828	84.1807
1.822	84.1908
1.816	84.1971
1.81	84.1989
1.804	84.2775
1.798	84.2824
1.792	84.1173
1.786	84.1509
1.78	84.1285
1.774	84.1492
1.768	84.1601
1.762	84.162
1.756	84.1287
1.75	84.1101
1.744	84.0762
1.738	84.1591
1.732	84.234
1.726	84.1743
1.72	84.1849
1.714	84.1842
1.708	84.1871
1.702	84.1278
1.696	84.1089
1.69	84.0832
1.684	84.0731
1.678	84.0304
1.672	84.0878
1.666	84.0382
1.66	84.1432
1.654	84.0156
1.648	84.0134
1.642	83.9544
1.636	84.0808
1.63	84.0189
1.624	84.0462
1.618	84.0074
1.612	83.986
1.606	83.9999
1.6	83.9764
1.594	83.9283
1.588	84.0099
1.582	83.9966
1.576	83.9637
1.57	83.9282
1.564	83.9206
1.558	83.9358
1.552	83.9009
1.546	83.8347
1.54	83.8509
1.534	83.8185
1.528	83.8364
1.522	83.7999
1.516	83.7688
1.51	83.7246
1.504	83.7031
1.498	83.6433
1.492	83.5708
1.486	83.4725
1.48	83.3379
1.474	83.2809
1.468	83.4396
1.462	83.573
1.456	83.6
1.45	83.6227
1.444	83.6908
1.438	83.6887
1.432	83.6949
1.426	83.6703
1.42	83.7014
1.414	83.7251
1.408	83.7529
1.402	83.8575
1.396	84.0095
1.39	84.1017
1.384	84.1764
1.378	84.1386
1.372	84.1771
1.366	84.1881
1.36	84.1883
1.354	84.2659
1.348	84.241
1.342	84.3461
1.336	84.317
1.33	84.3661
1.324	84.4107
1.318	84.4176
1.312	84.4239
1.306	84.4425
1.3	84.4926
1.294	84.4894
1.288	84.5566
1.282	84.6151
1.276	84.6745
1.27	84.6143
1.264	84.69
1.258	84.7583
1.252	84.7908
1.246	84.8425
1.24	84.8593
1.234	84.8183
1.228	84.9291
1.222	84.939
1.216	84.9173
1.21	84.9809
1.204	85.0054
1.198	85.0434
1.192	85.0959
1.186	85.1424
1.18	85.1994
1.174	85.2851
1.168	85.2422
1.162	85.2625
1.156	85.3596
1.15	85.3389
1.144	85.3889
1.138	85.5047
1.132	85.4844
1.126	85.4852
1.12	85.5213
1.114	85.5661
1.108	85.6104
1.102	85.7038
1.096	85.6529
1.09	85.7869
1.084	85.7582
1.078	85.8953
1.072	85.8546
1.066	85.897
1.06	85.9059
1.054	85.976
1.048	85.9953
1.042	86.0929
1.036	86.1076
1.03	86.1539
1.024	86.0852
1.018	86.2304
1.012	86.2222
1.006	86.2786
1	86.314
0.994	86.3122
0.988	86.3869
0.982	86.416
0.976	86.4879
0.97	86.4522
0.964	86.4935
0.958	86.4475
0.952	86.5795
0.946	86.6232
0.94	86.6433
0.934	86.6168
0.928	86.6721
0.922	86.6071
0.916	86.6772
0.91	86.7069
0.904	86.6532
0.898	86.7279
0.892	86.7097
0.886	86.7534
0.88	86.7031
0.874	86.7117
0.868	86.7635
0.862	86.6453
0.856	86.4709
0.85	86.6919
0.844	86.7795
0.838	86.7735
0.832	86.7171
0.826	86.7326
0.82	86.6632
0.814	86.6686
0.808	86.6626
0.802	86.5791
0.796	86.5061
0.79	86.4959
0.784	86.3953
0.778	86.3743
0.772	86.3274
0.766	86.2831
0.76	86.2706
0.754	86.1626
0.748	86.0889
0.742	86.0455
0.736	85.9733
0.73	85.933
0.724	85.8411
0.718	85.7236
0.712	85.6186
0.706	85.5082
0.7	85.4335
0.694	85.3102
0.688	85.2126
0.682	85.0531
0.676	84.906
0.67	84.7183
0.664	84.5153
0.658	84.3257
0.652	84.1023
0.646	83.8695
0.64	83.6408
0.634	83.4014
0.628	83.1881
0.622	82.9973
0.616	82.8176
0.61	82.6881
0.604	82.5858
0.598	82.5131
0.592	82.4903
0.586	82.4079
0.58	82.3288
0.574	82.2405
0.568	82.1158
0.562	81.9879
0.556	81.7383
0.55	81.5039
0.544	81.1939
0.538	80.8559
0.532	80.4473
0.526	80.0169
0.52	79.5052
0.514	78.9575
0.508	78.2964
0.502	77.5851
0.496	76.8514
0.49	76.0268
0.484	75.1204
0.478	74.346
0.472	73.5748
0.466	72.7302
0.46	71.7971
0.454	70.6598
0.448	69.4899
0.442	68.0925
0.436	66.5346
0.43	64.783
0.424	62.8842
0.418	60.8163
0.412	58.597
0.406	56.1674
0.4	53.4534
