Name: Witherite BaCO_3
Type: Mineral
Class: Carbonate
Subclass: None
Particle Size: Fine
Sample No.: C-2A
Owner: JPL
Wavelength Range: VSWIR
Origin: United Kingdom, England.
Description: Particle size was 0-45um.Collected by:  Grieger's Inc. Original ASTER Spectral Library name was jpl.perkin.mineral.carbonate.none.fine.c02a.spectrum.txt
Measurement: Hemispherical reflectance
X Units: Wavelength (micrometers)
Y Units: Reflectance (percent)
wavelength	value
2.5	82.3095
2.494	82.6488
2.488	83.094
2.482	83.3475
2.476	83.3612
2.47	83.6301
2.464	83.649
2.458	83.9659
2.452	83.8728
2.446	84.1532
2.44	84.0957
2.434	84.1332
2.428	83.9627
2.422	83.7629
2.416	83.0961
2.41	81.9849
2.404	80.3022
2.398	78.2466
2.392	76.6803
2.386	76.0742
2.38	77.1068
2.374	78.753
2.368	80.2335
2.362	81.1165
2.356	81.8999
2.35	82.1668
2.344	82.375
2.338	82.5842
2.332	82.8751
2.326	83.2544
2.32	83.6293
2.314	84.0771
2.308	84.4698
2.302	84.8674
2.296	85.0681
2.29	85.3102
2.284	85.5762
2.278	85.7198
2.272	85.9091
2.266	85.9329
2.26	86.1504
2.254	86.2582
2.248	86.337
2.242	86.5405
2.236	86.5309
2.23	86.6527
2.224	86.5802
2.218	86.3355
2.212	86.2834
2.206	86.1901
2.2	86.6853
2.194	86.9556
2.188	87.1849
2.182	87.4333
2.176	87.6339
2.17	87.7406
2.164	87.9599
2.158	88.1243
2.152	88.1677
2.146	88.3227
2.14	88.3796
2.134	88.3041
2.128	88.2025
2.122	87.8619
2.116	87.6936
2.11	87.3773
2.104	87.0966
2.098	86.949
2.092	87.0394
2.086	87.0711
2.08	87.1322
2.074	87.1145
2.068	87.1901
2.062	87.2017
2.056	86.9592
2.05	86.6525
2.044	86.5866
2.038	86.934
2.032	87.2147
2.026	87.3268
2.02	87.3084
2.014	87.3461
2.008	87.4005
2.002	87.4267
1.996	87.4881
1.99	87.4262
1.984	87.446
1.978	87.3353
1.972	87.2489
1.966	87.3235
1.96	87.2159
1.954	87.1133
1.948	87.1858
1.942	87.1811
1.936	87.1012
1.93	87.1067
1.924	86.9574
1.918	86.7386
1.912	87.0084
1.906	87.3388
1.9	87.6761
1.894	87.8209
1.888	88.0282
1.882	88.0512
1.876	88.0863
1.87	88.2433
1.864	88.3567
1.858	88.3823
1.852	88.4927
1.846	88.4924
1.84	88.5174
1.834	88.5318
1.828	88.4939
1.822	88.4933
1.816	88.5607
1.81	88.5432
1.804	88.5635
1.798	88.518
1.792	88.4936
1.786	88.525
1.78	88.4535
1.774	88.5293
1.768	88.4626
1.762	88.4976
1.756	88.4583
1.75	88.5601
1.744	88.6001
1.738	88.5855
1.732	88.6094
1.726	88.6588
1.72	88.714
1.714	88.6694
1.708	88.6719
1.702	88.5809
1.696	88.602
1.69	88.6299
1.684	88.6132
1.678	88.6493
1.672	88.6603
1.666	88.6718
1.66	88.6718
1.654	88.6523
1.648	88.6946
1.642	88.6259
1.636	88.6969
1.63	88.6811
1.624	88.7245
1.618	88.6421
1.612	88.5861
1.606	88.5611
1.6	88.6447
1.594	88.7199
1.588	88.7207
1.582	88.6272
1.576	88.6597
1.57	88.663
1.564	88.6264
1.558	88.629
1.552	88.6715
1.546	88.6622
1.54	88.6145
1.534	88.6111
1.528	88.6167
1.522	88.6457
1.516	88.6382
1.51	88.6208
1.504	88.5946
1.498	88.5515
1.492	88.5688
1.486	88.5151
1.48	88.6023
1.474	88.5238
1.468	88.5525
1.462	88.573
1.456	88.5032
1.45	88.5299
1.444	88.5246
1.438	88.5851
1.432	88.5385
1.426	88.564
1.42	88.5944
1.414	88.4984
1.408	88.5903
1.402	88.5819
1.396	88.7128
1.39	88.7274
1.384	88.7013
1.378	88.6971
1.372	88.6428
1.366	88.7596
1.36	88.6778
1.354	88.6033
1.348	88.7127
1.342	88.6579
1.336	88.6666
1.33	88.5788
1.324	88.6385
1.318	88.6744
1.312	88.6233
1.306	88.6622
1.3	88.5776
1.294	88.5873
1.288	88.6871
1.282	88.62
1.276	88.5634
1.27	88.6125
1.264	88.6023
1.258	88.5662
1.252	88.5495
1.246	88.5859
1.24	88.5798
1.234	88.5414
1.228	88.5903
1.222	88.543
1.216	88.531
1.21	88.5156
1.204	88.4798
1.198	88.471
1.192	88.5923
1.186	88.5455
1.18	88.5239
1.174	88.5632
1.168	88.5568
1.162	88.6082
1.156	88.5378
1.15	88.5587
1.144	88.5642
1.138	88.5723
1.132	88.6189
1.126	88.5851
1.12	88.5886
1.114	88.5874
1.108	88.5721
1.102	88.5104
1.096	88.6043
1.09	88.572
1.084	88.6044
1.078	88.6517
1.072	88.625
1.066	88.5568
1.06	88.6152
1.054	88.5946
1.048	88.6065
1.042	88.6588
1.036	88.6028
1.03	88.7031
1.024	88.6777
1.018	88.6495
1.012	88.6605
1.006	88.6444
1	88.6213
0.994	88.6777
0.988	88.62
0.982	88.6062
0.976	88.6544
0.97	88.6127
0.964	88.6535
0.958	88.6643
0.952	88.6359
0.946	88.6932
0.94	88.6288
0.934	88.619
0.928	88.607
0.922	88.676
0.916	88.672
0.91	88.6539
0.904	88.6608
0.898	88.6725
0.892	88.6761
0.886	88.6232
0.88	88.6011
0.874	88.6342
0.868	88.6688
0.862	88.6853
0.856	88.7743
0.85	88.8511
0.844	88.8878
0.838	88.8519
0.832	88.8353
0.826	88.8859
0.82	88.8154
0.814	88.8317
0.808	88.7952
0.802	88.8979
0.796	88.7417
0.79	88.7304
0.784	88.6819
0.778	88.6086
0.772	88.6707
0.766	88.6256
0.76	88.5771
0.754	88.5629
0.748	88.5682
0.742	88.5331
0.736	88.5253
0.73	88.467
0.724	88.4617
0.718	88.4562
0.712	88.4169
0.706	88.3768
0.7	88.3551
0.694	88.3352
0.688	88.3043
0.682	88.2489
0.676	88.2382
0.67	88.1892
0.664	88.1503
0.658	88.117
0.652	88.0719
0.646	88.0438
0.64	87.9963
0.634	87.9507
0.628	87.8958
0.622	87.8423
0.616	87.8064
0.61	87.7533
0.604	87.7063
0.598	87.7067
0.592	87.6781
0.586	87.6135
0.58	87.552
0.574	87.4834
0.568	87.4102
0.562	87.3129
0.556	87.2035
0.55	87.0914
0.544	86.9975
0.538	86.8432
0.532	86.7164
0.526	86.5656
0.52	86.3966
0.514	86.2415
0.508	86.0193
0.502	85.7998
0.496	85.609
0.49	85.3619
0.484	85.1206
0.478	84.8666
0.472	84.6555
0.466	84.4408
0.46	84.2093
0.454	83.9988
0.448	83.767
0.442	83.5585
0.436	83.3399
0.43	83.114
0.424	82.8867
0.418	82.6439
0.412	82.3857
0.406	82.1217
0.4	81.7903
