Name: Fluorite CaF_2
Type: Mineral
Class: Halide
Subclass: None
Particle Size: Medium
Sample No.: H-2A
Owner: JPL
Wavelength Range: VSWIR
Origin: USA, Illinois, Hardin County, Rosiclare.
Description: Purple fluorite.Particle size was 45-125um.Collected by:  Ward's Original ASTER Spectral Library name was jpl.perkin.mineral.halide.none.medium.h02a.spectrum.txt
Measurement: Hemispherical reflectance
X Units: Wavelength (micrometers)
Y Units: Reflectance (percent)
wavelength	value
2.5	81.5653
2.494	81.5352
2.488	81.7636
2.482	81.642
2.476	81.8093
2.47	81.9208
2.464	81.9686
2.458	81.9746
2.452	82.0138
2.446	82.1343
2.44	82.2357
2.434	82.1991
2.428	82.4852
2.422	82.5338
2.416	82.5839
2.41	82.6477
2.404	82.6921
2.398	82.7535
2.392	82.8364
2.386	83.0417
2.38	83.0522
2.374	83.2159
2.368	83.2569
2.362	83.3638
2.356	83.4997
2.35	83.4909
2.344	83.5633
2.338	83.553
2.332	83.6405
2.326	83.589
2.32	83.574
2.314	83.5797
2.308	83.5822
2.302	83.6668
2.296	83.5896
2.29	83.5561
2.284	83.5589
2.278	83.5734
2.272	83.6435
2.266	83.5878
2.26	83.5814
2.254	83.6529
2.248	83.6217
2.242	83.7214
2.236	83.6595
2.23	83.7651
2.224	83.7395
2.218	83.7951
2.212	83.8896
2.206	84.0511
2.2	84.2932
2.194	84.3141
2.188	84.2029
2.182	84.3881
2.176	84.5425
2.17	84.7291
2.164	84.9408
2.158	85.0935
2.152	85.1105
2.146	85.1797
2.14	85.1672
2.134	85.0857
2.128	84.932
2.122	84.7134
2.116	84.4823
2.11	84.1523
2.104	83.9558
2.098	83.8388
2.092	83.9056
2.086	83.9208
2.08	84.0537
2.074	84.1111
2.068	84.1251
2.062	84.1903
2.056	84.2363
2.05	84.3043
2.044	84.4276
2.038	84.4392
2.032	84.4806
2.026	84.4115
2.02	84.3784
2.014	84.3907
2.008	84.3562
2.002	84.3175
1.996	84.2691
1.99	84.1579
1.984	84.0076
1.978	83.9675
1.972	83.9034
1.966	83.8136
1.96	83.7294
1.954	83.6934
1.948	83.7113
1.942	83.6681
1.936	83.5839
1.93	83.5981
1.924	83.6802
1.918	83.6323
1.912	83.8074
1.906	83.9771
1.9	84.2604
1.894	84.4359
1.888	84.6209
1.882	84.8147
1.876	84.8134
1.87	84.9043
1.864	84.9528
1.858	85.0066
1.852	85.0238
1.846	85.0704
1.84	85.0124
1.834	85.0851
1.828	85.0705
1.822	85.0782
1.816	85.1111
1.81	85.1695
1.804	85.1701
1.798	85.2159
1.792	85.1663
1.786	85.0693
1.78	85.1357
1.774	85.1333
1.768	85.1457
1.762	85.1302
1.756	85.0782
1.75	85.1783
1.744	85.125
1.738	85.2582
1.732	85.2546
1.726	85.2865
1.72	85.2872
1.714	85.267
1.708	85.2746
1.702	85.2101
1.696	85.1775
1.69	85.2718
1.684	85.2242
1.678	85.1504
1.672	85.1096
1.666	85.2511
1.66	85.1604
1.654	85.1569
1.648	85.067
1.642	85.2139
1.636	85.1325
1.63	85.1138
1.624	85.186
1.618	85.1396
1.612	85.104
1.606	85.2353
1.6	85.2081
1.594	85.1048
1.588	85.0944
1.582	85.1344
1.576	85.039
1.57	85.0416
1.564	85.0446
1.558	85.0167
1.552	85.0432
1.546	85.0534
1.54	84.9581
1.534	84.9718
1.528	84.879
1.522	84.9057
1.516	84.9139
1.51	84.8303
1.504	84.9008
1.498	84.7973
1.492	84.8068
1.486	84.8131
1.48	84.7024
1.474	84.7072
1.468	84.7239
1.462	84.6297
1.456	84.6456
1.45	84.6432
1.444	84.6258
1.438	84.6117
1.432	84.5215
1.426	84.4417
1.42	84.4756
1.414	84.567
1.408	84.5622
1.402	84.6114
1.396	84.7548
1.39	84.7098
1.384	84.7998
1.378	84.7402
1.372	84.7699
1.366	84.8334
1.36	84.7739
1.354	84.8152
1.348	84.7928
1.342	84.7609
1.336	84.8538
1.33	84.7142
1.324	84.7373
1.318	84.7145
1.312	84.7593
1.306	84.742
1.3	84.7415
1.294	84.7094
1.288	84.7914
1.282	84.7302
1.276	84.6755
1.27	84.681
1.264	84.7268
1.258	84.6951
1.252	84.6935
1.246	84.6851
1.24	84.6582
1.234	84.6186
1.228	84.5909
1.222	84.6027
1.216	84.6199
1.21	84.6121
1.204	84.5584
1.198	84.5563
1.192	84.6223
1.186	84.5699
1.18	84.6274
1.174	84.547
1.168	84.584
1.162	84.6343
1.156	84.5864
1.15	84.4945
1.144	84.5079
1.138	84.5286
1.132	84.5757
1.126	84.5677
1.12	84.5283
1.114	84.5989
1.108	84.6199
1.102	84.4975
1.096	84.5938
1.09	84.592
1.084	84.5087
1.078	84.5381
1.072	84.5175
1.066	84.554
1.06	84.4856
1.054	84.4054
1.048	84.4124
1.042	84.3996
1.036	84.4407
1.03	84.4295
1.024	84.4429
1.018	84.3558
1.012	84.4528
1.006	84.4709
1	84.3239
0.994	84.343
0.988	84.3648
0.982	84.3231
0.976	84.3719
0.97	84.2962
0.964	84.3025
0.958	84.2627
0.952	84.2548
0.946	84.1839
0.94	84.1681
0.934	84.2118
0.928	84.1723
0.922	84.1542
0.916	84.078
0.91	84.0365
0.904	83.9848
0.898	83.9758
0.892	83.9855
0.886	83.921
0.88	83.8702
0.874	83.7903
0.868	83.7076
0.862	83.7164
0.856	84.1216
0.85	84.0233
0.844	84.0279
0.838	83.9771
0.832	83.9066
0.826	83.9019
0.82	83.863
0.814	83.8304
0.808	83.7906
0.802	83.8113
0.796	83.6823
0.79	83.64
0.784	83.6238
0.778	83.4267
0.772	83.4385
0.766	83.3498
0.76	83.262
0.754	83.2189
0.748	83.1272
0.742	83.0718
0.736	82.9731
0.73	82.9321
0.724	82.8024
0.718	82.7059
0.712	82.5931
0.706	82.5054
0.7	82.3744
0.694	82.2373
0.688	82.0915
0.682	81.9452
0.676	81.7697
0.67	81.6048
0.664	81.3832
0.658	81.1582
0.652	80.9186
0.646	80.6579
0.64	80.346
0.634	80.0048
0.628	79.6734
0.622	79.2656
0.616	78.8349
0.61	78.3624
0.604	77.8613
0.598	77.3709
0.592	76.8421
0.586	76.2836
0.58	75.6953
0.574	75.1278
0.568	74.5742
0.562	74.0653
0.556	73.6404
0.55	73.3028
0.544	73.0844
0.538	72.9911
0.532	73.0456
0.526	73.2167
0.52	73.4106
0.514	73.6835
0.508	74.0125
0.502	74.3514
0.496	74.6185
0.49	74.8458
0.484	75.0917
0.478	75.2291
0.472	75.2797
0.466	75.344
0.46	75.4442
0.454	75.4184
0.448	75.4124
0.442	75.4739
0.436	75.4027
0.43	75.3622
0.424	75.3717
0.418	75.3605
0.412	75.4102
0.406	75.5173
0.4	75.651
