Name: Biotite K(Mg,Fe^2+)_3(Al,Fe^3+)Si_3O_10(OH,F)_2
Type: Mineral
Class: Silicate
Subclass: Phyllosilicate
Particle Size: Fine
Sample No.: PS-23A
Owner: JPL
Wavelength Range: TIR
Description: Particle size was 0-45um.Collected by JPL Original ASTER Spectral Library name was jpl.nicolet.mineral.silicate.phyllosilicate.fine.ps23a.spectrum.txt
Measurement: Hemispherical reflectance
X Units: Wavelength (micrometers)
Y Units: Reflectance (percent)
wavelength	value
15.3853	1.4599
15.1161	1.597
14.8563	1.8405
14.6052	1.9108
14.3624	2.0037
14.1276	2.0327
13.9004	2.0957
13.6803	1.8152
13.4671	2.3117
13.2604	2.6663
13.06	3.0247
12.8656	3.7207
12.6769	4.5595
12.4936	6.3241
12.3155	8.1666
12.1425	10.0286
11.9742	10.128
11.8106	9.1928
11.6513	8.8945
11.4963	8.3434
11.3454	8.3406
11.1983	8.2898
11.0551	7.9821
10.9154	7.8844
10.7793	7.8942
10.6465	8.0557
10.5169	7.7772
10.3904	7.2802
10.267	7.3545
10.1464	7.4504
10.0287	8.9119
9.9136	10.7527
9.8012	11.1219
9.6913	9.403
9.5838	7.7629
9.4787	6.4754
9.3758	6.1849
9.2752	5.5775
9.1767	5.1089
9.0803	4.2985
8.9858	3.5857
8.8934	2.8466
8.8028	2.1204
8.714	1.9345
8.627	1.8043
8.5417	2.5043
8.4581	3.3728
8.3761	4.5482
8.2957	5.6203
8.2169	7.3036
8.1395	8.2829
8.0635	9.3778
7.989	10.4467
7.9158	11.4429
7.8439	12.3983
7.7734	13.199
7.7041	13.9556
7.636	14.8534
7.5691	16.1598
7.5034	17.1679
7.4388	18.0313
7.3753	18.6942
7.3129	19.2581
7.2515	20.5534
7.1912	21.9226
7.1318	22.9747
7.0734	24.0581
7.016	25.2453
6.9595	26.84
6.9039	27.3986
6.8492	28.221
6.7953	28.9854
6.7423	29.6191
6.6901	30.2032
6.6387	31.1484
6.5881	30.446
6.5382	29.7891
6.4892	30.0642
6.4408	28.637
6.3931	27.9986
6.3462	27.6705
6.2999	26.3618
6.2543	25.5385
6.2094	24.7452
6.1651	24.3293
6.1214	24.3255
6.0784	24.8886
6.0359	25.4844
5.994	26.3193
5.9527	26.8987
5.912	27.2152
5.8718	27.4315
5.8322	28.0164
5.7931	28.5622
5.7545	29.5565
5.7165	30.3138
5.6789	30.915
5.6418	32.075
5.6052	32.3625
5.5691	33.0606
5.5334	33.9421
5.4982	34.9412
5.4635	36.3969
5.4291	37.7713
5.3952	38.9704
5.3618	40.2565
5.3287	41.4144
5.2961	42.4861
5.2638	43.1739
5.2319	43.9934
5.2004	44.3086
5.1693	44.4572
5.1386	44.3542
5.1082	44.121
5.0782	43.9563
5.0485	43.8226
5.0192	44.1363
4.9902	44.3637
4.9616	44.5254
4.9332	44.61
4.9052	44.775
4.8776	44.9992
4.8502	45.463
4.8231	45.984
4.7963	46.5957
4.7699	47.4826
4.7437	48.2047
4.7178	48.9033
4.6922	49.562
4.6668	50.0369
4.6418	50.6158
4.617	51.1733
4.5924	51.7429
4.5681	52.2633
4.5441	52.674
4.5203	52.8417
4.4968	52.9808
4.4735	53.2078
4.4505	53.3179
4.4277	53.3431
4.4051	53.5655
4.3828	53.6854
4.3607	53.7765
4.3388	53.8758
4.3171	53.9237
4.2956	53.9178
4.2744	53.8613
4.2534	54.2357
4.2325	54.0916
4.2119	54.2296
4.1915	54.4659
4.1712	54.5417
4.1512	54.627
4.1313	54.6454
4.1117	54.833
4.0922	54.9303
4.0729	54.9183
4.0538	55.0152
4.0349	55.0725
4.0161	55.1523
3.9976	55.3064
3.9792	55.2368
3.9609	55.3611
3.9428	55.4682
3.9249	55.4398
3.9072	55.4797
3.8896	55.4658
3.8722	55.4289
3.8549	55.3974
3.8378	55.3359
3.8208	55.2152
3.804	55.1425
3.7873	55.0701
3.7708	55.0033
3.7544	54.9014
3.7382	54.7012
3.7221	54.4912
3.7061	54.4729
3.6903	54.327
3.6746	54.062
3.659	53.877
3.6436	53.7745
3.6283	53.5908
3.6131	53.4127
3.5981	53.1405
3.5832	52.8698
3.5684	52.5625
3.5537	52.1394
3.5391	51.5819
3.5247	50.3839
3.5104	45.3411
3.4962	47.1507
3.4821	48.3173
3.4681	48.315
3.4543	47.4337
3.4405	45.9476
3.4269	41.1744
3.4133	42.3205
3.3999	45.2262
3.3866	45.9236
3.3733	45.8914
3.3602	47.0057
3.3472	47.3329
3.3343	47.4666
3.3215	47.3255
3.3088	46.9203
3.2961	46.6071
3.2836	46.0879
3.2712	45.6499
3.2588	45.258
3.2466	44.8799
3.2345	44.5895
3.2224	44.1878
3.2104	43.8927
3.1985	43.5021
3.1867	43.2079
3.175	43.0403
3.1634	42.4914
3.1519	42.0193
3.1404	41.6923
3.129	41.2623
3.1178	40.7931
3.1065	40.6046
3.0954	40.0946
3.0844	39.7823
3.0734	39.6434
3.0625	39.3416
3.0517	39.0808
3.041	38.767
3.0303	38.5508
3.0197	38.3327
3.0092	38.0865
2.9987	37.7911
2.9884	37.4525
2.9781	37.2073
2.9678	36.7724
2.9577	36.5975
2.9476	36.3271
2.9376	36.077
2.9276	36.0437
2.9177	35.8543
2.9079	36.1369
2.8982	35.6864
2.8885	35.6682
2.8789	35.3406
2.8693	34.8197
2.8598	33.8406
2.8504	32.2209
2.841	30.5032
2.8317	27.8948
2.8224	25.0614
2.8133	22.9462
2.8041	22.9472
2.7951	22.9756
2.786	22.3742
2.7771	23.7015
2.7682	25.7227
2.7594	27.4673
2.7506	28.7192
2.7418	27.4844
2.7332	25.636
2.7246	25.0497
2.716	24.6524
2.7075	26.8449
2.699	31.4061
2.6906	40.6678
2.6823	53.0978
2.674	55.1233
2.6657	56.4766
2.6575	55.2783
2.6494	55.2536
2.6413	55.2174
2.6332	55.514
2.6252	55.4665
2.6173	56.2904
2.6094	56.0282
2.6015	56.064
2.5937	57.1345
2.5859	56.0749
2.5782	55.8996
2.5706	56.0549
2.5629	56.3172
2.5554	55.7096
2.5478	55.6431
2.5403	55.5315
2.5329	55.4682
2.5255	55.29
2.5181	55.1551
2.5108	55.0808
2.5035	55.0501
2.4963	54.8634
2.4891	54.8569
2.482	54.8249
2.4749	54.5707
2.4678	54.4031
2.4608	54.1748
2.4538	53.9557
2.4468	53.9195
2.4399	53.8159
2.4331	53.5344
2.4262	53.4724
2.4194	53.0435
2.4127	52.7522
2.4059	52.2932
2.3993	52.1971
2.3926	51.9676
2.386	51.987
2.3795	52.2285
2.3729	52.1871
2.3664	52.1787
2.36	51.6031
2.3535	51.2829
2.3471	51.0132
2.3408	50.6076
2.3345	50.6079
2.3282	50.8271
2.3219	51.1157
2.3157	51.5935
2.3095	51.9665
2.3034	52.1092
2.2972	52.2658
2.2911	52.7294
2.2851	52.6175
2.279	52.6815
2.2731	52.2963
2.2671	52.2344
2.2612	51.8933
2.2553	51.6793
2.2494	51.6652
2.2435	51.9481
2.2377	52.2028
2.232	52.1297
2.2262	52.2602
2.2205	52.206
2.2148	51.8627
2.2091	51.9137
2.2035	51.916
2.1979	51.7484
2.1923	51.586
2.1868	51.5275
2.1812	51.2123
2.1758	51.3138
2.1703	50.9947
2.1649	50.8069
2.1595	50.7064
2.1541	50.7141
2.1487	50.5682
2.1434	50.0723
2.1381	49.867
2.1328	50.0174
2.1275	49.9308
2.1223	49.7909
2.1171	49.7242
2.112	49.1791
2.1068	49.4316
2.1017	49.1115
2.0966	48.9827
2.0915	48.4011
2.0865	48.9219
2.0814	48.4495
2.0764	48.488
2.0715	48.1339
2.0665	48.4484
2.0616	47.7118
2.0567	48.0822
2.0518	47.4999
2.0469	47.5884
2.0421	47.4243
2.0373	47.0057
2.0325	46.911
2.0277	47.0583
2.0229	46.6919
2.0182	46.4409
2.0135	46.5266
2.0088	46.1668
2.0042	46.0187
