Name: Alunite (sodium alunite) NaAl3(SO4)2(OH)6
Type: Mineral
Class: Sulfate
Subclass: None
Particle Size: Fine
Sample No.: alunite_4
Owner: JHU
Wavelength Range: TIR
Origin: Synthetic; Synthesized by Roger Stoffregen and supplied byPhil Bethke (USGS).
Description: The sample was a white, microcrystalline powder composed of equant or lath-shaped crystallites from 1 to 15 micrometers in largest dimension. Particle size was less than 2 Micrometers. Original ASTER Spectral Library name was jhu.nicolet.mineral.sulfate.none.powder.alunit4.spectrum.txt
Measurement: Transmission
X Units: Wavelength (micrometers)
Y Units: Transmittance (percent)
wavelength	value
25.0442	91.8435
24.3388	88.281
23.6719	79.8982
23.0407	61.7205
22.4422	61.0409
21.8741	84.5037
21.334	88.6287
20.8199	88.3865
20.33	86.0584
19.8627	86.4383
19.4163	74.6326
18.9896	69.7889
18.5812	73.7195
18.19	82.0164
17.815	79.8562
17.4551	74.283
17.1094	61.6297
16.7772	31.8573
16.4576	24.0361
16.15	41.2548
15.8537	18.5117
15.568	27.2392
15.2925	48.4608
15.0265	40.6161
14.7697	34.3778
14.5214	37.0605
14.2814	39.3734
14.0492	42.0141
13.8244	53.119
13.6067	67.2874
13.3957	76.4471
13.1912	82.1892
12.9929	85.8201
12.8004	88.1912
12.6135	89.4422
12.432	90.45
12.2557	90.9548
12.0843	91.6604
11.9176	92.1331
11.7555	92.303
11.5977	92.4783
11.444	92.367
11.2944	92.3093
11.1487	92.1179
11.0067	92.2087
10.8682	92.2517
10.7332	92.1589
10.6015	91.9295
10.473	91.8142
10.3476	91.2942
10.2251	90.3142
10.1056	88.9988
9.9887	87.4685
9.8746	84.7615
9.763	72.3758
9.6539	76.471
9.5472	74.782
9.4429	66.8211
9.3408	51.5292
9.2409	27.4081
9.1431	6.959
9.0474	7.3457
8.9536	14.4985
8.8618	25.6318
8.7718	37.5941
8.6837	46.2123
8.5973	50.1854
8.5126	52.0135
8.4295	50.4354
8.3481	45.3087
8.2682	39.4103
8.1898	36.4472
8.1129	40.5226
8.0374	53.4159
7.9634	67.3201
7.8906	77.1534
7.8192	82.7508
7.7491	86.3201
7.6802	88.9658
7.6126	90.4561
7.5461	91.7666
7.4807	92.6956
7.4165	93.4407
7.3534	93.8914
7.2914	94.1668
7.2303	94.1609
7.1703	93.9641
7.1113	94.0938
7.0533	94.7969
6.9962	95.1516
6.94	95.2288
6.8847	95.2813
6.8302	95.2957
6.7767	95.3518
6.7239	95.4336
6.672	95.3184
6.6209	95.1433
6.5705	95.0623
6.5209	95.3235
6.4721	95.4697
6.424	95.3972
6.3766	95.3613
6.3299	95.1475
6.2838	94.7617
6.2385	94.1572
6.1937	93.1902
6.1496	92.5596
6.1062	92.0254
6.0633	92.5342
6.0211	93.4395
5.9794	94.1318
5.9383	94.6541
5.8978	95.3723
5.8578	96.1348
5.8184	96.3313
5.7794	96.8259
5.741	97.0803
5.7031	97.2117
5.6657	97.4326
5.6288	97.5234
5.5924	97.5955
5.5564	97.6736
5.5209	97.7507
5.4859	97.7959
5.4513	97.8779
5.4171	97.9275
5.3833	98.0359
5.35	98.0085
5.3171	98.1277
5.2846	98.1433
5.2524	98.2126
5.2207	98.1785
5.1893	98.2424
5.1584	98.2253
5.1277	98.2422
5.0975	98.2449
5.0676	98.2578
5.038	98.2273
5.0088	98.2285
4.98	98.2256
4.9514	98.2285
4.9232	98.2703
4.8953	98.2165
4.8678	98.3152
4.8405	98.1077
4.8135	98.0173
4.7868	98.1096
4.7605	98.0593
4.7344	97.5915
4.7086	97.2004
4.6831	96.3665
4.6578	96.0959
4.6328	96.2913
4.6081	95.6028
4.5837	95.8162
4.5595	95.6057
4.5356	95.3831
4.5119	95.2322
4.4884	95.3503
4.4652	95.3694
4.4423	95.6951
4.4196	95.8811
4.3971	95.9172
4.3748	96.156
4.3528	96.3337
4.331	96.0271
4.3094	96.1775
4.288	96.4241
4.2668	96.9138
4.2458	97.2214
4.2251	97.405
4.2045	97.614
4.1841	97.6892
4.164	97.6843
4.144	97.6521
4.1242	97.6814
4.1046	97.7131
4.0852	97.7273
4.066	97.6975
4.047	97.7292
4.0281	97.7078
4.0094	97.676
3.9909	97.6077
3.9725	97.6951
3.9544	97.6272
3.9363	97.6238
3.9185	97.655
3.9008	97.5984
3.8833	97.6858
3.8659	97.739
3.8487	97.6531
3.8316	97.6697
3.8147	97.6179
3.7979	97.7034
3.7813	97.6697
3.7648	97.6189
3.7485	97.4866
3.7323	97.5159
3.7162	97.4319
3.7003	97.3206
3.6845	97.2209
3.6689	97.072
3.6534	97.0276
3.638	96.8181
3.6227	96.6975
3.6076	96.6365
3.5926	96.448
3.5777	96.3474
3.563	96.1042
3.5484	95.99
3.5338	95.7795
3.5195	95.5193
3.5052	95.2732
3.491	95.1687
3.477	94.9802
3.463	94.7366
3.4492	94.5564
3.4355	94.2253
3.4219	93.8884
3.4084	93.6443
3.395	93.4314
3.3817	93.115
3.3685	92.9509
3.3554	92.5901
3.3425	92.4314
3.3296	92.2503
3.3168	92.0056
3.3041	91.7537
3.2915	91.5569
3.279	91.2815
3.2666	91.0935
3.2543	90.8025
3.2421	90.3699
3.23	90.3025
3.218	89.9812
3.206	89.7273
3.1942	89.5886
3.1824	89.241
3.1707	88.9685
3.1591	88.4988
3.1476	88.2937
3.1362	87.8318
3.1249	87.033
3.1136	87.1228
3.1024	86.8943
3.0913	86.6414
3.0803	86.6531
3.0694	86.572
3.0585	86.0593
3.0477	85.4744
3.037	84.7459
3.0264	84.1922
3.0158	82.2381
3.0053	80.5877
2.9949	79.0135
2.9845	77.1961
2.9743	74.3338
2.9641	72.9969
2.9539	71.4783
2.9439	67.7264
2.9339	63.0125
2.9239	55.9295
2.9141	39.8368
2.9043	15.2011
2.8946	5.5908
2.8849	22.2587
2.8753	28.414
2.8658	16.9707
2.8563	42.8729
2.8469	59.2381
2.8375	66.8328
2.8282	70.9608
2.819	75.0604
2.8098	78.3602
2.8007	80.3641
2.7917	82.6805
2.7827	85.5545
2.7738	87.8865
2.7649	89.532
2.7561	91.2107
2.7473	92.8435
2.7386	93.8835
2.7299	95.1384
2.7213	95.8406
2.7128	96.6531
2.7043	96.7771
2.6959	97.1208
2.6875	97.7537
2.6791	97.9499
2.6709	98.1247
2.6626	98.1492
2.6545	98.529
2.6463	98.4509
2.6382	98.6814
2.6302	98.8904
2.6222	98.7712
2.6143	98.8865
2.6064	98.9021
2.5986	99.2185
2.5908	99.3279
2.583	99.1482
2.5753	99.2947
2.5677	98.9802
2.5601	99.3279
2.5525	99.3708
2.545	99.3396
2.5375	99.4255
2.5301	99.2107
2.5227	99.2029
2.5154	99.5642
2.5081	99.7732
2.5008	99.7048
2.4936	99.4919
2.4864	99.6833
2.4793	99.8396
2.4722	99.8747
2.4651	99.7595
2.4581	100.015
2.4511	99.8904
2.4442	100.019
2.4373	100.011
2.4305	100.189
2.4236	100.431
2.4169	100.126
2.4101	100.406
2.4034	100.601
2.3967	100.478
2.3901	100.464
2.3835	100.601
2.377	100.478
2.3704	100.65
2.364	100.523
2.3575	100.782
2.3511	100.827
2.3447	100.788
2.3384	100.46
2.3321	100.697
2.3258	100.745
2.3195	100.462
2.3133	101.056
2.3071	101.087
2.301	100.991
2.2949	100.796
2.2888	100.96
2.2828	100.773
2.2767	100.968
2.2708	101.05
2.2648	100.894
2.2589	101.116
2.253	101.101
2.2471	100.882
2.2413	101.324
2.2355	100.968
2.2297	100.82
2.224	100.859
2.2183	101.046
2.2126	100.534
2.207	100.468
2.2013	101.109
2.1957	101.234
2.1902	100.663
2.1846	100.765
2.1791	100.804
2.1736	100.671
2.1682	100.761
2.1628	101.206
2.1574	101.077
2.152	100.616
2.1466	100.659
2.1413	100.515
2.136	100.726
2.1308	100.429
2.1255	101.187
2.1203	100.968
2.1151	100.179
2.11	100.488
2.1048	101.284
2.0997	100.894
2.0946	100.972
2.0895	100.327
2.0845	101.347
2.0795	100.632
