Name: Rutile TiO2
Type: Mineral
Class: Oxide
Subclass: None
Particle Size: Fine
Sample No.: rutile_1
Owner: JHU
Wavelength Range: TIR
Origin: White Plains, Alexander County, North Carolina vie theSmithsonian (sample no. NMNH 83192)
Description: The sample was composed of three small crystals with a total weight of 3.83 g.  Some reddish-brown clay mineral and muscovite coating one surface was scraped away.  Veining inside crystals showed limonitic staining.  The crushed sample was given an HCl and HF bath to remove stain, after which microscopic examination indicated a pure sample. Particle size was less than 2  Micrometers.(Rutile Group) Original ASTER Spectral Library name was jhu.nicolet.mineral.oxide.none.powder.rutile1.spectrum.txt
Measurement: Transmission
X Units: Wavelength (micrometers)
Y Units: Transmittance (percent)
wavelength	value
25.0442	21.7734
24.3388	21.1054
23.6719	23.6113
23.0407	28.0761
22.4422	32.329
21.8741	32.0663
21.334	30.1523
20.8199	28.2187
20.33	24.957
19.8627	20.4457
19.4163	16.6611
18.9896	14.8769
18.5812	14.5097
18.19	14.7231
17.815	15.0102
17.4551	15.1684
17.1094	15.2485
16.7772	15.393
16.4576	15.7998
16.15	16.5688
15.8537	17.9941
15.568	19.5732
15.2925	21.3803
15.0265	23.1298
14.7697	24.9731
14.5214	26.728
14.2814	28.2309
14.0492	29.3788
13.8244	30.3283
13.6067	31.1542
13.3957	32.4982
13.1912	34.9291
12.9929	38.787
12.8004	43.8427
12.6135	49.1593
12.432	54.2364
12.2557	58.9735
12.0843	63.0606
11.9176	66.241
11.7555	68.5487
11.5977	69.7816
11.444	70.3367
11.2944	70.3978
11.1487	70.3924
11.0067	70.511
10.8682	70.804
10.7332	71.1719
10.6015	71.8294
10.473	72.9637
10.3476	74.3028
10.2251	75.6556
10.1056	76.5821
9.9887	76.5147
9.8746	75.6871
9.763	74.4376
9.6539	73.3331
9.5472	72.6436
9.4429	72.2916
9.3408	72.4739
9.2409	73.199
9.1431	74.169
9.0474	75.1658
8.9536	76.2198
8.8618	76.9747
8.7718	77.7959
8.6837	78.3733
8.5973	78.9725
8.5126	79.7591
8.4295	80.9593
8.3481	82.4148
8.2682	84.0545
8.1898	85.6126
8.1129	86.7224
8.0374	87.2598
7.9634	87.3274
7.8906	87.1258
7.8192	86.8045
7.7491	86.5183
7.6802	86.1106
7.6126	85.6778
7.5461	85.2615
7.4807	84.7556
7.4165	84.2491
7.3534	83.7166
7.2914	83.118
7.2303	82.5037
7.1703	81.595
7.1113	81.0774
7.0533	80.9685
6.9962	80.5882
6.94	79.9949
6.8847	79.4285
6.8302	78.9544
6.7767	78.7273
6.7239	78.3194
6.672	77.8445
6.6209	77.3216
6.5705	76.9031
6.5209	76.3313
6.4721	75.7737
6.424	75.2718
6.3766	74.636
6.3299	74.0926
6.2838	73.5967
6.2385	72.9817
6.1937	72.0794
6.1496	70.9915
6.1062	70.6614
6.0633	70.532
6.0211	70.6595
5.9794	70.9632
5.9383	70.8128
5.8978	70.4722
5.8578	70.0721
5.8184	69.9144
5.7794	69.5638
5.741	69.1795
5.7031	68.8709
5.6657	68.4979
5.6288	68.1326
5.5924	67.7838
5.5564	67.4156
5.5209	67.0794
5.4859	66.7208
5.4513	66.348
5.4171	66.0365
5.3833	65.6322
5.35	65.294
5.3171	64.9227
5.2846	64.599
5.2524	64.2772
5.2207	63.9398
5.1893	63.6131
5.1584	63.3138
5.1277	62.9749
5.0975	62.6541
5.0676	62.3128
5.038	61.9823
5.0088	61.6707
4.98	61.37
4.9514	61.0453
4.9232	60.7313
4.8953	60.3983
4.8678	60.086
4.8405	59.8094
4.8135	59.5123
4.7868	59.2298
4.7605	58.9308
4.7344	58.6375
4.7086	58.3368
4.6831	58.0633
4.6578	57.785
4.6328	57.5106
4.6081	57.2567
4.5837	56.961
4.5595	56.7191
4.5356	56.4344
4.5119	56.1983
4.4884	55.8712
4.4652	55.6092
4.4423	55.338
4.4196	55.0655
4.3971	54.836
4.3748	54.5819
4.3528	54.3075
4.331	54.0372
4.3094	53.8343
4.288	53.6197
4.2668	53.3385
4.2458	53.0968
4.2251	52.8636
4.2045	52.6134
4.1841	52.3783
4.164	52.1202
4.144	51.9025
4.1242	51.6464
4.1046	51.4181
4.0852	51.1534
4.066	50.9357
4.047	50.6835
4.0281	50.4354
4.0094	50.1932
3.9909	49.9835
3.9725	49.7836
3.9544	49.5609
3.9363	49.34
3.9185	49.1185
3.9008	48.8646
3.8833	48.6805
3.8659	48.4164
3.8487	48.2157
3.8316	48.0157
3.8147	47.8309
3.7979	47.6241
3.7813	47.4259
3.7648	47.2335
3.7485	47.0304
3.7323	46.7865
3.7162	46.5956
3.7003	46.3583
3.6845	46.1459
3.6689	45.8939
3.6534	45.743
3.638	45.5392
3.6227	45.3527
3.6076	45.1857
3.5926	44.9657
3.5777	44.6886
3.563	44.4618
3.5484	44.2377
3.5338	44.0304
3.5195	43.7094
3.5052	43.2492
3.491	43.2216
3.477	43.0978
3.463	42.8847
3.4492	42.5936
3.4355	42.1884
3.4219	41.6376
3.4084	41.7064
3.395	41.7804
3.3817	41.6137
3.3685	41.4218
3.3554	41.258
3.3425	41.1242
3.3296	40.9227
3.3168	40.8466
3.3041	40.6381
3.2915	40.422
3.279	40.2274
3.2666	40.0145
3.2543	39.7755
3.2421	39.5431
3.23	39.2929
3.218	38.9923
3.206	38.789
3.1942	38.6366
3.1824	38.3817
3.1707	38.1449
3.1591	37.9574
3.1476	37.7895
3.1362	37.5668
3.1249	37.3402
3.1136	37.161
3.1024	36.995
3.0913	36.7719
3.0803	36.5175
3.0694	36.3798
3.0585	36.2255
3.0477	36.0048
3.037	35.8651
3.0264	35.6894
3.0158	35.5185
3.0053	35.3149
2.9949	35.0219
2.9845	34.768
2.9743	34.6659
2.9641	34.4394
2.9539	34.3183
2.9439	34.1015
2.9339	33.9692
2.9239	33.8559
2.9141	33.7777
2.9043	33.8163
2.8946	33.7157
2.8849	33.6757
2.8753	33.7113
2.8658	33.7426
2.8563	33.7734
2.8469	33.7992
2.8375	33.9125
2.8282	34.0741
2.819	34.1444
2.8098	34.1586
2.8007	34.2323
2.7917	34.2968
2.7827	34.4164
2.7738	34.4901
2.7649	34.6806
2.7561	34.7626
2.7473	34.8007
2.7386	34.8358
2.7299	34.8456
2.7213	34.6996
2.7128	34.5863
2.7043	34.7108
2.6959	34.727
2.6875	34.5453
2.6791	34.3324
2.6709	34.2538
2.6626	34.1835
2.6545	34.0819
2.6463	34.0448
2.6382	33.8827
2.6302	33.7567
2.6222	33.6488
2.6143	33.5526
2.6064	33.5473
2.5986	33.3319
2.5908	33.3051
2.583	33.2055
2.5753	33.1698
2.5677	32.9848
2.5601	32.8632
2.5525	32.7519
2.545	32.578
2.5375	32.4618
2.5301	32.5185
2.5227	32.4989
2.5154	32.4589
2.5081	32.2294
2.5008	32.2665
2.4936	32.1259
2.4864	31.9296
2.4793	31.8564
2.4722	31.7236
2.4651	31.7421
2.4581	31.6093
2.4511	31.4823
2.4442	31.4599
2.4373	31.4062
2.4305	31.372
2.4236	31.3769
2.4169	31.2978
2.4101	31.0273
2.4034	31.2167
2.3967	31.1894
2.3901	30.9316
2.3835	30.7714
2.377	30.7128
2.3704	30.6259
2.364	30.5507
2.3575	30.6601
2.3511	30.7187
2.3447	30.3788
2.3384	30.2587
2.3321	30.3105
2.3258	30.3202
2.3195	30.082
2.3133	29.9696
2.3071	30.0546
2.301	30.0165
2.2949	29.8671
2.2888	29.8368
2.2828	29.8984
2.2767	29.8905
2.2708	29.6767
2.2648	29.6132
2.2589	29.4023
2.253	29.4267
2.2471	29.3798
2.2413	29.4335
2.2355	29.3681
2.2297	29.3593
2.224	29.414
2.2183	29.1679
2.2126	29.0634
2.207	29.0038
2.2013	28.8671
2.1957	28.957
2.1902	29.0322
2.1846	28.914
2.1791	28.9218
2.1736	28.7519
2.1682	28.9511
2.1628	28.6601
2.1574	28.6034
2.152	28.6406
2.1466	28.4745
2.1413	28.289
2.136	28.332
2.1308	28.4042
2.1255	28.1972
2.1203	28.0488
2.1151	27.9941
2.11	28.2284
2.1048	28.4863
2.0997	28.08
2.0946	27.9999
2.0895	28.2128
2.0845	28.1562
2.0795	27.8085
