Name: Barite BaSO_4
Type: Mineral
Class: Sulfate
Subclass: None
Particle Size: Coarse
Sample No.: SO-3A
Owner: JPL
Wavelength Range: VSWIR
Origin: USA, South Carolina, Cherokee County, Kings Creek
Description: Particle size was 125-500um.Collected by Ward's Original ASTER Spectral Library name was jpl.beckman.mineral.sulfate.none.coarse.so03a.spectrum.txt
Measurement: Hemispherical reflectance
X Units: Wavelength (micrometers)
Y Units: Reflectance (percent)
wavelength	value
0.4	82.65
0.403	83.01
0.406	83.27
0.409	83.74
0.412	83.98
0.415	84.31
0.418	84.56
0.421	84.84
0.424	85.03
0.427	85.16
0.43	85.37
0.433	85.52
0.436	85.75
0.439	86.21
0.442	86.05
0.445	86.3
0.448	86.42
0.451	86.52
0.454	86.56
0.457	86.83
0.46	86.9
0.463	86.87
0.466	86.86
0.469	86.99
0.472	87.1
0.475	87.3
0.478	87.26
0.481	87.31
0.484	87.34
0.487	87.41
0.49	87.34
0.493	87.63
0.496	87.67
0.499	87.76
0.502	87.78
0.505	87.79
0.508	87.92
0.511	88.1
0.514	88.15
0.517	88.16
0.52	88.35
0.523	88.36
0.526	88.31
0.529	88.37
0.532	88.51
0.535	88.38
0.538	88.61
0.541	88.45
0.544	88.47
0.547	88.72
0.55	88.86
0.553	88.86
0.556	88.91
0.559	88.98
0.562	89.18
0.565	89.16
0.568	89.1
0.571	89
0.574	88.7
0.577	88.86
0.58	88.76
0.583	88.63
0.586	88.64
0.589	88.87
0.592	88.77
0.595	88.82
0.598	88.9
0.601	88.99
0.604	88.86
0.607	88.99
0.61	88.84
0.613	88.96
0.616	88.85
0.619	89.05
0.622	88.85
0.625	88.9
0.628	88.9
0.631	88.95
0.634	89.02
0.637	89.13
0.64	89.19
0.643	89.12
0.646	89.08
0.649	89.13
0.652	89.26
0.655	89.29
0.658	89.36
0.661	89.42
0.664	89.37
0.667	89.48
0.67	89.48
0.673	89.66
0.676	89.66
0.679	89.77
0.682	89.66
0.685	89.66
0.688	89.72
0.691	89.95
0.694	90
0.697	90.06
0.7	90.03
0.703	89.95
0.706	89.9
0.709	90.13
0.712	90.17
0.715	90.13
0.718	90.24
0.721	90.29
0.724	90.12
0.727	90.29
0.73	90.35
0.733	90.45
0.736	90.41
0.739	90.47
0.742	90.51
0.745	90.35
0.748	90.53
0.751	90.46
0.754	90.53
0.757	90.58
0.76	90.64
0.763	90.53
0.766	90.47
0.769	90.47
0.772	90.59
0.775	90.42
0.778	90.58
0.781	90.71
0.784	90.6
0.787	90.65
0.79	90.83
0.793	90.6
0.796	90.82
0.799	90.86
0.808	90.72
0.82	90.77
0.832	90.84
0.844	91.01
0.856	90.94
0.868	90.99
0.88	90.87
0.892	90.87
0.904	90.88
0.916	90.76
0.928	90.94
0.94	90.81
0.952	90.99
0.964	90.81
0.976	90.81
0.988	90.7
1	90.78
1.012	90.87
1.024	90.69
1.036	90.81
1.048	90.76
1.06	90.81
1.072	90.72
1.084	90.81
1.096	90.77
1.108	90.85
1.12	90.83
1.132	90.91
1.144	90.76
1.156	90.86
1.168	90.73
1.18	90.72
1.192	90.74
1.204	90.73
1.216	90.73
1.228	90.65
1.24	90.9
1.252	90.8
1.264	90.78
1.276	90.83
1.288	90.8
1.3	90.86
1.312	90.66
1.324	90.63
1.336	90.56
1.348	90.48
1.36	90.55
1.372	90.29
1.384	90.01
1.396	89.54
1.408	88.94
1.42	88.6
1.432	88.31
1.444	88.38
1.456	88.42
1.468	88.54
1.48	88.82
1.492	89.06
1.504	89.33
1.516	89.62
1.528	89.64
1.54	89.92
1.552	89.92
1.564	90.09
1.576	90.16
1.588	90.32
1.6	90.37
1.612	90.29
1.624	90.46
1.636	90.51
1.648	90.53
1.66	90.57
1.672	90.54
1.684	90.58
1.696	90.45
1.708	90.67
1.72	90.6
1.732	90.39
1.744	90.26
1.756	90.21
1.768	90.33
1.78	90.15
1.792	90.2
1.804	90.13
1.816	90.16
1.828	90.13
1.84	89.97
1.852	89.8
1.864	89.26
1.876	87.84
1.888	85.87
1.9	83.81
1.912	82.55
1.924	82.07
1.936	82.06
1.948	82.51
1.96	83.02
1.972	83.78
1.984	84.66
1.996	85.26
2.008	85.8
2.02	86.49
2.032	87.06
2.044	87.38
2.056	87.69
2.068	88.12
2.08	88.45
2.092	88.79
2.104	89.01
2.116	89.39
2.128	89.53
2.14	89.59
2.152	89.38
2.164	89.4
2.176	89.31
2.188	89.11
2.2	89.11
2.212	89.06
2.224	89.14
2.236	89.08
2.248	89
2.26	88.95
2.272	88.89
2.284	88.71
2.296	88.64
2.308	88.35
2.32	88.35
2.332	88.03
2.344	87.93
2.356	87.68
2.368	87.4
2.38	87.01
2.392	86.64
2.404	86.46
2.416	86.01
2.428	85.71
2.44	85.35
2.452	84.96
2.464	84.55
2.476	84.18
2.488	84.27
2.5	84.66
