Name: Vermiculite (Mg,Fe^2+,Al)_3(Al,Si)_4O_10(OH)_2.4H_2O
Type: Mineral
Class: Silicate
Subclass: Phyllosilicate
Particle Size: Fine
Sample No.: PS-18A
Owner: JPL
Wavelength Range: VSWIR
Origin: USA, Texas, Llano County, Llano.
Description: Particle size was 0-45um.Collected by :  Clay Mineral Society Original ASTER Spectral Library name was jpl.perkin.mineral.silicate.phyllosilicate.fine.ps18a.spectrum.txt
Measurement: Hemispherical reflectance
X Units: Wavelength (micrometers)
Y Units: Reflectance (percent)
wavelength	value
2.5	52.2596
2.494	52.8449
2.488	53.5068
2.482	54.1808
2.476	54.8496
2.47	55.5256
2.464	56.1523
2.458	56.7343
2.452	57.1877
2.446	57.4324
2.44	57.7194
2.434	57.8282
2.428	58.2859
2.422	58.7289
2.416	59.3375
2.41	59.7493
2.404	59.9717
2.398	60.178
2.392	60.4772
2.386	60.8889
2.38	61.3645
2.374	62.0501
2.368	62.826
2.362	63.4157
2.356	63.5615
2.35	62.817
2.344	61.3985
2.338	59.675
2.332	58.2933
2.326	57.598
2.32	57.5297
2.314	58.069
2.308	59.3614
2.302	60.8185
2.296	62.1691
2.29	63.1297
2.284	63.8791
2.278	64.6752
2.272	65.3102
2.266	65.9708
2.26	67.1589
2.254	67.7944
2.248	68.0379
2.242	68.5497
2.236	69.3777
2.23	70.3355
2.224	71.2587
2.218	71.8411
2.212	72.2563
2.206	72.4172
2.2	72.8825
2.194	73.0803
2.188	73.3243
2.182	73.4205
2.176	73.557
2.17	73.6517
2.164	73.743
2.158	73.7886
2.152	73.6789
2.146	73.4731
2.14	73.1475
2.134	72.7508
2.128	72.5193
2.122	72.3537
2.116	72.0516
2.11	71.7297
2.104	71.5198
2.098	71.3541
2.092	71.3858
2.086	71.5388
2.08	71.8093
2.074	71.9381
2.068	71.9881
2.062	71.8581
2.056	71.7106
2.05	71.4713
2.044	71.2303
2.038	71.0134
2.032	70.6601
2.026	70.4904
2.02	70.1587
2.014	69.8845
2.008	69.5101
2.002	69.0946
1.996	68.6349
1.99	68.2668
1.984	67.8638
1.978	67.5067
1.972	67.2558
1.966	67.0791
1.96	66.823
1.954	66.6208
1.948	66.3651
1.942	66.1106
1.936	65.8286
1.93	65.6319
1.924	65.5029
1.918	65.5459
1.912	66.152
1.906	67.3186
1.9	69.2409
1.894	71.2658
1.888	73.0088
1.882	74.363
1.876	75.434
1.87	76.3831
1.864	76.8831
1.858	77.295
1.852	77.4545
1.846	77.6038
1.84	77.8055
1.834	77.8071
1.828	77.9192
1.822	77.9712
1.816	77.9892
1.81	78.0175
1.804	78.0436
1.798	78.2165
1.792	78.1389
1.786	78.1615
1.78	78.179
1.774	78.1777
1.768	78.1848
1.762	78.2052
1.756	78.3094
1.75	78.3578
1.744	78.4053
1.738	78.5186
1.732	78.5504
1.726	78.5699
1.72	78.6155
1.714	78.6893
1.708	78.5957
1.702	78.7165
1.696	78.8062
1.69	78.7773
1.684	78.7787
1.678	78.7783
1.672	78.8548
1.666	78.9544
1.66	78.9356
1.654	78.9813
1.648	78.9358
1.642	78.9571
1.636	79.0321
1.63	79.0541
1.624	78.9856
1.618	78.9279
1.612	79.0331
1.606	79.0775
1.6	79.0696
1.594	79.0904
1.588	78.9008
1.582	78.877
1.576	78.8871
1.57	78.908
1.564	78.8283
1.558	78.6854
1.552	78.6829
1.546	78.5829
1.54	78.514
1.534	78.3683
1.528	78.3414
1.522	78.1327
1.516	78.0095
1.51	77.9424
1.504	77.7671
1.498	77.638
1.492	77.469
1.486	77.2887
1.48	77.1696
1.474	77.0041
1.468	76.8514
1.462	76.7669
1.456	76.668
1.45	76.5858
1.444	76.3267
1.438	76.3282
1.432	76.1826
1.426	76.0402
1.42	76.0832
1.414	75.9566
1.408	75.2401
1.402	74.0092
1.396	70.2401
1.39	69.8409
1.384	70.2611
1.378	77.31
1.372	78.7676
1.366	78.9216
1.36	78.6491
1.354	79.0208
1.348	79.6725
1.342	79.7671
1.336	79.8145
1.33	79.866
1.324	79.8901
1.318	79.8326
1.312	79.8414
1.306	79.8466
1.3	79.7951
1.294	79.7356
1.288	79.5395
1.282	79.5309
1.276	79.4513
1.27	79.5751
1.264	79.6017
1.258	79.609
1.252	79.6667
1.246	79.6409
1.24	79.6432
1.234	79.5644
1.228	79.5112
1.222	79.5002
1.216	79.4709
1.21	79.4476
1.204	79.323
1.198	79.2428
1.192	79.3385
1.186	79.3292
1.18	79.2643
1.174	79.181
1.168	79.1679
1.162	79.0939
1.156	79.2293
1.15	79.1435
1.144	79.0992
1.138	79.0885
1.132	79.1161
1.126	79.1164
1.12	79.0227
1.114	79.0054
1.108	79.0208
1.102	78.9756
1.096	78.9972
1.09	78.8636
1.084	78.7811
1.078	78.8873
1.072	78.8117
1.066	78.8216
1.06	78.6991
1.054	78.6643
1.048	78.6514
1.042	78.5508
1.036	78.5577
1.03	78.4513
1.024	78.4831
1.018	78.4458
1.012	78.4718
1.006	78.2893
1	78.3272
0.994	78.3244
0.988	78.2879
0.982	78.1975
0.976	78.1668
0.97	78.1206
0.964	78.0563
0.958	77.9739
0.952	77.6628
0.946	77.6414
0.94	77.7966
0.934	77.8674
0.928	77.8114
0.922	77.8237
0.916	77.7294
0.91	77.7156
0.904	77.6952
0.898	77.5604
0.892	77.5836
0.886	77.5388
0.88	77.6895
0.874	77.5786
0.868	77.5616
0.862	77.5605
0.856	77.7436
0.85	77.7137
0.844	77.6844
0.838	77.6635
0.832	77.6321
0.826	77.5507
0.82	77.4647
0.814	77.4756
0.808	77.4638
0.802	77.4016
0.796	77.2256
0.79	77.147
0.784	77.0548
0.778	76.9842
0.772	76.8108
0.766	76.7552
0.76	76.6638
0.754	76.572
0.748	76.4439
0.742	76.3489
0.736	76.2291
0.73	76.084
0.724	75.9968
0.718	75.8959
0.712	75.7682
0.706	75.6654
0.7	75.5624
0.694	75.4392
0.688	75.3048
0.682	75.2097
0.676	75.0416
0.67	74.8931
0.664	74.7317
0.658	74.5438
0.652	74.3525
0.646	74.1706
0.64	73.9825
0.634	73.7874
0.628	73.6092
0.622	73.4371
0.616	73.2573
0.61	73.0766
0.604	72.8728
0.598	72.6891
0.592	72.5171
0.586	72.2947
0.58	72.0352
0.574	71.7537
0.568	71.4648
0.562	71.1339
0.556	70.7706
0.55	70.3805
0.544	69.9589
0.538	69.5128
0.532	69.0193
0.526	68.5208
0.52	67.9952
0.514	67.4373
0.508	66.8632
0.502	66.2655
0.496	65.6211
0.49	65.0273
0.484	64.3941
0.478	63.8186
0.472	63.2327
0.466	62.6571
0.46	62.085
0.454	61.486
0.448	60.765
0.442	59.9527
0.436	59.1343
0.43	58.3324
0.424	57.5898
0.418	56.8147
0.412	56.0762
0.406	55.3266
0.4	54.5004
