Name: Wollastonite CaSiO_3
Type: Mineral
Class: Silicate
Subclass: Inosilicate
Particle Size: Fine
Sample No.: IN-2A
Owner: JPL
Wavelength Range: TIR
Origin: USA, California, Inyo County, Panamint Mountains
Description: Particle size was 0-45um.Collected by Burminco Original ASTER Spectral Library name was jpl.nicolet.mineral.silicate.inosilicate.fine.in02a.spectrum.txt
Measurement: Hemispherical reflectance
X Units: Wavelength (micrometers)
Y Units: Reflectance (percent)
wavelength	value
15.3853	3.5089
15.1161	4.7287
14.8563	4.5201
14.6052	2.95
14.3624	4.7724
14.1276	9.8888
13.9004	13.0105
13.6803	15.1872
13.4671	16.1596
13.2604	17.2757
13.06	17.4065
12.8656	16.9783
12.6769	16.7309
12.4936	16.4712
12.3155	16.9907
12.1425	16.8286
11.9742	16.0354
11.8106	14.7721
11.6513	13.1378
11.4963	10.9523
11.3454	8.2915
11.1983	7.0096
11.0551	7.5689
10.9154	7.3442
10.7793	8.3821
10.6465	10.2368
10.5169	11.2674
10.3904	10.6461
10.267	9.7246
10.1464	7.8386
10.0287	7.0112
9.9136	7.0646
9.8012	6.3171
9.6913	6.4663
9.5838	5.1446
9.4787	6.3785
9.3758	9.515
9.2752	9.1352
9.1767	8.1054
9.0803	7.6932
8.9858	8.2336
8.8934	9.1098
8.8028	8.5535
8.714	5.7007
8.627	3.8827
8.5417	4.0536
8.4581	3.8966
8.3761	4.5799
8.2957	5.4404
8.2169	6.3641
8.1395	7.4981
8.0635	8.32
7.989	9.7633
7.9158	11.1348
7.8439	12.8671
7.7734	14.7313
7.7041	16.2353
7.636	16.7301
7.5691	17.3494
7.5034	18.2408
7.4388	19.1297
7.3753	20.177
7.3129	20.2852
7.2515	19.297
7.1912	17.8873
7.1318	15.9677
7.0734	14.2167
7.016	13.6127
6.9595	12.6519
6.9039	12.0895
6.8492	11.8118
6.7953	11.7137
6.7423	12.5139
6.6901	13.843
6.6387	16.1888
6.5881	17.4421
6.5382	17.7016
6.4892	19.5122
6.4408	21.1324
6.3931	21.9011
6.3462	24.5402
6.2999	25.8506
6.2543	26.2428
6.2094	25.8038
6.1651	26.367
6.1214	26.3507
6.0784	27.7365
6.0359	30.6415
5.994	34.3332
5.9527	35.9015
5.912	36.1722
5.8718	35.79
5.8322	34.1268
5.7931	33.8255
5.7545	35.6577
5.7165	38.9698
5.6789	43.184
5.6418	44.3108
5.6052	42.5793
5.5691	39.2857
5.5334	43.3407
5.4982	47.1814
5.4635	49.4407
5.4291	49.1699
5.3952	47.3435
5.3618	44.7909
5.3287	43.7438
5.2961	39.0996
5.2638	35.0509
5.2319	35.6379
5.2004	37.1808
5.1693	39.9003
5.1386	42.4559
5.1082	43.03
5.0782	42.9456
5.0485	44.0979
5.0192	45.5288
4.9902	46.3985
4.9616	47.1454
4.9332	46.8067
4.9052	48.2893
4.8776	50.3865
4.8502	52.2245
4.8231	53.5906
4.7963	56.2279
4.7699	57.3907
4.7437	59.2594
4.7178	61.6491
4.6922	62.6435
4.6668	63.5188
4.6418	65.5313
4.617	67.6878
4.5924	68.8063
4.5681	69.6152
4.5441	71.1123
4.5203	72.2478
4.4968	72.5764
4.4735	72.8143
4.4505	73.1372
4.4277	73.4136
4.4051	73.6062
4.3828	73.9611
4.3607	74.4572
4.3388	74.7036
4.3171	74.7425
4.2956	74.9491
4.2744	75.0733
4.2534	75.5062
4.2325	75.4328
4.2119	75.8698
4.1915	76.1605
4.1712	76.2828
4.1512	76.4213
4.1313	76.4106
4.1117	76.3604
4.0922	76.3055
4.0729	76.0271
4.0538	75.1688
4.0349	73.1225
4.0161	70.4394
3.9976	65.2256
3.9792	63.059
3.9609	64.6751
3.9428	68.6675
3.9249	69.9228
3.9072	70.638
3.8896	70.9191
3.8722	71.1919
3.8549	71.408
3.8378	71.756
3.8208	72.8923
3.804	73.797
3.7873	74.5984
3.7708	74.7694
3.7544	74.7516
3.7382	74.5769
3.7221	74.3591
3.7061	74.1146
3.6903	73.8618
3.6746	73.5143
3.659	73.238
3.6436	72.9163
3.6283	72.5703
3.6131	72.2116
3.5981	71.8555
3.5832	71.4435
3.5684	70.8829
3.5537	70.5325
3.5391	69.9255
3.5247	68.3357
3.5104	66.0395
3.4962	64.7102
3.4821	63.7002
3.4681	64.7809
3.4543	65.5956
3.4405	65.4773
3.4269	64.776
3.4133	64.2944
3.3999	64.504
3.3866	64.3582
3.3733	63.9913
3.3602	63.5948
3.3472	63.5618
3.3343	65.5635
3.3215	65.9252
3.3088	65.6742
3.2961	65.6175
3.2836	65.5041
3.2712	65.1613
3.2588	64.9057
3.2466	64.5377
3.2345	64.2498
3.2224	63.8512
3.2104	63.5204
3.1985	63.0567
3.1867	62.6604
3.175	62.1123
3.1634	61.7041
3.1519	61.2859
3.1404	60.7276
3.129	60.2357
3.1178	59.8198
3.1065	59.2494
3.0954	58.8072
3.0844	58.4957
3.0734	58.19
3.0625	57.8849
3.0517	57.5942
3.041	57.3199
3.0303	57.1205
3.0197	56.6899
3.0092	56.3085
2.9987	55.7434
2.9884	55.2464
2.9781	54.8527
2.9678	54.3753
2.9577	53.6384
2.9476	53.6671
2.9376	53.6374
2.9276	53.4643
2.9177	53.4691
2.9079	52.7787
2.8982	51.98
2.8885	50.9208
2.8789	49.5994
2.8693	48.6238
2.8598	50.0608
2.8504	52.4605
2.841	54.6698
2.8317	56.4557
2.8224	57.3003
2.8133	58.0523
2.8041	59.0873
2.7951	59.5984
2.786	60.3979
2.7771	61.3893
2.7682	62.7643
2.7594	64.1293
2.7506	65.8591
2.7418	69.0196
2.7332	71.1931
2.7246	74.9394
2.716	76.4346
2.7075	78.6638
2.699	80.0973
2.6906	81.1614
2.6823	81.9726
2.674	82.3055
2.6657	85.3701
2.6575	84.4952
2.6494	84.6409
2.6413	84.8421
2.6332	85.3166
2.6252	85.3857
2.6173	85.9702
2.6094	85.3749
2.6015	85.3473
2.5937	86.5177
2.5859	85.4964
2.5782	85.2547
2.5706	85.3533
2.5629	85.837
2.5554	85.0538
2.5478	85.1118
2.5403	84.7681
2.5329	84.8226
2.5255	85.0004
2.5181	85.2856
2.5108	85.5845
2.5035	85.5211
2.4963	85.5942
2.4891	85.7291
2.482	85.8341
2.4749	85.7579
2.4678	85.9057
2.4608	86.1422
2.4538	86.1933
2.4468	86.1888
2.4399	86.5652
2.4331	86.4436
2.4262	86.5147
2.4194	86.3132
2.4127	86.1928
2.4059	86.5252
2.3993	86.3982
2.3926	85.9337
2.386	86.0123
2.3795	86.1346
2.3729	86.3344
2.3664	85.8057
2.36	85.2814
2.3535	85.4767
2.3471	85.6942
2.3408	85.8446
2.3345	85.9425
2.3282	86.541
2.3219	86.9351
2.3157	87.4218
2.3095	87.3985
2.3034	87.506
2.2972	87.3034
2.2911	87.4175
2.2851	87.474
2.279	87.3455
2.2731	87.4024
2.2671	87.3998
2.2612	87.5923
2.2553	87.5834
2.2494	87.556
2.2435	87.671
2.2377	87.4865
2.232	87.5246
2.2262	87.6192
2.2205	87.5926
2.2148	87.6619
2.2091	87.7061
2.2035	87.83
2.1979	87.9098
2.1923	87.9661
2.1868	87.757
2.1812	88.0935
2.1758	88.0299
2.1703	88.0167
2.1649	88.1927
2.1595	88.0309
2.1541	88.241
2.1487	88.1958
2.1434	88.1575
2.1381	88.2655
2.1328	88.1755
2.1275	88.132
2.1223	88.208
2.1171	88.1459
2.112	88.3408
2.1068	88.348
2.1017	88.1541
2.0966	88.2036
2.0915	88.3938
2.0865	88.237
2.0814	88.357
2.0764	88.2454
2.0715	88.1338
2.0665	88.3228
2.0616	88.1544
2.0567	88.0511
2.0518	88.2047
2.0469	88.34
2.0421	88.1155
2.0373	88.2035
2.0325	87.9686
2.0277	88.1472
2.0229	88.1599
2.0182	88.1876
2.0135	88.403
2.0088	88.1518
2.0042	87.9744
