Name: Monticellite CaMgSiO4
Type: Mineral
Class: Silicate
Subclass: Nesosilicate
Particle Size: Coarse
Sample No.: monticell_1
Owner: JHU
Wavelength Range: TIR
Origin: Magnet Cove, Arkansas via the Smithsonian (NMNH 79051-1)
Description: The sample was composed of one large fragment and two smaller ones, all from the same crystal.  The large fragment was 1 cm in diameter and 2.5 cm long, with the other pieces half as large.  Total weight was 7.5 g.  The sample was tan in color, with abundant (10-20%) calcite. Petrographic examination showed minor (<1%) alteration to green antigorite and a few opaque grains. Particle size was 75-250 micrometers. (Isolated tetrahedra); (OlivineGroup) Original ASTER Spectral Library name was jhu.nicolet.mineral.silicate.nesosilicate.coarse.montic1.spectrum.txt
Measurement: Bidirectional reflectance
X Units: Wavelength (micrometers)
Y Units: Reflectance (percent)
wavelength	value
25.0442	3.0732
24.3388	2.302
23.6719	2.7544
23.0407	3.0193
22.4422	2.3965
21.8741	1.5977
21.334	1.7983
20.8199	2.3662
20.33	2.9043
19.8627	3.0102
19.4163	3.3503
18.9896	3.3857
18.5812	3.1006
18.19	2.5842
17.815	1.7095
17.4551	1.1128
17.1094	1.27
16.7772	1.7195
16.4576	2.1431
16.15	2.1863
15.8537	1.4998
15.568	0.9412
15.2925	0.8738
15.0265	1.0024
14.7697	1.0483
14.5214	1.1538
14.2814	1.2051
14.0492	1.2952
13.8244	1.314
13.6067	1.3843
13.3957	1.3779
13.1912	1.4331
12.9929	1.4438
12.8004	1.428
12.6135	1.4524
12.432	1.4895
12.2557	1.6372
12.0843	1.9492
11.9176	1.6536
11.7555	2.061
11.5977	2.5893
11.444	3.9878
11.2944	4.6296
11.1487	4.8689
11.0067	5.0867
10.8682	5.2749
10.7332	5.4365
10.6015	5.0735
10.473	3.1807
10.3476	4.3672
10.2251	3.4756
10.1056	3.2476
9.9887	2.9116
9.8746	2.562
9.763	2.196
9.6539	1.939
9.5472	1.6306
9.4429	1.22
9.3408	0.9543
9.2409	0.802
9.1431	0.7561
9.0474	0.7493
8.9536	0.7874
8.8618	0.7998
8.7718	0.8306
8.6837	0.8357
8.5973	0.8562
8.5126	0.9197
8.4295	0.979
8.3481	1.0774
8.2682	1.1868
8.1898	1.3105
8.1129	1.4575
8.0374	1.7134
7.9634	2.2432
7.8906	2.6023
7.8192	2.7471
7.7491	2.8098
7.6802	3.0083
7.6126	3.2436
7.5461	3.5483
7.4807	3.7693
7.4165	4.0835
7.3534	4.509
7.2914	4.4829
7.2303	4.8931
7.1703	5.2258
7.1113	5.3071
7.0533	5.3183
6.9962	5.5698
6.94	5.4072
6.8847	5.3926
6.8302	5.4548
6.7767	5.6079
6.7239	5.9226
6.672	6.4087
6.6209	6.8952
6.5705	7.1213
6.5209	7.0705
6.4721	6.8813
6.424	6.5967
6.3766	6.4565
6.3299	6.1025
6.2838	5.7844
6.2385	5.841
6.1937	5.4045
6.1496	4.271
6.1062	3.7595
6.0633	2.6011
6.0211	2.5251
5.9794	3.2746
5.9383	3.1516
5.8978	3.5886
5.8578	3.9709
5.8184	3.9092
5.7794	3.4204
5.741	3.1255
5.7031	2.6199
5.6657	2.4226
5.6288	3.0481
5.5924	3.4619
5.5564	3.7234
5.5209	3.7666
5.4859	4.2085
5.4513	4.4841
5.4171	4.6694
5.3833	4.8701
5.35	5.1567
5.3171	5.0505
5.2846	5.1816
5.2524	5.7622
5.2207	5.9653
5.1893	6.5835
5.1584	6.865
5.1277	6.8557
5.0975	6.6714
5.0676	6.3264
5.038	5.8613
5.0088	6.0889
4.98	7.7229
4.9514	9.4673
4.9232	10.0593
4.8953	10.4126
4.8678	10.6499
4.8405	10.7973
4.8135	10.8928
4.7868	11.0085
4.7605	11.1194
4.7344	11.1806
4.7086	11.2187
4.6831	11.258
4.6578	11.2871
4.6328	11.3322
4.6081	11.4016
4.5837	11.4572
4.5595	11.5151
4.5356	11.5808
4.5119	11.6321
4.4884	11.6911
4.4652	11.7226
4.4423	11.7566
4.4196	11.7929
4.3971	11.8359
4.3748	11.8681
4.3528	11.895
4.331	11.9091
4.3094	11.9587
4.288	12.0053
4.2668	12.0515
4.2458	12.0927
4.2251	12.1159
4.2045	12.1487
4.1841	12.1811
4.164	12.2053
4.144	12.2231
4.1242	12.2197
4.1046	12.2031
4.0852	12.1674
4.066	12.05
4.047	11.9455
4.0281	12.0388
4.0094	12.122
3.9909	12.1013
3.9725	12.0949
3.9544	12.092
3.9363	12.0656
3.9185	12.0298
3.9008	11.9499
3.8833	11.8701
3.8659	11.7922
3.8487	11.7588
3.8316	11.7314
3.8147	11.7131
3.7979	11.6782
3.7813	11.6728
3.7648	11.6584
3.7485	11.6208
3.7323	11.6045
3.7162	11.5842
3.7003	11.5395
3.6845	11.5119
3.6689	11.4709
3.6534	11.4243
3.638	11.374
3.6227	11.2995
3.6076	11.2119
3.5926	11.1362
3.5777	11.0561
3.563	10.9695
3.5484	10.8947
3.5338	10.7749
3.5195	10.603
3.5052	10.3
3.491	10.3213
3.477	10.3196
3.463	10.2846
3.4492	10.1443
3.4355	9.9409
3.4219	9.5801
3.4084	9.5371
3.395	9.6838
3.3817	9.6203
3.3685	9.6133
3.3554	9.6762
3.3425	9.6543
3.3296	9.6179
3.3168	9.4985
3.3041	9.404
3.2915	9.2932
3.279	9.1706
3.2666	9.0373
3.2543	8.9153
3.2421	8.7895
3.23	8.6596
3.218	8.53
3.206	8.3738
3.1942	8.219
3.1824	8.083
3.1707	7.9509
3.1591	7.7949
3.1476	7.6369
3.1362	7.4621
3.1249	7.3264
3.1136	7.2104
3.1024	7.1221
3.0913	7.0466
3.0803	6.9656
3.0694	6.8865
3.0585	6.8022
3.0477	6.7651
3.037	6.7363
3.0264	6.6452
3.0158	6.56
3.0053	6.4392
2.9949	6.3306
2.9845	6.227
2.9743	6.1365
2.9641	6.0749
2.9539	6.0752
2.9439	6.0947
2.9339	6.1846
2.9239	6.3166
2.9141	6.5034
2.9043	6.5991
2.8946	6.5776
2.8849	6.5312
2.8753	6.4617
2.8658	6.3708
2.8563	6.4126
2.8469	6.4995
2.8375	6.832
2.8282	7.321
2.819	7.6228
2.8098	7.7148
2.8007	7.7407
2.7917	8.1184
2.7827	8.2212
2.7738	8.2773
2.7649	8.2771
2.7561	8.271
2.7473	8.26
2.7386	8.3547
2.7299	8.4729
2.7213	8.4673
2.7128	8.3777
2.7043	8.884
2.6959	9.9985
2.6875	10.9885
2.6791	11.3811
2.6709	11.4944
2.6626	13.1714
2.6545	13.4489
2.6463	13.612
2.6382	13.7241
2.6302	13.749
2.6222	13.8076
2.6143	13.8247
2.6064	13.7724
2.5986	13.8349
2.5908	13.8403
2.583	13.8071
2.5753	13.8447
2.5677	13.8574
2.5601	13.83
2.5525	13.853
2.545	13.883
2.5375	13.9072
2.5301	13.9453
2.5227	13.9367
2.5154	13.9179
2.5081	13.9284
2.5008	13.935
2.4936	13.9716
2.4864	14.0302
2.4793	14.0009
2.4722	14.0344
2.4651	14.0918
2.4581	14.0976
2.4511	14.1406
2.4442	14.1264
2.4373	14.1045
2.4305	14.0918
2.4236	14.1279
2.4169	14.134
2.4101	14.167
2.4034	14.1411
2.3967	14.1372
2.3901	14.1406
2.3835	14.1762
2.377	14.2041
2.3704	14.2182
2.364	14.2285
2.3575	14.1875
2.3511	14.1362
2.3447	14.0151
2.3384	13.914
2.3321	13.8835
2.3258	13.8891
2.3195	13.8564
2.3133	13.9152
2.3071	13.9416
2.301	13.9939
2.2949	14.0556
2.2888	14.0014
2.2828	14.0344
2.2767	14.0651
2.2708	14.0683
2.2648	14.0957
2.2589	14.1552
2.253	14.1469
2.2471	14.092
2.2413	14.1296
2.2355	14.1828
2.2297	14.1643
2.224	14.1723
2.2183	14.1689
2.2126	14.187
2.207	14.1479
2.2013	14.1367
2.1957	14.1762
2.1902	14.1972
2.1846	14.1945
2.1791	14.2627
2.1736	14.3274
2.1682	14.3794
2.1628	14.3891
2.1574	14.3877
2.152	14.3852
2.1466	14.3371
2.1413	14.3947
2.136	14.3762
2.1308	14.4143
2.1255	14.4716
2.1203	14.5205
2.1151	14.5236
2.11	14.4746
2.1048	14.5005
2.0997	14.5044
2.0946	14.5214
2.0895	14.5693
2.0845	14.5705
2.0795	14.5324
