Name: Cristobalite SiO_2
Type: Mineral
Class: Silicate
Subclass: Tectosilicate
Particle Size: Fine
Sample No.: TS-7A
Owner: JPL
Wavelength Range: VSWIR
Origin: USA, California, Inyo County, Little Lake
Description: Particle size was 0-45um.Collected by Burminco Original ASTER Spectral Library name was jpl.beckman.mineral.silicate.tectosilicate.fine.ts07a.spectrum.txt
Measurement: Hemispherical reflectance
X Units: Wavelength (micrometers)
Y Units: Reflectance (percent)
wavelength	value
0.4	52.87
0.403	53.17
0.406	53.37
0.409	53.58
0.412	53.72
0.415	53.84
0.418	53.94
0.421	54.09
0.424	54.39
0.427	54.4
0.43	54.46
0.433	54.67
0.436	54.95
0.439	54.97
0.442	55.09
0.445	55.29
0.448	55.37
0.451	55.46
0.454	55.63
0.457	55.72
0.46	55.86
0.463	55.96
0.466	56.07
0.469	56.05
0.472	56.11
0.475	56.14
0.478	56.36
0.481	56.43
0.484	56.36
0.487	56.38
0.49	56.6
0.493	56.71
0.496	56.66
0.499	56.86
0.502	57.03
0.505	56.96
0.508	56.99
0.511	57.13
0.514	57.25
0.517	57.39
0.52	57.41
0.523	57.41
0.526	57.59
0.529	57.72
0.532	57.7
0.535	57.64
0.538	57.95
0.541	58.04
0.544	57.95
0.547	58.07
0.55	58.31
0.553	58.54
0.556	58.54
0.559	58.49
0.562	59.09
0.565	58.94
0.568	59.06
0.571	59.12
0.574	59.14
0.577	58.95
0.58	59.14
0.583	59.19
0.586	59.45
0.589	59.34
0.592	59.35
0.595	59.51
0.598	59.69
0.601	59.82
0.604	59.84
0.607	59.85
0.61	59.92
0.613	59.96
0.616	59.95
0.619	59.89
0.622	59.92
0.625	59.96
0.628	60.06
0.631	60.02
0.634	59.96
0.637	59.96
0.64	60.16
0.643	60.22
0.646	60.14
0.649	60.33
0.652	60.47
0.655	60.41
0.658	60.33
0.661	60.4
0.664	60.61
0.667	60.73
0.67	60.56
0.673	60.66
0.676	60.9
0.679	60.88
0.682	60.79
0.685	60.88
0.688	61
0.691	61.02
0.694	60.91
0.697	61.03
0.7	61.05
0.703	61.02
0.706	61.09
0.709	60.91
0.712	60.96
0.715	61.15
0.718	61.09
0.721	61.1
0.724	61.14
0.727	61.17
0.73	61.02
0.733	61
0.736	61.09
0.739	61.06
0.742	61.12
0.745	61.02
0.748	61.02
0.751	61.1
0.754	61.04
0.757	61
0.76	60.96
0.763	60.99
0.766	60.87
0.769	60.85
0.772	60.85
0.775	60.95
0.778	60.77
0.781	60.89
0.784	60.89
0.787	60.83
0.79	60.8
0.793	60.87
0.796	61
0.799	60.89
0.808	60.88
0.82	60.8
0.832	60.72
0.844	60.58
0.856	60.39
0.868	60.24
0.88	59.94
0.892	59.7
0.904	59.43
0.916	59.22
0.928	59.14
0.94	59.1
0.952	59.02
0.964	59.08
0.976	59.14
0.988	59.31
1	59.29
1.012	59.52
1.024	59.62
1.036	59.71
1.048	59.8
1.06	59.81
1.072	59.87
1.084	59.88
1.096	59.9
1.108	59.97
1.12	59.98
1.132	59.87
1.144	59.75
1.156	59.6
1.168	59.54
1.18	59.5
1.192	59.54
1.204	59.36
1.216	59.27
1.228	59.2
1.24	59.17
1.252	59.19
1.264	59.14
1.276	59.09
1.288	59.02
1.3	58.93
1.312	58.85
1.324	58.77
1.336	58.67
1.348	58.64
1.36	58.66
1.372	58.64
1.384	58.57
1.396	58.53
1.408	58.39
1.42	58.35
1.432	58.3
1.444	58.2
1.456	58.2
1.468	58.16
1.48	58.25
1.492	58.21
1.504	57.97
1.516	57.98
1.528	58.03
1.54	57.99
1.552	57.9
1.564	57.78
1.576	57.71
1.588	57.7
1.6	57.67
1.612	57.56
1.624	57.62
1.636	57.55
1.648	57.54
1.66	57.32
1.672	57.3
1.684	57.34
1.696	57.29
1.708	57.29
1.72	57.14
1.732	56.96
1.744	56.94
1.756	56.92
1.768	56.83
1.78	56.71
1.792	56.63
1.804	56.51
1.816	56.41
1.828	56.4
1.84	56.32
1.852	56.2
1.864	56.03
1.876	55.82
1.888	55.55
1.9	55.25
1.912	55.07
1.924	55.11
1.936	55.12
1.948	55.01
1.96	55.08
1.972	55.17
1.984	55.29
1.996	55.38
2.008	55.25
2.02	55.35
2.032	55.44
2.044	55.44
2.056	55.32
2.068	55.28
2.08	55.45
2.092	55.39
2.104	55.47
2.116	55.42
2.128	55.45
2.14	55.43
2.152	55.21
2.164	55.04
2.176	55
2.188	54.98
2.2	54.86
2.212	54.7
2.224	54.72
2.236	54.67
2.248	54.66
2.26	54.64
2.272	54.69
2.284	54.68
2.296	54.6
2.308	54.74
2.32	54.93
2.332	54.91
2.344	54.87
2.356	54.8
2.368	54.66
2.38	54.58
2.392	54.55
2.404	54.45
2.416	54.36
2.428	54.24
2.44	54.12
2.452	54.12
2.464	53.9
2.476	53.77
2.488	53.97
2.5	54.07
