Name: Olivine (Fo88) (Fe+2,Mg)2SiO4
Type: Mineral
Class: Silicate
Subclass: Nesosilicate
Particle Size: Coarse
Sample No.: olivine_8
Owner: JHU
Wavelength Range: TIR
Origin: Brenham, Kansas (location of meteorite fall) via Trude King#10L (from the Center for Meteorite Studies, Arizona St. University)
Description: Olivine obtained from the Brenham meteorite was optically examined using a petrographic microscope prior to spectral measurements to insure purity of the olivine.  Olivine then hand ground and wet sieved to less than 30 micrometers.  Sample preparation by Trude King, USGS, Denver. Particle size was 0-30 micrometers, but Packed powder simulates coarse.(Isolated tetrahedra); (Olivine Group) Original ASTER Spectral Library name was jhu.nicolet.mineral.silicate.nesosilicate.packed.olivin8.spectrum.txt
Measurement: Bidirectional reflectance
X Units: Wavelength (micrometers)
Y Units: Reflectance (percent)
wavelength	value
25.0442	18.665
24.3388	21.5644
23.6719	24.3183
23.0407	23.3046
22.4422	21.0937
21.8741	14.1425
21.334	14.5297
20.8199	12.01
20.33	13.811
19.8627	18.185
19.4163	19.1889
18.9896	22.4653
18.5812	21.7831
18.19	22.3234
17.815	19.342
17.4551	12.0288
17.1094	7.9077
16.7772	8.8489
16.4576	10.5515
16.15	11.5569
15.8537	10.2356
15.568	7.3562
15.2925	5.9995
15.0265	5.8415
14.7697	6.1633
14.5214	6.5034
14.2814	6.8586
14.0492	7.2427
13.8244	7.5552
13.6067	7.9272
13.3957	8.2319
13.1912	8.5564
12.9929	8.8418
12.8004	9.1223
12.6135	9.2978
12.432	9.4934
12.2557	9.6543
12.0843	9.9736
11.9176	10.3987
11.7555	10.1262
11.5977	11.1823
11.444	13.1098
11.2944	14.7089
11.1487	15.8996
11.0067	16.9487
10.8682	17.8649
10.7332	18.7363
10.6015	19.4531
10.473	19.8107
10.3476	14.8503
10.2251	15.1772
10.1056	16.8989
9.9887	15.8635
9.8746	16.3093
9.763	17.0532
9.6539	17.5725
9.5472	16.9321
9.4429	14.6135
9.3408	11.509
9.2409	8.1921
9.1431	5.949
9.0474	4.6897
8.9536	4.0456
8.8618	3.8682
8.7718	3.904
8.6837	4.0486
8.5973	4.1899
8.5126	4.551
8.4295	4.7458
8.3481	4.9939
8.2682	5.3552
8.1898	5.7776
8.1129	6.0737
8.0374	6.2431
7.9634	6.3909
7.8906	6.4848
7.8192	6.5427
7.7491	6.7143
7.6802	6.9409
7.6126	7.0393
7.5461	7.1589
7.4807	7.3442
7.4165	7.5312
7.3534	7.7063
7.2914	7.8213
7.2303	7.8576
7.1703	7.9807
7.1113	8.1052
7.0533	8.1465
6.9962	8.3232
6.94	8.4692
6.8847	8.4983
6.8302	8.6333
6.7767	8.8999
6.7239	9.05
6.672	9.1789
6.6209	9.3161
6.5705	9.3264
6.5209	9.3552
6.4721	9.4187
6.424	9.4153
6.3766	9.3708
6.3299	9.2053
6.2838	9.123
6.2385	9.0422
6.1937	9.1452
6.1496	9.2287
6.1062	9.2304
6.0633	8.99
6.0211	8.435
5.9794	8.3742
5.9383	8.5578
5.8978	8.6562
5.8578	8.6809
5.8184	8.603
5.7794	8.5842
5.741	8.654
5.7031	8.6333
5.6657	8.3464
5.6288	8.1596
5.5924	8.4131
5.5564	8.9077
5.5209	9.0676
5.4859	9.0832
5.4513	9.0862
5.4171	9.2229
5.3833	9.3523
5.35	9.4607
5.3171	9.5654
5.2846	9.6531
5.2524	9.6946
5.2207	9.7651
5.1893	9.9446
5.1584	10.104
5.1277	10.2524
5.0975	10.3591
5.0676	10.4262
5.038	10.4497
5.0088	10.4101
4.98	10.3325
4.9514	10.2624
4.9232	10.4948
4.8953	10.9377
4.8678	11.4409
4.8405	11.729
4.8135	11.8662
4.7868	11.9646
4.7605	12.0373
4.7344	12.0862
4.7086	12.1342
4.6831	12.1567
4.6578	12.1926
4.6328	12.24
4.6081	12.2734
4.5837	12.3139
4.5595	12.3447
4.5356	12.3659
4.5119	12.385
4.4884	12.3896
4.4652	12.404
4.4423	12.4406
4.4196	12.4851
4.3971	12.5092
4.3748	12.5312
4.3528	12.5615
4.331	12.5808
4.3094	12.5879
4.288	12.6128
4.2668	12.6391
4.2458	12.6616
4.2251	12.6899
4.2045	12.7194
4.1841	12.7219
4.164	12.7434
4.144	12.7707
4.1242	12.7629
4.1046	12.7839
4.0852	12.8027
4.066	12.8203
4.047	12.8242
4.0281	12.8
4.0094	12.8076
3.9909	12.8274
3.9725	12.8208
3.9544	12.8232
3.9363	12.8269
3.9185	12.8278
3.9008	12.8173
3.8833	12.7942
3.8659	12.7632
3.8487	12.7668
3.8316	12.7549
3.8147	12.7368
3.7979	12.7234
3.7813	12.7107
3.7648	12.6965
3.7485	12.6916
3.7323	12.6696
3.7162	12.6347
3.7003	12.622
3.6845	12.6081
3.6689	12.5803
3.6534	12.571
3.638	12.5549
3.6227	12.5415
3.6076	12.519
3.5926	12.4782
3.5777	12.4372
3.563	12.3884
3.5484	12.3152
3.5338	12.2046
3.5195	11.9428
3.5052	11.2666
3.491	11.4504
3.477	11.5517
3.463	11.5549
3.4492	11.3393
3.4355	11.0185
3.4219	10.4465
3.4084	10.5254
3.395	11.0007
3.3817	11.0036
3.3685	11.217
3.3554	11.5149
3.3425	11.636
3.3296	11.7085
3.3168	11.7448
3.3041	11.6389
3.2915	11.6972
3.279	11.6653
3.2666	11.5683
3.2543	11.563
3.2421	11.5202
3.23	11.5171
3.218	11.476
3.206	11.4485
3.1942	11.4023
3.1824	11.3564
3.1707	11.2834
3.1591	11.249
3.1476	11.1889
3.1362	11.1499
3.1249	11.1162
3.1136	11.0793
3.1024	11.0344
3.0913	11.0012
3.0803	10.9719
3.0694	10.9131
3.0585	10.8999
3.0477	10.8537
3.037	10.8232
3.0264	10.7961
3.0158	10.7654
3.0053	10.7392
2.9949	10.7002
2.9845	10.6784
2.9743	10.6606
2.9641	10.6721
2.9539	10.6577
2.9439	10.636
2.9339	10.6621
2.9239	10.6567
2.9141	10.6352
2.9043	10.6633
2.8946	10.6858
2.8849	10.6941
2.8753	10.7173
2.8658	10.7412
2.8563	10.8037
2.8469	10.8701
2.8375	10.9511
2.8282	11.0288
2.819	11.0947
2.8098	11.1963
2.8007	11.2929
2.7917	11.3686
2.7827	11.4692
2.7738	11.581
2.7649	11.7075
2.7561	11.8166
2.7473	11.9599
2.7386	12.0945
2.7299	12.2002
2.7213	12.3286
2.7128	12.3989
2.7043	12.4966
2.6959	12.5713
2.6875	12.6425
2.6791	12.7075
2.6709	12.7124
2.6626	12.6963
2.6545	12.6596
2.6463	12.6501
2.6382	12.6516
2.6302	12.6428
2.6222	12.634
2.6143	12.6262
2.6064	12.6318
2.5986	12.6208
2.5908	12.5781
2.583	12.6059
2.5753	12.5659
2.5677	12.5393
2.5601	12.53
2.5525	12.4863
2.545	12.4795
2.5375	12.467
2.5301	12.4507
2.5227	12.469
2.5154	12.4211
2.5081	12.4209
2.5008	12.3979
2.4936	12.3947
2.4864	12.3596
2.4793	12.3469
2.4722	12.3156
2.4651	12.3393
2.4581	12.2981
2.4511	12.3222
2.4442	12.3017
2.4373	12.2871
2.4305	12.2656
2.4236	12.2412
2.4169	12.2824
2.4101	12.301
2.4034	12.2815
2.3967	12.2563
2.3901	12.2812
2.3835	12.2133
2.377	12.2109
2.3704	12.1779
2.364	12.176
2.3575	12.2219
2.3511	12.1799
2.3447	12.1779
2.3384	12.1555
2.3321	12.1838
2.3258	12.1914
2.3195	12.1762
2.3133	12.1826
2.3071	12.1616
2.301	12.1611
2.2949	12.1738
2.2888	12.1738
2.2828	12.1718
2.2767	12.1992
2.2708	12.2138
2.2648	12.1787
2.2589	12.2192
2.253	12.1997
2.2471	12.2436
2.2413	12.2422
2.2355	12.2505
2.2297	12.2129
2.224	12.2314
2.2183	12.2285
2.2126	12.2119
2.207	12.2505
2.2013	12.2285
2.1957	12.2417
2.1902	12.2666
2.1846	12.2695
2.1791	12.2798
2.1736	12.2666
2.1682	12.2881
2.1628	12.2861
2.1574	12.3003
2.152	12.2744
2.1466	12.2563
2.1413	12.2788
2.136	12.3091
2.1308	12.3164
2.1255	12.3833
2.1203	12.4023
2.1151	12.3637
2.11	12.3838
2.1048	12.3925
2.0997	12.4121
2.0946	12.4653
2.0895	12.4531
2.0845	12.4536
2.0795	12.4492
