Name: Tourmaline Na(Mg_3,Fe_3^2+)Al_6(BO_3)_3Si_6O_18(OH)_4
Type: Mineral
Class: Silicate
Subclass: Cyclosilicate
Particle Size: Medium
Sample No.: CS-1A
Owner: JPL
Wavelength Range: TIR
Origin: USA, New York, Overlook
Description: Particle size was 45-125um.Collected by Ward's Original ASTER Spectral Library name was jpl.nicolet.mineral.silicate.cyclosilicate.medium.cs01a.spectrum.txt
Measurement: Hemispherical reflectance
X Units: Wavelength (micrometers)
Y Units: Reflectance (percent)
wavelength	value
15.3853	2.0215
15.1161	1.6044
14.8563	2.3377
14.6052	2.5013
14.3624	3.2773
14.1276	4.4713
13.9004	3.614
13.6803	2.0884
13.4671	1.8765
13.2604	2.0443
13.06	2.479
12.8656	3.733
12.6769	4.0122
12.4936	2.2409
12.3155	2.0086
12.1425	2.4575
11.9742	2.8995
11.8106	3.3066
11.6513	3.7877
11.4963	4.0652
11.3454	4.5662
11.1983	5.0019
11.0551	5.4409
10.9154	6.0629
10.7793	6.9954
10.6465	8.4358
10.5169	10.1372
10.3904	12.2035
10.267	14.1543
10.1464	14.884
10.0287	13.6652
9.9136	11.3469
9.8012	11.6038
9.6913	12.5107
9.5838	12.9658
9.4787	10.2818
9.3758	6.8555
9.2752	7.0617
9.1767	8.9175
9.0803	8.7393
8.9858	5.1967
8.8934	1.6442
8.8028	0.6232
8.714	0.5926
8.627	1.0782
8.5417	1.4562
8.4581	1.8743
8.3761	2.3692
8.2957	3.0824
8.2169	3.9744
8.1395	4.8757
8.0635	5.5263
7.989	5.7073
7.9158	6.0352
7.8439	5.9016
7.7734	5.4605
7.7041	5.0661
7.636	4.463
7.5691	3.7042
7.5034	3.1908
7.4388	3.6067
7.3753	3.7097
7.3129	3.1551
7.2515	2.1046
7.1912	1.1752
7.1318	0.4938
7.0734	0.6588
7.016	0.55
6.9595	0.6186
6.9039	0.7715
6.8492	1.0622
6.7953	1.2121
6.7423	1.4638
6.6901	1.8324
6.6387	2.3007
6.5881	2.3479
6.5382	2.7191
6.4892	3.3784
6.4408	3.47
6.3931	3.678
6.3462	4.0587
6.2999	4.1238
6.2543	4.2456
6.2094	4.3369
6.1651	4.4191
6.1214	4.4917
6.0784	4.6311
6.0359	4.4625
5.994	4.7499
5.9527	4.9713
5.912	5.1205
5.8718	5.5893
5.8322	5.9389
5.7931	6.0579
5.7545	6.4263
5.7165	6.6249
5.6789	6.4768
5.6418	6.4905
5.6052	6.1954
5.5691	6.1404
5.5334	6.3765
5.4982	7.0481
5.4635	7.9218
5.4291	8.6673
5.3952	9.0424
5.3618	9.5448
5.3287	9.8116
5.2961	9.7538
5.2638	9.614
5.2319	9.5246
5.2004	9.423
5.1693	9.2841
5.1386	9.1201
5.1082	9.0776
5.0782	9.1796
5.0485	9.3568
5.0192	9.5372
4.9902	9.7948
4.9616	10.191
4.9332	10.5632
4.9052	11.1016
4.8776	11.6169
4.8502	12.3358
4.8231	12.9744
4.7963	13.6822
4.7699	14.7457
4.7437	15.4554
4.7178	16.1862
4.6922	16.7057
4.6668	17.1999
4.6418	17.2107
4.617	16.7903
4.5924	15.9208
4.5681	14.7455
4.5441	13.721
4.5203	12.7574
4.4968	12.0627
4.4735	11.5002
4.4505	11.2151
4.4277	11.1047
4.4051	11.0474
4.3828	11.2204
4.3607	11.3842
4.3388	11.8344
4.3171	12.2765
4.2956	13.0232
4.2744	13.5765
4.2534	14.182
4.2325	15.266
4.2119	16.0976
4.1915	16.9905
4.1712	18.3902
4.1512	19.6772
4.1313	20.8872
4.1117	21.8941
4.0922	22.4539
4.0729	22.556
4.0538	22.3304
4.0349	22.0259
4.0161	21.7195
3.9976	21.2904
3.9792	20.7397
3.9609	20.1019
3.9428	19.0357
3.9249	17.7535
3.9072	16.3349
3.8896	14.8624
3.8722	13.5611
3.8549	12.5283
3.8378	12.1005
3.8208	12.2545
3.804	13.1236
3.7873	14.218
3.7708	15.1727
3.7544	15.7511
3.7382	16.2844
3.7221	16.1714
3.7061	16.5439
3.6903	16.9097
3.6746	17.715
3.659	18.8811
3.6436	20.2749
3.6283	21.7784
3.6131	23.1342
3.5981	24.2029
3.5832	25.0214
3.5684	25.5494
3.5537	25.8978
3.5391	26.2868
3.5247	26.8761
3.5104	27.2879
3.4962	27.6983
3.4821	27.9857
3.4681	28.03
3.4543	28.0495
3.4405	28.1398
3.4269	28.1347
3.4133	28.2632
3.3999	28.3956
3.3866	28.7911
3.3733	28.9119
3.3602	28.8935
3.3472	29.0752
3.3343	28.8622
3.3215	28.8788
3.3088	28.7567
3.2961	28.649
3.2836	28.6316
3.2712	28.6169
3.2588	28.4454
3.2466	28.2894
3.2345	28.1233
3.2224	27.9666
3.2104	27.8633
3.1985	27.6327
3.1867	27.4358
3.175	27.3509
3.1634	27.0152
3.1519	26.8201
3.1404	26.6472
3.129	26.1251
3.1178	25.7757
3.1065	25.4011
3.0954	24.8824
3.0844	24.454
3.0734	23.9927
3.0625	23.6293
3.0517	23.2881
3.041	23.0127
3.0303	22.5588
3.0197	22.0149
3.0092	21.3775
2.9987	20.6612
2.9884	19.8367
2.9781	19.0321
2.9678	18.009
2.9577	17.0361
2.9476	16.0432
2.9376	15.1629
2.9276	14.1919
2.9177	13.1165
2.9079	11.9994
2.8982	10.6698
2.8885	9.1446
2.8789	7.8617
2.8693	6.9352
2.8598	6.1775
2.8504	5.7763
2.841	5.285
2.8317	4.9741
2.8224	4.6671
2.8133	4.2332
2.8041	4.0503
2.7951	4.4747
2.786	5.042
2.7771	6.312
2.7682	9.2436
2.7594	9.6641
2.7506	9.6406
2.7418	14.7154
2.7332	19.4236
2.7246	22.1744
2.716	22.7403
2.7075	22.105
2.699	19.836
2.6906	14.0965
2.6823	12.3431
2.674	14.5476
2.6657	20.6412
2.6575	21.3653
2.6494	23.5718
2.6413	24.7433
2.6332	24.8248
2.6252	24.2706
2.6173	24.2411
2.6094	23.5874
2.6015	23.3345
2.5937	24.1187
2.5859	23.1947
2.5782	22.9453
2.5706	22.7813
2.5629	23.0088
2.5554	22.7128
2.5478	22.6776
2.5403	22.7527
2.5329	22.4373
2.5255	22.1515
2.5181	22.2029
2.5108	22.0122
2.5035	21.8687
2.4963	21.9859
2.4891	22.0068
2.482	21.7958
2.4749	21.8894
2.4678	21.802
2.4608	22.1224
2.4538	22.291
2.4468	22.6868
2.4399	22.5387
2.4331	22.7298
2.4262	22.8277
2.4194	22.6432
2.4127	22.6567
2.4059	22.281
2.3993	22.163
2.3926	21.502
2.386	20.7478
2.3795	19.272
2.3729	18.4568
2.3664	17.8773
2.36	17.9828
2.3535	18.4779
2.3471	19.2719
2.3408	19.7699
2.3345	20.3535
2.3282	20.4356
2.3219	20.442
2.3157	20.7243
2.3095	20.6715
2.3034	20.609
2.2972	20.286
2.2911	20.2012
2.2851	20.8066
2.279	21.2767
2.2731	20.9867
2.2671	20.7382
2.2612	20.3824
2.2553	19.1931
2.2494	18.0527
2.2435	17.3723
2.2377	18.4049
2.232	18.7678
2.2262	18.5594
2.2205	17.8661
2.2148	17.195
2.2091	15.959
2.2035	16.1771
2.1979	17.5407
2.1923	18.068
2.1868	18.2762
2.1812	18.1128
2.1758	17.9078
2.1703	17.9231
2.1649	18.3466
2.1595	17.7485
2.1541	17.6716
2.1487	17.6863
2.1434	17.5368
2.1381	17.5501
2.1328	17.238
2.1275	17.2113
2.1223	16.8387
2.1171	16.7318
2.112	16.7247
2.1068	16.5824
2.1017	16.2262
2.0966	16.1362
2.0915	16.2849
2.0865	15.7205
2.0814	15.4952
2.0764	15.2296
2.0715	15.3947
2.0665	15.543
2.0616	14.3821
2.0567	14.5679
2.0518	14.6194
2.0469	14.5484
2.0421	13.9486
2.0373	14.4443
2.0325	13.8705
2.0277	13.5724
2.0229	14.1965
2.0182	13.5054
2.0135	13.4352
2.0088	13.3606
2.0042	13.0388
