Name: Cordierite Mg2Al4Si5O18
Type: Mineral
Class: Silicate
Subclass: Cyclosilicate
Particle Size: Fine
Sample No.: cordier_2
Owner: JHU
Wavelength Range: TIR
Origin: Sample from Orijarvi, Finland via the Smithsonian  (sampleno. NMNH 78228).
Description: The sample consists of three pieces, each about 2 cm x 4 cm x 1 cm.  There are some heterogeneities in color, but the samples are predominantly blue-gray.  They appear fairly pure, but do have a few veins with discoloration along them.  Under the petrographic microscope all samples appear to be cordierite, but grains have a small amount of alteration and some microcrystalline inclusions. Particle size was less than 2 Micrometers.(Ring Silicates) Original ASTER Spectral Library name was jhu.nicolet.mineral.silicate.cyclosilicate.powder.cordie2.spectrum.txt
Measurement: Transmission
X Units: Wavelength (micrometers)
Y Units: Transmittance (percent)
wavelength	value
25.0442	54.3436
24.3388	59.7186
23.6719	45.1171
23.0407	45.4374
22.4422	38.0487
21.8741	39.4999
21.334	44.0253
20.8199	45.66
20.33	43.1796
19.8627	63.5662
19.4163	68.5399
18.9896	69.7381
18.5812	72.0477
18.19	73.2889
17.815	68.2196
17.4551	65.5389
17.1094	57.5252
16.7772	67.3475
16.4576	66.7772
16.15	61.8241
15.8537	69.9178
15.568	73.782
15.2925	73.2391
15.0265	71.8592
14.7697	66.2821
14.5214	71.1902
14.2814	71.1522
14.0492	72.4256
13.8244	72.2576
13.6067	68.9217
13.3957	59.1253
13.1912	52.8187
12.9929	34.1874
12.8004	47.2303
12.6135	66.1209
12.432	71.6214
12.2557	75.4866
12.0843	76.4988
11.9176	77.1312
11.7555	75.9061
11.5977	73.0721
11.444	68.3475
11.2944	61.2562
11.1487	47.369
11.0067	30.7582
10.8682	36.0575
10.7332	37.6366
10.6015	18.5332
10.473	12.1709
10.3476	12.0009
10.2251	16.604
10.1056	21.414
9.9887	29.8168
9.8746	32.9169
9.763	30.8969
9.6539	35.7079
9.5472	38.8285
9.4429	39.6503
9.3408	38.4716
9.2409	35.8969
9.1431	33.1855
9.0474	34.1249
8.9536	34.227
8.8618	31.3573
8.7718	26.8989
8.6837	27.7905
8.5973	23.0214
8.5126	17.8232
8.4295	22.5576
8.3481	35.9132
8.2682	52.6815
8.1898	65.5675
8.1129	74.3377
8.0374	79.4217
7.9634	82.8269
7.8906	85.126
7.8192	86.7315
7.7491	88.0271
7.6802	88.9885
7.6126	89.6907
7.5461	90.3936
7.4807	90.7852
7.4165	91.1882
7.3534	91.457
7.2914	91.4551
7.2303	91.3174
7.1703	91.082
7.1113	91.0588
7.0533	91.5733
6.9962	91.7317
6.94	91.8787
6.8847	92.0369
6.8302	92.2927
6.7767	92.8926
6.7239	93.4414
6.672	93.8318
6.6209	93.9766
6.5705	94.1482
6.5209	94.1931
6.4721	93.9377
6.424	93.6482
6.3766	93.0496
6.3299	92.5645
6.2838	91.7966
6.2385	90.2576
6.1937	88.7761
6.1496	87.7996
6.1062	86.9607
6.0633	88.7654
6.0211	90.3584
5.9794	91.4863
5.9383	93.1013
5.8978	94.1279
5.8578	94.793
5.8184	95.2686
5.7794	95.6221
5.741	96.0459
5.7031	96.4092
5.6657	96.5518
5.6288	96.658
5.5924	96.7761
5.5564	96.8828
5.5209	96.9753
5.4859	97.0154
5.4513	97.0535
5.4171	97.0564
5.3833	96.9597
5.35	96.9343
5.3171	97.0205
5.2846	97.1269
5.2524	97.1838
5.2207	97.2734
5.1893	97.416
5.1584	97.5664
5.1277	97.6404
5.0975	97.7187
5.0676	97.7507
5.038	97.8039
5.0088	97.8679
4.98	97.8494
4.9514	98.0588
4.9232	98.0217
4.8953	98.113
4.8678	98.1316
4.8405	98.1921
4.8135	98.2205
4.7868	98.2742
4.7605	98.3181
4.7344	98.3547
4.7086	98.3708
4.6831	98.4148
4.6578	98.4377
4.6328	98.4524
4.6081	98.4871
4.5837	98.6228
4.5595	98.5823
4.5356	98.6081
4.5119	98.5749
4.4884	98.6243
4.4652	98.5984
4.4423	98.6316
4.4196	98.6824
4.3971	98.717
4.3748	98.7361
4.3528	98.7268
4.331	98.6667
4.3094	98.801
4.288	98.6785
4.2668	98.1316
4.2458	98.135
4.2251	98.8142
4.2045	98.824
4.1841	98.7502
4.164	98.9612
4.144	98.9363
4.1242	98.9573
4.1046	98.969
4.0852	98.9885
4.066	98.968
4.047	99.0339
4.0281	99.0276
4.0094	99.0212
3.9909	99.0173
3.9725	99.0315
3.9544	99.1174
3.9363	99.1252
3.9185	99.1872
3.9008	99.2014
3.8833	99.1038
3.8659	99.1311
3.8487	99.1599
3.8316	99.1526
3.8147	99.0818
3.7979	99.0945
3.7813	99.1101
3.7648	99.0749
3.7485	98.9568
3.7323	98.9573
3.7162	98.8992
3.7003	98.7639
3.6845	98.654
3.6689	98.6721
3.6534	98.5564
3.638	98.5525
3.6227	98.4163
3.6076	98.3337
3.5926	98.2815
3.5777	98.0544
3.563	97.9861
3.5484	97.8581
3.5338	97.5613
3.5195	97.2097
3.5052	96.3147
3.491	96.5452
3.477	96.4724
3.463	96.2439
3.4492	95.9651
3.4355	95.4026
3.4219	94.3381
3.4084	94.5315
3.395	95.0745
3.3817	94.9592
3.3685	95.1292
3.3554	95.0564
3.3425	94.9744
3.3296	94.8572
3.3168	94.7034
3.3041	94.4983
3.2915	94.2424
3.279	93.9436
3.2666	93.6335
3.2543	93.238
3.2421	92.9861
3.23	92.5017
3.218	92.0457
3.206	91.5144
3.1942	91.1921
3.1824	90.825
3.1707	90.3933
3.1591	89.9656
3.1476	89.4011
3.1362	88.9109
3.1249	88.4412
3.1136	88.0828
3.1024	87.5037
3.0913	87.1258
3.0803	86.7429
3.0694	86.3211
3.0585	85.7713
3.0477	85.7547
3.037	85.2312
3.0264	84.6131
3.0158	83.9822
3.0053	83.1414
2.9949	82.2664
2.9845	81.3797
2.9743	80.1814
2.9641	78.9822
2.9539	77.992
2.9439	77.2127
2.9339	76.7664
2.9239	76.3055
2.9141	76.2166
2.9043	76.5389
2.8946	77.1971
2.8849	78.0437
2.8753	78.9139
2.8658	79.7615
2.8563	80.8445
2.8469	81.6502
2.8375	82.5359
2.8282	83.2888
2.819	84.1482
2.8098	84.9383
2.8007	85.6365
2.7917	87.0838
2.7827	88.5857
2.7738	90.0515
2.7649	90.9343
2.7561	92.1267
2.7473	93.7498
2.7386	95.1765
2.7299	96.8611
2.7213	97.9997
2.7128	97.4822
2.7043	98.4968
2.6959	100.156
2.6875	100.98
2.6791	101.25
2.6709	101.468
2.6626	101.538
2.6545	101.671
2.6463	101.555
2.6382	101.851
2.6302	101.929
2.6222	102.134
2.6143	102.029
2.6064	102.042
2.5986	102.07
2.5908	102.404
2.583	102.113
2.5753	102.093
2.5677	102.204
2.5601	102.247
2.5525	102.329
2.545	102.433
2.5375	102.605
2.5301	102.538
2.5227	102.488
2.5154	102.616
2.5081	102.423
2.5008	102.87
2.4936	102.632
2.4864	102.859
2.4793	102.503
2.4722	103.003
2.4651	102.929
2.4581	102.894
2.4511	103.265
2.4442	103.025
2.4373	103.423
2.4305	103.038
2.4236	103.351
2.4169	103.327
2.4101	103.556
2.4034	103.499
2.3967	103.509
2.3901	103.382
2.3835	103.878
2.377	103.697
2.3704	103.822
2.364	103.767
2.3575	103.527
2.3511	103.667
2.3447	104.236
2.3384	103.8
2.3321	104.087
2.3258	104.197
2.3195	103.984
2.3133	104.556
2.3071	104.413
2.301	104.304
2.2949	104.546
2.2888	104.609
2.2828	104.312
2.2767	104.187
2.2708	104.304
2.2648	104.722
2.2589	104.652
2.253	105.116
2.2471	104.417
2.2413	104.839
2.2355	104.906
2.2297	104.757
2.224	104.73
2.2183	105.093
2.2126	104.87
2.207	105.07
2.2013	105.632
2.1957	105.156
2.1902	105.226
2.1846	105.691
2.1791	105.644
2.1736	105.265
2.1682	105.784
2.1628	106.097
2.1574	105.679
2.152	106.038
2.1466	106.023
2.1413	105.765
2.136	106.003
2.1308	107.741
2.1255	106.14
2.1203	106.64
2.1151	106.281
2.11	106.144
2.1048	106.726
2.0997	106.249
2.0946	106.718
2.0895	106.441
2.0845	106.804
2.0795	106.406
