Name: Barite, BaSO4
Type: Mineral
Class: Sulfate
Subclass: None
Particle Size: Fine
Sample No.: barite_1
Owner: JHU
Wavelength Range: TIR
Origin: Norma Vergo Sample from Carterville, Georgia.
Description: The pure white sample appeared to be pure barite with many grains showing what apear to be fluid inclusions.Particle size was less than 2 Micrometers. Original ASTER Spectral Library name was jhu.nicolet.mineral.sulfate.none.powder.barite1.spectrum.txt
Measurement: Transmission
X Units: Wavelength (micrometers)
Y Units: Transmittance (percent)
wavelength	value
25.0442	96.3005
24.3388	97.406
23.6719	97.4099
23.0407	97.1912
22.4422	96.8923
21.8741	96.6833
21.334	95.8904
20.8199	95.5408
20.33	95.1443
19.8627	94.3513
19.4163	93.4539
18.9896	92.1726
18.5812	90.2127
18.19	87.9773
17.815	84.6277
17.4551	79.6404
17.1094	70.6336
16.7772	49.1835
16.4576	14.2148
16.15	30.7558
15.8537	32.4892
15.568	40.0868
15.2925	75.9754
15.0265	91.9768
14.7697	98.0803
14.5214	99.1877
14.2814	98.9631
14.0492	98.8049
13.8244	98.3865
13.6067	97.5544
13.3957	96.4138
13.1912	95.3337
12.9929	94.1404
12.8004	92.9441
12.6135	91.7371
12.432	90.6214
12.2557	89.534
12.0843	88.4534
11.9176	87.3792
11.7555	86.0427
11.5977	84.5613
11.444	82.867
11.2944	80.9436
11.1487	78.8167
11.0067	76.6844
10.8682	74.3548
10.7332	71.8338
10.6015	68.8729
10.473	65.0721
10.3476	59.9764
10.2251	49.3212
10.1056	58.3304
9.9887	51.4501
9.8746	44.5468
9.763	37.4765
9.6539	29.4325
9.5472	20.6201
9.4429	12.0468
9.3408	5.7246
9.2409	3.7783
9.1431	4.8725
9.0474	6.1763
8.9536	5.6416
8.8618	7.0781
8.7718	11.3501
8.6837	14.5986
8.5973	12.7939
8.5126	9.8781
8.4295	10.3349
8.3481	16.6406
8.2682	27.4477
8.1898	37.4921
8.1129	46.6124
8.0374	55.1991
7.9634	61.2093
7.8906	65.7899
7.8192	69.7979
7.7491	73.4329
7.6802	76.5586
7.6126	79.293
7.5461	81.6785
7.4807	83.7517
7.4165	85.6043
7.3534	87.6465
7.2914	89.6897
7.2303	91.6563
7.1703	93.3965
7.1113	94.5706
7.0533	95.5149
6.9962	96.0583
6.94	96.1418
6.8847	96.3203
6.8302	96.6399
6.7767	97.0124
6.7239	97.3616
6.672	97.6904
6.6209	97.8975
6.5705	97.947
6.5209	97.8147
6.4721	97.906
6.424	98.092
6.3766	98.4441
6.3299	98.6582
6.2838	98.3894
6.2385	98.7239
6.1937	99.2937
6.1496	99.8115
6.1062	100.222
6.0633	100.528
6.0211	100.753
5.9794	100.837
5.9383	100.954
5.8978	100.991
5.8578	101.008
5.8184	101.079
5.7794	101.131
5.741	101.147
5.7031	101.125
5.6657	101.07
5.6288	101.074
5.5924	101.056
5.5564	101.035
5.5209	101.014
5.4859	100.994
5.4513	100.981
5.4171	100.994
5.3833	100.982
5.35	100.993
5.3171	100.964
5.2846	100.92
5.2524	100.914
5.2207	100.889
5.1893	100.824
5.1584	100.804
5.1277	100.684
5.0975	100.272
5.0676	100.418
5.038	100.489
5.0088	100.382
4.98	100.22
4.9514	99.9404
4.9232	99.3352
4.8953	97.3164
4.8678	96.3486
4.8405	95.8428
4.8135	97.1367
4.7868	96.9861
4.7605	97.5322
4.7344	97.6667
4.7086	97.2761
4.6831	96.9795
4.6578	97.2976
4.6328	97.8367
4.6081	97.8074
4.5837	97.6374
4.5595	97.4199
4.5356	97.6697
4.5119	97.991
4.4884	98.1804
4.4652	98.1706
4.4423	98.2224
4.4196	98.3425
4.3971	98.3601
4.3748	98.3332
4.3528	98.3137
4.331	98.2649
4.3094	98.1077
4.288	97.9426
4.2668	97.9412
4.2458	97.9587
4.2251	98.0002
4.2045	98.094
4.1841	98.1746
4.164	98.1819
4.144	98.1379
4.1242	98.0789
4.1046	97.9958
4.0852	97.9202
4.066	97.821
4.047	97.7654
4.0281	97.6706
4.0094	97.6023
3.9909	97.5261
3.9725	97.4475
3.9544	97.3347
3.9363	97.2585
3.9185	97.179
3.9008	97.0286
3.8833	96.967
3.8659	96.8313
3.8487	96.7566
3.8316	96.6399
3.8147	96.5554
3.7979	96.4304
3.7813	96.366
3.7648	96.2541
3.7485	96.1638
3.7323	96.0588
3.7162	95.9421
3.7003	95.8093
3.6845	95.7053
3.6689	95.6077
3.6534	95.4973
3.638	95.3953
3.6227	95.2771
3.6076	95.1633
3.5926	95.0798
3.5777	94.9822
3.563	94.8748
3.5484	94.7683
3.5338	94.6404
3.5195	94.4495
3.5052	94.1755
3.491	94.2
3.477	94.1521
3.463	94.113
3.4492	93.9338
3.4355	93.7229
3.4219	93.4221
3.4084	93.4021
3.395	93.571
3.3817	93.4841
3.3685	93.5281
3.3554	93.5706
3.3425	93.5491
3.3296	93.4417
3.3168	93.3811
3.3041	93.2893
3.2915	93.2107
3.279	93.1467
3.2666	93.0603
3.2543	93.0139
3.2421	92.9412
3.23	92.8831
3.218	92.8362
3.206	92.8005
3.1942	92.7678
3.1824	92.6682
3.1707	92.6111
3.1591	92.5671
3.1476	92.5193
3.1362	92.4998
3.1249	92.4529
3.1136	92.4045
3.1024	92.3279
3.0913	92.2634
3.0803	92.1638
3.0694	92.0818
3.0585	91.9685
3.0477	91.8421
3.037	91.7957
3.0264	91.6843
3.0158	91.5935
3.0053	91.4548
2.9949	91.3289
2.9845	91.2127
2.9743	91.0642
2.9641	90.9548
2.9539	90.8201
2.9439	90.6238
2.9339	90.5623
2.9239	90.4197
2.9141	90.2849
2.9043	90.1502
2.8946	90.0134
2.8849	89.8328
2.8753	89.7088
2.8658	89.6013
2.8563	89.4783
2.8469	89.2908
2.8375	89.1756
2.8282	88.9802
2.819	88.8299
2.8098	88.6687
2.8007	88.5164
2.7917	88.4929
2.7827	88.2537
2.7738	88.1218
2.7649	87.9031
2.7561	87.7185
2.7473	87.5115
2.7386	87.3767
2.7299	87.2302
2.7213	87.1092
2.7128	87.0506
2.7043	86.8084
2.6959	86.6541
2.6875	86.5174
2.6791	86.4373
2.6709	86.2517
2.6626	86.0857
2.6545	86.0056
2.6463	85.8406
2.6382	85.7049
2.6302	85.531
2.6222	85.3943
2.6143	85.2732
2.6064	85.1795
2.5986	85.1101
2.5908	84.9256
2.583	84.7361
2.5753	84.6814
2.5677	84.5437
2.5601	84.3406
2.5525	84.2674
2.545	84.2195
2.5375	84.1023
2.5301	83.9451
2.5227	83.8523
2.5154	83.7156
2.5081	83.5515
2.5008	83.4412
2.4936	83.3318
2.4864	83.2351
2.4793	83.1541
2.4722	82.9607
2.4651	82.8943
2.4581	82.783
2.4511	82.5974
2.4442	82.5603
2.4373	82.4197
2.4305	82.3592
2.4236	82.1756
2.4169	82.0193
2.4101	81.9334
2.4034	81.8611
2.3967	81.867
2.3901	81.7283
2.3835	81.5974
2.377	81.4295
2.3704	81.3865
2.364	81.3689
2.3575	81.2537
2.3511	81.1912
2.3447	81.1228
2.3384	80.9373
2.3321	80.8631
2.3258	80.7537
2.3195	80.6658
2.3133	80.6189
2.3071	80.5252
2.301	80.5877
2.2949	80.449
2.2888	80.4139
2.2828	80.283
2.2767	80.2537
2.2708	80.1443
2.2648	80.1014
2.2589	80.0252
2.253	79.9236
2.2471	80.0721
2.2413	79.9217
2.2355	79.8162
2.2297	79.7771
2.224	79.6365
2.2183	79.6424
2.2126	79.742
2.207	79.6014
2.2013	79.6033
2.1957	79.4959
2.1902	79.4549
2.1846	79.5174
2.1791	79.4471
2.1736	79.4451
2.1682	79.3865
2.1628	79.4471
2.1574	79.2185
2.152	79.2049
2.1466	79.2185
2.1413	79.2439
2.136	79.2889
2.1308	79.2576
2.1255	79.156
2.1203	79.0857
2.1151	78.9451
2.11	79.0252
2.1048	79.0545
2.0997	79.0955
2.0946	79.2498
2.0895	79.1951
2.0845	79.1014
2.0795	78.9256
