Name: Scorodite Fe^3+AsO_4.2H_2O
Type: Mineral
Class: Arsenate
Subclass: None
Particle Size: Fine
Sample No.: A-2A
Owner: JPL
Wavelength Range: TIR
Origin: USA, Utah, Tooele County, Gold Hill
Description: Particle size was 0-45um.Collected by Ward's Original ASTER Spectral Library name was jpl.nicolet.mineral.arsenate.none.fine.a02a.spectrum.txt
Measurement: Hemispherical reflectance
X Units: Wavelength (micrometers)
Y Units: Reflectance (percent)
wavelength	value
15.3853	3.194
15.1161	3.2451
14.8563	3.5436
14.6052	3.6077
14.3624	3.6427
14.1276	3.6972
13.9004	3.5208
13.6803	3.6493
13.4671	3.892
13.2604	4.2572
13.06	4.6834
12.8656	5.2192
12.6769	5.9821
12.4936	7.5192
12.3155	7.6664
12.1425	7.7685
11.9742	7.9178
11.8106	7.1674
11.6513	6.641
11.4963	5.4972
11.3454	4.4247
11.1983	3.6309
11.0551	3.2674
10.9154	3.2178
10.7793	2.8257
10.6465	1.9795
10.5169	1.2735
10.3904	1.2959
10.267	1.305
10.1464	1.5541
10.0287	1.5654
9.9136	2.0288
9.8012	2.2769
9.6913	2.6333
9.5838	3.0565
9.4787	3.2647
9.3758	3.3473
9.2752	4.0814
9.1767	4.4868
9.0803	4.8469
8.9858	4.6505
8.8934	4.8725
8.8028	5.5601
8.714	6.3026
8.627	6.5663
8.5417	7.2059
8.4581	7.2934
8.3761	7.0127
8.2957	6.7989
8.2169	7.5463
8.1395	7.9786
8.0635	8.1773
7.989	8.4496
7.9158	8.8442
7.8439	8.9786
7.7734	9.1013
7.7041	9.1373
7.636	9.2462
7.5691	9.3328
7.5034	9.3361
7.4388	9.3886
7.3753	9.545
7.3129	9.5203
7.2515	9.3314
7.1912	9.0968
7.1318	8.661
7.0734	8.1359
7.016	7.8921
6.9595	7.9521
6.9039	7.754
6.8492	7.5112
6.7953	7.5787
6.7423	7.1015
6.6901	7.0239
6.6387	7.2302
6.5881	6.7543
6.5382	6.4507
6.4892	6.4689
6.4408	5.8313
6.3931	5.3909
6.3462	5.0808
6.2999	4.7283
6.2543	4.7195
6.2094	5.4232
6.1651	6.3603
6.1214	7.5906
6.0784	8.479
6.0359	9.0206
5.994	9.7637
5.9527	10.0371
5.912	10.063
5.8718	10.4325
5.8322	11.0711
5.7931	11.7444
5.7545	12.6392
5.7165	13.5594
5.6789	14.1736
5.6418	15.0699
5.6052	15.6075
5.5691	16.4351
5.5334	17.2009
5.4982	18.0879
5.4635	19.1019
5.4291	19.5012
5.3952	19.7313
5.3618	19.9573
5.3287	20.1342
5.2961	20.3811
5.2638	20.4526
5.2319	20.7199
5.2004	20.7931
5.1693	20.5523
5.1386	20.3372
5.1082	19.9719
5.0782	19.4768
5.0485	19.0061
5.0192	18.6027
4.9902	18.1727
4.9616	17.7909
4.9332	17.2295
4.9052	16.7715
4.8776	16.6214
4.8502	16.3074
4.8231	16.2282
4.7963	16.2012
4.7699	15.9962
4.7437	15.7881
4.7178	15.4806
4.6922	15.1485
4.6668	14.7937
4.6418	14.2598
4.617	13.7896
4.5924	13.2743
4.5681	12.8182
4.5441	12.4361
4.5203	12.1957
4.4968	12.2264
4.4735	12.3592
4.4505	12.449
4.4277	12.5884
4.4051	12.7179
4.3828	12.6855
4.3607	12.7752
4.3388	12.713
4.3171	12.7569
4.2956	12.7875
4.2744	13.0206
4.2534	12.7751
4.2325	12.9073
4.2119	12.9175
4.1915	12.6925
4.1712	12.6001
4.1512	12.4281
4.1313	12.3132
4.1117	12.1847
4.0922	11.9884
4.0729	11.8312
4.0538	11.6876
4.0349	11.3601
4.0161	11.1491
3.9976	10.9015
3.9792	10.7867
3.9609	10.4393
3.9428	10.1446
3.9249	9.842
3.9072	9.5428
3.8896	9.3801
3.8722	9.1845
3.8549	8.8793
3.8378	8.7555
3.8208	8.3238
3.804	8.147
3.7873	7.7792
3.7708	7.5769
3.7544	7.2963
3.7382	6.9342
3.7221	6.6698
3.7061	6.3476
3.6903	6.1676
3.6746	5.9889
3.659	5.8158
3.6436	5.6536
3.6283	5.4402
3.6131	5.2628
3.5981	5.0815
3.5832	4.9601
3.5684	4.7073
3.5537	4.5538
3.5391	4.5105
3.5247	4.2474
3.5104	4.1454
3.4962	4.0763
3.4821	3.8731
3.4681	3.7819
3.4543	3.5582
3.4405	3.3491
3.4269	3.1459
3.4133	3.056
3.3999	2.6793
3.3866	2.6484
3.3733	2.4958
3.3602	2.4355
3.3472	2.4129
3.3343	2.2025
3.3215	2.1262
3.3088	2.2197
3.2961	2.1924
3.2836	2.05
3.2712	2.0507
3.2588	2.0336
3.2466	1.8687
3.2345	2.0287
3.2224	1.7654
3.2104	2.0009
3.1985	1.98
3.1867	1.9635
3.175	2.0476
3.1634	1.9152
3.1519	1.9972
3.1404	1.9912
3.129	1.9646
3.1178	2.1253
3.1065	1.9254
3.0954	1.9629
3.0844	2.2453
3.0734	2.2578
3.0625	2.4322
3.0517	2.5532
3.041	2.7246
3.0303	2.6456
3.0197	2.9109
3.0092	3.1653
2.9987	3.2303
2.9884	3.301
2.9781	3.5831
2.9678	3.7484
2.9577	4.1309
2.9476	4.4516
2.9376	4.5945
2.9276	4.876
2.9177	4.9326
2.9079	4.8633
2.8982	5.3609
2.8885	5.2353
2.8789	5.6446
2.8693	5.029
2.8598	4.1326
2.8504	2.6721
2.841	1.9427
2.8317	1.9588
2.8224	2.7627
2.8133	4.0872
2.8041	5.2996
2.7951	7.0612
2.786	9.194
2.7771	11.926
2.7682	14.8868
2.7594	17.2229
2.7506	19.5827
2.7418	22.1422
2.7332	23.6149
2.7246	25.7341
2.716	26.9412
2.7075	28.5162
2.699	29.8517
2.6906	31.0175
2.6823	32.3318
2.674	33.4657
2.6657	35.4887
2.6575	35.0643
2.6494	35.6776
2.6413	36.2498
2.6332	36.8045
2.6252	36.962
2.6173	37.8203
2.6094	37.7227
2.6015	38.0499
2.5937	39.1336
2.5859	38.2012
2.5782	37.6816
2.5706	37.6204
2.5629	37.7138
2.5554	37.0713
2.5478	37.1198
2.5403	36.6012
2.5329	36.2554
2.5255	35.8787
2.5181	35.9489
2.5108	36.8376
2.5035	38.6196
2.4963	40.4033
2.4891	42.659
2.482	44.1881
2.4749	45.6452
2.4678	47.0463
2.4608	48.1172
2.4538	49.0802
2.4468	49.802
2.4399	50.4698
2.4331	51.1508
2.4262	51.7306
2.4194	52.4586
2.4127	52.8692
2.4059	53.3103
2.3993	53.8904
2.3926	54.4514
2.386	54.9092
2.3795	55.3669
2.3729	55.6987
2.3664	55.9461
2.36	56.0627
2.3535	56.0417
2.3471	55.8239
2.3408	55.5648
2.3345	55.3315
2.3282	55.4868
2.3219	55.7947
2.3157	56.651
2.3095	57.1453
2.3034	57.74
2.2972	58.5899
2.2911	58.8965
2.2851	59.2119
2.279	59.2961
2.2731	59.4632
2.2671	59.2676
2.2612	59.5002
2.2553	59.4753
2.2494	59.4573
2.2435	59.2952
2.2377	59.2307
2.232	58.9432
2.2262	58.6639
2.2205	58.3232
2.2148	58.2737
2.2091	57.8807
2.2035	57.5777
2.1979	57.142
2.1923	56.9211
2.1868	56.7969
2.1812	56.5345
2.1758	56.3993
2.1703	55.896
2.1649	55.7753
2.1595	55.5704
2.1541	55.2993
2.1487	55.1403
2.1434	54.9958
2.1381	54.6421
2.1328	54.3467
2.1275	54.2979
2.1223	54.0485
2.1171	53.9288
2.112	54.1
2.1068	53.914
2.1017	53.5257
2.0966	53.7368
2.0915	53.625
2.0865	53.753
2.0814	53.6759
2.0764	53.332
2.0715	53.6157
2.0665	53.3975
2.0616	54.0169
2.0567	53.8301
2.0518	53.9292
2.0469	53.8623
2.0421	54.0323
2.0373	54.2183
2.0325	54.2693
2.0277	53.8686
2.0229	53.9757
2.0182	53.2429
2.0135	52.933
2.0088	52.0395
2.0042	51.506
