Name: Sodalite Na_8Al_6Si_6O_24Cl_2
Type: Mineral
Class: Silicate
Subclass: Tectosilicate
Particle Size: Medium
Sample No.: TS-10A
Owner: JPL
Wavelength Range: TIR
Origin: Canada, Ontario, Hastings County, Bancroft
Description: Particle size was 45-125um.Collected by JPL Original ASTER Spectral Library name was jpl.nicolet.mineral.silicate.tectosilicate.medium.ts10a.spectrum.txt
Measurement: Hemispherical reflectance
X Units: Wavelength (micrometers)
Y Units: Reflectance (percent)
wavelength	value
15.3853	4.3989
15.1161	5.6594
14.8563	3.5087
14.6052	2.6402
14.3624	3.1269
14.1276	3.997
13.9004	2.662
13.6803	6.5692
13.4671	5.8577
13.2604	1.6409
13.06	2.2039
12.8656	2.9711
12.6769	3.6456
12.4936	4.1553
12.3155	4.8163
12.1425	5.0458
11.9742	5.5049
11.8106	5.2054
11.6513	5.0398
11.4963	5.0788
11.3454	5.579
11.1983	5.4389
11.0551	5.7268
10.9154	6.488
10.7793	7.1582
10.6465	8.9689
10.5169	11.7546
10.3904	18.6728
10.267	31.3757
10.1464	34.8263
10.0287	37.8053
9.9136	36.821
9.8012	35.7057
9.6913	34.8913
9.5838	35.9841
9.4787	35.7647
9.3758	26.136
9.2752	13.0138
9.1767	6.9737
9.0803	4.2854
8.9858	2.8649
8.8934	2.137
8.8028	1.8039
8.714	1.4398
8.627	1.2271
8.5417	1.1539
8.4581	1.1056
8.3761	1.1689
8.2957	1.5735
8.2169	1.8615
8.1395	1.8769
8.0635	2.0075
7.989	2.0733
7.9158	2.4909
7.8439	2.5893
7.7734	2.8371
7.7041	3.0373
7.636	3.0842
7.5691	3.1982
7.5034	2.8574
7.4388	3.7461
7.3753	4.4986
7.3129	5.1891
7.2515	5.459
7.1912	5.8565
7.1318	5.9737
7.0734	6.3485
7.016	6.2373
6.9595	5.3232
6.9039	4.7892
6.8492	5.8835
6.7953	7.6829
6.7423	8.9133
6.6901	9.8226
6.6387	10.4482
6.5881	9.214
6.5382	10.381
6.4892	10.7895
6.4408	8.686
6.3931	6.6348
6.3462	6.6797
6.2999	6.5371
6.2543	5.9866
6.2094	5.0517
6.1651	4.9773
6.1214	4.5074
6.0784	4.8403
6.0359	4.4017
5.994	4.9194
5.9527	4.2138
5.912	3.1884
5.8718	2.4851
5.8322	4.7202
5.7931	8.3051
5.7545	10.0504
5.7165	10.2422
5.6789	10.7852
5.6418	12.5967
5.6052	13.4049
5.5691	12.0167
5.5334	12.8545
5.4982	16.7569
5.4635	19.7872
5.4291	25.0421
5.3952	30.5368
5.3618	33.9358
5.3287	35.5299
5.2961	36.3932
5.2638	36.8154
5.2319	35.4878
5.2004	30.4157
5.1693	21.6411
5.1386	11.3772
5.1082	16.8195
5.0782	24.0086
5.0485	26.5554
5.0192	28.3858
4.9902	27.7892
4.9616	29.86
4.9332	20.0589
4.9052	19.286
4.8776	19.0954
4.8502	22.6553
4.8231	29.6777
4.7963	33.926
4.7699	39.2151
4.7437	42.9325
4.7178	42.1436
4.6922	40.0197
4.6668	40.6093
4.6418	44.5242
4.617	48.9425
4.5924	51.8313
4.5681	53.1633
4.5441	53.9251
4.5203	54.4878
4.4968	55.1584
4.4735	56.2022
4.4505	57.1676
4.4277	58.0632
4.4051	57.9539
4.3828	58.452
4.3607	58.5691
4.3388	58.2232
4.3171	58.2657
4.2956	58.0709
4.2744	56.1751
4.2534	57.4248
4.2325	58.8794
4.2119	58.4914
4.1915	57.7438
4.1712	57.056
4.1512	56.0336
4.1313	54.4935
4.1117	52.9408
4.0922	50.6424
4.0729	47.1051
4.0538	42.5303
4.0349	36.9364
4.0161	34.0629
3.9976	32.6215
3.9792	31.1764
3.9609	31.4212
3.9428	33.343
3.9249	35.4989
3.9072	36.2827
3.8896	36.8668
3.8722	37.256
3.8549	37.7196
3.8378	38.9298
3.8208	41.7554
3.804	46.3138
3.7873	52.3989
3.7708	54.8965
3.7544	56.1522
3.7382	57.7872
3.7221	58.9107
3.7061	59.1746
3.6903	59.2584
3.6746	59.0343
3.659	58.9378
3.6436	58.3025
3.6283	57.5323
3.6131	56.6332
3.5981	54.9709
3.5832	52.693
3.5684	49.2761
3.5537	46.4194
3.5391	43.7503
3.5247	40.434
3.5104	37.1993
3.4962	35.3609
3.4821	34.1807
3.4681	34.3979
3.4543	36.1289
3.4405	36.7333
3.4269	36.6811
3.4133	36.542
3.3999	36.176
3.3866	36.0122
3.3733	35.8473
3.3602	35.2238
3.3472	34.937
3.3343	39.349
3.3215	43.8654
3.3088	45.0484
3.2961	43.6773
3.2836	46.5877
3.2712	47.4412
3.2588	47.7433
3.2466	47.6546
3.2345	47.541
3.2224	47.3756
3.2104	47.0842
3.1985	46.7768
3.1867	46.2989
3.175	45.546
3.1634	45.0064
3.1519	44.1489
3.1404	43.6281
3.129	43.0851
3.1178	42.5625
3.1065	41.932
3.0954	41.6711
3.0844	41.2354
3.0734	41.0061
3.0625	40.4479
3.0517	40.0024
3.041	39.4426
3.0303	39.3865
3.0197	39.3348
3.0092	39.3205
2.9987	39.0417
2.9884	38.7326
2.9781	38.5543
2.9678	38.242
2.9577	37.5412
2.9476	37.4374
2.9376	37.0534
2.9276	36.805
2.9177	36.5352
2.9079	36.3267
2.8982	36.466
2.8885	36.1546
2.8789	36.1237
2.8693	36.0473
2.8598	35.3986
2.8504	34.8511
2.841	33.9727
2.8317	33.3116
2.8224	33.785
2.8133	36.1711
2.8041	38.8084
2.7951	40.4118
2.786	41.9319
2.7771	42.7687
2.7682	44.454
2.7594	44.8568
2.7506	46.1263
2.7418	48.8482
2.7332	50.2226
2.7246	56.1241
2.716	57.3219
2.7075	60.4027
2.699	63.9057
2.6906	68.1979
2.6823	71.3458
2.674	73.2519
2.6657	76.2778
2.6575	74.9405
2.6494	75.412
2.6413	75.9588
2.6332	76.5636
2.6252	76.5991
2.6173	77.8774
2.6094	76.8908
2.6015	76.6185
2.5937	78.0199
2.5859	76.1751
2.5782	75.5638
2.5706	75.3441
2.5629	75.1712
2.5554	72.9394
2.5478	71.7229
2.5403	70.2219
2.5329	69.624
2.5255	70.02
2.5181	70.8633
2.5108	71.6613
2.5035	72.0103
2.4963	72.3731
2.4891	72.766
2.482	73.3831
2.4749	74.0508
2.4678	74.6751
2.4608	75.2059
2.4538	75.6201
2.4468	76.1059
2.4399	76.422
2.4331	76.5198
2.4262	76.8494
2.4194	77.1964
2.4127	77.2969
2.4059	77.6082
2.3993	77.7334
2.3926	77.4536
2.386	77.7353
2.3795	77.4592
2.3729	77.1422
2.3664	77.1415
2.36	76.6187
2.3535	76.0806
2.3471	75.5006
2.3408	75.2005
2.3345	75.3151
2.3282	75.6095
2.3219	75.9604
2.3157	76.3433
2.3095	76.4652
2.3034	76.7628
2.2972	76.871
2.2911	77.1768
2.2851	77.3575
2.279	77.7489
2.2731	77.9748
2.2671	78.0599
2.2612	78.3358
2.2553	78.4205
2.2494	78.6194
2.2435	78.8878
2.2377	78.9224
2.232	79.0533
2.2262	79.1201
2.2205	79.2447
2.2148	79.1345
2.2091	79.2065
2.2035	79.1355
2.1979	79.2519
2.1923	79.2749
2.1868	79.5872
2.1812	79.3269
2.1758	79.4552
2.1703	79.3471
2.1649	79.2914
2.1595	79.5784
2.1541	79.5019
2.1487	79.4612
2.1434	79.1196
2.1381	79.5584
2.1328	79.7234
2.1275	79.7181
2.1223	79.7819
2.1171	79.6399
2.112	79.8259
2.1068	79.6112
2.1017	79.936
2.0966	79.938
2.0915	79.8849
2.0865	79.9826
2.0814	79.7866
2.0764	80.1949
2.0715	79.9482
2.0665	80.1788
2.0616	79.7747
2.0567	79.9329
2.0518	80.2347
2.0469	79.9782
2.0421	79.8294
2.0373	79.7502
2.0325	79.858
2.0277	79.8489
2.0229	79.8082
2.0182	79.5208
2.0135	79.6552
2.0088	79.9414
2.0042	79.507
