Name: Rhodonite (Mn+2,Fe+2,Mg,Ca)SiO3
Type: Mineral
Class: Silicate
Subclass: Inosilicate
Particle Size: Coarse
Sample No.: rhodon_1
Owner: JHU
Wavelength Range: TIR
Origin: Franklin, New Jersey via the Smithsonian (sample no. NMNHC6148)
Description: The hand sample was composed of two fragments, each about 2 cm x 2 cm x 1 cm. Pink rhodonite crystals were removed from host rock by sawing to free pure rhodonite. Under the petrographic microscope, many of the grains show a small degree of unidentified alteration, likely accounting for the strong hydroxyl bands near 2.7 micrometers. Particle size was 75 - 250  Micrometers. (chain silicates); (Pyroxenoid Group) Original ASTER Spectral Library name was jhu.nicolet.mineral.silicate.inosilicate.coarse.rhodon1.spectrum.txt
Measurement: Bidirectional reflectance
X Units: Wavelength (micrometers)
Y Units: Reflectance (percent)
wavelength	value
25.0442	2.6599
24.3388	2.8032
23.6719	2.8613
23.0407	3.1699
22.4422	3.9871
21.8741	4.269
21.334	4.3061
20.8199	4.2344
20.33	3.9863
19.8627	3.8652
19.4163	4.1199
18.9896	4.02
18.5812	2.8743
18.19	1.7429
17.815	2.5994
17.4551	3.1431
17.1094	2.946
16.7772	2.0088
16.4576	1.3164
16.15	1.3796
15.8537	1.4907
15.568	1.5569
15.2925	1.5745
15.0265	1.7932
14.7697	1.4458
14.5214	1.562
14.2814	1.5615
14.0492	1.6206
13.8244	1.688
13.6067	1.5063
13.3957	1.6301
13.1912	1.7031
12.9929	1.7087
12.8004	1.7761
12.6135	1.8066
12.432	1.8557
12.2557	1.8738
12.0843	1.9331
11.9176	2.0037
11.7555	2.1135
11.5977	2.3489
11.444	2.55
11.2944	2.6018
11.1487	3.2026
11.0067	3.4075
10.8682	3.2402
10.7332	3.0325
10.6015	2.9514
10.473	4.1675
10.3476	3.5771
10.2251	3.2146
10.1056	3.4648
9.9887	3.3401
9.8746	3.9145
9.763	3.968
9.6539	3.4126
9.5472	2.8928
9.4429	3.5212
9.3408	3.6833
9.2409	3.6902
9.1431	3.9333
9.0474	4.3125
8.9536	4.4038
8.8618	4.5347
8.7718	3.633
8.6837	2.3669
8.5973	1.0535
8.5126	0.3423
8.4295	0.3691
8.3481	0.4773
8.2682	0.5835
8.1898	0.6597
8.1129	0.731
8.0374	0.772
7.9634	0.8098
7.8906	0.852
7.8192	0.8811
7.7491	0.9329
7.6802	0.9895
7.6126	1.0598
7.5461	1.1199
7.4807	1.1609
7.4165	1.208
7.3534	1.2549
7.2914	1.2895
7.2303	1.3337
7.1703	1.3713
7.1113	1.4409
7.0533	1.4834
6.9962	1.5071
6.94	1.519
6.8847	1.5532
6.8302	1.5984
6.7767	1.6477
6.7239	1.6885
6.672	1.709
6.6209	1.7144
6.5705	1.6787
6.5209	1.6223
6.4721	1.5823
6.424	1.5073
6.3766	1.4668
6.3299	1.4231
6.2838	1.4255
6.2385	1.4387
6.1937	1.4365
6.1496	1.4443
6.1062	1.4536
6.0633	1.4499
6.0211	1.4382
5.9794	1.4089
5.9383	1.3652
5.8978	1.344
5.8578	1.4246
5.8184	1.5305
5.7794	1.5652
5.741	1.5156
5.7031	1.4697
5.6657	1.4531
5.6288	1.4668
5.5924	1.5
5.5564	1.5669
5.5209	1.6755
5.4859	1.8206
5.4513	1.9175
5.4171	1.9104
5.3833	1.8186
5.35	1.7117
5.3171	1.634
5.2846	1.604
5.2524	1.5776
5.2207	1.572
5.1893	1.5725
5.1584	1.5727
5.1277	1.5879
5.0975	1.6382
5.0676	1.7339
5.038	1.8081
5.0088	1.8599
4.98	1.9895
4.9514	2.1128
4.9232	2.1904
4.8953	2.2659
4.8678	2.3533
4.8405	2.4009
4.8135	2.4695
4.7868	2.5754
4.7605	2.7668
4.7344	2.9768
4.7086	3.2017
4.6831	3.4495
4.6578	3.7046
4.6328	3.9961
4.6081	4.22
4.5837	4.4534
4.5595	4.6621
4.5356	4.8843
4.5119	5.0159
4.4884	5.094
4.4652	5.1216
4.4423	5.1455
4.4196	5.1406
4.3971	5.1406
4.3748	5.1355
4.3528	5.1245
4.331	5.1289
4.3094	5.1265
4.288	5.1316
4.2668	5.1521
4.2458	5.1587
4.2251	5.186
4.2045	5.1933
4.1841	5.2085
4.164	5.2126
4.144	5.2214
4.1242	5.2353
4.1046	5.2546
4.0852	5.2903
4.066	5.332
4.047	5.386
4.0281	5.4617
4.0094	5.5486
3.9909	5.6357
3.9725	5.7309
3.9544	5.8262
3.9363	5.9082
3.9185	5.9934
3.9008	6.0578
3.8833	6.1326
3.8659	6.1804
3.8487	6.2226
3.8316	6.2644
3.8147	6.3064
3.7979	6.3244
3.7813	6.3364
3.7648	6.3242
3.7485	6.3083
3.7323	6.2749
3.7162	6.2283
3.7003	6.1719
3.6845	6.1096
3.6689	6.0393
3.6534	5.9746
3.638	5.9111
3.6227	5.833
3.6076	5.7781
3.5926	5.7256
3.5777	5.6728
3.563	5.6201
3.5484	5.5911
3.5338	5.5608
3.5195	5.5317
3.5052	5.498
3.491	5.5054
3.477	5.5119
3.463	5.5134
3.4492	5.5249
3.4355	5.53
3.4219	5.5173
3.4084	5.5347
3.395	5.5801
3.3817	5.6025
3.3685	5.6157
3.3554	5.6518
3.3425	5.6658
3.3296	5.6804
3.3168	5.6814
3.3041	5.6826
3.2915	5.6543
3.279	5.6435
3.2666	5.6184
3.2543	5.5908
3.2421	5.562
3.23	5.5071
3.218	5.4519
3.206	5.3818
3.1942	5.3279
3.1824	5.249
3.1707	5.1799
3.1591	5.082
3.1476	5.0049
3.1362	4.9214
3.1249	4.8635
3.1136	4.8271
3.1024	4.7922
3.0913	4.7595
3.0803	4.7305
3.0694	4.7368
3.0585	4.7204
3.0477	4.7261
3.037	4.7038
3.0264	4.6711
3.0158	4.6645
3.0053	4.6367
2.9949	4.5996
2.9845	4.5427
2.9743	4.4692
2.9641	4.3967
2.9539	4.3713
2.9439	4.3701
2.9339	4.3684
2.9239	4.3633
2.9141	4.3342
2.9043	4.2309
2.8946	4.1799
2.8849	4.187
2.8753	4.1406
2.8658	4.2161
2.8563	4.426
2.8469	4.655
2.8375	4.8398
2.8282	4.9519
2.819	5.0874
2.8098	5.1391
2.8007	5.1687
2.7917	5.385
2.7827	5.5713
2.7738	5.2483
2.7649	5.237
2.7561	5.1882
2.7473	4.5503
2.7386	6.7341
2.7299	7.5386
2.7213	7.9958
2.7128	8.3325
2.7043	8.5351
2.6959	8.6968
2.6875	8.7815
2.6791	8.8774
2.6709	8.8882
2.6626	8.9465
2.6545	8.9712
2.6463	8.9929
2.6382	8.9841
2.6302	8.989
2.6222	8.9721
2.6143	8.9761
2.6064	8.987
2.5986	9
2.5908	9.009
2.583	8.9736
2.5753	8.9922
2.5677	8.9834
2.5601	8.9621
2.5525	8.9573
2.545	8.9765
2.5375	8.9641
2.5301	8.916
2.5227	8.8803
2.5154	8.8965
2.5081	8.8774
2.5008	8.8706
2.4936	8.8784
2.4864	8.8325
2.4793	8.8615
2.4722	8.852
2.4651	8.8442
2.4581	8.8222
2.4511	8.8384
2.4442	8.79
2.4373	8.7812
2.4305	8.7861
2.4236	8.7815
2.4169	8.7846
2.4101	8.7732
2.4034	8.7551
2.3967	8.7173
2.3901	8.7273
2.3835	8.6704
2.377	8.6618
2.3704	8.7153
2.364	8.6985
2.3575	8.7207
2.3511	8.6753
2.3447	8.6443
2.3384	8.6269
2.3321	8.6511
2.3258	8.6252
2.3195	8.6745
2.3133	8.6653
2.3071	8.647
2.301	8.6516
2.2949	8.6382
2.2888	8.6716
2.2828	8.6267
2.2767	8.6228
2.2708	8.605
2.2648	8.6391
2.2589	8.5976
2.253	8.6553
2.2471	8.6572
2.2413	8.6684
2.2355	8.6636
2.2297	8.6789
2.224	8.6374
2.2183	8.657
2.2126	8.6753
2.207	8.6548
2.2013	8.6518
2.1957	8.6609
2.1902	8.7226
2.1846	8.6919
2.1791	8.6826
2.1736	8.7109
2.1682	8.7038
2.1628	8.7322
2.1574	8.7041
2.152	8.7236
2.1466	8.7927
2.1413	8.7522
2.136	8.78
2.1308	8.7932
2.1255	8.8396
2.1203	8.7883
2.1151	8.8403
2.11	8.8413
2.1048	8.9077
2.0997	8.8594
2.0946	8.8672
2.0895	8.9099
2.0845	8.8835
2.0795	8.9353
