Name: Lepidolite K(Li,Al)3(Si,Al)_4O_10(F,OH)_2
Type: Mineral
Class: Silicate
Subclass: Phyllosilicate
Particle Size: Coarse
Sample No.: PS-13A
Owner: JPL
Wavelength Range: TIR
Origin: USA, South Dakota
Description: Yellow lepidolite.Particle size was 125-500um.Collected by Ward's Original ASTER Spectral Library name was jpl.nicolet.mineral.silicate.phyllosilicate.coarse.ps13a.spectrum.txt
Measurement: Hemispherical reflectance
X Units: Wavelength (micrometers)
Y Units: Reflectance (percent)
wavelength	value
15.3853	0.7496
15.1161	0.882
14.8563	1.4226
14.6052	1.691
14.3624	2.2038
14.1276	2.1231
13.9004	2.8468
13.6803	2.7264
13.4671	3.3747
13.2604	3.2708
13.06	2.0175
12.8656	2.2597
12.6769	2.9141
12.4936	3.1127
12.3155	2.8361
12.1425	3.5834
11.9742	3.9425
11.8106	4.4174
11.6513	5.0392
11.4963	5.4545
11.3454	5.9225
11.1983	6.5896
11.0551	7.5605
10.9154	7.9175
10.7793	8.2042
10.6465	7.7551
10.5169	7.9232
10.3904	9.9167
10.267	13.3194
10.1464	16.2596
10.0287	17.5046
9.9136	18.944
9.8012	21.1566
9.6913	25.5123
9.5838	28.6889
9.4787	20.5096
9.3758	21.548
9.2752	25.8285
9.1767	28.0676
9.0803	27.0892
8.9858	25.2846
8.8934	22.3073
8.8028	17.4886
8.714	11.8391
8.627	5.8403
8.5417	2.734
8.4581	1.5373
8.3761	0.7604
8.2957	0.3732
8.2169	0.2145
8.1395	0.2883
8.0635	0.3564
7.989	0.3372
7.9158	0.4789
7.8439	0.4475
7.7734	0.5953
7.7041	0.8347
7.636	1.1117
7.5691	1.127
7.5034	1.3437
7.4388	1.6046
7.3753	1.7377
7.3129	1.9402
7.2515	2.0341
7.1912	2.2687
7.1318	2.2912
7.0734	2.3863
7.016	2.5266
6.9595	2.8207
6.9039	3.029
6.8492	3.436
6.7953	3.9151
6.7423	4.2719
6.6901	4.7721
6.6387	5.1104
6.5881	5.4246
6.5382	5.7618
6.4892	6.127
6.4408	6.2881
6.3931	6.4952
6.3462	6.8471
6.2999	6.9322
6.2543	6.9802
6.2094	6.7861
6.1651	6.4419
6.1214	6.0714
6.0784	5.9394
6.0359	5.5825
5.994	5.3799
5.9527	5.1042
5.912	5.0351
5.8718	5.0951
5.8322	5.0101
5.7931	4.9747
5.7545	4.8235
5.7165	4.6701
5.6789	4.6652
5.6418	4.656
5.6052	4.5271
5.5691	4.2815
5.5334	4.2821
5.4982	4.2733
5.4635	4.244
5.4291	4.3493
5.3952	4.5795
5.3618	4.7444
5.3287	5.2495
5.2961	5.7289
5.2638	6.5361
5.2319	7.4389
5.2004	8.3757
5.1693	9.3749
5.1386	10.7007
5.1082	11.8881
5.0782	12.774
5.0485	13.3544
5.0192	13.6717
4.9902	13.6611
4.9616	13.5965
4.9332	13.5834
4.9052	13.7505
4.8776	14.3158
4.8502	14.8157
4.8231	15.375
4.7963	15.9227
4.7699	16.6387
4.7437	17.5895
4.7178	18.5536
4.6922	19.5652
4.6668	20.7894
4.6418	22.485
4.617	24.5945
4.5924	26.5978
4.5681	28.4613
4.5441	30.35
4.5203	32.3798
4.4968	34.7387
4.4735	37.072
4.4505	39.7346
4.4277	42.8648
4.4051	45.8003
4.3828	48.1743
4.3607	49.9107
4.3388	51.0556
4.3171	52.1065
4.2956	52.7993
4.2744	53.4091
4.2534	53.8628
4.2325	54.4892
4.2119	54.7197
4.1915	54.8384
4.1712	55.1469
4.1512	55.3156
4.1313	55.6007
4.1117	55.8635
4.0922	56.1299
4.0729	56.5047
4.0538	56.6124
4.0349	56.9833
4.0161	57.096
3.9976	57.3575
3.9792	57.5443
3.9609	57.8388
3.9428	58.041
3.9249	58.2444
3.9072	58.3324
3.8896	58.6712
3.8722	58.8273
3.8549	58.9553
3.8378	59.0537
3.8208	58.97
3.804	58.7248
3.7873	58.1228
3.7708	57.0333
3.7544	55.0575
3.7382	52.0821
3.7221	51.0091
3.7061	50.8092
3.6903	51.1836
3.6746	51.2701
3.659	51.1236
3.6436	51.1428
3.6283	51.1242
3.6131	50.8889
3.5981	50.0417
3.5832	48.5701
3.5684	46.5827
3.5537	45.0588
3.5391	44.4552
3.5247	44.6094
3.5104	44.9942
3.4962	45.1627
3.4821	44.8427
3.4681	44.0822
3.4543	43.1474
3.4405	42.1857
3.4269	40.8146
3.4133	39.3415
3.3999	37.5642
3.3866	35.8337
3.3733	34.0795
3.3602	32.2683
3.3472	30.7807
3.3343	29.4814
3.3215	28.4258
3.3088	27.6038
3.2961	26.988
3.2836	26.9971
3.2712	27.3183
3.2588	28.1394
3.2466	29.088
3.2345	29.2668
3.2224	28.7197
3.2104	28.1434
3.1985	27.8811
3.1867	27.5417
3.175	27.6003
3.1634	27.4343
3.1519	27.6354
3.1404	27.5853
3.129	27.5238
3.1178	27.2288
3.1065	26.9532
3.0954	26.3302
3.0844	25.8673
3.0734	25.302
3.0625	24.5481
3.0517	23.7051
3.041	23.0442
3.0303	22.7734
3.0197	22.8427
3.0092	22.8628
2.9987	23.5274
2.9884	24.7004
2.9781	25.8858
2.9678	27.3723
2.9577	28.65
2.9476	29.236
2.9376	29.0233
2.9276	28.0623
2.9177	26.6332
2.9079	25.2662
2.8982	24.5835
2.8885	24.5212
2.8789	24.9731
2.8693	25.3602
2.8598	24.9389
2.8504	23.4397
2.841	21.1524
2.8317	19.1132
2.8224	17.5954
2.8133	15.079
2.8041	11.8764
2.7951	7.6466
2.786	4.9386
2.7771	3.5634
2.7682	3.2502
2.7594	2.9959
2.7506	2.667
2.7418	2.5329
2.7332	2.4586
2.7246	3.0377
2.716	5.2344
2.7075	13.0263
2.699	19.1354
2.6906	21.4304
2.6823	22.8896
2.674	24.1342
2.6657	26.3802
2.6575	27.9607
2.6494	29.4897
2.6413	29.9779
2.6332	30.0308
2.6252	29.3575
2.6173	29.8587
2.6094	29.7764
2.6015	30.894
2.5937	33.3465
2.5859	33.6437
2.5782	34.01
2.5706	34.4049
2.5629	35.4563
2.5554	36.0936
2.5478	36.9209
2.5403	37.1673
2.5329	37.0696
2.5255	36.2382
2.5181	34.8918
2.5108	33.4453
2.5035	32.0032
2.4963	30.7698
2.4891	30.058
2.482	29.6308
2.4749	28.9448
2.4678	28.0722
2.4608	27.2517
2.4538	26.301
2.4468	25.5522
2.4399	25.0592
2.4331	25.4378
2.4262	26.4295
2.4194	27.8858
2.4127	29.6826
2.4059	31.4805
2.3993	33.0094
2.3926	33.3714
2.386	33.2439
2.3795	33.1327
2.3729	33.6233
2.3664	32.7513
2.36	31.8004
2.3535	30.4416
2.3471	30.0716
2.3408	31.0401
2.3345	33.0216
2.3282	35.6562
2.3219	38.6743
2.3157	41.9039
2.3095	45.0267
2.3034	47.8543
2.2972	50.8505
2.2911	52.7497
2.2851	54.1116
2.279	54.8501
2.2731	55.5598
2.2671	55.6293
2.2612	55.4242
2.2553	54.9846
2.2494	54.5685
2.2435	53.9467
2.2377	53.1389
2.232	51.3358
2.2262	48.1285
2.2205	43.1117
2.2148	36.3218
2.2091	29.5153
2.2035	24.7812
2.1979	22.1224
2.1923	22.4498
2.1868	26.0833
2.1812	32.2717
2.1758	39.5013
2.1703	46.2562
2.1649	51.1409
2.1595	54.8327
2.1541	57.482
2.1487	59.7018
2.1434	61.1372
2.1381	62.0009
2.1328	62.3266
2.1275	61.903
2.1223	61.5283
2.1171	61.5863
2.112	63.1531
2.1068	64.2155
2.1017	65.8828
2.0966	67.9488
2.0915	69.5173
2.0865	71.6914
2.0814	73.1395
2.0764	74.3087
2.0715	75.1042
2.0665	75.4034
2.0616	75.9626
2.0567	76.3344
2.0518	76.3718
2.0469	76.8411
2.0421	77.1282
2.0373	77.5913
2.0325	77.7143
2.0277	78.2148
2.0229	78.1487
2.0182	78.588
2.0135	78.5457
2.0088	78.7766
2.0042	78.974
