Name: Stilbite NaCa_2Al_5Si_3O_36.14H_2O
Type: Mineral
Class: Silicate
Subclass: Tectosilicate
Particle Size: Fine
Sample No.: TS-9A
Owner: JPL
Wavelength Range: VSWIR
Origin: India.
Description: Particle size was 0-45um. Collected by:  Grieger's Inc. Original ASTER Spectral Library name was jpl.perkin.mineral.silicate.tectosilicate.fine.ts09a.spectrum.txt
Measurement: Hemispherical reflectance
X Units: Wavelength (micrometers)
Y Units: Reflectance (percent)
wavelength	value
2.5	30.6538
2.494	31.0311
2.488	31.3696
2.482	31.9243
2.476	32.2127
2.47	32.734
2.464	33.122
2.458	33.6437
2.452	34.0732
2.446	34.5002
2.44	35.0294
2.434	35.6856
2.428	36.4115
2.422	37.2221
2.416	38.1207
2.41	39.3664
2.404	40.525
2.398	41.9753
2.392	43.4967
2.386	45.0802
2.38	46.7154
2.374	48.437
2.368	49.9299
2.362	51.5744
2.356	52.997
2.35	54.3312
2.344	55.5299
2.338	56.6759
2.332	57.728
2.326	58.6426
2.32	59.5059
2.314	60.2575
2.308	60.9614
2.302	61.5779
2.296	62.1179
2.29	62.7258
2.284	63.11
2.278	63.4159
2.272	63.7783
2.266	64.1699
2.26	64.435
2.254	64.6056
2.248	64.8529
2.242	64.9972
2.236	65.2249
2.23	65.2906
2.224	65.4475
2.218	65.4526
2.212	65.6501
2.206	65.833
2.2	66.0006
2.194	65.9903
2.188	66.1238
2.182	66.1928
2.176	66.2343
2.17	66.2704
2.164	66.3582
2.158	66.4753
2.152	66.4877
2.146	66.3583
2.14	66.2459
2.134	66.0368
2.128	65.6328
2.122	65.3279
2.116	64.9134
2.11	64.439
2.104	64.0029
2.098	63.5896
2.092	63.434
2.086	63.2222
2.08	63.0173
2.074	62.8179
2.068	62.6447
2.062	62.4492
2.056	62.0895
2.05	61.7028
2.044	61.0594
2.038	60.3734
2.032	59.5477
2.026	58.5266
2.02	57.3861
2.014	56.0403
2.008	54.5921
2.002	53.265
1.996	51.8932
1.99	50.5231
1.984	49.2668
1.978	48.0704
1.972	47.073
1.966	46.0497
1.96	44.992
1.954	43.8555
1.948	42.4126
1.942	40.6426
1.936	38.3882
1.93	35.7379
1.924	33.1845
1.918	31.2731
1.912	31.3544
1.906	34.1553
1.9	40.5318
1.894	48.0022
1.888	54.6726
1.882	59.7471
1.876	63.2435
1.87	66.3187
1.864	68.3928
1.858	69.8651
1.852	70.9517
1.846	71.7812
1.84	72.4526
1.834	72.8201
1.828	73.2364
1.822	73.4459
1.816	73.555
1.81	73.7455
1.804	73.9019
1.798	74.0904
1.792	74.1477
1.786	74.2571
1.78	74.4048
1.774	74.4135
1.768	74.6101
1.762	74.68
1.756	74.8323
1.75	75.0418
1.744	75.3278
1.738	75.794
1.732	76.2158
1.726	76.5311
1.72	77.0981
1.714	77.5184
1.708	77.8046
1.702	78.0068
1.696	78.1928
1.69	78.2598
1.684	78.2349
1.678	78.2529
1.672	78.2106
1.666	78.2376
1.66	78.1276
1.654	78.0613
1.648	77.8856
1.642	77.862
1.636	77.6832
1.63	77.7278
1.624	77.4957
1.618	77.5145
1.612	77.4197
1.606	77.2685
1.6	77.3125
1.594	77.2787
1.588	77.2915
1.582	77.158
1.576	76.9981
1.57	76.9671
1.564	76.7928
1.558	76.8005
1.552	76.6902
1.546	76.4861
1.54	76.2823
1.534	76.1582
1.528	75.8201
1.522	75.4644
1.516	75.0049
1.51	74.4314
1.504	73.8601
1.498	72.9864
1.492	71.997
1.486	70.7739
1.48	69.4031
1.474	67.8859
1.468	66.981
1.462	67.089
1.456	66.8714
1.45	65.8106
1.444	64.3007
1.438	62.6625
1.432	61.1049
1.426	60.0833
1.42	60.0647
1.414	61.467
1.408	64.122
1.402	67.8481
1.396	71.2983
1.39	74.0505
1.384	75.9047
1.378	77.3936
1.372	78.3054
1.366	79.0851
1.36	79.8674
1.354	80.5921
1.348	81.2138
1.342	81.6057
1.336	82.0614
1.33	82.5372
1.324	83.135
1.318	83.6053
1.312	83.9667
1.306	84.2896
1.3	84.551
1.294	84.7619
1.288	84.8622
1.282	84.9884
1.276	84.9735
1.27	85.0681
1.264	85.0082
1.258	85.0249
1.252	84.9949
1.246	84.972
1.24	84.8856
1.234	84.774
1.228	84.7536
1.222	84.6972
1.216	84.549
1.21	84.4307
1.204	84.1993
1.198	84.1261
1.192	84.0375
1.186	83.9676
1.18	83.6722
1.174	83.2294
1.168	82.7581
1.162	82.3879
1.156	82.7599
1.15	83.7338
1.144	84.5908
1.138	85.2353
1.132	85.6124
1.126	85.7451
1.12	85.8057
1.114	85.8686
1.108	85.9692
1.102	85.9492
1.096	86.0148
1.09	86.1123
1.084	85.9609
1.078	85.928
1.072	86.0187
1.066	85.9273
1.06	85.9631
1.054	85.9403
1.048	85.8361
1.042	85.8165
1.036	85.7532
1.03	85.7475
1.024	85.5817
1.018	85.5722
1.012	85.3653
1.006	85.2805
1	85.1475
0.994	84.8831
0.988	84.6843
0.982	84.5019
0.976	84.2995
0.97	84.0995
0.964	84.2375
0.958	84.6158
0.952	84.9703
0.946	85.2397
0.94	85.2528
0.934	85.3686
0.928	85.4289
0.922	85.503
0.916	85.5455
0.91	85.5256
0.904	85.5392
0.898	85.5538
0.892	85.5881
0.886	85.6199
0.88	85.5677
0.874	85.4802
0.868	85.6432
0.862	85.507
0.856	85.6309
0.85	85.6193
0.844	85.5738
0.838	85.638
0.832	85.5684
0.826	85.6853
0.82	85.702
0.814	85.6768
0.808	85.6275
0.802	85.6421
0.796	85.5437
0.79	85.5411
0.784	85.5312
0.778	85.4666
0.772	85.413
0.766	85.384
0.76	85.3732
0.754	85.3588
0.748	85.2737
0.742	85.2599
0.736	85.2169
0.73	85.2275
0.724	85.2348
0.718	85.191
0.712	85.1608
0.706	85.1697
0.7	85.115
0.694	85.0831
0.688	85.0628
0.682	85.0326
0.676	84.992
0.67	84.965
0.664	84.9498
0.658	84.8886
0.652	84.8773
0.646	84.8666
0.64	84.8217
0.634	84.7967
0.628	84.7483
0.622	84.6974
0.616	84.6649
0.61	84.6289
0.604	84.597
0.598	84.5578
0.592	84.5404
0.586	84.4901
0.58	84.3822
0.574	84.3169
0.568	84.2086
0.562	84.1115
0.556	83.9444
0.55	83.8599
0.544	83.7294
0.538	83.6051
0.532	83.5081
0.526	83.4055
0.52	83.2798
0.514	83.1695
0.508	83.0337
0.502	82.9241
0.496	82.7608
0.49	82.6315
0.484	82.5009
0.478	82.3372
0.472	82.217
0.466	82.0846
0.46	81.9329
0.454	81.7574
0.448	81.5457
0.442	81.3061
0.436	81.0327
0.43	80.7803
0.424	80.5354
0.418	80.3032
0.412	80.12
0.406	79.9418
0.4	79.8004
