Name: Beryl Be_3Al_2Si_6O_18
Type: Mineral
Class: Silicate
Subclass: Cyclosilicate
Particle Size: Fine
Sample No.: CS-2A
Owner: JPL
Wavelength Range: VSWIR
Origin: Brazil, Minas Gerais.
Description: Particle size was 0-45um.Collected by:  Ward's Original ASTER Spectral Library name was jpl.perkin.mineral.silicate.cyclosilicate.fine.cs02a.spectrum.txt
Measurement: Hemispherical reflectance
X Units: Wavelength (micrometers)
Y Units: Reflectance (percent)
wavelength	value
2.5	48.7225
2.494	49.4917
2.488	49.6811
2.482	50.2414
2.476	50.5082
2.47	50.8685
2.464	51.2897
2.458	51.4087
2.452	51.6555
2.446	52.0727
2.44	52.2026
2.434	52.4423
2.428	52.6201
2.422	52.6998
2.416	52.8248
2.41	52.9235
2.404	53.0819
2.398	53.1615
2.392	53.3246
2.386	53.3762
2.38	53.3837
2.374	53.5179
2.368	53.5594
2.362	53.7084
2.356	53.7311
2.35	53.8498
2.344	53.848
2.338	53.9034
2.332	53.8831
2.326	53.8829
2.32	54.005
2.314	53.9632
2.308	54.0822
2.302	54.096
2.296	54.0705
2.29	54.074
2.284	54.0632
2.278	54.0551
2.272	54.0799
2.266	54.1474
2.26	54.0412
2.254	54.1079
2.248	54.1956
2.242	54.1731
2.236	54.178
2.23	54.1539
2.224	54.1721
2.218	54.2216
2.212	54.3186
2.206	54.3763
2.2	54.4009
2.194	54.3613
2.188	54.5168
2.182	54.5388
2.176	54.652
2.17	54.716
2.164	54.8053
2.158	54.8773
2.152	54.8205
2.146	54.9757
2.14	54.9761
2.134	55.0167
2.128	54.9838
2.122	54.7733
2.116	54.5957
2.11	54.4397
2.104	54.1934
2.098	54.1879
2.092	54.1778
2.086	54.148
2.08	54.2131
2.074	54.223
2.068	54.2655
2.062	54.2846
2.056	54.3767
2.05	54.3485
2.044	54.4603
2.038	54.5085
2.032	54.5998
2.026	54.5999
2.02	54.5685
2.014	54.566
2.008	54.5815
2.002	54.513
1.996	54.5006
1.99	54.2884
1.984	54.1339
1.978	53.8278
1.972	53.65
1.966	53.4114
1.96	53.2837
1.954	53.2491
1.948	53.3522
1.942	53.4432
1.936	53.549
1.93	53.5157
1.924	53.4308
1.918	53.2994
1.912	52.9481
1.906	51.3076
1.9	44.2805
1.894	41.4701
1.888	49.8459
1.882	52.7202
1.876	53.4174
1.87	53.5548
1.864	53.7049
1.858	53.4843
1.852	53.235
1.846	52.8384
1.84	52.6322
1.834	52.6029
1.828	52.7984
1.822	53.37
1.816	54.0596
1.81	54.5194
1.804	54.7506
1.798	54.8685
1.792	54.9054
1.786	54.9014
1.78	55.0234
1.774	54.9933
1.768	55.0653
1.762	55.1162
1.756	55.1249
1.75	55.1865
1.744	55.1388
1.738	55.2187
1.732	55.1996
1.726	55.2049
1.72	55.2432
1.714	55.2402
1.708	55.1816
1.702	55.2627
1.696	55.2217
1.69	55.1885
1.684	55.2614
1.678	55.154
1.672	55.2885
1.666	55.2422
1.66	55.2699
1.654	55.1486
1.648	55.2569
1.642	55.2661
1.636	55.2347
1.63	55.235
1.624	55.2066
1.618	55.2237
1.612	55.2606
1.606	55.2696
1.6	55.1903
1.594	55.2543
1.588	55.2208
1.582	55.2547
1.576	55.2001
1.57	55.1725
1.564	55.1867
1.558	55.2504
1.552	55.17
1.546	55.1834
1.54	55.158
1.534	55.1732
1.528	55.1828
1.522	55.1864
1.516	55.1372
1.51	55.0928
1.504	55.1226
1.498	55.036
1.492	55.0561
1.486	55.0748
1.48	54.9807
1.474	54.9365
1.468	54.2704
1.462	54.7384
1.456	54.8802
1.45	54.8646
1.444	54.7342
1.438	54.5861
1.432	54.5017
1.426	54.4284
1.42	54.1577
1.414	54.0206
1.408	53.5693
1.402	48.66
1.396	53.1711
1.39	54.4928
1.384	54.6288
1.378	54.4905
1.372	54.2603
1.366	54.3271
1.36	54.4172
1.354	54.7863
1.348	54.8768
1.342	54.9553
1.336	54.9861
1.33	55.0166
1.324	55.058
1.318	55.0354
1.312	55.0637
1.306	55.0475
1.3	55.0508
1.294	54.9894
1.288	55.0023
1.282	55.0384
1.276	55.0214
1.27	55.0412
1.264	55.0105
1.258	55.0242
1.252	55.0138
1.246	55.0481
1.24	55.0389
1.234	55.0129
1.228	55.0387
1.222	55.0429
1.216	54.9651
1.21	54.9694
1.204	54.9655
1.198	54.9471
1.192	54.9499
1.186	54.9633
1.18	54.932
1.174	54.9789
1.168	54.9537
1.162	54.9657
1.156	54.9189
1.15	54.2454
1.144	54.8495
1.138	54.9113
1.132	54.8894
1.126	54.8613
1.12	54.8754
1.114	54.9292
1.108	54.9453
1.102	54.8667
1.096	54.8337
1.09	54.8789
1.084	54.8642
1.078	54.9331
1.072	54.8698
1.066	54.8083
1.06	54.7851
1.054	54.811
1.048	54.7086
1.042	54.8705
1.036	54.8091
1.03	54.8187
1.024	54.8582
1.018	54.7563
1.012	54.8068
1.006	54.6909
1	54.7579
0.994	54.6536
0.988	54.6577
0.982	54.5621
0.976	54.6277
0.97	54.6235
0.964	54.6254
0.958	54.41
0.952	54.498
0.946	54.5265
0.94	54.4408
0.934	54.4896
0.928	54.3809
0.922	54.3389
0.916	54.2211
0.91	54.1887
0.904	54.1183
0.898	54.0292
0.892	53.9524
0.886	53.8825
0.88	53.7864
0.874	53.7283
0.868	53.6834
0.862	53.5275
0.856	53.5989
0.85	53.5206
0.844	53.4584
0.838	53.4428
0.832	53.4703
0.826	53.4584
0.82	53.4318
0.814	53.5066
0.808	53.4731
0.802	53.5503
0.796	53.5445
0.79	53.6091
0.784	53.7053
0.778	53.7847
0.772	53.8377
0.766	53.9152
0.76	54.0506
0.754	54.1654
0.748	54.2531
0.742	54.3566
0.736	54.4403
0.73	54.5409
0.724	54.6408
0.718	54.7087
0.712	54.7988
0.706	54.8374
0.7	54.9075
0.694	54.9759
0.688	55.0096
0.682	55.0514
0.676	55.0881
0.67	55.1155
0.664	55.124
0.658	55.1478
0.652	55.1698
0.646	55.1672
0.64	55.1906
0.634	55.2055
0.628	55.2175
0.622	55.2136
0.616	55.2117
0.61	55.2043
0.604	55.2182
0.598	55.2321
0.592	55.2636
0.586	55.2555
0.58	55.2442
0.574	55.2501
0.568	55.2344
0.562	55.2394
0.556	55.188
0.55	55.1925
0.544	55.1688
0.538	55.1586
0.532	55.1485
0.526	55.1306
0.52	55.1256
0.514	55.0856
0.508	55.0497
0.502	54.9963
0.496	54.9219
0.49	54.8395
0.484	54.7398
0.478	54.7605
0.472	54.757
0.466	54.7278
0.46	54.6737
0.454	54.5879
0.448	54.5009
0.442	54.3726
0.436	54.2814
0.43	54.1225
0.424	53.984
0.418	53.9288
0.412	53.8257
0.406	53.7065
0.4	53.5748
