Name: Antigorite (Mg, Fe+2)3 Si2O5(OH)4
Type: Mineral
Class: Silicate
Subclass: Phyllosilicate
Particle Size: Coarse
Sample No.: antigorite_1
Owner: JHU.
Wavelength Range: TIR
Origin: Sample from Kalsertal, Tyrol, Austria, via the Smithsonian(sample no. NMNH B17958, borrowed from Jim Crowley, USGS).
Description: The sample was a large green single crystal.  It appeared to be mostly pure antigorite under the microscope, but some (<3%) alteration or impurity was present, possibly chrysotile. Particle size was 74-250 Micrometers.(Sheet silicates)  (Serpentine/Kaolin Group)  Original ASTER Spectral Library name was jhu.nicolet.mineral.silicate.phyllosilicate.coarse.antigo1.spectrum.txt
Measurement: Bidirectional reflectance
X Units: Wavelength (micrometers)
Y Units: Reflectance (percent)
wavelength	value
25.0442	7.3603
24.3388	6.9775
23.6719	7.2392
23.0407	8.7529
22.4422	9.7339
21.8741	10.5918
21.334	11.2426
20.8199	11.4719
20.33	11.1103
19.8627	9.7915
19.4163	8.751
18.9896	5.7397
18.5812	3.583
18.19	3.3965
17.815	3.6223
17.4551	3.5972
17.1094	3.3811
16.7772	3.6726
16.4576	4.2839
16.15	5.0251
15.8537	5.5959
15.568	6.1052
15.2925	6.4509
15.0265	6.5542
14.7697	6.1709
14.5214	4.8911
14.2814	3.2612
14.0492	2.4067
13.8244	1.793
13.6067	1.4817
13.3957	1.4094
13.1912	1.5056
12.9929	1.6143
12.8004	1.6785
12.6135	1.7673
12.432	1.8647
12.2557	1.9519
12.0843	2.0288
11.9176	2.1489
11.7555	2.2808
11.5977	2.3997
11.444	2.5276
11.2944	2.7143
11.1487	2.8647
11.0067	3.0872
10.8682	3.3679
10.7332	3.7707
10.6015	4.3721
10.473	5.0818
10.3476	5.718
10.2251	6.2251
10.1056	7.0112
9.9887	7.6689
9.8746	8.4607
9.763	9.2512
9.6539	10.5041
9.5472	11.2802
9.4429	9.9311
9.3408	8.0046
9.2409	7.1926
9.1431	7.207
9.0474	6.9267
8.9536	5.2434
8.8618	3.7373
8.7718	2.1186
8.6837	0.7173
8.5973	0.4231
8.5126	0.5168
8.4295	0.5764
8.3481	0.6484
8.2682	0.6592
8.1898	0.7261
8.1129	0.8262
8.0374	0.8923
7.9634	0.9678
7.8906	1.0225
7.8192	1.0725
7.7491	1.1326
7.6802	1.1885
7.6126	1.2227
7.5461	1.2524
7.4807	1.2817
7.4165	1.3203
7.3534	1.363
7.2914	1.3987
7.2303	1.4443
7.1703	1.4917
7.1113	1.5295
7.0533	1.5588
6.9962	1.5945
6.94	1.6272
6.8847	1.6577
6.8302	1.6733
6.7767	1.7063
6.7239	1.7261
6.672	1.7537
6.6209	1.7737
6.5705	1.7832
6.5209	1.7659
6.4721	1.7175
6.424	1.6526
6.3766	1.5991
6.3299	1.5681
6.2838	1.5601
6.2385	1.5615
6.1937	1.5464
6.1496	1.5398
6.1062	1.5571
6.0633	1.6216
6.0211	1.696
5.9794	1.7617
5.9383	1.7583
5.8978	1.7339
5.8578	1.8159
5.8184	1.8752
5.7794	1.9541
5.741	2.0129
5.7031	2.0552
5.6657	2.0945
5.6288	2.1467
5.5924	2.2278
5.5564	2.3091
5.5209	2.3889
5.4859	2.4487
5.4513	2.5129
5.4171	2.5679
5.3833	2.6338
5.35	2.7126
5.3171	2.8025
5.2846	2.9087
5.2524	3.064
5.2207	3.2178
5.1893	3.3579
5.1584	3.4409
5.1277	3.4763
5.0975	3.5051
5.0676	3.5271
5.038	3.5498
5.0088	3.6301
4.98	3.78
4.9514	3.9289
4.9232	3.9812
4.8953	4.0747
4.8678	4.2349
4.8405	4.4082
4.8135	4.509
4.7868	4.5505
4.7605	4.6431
4.7344	4.8398
4.7086	5.0879
4.6831	5.3171
4.6578	5.4553
4.6328	5.5495
4.6081	5.6355
4.5837	5.7273
4.5595	5.8347
4.5356	5.967
4.5119	6.0586
4.4884	6.1123
4.4652	6.1496
4.4423	6.1777
4.4196	6.2095
4.3971	6.2285
4.3748	6.2471
4.3528	6.26
4.331	6.269
4.3094	6.2886
4.288	6.3152
4.2668	6.3491
4.2458	6.3804
4.2251	6.414
4.2045	6.4585
4.1841	6.5083
4.164	6.5749
4.144	6.6299
4.1242	6.6936
4.1046	6.7544
4.0852	6.8161
4.066	6.8826
4.047	6.9316
4.0281	6.9763
4.0094	7.0036
3.9909	7.0283
3.9725	7.0295
3.9544	7.0234
3.9363	7.022
3.9185	6.9917
3.9008	6.9656
3.8833	6.9221
3.8659	6.8552
3.8487	6.7888
3.8316	6.7182
3.8147	6.6391
3.7979	6.5547
3.7813	6.4897
3.7648	6.4189
3.7485	6.3274
3.7323	6.2268
3.7162	6.0759
3.7003	6.0207
3.6845	6.0229
3.6689	5.9741
3.6534	5.9292
3.638	5.8537
3.6227	5.7873
3.6076	5.717
3.5926	5.646
3.5777	5.572
3.563	5.4704
3.5484	5.365
3.5338	5.2226
3.5195	5.0344
3.5052	4.8611
3.491	4.7908
3.477	4.7153
3.463	4.6714
3.4492	4.561
3.4355	4.4182
3.4219	4.2217
3.4084	4.1484
3.395	4.1933
3.3817	4.1047
3.3685	4.0176
3.3554	3.9014
3.3425	3.9363
3.3296	3.9058
3.3168	3.8354
3.3041	3.7646
3.2915	3.7117
3.279	3.6526
3.2666	3.5793
3.2543	3.4995
3.2421	3.4289
3.23	3.4111
3.218	3.3833
3.206	3.2908
3.1942	3.2004
3.1824	3.0915
3.1707	2.9895
3.1591	2.866
3.1476	2.7617
3.1362	2.6445
3.1249	2.5613
3.1136	2.4912
3.1024	2.4204
3.0913	2.3525
3.0803	2.269
3.0694	2.1999
3.0585	2.1164
3.0477	2.0488
3.037	1.9675
3.0264	1.8987
3.0158	1.8081
3.0053	1.7195
2.9949	1.6655
2.9845	1.5906
2.9743	1.5261
2.9641	1.4783
2.9539	1.4155
2.9439	1.3462
2.9339	1.304
2.9239	1.2788
2.9141	1.2356
2.9043	1.2119
2.8946	1.1958
2.8849	1.1785
2.8753	1.1631
2.8658	1.1492
2.8563	1.1409
2.8469	1.1111
2.8375	1.0715
2.8282	1.03
2.819	1.0095
2.8098	0.9883
2.8007	0.9656
2.7917	0.9565
2.7827	0.9631
2.7738	0.9412
2.7649	0.9316
2.7561	0.9094
2.7473	0.8745
2.7386	0.8767
2.7299	0.8501
2.7213	0.8267
2.7128	0.7883
2.7043	0.8215
2.6959	1.115
2.6875	1.977
2.6791	3.5976
2.6709	4.529
2.6626	4.9084
2.6545	5.2329
2.6463	5.6726
2.6382	5.9079
2.6302	5.9556
2.6222	5.9202
2.6143	5.813
2.6064	5.698
2.5986	5.5034
2.5908	5.3005
2.583	5.0683
2.5753	4.8218
2.5677	4.6894
2.5601	4.7532
2.5525	4.8628
2.545	4.9475
2.5375	4.8804
2.5301	4.6172
2.5227	4.3545
2.5154	4.2964
2.5081	4.4226
2.5008	4.5391
2.4936	4.6401
2.4864	4.812
2.4793	5.1138
2.4722	5.2485
2.4651	5.2165
2.4581	4.9636
2.4511	4.7803
2.4442	4.8887
2.4373	5.0996
2.4305	5.126
2.4236	5.1206
2.4169	5.2327
2.4101	5.3887
2.4034	5.5381
2.3967	5.6348
2.3901	5.6719
2.3835	5.5185
2.377	5.6909
2.3704	6.1294
2.364	6.2583
2.3575	6.1269
2.3511	5.7436
2.3447	4.958
2.3384	4.1411
2.3321	3.6641
2.3258	3.4043
2.3195	3.5835
2.3133	4.0249
2.3071	4.5405
2.301	4.8757
2.2949	5.1445
2.2888	5.4277
2.2828	5.7246
2.2767	5.8867
2.2708	6.1335
2.2648	6.603
2.2589	6.9497
2.253	7.0156
2.2471	7.1604
2.2413	7.386
2.2355	7.8376
2.2297	8.3464
2.224	8.7463
2.2183	8.9519
2.2126	9.0959
2.207	9.1277
2.2013	9.1706
2.1957	9.1977
2.1902	9.2304
2.1846	9.2239
2.1791	9.2385
2.1736	9.2705
2.1682	9.2138
2.1628	9.1767
2.1574	9.0825
2.152	8.9826
2.1466	8.8996
2.1413	8.7768
2.136	8.7178
2.1308	8.7004
2.1255	8.7798
2.1203	8.7934
2.1151	8.7344
2.11	8.7178
2.1048	8.688
2.0997	8.7424
2.0946	8.8359
2.0895	8.8999
2.0845	9.0757
2.0795	9.2217
