Name: Realgar AsS
Type: Mineral
Class: Sulfide
Subclass: None
Particle Size: Fine
Sample No.: S-3A
Owner: JPL
Wavelength Range: VSWIR
Origin: Unknown.
Description: Particle size was 0-45um. Collected by:  JPL Original ASTER Spectral Library name was jpl.perkin.mineral.sulfide.none.fine.s03a.spectrum.txt
Measurement: Hemispherical reflectance
X Units: Wavelength (micrometers)
Y Units: Reflectance (percent)
wavelength	value
2.5	82.9718
2.494	82.8292
2.488	82.5894
2.482	83.0084
2.476	82.985
2.47	83.1493
2.464	83.2658
2.458	83.3239
2.452	83.3968
2.446	83.5291
2.44	83.6584
2.434	83.8019
2.428	84.0276
2.422	84.0121
2.416	84.1205
2.41	84.2545
2.404	84.33
2.398	84.4022
2.392	84.4959
2.386	84.6505
2.38	84.7883
2.374	84.8985
2.368	85.0063
2.362	85.1152
2.356	85.1839
2.35	85.2667
2.344	85.2325
2.338	85.3289
2.332	85.2551
2.326	85.3066
2.32	85.2186
2.314	85.3211
2.308	85.2761
2.302	85.3703
2.296	85.3891
2.29	85.5032
2.284	85.4438
2.278	85.4967
2.272	85.3973
2.266	85.4498
2.26	85.4953
2.254	85.5644
2.248	85.6466
2.242	85.5997
2.236	85.6203
2.23	85.7547
2.224	85.8078
2.218	85.8459
2.212	85.9478
2.206	86.1092
2.2	86.2857
2.194	86.333
2.188	86.4479
2.182	86.5476
2.176	86.6425
2.17	86.8378
2.164	86.9234
2.158	87.1162
2.152	87.2741
2.146	87.305
2.14	87.3732
2.134	87.1184
2.128	87.0668
2.122	86.8378
2.116	86.5411
2.11	86.249
2.104	85.9866
2.098	85.8574
2.092	85.9425
2.086	86.0634
2.08	86.0807
2.074	86.1011
2.068	86.2365
2.062	86.2264
2.056	86.2753
2.05	86.3837
2.044	86.39
2.038	86.3854
2.032	86.3718
2.026	86.3888
2.02	86.4204
2.014	86.3421
2.008	86.2625
2.002	86.2528
1.996	86.0935
1.99	86.0268
1.984	85.9287
1.978	85.7986
1.972	85.7302
1.966	85.5226
1.96	85.4221
1.954	85.3272
1.948	85.2542
1.942	85.202
1.936	85.3667
1.93	85.405
1.924	85.4857
1.918	85.6595
1.912	85.9214
1.906	86.2105
1.9	86.5142
1.894	86.8568
1.888	86.9878
1.882	87.2809
1.876	87.3915
1.87	87.4086
1.864	87.5216
1.858	87.6387
1.852	87.6167
1.846	87.6808
1.84	87.6058
1.834	87.7276
1.828	87.6544
1.822	87.6844
1.816	87.6863
1.81	87.6587
1.804	87.7851
1.798	87.7243
1.792	87.7502
1.786	87.6749
1.78	87.7363
1.774	87.6677
1.768	87.65
1.762	87.7133
1.756	87.64
1.75	87.712
1.744	87.7432
1.738	87.6961
1.732	87.7571
1.726	87.7683
1.72	87.7436
1.714	87.8242
1.708	87.7298
1.702	87.7234
1.696	87.7033
1.69	87.6562
1.684	87.6569
1.678	87.627
1.672	87.7115
1.666	87.7299
1.66	87.6653
1.654	87.5488
1.648	87.5897
1.642	87.6717
1.636	87.5972
1.63	87.5689
1.624	87.463
1.618	87.5171
1.612	87.494
1.606	87.5238
1.6	87.526
1.594	87.4975
1.588	87.4302
1.582	87.3925
1.576	87.3854
1.57	87.2826
1.564	87.2703
1.558	87.2611
1.552	87.1367
1.546	87.1375
1.54	87.1266
1.534	87.0537
1.528	87.0093
1.522	86.9557
1.516	86.8938
1.51	86.853
1.504	86.7158
1.498	86.7429
1.492	86.6569
1.486	86.6291
1.48	86.4974
1.474	86.5332
1.468	86.481
1.462	86.4247
1.456	86.4028
1.45	86.2706
1.444	86.2802
1.438	86.3108
1.432	86.1269
1.426	86.1355
1.42	86.1735
1.414	86.1394
1.408	86.1691
1.402	86.1151
1.396	86.1775
1.39	86.1562
1.384	86.1629
1.378	86.0763
1.372	86.2156
1.366	86.0199
1.36	85.9177
1.354	85.8747
1.348	85.7693
1.342	85.7156
1.336	85.7314
1.33	85.6848
1.324	85.5655
1.318	85.5824
1.312	85.4394
1.306	85.4655
1.3	85.4855
1.294	85.2746
1.288	85.3213
1.282	85.1661
1.276	85.231
1.27	85.1824
1.264	85.122
1.258	85.0697
1.252	84.95
1.246	84.901
1.24	84.8692
1.234	84.9004
1.228	84.8146
1.222	84.7882
1.216	84.7462
1.21	84.6232
1.204	84.5818
1.198	84.5645
1.192	84.531
1.186	84.5101
1.18	84.4808
1.174	84.3906
1.168	84.3245
1.162	84.3672
1.156	84.3475
1.15	84.3372
1.144	84.1829
1.138	84.2369
1.132	84.2474
1.126	84.1513
1.12	84.0811
1.114	84.1186
1.108	84.0174
1.102	84.0783
1.096	84.0398
1.09	83.9787
1.084	84.0267
1.078	83.896
1.072	83.9025
1.066	83.95
1.06	83.8747
1.054	83.8728
1.048	83.8072
1.042	83.755
1.036	83.8213
1.03	83.6946
1.024	83.6274
1.018	83.6365
1.012	83.6021
1.006	83.6551
1	83.6068
0.994	83.5542
0.988	83.5037
0.982	83.5051
0.976	83.5152
0.97	83.5196
0.964	83.4338
0.958	83.3985
0.952	83.3572
0.946	83.3471
0.94	83.2668
0.934	83.3034
0.928	83.2588
0.922	83.1882
0.916	83.2434
0.91	83.1229
0.904	83.0814
0.898	83.0588
0.892	83.0216
0.886	82.9418
0.88	82.8793
0.874	82.8083
0.868	82.9274
0.862	82.7726
0.856	82.3699
0.85	82.3695
0.844	82.3803
0.838	82.3168
0.832	82.2501
0.826	82.1894
0.82	82.1439
0.814	82.0993
0.808	82.0731
0.802	81.9869
0.796	81.7744
0.79	81.6375
0.784	81.4013
0.778	81.0901
0.772	80.8062
0.766	80.5143
0.76	80.1212
0.754	79.7505
0.748	79.377
0.742	78.9907
0.736	78.6427
0.73	78.281
0.724	77.9375
0.718	77.658
0.712	77.3576
0.706	77.1055
0.7	76.8408
0.694	76.6437
0.688	76.4127
0.682	76.2256
0.676	76.0019
0.67	75.8114
0.664	75.5848
0.658	75.3216
0.652	75.0561
0.646	74.7482
0.64	74.3535
0.634	73.8466
0.628	73.2074
0.622	72.2808
0.616	70.9627
0.61	69.0961
0.604	66.3768
0.598	62.606
0.592	57.5169
0.586	51.0435
0.58	43.4267
0.574	35.3434
0.568	27.6277
0.562	20.9349
0.556	15.6656
0.55	11.9152
0.544	9.387
0.538	7.7614
0.532	6.7134
0.526	6.0395
0.52	5.6079
0.514	5.3242
0.508	5.1449
0.502	5.0272
0.496	4.9384
0.49	4.8754
0.484	4.8246
0.478	4.7851
0.472	4.7671
0.466	4.7685
0.46	4.7893
0.454	4.8238
0.448	4.8603
0.442	4.903
0.436	4.9295
0.43	4.95
0.424	4.9623
0.418	4.9804
0.412	5.0073
0.406	5.0459
0.4	5.0971
