Name: Montmorillonite (Na,Ca)_0.33(Al,Mg)_2Si_4O_10(OH)_2.H_2O
Type: Mineral
Class: Silicate
Subclass: Phyllosilicate
Particle Size: Fine
Sample No.: PS-2D
Owner: JPL
Wavelength Range: TIR
Origin: USA, Wyoming, Crook County
Description: Particle size was 0-45um.Collected by Clay Mineral Society Original ASTER Spectral Library name was jpl.nicolet.mineral.silicate.phyllosilicate.fine.ps02d.spectrum.txt
Measurement: Hemispherical reflectance
X Units: Wavelength (micrometers)
Y Units: Reflectance (percent)
wavelength	value
15.3853	0.5595
15.1161	0.8578
14.8563	0.8924
14.6052	1.0064
14.3624	0.9362
14.1276	1.5249
13.9004	1.6093
13.6803	1.8538
13.4671	2.292
13.2604	2.8755
13.06	3.1221
12.8656	2.6918
12.6769	2.6264
12.4936	2.1785
12.3155	2.7953
12.1425	3.3809
11.9742	3.3843
11.8106	2.9739
11.6513	3.2325
11.4963	3.2053
11.3454	2.656
11.1983	2.6226
11.0551	2.7501
10.9154	2.0988
10.7793	2.2713
10.6465	2.7335
10.5169	3.2029
10.3904	3.2297
10.267	3.2881
10.1464	3.2512
10.0287	3.1261
9.9136	3.5429
9.8012	3.7899
9.6913	4.0373
9.5838	4.8369
9.4787	5.6319
9.3758	6.5115
9.2752	6.7243
9.1767	5.5569
9.0803	3.9555
8.9858	2.85
8.8934	3.4996
8.8028	3.9334
8.714	3.7211
8.627	3.1211
8.5417	2.9287
8.4581	2.5654
8.3761	2.3759
8.2957	2.2674
8.2169	2.2273
8.1395	1.9694
8.0635	1.8063
7.989	1.8236
7.9158	1.7239
7.8439	1.8482
7.7734	2.061
7.7041	2.4303
7.636	2.8304
7.5691	3.1359
7.5034	3.7151
7.4388	4.2808
7.3753	4.6132
7.3129	4.9109
7.2515	5.2638
7.1912	5.5951
7.1318	6.2461
7.0734	6.8501
7.016	7.2048
6.9595	7.7206
6.9039	8.0007
6.8492	8.5853
6.7953	8.8743
6.7423	9.4097
6.6901	9.9817
6.6387	10.8908
6.5881	11.46
6.5382	11.8488
6.4892	12.569
6.4408	12.7353
6.3931	12.4855
6.3462	11.606
6.2999	10.0225
6.2543	7.7984
6.2094	5.0952
6.1651	2.9905
6.1214	2.222
6.0784	2.2051
6.0359	2.9045
5.994	4.1636
5.9527	5.8112
5.912	7.7323
5.8718	10.0278
5.8322	12.0453
5.7931	13.8172
5.7545	15.3686
5.7165	16.8282
5.6789	18.0245
5.6418	18.7017
5.6052	18.6938
5.5691	18.1542
5.5334	18.5136
5.4982	18.1426
5.4635	17.5829
5.4291	17.2715
5.3952	17.2269
5.3618	17.3082
5.3287	18.1945
5.2961	19.7059
5.2638	21.2563
5.2319	22.6658
5.2004	23.4989
5.1693	23.8223
5.1386	24.2519
5.1082	24.5355
5.0782	25.1888
5.0485	26.0824
5.0192	27.3225
4.9902	28.7214
4.9616	30.4892
4.9332	31.8457
4.9052	33.0841
4.8776	34.1437
4.8502	34.8318
4.8231	35.3737
4.7963	36.0243
4.7699	36.6088
4.7437	37.0894
4.7178	37.536
4.6922	38.0792
4.6668	38.6251
4.6418	39.2282
4.617	39.9521
4.5924	40.5175
4.5681	41.166
4.5441	41.8427
4.5203	42.4136
4.4968	43.084
4.4735	43.6373
4.4505	44.2797
4.4277	44.9731
4.4051	45.6959
4.3828	46.4194
4.3607	47.0694
4.3388	47.7673
4.3171	48.6832
4.2956	49.5694
4.2744	50.4647
4.2534	50.7384
4.2325	52.1638
4.2119	52.2545
4.1915	52.5108
4.1712	53.255
4.1512	53.8198
4.1313	54.5878
4.1117	55.2405
4.0922	55.801
4.0729	56.3718
4.0538	56.6797
4.0349	56.7382
4.0161	56.3277
3.9976	55.4278
3.9792	54.8952
3.9609	55.564
3.9428	57.3639
3.9249	58.4378
3.9072	59.0148
3.8896	59.2443
3.8722	59.4084
3.8549	59.4542
3.8378	59.6228
3.8208	60.0688
3.804	60.3224
3.7873	60.4145
3.7708	60.1133
3.7544	59.829
3.7382	59.4362
3.7221	58.868
3.7061	58.4266
3.6903	57.7659
3.6746	57.1914
3.659	56.7346
3.6436	56.1198
3.6283	55.4732
3.6131	54.7081
3.5981	53.879
3.5832	52.9786
3.5684	51.8136
3.5537	50.8325
3.5391	49.4074
3.5247	47.8132
3.5104	45.7423
3.4962	44.3554
3.4821	43.347
3.4681	42.5983
3.4543	41.4857
3.4405	40.1359
3.4269	38.339
3.4133	36.2574
3.3999	35.5686
3.3866	34.341
3.3733	33.0178
3.3602	31.7616
3.3472	30.3479
3.3343	29.0155
3.3215	27.5751
3.3088	26.0633
3.2961	24.7051
3.2836	23.2404
3.2712	21.814
3.2588	20.3523
3.2466	19.0171
3.2345	17.6067
3.2224	16.3872
3.2104	15.1844
3.1985	14.0879
3.1867	12.9006
3.175	11.6554
3.1634	10.7981
3.1519	9.7931
3.1404	8.9664
3.129	8.3437
3.1178	7.5444
3.1065	6.9516
3.0954	6.7593
3.0844	6.3282
3.0734	6.2391
3.0625	6.0964
3.0517	6.0193
3.041	5.8866
3.0303	5.4354
3.0197	5.4738
3.0092	5.2084
2.9987	4.906
2.9884	4.4267
2.9781	4.4593
2.9678	4.0559
2.9577	4.0005
2.9476	4.0168
2.9376	3.8503
2.9276	3.9324
2.9177	3.8694
2.9079	3.8163
2.8982	3.8612
2.8885	4.1477
2.8789	4.1805
2.8693	4.3094
2.8598	4.4189
2.8504	4.5629
2.841	4.91
2.8317	4.8156
2.8224	4.8584
2.8133	4.7312
2.8041	4.609
2.7951	4.0234
2.786	3.4826
2.7771	2.5846
2.7682	1.9876
2.7594	1.4643
2.7506	1.5699
2.7418	1.7552
2.7332	2.3313
2.7246	3.7738
2.716	6.2124
2.7075	10.2579
2.699	14.7909
2.6906	21.7382
2.6823	31.3707
2.674	36.3895
2.6657	39.7463
2.6575	41.8677
2.6494	43.7957
2.6413	45.4912
2.6332	46.7189
2.6252	47.9502
2.6173	48.7817
2.6094	49.7607
2.6015	50.4317
2.5937	51.082
2.5859	51.391
2.5782	51.5156
2.5706	51.6921
2.5629	51.8652
2.5554	52.0291
2.5478	52.1644
2.5403	52.4044
2.5329	52.6039
2.5255	53.1165
2.5181	53.4262
2.5108	53.8741
2.5035	54.5898
2.4963	55.0726
2.4891	55.7313
2.482	55.8638
2.4749	56.2826
2.4678	56.4843
2.4608	56.9968
2.4538	57.1905
2.4468	57.7548
2.4399	58.4602
2.4331	59.1154
2.4262	60.01
2.4194	60.5481
2.4127	61.1575
2.4059	61.7144
2.3993	62.286
2.3926	62.8549
2.386	63.5421
2.3795	64.004
2.3729	64.6646
2.3664	64.9836
2.36	65.5537
2.3535	66.2215
2.3471	67.0243
2.3408	67.9993
2.3345	68.6434
2.3282	69.3098
2.3219	69.9126
2.3157	70.594
2.3095	70.9127
2.3034	71.4955
2.2972	72.1513
2.2911	72.9741
2.2851	73.3314
2.279	73.9291
2.2731	74.2021
2.2671	74.3413
2.2612	74.1731
2.2553	73.7394
2.2494	72.7374
2.2435	71.3546
2.2377	70.3201
2.232	69.7013
2.2262	69.0552
2.2205	67.8487
2.2148	65.8176
2.2091	64.433
2.2035	64.6362
2.1979	66.2454
2.1923	68.134
2.1868	69.8459
2.1812	71.4853
2.1758	73.0102
2.1703	74.3174
2.1649	75.9292
2.1595	76.7633
2.1541	77.3318
2.1487	77.6245
2.1434	77.9566
2.1381	78.3762
2.1328	78.5122
2.1275	78.3296
2.1223	78.527
2.1171	78.3831
2.112	78.2787
2.1068	78.3297
2.1017	78.0551
2.0966	77.7922
2.0915	77.8573
2.0865	77.8338
2.0814	77.7951
2.0764	78.5057
2.0715	77.9319
2.0665	77.6097
2.0616	78.0009
2.0567	77.9276
2.0518	78.0637
2.0469	77.811
2.0421	77.5502
2.0373	77.2595
2.0325	76.8895
2.0277	76.8428
2.0229	76.318
2.0182	75.8787
2.0135	75.2448
2.0088	74.8691
2.0042	74.5593
