Name: Oligoclase (Feldspar) (NaSi,CaAl)AlSi_2O_8
Type: Mineral
Class: Silicate
Subclass: Tectosilicate
Particle Size: Coarse
Sample No.: TS-3A
Owner: JPL
Wavelength Range: TIR
Description: Particle size was 125-500um.Collected by JPL Original ASTER Spectral Library name was jpl.nicolet.mineral.silicate.tectosilicate.coarse.ts03a.spectrum.txt
Measurement: Hemispherical reflectance
X Units: Wavelength (micrometers)
Y Units: Reflectance (percent)
wavelength	value
15.3853	4.9657
15.1161	2.3403
14.8563	2.0105
14.6052	1.9792
14.3624	2.4632
14.1276	2.5587
13.9004	3.1369
13.6803	3.1035
13.4671	3.3192
13.2604	3.3767
13.06	2.7969
12.8656	2.5991
12.6769	2.6387
12.4936	2.1878
12.3155	2.3345
12.1425	2.8912
11.9742	3.1607
11.8106	3.5771
11.6513	3.9417
11.4963	4.2608
11.3454	4.7325
11.1983	5.56
11.0551	6.2031
10.9154	7.0273
10.7793	7.7425
10.6465	8.5528
10.5169	9.1405
10.3904	9.8895
10.267	11.6877
10.1464	13.691
10.0287	15.3162
9.9136	16.6578
9.8012	16.4612
9.6913	16.4308
9.5838	14.9408
9.4787	11.1274
9.3758	9.1864
9.2752	8.8151
9.1767	9.4952
9.0803	9.4605
8.9858	10.5622
8.8934	11.5751
8.8028	12.4463
8.714	13.0013
8.627	12.6588
8.5417	12.505
8.4581	12.2963
8.3761	12.0179
8.2957	10.2767
8.2169	5.8547
8.1395	2.3894
8.0635	1.0354
7.989	0.4541
7.9158	0.1612
7.8439	0.1351
7.7734	0.1403
7.7041	0.0857
7.636	0.229
7.5691	0.2864
7.5034	0.3649
7.4388	0.3662
7.3753	0.4353
7.3129	0.5063
7.2515	0.4837
7.1912	0.5131
7.1318	0.556
7.0734	0.7359
7.016	0.7532
6.9595	0.7965
6.9039	0.9183
6.8492	0.8527
6.7953	1.078
6.7423	0.9431
6.6901	1.0176
6.6387	1.1796
6.5881	1.1632
6.5382	1.1395
6.4892	1.1911
6.4408	1.252
6.3931	1.2255
6.3462	1.276
6.2999	1.2718
6.2543	1.1418
6.2094	1.2455
6.1651	1.3056
6.1214	1.313
6.0784	1.5332
6.0359	1.4033
5.994	1.2879
5.9527	1.5541
5.912	1.4709
5.8718	1.4643
5.8322	1.4635
5.7931	1.4982
5.7545	1.4806
5.7165	1.4974
5.6789	1.5919
5.6418	1.6348
5.6052	1.616
5.5691	1.6565
5.5334	1.7058
5.4982	1.9672
5.4635	2.0652
5.4291	2.1528
5.3952	2.3482
5.3618	2.5724
5.3287	2.6614
5.2961	2.6835
5.2638	2.8085
5.2319	2.9533
5.2004	3.204
5.1693	3.505
5.1386	3.9924
5.1082	4.3743
5.0782	4.8249
5.0485	5.3913
5.0192	6.0584
4.9902	6.4292
4.9616	6.892
4.9332	7.3006
4.9052	7.4471
4.8776	7.6423
4.8502	7.9665
4.8231	8.1259
4.7963	8.3495
4.7699	8.5543
4.7437	8.945
4.7178	9.4306
4.6922	9.9152
4.6668	10.5912
4.6418	11.3856
4.617	12.4516
4.5924	13.5218
4.5681	14.9753
4.5441	16.2219
4.5203	17.6417
4.4968	19.1207
4.4735	20.7157
4.4505	22.4932
4.4277	23.8704
4.4051	25.3257
4.3828	26.9215
4.3607	28.6468
4.3388	30.4626
4.3171	32.4789
4.2956	34.3513
4.2744	36.2248
4.2534	37.8138
4.2325	39.7269
4.2119	40.9424
4.1915	42.1867
4.1712	43.4887
4.1512	44.281
4.1313	45.1351
4.1117	45.6707
4.0922	46.3861
4.0729	46.7955
4.0538	47.1328
4.0349	47.2168
4.0161	47.4782
3.9976	47.6741
3.9792	47.9278
3.9609	48.2729
3.9428	48.9493
3.9249	49.4689
3.9072	49.8625
3.8896	50.0534
3.8722	50.4821
3.8549	50.7072
3.8378	51.0237
3.8208	51.3195
3.804	51.7106
3.7873	51.964
3.7708	52.2132
3.7544	52.1991
3.7382	52.2599
3.7221	52.2694
3.7061	52.151
3.6903	52.0563
3.6746	51.9007
3.659	51.5349
3.6436	51.2531
3.6283	50.8545
3.6131	50.3982
3.5981	49.8202
3.5832	49.3025
3.5684	48.5448
3.5537	47.7153
3.5391	46.7712
3.5247	45.8227
3.5104	44.5116
3.4962	43.4554
3.4821	42.4643
3.4681	41.4572
3.4543	40.5785
3.4405	39.3826
3.4269	37.827
3.4133	36.6557
3.3999	35.5981
3.3866	34.3129
3.3733	33.3018
3.3602	32.0292
3.3472	30.6745
3.3343	29.5053
3.3215	28.3596
3.3088	27.1709
3.2961	25.8502
3.2836	24.8486
3.2712	23.4938
3.2588	22.3633
3.2466	21.1005
3.2345	19.9699
3.2224	18.8335
3.2104	17.7104
3.1985	16.3718
3.1867	15.1908
3.175	14.3556
3.1634	13.3954
3.1519	12.526
3.1404	11.8707
3.129	11.0144
3.1178	10.7441
3.1065	10.1085
3.0954	9.5901
3.0844	9.3139
3.0734	9.0823
3.0625	8.7741
3.0517	8.6648
3.041	8.4745
3.0303	7.9837
3.0197	7.6232
3.0092	7.3014
2.9987	7.1541
2.9884	6.9477
2.9781	6.8806
2.9678	6.8508
2.9577	6.6841
2.9476	6.5907
2.9376	6.6333
2.9276	6.5051
2.9177	6.854
2.9079	6.8564
2.8982	6.7801
2.8885	7.1123
2.8789	7.2946
2.8693	7.3479
2.8598	7.9341
2.8504	8.0219
2.841	8.7604
2.8317	9.0397
2.8224	9.6272
2.8133	10.2129
2.8041	11.0061
2.7951	11.5965
2.786	12.207
2.7771	12.5426
2.7682	12.5195
2.7594	12.509
2.7506	13.4388
2.7418	15.5822
2.7332	18.0657
2.7246	22.8894
2.716	30.7694
2.7075	38.5672
2.699	44.1252
2.6906	48.9785
2.6823	52.2043
2.674	54.4428
2.6657	56.6447
2.6575	57.5256
2.6494	58.5405
2.6413	59.457
2.6332	60.0005
2.6252	60.4017
2.6173	61.055
2.6094	61.1723
2.6015	61.679
2.5937	62.3943
2.5859	62.3245
2.5782	62.5024
2.5706	62.6477
2.5629	62.9927
2.5554	62.9235
2.5478	63.1262
2.5403	63.2697
2.5329	63.3743
2.5255	63.4168
2.5181	63.5943
2.5108	63.5934
2.5035	63.7974
2.4963	64.0382
2.4891	64.0923
2.482	64.2841
2.4749	64.1905
2.4678	64.3761
2.4608	64.5802
2.4538	64.9428
2.4468	65.1688
2.4399	65.2561
2.4331	65.5312
2.4262	66.0088
2.4194	66.3428
2.4127	67.0701
2.4059	67.2618
2.3993	67.735
2.3926	67.6991
2.386	67.9044
2.3795	67.6319
2.3729	67.348
2.3664	66.3656
2.36	65.4142
2.3535	65.5581
2.3471	66.2945
2.3408	67.0196
2.3345	67.5492
2.3282	68.6937
2.3219	69.6501
2.3157	70.5176
2.3095	70.9228
2.3034	71.247
2.2972	71.6513
2.2911	71.8238
2.2851	72.0215
2.279	72.2509
2.2731	72.441
2.2671	72.2044
2.2612	72.0042
2.2553	72.3209
2.2494	72.6061
2.2435	72.6755
2.2377	72.7679
2.232	72.6807
2.2262	72.6459
2.2205	72.4905
2.2148	71.8818
2.2091	70.8076
2.2035	69.8113
2.1979	69.2686
2.1923	69.8136
2.1868	70.7826
2.1812	71.7225
2.1758	72.3552
2.1703	73.1897
2.1649	73.5704
2.1595	73.4564
2.1541	73.8088
2.1487	73.6793
2.1434	73.7728
2.1381	74.046
2.1328	73.791
2.1275	73.9824
2.1223	73.7879
2.1171	73.8411
2.112	73.5606
2.1068	73.6428
2.1017	73.6788
2.0966	73.5644
2.0915	73.3993
2.0865	73.4783
2.0814	73.4092
2.0764	73.5105
2.0715	73.0566
2.0665	73.06
2.0616	72.6976
2.0567	72.5031
2.0518	72.4428
2.0469	72.291
2.0421	71.8497
2.0373	71.5879
2.0325	71.4677
2.0277	71.1898
2.0229	71.0508
2.0182	70.5665
2.0135	70.3265
2.0088	69.7434
2.0042	69.4581
