Name: Rhodochrosite MnCO_3
Type: Mineral
Class: Carbonate
Subclass: None
Particle Size: Fine
Sample No.: C-8A
Owner: JPL
Wavelength Range: VSWIR
Origin: USA, Montana, Silver Bow County, Butte
Description: Particle size was 0-45um.Collected by Ward's Original ASTER Spectral Library name was jpl.beckman.mineral.carbonate.none.fine.c08a.spectrum.txt
Measurement: Hemispherical reflectance
X Units: Wavelength (micrometers)
Y Units: Reflectance (percent)
wavelength	value
0.4	52.39
0.403	50.2
0.406	44.15
0.409	51.89
0.412	54.47
0.415	55.29
0.418	55.63
0.421	55.88
0.424	55.98
0.427	56.06
0.43	56.23
0.433	56.28
0.436	56.45
0.439	56.46
0.442	56.66
0.445	56.89
0.448	57.12
0.451	57.25
0.454	57.57
0.457	57.84
0.46	58.12
0.463	58.35
0.466	58.67
0.469	58.98
0.472	59.39
0.475	59.65
0.478	59.7
0.481	59.84
0.484	60.07
0.487	60.3
0.49	60.42
0.493	60.56
0.496	60.63
0.499	60.74
0.502	60.88
0.505	60.98
0.508	61.05
0.511	61.09
0.514	61.29
0.517	61.29
0.52	61.27
0.523	61.48
0.526	61.42
0.529	61.41
0.532	61.48
0.535	61.5
0.538	61.64
0.541	61.58
0.544	61.6
0.547	61.71
0.55	61.95
0.553	62.13
0.556	62.31
0.559	62.32
0.562	62.85
0.565	63.12
0.568	63.34
0.571	63.41
0.574	63.64
0.577	63.8
0.58	64
0.583	64.13
0.586	64.31
0.589	64.47
0.592	64.81
0.595	64.93
0.598	65.01
0.601	65.18
0.604	65.34
0.607	65.54
0.61	65.68
0.613	65.76
0.616	65.85
0.619	65.9
0.622	66.11
0.625	66.01
0.628	66.12
0.631	66.28
0.634	66.42
0.637	66.42
0.64	66.51
0.643	66.67
0.646	66.74
0.649	66.8
0.652	66.82
0.655	66.9
0.658	67.04
0.661	67.08
0.664	67.17
0.667	67.29
0.67	67.23
0.673	67.42
0.676	67.46
0.679	67.52
0.682	67.58
0.685	67.62
0.688	67.65
0.691	67.68
0.694	67.78
0.697	67.87
0.7	67.75
0.703	68.01
0.706	68.06
0.709	68.08
0.712	68.03
0.715	68.13
0.718	68.2
0.721	68.24
0.724	68.33
0.727	68.32
0.73	68.38
0.733	68.35
0.736	68.4
0.739	68.52
0.742	68.49
0.745	68.62
0.748	68.63
0.751	68.75
0.754	68.68
0.757	68.65
0.76	68.66
0.763	68.74
0.766	68.85
0.769	68.76
0.772	68.82
0.775	68.82
0.778	68.86
0.781	68.96
0.784	68.95
0.787	69.06
0.79	69.05
0.793	69.09
0.796	69.23
0.799	69.33
0.808	69.62
0.82	69.66
0.832	69.76
0.844	69.97
0.856	70.13
0.868	70.27
0.88	70.27
0.892	70.31
0.904	70.3
0.916	70.34
0.928	70.42
0.94	70.51
0.952	70.6
0.964	70.7
0.976	70.75
0.988	70.75
1	70.75
1.012	70.77
1.024	70.84
1.036	70.84
1.048	70.85
1.06	70.96
1.072	71.03
1.084	71.14
1.096	71.08
1.108	71.24
1.12	71.3
1.132	71.34
1.144	71.27
1.156	71.32
1.168	71.33
1.18	71.37
1.192	71.27
1.204	71.35
1.216	71.32
1.228	71.38
1.24	71.35
1.252	71.36
1.264	71.46
1.276	71.52
1.288	71.58
1.3	71.44
1.312	71.48
1.324	71.45
1.336	71.46
1.348	71.46
1.36	71.38
1.372	71.4
1.384	71.43
1.396	71.45
1.408	71.52
1.42	71.55
1.432	71.58
1.444	71.64
1.456	71.62
1.468	71.68
1.48	71.67
1.492	71.69
1.504	71.64
1.516	71.75
1.528	71.69
1.54	71.74
1.552	71.75
1.564	71.75
1.576	71.74
1.588	71.74
1.6	71.72
1.612	71.75
1.624	71.71
1.636	71.76
1.648	71.93
1.66	71.9
1.672	71.87
1.684	71.79
1.696	71.82
1.708	71.75
1.72	71.81
1.732	71.71
1.744	71.75
1.756	71.71
1.768	71.64
1.78	71.7
1.792	71.66
1.804	71.64
1.816	71.62
1.828	71.52
1.84	71.47
1.852	71.41
1.864	71.41
1.876	71.22
1.888	71.16
1.9	71.25
1.912	71.24
1.924	71.32
1.936	71.24
1.948	71.27
1.96	71.21
1.972	71.29
1.984	71.22
1.996	71.3
2.008	71.36
2.02	71.54
2.032	71.59
2.044	71.67
2.056	71.7
2.068	71.82
2.08	71.76
2.092	71.85
2.104	71.94
2.116	72.08
2.128	72.04
2.14	71.86
2.152	71.73
2.164	71.47
2.176	71.36
2.188	71.35
2.2	71.27
2.212	71.09
2.224	71.13
2.236	70.93
2.248	70.77
2.26	70.58
2.272	70.38
2.284	69.92
2.296	69.42
2.308	68.96
2.32	68.64
2.332	68.43
2.344	68.06
2.356	67.89
2.368	68.46
2.38	69.86
2.392	70.76
2.404	70.99
2.416	70.95
2.428	70.61
2.44	70.32
2.452	69.77
2.464	69.01
2.476	68.08
2.488	67.48
2.5	66.99
