Name: Quartz SiO_2
Type: Mineral
Class: Silicate
Subclass: Tectosilicate
Particle Size: Medium
Sample No.: TS-1D
Owner: JPL
Wavelength Range: TIR
Origin: USA, Coloradi, Buffalo
Description: Milky quartz. Particle size was 45-125um.Collected by Ward's Original ASTER Spectral Library name was jpl.nicolet.mineral.silicate.tectosilicate.medium.ts01d.spectrum.txt
Measurement: Hemispherical reflectance
X Units: Wavelength (micrometers)
Y Units: Reflectance (percent)
wavelength	value
15.3853	6.8633
15.1161	6.2039
14.8563	5.7568
14.6052	4.565
14.3624	3.8104
14.1276	3.7907
13.9004	4.7494
13.6803	5.323
13.4671	5.5581
13.2604	5.5383
13.06	6.6504
12.8656	11.1671
12.6769	8.6714
12.4936	10.7536
12.3155	1.1291
12.1425	1.7619
11.9742	2.9425
11.8106	4.0674
11.6513	4.7656
11.4963	5.3133
11.3454	5.8505
11.1983	5.8042
11.0551	6.3334
10.9154	6.804
10.7793	6.5888
10.6465	6.6995
10.5169	6.8424
10.3904	7.1927
10.267	7.5149
10.1464	8.1327
10.0287	8.8381
9.9136	9.8882
9.8012	11.2228
9.6913	13.3182
9.5838	16.2574
9.4787	21.7848
9.3758	36.9256
9.2752	52.0152
9.1767	55.0881
9.0803	56.2522
8.9858	56.3084
8.8934	55.1236
8.8028	51.8982
8.714	47.2126
8.627	29.6114
8.5417	47.9628
8.4581	49.5838
8.3761	48.2398
8.2957	47.2645
8.2169	45.6459
8.1395	36.6175
8.0635	23.2336
7.989	14.5557
7.9158	8.0105
7.8439	4.4012
7.7734	2.5859
7.7041	1.4745
7.636	0.7031
7.5691	0.379
7.5034	0.068
7.4388	0
7.3753	0.0323
7.3129	0.1833
7.2515	0.0745
7.1912	0.2865
7.1318	0.3543
7.0734	0.4843
7.016	0.742
6.9595	0.8753
6.9039	1.1695
6.8492	1.2284
6.7953	1.2224
6.7423	0.972
6.6901	1.0409
6.6387	1.4003
6.5881	1.2254
6.5382	1.1351
6.4892	2.5091
6.4408	3.5917
6.3931	3.3118
6.3462	2.3825
6.2999	1.6113
6.2543	1.2367
6.2094	1.1449
6.1651	1.357
6.1214	2.2592
6.0784	3.3266
6.0359	3.3779
5.994	2.9749
5.9527	2.144
5.912	2.4304
5.8718	3.5397
5.8322	4.9546
5.7931	6.394
5.7545	7.8752
5.7165	8.931
5.6789	7.3902
5.6418	4.1814
5.6052	2.7491
5.5691	2.5354
5.5334	3.1187
5.4982	4.2496
5.4635	5.3712
5.4291	4.7227
5.3952	2.3996
5.3618	1.6604
5.3287	1.5437
5.2961	1.7107
5.2638	2.1089
5.2319	3.5867
5.2004	5.2624
5.1693	5.2344
5.1386	4.7596
5.1082	4.7588
5.0782	3.917
5.0485	3.6652
5.0192	3.5157
4.9902	3.6988
4.9616	5.4485
4.9332	7.3308
4.9052	11.5245
4.8776	21.057
4.8502	28.2212
4.8231	33.2222
4.7963	37.0113
4.7699	40.2367
4.7437	42.4467
4.7178	42.988
4.6922	37.7508
4.6668	39.023
4.6418	45.3939
4.617	50.4522
4.5924	52.3339
4.5681	52.2029
4.5441	48.4172
4.5203	41.2003
4.4968	33.3408
4.4735	31.0049
4.4505	32.644
4.4277	35.0979
4.4051	38.389
4.3828	42.9019
4.3607	47.7835
4.3388	50.8381
4.3171	50.9688
4.2956	49.3425
4.2744	49.5417
4.2534	52.0593
4.2325	51.992
4.2119	53.2966
4.1915	53.7604
4.1712	55.7305
4.1512	57.2454
4.1313	58.7882
4.1117	60.8782
4.0922	63.0724
4.0729	64.5949
4.0538	65.1402
4.0349	64.7799
4.0161	64.3772
3.9976	64.6467
3.9792	65.5889
3.9609	66.8988
3.9428	68.4752
3.9249	69.3136
3.9072	69.2595
3.8896	68.3585
3.8722	67.2878
3.8549	66.8169
3.8378	66.9155
3.8208	67.6879
3.804	68.225
3.7873	67.9366
3.7708	67.0544
3.7544	66.1562
3.7382	65.9133
3.7221	66.6798
3.7061	68.3116
3.6903	70.4633
3.6746	72.2543
3.659	73.7052
3.6436	74.4966
3.6283	74.6921
3.6131	74.8032
3.5981	75.1213
3.5832	75.5891
3.5684	76.2075
3.5537	76.9713
3.5391	77.5908
3.5247	78.3027
3.5104	78.529
3.4962	78.661
3.4821	79.3868
3.4681	79.6555
3.4543	79.7842
3.4405	79.5479
3.4269	78.7354
3.4133	78.1098
3.3999	78.6454
3.3866	78.6861
3.3733	78.5266
3.3602	79.1063
3.3472	79.5098
3.3343	79.4307
3.3215	79.4001
3.3088	78.9525
3.2961	78.7081
3.2836	78.1536
3.2712	77.7577
3.2588	77.477
3.2466	77.1736
3.2345	76.7618
3.2224	76.339
3.2104	75.8072
3.1985	75.4237
3.1867	74.8059
3.175	74.1877
3.1634	73.7104
3.1519	72.9838
3.1404	71.794
3.129	70.9019
3.1178	70.759
3.1065	70.7514
3.0954	70.7771
3.0844	70.5833
3.0734	70.1577
3.0625	69.4865
3.0517	68.5942
3.041	67.8165
3.0303	67.3663
3.0197	67.3347
3.0092	67.5484
2.9987	67.6526
2.9884	67.5954
2.9781	67.3813
2.9678	65.9028
2.9577	64.9652
2.9476	66.276
2.9376	66.8721
2.9276	67.2609
2.9177	67.2424
2.9079	67.9281
2.8982	68.6041
2.8885	69.2201
2.8789	69.4429
2.8693	70.183
2.8598	70.9645
2.8504	71.5996
2.841	72.1443
2.8317	72.7369
2.8224	73.4142
2.8133	74.1756
2.8041	74.9105
2.7951	74.9528
2.786	75.531
2.7771	75.9001
2.7682	76.7324
2.7594	76.8266
2.7506	78.138
2.7418	79.9183
2.7332	80.7299
2.7246	83.0137
2.716	83.5353
2.7075	84.4676
2.699	84.9362
2.6906	85.4578
2.6823	85.9952
2.674	86.4512
2.6657	87.5838
2.6575	86.5281
2.6494	86.446
2.6413	86.6227
2.6332	86.8431
2.6252	86.6682
2.6173	87.3109
2.6094	86.8525
2.6015	86.7904
2.5937	87.6457
2.5859	86.9507
2.5782	86.7628
2.5706	86.911
2.5629	87.1811
2.5554	86.6161
2.5478	86.6413
2.5403	86.4992
2.5329	86.6856
2.5255	86.6313
2.5181	86.6648
2.5108	86.6265
2.5035	86.5546
2.4963	86.5879
2.4891	86.5935
2.482	86.6684
2.4749	86.6524
2.4678	86.6126
2.4608	86.6142
2.4538	86.6795
2.4468	86.7339
2.4399	86.6895
2.4331	86.7598
2.4262	86.6727
2.4194	86.776
2.4127	86.6377
2.4059	86.7844
2.3993	86.6822
2.3926	86.8092
2.386	86.7395
2.3795	86.7223
2.3729	86.6933
2.3664	86.9035
2.36	86.829
2.3535	86.717
2.3471	86.7843
2.3408	86.827
2.3345	86.8226
2.3282	86.7894
2.3219	86.7794
2.3157	86.9096
2.3095	86.7835
2.3034	86.866
2.2972	86.6476
2.2911	86.7806
2.2851	86.94
2.279	86.8074
2.2731	86.8533
2.2671	86.8628
2.2612	86.9273
2.2553	86.7924
2.2494	86.7471
2.2435	86.8515
2.2377	86.8473
2.232	86.7974
2.2262	86.7276
2.2205	86.7595
2.2148	86.6019
2.2091	86.693
2.2035	86.6648
2.1979	86.7322
2.1923	86.6155
2.1868	86.7229
2.1812	86.535
2.1758	86.7034
2.1703	86.6399
2.1649	86.6921
2.1595	86.605
2.1541	86.8717
2.1487	86.8417
2.1434	86.7694
2.1381	86.7535
2.1328	86.876
2.1275	86.7381
2.1223	86.731
2.1171	86.7229
2.112	86.7841
2.1068	86.792
2.1017	86.8388
2.0966	86.9236
2.0915	86.6753
2.0865	86.6384
2.0814	86.6255
2.0764	87.0746
2.0715	86.8309
2.0665	86.7189
2.0616	86.7645
2.0567	86.7193
2.0518	86.6962
2.0469	86.6681
2.0421	86.7603
2.0373	86.7855
2.0325	86.6163
2.0277	86.791
2.0229	86.6117
2.0182	86.547
2.0135	86.3589
2.0088	86.5671
2.0042	86.7238
