Name: Montebrasite LiAlPO_4(OH)
Type: Mineral
Class: Phosphate
Subclass: None
Particle Size: Coarse
Sample No.: P-2A
Owner: JPL
Wavelength Range: VSWIR
Origin: USA, Couth Dakota, Custer County, Custer.
Description: Particle size was 125-500um.Collected by:  Burminco Original ASTER Spectral Library name was jpl.perkin.mineral.phosphate.none.coarse.p02a.spectrum.txt
Measurement: Hemispherical reflectance
X Units: Wavelength (micrometers)
Y Units: Reflectance (percent)
wavelength	value
2.5	18.4885
2.494	18.7457
2.488	19.6727
2.482	20.4737
2.476	21.961
2.47	23.3562
2.464	25.2629
2.458	27.3041
2.452	29.3181
2.446	31.3982
2.44	33.0375
2.434	34.3585
2.428	35.0407
2.422	35.0984
2.416	34.5712
2.41	33.2247
2.404	30.8711
2.398	27.2135
2.392	22.6811
2.386	17.5856
2.38	13.6537
2.374	11.7834
2.368	12.9566
2.362	17.2612
2.356	23.8368
2.35	30.9116
2.344	36.9765
2.338	40.9298
2.332	43.0079
2.326	43.9565
2.32	43.9951
2.314	43.4757
2.308	42.5805
2.302	41.2893
2.296	39.5045
2.29	37.4474
2.284	35.2588
2.278	33.5755
2.272	32.618
2.266	32.0873
2.26	31.1705
2.254	29.9259
2.248	28.4173
2.242	26.8422
2.236	25.3354
2.23	23.6581
2.224	22.2266
2.218	20.6059
2.212	18.8323
2.206	16.5276
2.2	14.167
2.194	12.1012
2.188	10.6261
2.182	9.6337
2.176	8.8873
2.17	9.6288
2.164	13.5714
2.158	21.0896
2.152	29.3581
2.146	35.3368
2.14	38.9715
2.134	40.8926
2.128	41.9895
2.122	42.5469
2.116	43.0051
2.11	43.5679
2.104	44.2384
2.098	44.9161
2.092	45.4449
2.086	45.5586
2.08	45.128
2.074	44.526
2.068	44.2165
2.062	44.294
2.056	44.7134
2.05	45.4041
2.044	46.3518
2.038	47.4402
2.032	48.1798
2.026	48.3232
2.02	47.4067
2.014	44.7126
2.008	39.6153
2.002	33.1941
1.996	30.0856
1.99	33.0755
1.984	39.3625
1.978	44.9741
1.972	48.5254
1.966	50.5012
1.96	51.4122
1.954	51.9083
1.948	52.0476
1.942	52.1095
1.936	52.0877
1.93	52.0353
1.924	51.8674
1.918	51.5676
1.912	51.6284
1.906	51.9757
1.9	52.3474
1.894	52.8427
1.888	53.2939
1.882	53.6341
1.876	53.7394
1.87	53.3298
1.864	51.9138
1.858	49.8858
1.852	48.4781
1.846	48.847
1.84	52.1144
1.834	57.0857
1.828	59.9635
1.822	61.0032
1.816	61.347
1.81	61.4162
1.804	61.372
1.798	61.018
1.792	60.405
1.786	59.703
1.78	59.1525
1.774	58.7443
1.768	58.5537
1.762	58.8257
1.756	59.156
1.75	59.3812
1.744	59.2665
1.738	59.0328
1.732	59.2992
1.726	60.2492
1.72	61.4527
1.714	62.3403
1.708	62.8565
1.702	63.1142
1.696	63.1237
1.69	63.1377
1.684	63.1282
1.678	63.0789
1.672	62.9405
1.666	62.7734
1.66	62.4983
1.654	62.3164
1.648	62.2153
1.642	62.2357
1.636	61.9955
1.63	61.7695
1.624	61.3326
1.618	60.8722
1.612	60.3956
1.606	60.1919
1.6	60.1527
1.594	59.852
1.588	59.3357
1.582	58.5466
1.576	57.8821
1.57	57.0731
1.564	55.9567
1.558	54.2716
1.552	52.0054
1.546	49.4294
1.54	47.8905
1.534	48.6708
1.528	50.8347
1.522	52.5179
1.516	54.0493
1.51	55.8982
1.504	57.5453
1.498	58.84
1.492	59.7961
1.486	60.0357
1.48	59.7923
1.474	60.6748
1.468	61.7701
1.462	62.4372
1.456	63.0845
1.45	62.1554
1.444	62.3426
1.438	64.6259
1.432	65.3191
1.426	65.734
1.42	64.7633
1.414	65.3611
1.408	67.2085
1.402	67.8376
1.396	68.467
1.39	68.9292
1.384	69.271
1.378	69.3608
1.372	69.2351
1.366	68.9323
1.36	68.2451
1.354	68.1026
1.348	68.7372
1.342	69.1926
1.336	69.4989
1.33	69.6485
1.324	69.7105
1.318	69.8369
1.312	69.8357
1.306	69.6997
1.3	69.4016
1.294	68.9864
1.288	69.0046
1.282	69.6119
1.276	69.9974
1.27	70.0951
1.264	70.1646
1.258	70.3088
1.252	70.5035
1.246	70.5712
1.24	70.6561
1.234	70.696
1.228	70.6413
1.222	70.657
1.216	70.6651
1.21	70.7337
1.204	70.7389
1.198	70.7509
1.192	70.7599
1.186	70.8295
1.18	70.7771
1.174	70.7902
1.168	70.8047
1.162	70.8148
1.156	70.8413
1.15	70.8547
1.144	70.8291
1.138	70.8438
1.132	70.866
1.126	70.751
1.12	70.8
1.114	70.9153
1.108	70.8447
1.102	70.8956
1.096	70.9282
1.09	70.9398
1.084	70.9018
1.078	70.836
1.072	70.8671
1.066	70.8099
1.06	70.9246
1.054	70.9994
1.048	70.8884
1.042	70.8927
1.036	70.8939
1.03	70.8918
1.024	70.8387
1.018	70.8767
1.012	70.9348
1.006	70.9028
1	70.9078
0.994	70.9067
0.988	70.8676
0.982	70.9893
0.976	71.0388
0.97	71.0465
0.964	71.0718
0.958	71.1313
0.952	71.1893
0.946	71.1972
0.94	71.2187
0.934	71.2478
0.928	71.2463
0.922	71.3298
0.916	71.3258
0.91	71.3402
0.904	71.3656
0.898	71.323
0.892	71.3365
0.886	71.3322
0.88	71.3518
0.874	71.4009
0.868	71.486
0.862	71.3923
0.856	71.5844
0.85	71.6431
0.844	71.6483
0.838	71.6392
0.832	71.6644
0.826	71.6784
0.82	71.6603
0.814	71.6776
0.808	71.6959
0.802	71.683
0.796	71.5765
0.79	71.5489
0.784	71.5466
0.778	71.5523
0.772	71.5401
0.766	71.5329
0.76	71.5251
0.754	71.4953
0.748	71.4887
0.742	71.4772
0.736	71.4957
0.73	71.4771
0.724	71.4748
0.718	71.4283
0.712	71.4547
0.706	71.3941
0.7	71.401
0.694	71.3667
0.688	71.3441
0.682	71.3064
0.676	71.2898
0.67	71.2608
0.664	71.2198
0.658	71.2018
0.652	71.1689
0.646	71.1189
0.64	71.0865
0.634	71.0342
0.628	70.9912
0.622	70.9461
0.616	70.9062
0.61	70.8529
0.604	70.808
0.598	70.7713
0.592	70.763
0.586	70.7085
0.58	70.6471
0.574	70.5742
0.568	70.5329
0.562	70.4703
0.556	70.3804
0.55	70.3121
0.544	70.2403
0.538	70.1502
0.532	70.0778
0.526	69.9571
0.52	69.8667
0.514	69.7599
0.508	69.6334
0.502	69.4855
0.496	69.3253
0.49	69.1689
0.484	69.0008
0.478	68.8311
0.472	68.6628
0.466	68.5013
0.46	68.2727
0.454	68.0659
0.448	67.7869
0.442	67.4815
0.436	67.1345
0.43	66.7236
0.424	66.2903
0.418	65.8246
0.412	65.2878
0.406	64.7245
0.4	64.122
