Name: Plumbojarosite PbFe_3^3+(SO_4)_4(OH)_12
Type: Mineral
Class: Sulfate
Subclass: None
Particle Size: Medium
Sample No.: SO-7B
Owner: JPL
Wavelength Range: TIR
Origin: Mexico, Hidalgo, Zimapan, Lomo De Toro Mine
Description: Particle size was 45-125um.Collected by Burminco Original ASTER Spectral Library name was jpl.nicolet.mineral.sulfate.none.medium.so07b.spectrum.txt
Measurement: Hemispherical reflectance
X Units: Wavelength (micrometers)
Y Units: Reflectance (percent)
wavelength	value
15.3853	0.3159
15.1161	0.6977
14.8563	0.4734
14.6052	0.3231
14.3624	0.8243
14.1276	0.7443
13.9004	0.5459
13.6803	0.7368
13.4671	0.688
13.2604	1.1829
13.06	0.7979
12.8656	1.0413
12.6769	0.8416
12.4936	0.934
12.3155	0.8022
12.1425	0.9671
11.9742	1.0925
11.8106	1.1091
11.6513	1.0463
11.4963	1.287
11.3454	1.3978
11.1983	1.4718
11.0551	1.704
10.9154	1.8568
10.7793	1.8979
10.6465	2.341
10.5169	2.3146
10.3904	2.3766
10.267	2.6006
10.1464	3.049
10.0287	3.2217
9.9136	2.9082
9.8012	2.5973
9.6913	2.4658
9.5838	1.0854
9.4787	0.7987
9.3758	1.7577
9.2752	3.015
9.1767	2.6502
9.0803	1.5992
8.9858	2.1003
8.8934	1.6518
8.8028	1.5478
8.714	1.4595
8.627	1.0877
8.5417	1.2161
8.4581	0.9303
8.3761	0.9263
8.2957	0.9473
8.2169	0.7059
8.1395	0.751
8.0635	0.8915
7.989	1.2959
7.9158	2.4203
7.8439	3.5145
7.7734	4.0579
7.7041	4.1556
7.636	3.9238
7.5691	3.866
7.5034	3.8263
7.4388	3.8396
7.3753	3.7581
7.3129	3.8216
7.2515	4.1105
7.1912	4.064
7.1318	4.2469
7.0734	4.2814
7.016	4.5261
6.9595	4.839
6.9039	4.9829
6.8492	5.4962
6.7953	5.8762
6.7423	6.373
6.6901	6.935
6.6387	7.5166
6.5881	7.692
6.5382	7.9067
6.4892	8.3026
6.4408	8.1053
6.3931	8.0509
6.3462	8.264
6.2999	8.2014
6.2543	8.3174
6.2094	8.1861
6.1651	8.2062
6.1214	8.18
6.0784	9.0238
6.0359	9.7782
5.994	10.6954
5.9527	11.7055
5.912	12.3544
5.8718	13.1111
5.8322	13.8314
5.7931	13.5752
5.7545	14.1028
5.7165	15.0056
5.6789	15.498
5.6418	15.7657
5.6052	15.7666
5.5691	16.1383
5.5334	16.5939
5.4982	17.1382
5.4635	17.8648
5.4291	18.4227
5.3952	18.7686
5.3618	19.0014
5.3287	18.9878
5.2961	18.883
5.2638	18.2807
5.2319	17.4876
5.2004	16.3569
5.1693	14.666
5.1386	12.5233
5.1082	10.5316
5.0782	10.2425
5.0485	10.5939
5.0192	10.7456
4.9902	10.2133
4.9616	9.5789
4.9332	9.2524
4.9052	9.6341
4.8776	10.2939
4.8502	10.6032
4.8231	11.4067
4.7963	12.2868
4.7699	12.5395
4.7437	12.9647
4.7178	13.5395
4.6922	14.2226
4.6668	14.7296
4.6418	15.3548
4.617	15.7207
4.5924	15.955
4.5681	16.4068
4.5441	17.3643
4.5203	18.3603
4.4968	19.4389
4.4735	20.4649
4.4505	21.6263
4.4277	22.6178
4.4051	23.2096
4.3828	23.7562
4.3607	24.2669
4.3388	24.5236
4.3171	24.5946
4.2956	24.4594
4.2744	24.2586
4.2534	24.4416
4.2325	24.4972
4.2119	24.7968
4.1915	24.9193
4.1712	24.7594
4.1512	24.7477
4.1313	24.8314
4.1117	25.1392
4.0922	25.2916
4.0729	25.3152
4.0538	25.2197
4.0349	25.0185
4.0161	24.8779
3.9976	24.6903
3.9792	24.5416
3.9609	24.2251
3.9428	24.0762
3.9249	23.6857
3.9072	23.4511
3.8896	22.9293
3.8722	22.5557
3.8549	22.0865
3.8378	21.6255
3.8208	21.0373
3.804	20.5383
3.7873	19.8864
3.7708	19.3668
3.7544	18.8159
3.7382	18.349
3.7221	17.7709
3.7061	17.3002
3.6903	16.7642
3.6746	16.1926
3.659	15.6455
3.6436	15.169
3.6283	14.6819
3.6131	14.2807
3.5981	13.951
3.5832	13.5125
3.5684	13.2906
3.5537	12.841
3.5391	12.4649
3.5247	12.1433
3.5104	11.877
3.4962	11.5962
3.4821	11.1827
3.4681	11.0331
3.4543	10.7654
3.4405	10.341
3.4269	10.2344
3.4133	9.9759
3.3999	9.6947
3.3866	9.5128
3.3733	9.3012
3.3602	9.0748
3.3472	8.9343
3.3343	8.7716
3.3215	8.5956
3.3088	8.4491
3.2961	8.1826
3.2836	7.9384
3.2712	7.752
3.2588	7.5494
3.2466	7.2848
3.2345	6.9891
3.2224	6.8982
3.2104	6.6174
3.1985	6.2474
3.1867	6.0317
3.175	5.8797
3.1634	5.524
3.1519	5.5272
3.1404	5.3667
3.129	5.1437
3.1178	4.792
3.1065	4.6554
3.0954	4.4495
3.0844	4.2504
3.0734	3.8823
3.0625	3.6886
3.0517	3.6122
3.041	3.1852
3.0303	2.9044
3.0197	2.7355
3.0092	2.5657
2.9987	2.2406
2.9884	1.9876
2.9781	1.6487
2.9678	1.3912
2.9577	1.6502
2.9476	1.7205
2.9376	1.5961
2.9276	1.9591
2.9177	2.0999
2.9079	2.2058
2.8982	2.6074
2.8885	2.7558
2.8789	3.2384
2.8693	3.8755
2.8598	4.6424
2.8504	5.3159
2.841	6.1782
2.8317	7.4147
2.8224	8.5641
2.8133	10.2092
2.8041	11.986
2.7951	13.5718
2.786	15.9063
2.7771	18.2067
2.7682	21.3022
2.7594	24.3641
2.7506	27.8407
2.7418	31.6947
2.7332	34.2365
2.7246	37.5138
2.716	38.655
2.7075	40.0447
2.699	40.7344
2.6906	41.2773
2.6823	41.7197
2.674	42.0196
2.6657	43.0575
2.6575	41.7356
2.6494	41.4915
2.6413	41.0663
2.6332	41.1802
2.6252	41.3766
2.6173	41.8993
2.6094	41.8488
2.6015	42.3619
2.5937	43.9714
2.5859	44.1999
2.5782	45.6035
2.5706	46.9616
2.5629	48.6733
2.5554	49.3965
2.5478	50.5397
2.5403	51.1473
2.5329	51.5539
2.5255	52.1417
2.5181	52.0695
2.5108	52.9567
2.5035	54.0967
2.4963	54.8618
2.4891	55.5707
2.482	55.7431
2.4749	55.9052
2.4678	56.0967
2.4608	55.9016
2.4538	55.5869
2.4468	55.215
2.4399	54.609
2.4331	54.5137
2.4262	54.6284
2.4194	54.3214
2.4127	54.4222
2.4059	54.6663
2.3993	55.5723
2.3926	56.631
2.386	57.7276
2.3795	58.7042
2.3729	59.6376
2.3664	60.1474
2.36	60.6794
2.3535	61.1892
2.3471	61.277
2.3408	61.4599
2.3345	61.1204
2.3282	60.7155
2.3219	59.7874
2.3157	59.0013
2.3095	58.7482
2.3034	58.3047
2.2972	57.5046
2.2911	57.1079
2.2851	56.844
2.279	57.1742
2.2731	58.006
2.2671	58.4374
2.2612	58.6655
2.2553	58.7721
2.2494	59.6623
2.2435	60.5776
2.2377	61.985
2.232	63.4007
2.2262	64.5361
2.2205	65.004
2.2148	65.8567
2.2091	66.5053
2.2035	67.2167
2.1979	67.6067
2.1923	68.2326
2.1868	68.6439
2.1812	69.1784
2.1758	69.4568
2.1703	69.9356
2.1649	70.4359
2.1595	70.5408
2.1541	70.8472
2.1487	70.9857
2.1434	71.243
2.1381	71.6363
2.1328	71.7667
2.1275	71.7626
2.1223	71.9415
2.1171	72.1215
2.112	71.934
2.1068	72.4841
2.1017	72.3725
2.0966	72.3529
2.0915	72.4494
2.0865	72.2911
2.0814	72.6248
2.0764	72.5821
2.0715	72.3446
2.0665	72.3112
2.0616	72.1021
2.0567	71.9979
2.0518	72.0618
2.0469	72.1924
2.0421	72.1021
2.0373	72.4704
2.0325	72.4288
2.0277	72.377
2.0229	72.1518
2.0182	72.5606
2.0135	72.7224
2.0088	72.7836
2.0042	72.6769
