Name: Glauconite (K,Na)(Fe^3+,Al,Mg)_2(Si,Al)_4O_10(OH)_2
Type: Mineral
Class: Silicate
Subclass: Phyllosilicate
Particle Size: Coarse
Sample No.: PS-19A
Owner: JPL
Wavelength Range: VSWIR
Origin: USA, New Jersey.
Description: Particle size was 125-500um. Collected by:  Ward's Original ASTER Spectral Library name was jpl.perkin.mineral.silicate.phyllosilicate.coarse.ps19a.spectrum.txt
Measurement: Hemispherical reflectance
X Units: Wavelength (micrometers)
Y Units: Reflectance (percent)
wavelength	value
2.5	8.1417
2.494	8.4316
2.488	8.4339
2.482	8.6765
2.476	8.7139
2.47	8.9369
2.464	9.1562
2.458	9.2837
2.452	9.4941
2.446	9.6191
2.44	9.9704
2.434	10.1595
2.428	10.4044
2.422	10.5907
2.416	10.8338
2.41	10.8841
2.404	10.8157
2.398	10.6874
2.392	10.3038
2.386	9.9505
2.38	9.4786
2.374	9.1568
2.368	8.8513
2.362	8.7517
2.356	8.879
2.35	9.1539
2.344	9.4058
2.338	9.5515
2.332	9.4922
2.326	9.1905
2.32	8.6071
2.314	8.1966
2.308	8.0234
2.302	8.3665
2.296	8.949
2.29	9.8222
2.284	10.651
2.278	11.2891
2.272	11.4512
2.266	11.3917
2.26	11.2719
2.254	11.2509
2.248	11.3312
2.242	11.6388
2.236	11.8883
2.23	12.2469
2.224	12.5063
2.218	12.7851
2.212	12.9456
2.206	12.9287
2.2	12.9694
2.194	13.0217
2.188	13.1028
2.182	13.1287
2.176	13.153
2.17	13.1819
2.164	13.1347
2.158	13.0697
2.152	12.975
2.146	12.894
2.14	12.7951
2.134	12.7209
2.128	12.6051
2.122	12.3713
2.116	12.2388
2.11	12.012
2.104	11.8121
2.098	11.6253
2.092	11.4985
2.086	11.2791
2.08	11.1375
2.074	10.9729
2.068	10.7987
2.062	10.6185
2.056	10.4155
2.05	10.236
2.044	10.0232
2.038	9.8396
2.032	9.655
2.026	9.4592
2.02	9.1826
2.014	9.008
2.008	8.7566
2.002	8.5112
1.996	8.368
1.99	8.1068
1.984	7.9793
1.978	7.6822
1.972	7.5044
1.966	7.3592
1.96	7.1776
1.954	7.0957
1.948	6.8344
1.942	6.7772
1.936	6.5033
1.93	6.4503
1.924	6.2907
1.918	6.0106
1.912	5.731
1.906	5.7028
1.9	5.9145
1.894	6.2329
1.888	6.5813
1.882	6.6319
1.876	6.6924
1.87	6.6022
1.864	6.6542
1.858	6.5633
1.852	6.4284
1.846	6.3936
1.84	6.2489
1.834	6.1751
1.828	6.0158
1.822	5.9031
1.816	5.8336
1.81	5.6681
1.804	5.6236
1.798	5.4916
1.792	5.4329
1.786	5.3814
1.78	5.2391
1.774	5.1515
1.768	5.0687
1.762	4.9651
1.756	4.8982
1.75	4.8402
1.744	4.77
1.738	4.7205
1.732	4.6468
1.726	4.5484
1.72	4.4278
1.714	4.366
1.708	4.3924
1.702	4.2602
1.696	4.2802
1.69	4.1067
1.684	4.1433
1.678	4.0747
1.672	3.9928
1.666	3.9141
1.66	3.8496
1.654	3.8864
1.648	3.7116
1.642	3.8284
1.636	3.6883
1.63	3.6269
1.624	3.5819
1.618	3.5334
1.612	3.5793
1.606	3.4735
1.6	3.4911
1.594	3.4558
1.588	3.4199
1.582	3.3769
1.576	3.3227
1.57	3.3401
1.564	3.2414
1.558	3.268
1.552	3.2342
1.546	3.1782
1.54	3.1653
1.534	3.1754
1.528	3.1452
1.522	3.1437
1.516	3.0806
1.51	3.0949
1.504	2.9996
1.498	3.0399
1.492	2.9973
1.486	3.0544
1.48	3.0293
1.474	3.0242
1.468	2.9581
1.462	2.9375
1.456	2.9435
1.45	2.9233
1.444	2.8608
1.438	2.912
1.432	2.8813
1.426	2.9052
1.42	2.8835
1.414	2.8507
1.408	2.956
1.402	2.8363
1.396	2.9348
1.39	2.9024
1.384	2.8781
1.378	2.9336
1.372	2.8436
1.366	2.824
1.36	2.8384
1.354	2.7889
1.348	2.8007
1.342	2.871
1.336	2.8549
1.33	2.7709
1.324	2.8161
1.318	2.8076
1.312	2.7151
1.306	2.74
1.3	2.7511
1.294	2.7633
1.288	2.7529
1.282	2.7495
1.276	2.7259
1.27	2.6851
1.264	2.7467
1.258	2.7066
1.252	2.7029
1.246	2.6702
1.24	2.7207
1.234	2.6532
1.228	2.6939
1.222	2.6969
1.216	2.7261
1.21	2.7476
1.204	2.7099
1.198	2.6556
1.192	2.652
1.186	2.6589
1.18	2.716
1.174	2.6699
1.168	2.729
1.162	2.7083
1.156	2.6898
1.15	2.7214
1.144	2.6918
1.138	2.7449
1.132	2.7537
1.126	2.7694
1.12	2.6858
1.114	2.7195
1.108	2.695
1.102	2.8329
1.096	2.7152
1.09	2.7748
1.084	2.8303
1.078	2.8018
1.072	2.8852
1.066	2.8318
1.06	2.8771
1.054	2.9257
1.048	3.033
1.042	3.052
1.036	3.0387
1.03	3.0475
1.024	3.0537
1.018	3.0136
1.012	3.0337
1.006	3.1085
1	3.1235
0.994	3.1147
0.988	3.1626
0.982	3.1619
0.976	3.1919
0.97	3.2076
0.964	3.2193
0.958	3.2164
0.952	3.3026
0.946	3.3156
0.94	3.317
0.934	3.4145
0.928	3.4158
0.922	3.4121
0.916	3.4944
0.91	3.5184
0.904	3.6022
0.898	3.6364
0.892	3.6472
0.886	3.7149
0.88	3.7769
0.874	3.8149
0.868	3.826
0.862	3.8715
0.856	4.1438
0.85	4.1739
0.844	4.1899
0.838	4.2191
0.832	4.2384
0.826	4.2515
0.82	4.2704
0.814	4.2876
0.808	4.2921
0.802	4.3111
0.796	4.3235
0.79	4.3414
0.784	4.3585
0.778	4.3739
0.772	4.3932
0.766	4.4273
0.76	4.458
0.754	4.4996
0.748	4.5425
0.742	4.5872
0.736	4.6416
0.73	4.7036
0.724	4.7796
0.718	4.8534
0.712	4.9322
0.706	5.0207
0.7	5.1174
0.694	5.2203
0.688	5.3226
0.682	5.4303
0.676	5.5405
0.67	5.6575
0.664	5.7841
0.658	5.9091
0.652	6.0438
0.646	6.1815
0.64	6.3214
0.634	6.4763
0.628	6.6364
0.622	6.8051
0.616	6.9849
0.61	7.1682
0.604	7.3635
0.598	7.5695
0.592	7.7814
0.586	7.9953
0.58	8.2088
0.574	8.4148
0.568	8.6
0.562	8.7594
0.556	8.9014
0.55	9.0047
0.544	9.0904
0.538	9.147
0.532	9.1519
0.526	9.1253
0.52	9.1026
0.514	9.094
0.508	9.0698
0.502	9.0335
0.496	9.0014
0.49	8.9806
0.484	8.9226
0.478	8.8018
0.472	8.6581
0.466	8.4974
0.46	8.3618
0.454	8.2565
0.448	8.1878
0.442	8.1828
0.436	8.1715
0.43	8.132
0.424	8.0754
0.418	8.0122
0.412	7.9407
0.406	7.8842
0.4	7.8297
