Name: Nontronite Na_0.33Fe_2^3+(Si,Al)_4O_10(OH)_2.H_2O
Type: Mineral
Class: Silicate
Subclass: Phyllosilicate
Particle Size: Fine
Sample No.: PS-6A
Owner: JPL
Wavelength Range: TIR
Origin: USA, Pennsylvania
Description: Particle size was 0-45um.Collected by Ward's Original ASTER Spectral Library name was jpl.nicolet.mineral.silicate.phyllosilicate.fine.ps06a.spectrum.txt
Measurement: Hemispherical reflectance
X Units: Wavelength (micrometers)
Y Units: Reflectance (percent)
wavelength	value
15.3853	1.148
15.1161	0.9858
14.8563	1.0057
14.6052	1.027
14.3624	1.0256
14.1276	1.0797
13.9004	1.2878
13.6803	1.5155
13.4671	1.6583
13.2604	1.5451
13.06	1.6008
12.8656	1.6903
12.6769	1.7998
12.4936	2.1629
12.3155	1.7834
12.1425	1.5028
11.9742	1.6217
11.8106	1.7978
11.6513	1.976
11.4963	2.3188
11.3454	2.6434
11.1983	2.8164
11.0551	2.5294
10.9154	2.1893
10.7793	2.4098
10.6465	2.4046
10.5169	2.6835
10.3904	2.601
10.267	2.5534
10.1464	2.6287
10.0287	2.7674
9.9136	3.3087
9.8012	3.3209
9.6913	3.6033
9.5838	4.167
9.4787	3.987
9.3758	3.1564
9.2752	2.5195
9.1767	2.0137
9.0803	1.8256
8.9858	1.5683
8.8934	1.6422
8.8028	1.1708
8.714	1.0139
8.627	0.6982
8.5417	0.9393
8.4581	1.007
8.3761	1.1689
8.2957	1.6822
8.2169	1.8516
8.1395	2.2645
8.0635	2.8945
7.989	3.259
7.9158	3.704
7.8439	4.1571
7.7734	4.9894
7.7041	5.3418
7.636	5.8759
7.5691	6.3277
7.5034	6.7205
7.4388	7.0598
7.3753	7.5012
7.3129	7.8773
7.2515	8.3801
7.1912	8.7669
7.1318	9.2228
7.0734	9.6891
7.016	10.0537
6.9595	10.2362
6.9039	10.7658
6.8492	10.8397
6.7953	11.0417
6.7423	11.5694
6.6901	11.5676
6.6387	11.1393
6.5881	11.5885
6.5382	11.7103
6.4892	10.7763
6.4408	10.9426
6.3931	10.2989
6.3462	9.0485
6.2999	8.0579
6.2543	6.2413
6.2094	4.2694
6.1651	2.8803
6.1214	2.2472
6.0784	2.3235
6.0359	2.7974
5.994	3.1776
5.9527	4.1754
5.912	5.4408
5.8718	7.2276
5.8322	9.4017
5.7931	11.7169
5.7545	13.4353
5.7165	14.6152
5.6789	15.7971
5.6418	16.1588
5.6052	17.0423
5.5691	17.3587
5.5334	17.7954
5.4982	18.4009
5.4635	18.8927
5.4291	19.9967
5.3952	20.7131
5.3618	21.216
5.3287	21.7717
5.2961	21.9591
5.2638	22.3078
5.2319	22.5902
5.2004	22.8932
5.1693	23.3916
5.1386	23.8945
5.1082	24.3158
5.0782	24.6541
5.0485	24.8062
5.0192	24.8526
4.9902	25.0459
4.9616	24.9805
4.9332	25.0628
4.9052	25.1522
4.8776	25.2784
4.8502	25.5151
4.8231	25.6821
4.7963	25.7632
4.7699	26.0641
4.7437	26.2566
4.7178	26.418
4.6922	26.6166
4.6668	26.7433
4.6418	27.0227
4.617	27.1475
4.5924	27.3993
4.5681	27.5997
4.5441	27.7713
4.5203	27.962
4.4968	28.135
4.4735	28.2181
4.4505	28.3178
4.4277	28.4628
4.4051	28.6514
4.3828	28.7387
4.3607	28.8348
4.3388	28.9727
4.3171	28.9771
4.2956	28.9473
4.2744	28.8021
4.2534	29.1806
4.2325	28.9384
4.2119	29.3117
4.1915	29.5874
4.1712	29.8228
4.1512	29.974
4.1313	29.9819
4.1117	30.2345
4.0922	30.2863
4.0729	30.6192
4.0538	30.7952
4.0349	31.0607
4.0161	31.1056
3.9976	31.5488
3.9792	31.6708
3.9609	32.0315
3.9428	32.1028
3.9249	32.2255
3.9072	32.3598
3.8896	32.2212
3.8722	32.2594
3.8549	31.8435
3.8378	31.6853
3.8208	31.5318
3.804	31.0077
3.7873	30.4682
3.7708	30.1837
3.7544	29.6204
3.7382	29.0475
3.7221	28.2527
3.7061	27.5685
3.6903	26.7782
3.6746	25.9169
3.659	25.1906
3.6436	24.4437
3.6283	23.5542
3.6131	22.7216
3.5981	21.9291
3.5832	21.1778
3.5684	20.2849
3.5537	19.3978
3.5391	18.5752
3.5247	17.7056
3.5104	16.9508
3.4962	16.212
3.4821	15.3604
3.4681	14.5691
3.4543	13.8202
3.4405	13.123
3.4269	12.3281
3.4133	11.5387
3.3999	10.9276
3.3866	10.1159
3.3733	9.6005
3.3602	9.0768
3.3472	8.391
3.3343	7.9822
3.3215	7.5217
3.3088	6.815
3.2961	6.5242
3.2836	5.955
3.2712	5.7275
3.2588	5.2386
3.2466	4.9317
3.2345	4.5938
3.2224	4.181
3.2104	3.9985
3.1985	3.5367
3.1867	3.6554
3.175	3.2801
3.1634	3.1123
3.1519	3.0044
3.1404	2.8438
3.129	2.7254
3.1178	2.6839
3.1065	2.3055
3.0954	2.4186
3.0844	2.4623
3.0734	2.2111
3.0625	2.3024
3.0517	2.2004
3.041	2.0884
3.0303	2.2529
3.0197	2.0911
3.0092	2.0895
2.9987	2.0777
2.9884	2.0033
2.9781	1.892
2.9678	1.5952
2.9577	1.883
2.9476	1.7174
2.9376	1.8489
2.9276	1.8062
2.9177	1.747
2.9079	1.9715
2.8982	1.7529
2.8885	1.8635
2.8789	2.0373
2.8693	2.0984
2.8598	2.1439
2.8504	2.2625
2.841	2.3412
2.8317	2.4644
2.8224	2.2148
2.8133	1.6894
2.8041	1.2
2.7951	1.1922
2.786	1.245
2.7771	1.9506
2.7682	1.7907
2.7594	1.6816
2.7506	2.1633
2.7418	2.6754
2.7332	4.053
2.7246	5.4143
2.716	7.268
2.7075	7.6002
2.699	5.684
2.6906	13.7634
2.6823	23.8918
2.674	29.271
2.6657	31.6014
2.6575	35.7537
2.6494	38.0529
2.6413	39.7154
2.6332	40.7934
2.6252	42.0939
2.6173	41.8837
2.6094	43.585
2.6015	44.087
2.5937	43.3356
2.5859	45.124
2.5782	45.6669
2.5706	45.9684
2.5629	45.481
2.5554	46.5264
2.5478	46.2471
2.5403	46.5308
2.5329	46.5292
2.5255	46.9497
2.5181	47.0065
2.5108	47.0644
2.5035	47.3857
2.4963	48.0627
2.4891	48.9694
2.482	50.1891
2.4749	51.1861
2.4678	52.2287
2.4608	53.099
2.4538	53.866
2.4468	54.4085
2.4399	54.8754
2.4331	55.3168
2.4262	55.9126
2.4194	56.1851
2.4127	55.9628
2.4059	55.5862
2.3993	55.872
2.3926	56.9736
2.386	58.575
2.3795	59.9174
2.3729	61.7505
2.3664	62.7848
2.36	63.6698
2.3535	64.3204
2.3471	65.2878
2.3408	66.0256
2.3345	66.5074
2.3282	66.9346
2.3219	66.9651
2.3157	66.8511
2.3095	65.7604
2.3034	63.2392
2.2972	59.5562
2.2911	56.1482
2.2851	55.6092
2.279	58.3508
2.2731	62.4604
2.2671	66.677
2.2612	70.054
2.2553	71.6381
2.2494	72.4025
2.2435	72.8637
2.2377	72.8738
2.232	73.1646
2.2262	73.6006
2.2205	73.3187
2.2148	72.6996
2.2091	70.5476
2.2035	70.5486
2.1979	71.7922
2.1923	72.6584
2.1868	73.4189
2.1812	73.7577
2.1758	74.1198
2.1703	74.0891
2.1649	73.9472
2.1595	74.0913
2.1541	74.3688
2.1487	74.6334
2.1434	74.8415
2.1381	75.0592
2.1328	74.8506
2.1275	75.1868
2.1223	74.9707
2.1171	74.7867
2.112	74.7715
2.1068	74.5434
2.1017	74.3926
2.0966	74.3746
2.0915	74.3059
2.0865	74.0803
2.0814	73.9368
2.0764	73.4839
2.0715	73.408
2.0665	73.2026
2.0616	72.9967
2.0567	72.5879
2.0518	71.9783
2.0469	71.9303
2.0421	71.3985
2.0373	70.9915
2.0325	70.4764
2.0277	70.1986
2.0229	69.4687
2.0182	69.316
2.0135	68.4055
2.0088	67.89
2.0042	67.3544
