Name: Almandine Garnet Fe_3Al_2(SiO_4)_3
Type: Mineral
Class: Silicate
Subclass: Nesosilicate
Particle Size: Medium
Sample No.: NS-4A
Owner: JPL
Wavelength Range: VSWIR
Origin: USA, Arizona, Graham County, Stanley Butte
Description: Particle size was 45-125um.Collected by Burminco Original ASTER Spectral Library name was jpl.beckman.mineral.silicate.nesosilicate.medium.ns04a.spectrum.txt
Measurement: Hemispherical reflectance
X Units: Wavelength (micrometers)
Y Units: Reflectance (percent)
wavelength	value
0.4	24.13
0.403	24.12
0.406	24.45
0.409	24.46
0.412	24.55
0.415	24.43
0.418	24.29
0.421	24.37
0.424	24.11
0.427	24.26
0.43	24.5
0.433	24.81
0.436	25.07
0.439	25.37
0.442	25.69
0.445	25.69
0.448	25.8
0.451	25.95
0.454	25.89
0.457	25.89
0.46	25.92
0.463	26.05
0.466	26.12
0.469	26.07
0.472	26.28
0.475	26.33
0.478	26.51
0.481	26.36
0.484	26.31
0.487	26.24
0.49	25.89
0.493	25.65
0.496	25.48
0.499	25.44
0.502	25.46
0.505	25.64
0.508	26.33
0.511	26.88
0.514	27.05
0.517	27.44
0.52	27.65
0.523	28.06
0.526	28.37
0.529	28.85
0.532	29.47
0.535	29.92
0.538	30.41
0.541	30.95
0.544	31.41
0.547	31.76
0.55	31.76
0.553	32.24
0.556	32.17
0.559	32.1
0.562	32.24
0.565	32.16
0.568	32.18
0.571	32.36
0.574	32.56
0.577	33.15
0.58	33.74
0.583	34.33
0.586	34.98
0.589	35.63
0.592	36.15
0.595	36.61
0.598	36.86
0.601	37.13
0.604	37.5
0.607	37.49
0.61	37.93
0.613	38.17
0.616	38.48
0.619	38.74
0.622	39.14
0.625	39.63
0.628	40.02
0.631	40.18
0.634	40.72
0.637	41.11
0.64	41.32
0.643	41.56
0.646	41.65
0.649	41.92
0.652	42.01
0.655	41.94
0.658	42.05
0.661	42.22
0.664	42.19
0.667	42.03
0.67	42.11
0.673	42.03
0.676	41.86
0.679	42.06
0.682	42.09
0.685	42.16
0.688	41.97
0.691	42.06
0.694	42.18
0.697	42.11
0.7	42.06
0.703	42.52
0.706	42.49
0.709	42.65
0.712	43.12
0.715	43.12
0.718	43.38
0.721	43.64
0.724	43.87
0.727	43.93
0.73	44.21
0.733	44.59
0.736	44.67
0.739	44.87
0.742	45.16
0.745	45.31
0.748	45.48
0.751	45.56
0.754	45.84
0.757	45.99
0.76	46.05
0.763	46.16
0.766	46.42
0.769	46.57
0.772	46.45
0.775	46.8
0.778	46.91
0.781	46.83
0.784	46.97
0.787	47.03
0.79	47.25
0.793	47.2
0.796	47.33
0.799	47.54
0.808	47.85
0.82	47.85
0.832	47.91
0.844	48.03
0.856	47.97
0.868	48.06
0.88	48.03
0.892	47.95
0.904	47.92
0.916	47.86
0.928	47.68
0.94	47.53
0.952	47.38
0.964	47.03
0.976	46.61
0.988	46.04
1	45.45
1.012	44.46
1.024	43.5
1.036	42.38
1.048	41.08
1.06	39.72
1.072	38.35
1.084	36.87
1.096	35.34
1.108	33.79
1.12	32.31
1.132	30.88
1.144	29.44
1.156	28.09
1.168	26.9
1.18	25.74
1.192	24.75
1.204	23.89
1.216	23.12
1.228	22.44
1.24	21.96
1.252	21.58
1.264	21.32
1.276	21.19
1.288	21.21
1.3	21.22
1.312	21.42
1.324	21.74
1.336	22.22
1.348	22.75
1.36	23.37
1.372	23.94
1.384	24.61
1.396	25.2
1.408	25.96
1.42	26.58
1.432	27.17
1.444	27.71
1.456	28.16
1.468	28.41
1.48	28.59
1.492	28.72
1.504	28.91
1.516	28.88
1.528	28.78
1.54	28.74
1.552	28.49
1.564	28.26
1.576	28.15
1.588	27.94
1.6	27.8
1.612	27.69
1.624	27.56
1.636	27.41
1.648	27.28
1.66	27.29
1.672	27.28
1.684	27.29
1.696	27.48
1.708	27.59
1.72	27.66
1.732	27.85
1.744	28.07
1.756	28.32
1.768	28.6
1.78	28.84
1.792	29.12
1.804	29.36
1.816	29.68
1.828	29.99
1.84	30.23
1.852	30.45
1.864	30.67
1.876	30.92
1.888	31.03
1.9	31.19
1.912	31.41
1.924	31.4
1.936	31.55
1.948	31.62
1.96	31.72
1.972	31.67
1.984	31.68
1.996	31.69
2.008	31.68
2.02	31.69
2.032	31.58
2.044	31.51
2.056	31.39
2.068	31.32
2.08	31.2
2.092	31.06
2.104	30.94
2.116	30.9
2.128	30.72
2.14	30.65
2.152	30.45
2.164	30.3
2.176	30.09
2.188	29.89
2.2	29.8
2.212	29.66
2.224	29.68
2.236	29.57
2.248	29.5
2.26	29.4
2.272	29.49
2.284	29.5
2.296	29.46
2.308	29.48
2.32	29.58
2.332	29.68
2.344	29.8
2.356	29.97
2.368	30.08
2.38	30.35
2.392	30.37
2.404	30.63
2.416	30.82
2.428	31.11
2.44	31.32
2.452	31.63
2.464	31.9
2.476	32.05
2.488	32.47
2.5	32.95
