Name: Hemimorphite Zn_4Si_2O_7(OH)_2.H_2O
Type: Mineral
Class: Silicate
Subclass: Sorosilicate
Particle Size: Medium
Sample No.: SS-2A
Owner: JPL
Wavelength Range: TIR
Origin: Mexico, Durango, Ojuela Mine
Description: Particle size was 45-125um.Collected by Burminco Original ASTER Spectral Library name was jpl.nicolet.mineral.silicate.sorosilicate.medium.ss02a.spectrum.txt
Measurement: Hemispherical reflectance
X Units: Wavelength (micrometers)
Y Units: Reflectance (percent)
wavelength	value
15.3853	1.8055
15.1161	2.8567
14.8563	4.528
14.6052	3.1875
14.3624	1.7937
14.1276	1.8145
13.9004	1.927
13.6803	2.5356
13.4671	2.6207
13.2604	2.8833
13.06	3.1019
12.8656	3.5599
12.6769	3.8733
12.4936	4.0217
12.3155	4.5907
12.1425	4.6484
11.9742	5.5379
11.8106	6.415
11.6513	9.5145
11.4963	13.7892
11.3454	7.1179
11.1983	5.6601
11.0551	7.9986
10.9154	12.0409
10.7793	21.7234
10.6465	24.6433
10.5169	20.1531
10.3904	21.4184
10.267	22.5323
10.1464	20.5513
10.0287	15.174
9.9136	6.3319
9.8012	2.585
9.6913	1.5524
9.5838	1.1838
9.4787	1.3316
9.3758	1.8931
9.2752	3.7613
9.1767	7.4483
9.0803	10.3106
8.9858	8.147
8.8934	2.2122
8.8028	0.8312
8.714	0.8751
8.627	0.8655
8.5417	1.1009
8.4581	1.3211
8.3761	1.5676
8.2957	1.8562
8.2169	1.9602
8.1395	2.3254
8.0635	2.8083
7.989	3.0173
7.9158	3.5417
7.8439	4.1365
7.7734	4.5651
7.7041	5.2112
7.636	5.8379
7.5691	6.6192
7.5034	7.2815
7.4388	7.7384
7.3753	7.596
7.3129	7.1848
7.2515	7.1615
7.1912	8.0119
7.1318	8.842
7.0734	9.2209
7.016	9.3137
6.9595	9.3896
6.9039	8.9919
6.8492	9.1405
6.7953	9.491
6.7423	9.5567
6.6901	9.6855
6.6387	9.8522
6.5881	9.0069
6.5382	7.6323
6.4892	6.5646
6.4408	6.2382
6.3931	6.6829
6.3462	7.2096
6.2999	6.3605
6.2543	5.2634
6.2094	4.1381
6.1651	3.377
6.1214	3.1675
6.0784	2.4317
6.0359	3.1022
5.994	4.6094
5.9527	6.1488
5.912	7.7238
5.8718	8.939
5.8322	9.7544
5.7931	9.9654
5.7545	9.8749
5.7165	8.5542
5.6789	6.7921
5.6418	7.1401
5.6052	6.4733
5.5691	6.1208
5.5334	7.2062
5.4982	8.0828
5.4635	8.2878
5.4291	7.9673
5.3952	6.9485
5.3618	6.5945
5.3287	6.5919
5.2961	6.5529
5.2638	6.6573
5.2319	6.6448
5.2004	7.1222
5.1693	7.3739
5.1386	8.0397
5.1082	8.4864
5.0782	8.8597
5.0485	9.0869
5.0192	9.1956
4.9902	8.7885
4.9616	8.5123
4.9332	8.7423
4.9052	9.138
4.8776	9.6035
4.8502	10.1924
4.8231	10.7298
4.7963	11.6888
4.7699	12.6355
4.7437	13.5963
4.7178	14.6212
4.6922	15.7481
4.6668	16.9305
4.6418	18.3357
4.617	19.9791
4.5924	21.2443
4.5681	22.7325
4.5441	23.9971
4.5203	25.3279
4.4968	26.6515
4.4735	27.8804
4.4505	29.3292
4.4277	30.7085
4.4051	32.2094
4.3828	33.2997
4.3607	34.6691
4.3388	35.5618
4.3171	36.6086
4.2956	37.7318
4.2744	38.7665
4.2534	39.4183
4.2325	40.671
4.2119	41.0871
4.1915	41.5855
4.1712	42.2188
4.1512	42.8648
4.1313	43.4078
4.1117	43.6952
4.0922	44.0433
4.0729	44.4245
4.0538	44.6329
4.0349	44.307
4.0161	44.1144
3.9976	43.8507
3.9792	43.8335
3.9609	44.1255
3.9428	44.893
3.9249	45.2083
3.9072	45.4744
3.8896	45.4547
3.8722	45.6316
3.8549	45.7536
3.8378	46.0151
3.8208	46.5891
3.804	47.3874
3.7873	48.131
3.7708	48.2819
3.7544	48.2485
3.7382	47.979
3.7221	47.7264
3.7061	47.3863
3.6903	46.8016
3.6746	46.457
3.659	46.1386
3.6436	45.7143
3.6283	45.1881
3.6131	44.5959
3.5981	43.7345
3.5832	43.0102
3.5684	42.0804
3.5537	41.2735
3.5391	40.0958
3.5247	38.6248
3.5104	37.1714
3.4962	35.918
3.4821	34.7597
3.4681	33.9257
3.4543	33.0884
3.4405	31.8593
3.4269	30.5987
3.4133	29.1343
3.3999	27.7274
3.3866	26.3921
3.3733	24.857
3.3602	23.4466
3.3472	21.917
3.3343	21.0211
3.3215	19.6914
3.3088	18.306
3.2961	17.1038
3.2836	15.7168
3.2712	14.5092
3.2588	13.4307
3.2466	12.4462
3.2345	11.2522
3.2224	10.3371
3.2104	9.5303
3.1985	8.6056
3.1867	7.9264
3.175	7.1091
3.1634	6.7238
3.1519	5.9686
3.1404	5.7551
3.129	5.3842
3.1178	5.0817
3.1065	4.6251
3.0954	4.4668
3.0844	4.273
3.0734	4.2178
3.0625	3.9579
3.0517	3.7704
3.041	3.7374
3.0303	3.7496
3.0197	3.5405
3.0092	3.3197
2.9987	3.3231
2.9884	3.2283
2.9781	3.1428
2.9678	3.3331
2.9577	2.9449
2.9476	3.0171
2.9376	3.0551
2.9276	2.9545
2.9177	2.7811
2.9079	2.6521
2.8982	2.8569
2.8885	2.5758
2.8789	2.6792
2.8693	2.6414
2.8598	2.5904
2.8504	2.5882
2.841	2.5314
2.8317	2.6512
2.8224	2.5443
2.8133	2.4204
2.8041	2.4151
2.7951	2.7106
2.786	2.3184
2.7771	2.6388
2.7682	2.419
2.7594	2.368
2.7506	2.4585
2.7418	2.9039
2.7332	3.246
2.7246	3.7414
2.716	4.0767
2.7075	4.8475
2.699	5.7063
2.6906	6.5576
2.6823	7.6981
2.674	8.5561
2.6657	9.892
2.6575	10.3667
2.6494	11.2605
2.6413	12.144
2.6332	12.9177
2.6252	13.4397
2.6173	14.512
2.6094	14.7483
2.6015	15.5666
2.5937	16.5996
2.5859	16.8332
2.5782	17.3844
2.5706	18.1428
2.5629	18.9583
2.5554	19.2887
2.5478	20.1541
2.5403	20.6784
2.5329	21.4157
2.5255	22.2782
2.5181	23.0445
2.5108	24.0262
2.5035	25.2054
2.4963	26.2882
2.4891	27.3416
2.482	28.3868
2.4749	29.4369
2.4678	30.2648
2.4608	31.1167
2.4538	31.89
2.4468	32.2712
2.4399	32.9483
2.4331	33.5934
2.4262	34.2483
2.4194	34.8518
2.4127	35.6379
2.4059	36.3584
2.3993	37.1791
2.3926	37.9772
2.386	38.7979
2.3795	39.7106
2.3729	41.0955
2.3664	42.6404
2.36	44.6043
2.3535	46.8378
2.3471	48.5937
2.3408	50.6565
2.3345	52.2625
2.3282	53.6238
2.3219	54.7862
2.3157	55.556
2.3095	56.2945
2.3034	57.0325
2.2972	57.4367
2.2911	57.4678
2.2851	57.8446
2.279	58.0584
2.2731	58.0039
2.2671	57.8878
2.2612	57.7089
2.2553	57.4404
2.2494	57.1355
2.2435	56.3869
2.2377	55.958
2.232	55.5024
2.2262	55.0637
2.2205	54.8394
2.2148	55.1842
2.2091	55.4117
2.2035	55.9351
2.1979	56.5154
2.1923	57.5746
2.1868	58.4023
2.1812	59.5541
2.1758	60.4127
2.1703	61.2522
2.1649	62.132
2.1595	62.7695
2.1541	63.4968
2.1487	64.2054
2.1434	64.9859
2.1381	65.4747
2.1328	66.0473
2.1275	66.5938
2.1223	67.094
2.1171	67.4002
2.112	67.7318
2.1068	68.2092
2.1017	68.2744
2.0966	68.5306
2.0915	68.6804
2.0865	68.6902
2.0814	68.4287
2.0764	68.3946
2.0715	68.2634
2.0665	68.2173
2.0616	67.9208
2.0567	68.0002
2.0518	67.4671
2.0469	67.0058
2.0421	66.5879
2.0373	66.0528
2.0325	64.8852
2.0277	64.4207
2.0229	63.6784
2.0182	62.7793
2.0135	61.4593
2.0088	60.6214
2.0042	59.2055
