Name: Scheelite CaWO_4
Type: Mineral
Class: Tungstate
Subclass: None
Particle Size: Fine
Sample No.: T-1A
Owner: JPL
Wavelength Range: VSWIR
Origin: USA, California, Kern County, Atolia
Description: Particle size was 0-45um.Collected by Burminco Original ASTER Spectral Library name was jpl.beckman.mineral.tungstate.none.fine.t01a.spectrum.txt
Measurement: Hemispherical reflectance
X Units: Wavelength (micrometers)
Y Units: Reflectance (percent)
wavelength	value
0.4	51.14
0.403	51.65
0.406	52.05
0.409	52.33
0.412	52.72
0.415	53.04
0.418	53.26
0.421	53.75
0.424	54.32
0.427	54.58
0.43	55.08
0.433	55.38
0.436	56.15
0.439	56.46
0.442	56.89
0.445	57.28
0.448	57.5
0.451	57.87
0.454	58.06
0.457	58.29
0.46	58.46
0.463	58.79
0.466	58.72
0.469	59.04
0.472	59.32
0.475	59.48
0.478	59.66
0.481	59.86
0.484	60.23
0.487	60.32
0.49	60.68
0.493	60.96
0.496	61.17
0.499	61.58
0.502	61.86
0.505	62.29
0.508	62.66
0.511	63.06
0.514	63.35
0.517	63.84
0.52	64.19
0.523	64.63
0.526	65.04
0.529	65.44
0.532	65.79
0.535	66.11
0.538	66.59
0.541	66.9
0.544	67.2
0.547	67.69
0.55	68.01
0.553	68.44
0.556	68.64
0.559	68.84
0.562	69.51
0.565	69.83
0.568	70.15
0.571	70.11
0.574	70.31
0.577	70.46
0.58	70.64
0.583	70.91
0.586	70.95
0.589	71.1
0.592	71.24
0.595	71.47
0.598	71.62
0.601	71.63
0.604	71.9
0.607	72.02
0.61	72.16
0.613	72.23
0.616	72.2
0.619	72.24
0.622	72.33
0.625	72.42
0.628	72.6
0.631	72.51
0.634	72.62
0.637	72.55
0.64	72.78
0.643	72.95
0.646	72.82
0.649	72.94
0.652	73.07
0.655	73.23
0.658	73.34
0.661	73.19
0.664	73.35
0.667	73.43
0.67	73.67
0.673	73.72
0.676	73.61
0.679	73.66
0.682	73.79
0.685	73.81
0.688	74.1
0.691	74.03
0.694	74.02
0.697	74.13
0.7	74.17
0.703	74.37
0.706	74.41
0.709	74.42
0.712	74.46
0.715	74.65
0.718	74.65
0.721	74.75
0.724	74.71
0.727	74.94
0.73	74.89
0.733	75
0.736	75.03
0.739	75.01
0.742	75.04
0.745	75.23
0.748	75.32
0.751	75.29
0.754	75.24
0.757	75.21
0.76	75.34
0.763	75.33
0.766	75.38
0.769	75.32
0.772	75.34
0.775	75.54
0.778	75.4
0.781	75.51
0.784	75.53
0.787	75.5
0.79	75.67
0.793	75.53
0.796	75.54
0.799	75.45
0.808	75.82
0.82	75.81
0.832	75.81
0.844	75.84
0.856	75.89
0.868	75.96
0.88	75.92
0.892	75.94
0.904	75.94
0.916	76.03
0.928	76.16
0.94	76.22
0.952	76.31
0.964	76.49
0.976	76.57
0.988	76.73
1	76.7
1.012	76.87
1.024	77.04
1.036	77.25
1.048	77.41
1.06	77.53
1.072	77.66
1.084	77.89
1.096	77.99
1.108	78.16
1.12	78.48
1.132	78.61
1.144	78.69
1.156	78.72
1.168	78.94
1.18	78.97
1.192	79.04
1.204	79.14
1.216	79.17
1.228	79.29
1.24	79.39
1.252	79.41
1.264	79.52
1.276	79.58
1.288	79.7
1.3	79.7
1.312	79.82
1.324	79.88
1.336	79.86
1.348	79.88
1.36	79.92
1.372	79.89
1.384	79.93
1.396	79.73
1.408	79.53
1.42	79.71
1.432	79.83
1.444	79.94
1.456	79.91
1.468	79.98
1.48	80.09
1.492	80.17
1.504	80.18
1.516	80.27
1.528	80.29
1.54	80.34
1.552	80.39
1.564	80.46
1.576	80.45
1.588	80.5
1.6	80.5
1.612	80.61
1.624	80.57
1.636	80.6
1.648	80.64
1.66	80.75
1.672	80.68
1.684	80.66
1.696	80.49
1.708	80.66
1.72	80.61
1.732	80.67
1.744	80.68
1.756	80.48
1.768	80.47
1.78	80.54
1.792	80.67
1.804	80.75
1.816	80.64
1.828	80.6
1.84	80.57
1.852	80.46
1.864	80.51
1.876	80.32
1.888	79.93
1.9	79.41
1.912	79.06
1.924	78.98
1.936	78.93
1.948	79.1
1.96	79.17
1.972	79.41
1.984	79.69
1.996	79.83
2.008	79.98
2.02	80.22
2.032	80.41
2.044	80.55
2.056	80.5
2.068	80.63
2.08	80.67
2.092	80.79
2.104	80.92
2.116	81.01
2.128	81.16
2.14	81.06
2.152	80.8
2.164	80.49
2.176	80.24
2.188	79.96
2.2	79.82
2.212	79.82
2.224	79.99
2.236	80.08
2.248	80.14
2.26	80.12
2.272	79.98
2.284	79.72
2.296	79.54
2.308	79.48
2.32	79.63
2.332	79.54
2.344	79.5
2.356	79.55
2.368	79.45
2.38	79.42
2.392	79.22
2.404	79.14
2.416	79.07
2.428	78.87
2.44	78.71
2.452	78.62
2.464	78.49
2.476	78.48
2.488	78.68
2.5	79
