Name: Hypersthene (Mg,Fe+2)2Si2O6
Type: Mineral
Class: Silicate
Subclass: Inosilicate
Particle Size: Fine
Sample No.: hypersth_1
Owner: JHU
Wavelength Range: TIR
Origin: Western Greenland, via the Smithsonian (sample no. NMNHC2368).
Description: Black in color; a small amount of surface contamination was removed; some mineral inclusions were separated from the remainder of the sample after crushing.  Under the microscope, the sample was green-brown pleochroic, with a high index of refraction.  It appeared mildly altered with some (2%) iron-stained opaque material present. Particle size was Less than 2 micrometer. (Pyroxene Group) Original ASTER Spectral Library name was jhu.nicolet.mineral.silicate.inosilicate.powder.hypers1.spectrum.txt
Measurement: Transmission
X Units: Wavelength (micrometers)
Y Units: Transmittance (percent)
wavelength	value
25.0442	60.7967
24.3388	63.9725
23.6719	63.0643
23.0407	58.0409
22.4422	52.4647
21.8741	51.8866
21.334	55.6639
20.8199	52.621
20.33	46.5985
19.8627	43.1415
19.4163	46.5126
18.9896	52.9842
18.5812	53.3299
18.19	57.3211
17.815	59.5789
17.4551	66.2225
17.1094	73.2195
16.7772	77.992
16.4576	80.7312
16.15	80.2537
15.8537	75.889
15.568	74.8108
15.2925	77.0184
15.0265	80.7361
14.7697	79.7054
14.5214	76.4197
14.2814	80.6697
14.0492	81.449
13.8244	79.3807
13.6067	82.5647
13.3957	80.4475
13.1912	79.8709
12.9929	82.1194
12.8004	81.6717
12.6135	79.0765
12.432	75.3162
12.2557	70.5477
12.0843	64.4007
11.9176	59.4984
11.7555	55.5047
11.5977	53.9418
11.444	52.9379
11.2944	54.0624
11.1487	55.621
11.0067	55.9261
10.8682	50.2806
10.7332	46.6
10.6015	44.9882
10.473	46.2011
10.3476	48.4628
10.2251	54.6131
10.1056	56.8292
9.9887	54.3839
9.8746	52.3768
9.763	50.5526
9.6539	50.7889
9.5472	48.7928
9.4429	47.6986
9.3408	48.766
9.2409	50.4789
9.1431	54.4457
9.0474	59.0057
8.9536	62.4129
8.8618	66.2938
8.7718	69.086
8.6837	72.3797
8.5973	74.6836
8.5126	76.3455
8.4295	77.9812
8.3481	79.4776
8.2682	80.8372
8.1898	82.0389
8.1129	83.1223
8.0374	84.055
7.9634	85.0547
7.8906	85.8203
7.8192	86.3223
7.7491	86.9368
7.6802	87.45
7.6126	87.9766
7.5461	88.4607
7.4807	88.8762
7.4165	89.2207
7.3534	89.5965
7.2914	90.0042
7.2303	90.2385
7.1703	90.9988
7.1113	91.3269
7.0533	91.2976
6.9962	91.6033
6.94	92.0127
6.8847	92.1438
6.8302	92.1963
6.7767	92.2979
6.7239	92.4519
6.672	92.7
6.6209	92.8728
6.5705	93.1162
6.5209	93.134
6.4721	93.2195
6.424	93.3001
6.3766	93.2551
6.3299	93.208
6.2838	93.2449
6.2385	93.3489
6.1937	93.3943
6.1496	93.0342
6.1062	93.0369
6.0633	93.1863
6.0211	93.8848
5.9794	94.6309
5.9383	94.3264
5.8978	94.0486
5.8578	94.0085
5.8184	94.1272
5.7794	94.0906
5.741	94.1436
5.7031	94.0115
5.6657	93.9348
5.6288	93.8916
5.5924	93.8606
5.5564	93.9158
5.5209	93.8377
5.4859	93.7742
5.4513	93.7783
5.4171	93.7688
5.3833	93.7107
5.35	93.6829
5.3171	93.6668
5.2846	93.5254
5.2524	93.4089
5.2207	93.3132
5.1893	93.2463
5.1584	93.2188
5.1277	93.1746
5.0975	93.1502
5.0676	93.113
5.038	93.1462
5.0088	93.0742
4.98	93.0283
4.9514	93.0147
4.9232	92.8943
4.8953	92.8142
4.8678	92.751
4.8405	92.667
4.8135	92.6336
4.7868	92.6189
4.7605	92.5266
4.7344	92.4177
4.7086	92.3623
4.6831	92.242
4.6578	92.2224
4.6328	92.1856
4.6081	92.2539
4.5837	92.0674
4.5595	91.9502
4.5356	91.8381
4.5119	91.7498
4.4884	91.6843
4.4652	91.5769
4.4423	91.4756
4.4196	91.4177
4.3971	91.2859
4.3748	91.2566
4.3528	91.1133
4.331	91.0681
4.3094	90.9619
4.288	90.8438
4.2668	90.7654
4.2458	90.6492
4.2251	90.5774
4.2045	90.4397
4.1841	90.3772
4.164	90.2952
4.144	90.1301
4.1242	90.0906
4.1046	89.9588
4.0852	89.8342
4.066	89.7512
4.047	89.6765
4.0281	89.5916
4.0094	89.4778
3.9909	89.3572
3.9725	89.2302
3.9544	89.1643
3.9363	89.0462
3.9185	88.9636
3.9008	88.9065
3.8833	88.7664
3.8659	88.6653
3.8487	88.6057
3.8316	88.5261
3.8147	88.3753
3.7979	88.3035
3.7813	88.1472
3.7648	88.0535
3.7485	88.0217
3.7323	87.865
3.7162	87.7713
3.7003	87.6394
3.6845	87.5706
3.6689	87.4124
3.6534	87.303
3.638	87.2327
3.6227	87.1101
3.6076	86.9383
3.5926	86.8748
3.5777	86.801
3.563	86.657
3.5484	86.5222
3.5338	86.4158
3.5195	86.18
3.5052	86.0506
3.491	86.0315
3.477	85.8479
3.463	85.7718
3.4492	85.6199
3.4355	85.5652
3.4219	85.323
3.4084	85.1995
3.395	85.2288
3.3817	85.2205
3.3685	85.2132
3.3554	84.9412
3.3425	84.9031
3.3296	84.7757
3.3168	84.6956
3.3041	84.637
3.2915	84.5218
3.279	84.3831
3.2666	84.2776
3.2543	84.137
3.2421	84.0887
3.23	83.949
3.218	83.9178
3.206	83.7425
3.1942	83.659
3.1824	83.5291
3.1707	83.3611
3.1591	83.1917
3.1476	83.0745
3.1362	82.867
3.1249	82.8396
3.1136	82.6643
3.1024	82.387
3.0913	82.137
3.0803	81.9119
3.0694	81.7342
3.0585	81.5564
3.0477	81.428
3.037	81.2537
3.0264	81.0921
3.0158	80.824
3.0053	80.5979
2.9949	80.3025
2.9845	80.0467
2.9743	79.6609
2.9641	79.4617
2.9539	78.9998
2.9439	78.6775
2.9339	78.5379
2.9239	78.3611
2.9141	78.2615
2.9043	78.1414
2.8946	78.1131
2.8849	77.7713
2.8753	77.6687
2.8658	77.6307
2.8563	77.5662
2.8469	77.4969
2.8375	77.5242
2.8282	77.5145
2.819	77.7137
2.8098	77.6385
2.8007	77.618
2.7917	77.6307
2.7827	77.8025
2.7738	77.7869
2.7649	77.8709
2.7561	77.9998
2.7473	77.9852
2.7386	78.0799
2.7299	77.7342
2.7213	77.6893
2.7128	77.8904
2.7043	77.9695
2.6959	77.949
2.6875	77.9783
2.6791	77.8689
2.6709	77.8318
2.6626	77.5721
2.6545	77.5477
2.6463	77.3953
2.6382	77.2674
2.6302	77.1287
2.6222	76.9803
2.6143	76.9021
2.6064	76.8641
2.5986	76.7029
2.5908	76.576
2.583	76.66
2.5753	76.3123
2.5677	76.0701
2.5601	76.1414
2.5525	75.9109
2.545	75.7781
2.5375	75.7654
2.5301	75.4881
2.5227	75.324
2.5154	75.2469
2.5081	75.2225
2.5008	75.0008
2.4936	74.8982
2.4864	74.8748
2.4793	74.5682
2.4722	74.3455
2.4651	74.4217
2.4581	74.4803
2.4511	74.201
2.4442	74.0154
2.4373	73.9022
2.4305	73.7029
2.4236	73.6658
2.4169	73.6209
2.4101	73.4197
2.4034	73.1736
2.3967	73.3201
2.3901	72.9998
2.3835	72.8787
2.377	72.7654
2.3704	72.7733
2.364	72.7811
2.3575	72.5193
2.3511	72.3592
2.3447	72.3553
2.3384	72.1346
2.3321	72.0721
2.3258	72.035
2.3195	71.9803
2.3133	71.8455
2.3071	71.5467
2.301	71.6502
2.2949	71.5018
2.2888	71.4412
2.2828	71.369
2.2767	70.994
2.2708	70.949
2.2648	71.0545
2.2589	70.9022
2.253	70.744
2.2471	70.7186
2.2413	70.5389
2.2355	70.6092
2.2297	70.4393
2.224	70.4139
2.2183	70.4373
2.2126	70.3299
2.207	70.1502
2.2013	69.9002
2.1957	70.0272
2.1902	70.0154
2.1846	69.9158
2.1791	69.6971
2.1736	69.7264
2.1682	69.6346
2.1628	69.744
2.1574	69.6951
2.152	69.4158
2.1466	69.408
2.1413	69.3221
2.136	69.2362
2.1308	69.3377
2.1255	69.4237
2.1203	69.199
2.1151	68.9998
2.11	68.9471
2.1048	68.9061
2.0997	69.2576
2.0946	68.8846
2.0895	69.0018
2.0845	68.867
2.0795	68.867
