Name: Chalcopyrite CuFeS_2
Type: Mineral
Class: Sulfide
Subclass: None
Particle Size: Fine
Sample No.: S-4A
Owner: JPL
Wavelength Range: VSWIR
Origin: Canada, Quebec, Rouyn District
Description: Particle size was 0-45um.Collected by JPL Original ASTER Spectral Library name was jpl.beckman.mineral.sulfide.none.fine.s04a.spectrum.txt
Measurement: Hemispherical reflectance
X Units: Wavelength (micrometers)
Y Units: Reflectance (percent)
wavelength	value
0.4	1.66
0.403	1.74
0.406	1.74
0.409	1.86
0.412	1.67
0.415	1.62
0.418	1.62
0.421	1.73
0.424	1.73
0.427	1.97
0.43	2.09
0.433	2.2
0.436	2.09
0.439	2.09
0.442	2.15
0.445	2.32
0.448	2.44
0.451	2.62
0.454	2.44
0.457	2.49
0.46	2.59
0.463	2.62
0.466	2.86
0.469	2.8
0.472	2.86
0.475	3.1
0.478	3.28
0.481	3.27
0.484	3.43
0.487	3.36
0.49	3.59
0.493	3.62
0.496	3.84
0.499	3.89
0.502	3.94
0.505	3.99
0.508	4.06
0.511	4.12
0.514	4.4
0.517	4.39
0.52	4.52
0.523	4.58
0.526	4.58
0.529	4.7
0.532	4.7
0.535	4.89
0.538	4.9
0.541	4.96
0.544	5.01
0.547	5.04
0.55	5.12
0.553	5.27
0.556	5.34
0.559	5.32
0.562	5.37
0.565	5.43
0.568	5.54
0.571	5.56
0.574	5.65
0.577	5.68
0.58	5.67
0.583	5.63
0.586	5.75
0.589	5.75
0.592	5.8
0.595	5.75
0.598	5.83
0.601	5.9
0.604	5.99
0.607	5.98
0.61	6.05
0.613	6.06
0.616	6.03
0.619	6.1
0.622	6.05
0.625	6.1
0.628	6.15
0.631	6.2
0.634	6.17
0.637	6.16
0.64	6.16
0.643	6.38
0.646	6.34
0.649	6.4
0.652	6.38
0.655	6.34
0.658	6.33
0.661	6.41
0.664	6.44
0.667	6.38
0.67	6.45
0.673	6.47
0.676	6.5
0.679	6.45
0.682	6.61
0.685	6.58
0.688	6.55
0.691	6.56
0.694	6.55
0.697	6.53
0.7	6.46
0.703	6.67
0.706	6.63
0.709	6.66
0.712	6.66
0.715	6.75
0.718	6.84
0.721	6.73
0.724	6.72
0.727	6.67
0.73	6.72
0.733	6.77
0.736	6.74
0.739	6.78
0.742	6.71
0.745	6.72
0.748	6.7
0.751	6.82
0.754	6.77
0.757	6.89
0.76	7.01
0.763	7.05
0.766	7
0.769	6.89
0.772	6.93
0.775	7.01
0.778	7
0.781	6.99
0.784	6.86
0.787	7.11
0.79	7.04
0.793	7.05
0.796	7.02
0.799	7.03
0.808	7.26
0.82	7.25
0.832	7.22
0.844	7.18
0.856	7.31
0.868	7.33
0.88	7.21
0.892	7.34
0.904	7.34
0.916	7.28
0.928	7.33
0.94	7.46
0.952	7.43
0.964	7.51
0.976	7.58
0.988	7.56
1	7.63
1.012	7.73
1.024	7.77
1.036	7.8
1.048	7.93
1.06	7.95
1.072	8.01
1.084	8.13
1.096	8.21
1.108	8.16
1.12	8.22
1.132	8.34
1.144	8.39
1.156	8.29
1.168	8.32
1.18	8.28
1.192	8.38
1.204	8.41
1.216	8.43
1.228	8.45
1.24	8.43
1.252	8.44
1.264	8.59
1.276	8.54
1.288	8.56
1.3	8.47
1.312	8.53
1.324	8.55
1.336	8.56
1.348	8.56
1.36	8.66
1.372	8.62
1.384	8.63
1.396	8.58
1.408	8.73
1.42	8.64
1.432	8.66
1.444	8.72
1.456	8.63
1.468	8.67
1.48	8.7
1.492	8.73
1.504	8.55
1.516	8.67
1.528	8.64
1.54	8.64
1.552	8.63
1.564	8.64
1.576	8.63
1.588	8.6
1.6	8.63
1.612	8.68
1.624	8.71
1.636	8.69
1.648	8.62
1.66	8.65
1.672	8.61
1.684	8.68
1.696	8.71
1.708	8.77
1.72	8.63
1.732	8.61
1.744	8.6
1.756	8.67
1.768	8.62
1.78	8.56
1.792	8.57
1.804	8.64
1.816	8.52
1.828	8.54
1.84	8.63
1.852	8.55
1.864	8.56
1.876	8.59
1.888	8.57
1.9	8.51
1.912	8.54
1.924	8.52
1.936	8.51
1.948	8.53
1.96	8.54
1.972	8.58
1.984	8.59
1.996	8.51
2.008	8.54
2.02	8.62
2.032	8.59
2.044	8.65
2.056	8.65
2.068	8.65
2.08	8.59
2.092	8.6
2.104	8.69
2.116	8.73
2.128	8.76
2.14	8.7
2.152	8.63
2.164	8.62
2.176	8.68
2.188	8.71
2.2	8.7
2.212	8.65
2.224	8.62
2.236	8.57
2.248	8.68
2.26	8.64
2.272	8.65
2.284	8.6
2.296	8.64
2.308	8.75
2.32	8.79
2.332	8.78
2.344	8.84
2.356	8.84
2.368	8.79
2.38	8.75
2.392	8.79
2.404	8.79
2.416	8.78
2.428	8.78
2.44	8.71
2.452	8.77
2.464	8.77
2.476	8.72
2.488	8.81
2.5	8.83
