Name: Albite (Feldspar) (K,Na)AlSi_3O_8
Type: Mineral
Class: Silicate
Subclass: Tectosilicate
Particle Size: Medium
Sample No.: TS-6A
Owner: JPL
Wavelength Range: VSWIR
Origin: Unknown.
Description: Particle size was 45-125um.Collected by:  JPL Original ASTER Spectral Library name was jpl.perkin.mineral.silicate.tectosilicate.medium.ts06a.spectrum.txt
Measurement: Hemispherical reflectance
X Units: Wavelength (micrometers)
Y Units: Reflectance (percent)
wavelength	value
2.5	68.7393
2.494	68.8274
2.488	68.847
2.482	68.8619
2.476	69.0595
2.47	69.1395
2.464	69.2958
2.458	69.3958
2.452	69.5601
2.446	69.5605
2.44	69.7027
2.434	69.9417
2.428	70.1119
2.422	70.4242
2.416	70.7884
2.41	71.1031
2.404	71.4023
2.398	71.6398
2.392	71.9547
2.386	72.0411
2.38	72.2357
2.374	72.3917
2.368	72.4014
2.362	72.3179
2.356	72.2802
2.35	72.1251
2.344	72.1088
2.338	72.1796
2.332	72.3753
2.326	72.6666
2.32	72.9421
2.314	73.2843
2.308	73.6223
2.302	73.8957
2.296	74.2268
2.29	74.4626
2.284	74.7023
2.278	74.8515
2.272	74.9775
2.266	74.9861
2.26	74.9404
2.254	74.9224
2.248	74.9556
2.242	74.9753
2.236	75.0418
2.23	74.93
2.224	74.7552
2.218	74.2934
2.212	73.7849
2.206	73.1048
2.2	72.8507
2.194	72.8946
2.188	73.5847
2.182	74.4666
2.176	75.3018
2.17	76.0667
2.164	76.6417
2.158	77.117
2.152	77.5565
2.146	77.6842
2.14	77.7869
2.134	77.6612
2.128	77.5181
2.122	77.278
2.116	77.0449
2.11	76.8106
2.104	76.5922
2.098	76.4739
2.092	76.5794
2.086	76.6844
2.08	76.7126
2.074	76.7773
2.068	76.8049
2.062	76.8191
2.056	76.7812
2.05	76.8445
2.044	76.7803
2.038	76.8293
2.032	76.6759
2.026	76.6501
2.02	76.4082
2.014	76.3624
2.008	76.2359
2.002	76.1238
1.996	75.9013
1.99	75.7144
1.984	75.4832
1.978	75.2863
1.972	75.1162
1.966	74.8994
1.96	74.7264
1.954	74.6737
1.948	74.4503
1.942	74.3251
1.936	74.1685
1.93	73.9651
1.924	73.6248
1.918	73.3844
1.912	73.2372
1.906	73.5401
1.9	74.4016
1.894	75.4688
1.888	76.2999
1.882	76.8173
1.876	77.1419
1.87	77.3121
1.864	77.4495
1.858	77.4169
1.852	77.559
1.846	77.5149
1.84	77.4337
1.834	77.4618
1.828	77.4253
1.822	77.4445
1.816	77.4541
1.81	77.4328
1.804	77.419
1.798	77.3991
1.792	77.3585
1.786	77.3247
1.78	77.2967
1.774	77.2662
1.768	77.2539
1.762	77.1645
1.756	77.1964
1.75	77.2011
1.744	77.1219
1.738	77.1624
1.732	77.1651
1.726	77.1595
1.72	77.1622
1.714	77.1138
1.708	77.0783
1.702	77.0218
1.696	77.0131
1.69	76.9963
1.684	76.8503
1.678	76.8507
1.672	76.787
1.666	76.7406
1.66	76.6554
1.654	76.6623
1.648	76.6792
1.642	76.5685
1.636	76.4691
1.63	76.4721
1.624	76.4513
1.618	76.3282
1.612	76.2848
1.606	76.1563
1.6	76.115
1.594	76.0215
1.588	75.9868
1.582	75.8687
1.576	75.7465
1.57	75.5703
1.564	75.4435
1.558	75.3627
1.552	75.2776
1.546	75.1481
1.54	75.0123
1.534	74.8474
1.528	74.6766
1.522	74.5307
1.516	74.3502
1.51	74.1938
1.504	74.0569
1.498	73.8444
1.492	73.6839
1.486	73.5328
1.48	73.3369
1.474	73.0847
1.468	72.9895
1.462	72.8017
1.456	72.5885
1.45	72.479
1.444	72.2484
1.438	72.0494
1.432	71.7993
1.426	71.3865
1.42	70.676
1.414	69.6859
1.408	69.554
1.402	69.919
1.396	70.6916
1.39	71.354
1.384	71.5371
1.378	71.5071
1.372	71.4207
1.366	71.3752
1.36	71.328
1.354	71.2148
1.348	71.0428
1.342	71.058
1.336	70.9341
1.33	70.9117
1.324	70.9006
1.318	70.8219
1.312	70.6928
1.306	70.719
1.3	70.6867
1.294	70.73
1.288	70.6647
1.282	70.6274
1.276	70.6443
1.27	70.5696
1.264	70.5482
1.258	70.5685
1.252	70.6403
1.246	70.687
1.24	70.6701
1.234	70.7232
1.228	70.723
1.222	70.7945
1.216	70.8777
1.21	70.8562
1.204	71.0211
1.198	71.0082
1.192	71.1144
1.186	71.2351
1.18	71.3095
1.174	71.3865
1.168	71.4758
1.162	71.5579
1.156	71.7115
1.15	71.8143
1.144	71.9251
1.138	72.0388
1.132	72.1901
1.126	72.2513
1.12	72.4095
1.114	72.5053
1.108	72.6677
1.102	72.8355
1.096	73.0315
1.09	73.0373
1.084	73.1728
1.078	73.3324
1.072	73.445
1.066	73.6086
1.06	73.7246
1.054	73.9205
1.048	74.0314
1.042	74.1357
1.036	74.2512
1.03	74.3443
1.024	74.4216
1.018	74.5062
1.012	74.6098
1.006	74.7164
1	74.7901
0.994	74.8905
0.988	75.0017
0.982	75.0277
0.976	75.0665
0.97	75.1058
0.964	75.1211
0.958	75.2128
0.952	75.2584
0.946	75.2996
0.94	75.3306
0.934	75.3883
0.928	75.32
0.922	75.3553
0.916	75.3988
0.91	75.4016
0.904	75.3642
0.898	75.3419
0.892	75.3156
0.886	75.3452
0.88	75.3231
0.874	75.3412
0.868	75.3363
0.862	75.3259
0.856	75.3038
0.85	75.2342
0.844	75.3254
0.838	75.2962
0.832	75.3098
0.826	75.3724
0.82	75.4016
0.814	75.4088
0.808	75.3887
0.802	75.3911
0.796	75.3371
0.79	75.35
0.784	75.3012
0.778	75.2257
0.772	75.22
0.766	75.1795
0.76	75.1418
0.754	75.1138
0.748	75.066
0.742	75.0049
0.736	74.9332
0.73	74.8423
0.724	74.8113
0.718	74.7412
0.712	74.6539
0.706	74.6286
0.7	74.5514
0.694	74.4896
0.688	74.4588
0.682	74.3908
0.676	74.3723
0.67	74.3041
0.664	74.2756
0.658	74.2298
0.652	74.1956
0.646	74.1601
0.64	74.1429
0.634	74.0958
0.628	74.0555
0.622	74.0375
0.616	73.9946
0.61	73.9688
0.604	73.9135
0.598	73.8907
0.592	73.8939
0.586	73.8316
0.58	73.7371
0.574	73.6699
0.568	73.5999
0.562	73.5143
0.556	73.3481
0.55	73.24
0.544	73.0896
0.538	72.891
0.532	72.7075
0.526	72.5008
0.52	72.2081
0.514	71.941
0.508	71.5827
0.502	71.1777
0.496	70.7432
0.49	70.285
0.484	69.7997
0.478	69.4211
0.472	69.0176
0.466	68.639
0.46	68.2014
0.454	67.6184
0.448	67.0248
0.442	66.3294
0.436	65.6166
0.43	64.8696
0.424	64.1237
0.418	63.4977
0.412	62.8818
0.406	62.2686
0.4	61.5462
