Name: Topaz Al2SiO4(F,OH)2
Type: Mineral
Class: Silicate
Subclass: Nesosilicate
Particle Size: Solid
Sample No.: topaz_1
Owner: JHU
Wavelength Range: TIR
Origin: Rhondonia, Brazil via Don Hoover, USGS
Description: The sample was a 1 cm x 1 cm x 1 cm fragment of a single crystal.  It was colorless and appeared free of fluid inclusions under the microscope (however, the presence of a CO2 band at 4.3 micrometers in the infrared reflectance spectra of particulate samples shows that fluid inclusions are present). Sample was cleavage face.(Isolated tetrahedra) Original ASTER Spectral Library name was jhu.nicolet.mineral.silicate.nesosilicate.solid.topaz1.spectrum.txt
Measurement: Bidirectional reflectance
X Units: Wavelength (micrometers)
Y Units: Reflectance (percent)
wavelength	value
25.0442	32.1288
24.3388	24.5265
23.6719	30.9135
23.0407	39.6879
22.4422	52.8439
21.8741	72.8135
21.334	56.8634
20.8199	46.9882
20.33	48.8583
19.8627	41.872
19.4163	37.0102
18.9896	38.0609
18.5812	39.1605
18.19	40.1593
17.815	18.4106
17.4551	15.3562
17.1094	22.1926
16.7772	23.9313
16.4576	44.359
16.15	63.4886
15.8537	69.0816
15.568	68.6551
15.2925	66.2786
15.0265	59.0909
14.7697	39.6286
14.5214	16.8105
14.2814	6.5012
14.0492	5.9953
13.8244	4.9302
13.6067	7.2947
13.3957	9.0036
13.1912	10.8506
12.9929	12.1753
12.8004	13.2104
12.6135	15.2597
12.432	17.4528
12.2557	20.2944
12.0843	23.9265
11.9176	30.5588
11.7555	38.8344
11.5977	50.9923
11.444	62.3919
11.2944	67.2674
11.1487	66.5094
11.0067	63.1998
10.8682	61.8485
10.7332	60.4496
10.6015	69.7222
10.473	72.4676
10.3476	70.7989
10.2251	59.4591
10.1056	43.7365
9.9887	51.4601
9.8746	55.3097
9.763	52.692
9.6539	52.3099
9.5472	50.1317
9.4429	44.4918
9.3408	37.2165
9.2409	28.9369
9.1431	20.0544
9.0474	11.7739
8.9536	5.1724
8.8618	1.1953
8.7718	0.8296
8.6837	2.654
8.5973	8.1489
8.5126	7.6098
8.4295	1.353
8.3481	0.8474
8.2682	1.2861
8.1898	1.7366
8.1129	2.168
8.0374	2.5449
7.9634	2.8694
7.8906	3.1623
7.8192	3.4319
7.7491	3.6887
7.6802	3.9253
7.6126	4.147
7.5461	4.3591
7.4807	4.5495
7.4165	4.748
7.3534	4.9402
7.2914	5.1203
7.2303	5.2876
7.1703	5.4333
7.1113	5.6052
7.0533	5.7285
6.9962	5.8918
6.94	6.0242
6.8847	6.1301
6.8302	6.2417
6.7767	6.3284
6.7239	6.435
6.672	6.5051
6.6209	6.5784
6.5705	6.6721
6.5209	6.7964
6.4721	6.8647
6.424	6.9026
6.3766	7.0791
6.3299	7.167
6.2838	7.2937
6.2385	7.3857
6.1937	7.4309
6.1496	7.5342
6.1062	7.5867
6.0633	7.5976
6.0211	7.7761
5.9794	7.8296
5.9383	7.8489
5.8978	7.8713
5.8578	7.9783
5.8184	7.9756
5.7794	8.0339
5.741	8.0796
5.7031	8.1228
5.6657	8.1782
5.6288	8.2131
5.5924	8.2483
5.5564	8.2646
5.5209	8.2942
5.4859	8.3161
5.4513	8.3611
5.4171	8.3916
5.3833	8.4663
5.35	8.4956
5.3171	8.5818
5.2846	8.6421
5.2524	8.719
5.2207	8.7793
5.1893	8.8501
5.1584	8.9084
5.1277	8.9736
5.0975	9.0383
5.0676	9.1001
5.038	9.1533
5.0088	9.1889
4.98	9.1816
4.9514	9.1811
4.9232	9.3166
4.8953	9.6684
4.8678	10.1379
4.8405	10.5556
4.8135	10.9052
4.7868	11.1587
4.7605	11.3303
4.7344	11.4665
4.7086	11.561
4.6831	11.6328
4.6578	11.6609
4.6328	11.6706
4.6081	11.7563
4.5837	11.8801
4.5595	11.9914
4.5356	12.1689
4.5119	12.3574
4.4884	12.4743
4.4652	12.5424
4.4423	12.5813
4.4196	12.5796
4.3971	12.4878
4.3748	12.1577
4.3528	11.3105
4.331	10.2883
4.3094	10.0024
4.288	10.7058
4.2668	11.7458
4.2458	12.5056
4.2251	12.8659
4.2045	13.0398
4.1841	13.1455
4.164	13.2304
4.144	13.3066
4.1242	13.3774
4.1046	13.4509
4.0852	13.51
4.066	13.5102
4.047	13.3757
4.0281	13.0649
4.0094	13.268
3.9909	13.5053
3.9725	13.5676
3.9544	13.6196
3.9363	13.6606
3.9185	13.6486
3.9008	13.5766
3.8833	13.4553
3.8659	13.341
3.8487	13.3095
3.8316	13.3523
3.8147	13.4201
3.7979	13.5046
3.7813	13.5957
3.7648	13.6745
3.7485	13.7309
3.7323	13.7544
3.7162	13.6379
3.7003	13.8176
3.6845	13.8171
3.6689	13.801
3.6534	13.7837
3.638	13.789
3.6227	13.8095
3.6076	13.8305
3.5926	13.8525
3.5777	13.8808
3.563	13.9052
3.5484	13.9284
3.5338	13.9582
3.5195	13.9148
3.5052	13.7617
3.491	13.9304
3.477	14.0007
3.463	14.0393
3.4492	14.028
3.4355	13.9226
3.4219	13.791
3.4084	13.9187
3.395	14.0276
3.3817	14.0344
3.3685	14.1345
3.3554	14.2143
3.3425	14.2368
3.3296	14.2463
3.3168	14.2771
3.3041	14.3003
3.2915	14.3203
3.279	14.3288
3.2666	14.2885
3.2543	14.2348
3.2421	14.1904
3.23	14.2109
3.218	14.2158
3.206	14.1784
3.1942	14.1518
3.1824	14.0849
3.1707	13.9785
3.1591	13.9621
3.1476	13.9748
3.1362	13.9575
3.1249	13.945
3.1136	13.8144
3.1024	13.6496
3.0913	13.4306
3.0803	13.2402
3.0694	13.0796
3.0585	12.7807
3.0477	12.3884
3.037	12.018
3.0264	11.8528
3.0158	11.5468
3.0053	11.239
2.9949	11.1084
2.9845	10.9375
2.9743	10.9284
2.9641	10.9504
2.9539	11.1606
2.9439	11.3896
2.9339	11.5258
2.9239	11.5295
2.9141	11.3938
2.9043	11.2297
2.8946	11.1718
2.8849	11.2268
2.8753	11.1826
2.8658	11.3374
2.8563	11.7722
2.8469	12.0605
2.8375	12.1279
2.8282	11.9211
2.819	11.8388
2.8098	11.7243
2.8007	11.4743
2.7917	11.2639
2.7827	11.1582
2.7738	11.0171
2.7649	10.7949
2.7561	10.6081
2.7473	10.3928
2.7386	9.5971
2.7299	10.2895
2.7213	10.5976
2.7128	11.1235
2.7043	11.7654
2.6959	12.2197
2.6875	12.5053
2.6791	12.581
2.6709	12.5652
2.6626	12.6587
2.6545	12.6709
2.6463	12.5466
2.6382	12.3405
2.6302	11.8488
2.6222	11.3952
2.6143	11.3791
2.6064	11.2551
2.5986	11.2304
2.5908	11.406
2.583	11.5481
2.5753	11.3279
2.5677	11.0117
2.5601	10.7588
2.5525	10.6025
2.545	10.5805
2.5375	10.5925
2.5301	10.6028
2.5227	10.6655
2.5154	10.7861
2.5081	10.9941
2.5008	11.0532
2.4936	11.4094
2.4864	11.7846
2.4793	12.1391
2.4722	12.1508
2.4651	12.2737
2.4581	12.5959
2.4511	12.9792
2.4442	13.2429
2.4373	13.321
2.4305	13.188
2.4236	13.0644
2.4169	13.0073
2.4101	13.2107
2.4034	13.4467
2.3967	13.4936
2.3901	13.5883
2.3835	13.6457
2.377	13.6262
2.3704	13.7815
2.364	14.0036
2.3575	14.0998
2.3511	14.0424
2.3447	13.9406
2.3384	14.0507
2.3321	14.1682
2.3258	14.2622
2.3195	14.4314
2.3133	14.4802
2.3071	14.5019
2.301	14.6062
2.2949	14.8308
2.2888	15.0356
2.2828	15.1157
2.2767	15.0937
2.2708	14.906
2.2648	14.3984
2.2589	14.3986
2.253	15.1696
2.2471	15.3671
2.2413	15.4228
2.2355	15.4358
2.2297	15.3945
2.224	15.217
2.2183	14.8659
2.2126	14.6692
2.207	14.7197
2.2013	14.7492
2.1957	14.8945
2.1902	14.9851
2.1846	14.8813
2.1791	14.6943
2.1736	14.5236
2.1682	14.5197
2.1628	14.3984
2.1574	14.0017
2.152	13.8471
2.1466	14.0935
2.1413	14.2002
2.136	14.5366
2.1308	14.976
2.1255	15.1723
2.1203	15.1799
2.1151	15.0776
2.11	14.8554
2.1048	14.4875
2.0997	13.8464
2.0946	12.5754
2.0895	10.9236
2.0845	10.3303
2.0795	10.3994
