Name: Cryolite Na_3AlF_6
Type: Mineral
Class: Halide
Subclass: None
Particle Size: Medium
Sample No.: H-1A
Owner: JPL
Wavelength Range: TIR
Origin: Denmark, Greenland, Ivigtut
Description: Particle size was 45-125um.Collected by Ward's Original ASTER Spectral Library name was jpl.nicolet.mineral.halide.none.medium.h01a.spectrum.txt
Measurement: Hemispherical reflectance
X Units: Wavelength (micrometers)
Y Units: Reflectance (percent)
wavelength	value
15.3853	34.9217
15.1161	34.7169
14.8563	28.7257
14.6052	19.9889
14.3624	12.6367
14.1276	7.6019
13.9004	4.5537
13.6803	2.6029
13.4671	1.3694
13.2604	0.7914
13.06	0.5173
12.8656	0.2146
12.6769	0.1929
12.4936	0.102
12.3155	0.0318
12.1425	0.0353
11.9742	0.1163
11.8106	0.5526
11.6513	0.6613
11.4963	0.8551
11.3454	1.0766
11.1983	1.071
11.0551	1.1008
10.9154	1.08
10.7793	1.1593
10.6465	1.3574
10.5169	0.9061
10.3904	0.65
10.267	0.568
10.1464	0.6536
10.0287	0.8565
9.9136	1.052
9.8012	1.7265
9.6913	2.2029
9.5838	2.8585
9.4787	3.3228
9.3758	3.928
9.2752	5.9798
9.1767	10.1107
9.0803	15.0542
8.9858	16.7019
8.8934	12.9634
8.8028	10.8587
8.714	12.1932
8.627	16.3189
8.5417	21.3035
8.4581	23.328
8.3761	24.5657
8.2957	25.5864
8.2169	27.8089
8.1395	33.4651
8.0635	40.2107
7.989	45.1785
7.9158	48.7498
7.8439	50.8385
7.7734	52.1156
7.7041	52.966
7.636	53.5903
7.5691	54.0025
7.5034	54.1882
7.4388	53.7024
7.3753	52.8253
7.3129	52.6789
7.2515	53.1031
7.1912	54.1009
7.1318	55.2155
7.0734	56.2733
7.016	57.8803
6.9595	60.5186
6.9039	61.1359
6.8492	62.9486
6.7953	65.1312
6.7423	65.5213
6.6901	67.3159
6.6387	70.5572
6.5881	68.5877
6.5382	67.7585
6.4892	71.009
6.4408	68.5752
6.3931	67.6744
6.3462	68.1123
6.2999	66.14
6.2543	64.5823
6.2094	64.1509
6.1651	65.9172
6.1214	67.7686
6.0784	68.9502
6.0359	68.3164
5.994	69.8765
5.9527	71.4758
5.912	73.8188
5.8718	76.1266
5.8322	77.5591
5.7931	77.7916
5.7545	79.4508
5.7165	80.9247
5.6789	80.9833
5.6418	82.4906
5.6052	81.4701
5.5691	81.7527
5.5334	82.0007
5.4982	82.5184
5.4635	83.9184
5.4291	84.0849
5.3952	84.1133
5.3618	84.6898
5.3287	84.7432
5.2961	85.1939
5.2638	85.0829
5.2319	85.2858
5.2004	85.3874
5.1693	85.3398
5.1386	85.5538
5.1082	85.7156
5.0782	85.9023
5.0485	85.9946
5.0192	86.0322
4.9902	86.0419
4.9616	86.0798
4.9332	86.174
4.9052	86.179
4.8776	86.106
4.8502	86.1213
4.8231	86.2019
4.7963	86.2654
4.7699	86.3435
4.7437	86.4186
4.7178	86.4139
4.6922	86.1981
4.6668	85.9132
4.6418	85.6853
4.617	85.7693
4.5924	86.0712
4.5681	86.6217
4.5441	87.0483
4.5203	87.4896
4.4968	87.6635
4.4735	87.8024
4.4505	87.9528
4.4277	88.0594
4.4051	88.1126
4.3828	88.1747
4.3607	88.3326
4.3388	88.3504
4.3171	88.2021
4.2956	87.4737
4.2744	83.4531
4.2534	85.6453
4.2325	88.2895
4.2119	88.9228
4.1915	89.1744
4.1712	89.4791
4.1512	89.7166
4.1313	89.8874
4.1117	89.9154
4.0922	90.0583
4.0729	89.973
4.0538	90.0462
4.0349	90.1157
4.0161	90.1143
3.9976	90.2414
3.9792	90.3123
3.9609	90.2704
3.9428	90.3526
3.9249	90.3125
3.9072	90.4147
3.8896	90.5535
3.8722	90.4732
3.8549	90.4234
3.8378	90.5395
3.8208	90.3742
3.804	90.5054
3.7873	90.4681
3.7708	90.4384
3.7544	90.4249
3.7382	90.2735
3.7221	90.1854
3.7061	89.8852
3.6903	89.6914
3.6746	89.7913
3.659	89.6908
3.6436	89.5913
3.6283	89.4249
3.6131	89.3328
3.5981	89.0093
3.5832	88.3074
3.5684	87.8377
3.5537	87.8127
3.5391	87.8137
3.5247	87.4841
3.5104	86.5275
3.4962	85.7554
3.4821	85.9615
3.4681	85.6188
3.4543	85.5345
3.4405	84.9155
3.4269	83.7231
3.4133	82.8612
3.3999	83.1612
3.3866	83.2549
3.3733	82.4668
3.3602	82.7417
3.3472	82.9706
3.3343	82.8826
3.3215	82.6393
3.3088	82.1095
3.2961	81.6696
3.2836	80.9866
3.2712	80.5415
3.2588	79.9184
3.2466	79.2313
3.2345	78.5676
3.2224	77.8928
3.2104	77.1359
3.1985	76.3706
3.1867	75.6607
3.175	74.8692
3.1634	74.1552
3.1519	73.4457
3.1404	72.7608
3.129	71.8979
3.1178	71.1387
3.1065	70.7069
3.0954	70.1436
3.0844	69.7325
3.0734	69.4098
3.0625	68.8265
3.0517	68.5024
3.041	68.1328
3.0303	67.8116
3.0197	67.4313
3.0092	66.9876
2.9987	66.7794
2.9884	66.5981
2.9781	66.157
2.9678	65.9069
2.9577	65.7499
2.9476	65.5806
2.9376	65.3928
2.9276	65.1891
2.9177	65.1821
2.9079	65.0849
2.8982	65.3951
2.8885	65.597
2.8789	65.8679
2.8693	66.0619
2.8598	66.6317
2.8504	66.9198
2.841	67.2339
2.8317	67.6848
2.8224	68.8213
2.8133	69.5876
2.8041	71.0974
2.7951	71.2359
2.786	72.8634
2.7771	73.2994
2.7682	74.7004
2.7594	75.3359
2.7506	76.6832
2.7418	79.453
2.7332	79.9349
2.7246	83.2514
2.716	83.0904
2.7075	84.4466
2.699	85.1062
2.6906	86.1313
2.6823	87.102
2.674	88.0396
2.6657	90.7313
2.6575	88.4761
2.6494	88.6282
2.6413	89.2404
2.6332	89.8782
2.6252	89.9362
2.6173	91.2601
2.6094	90.2218
2.6015	90.3509
2.5937	92.4836
2.5859	90.8385
2.5782	90.599
2.5706	91.0411
2.5629	91.7808
2.5554	90.4998
2.5478	90.7547
2.5403	90.557
2.5329	90.826
2.5255	90.743
2.5181	90.6258
2.5108	90.7243
2.5035	90.5742
2.4963	90.6333
2.4891	90.461
2.482	90.0999
2.4749	89.6971
2.4678	89.9332
2.4608	90.0962
2.4538	90.3538
2.4468	90.3582
2.4399	90.4662
2.4331	90.6752
2.4262	90.5588
2.4194	90.4647
2.4127	90.3811
2.4059	90.271
2.3993	90.4584
2.3926	90.5488
2.386	90.637
2.3795	90.7486
2.3729	90.9741
2.3664	91.1649
2.36	91.1739
2.3535	91.5063
2.3471	91.5111
2.3408	91.8819
2.3345	91.993
2.3282	92.3787
2.3219	92.6558
2.3157	92.8959
2.3095	92.5895
2.3034	92.5746
2.2972	92.752
2.2911	93.0401
2.2851	93.0941
2.279	93.0184
2.2731	93.135
2.2671	93.0822
2.2612	93.1618
2.2553	93.1222
2.2494	93.045
2.2435	93.0802
2.2377	92.8663
2.232	92.9498
2.2262	92.8488
2.2205	93.0279
2.2148	93.0206
2.2091	93.0897
2.2035	93.1613
2.1979	93.1284
2.1923	93.1312
2.1868	93.1503
2.1812	93.0434
2.1758	93.1441
2.1703	92.9285
2.1649	93.1678
2.1595	93.0206
2.1541	93.297
2.1487	93.2855
2.1434	93.147
2.1381	93.2502
2.1328	93.3314
2.1275	93.2955
2.1223	93.3829
2.1171	93.418
2.112	93.3593
2.1068	93.3032
2.1017	93.2
2.0966	93.1563
2.0915	93.2406
2.0865	93.2471
2.0814	93.6143
2.0764	93.1444
2.0715	93.3309
2.0665	93.5095
2.0616	93.1922
2.0567	93.0951
2.0518	93.3368
2.0469	92.988
2.0421	93.2162
2.0373	93.1654
2.0325	93.0419
2.0277	93.1399
2.0229	92.9536
2.0182	93.0796
2.0135	93.1946
2.0088	93.0003
2.0042	93.2199
