Name: Borax Na_2B_4O_5(OH)_4.8H_2O
Type: Mineral
Class: Borate
Subclass: None
Particle Size: Coarse
Sample No.: B-6A
Owner: JPL
Wavelength Range: TIR
Origin: USA, California, Kern County, Boron
Description: Particle size was 125-500um.Collected by Burminco Original ASTER Spectral Library name was jpl.nicolet.mineral.borate.none.coarse.b06a.spectrum.txt
Measurement: Hemispherical reflectance
X Units: Wavelength (micrometers)
Y Units: Reflectance (percent)
wavelength	value
15.3853	2.1673
15.1161	2.4959
14.8563	2.4028
14.6052	2.5698
14.3624	2.678
14.1276	2.9383
13.9004	2.1894
13.6803	2.0112
13.4671	2.2833
13.2604	2.6457
13.06	3.0056
12.8656	2.7064
12.6769	2.9506
12.4936	3.2109
12.3155	3.898
12.1425	5.3992
11.9742	3.3472
11.8106	1.0524
11.6513	1.1015
11.4963	1.4911
11.3454	1.7805
11.1983	1.8412
11.0551	2.4731
10.9154	2.698
10.7793	3.3714
10.6465	4.4787
10.5169	3.8164
10.3904	1.7098
10.267	3.2323
10.1464	4.7168
10.0287	6.8811
9.9136	7.3314
9.8012	4.5426
9.6913	4.6063
9.5838	3.9095
9.4787	1.6753
9.3758	1.072
9.2752	1.2005
9.1767	0.7452
9.0803	1.0396
8.9858	1.3617
8.8934	2.6848
8.8028	3.3689
8.714	1.7346
8.627	0.9441
8.5417	0.8578
8.4581	0.6773
8.3761	1.0485
8.2957	1.0166
8.2169	1.353
8.1395	1.3451
8.0635	1.8051
7.989	1.9659
7.9158	1.5807
7.8439	1.3785
7.7734	1.264
7.7041	1.1318
7.636	1.3378
7.5691	1.8966
7.5034	2.9158
7.4388	3.2205
7.3753	2.5386
7.3129	1.8773
7.2515	1.9642
7.1912	1.9638
7.1318	1.7336
7.0734	1.9839
7.016	2.2647
6.9595	2.3192
6.9039	1.7322
6.8492	1.5978
6.7953	1.6095
6.7423	2.1594
6.6901	2.3178
6.6387	1.9925
6.5881	1.1745
6.5382	0.5456
6.4892	0.5346
6.4408	0.4676
6.3931	0.4548
6.3462	0.5337
6.2999	0.527
6.2543	0.6189
6.2094	0.6634
6.1651	0.7153
6.1214	0.6847
6.0784	0.7541
6.0359	0.4675
5.994	0.6397
5.9527	0.5665
5.912	0.5374
5.8718	0.6209
5.8322	0.574
5.7931	0.8482
5.7545	0.9406
5.7165	1.0449
5.6789	0.995
5.6418	1.1164
5.6052	1.1509
5.5691	1.1443
5.5334	1.3182
5.4982	1.2994
5.4635	1.4378
5.4291	1.4476
5.3952	1.4273
5.3618	1.5362
5.3287	1.7949
5.2961	1.7593
5.2638	1.7968
5.2319	1.8037
5.2004	1.8735
5.1693	1.8435
5.1386	1.9378
5.1082	1.9198
5.0782	1.9292
5.0485	2.072
5.0192	2.1733
4.9902	2.0518
4.9616	2.164
4.9332	2.1576
4.9052	2.2184
4.8776	2.1759
4.8502	2.302
4.8231	2.375
4.7963	2.2253
4.7699	2.3651
4.7437	2.3831
4.7178	2.3144
4.6922	2.3271
4.6668	2.3114
4.6418	2.3194
4.617	2.2387
4.5924	2.2492
4.5681	2.173
4.5441	2.1274
4.5203	2.2189
4.4968	2.1814
4.4735	2.251
4.4505	2.2149
4.4277	2.4026
4.4051	2.2646
4.3828	2.4029
4.3607	2.3697
4.3388	2.3313
4.3171	2.3156
4.2956	2.3703
4.2744	2.1905
4.2534	2.165
4.2325	2.1696
4.2119	1.9604
4.1915	1.8495
4.1712	1.5977
4.1512	1.461
4.1313	1.4193
4.1117	1.3707
4.0922	1.2495
4.0729	1.2988
4.0538	1.3935
4.0349	1.4729
4.0161	1.3951
3.9976	1.473
3.9792	1.4348
3.9609	1.3929
3.9428	1.4975
3.9249	1.4087
3.9072	1.425
3.8896	1.448
3.8722	1.3639
3.8549	1.3473
3.8378	1.415
3.8208	1.2951
3.804	1.2274
3.7873	1.403
3.7708	1.3613
3.7544	1.4385
3.7382	1.2927
3.7221	1.2569
3.7061	1.4544
3.6903	1.4427
3.6746	1.4217
3.659	1.4511
3.6436	1.3417
3.6283	1.3318
3.6131	1.3739
3.5981	1.3935
3.5832	1.2474
3.5684	1.2323
3.5537	1.273
3.5391	1.2895
3.5247	1.3977
3.5104	1.2805
3.4962	1.315
3.4821	1.4894
3.4681	1.415
3.4543	1.2435
3.4405	1.2958
3.4269	1.3948
3.4133	1.2405
3.3999	1.3142
3.3866	1.4718
3.3733	1.3767
3.3602	1.3072
3.3472	1.1988
3.3343	1.2372
3.3215	1.2306
3.3088	1.2316
3.2961	1.1702
3.2836	1.1815
3.2712	1.1436
3.2588	1.1977
3.2466	1.1123
3.2345	1.2483
3.2224	1.1812
3.2104	1.1002
3.1985	1.2433
3.1867	1.1509
3.175	1.1084
3.1634	1.315
3.1519	1.2644
3.1404	1.3046
3.129	1.1462
3.1178	1.0619
3.1065	1.22
3.0954	1.1499
3.0844	1.2504
3.0734	1.3687
3.0625	1.2996
3.0517	1.4864
3.041	1.4567
3.0303	1.2679
3.0197	1.5298
3.0092	1.5566
2.9987	1.7444
2.9884	1.6347
2.9781	1.2787
2.9678	1.089
2.9577	0.8175
2.9476	0.4108
2.9376	0.5062
2.9276	0.7547
2.9177	0.6614
2.9079	0.5089
2.8982	0.5785
2.8885	0.4246
2.8789	0.6574
2.8693	0.665
2.8598	0.4641
2.8504	0.7207
2.841	0.6058
2.8317	0.5484
2.8224	0.4939
2.8133	0.5044
2.8041	0.7421
2.7951	0.6749
2.786	0.7305
2.7771	0.9716
2.7682	0.7462
2.7594	0.8389
2.7506	1.1352
2.7418	1.4868
2.7332	1.8149
2.7246	2.3549
2.716	3.1248
2.7075	3.9346
2.699	4.5705
2.6906	5.4171
2.6823	6.004
2.674	6.708
2.6657	7.4185
2.6575	7.6521
2.6494	8.2176
2.6413	9.0197
2.6332	9.2679
2.6252	9.7185
2.6173	10.3882
2.6094	10.7628
2.6015	10.8971
2.5937	11.0684
2.5859	11.228
2.5782	11.1955
2.5706	11.1305
2.5629	10.9306
2.5554	10.6683
2.5478	10.4464
2.5403	10.129
2.5329	10.005
2.5255	10.0868
2.5181	10.4543
2.5108	11.1333
2.5035	11.9341
2.4963	12.5864
2.4891	13.3323
2.482	13.9838
2.4749	14.5169
2.4678	15.0583
2.4608	15.4684
2.4538	15.8385
2.4468	16.1262
2.4399	16.3907
2.4331	16.3212
2.4262	16.8746
2.4194	17.6073
2.4127	18.2936
2.4059	19.0755
2.3993	19.8615
2.3926	20.6934
2.386	21.6436
2.3795	22.2701
2.3729	22.7919
2.3664	23.4843
2.36	23.9514
2.3535	24.2024
2.3471	24.6758
2.3408	24.6467
2.3345	24.6916
2.3282	24.7612
2.3219	24.9205
2.3157	25.0328
2.3095	24.9241
2.3034	25.072
2.2972	25.0119
2.2911	24.9673
2.2851	24.9978
2.279	25.1131
2.2731	25.0401
2.2671	25.0833
2.2612	24.888
2.2553	25.189
2.2494	25.1085
2.2435	25.3352
2.2377	25.34
2.232	25.4541
2.2262	25.6024
2.2205	25.7435
2.2148	26.0595
2.2091	26.2555
2.2035	26.4703
2.1979	26.4553
2.1923	26.5926
2.1868	26.6303
2.1812	26.5282
2.1758	25.9188
2.1703	25.2458
2.1649	24.6299
2.1595	24.1859
2.1541	23.8269
2.1487	24.1008
2.1434	24.491
2.1381	25.3848
2.1328	25.8435
2.1275	26.2535
2.1223	26.1963
2.1171	26.1395
2.112	26.1158
2.1068	25.6081
2.1017	25.8659
2.0966	25.5108
2.0915	25.8085
2.0865	25.6255
2.0814	26.227
2.0764	25.4283
2.0715	25.6725
2.0665	25.8042
2.0616	25.2846
2.0567	25.4773
2.0518	24.5888
2.0469	24.8126
2.0421	24.8017
2.0373	24.5227
2.0325	24.5297
2.0277	24.3165
2.0229	23.9671
2.0182	24.2141
2.0135	23.5529
2.0088	23.5315
2.0042	23.4322
