Name: Dolomite CaMg(CO_3)_2
Type: Mineral
Class: Carbonate
Subclass: None
Particle Size: Coarse
Sample No.: C-5A
Owner: JPL
Wavelength Range: VSWIR
Origin: USA, Colorado
Description: Red banded dolomite.Particle size was 125-500um.Collected by Ward's Original ASTER Spectral Library name was jpl.beckman.mineral.carbonate.none.coarse.c05a.spectrum.txt
Measurement: Hemispherical reflectance
X Units: Wavelength (micrometers)
Y Units: Reflectance (percent)
wavelength	value
0.4	8.58
0.403	8.63
0.406	8.69
0.409	8.69
0.412	8.75
0.415	8.75
0.418	8.98
0.421	8.75
0.424	9.04
0.427	8.92
0.43	9.09
0.433	9.21
0.436	9.21
0.439	9.31
0.442	9.31
0.445	9.66
0.448	9.43
0.451	9.78
0.454	9.6
0.457	9.83
0.46	9.95
0.463	10.01
0.466	9.89
0.469	10.01
0.472	9.95
0.475	10.12
0.478	10.12
0.481	10.18
0.484	10.41
0.487	10.29
0.49	10.58
0.493	10.48
0.496	10.59
0.499	10.76
0.502	10.81
0.505	10.93
0.508	10.81
0.511	11.22
0.514	11.16
0.517	11.45
0.52	11.33
0.523	11.33
0.526	11.62
0.529	11.68
0.532	11.96
0.535	11.96
0.538	12.25
0.541	12.43
0.544	12.76
0.547	13.16
0.55	13.45
0.553	14.25
0.556	14.54
0.559	15.05
0.562	16.02
0.565	16.83
0.568	17.63
0.571	18.55
0.574	19.01
0.577	20.21
0.58	21.01
0.583	21.87
0.586	22.78
0.589	23.41
0.592	24.44
0.595	25.02
0.598	25.76
0.601	26.39
0.604	26.85
0.607	27.59
0.61	27.59
0.613	28.34
0.616	28.45
0.619	28.91
0.622	29.37
0.625	29.48
0.628	29.88
0.631	29.94
0.634	30.52
0.637	30.58
0.64	31.14
0.643	31.2
0.646	31.6
0.649	32.18
0.652	32.12
0.655	32.69
0.658	32.51
0.661	32.92
0.664	33.21
0.667	33.38
0.67	33.78
0.673	33.84
0.676	34.4
0.679	34.46
0.682	34.98
0.685	35.27
0.688	35.61
0.691	36.12
0.694	36.12
0.697	36.58
0.7	36.99
0.703	36.99
0.706	37.61
0.709	37.67
0.712	38.24
0.715	38.53
0.718	38.71
0.721	39.1
0.724	39.21
0.727	39.73
0.73	39.73
0.733	40.19
0.736	40.25
0.739	40.54
0.742	40.87
0.745	40.7
0.748	41.16
0.751	41.05
0.754	41.33
0.757	41.45
0.76	41.57
0.763	41.62
0.766	41.57
0.769	41.97
0.772	41.62
0.775	41.97
0.778	41.8
0.781	41.97
0.784	42.08
0.787	41.74
0.79	42.08
0.793	41.91
0.796	42.3
0.799	42.71
0.808	42.71
0.82	42.42
0.832	42.59
0.844	42.59
0.856	42.94
0.868	43.05
0.88	43.46
0.892	43.74
0.904	44.43
0.916	45.29
0.928	45.97
0.94	46.83
0.952	47.69
0.964	48.67
0.976	49.35
0.988	49.98
1	50.61
1.012	50.95
1.024	51.41
1.036	51.59
1.048	51.87
1.06	52.1
1.072	52.32
1.084	52.44
1.096	52.56
1.108	52.67
1.12	52.73
1.132	52.73
1.144	52.84
1.156	52.73
1.168	52.82
1.18	52.64
1.192	52.63
1.204	52.68
1.216	52.56
1.228	52.56
1.24	52.51
1.252	52.45
1.264	52.37
1.276	52.36
1.288	52.29
1.3	52.22
1.312	52.27
1.324	52.19
1.336	52.18
1.348	52.17
1.36	52.06
1.372	51.94
1.384	51.89
1.396	51.48
1.408	50.99
1.42	51
1.432	51.06
1.444	51.07
1.456	51.31
1.468	51.48
1.48	51.76
1.492	51.94
1.504	51.99
1.516	52.28
1.528	52.4
1.54	52.51
1.552	52.57
1.564	52.63
1.576	52.73
1.588	52.91
1.6	52.91
1.612	53.07
1.624	53
1.636	52.93
1.648	53.09
1.66	53.13
1.672	53.23
1.684	53.16
1.696	53.44
1.708	53.43
1.72	53.31
1.732	53.37
1.744	53.43
1.756	53.54
1.768	53.6
1.78	53.6
1.792	53.78
1.804	53.58
1.816	53.47
1.828	53.6
1.84	53.32
1.852	53.05
1.864	53.03
1.876	52.79
1.888	51.92
1.9	50.55
1.912	49.47
1.924	48.99
1.936	48.93
1.948	49.08
1.96	49.28
1.972	49.7
1.984	50.46
1.996	51.54
2.008	52.24
2.02	52.84
2.032	53.4
2.044	53.7
2.056	53.88
2.068	54.26
2.08	54.25
2.092	54.29
2.104	54.34
2.116	54.27
2.128	54.04
2.14	54.08
2.152	54.05
2.164	53.99
2.176	53.85
2.188	53.39
2.2	52.5
2.212	51.78
2.224	50.98
2.236	49.77
2.248	48
2.26	46.04
2.272	44.46
2.284	42.94
2.296	41.52
2.308	40.89
2.32	41.56
2.332	44.14
2.344	47.72
2.356	50.32
2.368	51.38
2.38	51.03
2.392	49.98
2.404	48.81
2.416	46.92
2.428	44.46
2.44	41.58
2.452	38.97
2.464	36.63
2.476	34.46
2.488	32.63
2.5	31.68
