Name: Labradorite (Feldspar) (NaSi,CaAl)AlSi_2O_8
Type: Mineral
Class: Silicate
Subclass: Tectosilicate
Particle Size: Medium
Sample No.: TS-2A
Owner: JPL
Wavelength Range: VSWIR
Origin: Mexico, Sonora, Pinacate.
Description: Particle size was 45-125um. Collected by:  Burminco Original ASTER Spectral Library name was jpl.perkin.mineral.silicate.tectosilicate.medium.ts02a.spectrum.txt
Measurement: Hemispherical reflectance
X Units: Wavelength (micrometers)
Y Units: Reflectance (percent)
wavelength	value
2.5	74.9974
2.494	75.0918
2.488	75.1296
2.482	75.246
2.476	75.1462
2.47	75.3675
2.464	75.3673
2.458	75.5123
2.452	75.4868
2.446	75.5941
2.44	75.6427
2.434	75.6813
2.428	75.6512
2.422	75.7032
2.416	75.8148
2.41	75.8398
2.404	75.825
2.398	75.9219
2.392	76.0205
2.386	76.0021
2.38	76.0988
2.374	76.1212
2.368	76.2825
2.362	76.3015
2.356	76.3575
2.35	76.3146
2.344	76.3755
2.338	76.3283
2.332	76.3029
2.326	76.2131
2.32	76.1699
2.314	76.1134
2.308	76.0824
2.302	76.1692
2.296	76.0873
2.29	76.076
2.284	76.007
2.278	75.8906
2.272	75.857
2.266	75.9419
2.26	75.8289
2.254	75.7769
2.248	75.7777
2.242	75.7836
2.236	75.8127
2.23	75.7778
2.224	75.8074
2.218	75.8068
2.212	75.9731
2.206	76.0475
2.2	76.1256
2.194	76.1641
2.188	76.318
2.182	76.3181
2.176	76.39
2.17	76.5614
2.164	76.7479
2.158	76.7849
2.152	76.9382
2.146	76.9805
2.14	76.962
2.134	76.894
2.128	76.7089
2.122	76.4715
2.116	76.299
2.11	76.0527
2.104	75.8589
2.098	75.672
2.092	75.6742
2.086	75.7591
2.08	75.8631
2.074	75.8624
2.068	75.9253
2.062	76.0433
2.056	76.0692
2.05	76.1429
2.044	76.1919
2.038	76.2195
2.032	76.2578
2.026	76.2561
2.02	76.2046
2.014	76.2218
2.008	76.172
2.002	76.1952
1.996	76.1731
1.99	76.0945
1.984	76.0218
1.978	75.9353
1.972	75.9231
1.966	75.8132
1.96	75.8678
1.954	75.83
1.948	75.7935
1.942	75.8143
1.936	75.822
1.93	75.7803
1.924	75.779
1.918	75.8554
1.912	76.0013
1.906	76.0389
1.9	76.0543
1.894	76.1349
1.888	76.1309
1.882	76.1787
1.876	76.2457
1.87	76.1995
1.864	76.2049
1.858	76.2297
1.852	76.2097
1.846	76.2433
1.84	76.2068
1.834	76.1132
1.828	76.1257
1.822	76.0532
1.816	76.06
1.81	76.0246
1.804	75.9609
1.798	75.9891
1.792	75.8805
1.786	75.8326
1.78	75.7262
1.774	75.7293
1.768	75.6703
1.762	75.6145
1.756	75.5762
1.75	75.6083
1.744	75.5365
1.738	75.5657
1.732	75.5166
1.726	75.4278
1.72	75.5377
1.714	75.4251
1.708	75.3519
1.702	75.242
1.696	75.2201
1.69	75.1117
1.684	75.1513
1.678	75.1012
1.672	75.0564
1.666	75.0148
1.66	75.0556
1.654	75.0059
1.648	74.8549
1.642	74.866
1.636	74.8194
1.63	74.782
1.624	74.7119
1.618	74.6759
1.612	74.6859
1.606	74.572
1.6	74.4668
1.594	74.4861
1.588	74.4009
1.582	74.2176
1.576	74.257
1.57	74.1068
1.564	74.026
1.558	73.894
1.552	73.8025
1.546	73.7388
1.54	73.6755
1.534	73.4839
1.528	73.347
1.522	73.1875
1.516	73.0879
1.51	72.9612
1.504	72.9035
1.498	72.6641
1.492	72.5615
1.486	72.4306
1.48	72.2303
1.474	72.1142
1.468	71.912
1.462	71.7843
1.456	71.5864
1.45	71.5477
1.444	71.3184
1.438	71.2303
1.432	71.0326
1.426	70.8496
1.42	70.7881
1.414	70.638
1.408	70.485
1.402	70.3477
1.396	70.4143
1.39	70.2158
1.384	70.1572
1.378	70.0763
1.372	69.9275
1.366	69.7165
1.36	69.6317
1.354	69.6073
1.348	69.4658
1.342	69.3186
1.336	69.3403
1.33	69.2593
1.324	69.0717
1.318	69.0288
1.312	69.0529
1.306	68.9632
1.3	68.957
1.294	69.0042
1.288	68.9165
1.282	68.8564
1.276	68.8066
1.27	68.9618
1.264	68.8697
1.258	68.884
1.252	68.9049
1.246	68.9234
1.24	68.9669
1.234	69.0074
1.228	69.0358
1.222	69.1019
1.216	69.1996
1.21	69.2498
1.204	69.4008
1.198	69.4388
1.192	69.538
1.186	69.6973
1.18	69.8146
1.174	69.9758
1.168	70.0625
1.162	70.2177
1.156	70.4268
1.15	70.6347
1.144	70.8381
1.138	70.9492
1.132	71.1724
1.126	71.4015
1.12	71.4905
1.114	71.7845
1.108	71.9877
1.102	72.2424
1.096	72.4359
1.09	72.6762
1.084	73.0827
1.078	73.243
1.072	73.4346
1.066	73.7143
1.06	74.048
1.054	74.2855
1.048	74.5486
1.042	74.904
1.036	75.1189
1.03	75.3691
1.024	75.5948
1.018	76.029
1.012	76.2538
1.006	76.5658
1	76.7814
0.994	77.053
0.988	77.3261
0.982	77.5583
0.976	77.8089
0.97	78.0229
0.964	78.3153
0.958	78.5938
0.952	78.7939
0.946	79.0365
0.94	79.2902
0.934	79.4919
0.928	79.7259
0.922	79.9088
0.916	80.0999
0.91	80.2907
0.904	80.4307
0.898	80.6319
0.892	80.8027
0.886	80.925
0.88	81.0684
0.874	81.1565
0.868	81.3246
0.862	81.4465
0.856	81.7523
0.85	81.9639
0.844	82.02
0.838	82.0464
0.832	82.1393
0.826	82.1678
0.82	82.2797
0.814	82.3176
0.808	82.4279
0.802	82.4068
0.796	82.4114
0.79	82.4142
0.784	82.452
0.778	82.432
0.772	82.3886
0.766	82.4122
0.76	82.4231
0.754	82.4382
0.748	82.3929
0.742	82.3636
0.736	82.3657
0.73	82.326
0.724	82.3026
0.718	82.2648
0.712	82.2454
0.706	82.2341
0.7	82.1758
0.694	82.1107
0.688	82.0709
0.682	82.0322
0.676	81.9755
0.67	81.8702
0.664	81.7758
0.658	81.6687
0.652	81.6176
0.646	81.5351
0.64	81.4839
0.634	81.4243
0.628	81.3474
0.622	81.2953
0.616	81.2085
0.61	81.1173
0.604	81.031
0.598	80.9459
0.592	80.8937
0.586	80.7727
0.58	80.6554
0.574	80.5434
0.568	80.4163
0.562	80.2836
0.556	80.121
0.55	79.9262
0.544	79.7143
0.538	79.4803
0.532	79.2338
0.526	78.9468
0.52	78.6629
0.514	78.3512
0.508	78.0417
0.502	77.7514
0.496	77.457
0.49	77.1435
0.484	76.8521
0.478	76.5097
0.472	76.094
0.466	75.5555
0.46	74.8347
0.454	74.0863
0.448	73.4596
0.442	73.0953
0.436	72.7574
0.43	72.2447
0.424	71.6159
0.418	71.389
0.412	71.5801
0.406	71.3836
0.4	70.5066
