Name: Glauconite (K,Na)(Fe^3+,Al,Mg)_2(Si,Al)_4O_10(OH)_2
Type: Mineral
Class: Silicate
Subclass: Phyllosilicate
Particle Size: Fine
Sample No.: PS-19A
Owner: JPL
Wavelength Range: VSWIR
Origin: USA, New Jersey.
Description: Particle size was 0-45um. Collected by:   Ward's Original ASTER Spectral Library name was jpl.perkin.mineral.silicate.phyllosilicate.fine.ps19a.spectrum.txt
Measurement: Hemispherical reflectance
X Units: Wavelength (micrometers)
Y Units: Reflectance (percent)
wavelength	value
2.5	47.7342
2.494	47.7295
2.488	48.0451
2.482	48.0834
2.476	48.3561
2.47	48.6059
2.464	49.0074
2.458	49.2343
2.452	49.6848
2.446	50.0173
2.44	50.3469
2.434	50.6459
2.428	51.0604
2.422	51.351
2.416	51.5513
2.41	51.6896
2.404	51.7572
2.398	51.6265
2.392	51.3369
2.386	50.9629
2.38	50.4664
2.374	50.0371
2.368	49.797
2.362	49.7437
2.356	49.9795
2.35	50.3989
2.344	50.7634
2.338	50.9193
2.332	50.8967
2.326	50.3441
2.32	49.6143
2.314	48.8881
2.308	48.6662
2.302	49.0368
2.296	49.8675
2.29	50.9614
2.284	52.058
2.278	52.6331
2.272	52.9525
2.266	52.9185
2.26	52.8655
2.254	52.8327
2.248	52.963
2.242	53.2946
2.236	53.5869
2.23	54.032
2.224	54.3893
2.218	54.562
2.212	54.9147
2.206	54.9764
2.2	55.0848
2.194	55.2867
2.188	55.3395
2.182	55.4284
2.176	55.5914
2.17	55.6814
2.164	55.7748
2.158	55.761
2.152	55.777
2.146	55.736
2.14	55.6462
2.134	55.5025
2.128	55.263
2.122	54.9751
2.116	54.683
2.11	54.3476
2.104	54.0053
2.098	53.7253
2.092	53.5934
2.086	53.458
2.08	53.2677
2.074	53.1636
2.068	52.9207
2.062	52.7374
2.056	52.5393
2.05	52.3948
2.044	52.1657
2.038	51.9793
2.032	51.6951
2.026	51.4144
2.02	51.1205
2.014	50.7495
2.008	50.4927
2.002	50.1348
1.996	49.7536
1.99	49.3004
1.984	48.9581
1.978	48.5971
1.972	48.2742
1.966	47.9108
1.96	47.5957
1.954	47.2021
1.948	46.8657
1.942	46.5387
1.936	46.2233
1.93	45.7251
1.924	45.2417
1.918	44.6769
1.912	44.2348
1.906	44.1505
1.9	44.6741
1.894	45.5893
1.888	46.1991
1.882	46.4814
1.876	46.6442
1.87	46.5546
1.864	46.5429
1.858	46.3025
1.852	46.0946
1.846	45.7527
1.84	45.5647
1.834	45.3161
1.828	44.9608
1.822	44.7617
1.816	44.448
1.81	44.1393
1.804	43.8983
1.798	43.5707
1.792	43.2663
1.786	42.9364
1.78	42.6472
1.774	42.3031
1.768	42.0614
1.762	41.7429
1.756	41.4545
1.75	41.1489
1.744	40.8727
1.738	40.5858
1.732	40.2036
1.726	39.9107
1.72	39.6145
1.714	39.338
1.708	38.9261
1.702	38.6892
1.696	38.3698
1.69	37.9936
1.684	37.667
1.678	37.3872
1.672	36.9812
1.666	36.7333
1.66	36.3252
1.654	36.1084
1.648	35.7575
1.642	35.489
1.636	35.1143
1.63	34.7623
1.624	34.3894
1.618	34.0756
1.612	33.8218
1.606	33.5538
1.6	33.2129
1.594	32.8491
1.588	32.525
1.582	32.1757
1.576	31.9174
1.57	31.5759
1.564	31.2289
1.558	30.9118
1.552	30.6104
1.546	30.2337
1.54	29.9695
1.534	29.5708
1.528	29.3859
1.522	29.004
1.516	28.6705
1.51	28.3917
1.504	28.026
1.498	27.7217
1.492	27.4104
1.486	27.0883
1.48	26.769
1.474	26.5493
1.468	26.1546
1.462	25.8785
1.456	25.5282
1.45	25.2095
1.444	24.8615
1.438	24.5768
1.432	24.2774
1.426	24.0152
1.42	23.7323
1.414	23.5028
1.408	23.3224
1.402	23.1081
1.396	22.9309
1.39	22.7021
1.384	22.5178
1.378	22.2901
1.372	21.9176
1.366	21.7231
1.36	21.3798
1.354	21.1762
1.348	20.8879
1.342	20.6779
1.336	20.3256
1.33	20.1087
1.324	19.9285
1.318	19.6131
1.312	19.3559
1.306	19.1329
1.3	18.9342
1.294	18.6894
1.288	18.4822
1.282	18.2899
1.276	18.0582
1.27	17.8741
1.264	17.6047
1.258	17.4064
1.252	17.1954
1.246	17.0154
1.24	16.8382
1.234	16.6041
1.228	16.4113
1.222	16.254
1.216	16.0885
1.21	15.9377
1.204	15.8024
1.198	15.5838
1.192	15.4517
1.186	15.3247
1.18	15.219
1.174	15.056
1.168	14.9244
1.162	14.8406
1.156	14.7248
1.15	14.6457
1.144	14.5857
1.138	14.4744
1.132	14.3865
1.126	14.3804
1.12	14.2927
1.114	14.2533
1.108	14.2173
1.102	14.1716
1.096	14.1893
1.09	14.1755
1.084	14.1205
1.078	14.0637
1.072	14.2288
1.066	14.1923
1.06	14.2215
1.054	14.1701
1.048	14.2055
1.042	14.2039
1.036	14.2406
1.03	14.2819
1.024	14.3201
1.018	14.3653
1.012	14.3157
1.006	14.4303
1	14.4105
0.994	14.4474
0.988	14.4244
0.982	14.4827
0.976	14.4963
0.97	14.5207
0.964	14.5428
0.958	14.5369
0.952	14.6573
0.946	14.6977
0.94	14.7088
0.934	14.7897
0.928	14.8481
0.922	14.9246
0.916	15.0357
0.91	15.0896
0.904	15.2234
0.898	15.323
0.892	15.4278
0.886	15.484
0.88	15.5448
0.874	15.6486
0.868	15.7725
0.862	15.7348
0.856	15.848
0.85	15.8952
0.844	15.897
0.838	15.8632
0.832	15.8369
0.826	15.7732
0.82	15.6928
0.814	15.5964
0.808	15.4935
0.802	15.3819
0.796	15.2753
0.79	15.1831
0.784	15.0894
0.778	15.0146
0.772	14.9713
0.766	14.96
0.76	14.9595
0.754	15.0157
0.748	15.0916
0.742	15.1966
0.736	15.3421
0.73	15.5098
0.724	15.7113
0.718	15.9464
0.712	16.2082
0.706	16.4836
0.7	16.7955
0.694	17.1243
0.688	17.4607
0.682	17.8234
0.676	18.1486
0.67	18.5362
0.664	18.9347
0.658	19.3432
0.652	19.7683
0.646	20.1985
0.64	20.6543
0.634	21.128
0.628	21.6168
0.622	22.1368
0.616	22.6707
0.61	23.2252
0.604	23.8001
0.598	24.3853
0.592	24.9741
0.586	25.5412
0.58	26.0829
0.574	26.5826
0.568	26.9969
0.562	27.2986
0.556	27.4372
0.55	27.4711
0.544	27.4067
0.538	27.2172
0.532	26.8551
0.526	26.3688
0.52	25.8831
0.514	25.4063
0.508	24.8631
0.502	24.2575
0.496	23.6503
0.49	23.0641
0.484	22.3083
0.478	21.4265
0.472	20.359
0.466	19.2733
0.46	18.3281
0.454	17.5361
0.448	16.8895
0.442	16.4481
0.436	16.0186
0.43	15.4795
0.424	14.9054
0.418	14.2899
0.412	13.6923
0.406	13.1385
0.4	12.6134
