Name: Biotite K(Mg,Fe+2)3(Al,Fe+3)Si3O10(OH,F)2
Type: Mineral
Class: Silicate
Subclass: Phyllosilicate
Particle Size: Fine
Sample No.: biotite_1
Owner: JHU
Wavelength Range: TIR
Origin: Source Smithsonian NMNH 78303 Sample from Wakefield,Quebec, Canada.
Description: Sample consisted of four large (5 cm x 5 cm x 3 cm) pieces of a single hexagonal "book" weighing 15.7 g. A 1 mm sample was dark brown in color, while a thin cleavage flake was tan. Despite the high magnesium content (see ancillary file), cleavage surfaces do not display the coppery glint typical of phlogopite. Sample was pure except for a very few (much less than 1%) opaque inclusions. (Mica Group) Particle size was Less than 2 Micrometers. Original ASTER Spectral Library name was jhu.nicolet.mineral.silicate.phyllosilicate.powder.biotit1.spectrum.txt
Measurement: Transmission
X Units: Wavelength (micrometers)
Y Units: Transmittance (percent)
wavelength	value
25.0442	53.6717
24.3388	47.9374
23.6719	40.8632
23.0407	32.871
22.4422	26.6659
21.8741	23.5253
21.334	25.6503
20.8199	34.8085
20.33	41.8143
19.8627	47.828
19.4163	53.6034
18.9896	61.2352
18.5812	69.0047
18.19	75.3318
17.815	79.743
17.4551	81.5633
17.1094	80.6297
16.7772	79.2312
16.4576	78.451
16.15	78.4158
15.8537	79.3728
15.568	79.4891
15.2925	79.032
15.0265	79.0857
14.7697	77.8709
14.5214	75.8367
14.2814	76.8699
14.0492	77.1004
13.8244	77.4197
13.6067	78.8592
13.3957	80.2967
13.1912	80.5701
12.9929	81.4104
12.8004	82.5584
12.6135	83.3675
12.432	82.8826
12.2557	84.3806
12.0843	88.3845
11.9176	87.7107
11.7555	84.2405
11.5977	81.3416
11.444	78.4085
11.2944	75.1819
11.1487	69.3123
11.0067	63.6541
10.8682	58.9007
10.7332	52.7289
10.6015	43.432
10.473	31.2861
10.3476	23.2831
10.2251	21.0244
10.1056	17.726
9.9887	15.3208
9.8746	20.0849
9.763	28.6708
9.6539	36.6855
9.5472	43.6957
9.4429	48.7987
9.3408	52.7313
9.2409	57.3182
9.1431	63.1219
9.0474	69.6678
8.9536	74.848
8.8618	78.2913
8.7718	80.4266
8.6837	82.2537
8.5973	84.0081
8.5126	85.3904
8.4295	86.5803
8.3481	87.7952
8.2682	88.8474
8.1898	89.6445
8.1129	90.3357
8.0374	90.7783
7.9634	91.1846
7.8906	91.6658
7.8192	92.0711
7.7491	92.2608
7.6802	92.5173
7.6126	92.9844
7.5461	93.1836
7.4807	93.3604
7.4165	93.4746
7.3534	93.6912
7.2914	93.8633
7.2303	94.054
7.1703	93.7478
7.1113	93.6794
7.0533	93.5361
6.9962	93.2253
6.94	92.3269
6.8847	92.5684
6.8302	93.3572
6.7767	93.5603
6.7239	93.7695
6.672	94.2664
6.6209	94.7078
6.5705	94.8398
6.5209	94.7
6.4721	94.7253
6.424	94.5857
6.3766	94.2556
6.3299	93.8438
6.2838	93.0332
6.2385	91.6775
6.1937	89.9385
6.1496	89.1502
6.1062	90.155
6.0633	90.9522
6.0211	90.0857
5.9794	90.2158
5.9383	92.7647
5.8978	94.5342
5.8578	95.4775
5.8184	95.8533
5.7794	96.0193
5.741	96.1492
5.7031	96.1794
5.6657	96.2168
5.6288	96.293
5.5924	96.3718
5.5564	96.4402
5.5209	96.5049
5.4859	96.5703
5.4513	96.7031
5.4171	96.832
5.3833	96.8816
5.35	97.0134
5.3171	97.1121
5.2846	97.1719
5.2524	97.2478
5.2207	97.28
5.1893	97.3164
5.1584	97.3701
5.1277	97.3926
5.0975	97.3975
5.0676	97.3962
5.038	97.4094
5.0088	97.4866
4.98	97.5422
4.9514	97.5862
4.9232	97.6096
4.8953	97.5906
4.8678	97.6731
4.8405	97.717
4.8135	97.7385
4.7868	97.7873
4.7605	97.8401
4.7344	97.8918
4.7086	97.9324
4.6831	97.9397
4.6578	97.9719
4.6328	98.0789
4.6081	98.1316
4.5837	98.1584
4.5595	98.1169
4.5356	98.1399
4.5119	98.1599
4.4884	98.1877
4.4652	98.2073
4.4423	98.2375
4.4196	98.2522
4.3971	98.3288
4.3748	98.3552
4.3528	98.3655
4.331	98.3874
4.3094	98.387
4.288	98.3913
4.2668	98.4055
4.2458	98.4626
4.2251	98.5056
4.2045	98.4534
4.1841	98.5281
4.164	98.5544
4.144	98.5505
4.1242	98.6487
4.1046	98.696
4.0852	98.6482
4.066	98.6506
4.047	98.6736
4.0281	98.7366
4.0094	98.782
3.9909	98.7537
3.9725	98.7541
3.9544	98.7834
3.9363	98.8127
3.9185	98.9158
3.9008	98.9026
3.8833	98.8181
3.8659	98.8108
3.8487	98.8328
3.8316	98.8845
3.8147	98.9104
3.7979	98.8557
3.7813	98.8787
3.7648	98.8791
3.7485	98.8435
3.7323	98.8913
3.7162	98.8894
3.7003	98.8689
3.6845	98.885
3.6689	98.8205
3.6534	98.8386
3.638	98.9246
3.6227	98.8357
3.6076	98.8279
3.5926	98.7732
3.5777	98.8811
3.563	98.7952
3.5484	98.7873
3.5338	98.9392
3.5195	99.01
3.5052	99.1521
3.491	99.2053
3.477	99.1311
3.463	99.1975
3.4492	99.303
3.4355	99.2537
3.4219	99.2541
3.4084	98.9729
3.395	98.8611
3.3817	98.7092
3.3685	98.5388
3.3554	98.3381
3.3425	98.2092
3.3296	98.2615
3.3168	98.1565
3.3041	98.1394
3.2915	97.9983
3.279	97.9358
3.2666	97.9646
3.2543	97.8557
3.2421	97.7522
3.23	97.6013
3.218	97.4958
3.206	97.4548
3.1942	97.3718
3.1824	97.2683
3.1707	97.0886
3.1591	96.865
3.1476	96.49
3.1362	96.0984
3.1249	95.6873
3.1136	95.5007
3.1024	95.6453
3.0913	95.5144
3.0803	95.2087
3.0694	94.9802
3.0585	94.9783
3.0477	95.1062
3.037	94.74
3.0264	94.2908
3.0158	93.7058
3.0053	93.0388
2.9949	92.5271
2.9845	91.9695
2.9743	91.1716
2.9641	90.0427
2.9539	89.0056
2.9439	88.3982
2.9339	87.7556
2.9239	87.2107
2.9141	87.0047
2.9043	87.1736
2.8946	87.5369
2.8849	88.0486
2.8753	88.5828
2.8658	89.1326
2.8563	90.0593
2.8469	90.7029
2.8375	91.1921
2.8282	91.5437
2.819	91.9412
2.8098	92.199
2.8007	92.6101
2.7917	93.1023
2.7827	93.6404
2.7738	94.3064
2.7649	94.8259
2.7561	95.1843
2.7473	95.4968
2.7386	95.4226
2.7299	95.1443
2.7213	95.4226
2.7128	95.2419
2.7043	94.6687
2.6959	94.4802
2.6875	96.3835
2.6791	98.0203
2.6709	98.2156
2.6626	98.0906
2.6545	98.0906
2.6463	98.0203
2.6382	98.1062
2.6302	98.1912
2.6222	98.1414
2.6143	97.9187
2.6064	97.9343
2.5986	97.8669
2.5908	98.2185
2.583	98.1853
2.5753	98.115
2.5677	97.8787
2.5601	97.9236
2.5525	97.908
2.545	97.9021
2.5375	97.9099
2.5301	97.781
2.5227	97.6208
2.5154	97.8747
2.5081	97.9333
2.5008	97.7966
2.4936	97.7224
2.4864	97.7947
2.4793	97.7244
2.4722	97.4822
2.4651	97.7302
2.4581	97.6794
2.4511	97.5798
2.4442	97.4001
2.4373	97.4724
2.4305	97.488
2.4236	97.6872
2.4169	97.6013
2.4101	97.5896
2.4034	97.5642
2.3967	97.5896
2.3901	97.408
2.3835	97.2361
2.377	97.4373
2.3704	97.3376
2.364	97.2693
2.3575	97.324
2.3511	97.4548
2.3447	97.4138
2.3384	97.1912
2.3321	97.0388
2.3258	97.0564
2.3195	97.0623
2.3133	97.1248
2.3071	97.2615
2.301	97.3474
2.2949	97.0271
2.2888	96.8865
2.2828	97.074
2.2767	97.0173
2.2708	97.3298
2.2648	97.3279
2.2589	97.0955
2.253	97.0857
2.2471	97.1189
2.2413	96.9919
2.2355	97.1501
2.2297	97.1892
2.224	97.1111
2.2183	97.1033
2.2126	97.0232
2.207	97.0798
2.2013	97.0564
2.1957	96.9451
2.1902	97.2029
2.1846	97.2537
2.1791	96.4373
2.1736	96.9099
2.1682	97.0427
2.1628	97.1443
2.1574	97.3201
2.152	96.8044
2.1466	96.8083
2.1413	96.7107
2.136	96.8787
2.1308	97.0779
2.1255	96.7693
2.1203	96.699
2.1151	96.8357
2.11	96.7927
2.1048	96.7654
2.0997	97.0193
2.0946	96.8904
2.0895	96.7732
2.0845	97.2888
2.0795	96.8162
