Name: Calcite CaCO_3
Type: Mineral
Class: Carbonate
Subclass: None
Particle Size: Fine
Sample No.: C-3E
Owner: JPL
Wavelength Range: VSWIR
Origin: None.
Description: Particle size was 0-45um.Collected by:  JPL Original ASTER Spectral Library name was jpl.perkin.mineral.carbonate.none.fine.c03e.spectrum.txt
Measurement: Hemispherical reflectance
X Units: Wavelength (micrometers)
Y Units: Reflectance (percent)
wavelength	value
2.5	71.843
2.494	72.1483
2.488	72.861
2.482	73.8407
2.476	74.9679
2.47	76.4359
2.464	77.9806
2.458	79.315
2.452	80.5357
2.446	81.4535
2.44	82.3537
2.434	83.1324
2.428	83.7955
2.422	84.2966
2.416	84.8547
2.41	85.1699
2.404	85.3766
2.398	85.4196
2.392	85.6061
2.386	85.5718
2.38	85.4176
2.374	84.8221
2.368	83.6383
2.362	82.0831
2.356	80.0081
2.35	77.9461
2.344	76.3856
2.338	75.7525
2.332	76.0126
2.326	76.7581
2.32	77.7734
2.314	78.6341
2.308	79.1714
2.302	79.6422
2.296	80.1004
2.29	80.683
2.284	81.4167
2.278	82.2748
2.272	83.2043
2.266	84.0155
2.26	84.6896
2.254	85.2394
2.248	85.7688
2.242	86.26
2.236	86.6922
2.23	87.0643
2.224	87.3883
2.218	87.7778
2.212	88.0681
2.206	88.3615
2.2	88.5498
2.194	88.7099
2.188	88.8242
2.182	88.9793
2.176	88.8157
2.17	88.8642
2.164	88.7847
2.158	88.8552
2.152	89.0736
2.146	89.1918
2.14	89.5131
2.134	89.7713
2.128	89.7003
2.122	89.508
2.116	89.353
2.11	89.1214
2.104	88.969
2.098	88.8871
2.092	88.98
2.086	89.0449
2.08	89.2464
2.074	89.2398
2.068	89.3706
2.062	89.3993
2.056	89.4767
2.05	89.6119
2.044	89.6479
2.038	89.5548
2.032	89.5984
2.026	89.4628
2.02	89.2877
2.014	89.2594
2.008	88.911
2.002	88.4359
1.996	88.1818
1.99	88.2822
1.984	88.6335
1.978	88.7259
1.972	88.7367
1.966	88.6987
1.96	88.8206
1.954	89.0061
1.948	89.0371
1.942	89.1683
1.936	89.242
1.93	89.3617
1.924	89.5186
1.918	89.5488
1.912	89.6167
1.906	89.6804
1.9	89.8159
1.894	89.6937
1.888	89.5939
1.882	89.0615
1.876	89.0293
1.87	89.2586
1.864	89.6386
1.858	89.9192
1.852	90.0471
1.846	90.1054
1.84	90.2696
1.834	90.34
1.828	90.558
1.822	90.5306
1.816	90.6296
1.81	90.678
1.804	90.6815
1.798	90.7061
1.792	90.8054
1.786	90.818
1.78	90.7939
1.774	90.7751
1.768	90.631
1.762	90.52
1.756	90.5289
1.75	90.6223
1.744	90.6091
1.738	90.6774
1.732	90.6125
1.726	90.6997
1.72	90.7445
1.714	90.7897
1.708	90.7802
1.702	90.7237
1.696	90.758
1.69	90.8743
1.684	90.8075
1.678	90.7678
1.672	90.8163
1.666	90.8345
1.66	90.8264
1.654	90.9087
1.648	90.7817
1.642	90.7441
1.636	90.7903
1.63	90.8015
1.624	90.8292
1.618	90.8402
1.612	90.8527
1.606	90.8361
1.6	90.8415
1.594	90.7893
1.588	90.8185
1.582	90.8366
1.576	90.8041
1.57	90.7492
1.564	90.7464
1.558	90.6845
1.552	90.749
1.546	90.6983
1.54	90.6857
1.534	90.6713
1.528	90.6097
1.522	90.7558
1.516	90.5462
1.51	90.6502
1.504	90.6626
1.498	90.6383
1.492	90.6676
1.486	90.5411
1.48	90.5462
1.474	90.5564
1.468	90.5596
1.462	90.5979
1.456	90.5319
1.45	90.5453
1.444	90.5375
1.438	90.5443
1.432	90.5947
1.426	90.5657
1.42	90.5217
1.414	90.4968
1.408	90.5272
1.402	90.5524
1.396	90.6533
1.39	90.6002
1.384	90.7703
1.378	90.7013
1.372	90.6267
1.366	90.7553
1.36	90.8028
1.354	90.7099
1.348	90.699
1.342	90.811
1.336	90.6842
1.33	90.7429
1.324	90.6849
1.318	90.7317
1.312	90.7777
1.306	90.7101
1.3	90.7463
1.294	90.744
1.288	90.7089
1.282	90.7279
1.276	90.7073
1.27	90.7569
1.264	90.685
1.258	90.7487
1.252	90.7708
1.246	90.737
1.24	90.6067
1.234	90.6186
1.228	90.7179
1.222	90.6354
1.216	90.6457
1.21	90.6326
1.204	90.6164
1.198	90.5655
1.192	90.5776
1.186	90.6044
1.18	90.5822
1.174	90.6149
1.168	90.5954
1.162	90.6081
1.156	90.5932
1.15	90.6043
1.144	90.5835
1.138	90.6788
1.132	90.555
1.126	90.5882
1.12	90.6005
1.114	90.6644
1.108	90.6301
1.102	90.591
1.096	90.6695
1.09	90.6502
1.084	90.7909
1.078	90.7698
1.072	90.7744
1.066	90.7553
1.06	90.7082
1.054	90.7604
1.048	90.866
1.042	90.9489
1.036	90.9031
1.03	90.8876
1.024	90.8772
1.018	90.9506
1.012	91.0493
1.006	90.9474
1	91.014
0.994	91.0307
0.988	91.0433
0.982	91.0196
0.976	91.1173
0.97	91.1568
0.964	91.1165
0.958	91.2082
0.952	91.1914
0.946	91.2162
0.94	91.173
0.934	91.2999
0.928	91.2899
0.922	91.3225
0.916	91.3012
0.91	91.3496
0.904	91.3449
0.898	91.397
0.892	91.4297
0.886	91.3901
0.88	91.4058
0.874	91.4763
0.868	91.4578
0.862	91.4429
0.856	91.4631
0.85	91.4989
0.844	91.5493
0.838	91.514
0.832	91.5483
0.826	91.646
0.82	91.6647
0.814	91.6214
0.808	91.5959
0.802	91.5685
0.796	91.5146
0.79	91.5429
0.784	91.531
0.778	91.5161
0.772	91.4161
0.766	91.4177
0.76	91.4203
0.754	91.4201
0.748	91.3771
0.742	91.3515
0.736	91.3271
0.73	91.3219
0.724	91.2898
0.718	91.2836
0.712	91.2494
0.706	91.2005
0.7	91.1894
0.694	91.1876
0.688	91.1304
0.682	91.1224
0.676	91.075
0.67	91.0331
0.664	91.0316
0.658	91.0131
0.652	90.974
0.646	90.9101
0.64	90.8837
0.634	90.8382
0.628	90.7849
0.622	90.7168
0.616	90.6709
0.61	90.6169
0.604	90.5204
0.598	90.5048
0.592	90.4799
0.586	90.3845
0.58	90.3038
0.574	90.1841
0.568	90.0621
0.562	89.9575
0.556	89.8028
0.55	89.642
0.544	89.4907
0.538	89.3474
0.532	89.153
0.526	89.0159
0.52	88.8541
0.514	88.6848
0.508	88.5073
0.502	88.331
0.496	88.1413
0.49	87.9129
0.484	87.7423
0.478	87.4714
0.472	87.2703
0.466	87.059
0.46	86.8489
0.454	86.5751
0.448	86.297
0.442	85.9946
0.436	85.6362
0.43	85.2515
0.424	84.8383
0.418	84.3852
0.412	83.9035
0.406	83.3781
0.4	82.8091
