Name: Realgar AsS
Type: Mineral
Class: Sulfide
Subclass: None
Particle Size: Medium
Sample No.: S-3A
Owner: JPL
Wavelength Range: TIR
Description: Particle size was 45-125um.Collected by JPL Original ASTER Spectral Library name was jpl.nicolet.mineral.sulfide.none.medium.s03a.spectrum.txt
Measurement: Hemispherical reflectance
X Units: Wavelength (micrometers)
Y Units: Reflectance (percent)
wavelength	value
15.3853	32.7342
15.1161	27.9517
14.8563	22.012
14.6052	19.5253
14.3624	17.6046
14.1276	24.2215
13.9004	23.2175
13.6803	26.8893
13.4671	30.22
13.2604	34.6845
13.06	36.1936
12.8656	35.48
12.6769	33.7497
12.4936	34.6062
12.3155	34.1726
12.1425	35.0219
11.9742	36.4452
11.8106	38.7672
11.6513	42.7272
11.4963	44.7964
11.3454	46.4194
11.1983	48.1544
11.0551	49.7715
10.9154	51.0285
10.7793	52.9734
10.6465	54.9534
10.5169	56.5278
10.3904	57.392
10.267	57.2367
10.1464	56.0117
10.0287	54.8719
9.9136	53.7928
9.8012	52.0529
9.6913	50.5005
9.5838	49.7175
9.4787	49.8547
9.3758	51.4496
9.2752	52.6995
9.1767	53.5854
9.0803	54.2218
8.9858	54.6359
8.8934	55.4894
8.8028	56.4087
8.714	57.2295
8.627	58.4208
8.5417	59.9852
8.4581	61.5975
8.3761	63.2048
8.2957	64.5057
8.2169	65.6022
8.1395	66.531
8.0635	67.0243
7.989	67.2594
7.9158	67.1811
7.8439	68.0855
7.7734	68.8076
7.7041	69.1994
7.636	69.4369
7.5691	69.8467
7.5034	69.9089
7.4388	69.9564
7.3753	69.7696
7.3129	69.63
7.2515	69.4388
7.1912	69.4566
7.1318	68.7761
7.0734	67.8586
7.016	67.294
6.9595	67.5129
6.9039	67.2653
6.8492	67.6726
6.7953	68.8625
6.7423	69.6656
6.6901	70.1939
6.6387	70.6466
6.5881	69.9158
6.5382	69.2304
6.4892	69.3549
6.4408	67.745
6.3931	66.6393
6.3462	65.4242
6.2999	62.8832
6.2543	60.0812
6.2094	57.1097
6.1651	54.6149
6.1214	52.9095
6.0784	52.6812
6.0359	53.6562
5.994	55.7158
5.9527	58.2962
5.912	61.3029
5.8718	64.6414
5.8322	67.7416
5.7931	70.3353
5.7545	72.9216
5.7165	75.0139
5.6789	76.4547
5.6418	77.8284
5.6052	78.3872
5.5691	79.1975
5.5334	79.6591
5.4982	80.1046
5.4635	80.4829
5.4291	80.6999
5.3952	80.8891
5.3618	80.9686
5.3287	81.0404
5.2961	81.1624
5.2638	81.1567
5.2319	81.1647
5.2004	81.02
5.1693	80.8352
5.1386	80.7069
5.1082	80.407
5.0782	80.2007
5.0485	79.9216
5.0192	79.5821
4.9902	79.2731
4.9616	78.9581
4.9332	78.6432
4.9052	78.2466
4.8776	78.052
4.8502	77.7329
4.8231	77.4246
4.7963	77.2464
4.7699	77.0213
4.7437	76.8715
4.7178	76.7521
4.6922	76.7209
4.6668	76.7464
4.6418	76.6699
4.617	76.7117
4.5924	76.8038
4.5681	76.9787
4.5441	77.1119
4.5203	77.1866
4.4968	77.3275
4.4735	77.4762
4.4505	77.5384
4.4277	77.6664
4.4051	77.8163
4.3828	77.8854
4.3607	77.9818
4.3388	77.9774
4.3171	77.8317
4.2956	77.5978
4.2744	77.4491
4.2534	78.0286
4.2325	77.5277
4.2119	78.1787
4.1915	78.6158
4.1712	78.6434
4.1512	78.7192
4.1313	78.7945
4.1117	78.9725
4.0922	79.0723
4.0729	79.1154
4.0538	79.3245
4.0349	79.4535
4.0161	79.6028
3.9976	79.719
3.9792	79.7845
3.9609	79.8628
3.9428	79.972
3.9249	79.9435
3.9072	79.9838
3.8896	79.8275
3.8722	79.798
3.8549	79.7096
3.8378	79.3967
3.8208	79.2168
3.804	78.9626
3.7873	78.7508
3.7708	78.4194
3.7544	78.0459
3.7382	77.6327
3.7221	77.2842
3.7061	76.9225
3.6903	76.353
3.6746	75.9107
3.659	75.389
3.6436	75.0034
3.6283	74.3537
3.6131	73.7711
3.5981	73.1989
3.5832	72.4872
3.5684	71.8549
3.5537	71.1534
3.5391	70.3827
3.5247	69.3903
3.5104	67.749
3.4962	66.9187
3.4821	66.6605
3.4681	65.9657
3.4543	65.1523
3.4405	63.9452
3.4269	62.3296
3.4133	61.4116
3.3999	61.7127
3.3866	61.1165
3.3733	60.2548
3.3602	60.1922
3.3472	59.6682
3.3343	58.8035
3.3215	57.8934
3.3088	56.9605
3.2961	55.9124
3.2836	54.9694
3.2712	53.8795
3.2588	52.9716
3.2466	51.9434
3.2345	50.8513
3.2224	49.9143
3.2104	48.8053
3.1985	47.7039
3.1867	46.7423
3.175	45.6045
3.1634	44.6213
3.1519	43.5505
3.1404	42.6684
3.129	41.8505
3.1178	41.087
3.1065	40.3215
3.0954	39.8352
3.0844	39.2711
3.0734	38.8318
3.0625	38.677
3.0517	38.2941
3.041	37.9615
3.0303	37.7963
3.0197	37.6418
3.0092	37.3377
2.9987	37.1721
2.9884	36.83
2.9781	36.5873
2.9678	36.5229
2.9577	36.4582
2.9476	36.4765
2.9376	36.5513
2.9276	36.61
2.9177	36.9959
2.9079	37.4395
2.8982	37.8169
2.8885	38.4273
2.8789	39.0458
2.8693	39.678
2.8598	40.6015
2.8504	41.2712
2.841	42.3615
2.8317	43.3686
2.8224	44.3179
2.8133	45.7168
2.8041	47.3185
2.7951	48.6289
2.786	50.346
2.7771	51.9873
2.7682	54.1669
2.7594	56.1189
2.7506	58.7192
2.7418	61.9694
2.7332	65.2106
2.7246	69.6569
2.716	73.5067
2.7075	77.0251
2.699	79.9055
2.6906	81.9397
2.6823	83.2956
2.674	84.214
2.6657	85.4255
2.6575	85.3294
2.6494	85.651
2.6413	86.118
2.6332	86.4537
2.6252	86.6745
2.6173	87.077
2.6094	87.2263
2.6015	87.0961
2.5937	87.9035
2.5859	87.4819
2.5782	87.4053
2.5706	87.5714
2.5629	87.7325
2.5554	87.3358
2.5478	87.5038
2.5403	87.4093
2.5329	87.4604
2.5255	87.5004
2.5181	87.5373
2.5108	87.5499
2.5035	87.5631
2.4963	87.6771
2.4891	87.8609
2.482	87.9543
2.4749	88.0072
2.4678	88.2413
2.4608	88.2517
2.4538	88.4397
2.4468	88.4833
2.4399	88.6952
2.4331	88.9054
2.4262	88.744
2.4194	88.9044
2.4127	88.8348
2.4059	89.2596
2.3993	89.1354
2.3926	89.056
2.386	89.3673
2.3795	89.4741
2.3729	89.428
2.3664	89.6424
2.36	89.5962
2.3535	89.3908
2.3471	89.5634
2.3408	89.5564
2.3345	89.6413
2.3282	89.6272
2.3219	89.7561
2.3157	89.6326
2.3095	89.7119
2.3034	89.7658
2.2972	89.7678
2.2911	89.8461
2.2851	89.8562
2.279	89.8458
2.2731	89.7882
2.2671	89.7992
2.2612	89.7807
2.2553	89.928
2.2494	89.9121
2.2435	89.8332
2.2377	89.995
2.232	90.035
2.2262	90.0503
2.2205	89.9095
2.2148	90.0286
2.2091	90.0007
2.2035	89.9015
2.1979	90.0161
2.1923	89.9427
2.1868	90.0328
2.1812	90.0243
2.1758	89.9681
2.1703	89.6402
2.1649	90.034
2.1595	89.9262
2.1541	89.8215
2.1487	89.696
2.1434	89.6802
2.1381	89.7473
2.1328	89.8712
2.1275	89.763
2.1223	89.6553
2.1171	89.8139
2.112	89.7479
2.1068	89.5017
2.1017	89.6858
2.0966	89.5972
2.0915	89.4705
2.0865	89.6362
2.0814	89.2018
2.0764	89.3957
2.0715	89.4208
2.0665	89.3422
2.0616	89.2489
2.0567	89.1773
2.0518	89.3058
2.0469	89.1459
2.0421	88.988
2.0373	89.0324
2.0325	89.187
2.0277	88.9681
2.0229	88.9231
2.0182	88.8899
2.0135	88.5178
2.0088	88.5406
2.0042	88.6586
