Name: Grossular Ca3Al2(Si04)3
Type: Mineral
Class: Silicate
Subclass: Nesosilicate
Particle Size: Fine
Sample No.: grossul_2
Owner: JHU
Wavelength Range: TIR
Origin: Sample from Pear Gillis Farm, Beach Glen, Buncombe Co.,North Carolina via the Smithsonian (sample no. NMNH 155371).
Description: The sample was a spherical cluster of small crystals about 1.5 cm in diameter.  Green interstitial material, probably diopside, occurred between many small brown euhedral crystals of grossular, which were hand-picked from the crushed sample.  Under the petrographic microscope, a very small amount of alteration of grossular crystals was seen. Particle size was Less than 2 Micrometers. (Isolated Tetrahedra); Garnet Group Original ASTER Spectral Library name was jhu.nicolet.mineral.silicate.nesosilicate.powder.grossu2.spectrum.txt
Measurement: Transmission
X Units: Wavelength (micrometers)
Y Units: Transmittance (percent)
wavelength	value
25.0442	48.9061
24.3388	52.5819
23.6719	40.6366
23.0407	25.1972
22.4422	14.6757
21.8741	16.0332
21.334	15.7519
20.8199	21.0078
20.33	29.8691
19.8627	34.5243
19.4163	47.6151
18.9896	52.2313
18.5812	32.703
18.19	40.4892
17.815	60.2664
17.4551	69.786
17.1094	74.993
16.7772	77.7586
16.4576	72.3494
16.15	68.9744
15.8537	81.9529
15.568	84.367
15.2925	86.4002
15.0265	87.6414
14.7697	88.031
14.5214	88.1228
14.2814	87.7009
14.0492	86.4265
13.8244	85.4495
13.6067	83.9588
13.3957	82.0037
13.1912	77.9549
12.9929	74.9022
12.8004	70.2816
12.6135	62.8436
12.432	50.8749
12.2557	37.2211
12.0843	23.8251
11.9176	14.289
11.7555	14.0781
11.5977	12.7387
11.444	23.6386
11.2944	37.5648
11.1487	30.1796
11.0067	10.7446
10.8682	10.9048
10.7332	17.1899
10.6015	20.0175
10.473	22.246
10.3476	33.2563
10.2251	45.452
10.1056	52.8768
9.9887	56.411
9.8746	58.9081
9.763	60.8651
9.6539	61.7777
9.5472	63.4442
9.4429	65.4979
9.3408	67.8475
9.2409	69.0862
9.1431	70.2518
9.0474	71.6297
8.9536	72.6629
8.8618	73.7869
8.7718	75.7273
8.6837	78.6624
8.5973	81.7029
8.5126	83.8806
8.4295	85.9883
8.3481	87.8203
8.2682	89.448
8.1898	90.74
8.1129	91.5535
8.0374	92.1631
7.9634	92.8684
7.8906	93.3367
7.8192	93.7019
7.7491	93.8689
7.6802	93.9763
7.6126	94.1985
7.5461	94.3555
7.4807	94.3584
7.4165	94.303
7.3534	94.2029
7.2914	94.0701
7.2303	93.5088
7.1703	93.7
7.1113	93.3503
7.0533	92.7022
6.9962	92.7253
6.94	93.1013
6.8847	93.4443
6.8302	93.5615
6.7767	93.7918
6.7239	94.0085
6.672	94.3225
6.6209	94.5762
6.5705	94.9316
6.5209	95.1248
6.4721	95.3965
6.424	95.55
6.3766	95.6272
6.3299	95.6213
6.2838	95.5847
6.2385	95.4036
6.1937	94.8652
6.1496	93.9883
6.1062	93.7461
6.0633	94.0098
6.0211	94.8992
5.9794	95.9395
5.9383	95.6912
5.8978	95.5251
5.8578	95.6885
5.8184	95.9714
5.7794	96.1494
5.741	96.3945
5.7031	96.5066
5.6657	96.5857
5.6288	96.5886
5.5924	96.6328
5.5564	96.5478
5.5209	96.6052
5.4859	96.6133
5.4513	96.6716
5.4171	96.7607
5.3833	96.7803
5.35	96.8125
5.3171	96.8767
5.2846	96.8738
5.2524	96.9172
5.2207	97.0068
5.1893	96.958
5.1584	96.9658
5.1277	96.905
5.0975	96.8367
5.0676	96.7256
5.038	96.7097
5.0088	96.6799
4.98	96.6755
4.9514	96.5613
4.9232	96.4983
4.8953	96.47
4.8678	96.4202
4.8405	96.3816
4.8135	96.3293
4.7868	96.3284
4.7605	96.2224
4.7344	96.1736
4.7086	96.1135
4.6831	96.1101
4.6578	96.0193
4.6328	96.031
4.6081	96.1282
4.5837	95.9607
4.5595	95.8655
4.5356	95.844
4.5119	95.738
4.4884	95.6936
4.4652	95.5994
4.4423	95.512
4.4196	95.4475
4.3971	95.3889
4.3748	95.3708
4.3528	95.2766
4.331	95.2542
4.3094	95.0764
4.288	95.0608
4.2668	94.95
4.2458	94.9304
4.2251	94.7937
4.2045	94.7459
4.1841	94.6707
4.164	94.6101
4.144	94.5227
4.1242	94.4578
4.1046	94.3738
4.0852	94.3123
4.066	94.2664
4.047	94.2156
4.0281	94.0369
4.0094	93.905
3.9909	93.7581
3.9725	93.6423
3.9544	93.6585
3.9363	93.6394
3.9185	93.592
3.9008	93.4451
3.8833	93.385
3.8659	93.2048
3.8487	93.2
3.8316	93.0828
3.8147	93.0017
3.7979	92.9109
3.7813	92.8152
3.7648	92.6545
3.7485	92.6804
3.7323	92.5276
3.7162	92.322
3.7003	92.2019
3.6845	92.1116
3.6689	91.949
3.6534	91.8284
3.638	91.7566
3.6227	91.6345
3.6076	91.4983
3.5926	91.3967
3.5777	91.2854
3.563	91.1658
3.5484	90.989
3.5338	90.8577
3.5195	90.7483
3.5052	90.6902
3.491	90.4846
3.477	90.2839
3.463	90.2073
3.4492	90.1052
3.4355	90.0193
3.4219	89.9275
3.4084	89.6599
3.395	89.5198
3.3817	89.4256
3.3685	89.4353
3.3554	89.2009
3.3425	89.0628
3.3296	88.9099
3.3168	88.8694
3.3041	88.7459
3.2915	88.5681
3.279	88.4041
3.2666	88.2986
3.2543	88.1189
3.2421	87.992
3.23	87.7947
3.218	87.7127
3.206	87.5764
3.1942	87.3152
3.1824	87.1443
3.1707	86.9109
3.1591	86.6824
3.1476	86.4002
3.1362	86.1843
3.1249	85.9744
3.1136	85.6912
3.1024	85.3103
3.0913	84.8914
3.0803	84.5203
3.0694	84.2937
3.0585	83.8806
3.0477	83.5828
3.037	83.1961
3.0264	82.865
3.0158	82.4021
3.0053	81.6971
2.9949	81.0281
2.9845	80.2976
2.9743	79.4412
2.9641	78.8152
2.9539	78.2986
2.9439	77.7693
2.9339	77.2947
2.9239	77.0311
2.9141	76.9119
2.9043	76.9217
2.8946	76.9353
2.8849	76.9998
2.8753	77.0115
2.8658	76.9969
2.8563	77.2469
2.8469	77.4568
2.8375	77.6912
2.8282	78.0711
2.819	78.575
2.8098	78.9998
2.8007	79.368
2.7917	79.865
2.7827	80.2928
2.7738	80.7654
2.7649	81.4568
2.7561	82.0945
2.7473	82.1873
2.7386	82.7439
2.7299	82.9021
2.7213	82.7439
2.7128	82.9109
2.7043	83.0789
2.6959	83.2185
2.6875	83.1297
2.6791	83.117
2.6709	82.989
2.6626	82.7703
2.6545	82.739
2.6463	82.4998
2.6382	82.4529
2.6302	82.2547
2.6222	82.0789
2.6143	82.1053
2.6064	81.8826
2.5986	81.7185
2.5908	81.6717
2.583	81.5623
2.5753	81.3338
2.5677	81.2029
2.5601	81.2029
2.5525	80.9588
2.545	80.7771
2.5375	80.7752
2.5301	80.6346
2.5227	80.4353
2.5154	80.3006
2.5081	80.2576
2.5008	80.1502
2.4936	79.865
2.4864	79.8924
2.4793	79.6678
2.4722	79.5447
2.4651	79.4314
2.4581	79.3631
2.4511	79.3553
2.4442	79.0428
2.4373	79.0018
2.4305	78.9158
2.4236	78.7264
2.4169	78.7283
2.4101	78.6424
2.4034	78.5018
2.3967	78.2654
2.3901	78.2908
2.3835	78.0779
2.377	77.8045
2.3704	78.0096
2.364	77.7986
2.3575	77.7596
2.3511	77.6873
2.3447	77.3904
2.3384	77.3592
2.3321	77.1443
2.3258	77.242
2.3195	76.9646
2.3133	77.1346
2.3071	76.8201
2.301	76.8279
2.2949	76.8162
2.2888	76.6893
2.2828	76.6893
2.2767	76.3221
2.2708	76.3123
2.2648	76.3279
2.2589	76.3846
2.253	76.4139
2.2471	76.2127
2.2413	76.0701
2.2355	75.9627
2.2297	75.9627
2.224	75.9393
2.2183	75.6971
2.2126	75.8045
2.207	75.6482
2.2013	75.7498
2.1957	75.3904
2.1902	75.4002
2.1846	75.3475
2.1791	75.0232
2.1736	75.2967
2.1682	75.2381
2.1628	75.1053
2.1574	75.0584
2.152	74.8084
2.1466	75.1639
2.1413	74.8006
2.136	74.8514
2.1308	75.0311
2.1255	75.0467
2.1203	74.8006
2.1151	74.3904
2.11	74.7381
2.1048	74.6248
2.0997	74.9334
2.0946	74.7693
2.0895	74.4725
2.0845	74.4607
2.0795	74.41
