Name: Olivine (Fo29) (Fe+2,Mg)2SiO4
Type: Mineral
Class: Silicate
Subclass: Nesosilicate
Particle Size: Fine
Sample No.: olivine_3
Owner: JHU
Wavelength Range: TIR
Origin: Kiglapait Intrusion, Labrador via Trude King #KI3291(obtained from S.A. Morse, Univ. of Mass.)
Description: Initially, the specimen was contaminated with pyroxene, spinel, and ilmenite.  Heavy liquid separation, followed by magnetic separation and hand picking, allowed olivines of different iron content to be obtained.  The sample was ground to <60 micrometers and wet sieved.  Sample preparation by Trude King, USGS, Denver. Particle size was Less than 2 Micrometers. (Isolated tetrahedra); (Olivine Group) Original ASTER Spectral Library name was jhu.nicolet.mineral.silicate.nesosilicate.powder.olivin3.spectrum.txt
Measurement: Transmission
X Units: Wavelength (micrometers)
Y Units: Transmittance (percent)
wavelength	value
25.0442	54.7108
24.3388	54.5624
23.6719	56.8319
23.0407	61.5545
22.4422	62.1424
21.8741	56.2616
21.334	43.3124
20.8199	31.1562
20.33	33.5487
19.8627	35.5321
19.4163	35.1366
18.9896	42.6015
18.5812	53.2001
18.19	56.7479
17.815	50.7626
17.4551	43.8641
17.1094	48.951
16.7772	60.7088
16.4576	72.7244
16.15	80.3299
15.8537	84.1892
15.568	85.8455
15.2925	87.0545
15.0265	87.8015
14.7697	87.6609
14.5214	87.0447
14.2814	86.3767
14.0492	85.5706
13.8244	84.1219
13.6067	82.7029
13.3957	80.6819
13.1912	78.1238
12.9929	74.9964
12.8004	70.9451
12.6135	65.661
12.432	58.3612
12.2557	47.7284
12.0843	31.9028
11.9176	37.6054
11.7555	27.1918
11.5977	17.4921
11.444	11.3174
11.2944	13.1425
11.1487	16.8461
11.0067	20.5966
10.8682	23.0839
10.7332	27.6991
10.6015	33.5019
10.473	22.5336
10.3476	25.3036
10.2251	29.3422
10.1056	36.6645
9.9887	46.1014
9.8746	55.2049
9.763	62.8084
9.6539	68.4529
9.5472	72.2781
9.4429	75.2317
9.3408	77.3382
9.2409	78.781
9.1431	80.6624
9.0474	82.8162
8.9536	84.5701
8.8618	86.1521
8.7718	87.2405
8.6837	88.325
8.5973	89.2234
8.5126	90.0535
8.4295	90.9795
8.3481	91.8057
8.2682	92.6025
8.1898	93.2139
8.1129	93.6631
8.0374	93.9563
7.9634	94.25
7.8906	94.4893
7.8192	94.5505
7.7491	94.6084
7.6802	94.6843
7.6126	94.783
7.5461	94.8269
7.4807	94.9343
7.4165	94.9138
7.3534	94.8445
7.2914	94.78
7.2303	94.5352
7.1703	94.5684
7.1113	94.4539
7.0533	94.4502
6.9962	94.3582
6.94	94.1133
6.8847	94.0256
6.8302	93.9971
6.7767	93.8508
6.7239	93.7139
6.672	93.5457
6.6209	93.4072
6.5705	93.2263
6.5209	92.9443
6.4721	92.6516
6.424	92.335
6.3766	92.092
6.3299	91.6758
6.2838	91.2293
6.2385	90.6414
6.1937	89.9031
6.1496	89.4334
6.1062	89.2156
6.0633	89.4248
6.0211	89.6152
5.9794	89.749
5.9383	90.032
5.8978	90.1514
5.8578	90.085
5.8184	89.8367
5.7794	89.5593
5.741	89.239
5.7031	89.0596
5.6657	88.9783
5.6288	89.0225
5.5924	88.8438
5.5564	88.7373
5.5209	88.625
5.4859	88.5283
5.4513	88.4373
5.4171	88.3115
5.3833	88.1621
5.35	88.033
5.3171	87.9785
5.2846	87.8692
5.2524	87.7522
5.2207	87.6004
5.1893	87.4514
5.1584	87.3152
5.1277	87.158
5.0975	86.9964
5.0676	86.9082
5.038	86.7864
5.0088	86.6475
4.98	86.5332
4.9514	86.3875
4.9232	86.2276
4.8953	86.0803
4.8678	85.9158
4.8405	85.7317
4.8135	85.5672
4.7868	85.4593
4.7605	85.3103
4.7344	85.1062
4.7086	84.9319
4.6831	84.7888
4.6578	84.6599
4.6328	84.4925
4.6081	84.3318
4.5837	84.1619
4.5595	84.0056
4.5356	83.7971
4.5119	83.6702
4.4884	83.5115
4.4652	83.3391
4.4423	83.1902
4.4196	83.0022
4.3971	82.8142
4.3748	82.6839
4.3528	82.469
4.331	82.3172
4.3094	82.18
4.288	81.9964
4.2668	81.844
4.2458	81.7117
4.2251	81.5232
4.2045	81.3543
4.1841	81.1814
4.164	81.0086
4.144	80.8474
4.1242	80.6624
4.1046	80.5335
4.0852	80.3167
4.066	80.097
4.047	79.948
4.0281	79.803
4.0094	79.5857
3.9909	79.4207
3.9725	79.198
3.9544	79.0623
3.9363	78.866
3.9185	78.7019
3.9008	78.5647
3.8833	78.3143
3.8659	78.1233
3.8487	77.9749
3.8316	77.844
3.8147	77.6404
3.7979	77.4422
3.7813	77.2576
3.7648	77.075
3.7485	76.8504
3.7323	76.7249
3.7162	76.5643
3.7003	76.4026
3.6845	76.1795
3.6689	76.0447
3.6534	75.8187
3.638	75.657
3.6227	75.4314
3.6076	75.2859
3.5926	75.0921
3.5777	74.9163
3.563	74.7112
3.5484	74.4813
3.5338	74.3494
3.5195	74.1092
3.5052	73.9246
3.491	73.7625
3.477	73.6526
3.463	73.4197
3.4492	73.199
3.4355	72.9617
3.4219	72.7015
3.4084	72.5359
3.395	72.4588
3.3817	72.2151
3.3685	72.0745
3.3554	71.9066
3.3425	71.6863
3.3296	71.5555
3.3168	71.3817
3.3041	71.1776
3.2915	70.9881
3.279	70.7986
3.2666	70.5921
3.2543	70.4359
3.2421	70.1917
3.23	69.9534
3.218	69.7772
3.206	69.5838
3.1942	69.369
3.1824	69.1414
3.1707	68.9002
3.1591	68.7352
3.1476	68.5057
3.1362	68.2156
3.1249	67.9481
3.1136	67.8094
3.1024	67.5916
3.0913	67.2899
3.0803	67.0975
3.0694	66.8836
3.0585	66.6424
3.0477	66.5252
3.037	66.2235
3.0264	65.9969
3.0158	65.6756
3.0053	65.2225
2.9949	64.9032
2.9845	64.6131
2.9743	64.0369
2.9641	63.6414
2.9539	63.2284
2.9439	62.9588
2.9339	62.5662
2.9239	62.3436
2.9141	62.1141
2.9043	62.075
2.8946	62.0858
2.8849	62.0584
2.8753	62.2821
2.8658	62.2664
2.8563	62.328
2.8469	62.4334
2.8375	62.5369
2.8282	62.5721
2.819	62.5916
2.8098	62.701
2.8007	62.7655
2.7917	62.9217
2.7827	63.1248
2.7738	63.2586
2.7649	63.2928
2.7561	63.4032
2.7473	63.5467
2.7386	63.6297
2.7299	63.6873
2.7213	63.6453
2.7128	63.5643
2.7043	63.3641
2.6959	63.3123
2.6875	63.2039
2.6791	63.1532
2.6709	63.0594
2.6626	62.8592
2.6545	62.742
2.6463	62.5975
2.6382	62.578
2.6302	62.4432
2.6222	62.3573
2.6143	62.1815
2.6064	62.0741
2.5986	61.9998
2.5908	61.8553
2.583	61.7889
2.5753	61.6287
2.5677	61.5116
2.5601	61.3455
2.5525	61.2381
2.545	61.1912
2.5375	61.0877
2.5301	60.9979
2.5227	60.9549
2.5154	60.91
2.5081	60.7127
2.5008	60.6737
2.4936	60.4862
2.4864	60.3944
2.4793	60.2362
2.4722	60.1873
2.4651	60.0174
2.4581	59.869
2.4511	59.7674
2.4442	59.7069
2.4373	59.7381
2.4305	59.4139
2.4236	59.4237
2.4169	59.3748
2.4101	59.1639
2.4034	59.0331
2.3967	59.1131
2.3901	59.0858
2.3835	58.8241
2.377	58.7674
2.3704	58.617
2.364	58.6795
2.3575	58.5565
2.3511	58.3612
2.3447	58.3299
2.3384	58.1717
2.3321	58.1092
2.3258	57.9706
2.3195	57.8749
2.3133	57.8924
2.3071	57.6014
2.301	57.6795
2.2949	57.5643
2.2888	57.4627
2.2828	57.2342
2.2767	57.0643
2.2708	56.9764
2.2648	56.7928
2.2589	56.9959
2.253	56.8514
2.2471	56.8163
2.2413	56.6639
2.2355	56.4608
2.2297	56.5389
2.224	56.2733
2.2183	56.4217
2.2126	56.285
2.207	56.0936
2.2013	55.9452
2.1957	55.8553
2.1902	55.8085
2.1846	55.7928
2.1791	55.5077
2.1736	55.4413
2.1682	55.2577
2.1628	55.5038
2.1574	55.2811
2.152	55.0038
2.1466	54.7577
2.1413	54.9686
2.136	54.5663
2.1308	54.5311
2.1255	54.617
2.1203	54.6795
2.1151	54.4413
2.11	54.328
2.1048	54.2186
2.0997	54.4139
2.0946	54.2186
2.0895	53.9413
2.0845	54.1288
2.0795	53.7694
