Name: Cassiterite SnO_2
Type: Mineral
Class: Oxide
Subclass: None
Particle Size: Coarse
Sample No.: O-3A
Owner: JPL
Wavelength Range: VSWIR
Origin: USA, South Dakota, Lawrence County, Tinton.
Description: Particle size was 125-500um. Collected by:  Burminco Original ASTER Spectral Library name was jpl.perkin.mineral.oxide.none.coarse.o03a.spectrum.txt
Measurement: Hemispherical reflectance
X Units: Wavelength (micrometers)
Y Units: Reflectance (percent)
wavelength	value
2.5	3.9066
2.494	4.0268
2.488	4.0606
2.482	4.0784
2.476	3.8904
2.47	4.1434
2.464	4.0567
2.458	4.1163
2.452	4.1925
2.446	4.1646
2.44	4.1463
2.434	4.0752
2.428	4.1669
2.422	4.1004
2.416	4.1773
2.41	4.1626
2.404	4.1154
2.398	4.0881
2.392	4.0584
2.386	4.1298
2.38	4.082
2.374	4.0723
2.368	4.1883
2.362	4.103
2.356	4.0824
2.35	4.1377
2.344	4.166
2.338	4.0776
2.332	4.1298
2.326	4.1787
2.32	4.1324
2.314	4.0979
2.308	4.1093
2.302	4.0714
2.296	4.1111
2.29	4.063
2.284	4.1112
2.278	4.1144
2.272	4.1047
2.266	4.1124
2.26	4.1277
2.254	4.159
2.248	4.1026
2.242	4.1463
2.236	4.1389
2.23	4.1397
2.224	4.1256
2.218	4.1866
2.212	4.1872
2.206	4.0983
2.2	4.175
2.194	4.2287
2.188	4.1397
2.182	4.1768
2.176	4.2151
2.17	4.2391
2.164	4.2303
2.158	4.2133
2.152	4.1792
2.146	4.218
2.14	4.2217
2.134	4.2239
2.128	4.2313
2.122	4.2188
2.116	4.2565
2.11	4.1644
2.104	4.2117
2.098	4.1969
2.092	4.1483
2.086	4.1614
2.08	4.2474
2.074	4.2406
2.068	4.2471
2.062	4.2994
2.056	4.2644
2.05	4.2825
2.044	4.2965
2.038	4.2469
2.032	4.3348
2.026	4.3083
2.02	4.2383
2.014	4.2595
2.008	4.3305
2.002	4.3405
1.996	4.278
1.99	4.3128
1.984	4.2962
1.978	4.2993
1.972	4.3208
1.966	4.3454
1.96	4.2827
1.954	4.373
1.948	4.2824
1.942	4.2782
1.936	4.2713
1.93	4.3068
1.924	4.2817
1.918	4.3485
1.912	4.3556
1.906	4.2948
1.9	4.2673
1.894	4.3534
1.888	4.3324
1.882	4.3472
1.876	4.3811
1.87	4.3346
1.864	4.3498
1.858	4.3602
1.852	4.3592
1.846	4.3345
1.84	4.3695
1.834	4.3545
1.828	4.3563
1.822	4.3064
1.816	4.3372
1.81	4.3794
1.804	4.398
1.798	4.3576
1.792	4.4209
1.786	4.3716
1.78	4.38
1.774	4.3592
1.768	4.3529
1.762	4.3754
1.756	4.3213
1.75	4.3554
1.744	4.421
1.738	4.3856
1.732	4.3737
1.726	4.3456
1.72	4.3585
1.714	4.399
1.708	4.3505
1.702	4.4095
1.696	4.39
1.69	4.4068
1.684	4.3615
1.678	4.3844
1.672	4.4616
1.666	4.3658
1.66	4.4134
1.654	4.4068
1.648	4.4319
1.642	4.4764
1.636	4.413
1.63	4.3855
1.624	4.4718
1.618	4.4331
1.612	4.4486
1.606	4.4689
1.6	4.4927
1.594	4.4961
1.588	4.5064
1.582	4.5338
1.576	4.5217
1.57	4.4774
1.564	4.5028
1.558	4.5775
1.552	4.5745
1.546	4.5285
1.54	4.5326
1.534	4.6112
1.528	4.5693
1.522	4.5311
1.516	4.5696
1.51	4.6512
1.504	4.6244
1.498	4.6303
1.492	4.6416
1.486	4.6708
1.48	4.6552
1.474	4.6266
1.468	4.6446
1.462	4.6989
1.456	4.7042
1.45	4.6605
1.444	4.7123
1.438	4.6686
1.432	4.7103
1.426	4.6763
1.42	4.7697
1.414	4.7488
1.408	4.8021
1.402	4.7946
1.396	4.8676
1.39	4.9135
1.384	4.9639
1.378	4.8364
1.372	4.8566
1.366	4.9107
1.36	4.9377
1.354	4.9243
1.348	4.8929
1.342	4.8948
1.336	4.9058
1.33	4.8869
1.324	4.8897
1.318	4.9287
1.312	4.9355
1.306	4.8962
1.3	4.8757
1.294	4.8844
1.288	4.9246
1.282	4.938
1.276	4.8883
1.27	4.9612
1.264	4.927
1.258	5.0039
1.252	4.9378
1.246	4.9936
1.24	4.9671
1.234	5.0399
1.228	5.0062
1.222	4.9981
1.216	5.0229
1.21	4.9752
1.204	4.9974
1.198	5.0106
1.192	5.0171
1.186	5.0345
1.18	5.0435
1.174	4.9415
1.168	5.0221
1.162	5.0409
1.156	5.0193
1.15	5.0111
1.144	5.0828
1.138	4.9931
1.132	5.0913
1.126	5.1173
1.12	5.039
1.114	5.1267
1.108	5.1189
1.102	5.1206
1.096	5.1561
1.09	5.1261
1.084	5.1522
1.078	5.1716
1.072	5.1024
1.066	5.1501
1.06	5.2369
1.054	5.1614
1.048	5.1631
1.042	5.2149
1.036	5.2112
1.03	5.2812
1.024	5.2123
1.018	5.2558
1.012	5.2447
1.006	5.2625
1	5.2478
0.994	5.2925
0.988	5.2923
0.982	5.2892
0.976	5.2377
0.97	5.2814
0.964	5.2371
0.958	5.2426
0.952	5.2359
0.946	5.3023
0.94	5.2916
0.934	5.2424
0.928	5.2426
0.922	5.2473
0.916	5.2954
0.91	5.2543
0.904	5.2099
0.898	5.2146
0.892	5.2592
0.886	5.2019
0.88	5.1739
0.874	5.167
0.868	5.2308
0.862	5.1978
0.856	5.4312
0.85	5.4422
0.844	5.4495
0.838	5.4464
0.832	5.446
0.826	5.4503
0.82	5.4543
0.814	5.4561
0.808	5.4579
0.802	5.4581
0.796	5.4621
0.79	5.4602
0.784	5.4597
0.778	5.4571
0.772	5.4589
0.766	5.4485
0.76	5.4543
0.754	5.4425
0.748	5.441
0.742	5.4411
0.736	5.4329
0.73	5.4293
0.724	5.428
0.718	5.4222
0.712	5.4146
0.706	5.4091
0.7	5.4036
0.694	5.4008
0.688	5.3936
0.682	5.3931
0.676	5.3897
0.67	5.3854
0.664	5.381
0.658	5.3757
0.652	5.3723
0.646	5.3674
0.64	5.3679
0.634	5.3648
0.628	5.3612
0.622	5.3608
0.616	5.3583
0.61	5.3558
0.604	5.3592
0.598	5.3559
0.592	5.3634
0.586	5.3622
0.58	5.3661
0.574	5.3702
0.568	5.3722
0.562	5.3775
0.556	5.3853
0.55	5.3931
0.544	5.3997
0.538	5.4093
0.532	5.4186
0.526	5.4303
0.52	5.4428
0.514	5.4532
0.508	5.4656
0.502	5.4793
0.496	5.5008
0.49	5.5217
0.484	5.5403
0.478	5.5563
0.472	5.5785
0.466	5.5938
0.46	5.6206
0.454	5.6461
0.448	5.6728
0.442	5.7043
0.436	5.7322
0.43	5.7681
0.424	5.8069
0.418	5.8481
0.412	5.8982
0.406	5.9483
0.4	6.0067
