Name: Anthophyllite (Mg,Fe^2+)_7Si_8O_22(OH)_2
Type: Mineral
Class: Silicate
Subclass: Inosilicate
Particle Size: Medium
Sample No.: IN-8A
Owner: JPL
Wavelength Range: TIR
Origin: USA, North Carolina
Description: Particle size was 45-125um.Collected by Ward's Original ASTER Spectral Library name was jpl.nicolet.mineral.silicate.inosilicate.medium.in08a.spectrum.txt
Measurement: Hemispherical reflectance
X Units: Wavelength (micrometers)
Y Units: Reflectance (percent)
wavelength	value
15.3853	4.667
15.1161	5.4206
14.8563	11.1053
14.6052	8.6354
14.3624	2.2539
14.1276	1.2263
13.9004	1.896
13.6803	2.8473
13.4671	3.9325
13.2604	4.3047
13.06	5.0204
12.8656	4.872
12.6769	4.9877
12.4936	6.5601
12.3155	7.3678
12.1425	8.1158
11.9742	9.0675
11.8106	9.2096
11.6513	9.8123
11.4963	10.4718
11.3454	11.0889
11.1983	11.0529
11.0551	10.6612
10.9154	10.462
10.7793	11.2811
10.6465	11.5849
10.5169	11.1737
10.3904	10.2217
10.267	10.2651
10.1464	10.9478
10.0287	10.8437
9.9136	13.6768
9.8012	21.0176
9.6913	23.8534
9.5838	23.8664
9.4787	20.1289
9.3758	23.0835
9.2752	23.9598
9.1767	22.4236
9.0803	22.506
8.9858	21.901
8.8934	20.4729
8.8028	19.467
8.714	17.9038
8.627	14.3122
8.5417	10.3171
8.4581	7.1868
8.3761	4.9558
8.2957	3.3379
8.2169	2.6437
8.1395	2.1502
8.0635	2.2749
7.989	2.3036
7.9158	2.7637
7.8439	3.0291
7.7734	3.4894
7.7041	3.7592
7.636	4.0064
7.5691	4.62
7.5034	5.2348
7.4388	5.7609
7.3753	6.197
7.3129	6.9498
7.2515	7.5605
7.1912	7.7118
7.1318	8.4366
7.0734	9.1498
7.016	10.0859
6.9595	11.42
6.9039	12.6443
6.8492	13.2484
6.7953	14.6855
6.7423	15.7402
6.6901	17.2259
6.6387	18.6047
6.5881	17.672
6.5382	17.1766
6.4892	18.8858
6.4408	18.2705
6.3931	18.3375
6.3462	19.0716
6.2999	18.2269
6.2543	18.2226
6.2094	17.6269
6.1651	16.9604
6.1214	14.8727
6.0784	12.1259
6.0359	10.9742
5.994	9.712
5.9527	10.9305
5.912	13.5412
5.8718	12.5739
5.8322	12.756
5.7931	14.4752
5.7545	15.1139
5.7165	14.4605
5.6789	13.0123
5.6418	13.0324
5.6052	12.5857
5.5691	12.3914
5.5334	12.1041
5.4982	12.0102
5.4635	12.7932
5.4291	14.8987
5.3952	15.2033
5.3618	15.4097
5.3287	16.3881
5.2961	17.7185
5.2638	17.4456
5.2319	16.2392
5.2004	16.2779
5.1693	18.4229
5.1386	19.3857
5.1082	21.4441
5.0782	25.8264
5.0485	28.2376
5.0192	28.9665
4.9902	28.7015
4.9616	28.3258
4.9332	28.0972
4.9052	30.5872
4.8776	33.3543
4.8502	35.2012
4.8231	36.0148
4.7963	36.8176
4.7699	38.0265
4.7437	39.1942
4.7178	39.0486
4.6922	39.4198
4.6668	40.0825
4.6418	40.6086
4.617	42.4397
4.5924	43.8946
4.5681	44.5586
4.5441	45.1765
4.5203	45.5115
4.4968	45.7947
4.4735	45.9657
4.4505	46.312
4.4277	47.0397
4.4051	47.5515
4.3828	48.0271
4.3607	48.3215
4.3388	48.5608
4.3171	48.9358
4.2956	49.3514
4.2744	49.8158
4.2534	49.6898
4.2325	50.2973
4.2119	49.965
4.1915	49.8705
4.1712	49.9841
4.1512	50.0919
4.1313	50.2734
4.1117	50.3171
4.0922	50.4578
4.0729	50.415
4.0538	50.5723
4.0349	50.4898
4.0161	50.6386
3.9976	50.7363
3.9792	50.8424
3.9609	50.9245
3.9428	50.9202
3.9249	50.9197
3.9072	50.917
3.8896	50.9994
3.8722	51.0109
3.8549	51.0415
3.8378	51.0762
3.8208	51.0745
3.804	51.2595
3.7873	51.2559
3.7708	51.3637
3.7544	51.3472
3.7382	51.299
3.7221	51.2551
3.7061	51.1181
3.6903	50.4663
3.6746	51.0262
3.659	50.7444
3.6436	50.7022
3.6283	50.6464
3.6131	50.5355
3.5981	50.3999
3.5832	50.237
3.5684	50.0981
3.5537	50.0204
3.5391	49.6885
3.5247	49.4361
3.5104	48.7246
3.4962	48.3289
3.4821	48.0751
3.4681	48.0765
3.4543	47.9605
3.4405	47.4307
3.4269	46.7536
3.4133	46.0995
3.3999	46.1105
3.3866	45.5686
3.3733	44.708
3.3602	42.992
3.3472	43.7078
3.3343	44.7088
3.3215	42.5707
3.3088	41.3673
3.2961	44.0007
3.2836	44.4232
3.2712	44.6888
3.2588	44.7474
3.2466	44.6367
3.2345	44.1132
3.2224	43.7878
3.2104	43.4077
3.1985	43.0434
3.1867	42.3357
3.175	41.5806
3.1634	41.3547
3.1519	40.784
3.1404	40.8687
3.129	40.7333
3.1178	40.4403
3.1065	39.8999
3.0954	39.2273
3.0844	38.9857
3.0734	38.6331
3.0625	38.1131
3.0517	37.7559
3.041	37.2487
3.0303	36.892
3.0197	36.6278
3.0092	36.1402
2.9987	35.5568
2.9884	35.1364
2.9781	34.8442
2.9678	34.4016
2.9577	34.1009
2.9476	33.6271
2.9376	33.3619
2.9276	33.2669
2.9177	32.9865
2.9079	32.6816
2.8982	32.5565
2.8885	32.6926
2.8789	32.5694
2.8693	32.516
2.8598	32.5532
2.8504	32.2223
2.841	32.1336
2.8317	32.0141
2.8224	31.5189
2.8133	30.9413
2.8041	30.929
2.7951	29.8866
2.786	28.9173
2.7771	29.7501
2.7682	29.4717
2.7594	28.9427
2.7506	27.5513
2.7418	25.9502
2.7332	18.2558
2.7246	15.6392
2.716	17.5113
2.7075	22.9217
2.699	30.8628
2.6906	44.9735
2.6823	51.8116
2.674	55.8522
2.6657	59.7261
2.6575	57.5003
2.6494	56.9116
2.6413	57.441
2.6332	58.16
2.6252	57.7961
2.6173	58.4492
2.6094	57.7289
2.6015	56.6428
2.5937	58.4028
2.5859	55.8629
2.5782	54.5752
2.5706	54.9357
2.5629	55.3484
2.5554	53.6007
2.5478	54.6817
2.5403	53.7631
2.5329	53.6863
2.5255	53.2349
2.5181	52.6666
2.5108	52.5669
2.5035	52.5257
2.4963	52.0667
2.4891	53.0354
2.482	53.1086
2.4749	51.9373
2.4678	49.8355
2.4608	50.4737
2.4538	51.5254
2.4468	51.9005
2.4399	51.5687
2.4331	51.6487
2.4262	51.1759
2.4194	53.0131
2.4127	53.1147
2.4059	53.0338
2.3993	49.8079
2.3926	46.4511
2.386	47.217
2.3795	48.4683
2.3729	50.3108
2.3664	52.5324
2.36	53.3324
2.3535	53.1101
2.3471	53.7141
2.3408	53.0979
2.3345	52.1567
2.3282	48.9313
2.3219	44.53
2.3157	37.0291
2.3095	36.5271
2.3034	43.3107
2.2972	47.3202
2.2911	41.6704
2.2851	46.8643
2.279	51.6138
2.2731	53.5386
2.2671	54.8733
2.2612	56.2058
2.2553	57.1518
2.2494	57.6097
2.2435	57.8831
2.2377	58.0237
2.232	57.7299
2.2262	58.4444
2.2205	59.5345
2.2148	59.7627
2.2091	59.8583
2.2035	60.0438
2.1979	60.1438
2.1923	60.2751
2.1868	60.3894
2.1812	60.2539
2.1758	60.2828
2.1703	60.4121
2.1649	60.8263
2.1595	60.7624
2.1541	60.8043
2.1487	61.0859
2.1434	60.8414
2.1381	60.8413
2.1328	60.9956
2.1275	61.0225
2.1223	61.5517
2.1171	61.3365
2.112	61.7733
2.1068	61.9526
2.1017	62.0222
2.0966	62.0354
2.0915	62.0081
2.0865	62.1744
2.0814	62.0163
2.0764	62.2508
2.0715	62.583
2.0665	63.2787
2.0616	63.2209
2.0567	63.4665
2.0518	63.1882
2.0469	63.3153
2.0421	63.5262
2.0373	63.4234
2.0325	63.8482
2.0277	63.5876
2.0229	63.6586
2.0182	63.6761
2.0135	63.7018
2.0088	64.0125
2.0042	63.9376
