Name: Spodumene LiAlS_2O_6
Type: Mineral
Class: Silicate
Subclass: Inosilicate
Particle Size: Fine
Sample No.: IN-13A
Owner: JPL
Wavelength Range: VSWIR
Origin: Brazil, Minas Gerais.
Description: Particle size was 0-45um.Collected by:  Ward's Original ASTER Spectral Library name was jpl.perkin.mineral.silicate.inosilicate.fine.in13a.spectrum.txt
Measurement: Hemispherical reflectance
X Units: Wavelength (micrometers)
Y Units: Reflectance (percent)
wavelength	value
2.5	75.995
2.494	76.2185
2.488	76.0921
2.482	76.0851
2.476	76.0884
2.47	76.4761
2.464	76.7378
2.458	76.7412
2.452	76.6729
2.446	76.813
2.44	77.0952
2.434	76.998
2.428	77.1195
2.422	77.4053
2.416	77.3579
2.41	77.575
2.404	77.6555
2.398	77.7546
2.392	77.8547
2.386	77.8957
2.38	77.9812
2.374	78.2458
2.368	78.3383
2.362	78.4792
2.356	78.5414
2.35	78.6236
2.344	78.7154
2.338	78.7796
2.332	78.7691
2.326	78.7996
2.32	78.7909
2.314	78.7597
2.308	78.8143
2.302	78.7885
2.296	78.9144
2.29	78.9054
2.284	78.8555
2.278	78.9228
2.272	79.0112
2.266	78.9612
2.26	78.9199
2.254	78.9644
2.248	78.9555
2.242	78.8957
2.236	78.8746
2.23	78.902
2.224	78.9119
2.218	78.8258
2.212	78.6718
2.206	78.5696
2.2	78.8498
2.194	79.0572
2.188	79.217
2.182	79.4343
2.176	79.5651
2.17	79.7745
2.164	79.9616
2.158	80.1719
2.152	80.3682
2.146	80.5351
2.14	80.6727
2.134	80.6418
2.128	80.4495
2.122	80.2684
2.116	80.0428
2.11	79.7421
2.104	79.5289
2.098	79.3601
2.092	79.4476
2.086	79.5284
2.08	79.5639
2.074	79.6041
2.068	79.6345
2.062	79.7685
2.056	79.8108
2.05	79.9051
2.044	79.9217
2.038	79.9492
2.032	80.0067
2.026	80.0252
2.02	80.0138
2.014	80.013
2.008	79.955
2.002	79.889
1.996	79.8935
1.99	79.6962
1.984	79.7368
1.978	79.5894
1.972	79.6009
1.966	79.4642
1.96	79.3779
1.954	79.3625
1.948	79.3443
1.942	79.2871
1.936	79.3921
1.93	79.3044
1.924	79.3425
1.918	79.3087
1.912	79.482
1.906	79.515
1.9	79.9098
1.894	80.2014
1.888	80.3745
1.882	80.5292
1.876	80.6506
1.87	80.6928
1.864	80.789
1.858	80.7744
1.852	80.8256
1.846	80.8924
1.84	80.9196
1.834	80.8381
1.828	80.7905
1.822	80.9108
1.816	80.8877
1.81	80.9248
1.804	80.9138
1.798	81.011
1.792	80.9143
1.786	80.9
1.78	80.8353
1.774	80.8533
1.768	80.8388
1.762	80.9354
1.756	80.8986
1.75	80.8977
1.744	80.9899
1.738	81.0224
1.732	81.0142
1.726	81.0437
1.72	80.9933
1.714	81.0618
1.708	81.058
1.702	80.9879
1.696	81.0252
1.69	81.02
1.684	81.0039
1.678	80.9451
1.672	81.0041
1.666	80.9954
1.66	80.9806
1.654	81.003
1.648	81.0629
1.642	81.0091
1.636	81.0662
1.63	81.0726
1.624	80.9392
1.618	81.0632
1.612	81.0381
1.606	81.0622
1.6	81.0124
1.594	81.0452
1.588	80.9898
1.582	80.9595
1.576	80.9926
1.57	81.0475
1.564	81.0525
1.558	80.9941
1.552	80.9553
1.546	80.9948
1.54	80.9337
1.534	80.9264
1.528	80.929
1.522	80.9256
1.516	80.8929
1.51	80.8876
1.504	80.8802
1.498	80.8239
1.492	80.8032
1.486	80.8339
1.48	80.7794
1.474	80.7897
1.468	80.7677
1.462	80.7434
1.456	80.7143
1.45	80.79
1.444	80.6859
1.438	80.7042
1.432	80.656
1.426	80.5856
1.42	80.5426
1.414	80.1635
1.408	80.3806
1.402	80.4418
1.396	80.5589
1.39	80.5828
1.384	80.6073
1.378	80.8186
1.372	80.8455
1.366	80.8227
1.36	80.8308
1.354	80.8379
1.348	80.7883
1.342	80.8696
1.336	80.8988
1.33	80.9659
1.324	80.9198
1.318	80.8388
1.312	80.8634
1.306	80.7465
1.3	80.9179
1.294	80.8797
1.288	80.915
1.282	80.8418
1.276	80.8176
1.27	80.8256
1.264	80.8307
1.258	80.8374
1.252	80.7556
1.246	80.7992
1.24	80.7893
1.234	80.8192
1.228	80.7598
1.222	80.7191
1.216	80.7972
1.21	80.7151
1.204	80.7105
1.198	80.7046
1.192	80.7412
1.186	80.7802
1.18	80.7418
1.174	80.7155
1.168	80.7104
1.162	80.7189
1.156	80.6919
1.15	80.7414
1.144	80.7371
1.138	80.7328
1.132	80.7668
1.126	80.7772
1.12	80.6659
1.114	80.6715
1.108	80.7736
1.102	80.642
1.096	80.6803
1.09	80.7409
1.084	80.6872
1.078	80.6942
1.072	80.7534
1.066	80.6873
1.06	80.6029
1.054	80.7042
1.048	80.6891
1.042	80.6532
1.036	80.7101
1.03	80.6678
1.024	80.6221
1.018	80.6164
1.012	80.6476
1.006	80.5704
1	80.5701
0.994	80.6134
0.988	80.5363
0.982	80.5586
0.976	80.6249
0.97	80.4973
0.964	80.5375
0.958	80.5258
0.952	80.5794
0.946	80.5382
0.94	80.5652
0.934	80.507
0.928	80.4828
0.922	80.5359
0.916	80.46
0.91	80.4738
0.904	80.4746
0.898	80.4647
0.892	80.4304
0.886	80.4543
0.88	80.4905
0.874	80.4398
0.868	80.4626
0.862	80.5148
0.856	80.6745
0.85	80.6296
0.844	80.5879
0.838	80.5046
0.832	80.5641
0.826	80.4487
0.82	80.4846
0.814	80.4912
0.808	80.5032
0.802	80.4689
0.796	80.372
0.79	80.3397
0.784	80.3412
0.778	80.281
0.772	80.241
0.766	80.1934
0.76	80.1666
0.754	80.1269
0.748	80.111
0.742	80.0298
0.736	79.9849
0.73	79.9457
0.724	79.8779
0.718	79.8102
0.712	79.7453
0.706	79.6677
0.7	79.5799
0.694	79.4989
0.688	79.3659
0.682	79.2557
0.676	79.1364
0.67	79.0191
0.664	78.9534
0.658	78.8415
0.652	78.7912
0.646	78.6822
0.64	78.6008
0.634	78.4757
0.628	78.3646
0.622	78.2458
0.616	78.0907
0.61	77.9409
0.604	77.7772
0.598	77.6094
0.592	77.4513
0.586	77.2024
0.58	76.8964
0.574	76.565
0.568	76.2144
0.562	75.8292
0.556	75.412
0.55	75.0107
0.544	74.6408
0.538	74.2717
0.532	73.9696
0.526	73.6604
0.52	73.3935
0.514	73.1308
0.508	72.8376
0.502	72.5392
0.496	72.2208
0.49	71.8791
0.484	71.508
0.478	71.2202
0.472	70.9584
0.466	70.6427
0.46	70.3582
0.454	69.9878
0.448	69.5508
0.442	69.146
0.436	68.662
0.43	68.1822
0.424	67.6946
0.418	67.2198
0.412	66.782
0.406	66.3325
0.4	65.8712
