Name: Quartz SiO_2
Type: Mineral
Class: Silicate
Subclass: Tectosilicate
Particle Size: Fine
Sample No.: TS-1E
Owner: JPL
Wavelength Range: VSWIR
Description: Crysoprase. Particle size was 0-45um.Collected by JPL Original ASTER Spectral Library name was jpl.beckman.mineral.silicate.tectosilicate.fine.ts01e.spectrum.txt
Measurement: Hemispherical reflectance
X Units: Wavelength (micrometers)
Y Units: Reflectance (percent)
wavelength	value
0.4	65.65
0.403	65.79
0.406	66.22
0.409	66.29
0.412	66.49
0.415	66.8
0.418	67.05
0.421	67.15
0.424	67.41
0.427	67.65
0.43	67.93
0.433	67.85
0.436	68.1
0.439	68.32
0.442	68.52
0.445	68.44
0.448	68.6
0.451	68.8
0.454	68.82
0.457	68.82
0.46	69.07
0.463	69.03
0.466	69.19
0.469	69.38
0.472	69.27
0.475	69.41
0.478	69.45
0.481	69.62
0.484	69.67
0.487	69.67
0.49	69.65
0.493	69.86
0.496	69.85
0.499	69.8
0.502	70.05
0.505	70.24
0.508	70.12
0.511	70.14
0.514	70.36
0.517	70.46
0.52	70.36
0.523	70.43
0.526	70.49
0.529	70.59
0.532	70.53
0.535	70.48
0.538	70.7
0.541	70.76
0.544	70.76
0.547	70.77
0.55	70.86
0.553	71.07
0.556	70.97
0.559	70.98
0.562	71.46
0.565	71.42
0.568	71.22
0.571	71.1
0.574	71.11
0.577	70.98
0.58	70.81
0.583	70.87
0.586	71.01
0.589	71.01
0.592	70.93
0.595	70.99
0.598	70.96
0.601	70.96
0.604	70.94
0.607	71.01
0.61	70.8
0.613	70.69
0.616	70.71
0.619	70.66
0.622	70.55
0.625	70.59
0.628	70.59
0.631	70.42
0.634	70.31
0.637	70.42
0.64	70.28
0.643	70.24
0.646	70.12
0.649	70.37
0.652	70.33
0.655	70.17
0.658	70.14
0.661	70.28
0.664	70.42
0.667	70.2
0.67	70.31
0.673	70.46
0.676	70.42
0.679	70.36
0.682	70.52
0.685	70.68
0.688	70.59
0.691	70.62
0.694	70.79
0.697	70.69
0.7	70.63
0.703	70.65
0.706	70.58
0.709	70.59
0.712	70.79
0.715	70.82
0.718	70.78
0.721	70.79
0.724	70.84
0.727	70.75
0.73	70.91
0.733	71.14
0.736	70.95
0.739	70.97
0.742	71.12
0.745	71.01
0.748	71.05
0.751	71.15
0.754	71.2
0.757	71.09
0.76	71.31
0.763	71.43
0.766	71.32
0.769	71.31
0.772	71.4
0.775	71.52
0.778	71.52
0.781	71.61
0.784	71.88
0.787	71.68
0.79	71.67
0.793	71.94
0.796	71.88
0.799	71.82
0.808	72.15
0.82	72.19
0.832	72.22
0.844	72.29
0.856	72.33
0.868	72.5
0.88	72.37
0.892	72.38
0.904	72.24
0.916	72.22
0.928	72.26
0.94	72.18
0.952	72.25
0.964	72.33
0.976	72.07
0.988	72.03
1	72.1
1.012	71.97
1.024	71.98
1.036	72.07
1.048	71.9
1.06	71.84
1.072	71.84
1.084	71.92
1.096	71.91
1.108	71.91
1.12	72.05
1.132	72.04
1.144	72.05
1.156	72.12
1.168	72.15
1.18	72.15
1.192	72.16
1.204	72.36
1.216	72.36
1.228	72.3
1.24	72.47
1.252	72.58
1.264	72.61
1.276	72.61
1.288	72.77
1.3	72.74
1.312	72.82
1.324	72.76
1.336	72.7
1.348	72.78
1.36	72.81
1.372	72.83
1.384	72.68
1.396	72.41
1.408	71.97
1.42	72.39
1.432	72.46
1.444	72.67
1.456	72.58
1.468	72.67
1.48	72.72
1.492	72.66
1.504	72.8
1.516	72.84
1.528	72.88
1.54	72.83
1.552	72.93
1.564	72.83
1.576	72.85
1.588	72.9
1.6	72.91
1.612	72.91
1.624	72.85
1.636	72.81
1.648	72.89
1.66	72.96
1.672	72.95
1.684	72.94
1.696	72.93
1.708	72.97
1.72	72.93
1.732	72.91
1.744	72.9
1.756	72.9
1.768	72.88
1.78	72.93
1.792	72.84
1.804	72.86
1.816	72.82
1.828	72.81
1.84	72.77
1.852	72.69
1.864	72.57
1.876	72.31
1.888	71.79
1.9	71.36
1.912	71.17
1.924	71.34
1.936	71.37
1.948	71.41
1.96	71.69
1.972	71.82
1.984	72.1
1.996	72.27
2.008	72.41
2.02	72.56
2.032	72.64
2.044	72.69
2.056	72.6
2.068	72.71
2.08	72.75
2.092	72.87
2.104	72.88
2.116	73.01
2.128	73.04
2.14	72.81
2.152	72.65
2.164	72.43
2.176	71.98
2.188	71.6
2.2	71.32
2.212	71.13
2.224	71.05
2.236	71
2.248	71.05
2.26	70.99
2.272	71.06
2.284	71.04
2.296	71.14
2.308	71.18
2.32	71.54
2.332	71.73
2.344	71.89
2.356	72.07
2.368	71.99
2.38	71.9
2.392	71.8
2.404	71.7
2.416	71.54
2.428	71.31
2.44	71.12
2.452	70.78
2.464	70.51
2.476	70.26
2.488	70.36
2.5	70.46
