Name: Apatite Ca_5(PO_4)_3F
Type: Mineral
Class: Phosphate
Subclass: None
Particle Size: Coarse
Sample No.: P-1A
Owner: JPL
Wavelength Range: VSWIR
Origin: Canada, Ontario, Lanark County, Perth
Description: Particle size was 125-500um.Collected by Ward's Original ASTER Spectral Library name was jpl.beckman.mineral.phosphate.none.coarse.p01a.spectrum.txt
Measurement: Hemispherical reflectance
X Units: Wavelength (micrometers)
Y Units: Reflectance (percent)
wavelength	value
0.4	28.36
0.403	30.58
0.406	31.94
0.409	33.42
0.412	34.71
0.415	36.13
0.418	37.46
0.421	38.77
0.424	40.07
0.427	41.25
0.43	42.3
0.433	43.44
0.436	44.6
0.439	45.38
0.442	46.31
0.445	46.91
0.448	47.8
0.451	48.4
0.454	49.23
0.457	49.59
0.46	50.04
0.463	50.56
0.466	50.95
0.469	51.39
0.472	51.65
0.475	52.08
0.478	52.48
0.481	52.81
0.484	53.18
0.487	53.59
0.49	53.77
0.493	54.06
0.496	54.24
0.499	54.26
0.502	54.6
0.505	54.68
0.508	54.75
0.511	54.58
0.514	54.84
0.517	54.86
0.52	54.84
0.523	54.54
0.526	54.48
0.529	54.71
0.532	54.62
0.535	54.85
0.538	54.72
0.541	54.6
0.544	54.56
0.547	54.28
0.55	54.31
0.553	53.98
0.556	53.89
0.559	53.65
0.562	53.79
0.565	53.44
0.568	53.27
0.571	52.38
0.574	51.18
0.577	51.01
0.58	50.9
0.583	50.51
0.586	50.45
0.589	50.69
0.592	50.84
0.595	50.83
0.598	50.61
0.601	50.67
0.604	50.59
0.607	50.48
0.61	50.33
0.613	50.22
0.616	49.95
0.619	49.9
0.622	49.69
0.625	49.49
0.628	49.48
0.631	49.17
0.634	49.2
0.637	49.03
0.64	48.83
0.643	48.77
0.646	48.63
0.649	48.75
0.652	48.57
0.655	48.46
0.658	48.31
0.661	48.23
0.664	48.31
0.667	48.17
0.67	48.2
0.673	47.96
0.676	47.97
0.679	47.99
0.682	47.99
0.685	47.96
0.688	47.88
0.691	47.9
0.694	47.88
0.697	48.02
0.7	47.81
0.703	48.02
0.706	48.17
0.709	48.16
0.712	48.17
0.715	48.16
0.718	48.25
0.721	48.36
0.724	48.36
0.727	48.48
0.73	48.28
0.733	48.16
0.736	48.02
0.739	47.85
0.742	47.96
0.745	47.7
0.748	47.87
0.751	48.31
0.754	48.54
0.757	48.94
0.76	49.04
0.763	49.34
0.766	49.46
0.769	49.59
0.772	49.85
0.775	49.89
0.778	49.94
0.781	50.11
0.784	50.2
0.787	50.31
0.79	50.34
0.793	50.29
0.796	50.05
0.799	49.89
0.808	52.11
0.82	53.05
0.832	53.86
0.844	54.46
0.856	55.11
0.868	55.71
0.88	56.49
0.892	57.44
0.904	58.28
0.916	59.12
0.928	59.93
0.94	60.63
0.952	61.53
0.964	62.34
0.976	63.02
0.988	63.69
1	64.31
1.012	65.04
1.024	65.58
1.036	66.29
1.048	66.81
1.06	67.28
1.072	67.79
1.084	68.32
1.096	68.95
1.108	69.5
1.12	70
1.132	70.29
1.144	70.61
1.156	71.01
1.168	71.53
1.18	71.88
1.192	72.36
1.204	72.77
1.216	72.9
1.228	73.12
1.24	73.55
1.252	73.99
1.264	74.23
1.276	74.64
1.288	74.93
1.3	75.22
1.312	75.34
1.324	75.39
1.336	75.47
1.348	75.58
1.36	75.71
1.372	75.45
1.384	71.91
1.396	74.02
1.408	73.61
1.42	73.32
1.432	73.18
1.444	74.15
1.456	75.01
1.468	75.39
1.48	75.61
1.492	75.75
1.504	76.08
1.516	76.32
1.528	76.57
1.54	76.7
1.552	76.95
1.564	77.05
1.576	77.04
1.588	77.51
1.6	77.74
1.612	78
1.624	78.12
1.636	78.44
1.648	78.59
1.66	78.8
1.672	78.8
1.684	78.9
1.696	78.91
1.708	78.82
1.72	78.76
1.732	78.73
1.744	78.64
1.756	78.6
1.768	78.57
1.78	78.46
1.792	78.5
1.804	78.41
1.816	78.31
1.828	78.04
1.84	77.6
1.852	76.81
1.864	75.79
1.876	74.42
1.888	71.5
1.9	68.72
1.912	68.35
1.924	68.76
1.936	69.05
1.948	69.14
1.96	69.15
1.972	68.6
1.984	67.05
1.996	66.96
2.008	69.81
2.02	72.27
2.032	73.69
2.044	74.61
2.056	75.22
2.068	75.69
2.08	75.99
2.092	76.19
2.104	76.21
2.116	76.11
2.128	75.21
2.14	73.91
2.152	73.37
2.164	73.79
2.176	74.5
2.188	74.92
2.2	75.08
2.212	74.94
2.224	74.77
2.236	74.56
2.248	74.11
2.26	73.27
2.272	71.78
2.284	70.04
2.296	68.26
2.308	67.58
2.32	68.21
2.332	68.92
2.344	69.53
2.356	70.03
2.368	69.79
2.38	69.25
2.392	68.95
2.404	68.79
2.416	68.42
2.428	67.63
2.44	66.9
2.452	65.87
2.464	64.8
2.476	63.84
2.488	63.13
2.5	62.36
