Name: Strontianite SrCO_3
Type: Mineral
Class: Carbonate
Subclass: None
Particle Size: Coarse
Sample No.: C-1A
Owner: JPL
Wavelength Range: VSWIR
Origin: Germany, Westphalia, Hamm.
Description: Particle size was 125-500um.Collected by:  Ward's Original ASTER Spectral Library name was jpl.perkin.mineral.carbonate.none.coarse.c01a.spectrum.txt
Measurement: Hemispherical reflectance
X Units: Wavelength (micrometers)
Y Units: Reflectance (percent)
wavelength	value
2.5	41.2615
2.494	42.0837
2.488	43.3431
2.482	45.1871
2.476	47.9237
2.47	50.7829
2.464	54.1376
2.458	56.968
2.452	59.5611
2.446	61.4522
2.44	62.8949
2.434	64.1675
2.428	64.9432
2.422	65.7152
2.416	66.3261
2.41	66.6236
2.404	66.6919
2.398	66.229
2.392	65.0183
2.386	62.7394
2.38	59.5003
2.374	55.3785
2.368	51.115
2.362	47.3419
2.356	44.1648
2.35	42.1628
2.344	41.5214
2.338	42.5279
2.332	44.6019
2.326	46.9151
2.32	48.8011
2.314	50.5244
2.308	51.8937
2.302	53.2991
2.296	54.5139
2.29	55.8718
2.284	57.2395
2.278	58.8569
2.272	60.4408
2.266	62.1049
2.26	63.8434
2.254	65.4231
2.248	66.8702
2.242	68.2206
2.236	69.516
2.23	70.766
2.224	71.8614
2.218	73.0106
2.212	73.9099
2.206	74.6948
2.2	75.0026
2.194	74.6438
2.188	73.8124
2.182	73.0364
2.176	72.7623
2.17	73.6015
2.164	75.395
2.158	76.9812
2.152	78.0398
2.146	78.9636
2.14	79.4576
2.134	79.7898
2.128	79.9377
2.122	79.8424
2.116	79.9496
2.11	80.0124
2.104	80.1113
2.098	80.2278
2.092	80.4108
2.086	80.5804
2.08	80.6394
2.074	80.7246
2.068	80.7452
2.062	80.7563
2.056	80.6784
2.05	80.5868
2.044	80.1514
2.038	79.4237
2.032	78.1031
2.026	76.3878
2.02	74.3701
2.014	73.6168
2.008	74.43
2.002	75.7411
1.996	76.6652
1.99	77.24
1.984	77.4694
1.978	77.5321
1.972	77.631
1.966	77.9466
1.96	78.1896
1.954	78.4114
1.948	78.5506
1.942	78.6099
1.936	78.6786
1.93	78.7063
1.924	78.7474
1.918	78.7287
1.912	78.5159
1.906	78.092
1.9	77.0817
1.894	76.4545
1.888	76.1656
1.882	76.6417
1.876	77.7559
1.87	78.9853
1.864	79.9216
1.858	80.4405
1.852	80.8069
1.846	81.162
1.84	81.5125
1.834	81.8814
1.828	82.324
1.822	82.5933
1.816	82.9222
1.81	83.0241
1.804	83.2094
1.798	83.2417
1.792	83.3278
1.786	83.1723
1.78	82.8113
1.774	82.6087
1.768	82.5289
1.762	82.6491
1.756	82.6517
1.75	82.6474
1.744	82.6544
1.738	82.7785
1.732	82.8002
1.726	82.8634
1.72	82.9001
1.714	83.0946
1.708	83.1821
1.702	83.3118
1.696	83.3747
1.69	83.4841
1.684	83.5096
1.678	83.4445
1.672	83.4749
1.666	83.3149
1.66	83.4705
1.654	83.5166
1.648	83.6664
1.642	83.5908
1.636	83.6299
1.63	83.6865
1.624	83.6784
1.618	83.6899
1.612	83.7045
1.606	83.6988
1.6	83.7398
1.594	83.6602
1.588	83.5455
1.582	83.3862
1.576	83.3587
1.57	83.399
1.564	83.4371
1.558	83.4846
1.552	83.3707
1.546	83.4546
1.54	83.3749
1.534	83.3468
1.528	83.2944
1.522	83.2463
1.516	83.2023
1.51	83.1289
1.504	83.1264
1.498	82.9713
1.492	82.9382
1.486	82.845
1.48	82.7809
1.474	82.7596
1.468	82.6776
1.462	82.6764
1.456	82.6341
1.45	82.5788
1.444	82.6253
1.438	82.6707
1.432	82.5819
1.426	82.5663
1.42	82.56
1.414	82.5062
1.408	82.6133
1.402	82.7548
1.396	82.9654
1.39	83.1136
1.384	83.1328
1.378	83.1614
1.372	83.1227
1.366	83.0999
1.36	83.0898
1.354	83.0758
1.348	83.0778
1.342	83.0767
1.336	83.0099
1.33	82.9498
1.324	82.945
1.318	82.9142
1.312	82.9177
1.306	82.8753
1.3	82.7993
1.294	82.7918
1.288	82.7163
1.282	82.7091
1.276	82.6582
1.27	82.6558
1.264	82.5925
1.258	82.5327
1.252	82.4782
1.246	82.5037
1.24	82.4492
1.234	82.4236
1.228	82.3991
1.222	82.2961
1.216	82.2757
1.21	82.2212
1.204	82.1882
1.198	82.1167
1.192	82.1293
1.186	82.0598
1.18	82.0476
1.174	81.9618
1.168	81.9625
1.162	81.9383
1.156	81.8885
1.15	81.8441
1.144	81.8116
1.138	81.7719
1.132	81.8018
1.126	81.7065
1.12	81.7313
1.114	81.6569
1.108	81.6218
1.102	81.6124
1.096	81.5965
1.09	81.5309
1.084	81.4848
1.078	81.4783
1.072	81.4572
1.066	81.4145
1.06	81.3237
1.054	81.3338
1.048	81.258
1.042	81.2786
1.036	81.2441
1.03	81.2617
1.024	81.1968
1.018	81.203
1.012	81.1184
1.006	81.184
1	81.0472
0.994	80.9868
0.988	80.9779
0.982	80.9872
0.976	80.9526
0.97	80.9045
0.964	80.8646
0.958	80.8838
0.952	80.7848
0.946	80.8099
0.94	80.7358
0.934	80.721
0.928	80.6456
0.922	80.6002
0.916	80.6245
0.91	80.6363
0.904	80.5429
0.898	80.5073
0.892	80.5424
0.886	80.4698
0.88	80.4186
0.874	80.3848
0.868	80.3259
0.862	80.3473
0.856	79.6169
0.85	79.6095
0.844	79.6161
0.838	79.5357
0.832	79.5657
0.826	79.4619
0.82	79.4874
0.814	79.4481
0.808	79.3517
0.802	79.2985
0.796	79.1868
0.79	79.1002
0.784	79.0347
0.778	79
0.772	78.9129
0.766	78.8604
0.76	78.8042
0.754	78.7275
0.748	78.6205
0.742	78.5855
0.736	78.5317
0.73	78.4137
0.724	78.3598
0.718	78.2506
0.712	78.1809
0.706	78.0628
0.7	77.9706
0.694	77.869
0.688	77.7327
0.682	77.623
0.676	77.4987
0.67	77.3711
0.664	77.2414
0.658	77.1362
0.652	77.0065
0.646	76.8921
0.64	76.7528
0.634	76.6381
0.628	76.5103
0.622	76.3931
0.616	76.2646
0.61	76.1285
0.604	75.9962
0.598	75.8866
0.592	75.7519
0.586	75.5392
0.58	75.3605
0.574	75.1839
0.568	74.9898
0.562	74.8126
0.556	74.5416
0.55	74.3107
0.544	74.0611
0.538	73.8099
0.532	73.5266
0.526	73.2535
0.52	72.9635
0.514	72.6376
0.508	72.2599
0.502	71.9002
0.496	71.4765
0.49	71.0488
0.484	70.5226
0.478	70.1744
0.472	69.7781
0.466	69.3506
0.46	68.837
0.454	68.2956
0.448	67.7114
0.442	67.14
0.436	66.5434
0.43	65.9564
0.424	65.2619
0.418	64.5483
0.412	63.8064
0.406	62.9718
0.4	62.0501
