Name: Talc Mg_3Si_4O_10(OH)_2
Type: Mineral
Class: Silicate
Subclass: Phyllosilicate
Particle Size: Fine
Sample No.: PS-14A
Owner: JPL
Wavelength Range: VSWIR
Origin: USA, Georgia, Cherokee County, Holly Springs.
Description: Particle size was 0-45um.Collected by:  Burminco Original ASTER Spectral Library name was jpl.perkin.mineral.silicate.phyllosilicate.fine.ps14a.spectrum.txt
Measurement: Hemispherical reflectance
X Units: Wavelength (micrometers)
Y Units: Reflectance (percent)
wavelength	value
2.5	70.5251
2.494	70.7969
2.488	71.3593
2.482	71.475
2.476	70.398
2.47	68.061
2.464	66.5294
2.458	66.5867
2.452	67.6877
2.446	69.0519
2.44	69.5483
2.434	69.5482
2.428	69.8996
2.422	70.8724
2.416	72.1698
2.41	72.3814
2.404	70.0419
2.398	65.6586
2.392	61.5741
2.386	59.8773
2.38	61.1123
2.374	64.434
2.368	68.0732
2.362	71.0922
2.356	73.3013
2.35	74.8021
2.344	75.6139
2.338	74.6753
2.332	70.4106
2.326	63.1142
2.32	54.2399
2.314	47.4393
2.308	46.0342
2.302	49.816
2.296	53.5283
2.29	54.9674
2.284	57.8473
2.278	64.4099
2.272	70.9609
2.266	75.2072
2.26	78.1854
2.254	80.4288
2.248	81.9591
2.242	82.3474
2.236	81.4379
2.23	80.7623
2.224	81.9977
2.218	83.7352
2.212	84.4218
2.206	84.6436
2.2	84.9156
2.194	84.7269
2.188	84.4709
2.182	84.057
2.176	83.5658
2.17	83.6962
2.164	84.2305
2.158	84.7167
2.152	84.7458
2.146	84.3667
2.14	83.851
2.134	83.5933
2.128	83.4481
2.122	83.7407
2.116	83.8326
2.11	83.8027
2.104	83.8723
2.098	83.5234
2.092	83.2898
2.086	82.9289
2.08	82.4022
2.074	83.018
2.068	84.6064
2.062	85.4479
2.056	85.7259
2.05	86.1096
2.044	86.2624
2.038	86.5164
2.032	86.658
2.026	86.4862
2.02	86.1775
2.014	85.9243
2.008	86.0949
2.002	86.4514
1.996	86.5274
1.99	86.5741
1.984	86.6511
1.978	86.6698
1.972	86.7143
1.966	86.6103
1.96	86.5953
1.954	86.467
1.948	86.4679
1.942	86.5219
1.936	86.4834
1.93	86.5533
1.924	86.5651
1.918	86.668
1.912	86.6449
1.906	86.8957
1.9	87.0825
1.894	87.3865
1.888	87.5385
1.882	87.7076
1.876	87.7824
1.87	88.0047
1.864	87.9968
1.858	88.1723
1.852	88.3409
1.846	88.2843
1.84	88.2386
1.834	88.264
1.828	88.2811
1.822	88.3437
1.816	88.4637
1.81	88.5901
1.804	88.6876
1.798	88.7752
1.792	88.749
1.786	88.7146
1.78	88.6909
1.774	88.719
1.768	88.7379
1.762	88.701
1.756	88.8559
1.75	88.8568
1.744	88.7642
1.738	88.9827
1.732	88.8356
1.726	88.9117
1.72	88.8763
1.714	88.9433
1.708	88.9415
1.702	88.8683
1.696	88.9003
1.69	88.892
1.684	88.9582
1.678	88.9809
1.672	88.9461
1.666	88.8588
1.66	88.9797
1.654	89.0049
1.648	88.9932
1.642	89.0387
1.636	89.0116
1.63	89.0837
1.624	88.9565
1.618	89.0602
1.612	89.1088
1.606	89.0757
1.6	89.0724
1.594	89.0857
1.588	89.0793
1.582	89.0141
1.576	89.0526
1.57	89.0671
1.564	89.0815
1.558	89.0146
1.552	88.9691
1.546	88.9913
1.54	88.8501
1.534	88.8981
1.528	88.9098
1.522	88.9461
1.516	89.0018
1.51	88.8599
1.504	88.9052
1.498	88.9366
1.492	88.927
1.486	88.8964
1.48	88.9011
1.474	88.8071
1.468	88.8205
1.462	88.7881
1.456	88.7905
1.45	88.7215
1.444	88.7746
1.438	88.6885
1.432	88.7289
1.426	88.6316
1.42	88.6522
1.414	88.7086
1.408	88.1968
1.402	86.5476
1.396	78.4902
1.39	73.0978
1.384	88.2844
1.378	88.7233
1.372	88.8631
1.366	88.8633
1.36	88.725
1.354	88.7807
1.348	88.7916
1.342	88.8525
1.336	88.7318
1.33	88.7386
1.324	88.6557
1.318	88.5908
1.312	88.6253
1.306	88.6563
1.3	88.2968
1.294	88.5123
1.288	88.4895
1.282	88.2194
1.276	87.7599
1.27	88.1288
1.264	88.3528
1.258	88.3416
1.252	88.3026
1.246	88.2723
1.24	88.1094
1.234	87.9876
1.228	87.9876
1.222	87.8734
1.216	87.8126
1.21	87.736
1.204	87.638
1.198	87.5208
1.192	87.3705
1.186	87.3278
1.18	87.2013
1.174	87.0521
1.168	86.9322
1.162	86.7882
1.156	86.6186
1.15	86.521
1.144	86.3336
1.138	86.171
1.132	86.0059
1.126	85.8994
1.12	85.6294
1.114	85.565
1.108	85.2652
1.102	85.1377
1.096	85.0157
1.09	84.7695
1.084	84.6736
1.078	84.6028
1.072	84.2724
1.066	84.1356
1.06	84.0972
1.054	83.9962
1.048	83.9599
1.042	83.8825
1.036	83.8812
1.03	83.6484
1.024	83.6533
1.018	83.6569
1.012	83.6093
1.006	83.6774
1	83.6199
0.994	83.7248
0.988	83.7565
0.982	83.6893
0.976	83.7658
0.97	83.8453
0.964	83.897
0.958	83.9121
0.952	83.0951
0.946	83.4762
0.94	84.0067
0.934	84.0621
0.928	84.0216
0.922	84.0218
0.916	83.969
0.91	83.9889
0.904	83.8933
0.898	83.8133
0.892	83.7373
0.886	83.6848
0.88	83.7181
0.874	83.614
0.868	83.6462
0.862	83.5872
0.856	83.7713
0.85	83.8917
0.844	83.9192
0.838	84.0386
0.832	84.1817
0.826	84.3643
0.82	84.5656
0.814	84.7792
0.808	84.996
0.802	85.2194
0.796	85.3934
0.79	85.6484
0.784	85.8286
0.778	86.0086
0.772	86.146
0.766	86.3684
0.76	86.4904
0.754	86.6508
0.748	86.8096
0.742	86.9285
0.736	86.974
0.73	86.9954
0.724	87.1706
0.718	87.263
0.712	87.3277
0.706	87.3663
0.7	87.4019
0.694	87.4113
0.688	87.4698
0.682	87.4449
0.676	87.4493
0.67	87.4411
0.664	87.3866
0.658	87.4202
0.652	87.418
0.646	87.4198
0.64	87.4619
0.634	87.5589
0.628	87.6609
0.622	87.7198
0.616	87.8323
0.61	87.9367
0.604	88.0104
0.598	88.1316
0.592	88.2184
0.586	88.2386
0.58	88.248
0.574	88.2612
0.568	88.1964
0.562	88.1392
0.556	88.0577
0.55	87.9537
0.544	87.8339
0.538	87.6915
0.532	87.5299
0.526	87.3538
0.52	87.1828
0.514	86.9684
0.508	86.7382
0.502	86.472
0.496	86.1967
0.49	85.9365
0.484	85.6256
0.478	85.3302
0.472	85.0929
0.466	84.8039
0.46	84.5199
0.454	84.2268
0.448	83.8985
0.442	83.5847
0.436	83.2004
0.43	82.7937
0.424	82.321
0.418	81.859
0.412	81.3407
0.406	80.8598
0.4	80.3667
