Name: Hematite alpha Fe_2O_3
Type: Mineral
Class: Oxide
Subclass: None
Particle Size: Fine
Sample No.: O-1B
Owner: JPL
Wavelength Range: TIR
Origin: N/A
Description: Synthetic hematite.Some water contamination. Particle size was 0-45um.Collected by Baker, J.T. Original ASTER Spectral Library name was jpl.nicolet.mineral.oxide.none.fine.o01b.spectrum.txt
Measurement: Hemispherical reflectance
X Units: Wavelength (micrometers)
Y Units: Reflectance (percent)
wavelength	value
15.3853	0.6572
15.1161	0.2899
14.8563	0
14.6052	0.1916
14.3624	0.005
14.1276	0.0122
13.9004	0
13.6803	0.3401
13.4671	0.1992
13.2604	0.5637
13.06	0.642
12.8656	0.79
12.6769	1.0077
12.4936	1.2364
12.3155	1.55
12.1425	1.7888
11.9742	2.1815
11.8106	2.438
11.6513	2.7541
11.4963	3.2239
11.3454	3.2335
11.1983	3.4735
11.0551	2.9469
10.9154	2.8703
10.7793	3.0953
10.6465	3.8397
10.5169	4.7111
10.3904	5.3976
10.267	6.3981
10.1464	7.5888
10.0287	8.6787
9.9136	9.1984
9.8012	9.2083
9.6913	9.3396
9.5838	9.8266
9.4787	11.1715
9.3758	12.3986
9.2752	13.5128
9.1767	14.7726
9.0803	14.7499
8.9858	13.5444
8.8934	12.4882
8.8028	12.5637
8.714	14.1062
8.627	15.5323
8.5417	16.5514
8.4581	17.5112
8.3761	18.8223
8.2957	20.6574
8.2169	22.7841
8.1395	24.793
8.0635	26.941
7.989	29.3192
7.9158	31.4047
7.8439	34.1493
7.7734	37.1604
7.7041	40.1619
7.636	42.3674
7.5691	44.1177
7.5034	45.2065
7.4388	45.3935
7.3753	46.1982
7.3129	46.5417
7.2515	46.9904
7.1912	46.9509
7.1318	46.5282
7.0734	45.5865
7.016	45.4273
6.9595	45.2961
6.9039	43.814
6.8492	42.0359
6.7953	40.225
6.7423	37.4772
6.6901	34.7612
6.6387	32.2543
6.5881	29.4659
6.5382	28.1468
6.4892	29.0428
6.4408	30.6422
6.3931	33.4471
6.3462	36.8625
6.2999	39.2308
6.2543	40.6542
6.2094	40.2882
6.1651	38.7663
6.1214	38.2191
6.0784	39.7724
6.0359	42.4746
5.994	45.7221
5.9527	48.5706
5.912	51.236
5.8718	53.7249
5.8322	55.5263
5.7931	56.7375
5.7545	57.8437
5.7165	58.6529
5.6789	59.2147
5.6418	59.8107
5.6052	59.8826
5.5691	60.0804
5.5334	60.2199
5.4982	60.2265
5.4635	60.4273
5.4291	60.323
5.3952	60.1958
5.3618	60.1016
5.3287	59.9334
5.2961	59.7518
5.2638	59.5311
5.2319	59.2115
5.2004	58.95
5.1693	58.6927
5.1386	58.4491
5.1082	58.2359
5.0782	58.1147
5.0485	58.09
5.0192	58.0819
4.9902	58.0676
4.9616	58.0207
4.9332	57.964
4.9052	57.8455
4.8776	57.7321
4.8502	57.6682
4.8231	57.5793
4.7963	57.4649
4.7699	57.4727
4.7437	57.4297
4.7178	57.4676
4.6922	57.5435
4.6668	57.5554
4.6418	57.8241
4.617	58.1208
4.5924	58.4969
4.5681	59.0839
4.5441	59.8084
4.5203	60.619
4.4968	61.6651
4.4735	62.6778
4.4505	63.8269
4.4277	64.7099
4.4051	65.4817
4.3828	66.2093
4.3607	66.6686
4.3388	67.0994
4.3171	67.4938
4.2956	67.7575
4.2744	68.1039
4.2534	68.3451
4.2325	68.6816
4.2119	68.8439
4.1915	68.9528
4.1712	69.1593
4.1512	69.2265
4.1313	69.3252
4.1117	69.4352
4.0922	69.4626
4.0729	69.5838
4.0538	69.4894
4.0349	69.4661
4.0161	69.4563
3.9976	69.3961
3.9792	69.259
3.9609	69.2138
3.9428	69.0916
3.9249	68.8227
3.9072	68.6151
3.8896	68.3855
3.8722	68.0858
3.8549	67.7827
3.8378	67.469
3.8208	67.1547
3.804	66.7986
3.7873	66.4122
3.7708	66.142
3.7544	65.6576
3.7382	65.2437
3.7221	64.6251
3.7061	64.1486
3.6903	63.6649
3.6746	63.0854
3.659	62.4765
3.6436	61.9571
3.6283	61.4416
3.6131	60.9502
3.5981	60.3152
3.5832	59.6735
3.5684	59.1021
3.5537	58.3997
3.5391	57.2699
3.5247	56.3329
3.5104	55.635
3.4962	55.0182
3.4821	54.7381
3.4681	54.1906
3.4543	53.4626
3.4405	52.6929
3.4269	51.5794
3.4133	50.7132
3.3999	50.585
3.3866	50.0594
3.3733	49.5113
3.3602	49.2279
3.3472	48.8519
3.3343	48.2098
3.3215	47.7544
3.3088	47.1125
3.2961	46.4678
3.2836	45.8666
3.2712	45.2458
3.2588	44.806
3.2466	44.1006
3.2345	43.5262
3.2224	42.9761
3.2104	42.4908
3.1985	41.7982
3.1867	41.487
3.175	40.903
3.1634	40.3742
3.1519	39.9644
3.1404	39.6246
3.129	39.1311
3.1178	38.7105
3.1065	38.3282
3.0954	38.0716
3.0844	37.82
3.0734	37.5112
3.0625	37.2335
3.0517	36.9926
3.041	36.5035
3.0303	36.1538
3.0197	35.829
3.0092	35.6202
2.9987	35.1188
2.9884	34.7169
2.9781	34.4218
2.9678	33.9549
2.9577	33.7867
2.9476	33.7358
2.9376	33.6375
2.9276	33.7804
2.9177	33.7274
2.9079	34.0143
2.8982	34.7291
2.8885	34.7891
2.8789	35.4243
2.8693	36.1005
2.8598	36.5937
2.8504	37.6032
2.841	38.259
2.8317	39.275
2.8224	40.6811
2.8133	42.2049
2.8041	44.2569
2.7951	46.2688
2.786	48.3427
2.7771	49.6126
2.7682	50.034
2.7594	52.2731
2.7506	55.0195
2.7418	58.9382
2.7332	61.9762
2.7246	62.9179
2.716	60.8212
2.7075	58.326
2.699	63.5822
2.6906	71.4918
2.6823	76.6123
2.674	79.2666
2.6657	81.0618
2.6575	81.4845
2.6494	82.3506
2.6413	82.8111
2.6332	83.4518
2.6252	83.7699
2.6173	84.4183
2.6094	84.5847
2.6015	84.8205
2.5937	85.3386
2.5859	85.2703
2.5782	85.333
2.5706	85.6039
2.5629	85.8578
2.5554	85.7543
2.5478	85.6903
2.5403	85.735
2.5329	86.0612
2.5255	86.0351
2.5181	86.0634
2.5108	86.1621
2.5035	86.3365
2.4963	86.3226
2.4891	86.5373
2.482	86.4971
2.4749	86.8401
2.4678	86.9828
2.4608	87.0597
2.4538	87.1159
2.4468	87.1668
2.4399	87.3014
2.4331	87.4659
2.4262	87.4756
2.4194	87.6996
2.4127	87.8355
2.4059	87.8033
2.3993	87.938
2.3926	88.0702
2.386	88.0688
2.3795	88.3311
2.3729	88.3248
2.3664	88.3974
2.36	88.658
2.3535	88.8976
2.3471	89.0533
2.3408	89.2636
2.3345	89.4236
2.3282	89.6661
2.3219	89.6013
2.3157	89.6472
2.3095	90.0583
2.3034	89.7586
2.2972	90.0642
2.2911	90.118
2.2851	90.3536
2.279	90.2948
2.2731	90.5447
2.2671	90.4709
2.2612	90.7034
2.2553	90.6557
2.2494	90.7639
2.2435	91.0189
2.2377	90.9842
2.232	90.9986
2.2262	91.3794
2.2205	91.3897
2.2148	91.3494
2.2091	91.6407
2.2035	91.6299
2.1979	91.6561
2.1923	91.7107
2.1868	91.7079
2.1812	91.7595
2.1758	91.7991
2.1703	91.9446
2.1649	91.8534
2.1595	92.052
2.1541	92.0327
2.1487	91.8564
2.1434	91.8885
2.1381	92.0272
2.1328	91.8243
2.1275	91.8097
2.1223	91.9184
2.1171	91.9826
2.112	91.9026
2.1068	91.9611
2.1017	92.1516
2.0966	92.173
2.0915	91.7751
2.0865	91.7001
2.0814	91.8235
2.0764	91.9503
2.0715	91.8878
2.0665	91.7111
2.0616	92.0609
2.0567	91.7729
2.0518	92.0979
2.0469	91.6949
2.0421	91.7666
2.0373	91.692
2.0325	91.6371
2.0277	91.6147
2.0229	91.7038
2.0182	91.6604
2.0135	91.3013
2.0088	91.392
2.0042	91.335
