Name: Corundum Al_2O_3
Type: Mineral
Class: Oxide
Subclass: None
Particle Size: Fine
Sample No.: O-15A
Owner: JPL
Wavelength Range: VSWIR
Origin: Unknown.
Description: Synthetic corundum.Particle size was 0-45um.Collected by:  JPL Original ASTER Spectral Library name was jpl.perkin.mineral.oxide.none.fine.o15a.spectrum.txt
Measurement: Hemispherical reflectance
X Units: Wavelength (micrometers)
Y Units: Reflectance (percent)
wavelength	value
2.5	74.7487
2.494	74.9138
2.488	74.9691
2.482	74.947
2.476	75.2052
2.47	75.5862
2.464	75.7487
2.458	75.8858
2.452	76.2217
2.446	76.3404
2.44	76.6126
2.434	76.5615
2.428	76.8919
2.422	77.0381
2.416	77.2132
2.41	77.2449
2.404	77.3922
2.398	77.6298
2.392	77.6946
2.386	77.8741
2.38	78.0472
2.374	78.0712
2.368	78.1709
2.362	78.114
2.356	78.1244
2.35	78.3142
2.344	78.5296
2.338	78.7855
2.332	78.9128
2.326	78.9861
2.32	79.1524
2.314	79.2112
2.308	79.3108
2.302	79.3981
2.296	79.505
2.29	79.584
2.284	79.6106
2.278	79.6197
2.272	79.6678
2.266	79.7001
2.26	79.7174
2.254	79.8717
2.248	79.9176
2.242	79.9553
2.236	80.224
2.23	80.3004
2.224	80.4879
2.218	80.6974
2.212	80.9438
2.206	81.0939
2.2	81.3068
2.194	81.5761
2.188	81.6085
2.182	81.8806
2.176	82.0228
2.17	82.175
2.164	82.4264
2.158	82.6525
2.152	82.6629
2.146	82.8197
2.14	82.8151
2.134	82.7546
2.128	82.6113
2.122	82.4658
2.116	82.1512
2.11	81.8502
2.104	81.687
2.098	81.5701
2.092	81.5852
2.086	81.5721
2.08	81.6616
2.074	81.653
2.068	81.6726
2.062	81.6837
2.056	81.6922
2.05	81.651
2.044	81.7476
2.038	81.7295
2.032	81.691
2.026	81.6664
2.02	81.64
2.014	81.6901
2.008	81.5821
2.002	81.5614
1.996	81.5306
1.99	81.3279
1.984	81.2294
1.978	81.0062
1.972	80.8958
1.966	80.7854
1.96	80.6728
1.954	80.7789
1.948	80.8014
1.942	80.74
1.936	80.7902
1.93	80.834
1.924	81.0174
1.918	81.2189
1.912	81.4977
1.906	81.8205
1.9	82.0442
1.894	82.3903
1.888	82.5439
1.882	82.6918
1.876	83.237
1.87	83.9673
1.864	84.413
1.858	84.6269
1.852	84.8416
1.846	84.8846
1.84	85.0078
1.834	85.015
1.828	85.1307
1.822	85.1214
1.816	85.1605
1.81	85.1729
1.804	85.2093
1.798	85.3127
1.792	85.2535
1.786	85.3523
1.78	85.3027
1.774	85.3004
1.768	85.2458
1.762	85.2796
1.756	85.2642
1.75	85.3375
1.744	85.4603
1.738	85.5188
1.732	85.5105
1.726	85.556
1.72	85.5546
1.714	85.506
1.708	85.5975
1.702	85.5109
1.696	85.6017
1.69	85.6098
1.684	85.5083
1.678	85.6825
1.672	85.6835
1.666	85.6216
1.66	85.6924
1.654	85.6124
1.648	85.7225
1.642	85.6095
1.636	85.7531
1.63	85.6885
1.624	85.6197
1.618	85.7283
1.612	85.712
1.606	85.8957
1.6	85.7533
1.594	85.7607
1.588	85.9056
1.582	85.9185
1.576	85.8445
1.57	85.8377
1.564	85.945
1.558	85.9325
1.552	85.8945
1.546	85.9659
1.54	85.913
1.534	86.0146
1.528	85.944
1.522	86.008
1.516	85.9242
1.51	85.8849
1.504	85.9491
1.498	85.8233
1.492	85.8717
1.486	85.8837
1.48	85.7885
1.474	85.8519
1.468	85.8468
1.462	85.8229
1.456	85.8065
1.45	85.7204
1.444	85.7303
1.438	85.762
1.432	85.826
1.426	85.7972
1.42	85.8664
1.414	85.8548
1.408	85.8851
1.402	85.9375
1.396	86.1296
1.39	86.1966
1.384	86.2095
1.378	86.5682
1.372	86.7524
1.366	86.8772
1.36	86.9116
1.354	87.0473
1.348	86.8814
1.342	87.034
1.336	87.1044
1.33	87.0093
1.324	87.0448
1.318	87.0776
1.312	87.1005
1.306	87.1465
1.3	87.227
1.294	87.1031
1.288	87.129
1.282	87.1107
1.276	87.1631
1.27	87.126
1.264	87.2645
1.258	87.125
1.252	87.1712
1.246	87.1679
1.24	87.212
1.234	87.2109
1.228	87.1742
1.222	87.1014
1.216	87.2232
1.21	87.1325
1.204	87.1257
1.198	87.2216
1.192	87.2608
1.186	87.2325
1.18	87.2811
1.174	87.3431
1.168	87.2612
1.162	87.3224
1.156	87.3277
1.15	87.3645
1.144	87.2764
1.138	87.4235
1.132	87.3543
1.126	87.4508
1.12	87.489
1.114	87.3954
1.108	87.4251
1.102	87.5141
1.096	87.4843
1.09	87.4833
1.084	87.4838
1.078	87.4903
1.072	87.454
1.066	87.5574
1.06	87.5729
1.054	87.628
1.048	87.5737
1.042	87.6219
1.036	87.6878
1.03	87.6983
1.024	87.597
1.018	87.5428
1.012	87.6721
1.006	87.7029
1	87.742
0.994	87.6489
0.988	87.6233
0.982	87.7277
0.976	87.6991
0.97	87.6483
0.964	87.6881
0.958	87.6151
0.952	87.7169
0.946	87.6421
0.94	87.6479
0.934	87.7793
0.928	87.7643
0.922	87.7304
0.916	87.7866
0.91	87.812
0.904	87.7619
0.898	87.8577
0.892	87.8311
0.886	87.8558
0.88	87.8193
0.874	87.8284
0.868	87.8348
0.862	87.846
0.856	87.8834
0.85	87.878
0.844	87.8799
0.838	88.005
0.832	88.0581
0.826	88.0835
0.82	88.0878
0.814	88.1255
0.808	88.185
0.802	88.161
0.796	88.1617
0.79	88.2066
0.784	88.1831
0.778	88.1306
0.772	88.1906
0.766	88.1883
0.76	88.2153
0.754	88.1527
0.748	88.2673
0.742	88.1996
0.736	88.2192
0.73	88.2406
0.724	88.2415
0.718	88.2571
0.712	88.2911
0.706	88.2764
0.7	88.2708
0.694	88.2726
0.688	88.276
0.682	88.2748
0.676	88.3073
0.67	88.299
0.664	88.2931
0.658	88.3082
0.652	88.3012
0.646	88.344
0.64	88.3281
0.634	88.3343
0.628	88.3373
0.622	88.335
0.616	88.3274
0.61	88.3422
0.604	88.3445
0.598	88.3818
0.592	88.4271
0.586	88.4196
0.58	88.4696
0.574	88.4705
0.568	88.476
0.562	88.4621
0.556	88.4394
0.55	88.3881
0.544	88.395
0.538	88.363
0.532	88.3303
0.526	88.2904
0.52	88.2704
0.514	88.2328
0.508	88.1718
0.502	88.0638
0.496	87.9949
0.49	87.8731
0.484	87.7314
0.478	87.6445
0.472	87.5248
0.466	87.4047
0.46	87.2697
0.454	87.0884
0.448	86.9239
0.442	86.7986
0.436	86.6687
0.43	86.552
0.424	86.4258
0.418	86.3412
0.412	86.2307
0.406	86.1265
0.4	86.025
