Name: Dolomite CaMg(CO_3)_2
Type: Mineral
Class: Carbonate
Subclass: None
Particle Size: Coarse
Sample No.: C-5C
Owner: JPL
Wavelength Range: VSWIR
Origin: USA, California, Los Angeles County, Palos Verdes
Description: Particle size as 125-500um.Collected by Burminco Original ASTER Spectral Library name was jpl.beckman.mineral.carbonate.none.coarse.c05c.spectrum.txt
Measurement: Hemispherical reflectance
X Units: Wavelength (micrometers)
Y Units: Reflectance (percent)
wavelength	value
0.4	58.69
0.403	59.54
0.406	59.83
0.409	60.86
0.412	61.32
0.415	61.88
0.418	62.57
0.421	62.86
0.424	63.31
0.427	64.12
0.43	64.23
0.433	64.92
0.436	65.09
0.439	65.38
0.442	66
0.445	66.06
0.448	66.63
0.451	66.63
0.454	67.09
0.457	67.61
0.46	67.62
0.463	68.14
0.466	68.26
0.469	68.44
0.472	68.83
0.475	68.78
0.478	69.25
0.481	69.25
0.484	69.72
0.487	69.95
0.49	69.83
0.493	70.36
0.496	70.42
0.499	70.76
0.502	70.76
0.505	70.94
0.508	71.4
0.511	71.34
0.514	71.86
0.517	71.74
0.52	72.08
0.523	72.19
0.526	72.25
0.529	72.65
0.532	72.48
0.535	72.65
0.538	72.88
0.541	73
0.544	73.11
0.547	73.23
0.55	73.63
0.553	73.58
0.556	74.03
0.559	73.97
0.562	74.2
0.565	74.55
0.568	74.2
0.571	74.6
0.574	74.43
0.577	74.49
0.58	74.72
0.583	74.6
0.586	75.12
0.589	74.95
0.592	75.4
0.595	75.4
0.598	75.35
0.601	75.69
0.604	75.57
0.607	75.98
0.61	75.74
0.613	76.09
0.616	76.09
0.619	76.15
0.622	76.44
0.625	76.21
0.628	76.61
0.631	76.61
0.634	76.95
0.637	76.95
0.64	77.06
0.643	77.35
0.646	77.12
0.649	77.58
0.652	77.41
0.655	77.64
0.658	77.81
0.661	77.75
0.664	78.04
0.667	77.92
0.67	78.21
0.673	78.33
0.676	78.1
0.679	78.56
0.682	78.15
0.685	78.61
0.688	78.56
0.691	78.61
0.694	78.84
0.697	78.44
0.7	78.61
0.703	79.01
0.706	78.95
0.709	79.3
0.712	79.41
0.715	79.3
0.718	79.53
0.721	79.41
0.724	79.7
0.727	79.58
0.73	79.76
0.733	79.81
0.736	79.53
0.739	80.04
0.742	79.64
0.745	80.04
0.748	79.93
0.751	80.04
0.754	80.22
0.757	79.99
0.76	80.28
0.763	79.99
0.766	80.38
0.769	80.22
0.772	80.22
0.775	80.33
0.778	80.22
0.781	80.61
0.784	80.33
0.787	80.55
0.79	80.55
0.793	80.5
0.796	80.9
0.799	80.5
0.808	80.78
0.82	80.73
0.832	80.78
0.844	80.96
0.856	81.13
0.868	81.24
0.88	81.13
0.892	81.24
0.904	81.19
0.916	81.36
0.928	81.53
0.94	81.48
0.952	81.53
0.964	81.65
0.976	81.53
0.988	81.65
1	81.59
1.012	81.53
1.024	81.71
1.036	81.82
1.048	81.71
1.06	81.82
1.072	81.71
1.084	81.71
1.096	81.76
1.108	81.88
1.12	81.88
1.132	81.88
1.144	81.94
1.156	81.93
1.168	81.9
1.18	81.71
1.192	81.92
1.204	81.9
1.216	81.85
1.228	81.9
1.24	81.73
1.252	81.85
1.264	81.94
1.276	81.81
1.288	81.96
1.3	81.88
1.312	81.75
1.324	81.67
1.336	81.76
1.348	81.69
1.36	81.57
1.372	81.74
1.384	81.4
1.396	80.94
1.408	80.67
1.42	80.29
1.432	80.19
1.444	80.05
1.456	79.94
1.468	80.05
1.48	80.16
1.492	80.28
1.504	80.28
1.516	80.45
1.528	80.45
1.54	80.34
1.552	80.34
1.564	80.57
1.576	80.62
1.588	80.74
1.6	80.68
1.612	80.38
1.624	80.24
1.636	80.11
1.648	80.03
1.66	79.96
1.672	79.71
1.684	79.12
1.696	78.76
1.708	78.35
1.72	78.18
1.732	78.06
1.744	78.24
1.756	78.8
1.768	78.7
1.78	78.47
1.792	77.83
1.804	76.67
1.816	75.46
1.828	74.19
1.84	72.58
1.852	71.05
1.864	72.04
1.876	74.37
1.888	74.51
1.9	73.36
1.912	72.1
1.924	70.66
1.936	69.68
1.948	68.63
1.96	67.69
1.972	67.19
1.984	67.88
1.996	69.85
2.008	71.36
2.02	72.27
2.032	72.56
2.044	72.67
2.056	72.47
2.068	71.94
2.08	71.46
2.092	70.93
2.104	69.89
2.116	68.69
2.128	67.55
2.14	67.52
2.152	67.9
2.164	68.2
2.176	67.73
2.188	66.02
2.2	63.82
2.212	60.84
2.224	57.8
2.236	53.99
2.248	49.63
2.26	45.42
2.272	42.26
2.284	39.85
2.296	37.65
2.308	36.87
2.32	38.77
2.332	43.8
2.344	51
2.356	56.72
2.368	58.92
2.38	58.02
2.392	55.69
2.404	52.64
2.416	48.53
2.428	43.64
2.44	39.03
2.452	34.64
2.464	31.2
2.476	28.49
2.488	26.21
2.5	25.27
