Name: Howlite Ca_2B_5SiO_9(OH)_5
Type: Mineral
Class: Borate
Subclass: None
Particle Size: Coarse
Sample No.: B-5A
Owner: JPL
Wavelength Range: TIR
Origin: USA, California, San Gabriel Mountains, Tick Canyon
Description: Particle size was 125-500um.Collected by Burminco Original ASTER Spectral Library name was jpl.nicolet.mineral.borate.none.coarse.b05a.spectrum.txt
Measurement: Hemispherical reflectance
X Units: Wavelength (micrometers)
Y Units: Reflectance (percent)
wavelength	value
15.3853	3.1329
15.1161	3.5684
14.8563	4.5454
14.6052	4.5328
14.3624	1.6918
14.1276	2.1445
13.9004	2.28
13.6803	2.7947
13.4671	3.18
13.2604	2.982
13.06	3.5055
12.8656	3.48
12.6769	3.8629
12.4936	4.5808
12.3155	5.1842
12.1425	6.3188
11.9742	6.18
11.8106	5.2987
11.6513	6.4541
11.4963	6.214
11.3454	5.4037
11.1983	5.0817
11.0551	6.5876
10.9154	5.8879
10.7793	5.1805
10.6465	7.7307
10.5169	11.0917
10.3904	12.5343
10.267	10.153
10.1464	7.6156
10.0287	10.4548
9.9136	12.3605
9.8012	13.4578
9.6913	12.3001
9.5838	12.5332
9.4787	12.0447
9.3758	12.3269
9.2752	11.7818
9.1767	9.3721
9.0803	8.1443
8.9858	6.2561
8.8934	5.0536
8.8028	5.2823
8.714	4.6932
8.627	3.234
8.5417	1.9199
8.4581	1.255
8.3761	1.4235
8.2957	1.4126
8.2169	1.5387
8.1395	1.9688
8.0635	1.4855
7.989	0.9883
7.9158	0.5046
7.8439	0.6969
7.7734	0.9438
7.7041	1.086
7.636	1.5592
7.5691	3.4134
7.5034	5.2548
7.4388	5.6799
7.3753	4.2605
7.3129	1.9714
7.2515	1.1722
7.1912	0.9109
7.1318	1.0877
7.0734	2.2019
7.016	1.5008
6.9595	0.9474
6.9039	0.5943
6.8492	0.8207
6.7953	0.4435
6.7423	0.2989
6.6901	0.3424
6.6387	0.4609
6.5881	0.4072
6.5382	0.4693
6.4892	0.6782
6.4408	0.5025
6.3931	0.7342
6.3462	0.7993
6.2999	0.8042
6.2543	0.8497
6.2094	0.8418
6.1651	0.9241
6.1214	0.9269
6.0784	1.0694
6.0359	1.0741
5.994	1.2322
5.9527	1.156
5.912	1.2582
5.8718	1.2521
5.8322	1.4389
5.7931	1.3588
5.7545	1.2831
5.7165	1.4109
5.6789	1.4183
5.6418	1.556
5.6052	1.5474
5.5691	1.6366
5.5334	1.6315
5.4982	1.6477
5.4635	1.7186
5.4291	1.72
5.3952	1.7025
5.3618	1.814
5.3287	1.8076
5.2961	1.8146
5.2638	1.8638
5.2319	1.9443
5.2004	1.8951
5.1693	1.8741
5.1386	1.9692
5.1082	2.1864
5.0782	2.1875
5.0485	2.2527
5.0192	2.3782
4.9902	2.3561
4.9616	2.4361
4.9332	2.4787
4.9052	2.4285
4.8776	2.4487
4.8502	2.4533
4.8231	2.5832
4.7963	2.6724
4.7699	2.6217
4.7437	2.6966
4.7178	2.7323
4.6922	2.8146
4.6668	2.8225
4.6418	2.8342
4.617	2.9093
4.5924	3.0277
4.5681	3.0673
4.5441	2.9593
4.5203	3.0642
4.4968	3.1202
4.4735	3.0691
4.4505	2.996
4.4277	3.0648
4.4051	3.1098
4.3828	3.0339
4.3607	3.1558
4.3388	3.2163
4.3171	3.243
4.2956	3.4381
4.2744	3.482
4.2534	3.4812
4.2325	3.646
4.2119	3.6446
4.1915	3.5724
4.1712	3.4406
4.1512	3.3338
4.1313	3.4379
4.1117	3.4667
4.0922	3.7376
4.0729	3.9825
4.0538	4.4943
4.0349	5.0205
4.0161	5.6661
3.9976	6.1027
3.9792	6.6449
3.9609	6.8826
3.9428	7.3782
3.9249	7.5887
3.9072	7.6464
3.8896	7.7615
3.8722	8.045
3.8549	8.082
3.8378	8.4013
3.8208	8.5005
3.804	8.3242
3.7873	8.2366
3.7708	8.1833
3.7544	8.3546
3.7382	8.1575
3.7221	7.7457
3.7061	7.57
3.6903	7.0964
3.6746	6.7219
3.659	6.2195
3.6436	5.9621
3.6283	5.8202
3.6131	5.6496
3.5981	5.6408
3.5832	5.9318
3.5684	5.9863
3.5537	5.757
3.5391	5.7064
3.5247	5.7512
3.5104	5.7345
3.4962	5.7127
3.4821	5.2913
3.4681	5.0615
3.4543	4.7521
3.4405	4.6042
3.4269	4.4485
3.4133	4.3125
3.3999	4.2191
3.3866	3.9696
3.3733	3.8696
3.3602	3.6594
3.3472	3.6661
3.3343	3.3851
3.3215	3.2874
3.3088	3.1407
3.2961	3.1057
3.2836	3.0387
3.2712	2.9557
3.2588	3.0005
3.2466	2.7824
3.2345	2.8594
3.2224	2.6423
3.2104	2.6796
3.1985	2.6271
3.1867	2.6803
3.175	2.5723
3.1634	2.4211
3.1519	2.3571
3.1404	2.1877
3.129	2.0459
3.1178	1.9417
3.1065	1.7312
3.0954	1.8972
3.0844	1.7216
3.0734	1.9089
3.0625	1.9434
3.0517	2.0125
3.041	1.9264
3.0303	2.094
3.0197	2.1011
3.0092	2.0367
2.9987	2.1818
2.9884	2.0943
2.9781	2.094
2.9678	2.2094
2.9577	1.9094
2.9476	1.8634
2.9376	1.9661
2.9276	1.4386
2.9177	1.547
2.9079	1.7775
2.8982	1.8934
2.8885	2.078
2.8789	1.9361
2.8693	1.9502
2.8598	1.9098
2.8504	1.7825
2.841	1.7318
2.8317	2.0089
2.8224	2.0571
2.8133	2.1455
2.8041	1.4202
2.7951	1.1022
2.786	1.5804
2.7771	1.7376
2.7682	2.0071
2.7594	2.2142
2.7506	2.5468
2.7418	3.06
2.7332	3.2451
2.7246	3.9442
2.716	4.7756
2.7075	5.6011
2.699	6.7546
2.6906	8.3432
2.6823	9.9799
2.674	11.0943
2.6657	12.2863
2.6575	12.7019
2.6494	13.2098
2.6413	14.0331
2.6332	14.5806
2.6252	15.2419
2.6173	16.1813
2.6094	16.5065
2.6015	16.8007
2.5937	17.3304
2.5859	16.9194
2.5782	17.1851
2.5706	17.9347
2.5629	18.4382
2.5554	18.0445
2.5478	17.892
2.5403	18.068
2.5329	18.0205
2.5255	17.1155
2.5181	16.5139
2.5108	15.8339
2.5035	14.8262
2.4963	14.0249
2.4891	12.7519
2.482	11.2463
2.4749	9.999
2.4678	8.5305
2.4608	7.939
2.4538	8.3563
2.4468	9.3193
2.4399	10.4886
2.4331	10.824
2.4262	11.5631
2.4194	13.2055
2.4127	15.2233
2.4059	17.5861
2.3993	19.7851
2.3926	21.5282
2.386	23.5582
2.3795	25.0112
2.3729	26.126
2.3664	26.8216
2.36	26.7961
2.3535	27.0752
2.3471	28.6313
2.3408	29.54
2.3345	29.4051
2.3282	27.589
2.3219	26.5323
2.3157	26.212
2.3095	25.3965
2.3034	24.5611
2.2972	24.6369
2.2911	25.0572
2.2851	25.5809
2.279	25.4744
2.2731	24.9375
2.2671	23.74
2.2612	22.1843
2.2553	20.7094
2.2494	19.6923
2.2435	19.4061
2.2377	19.7219
2.232	20.5675
2.2262	21.472
2.2205	21.9612
2.2148	22.5637
2.2091	22.6897
2.2035	23.0192
2.1979	22.8147
2.1923	21.8693
2.1868	20.7582
2.1812	19.466
2.1758	18.1669
2.1703	16.6428
2.1649	15.433
2.1595	15.439
2.1541	16.6666
2.1487	17.5366
2.1434	17.896
2.1381	16.8935
2.1328	15.358
2.1275	14.9902
2.1223	16.7327
2.1171	18.9831
2.112	21.1866
2.1068	22.344
2.1017	23.385
2.0966	24.9411
2.0915	27.3872
2.0865	30.5248
2.0814	33.2293
2.0764	37.5439
2.0715	41.2213
2.0665	44.3809
2.0616	46.5358
2.0567	47.925
2.0518	49.1002
2.0469	49.94
2.0421	49.798
2.0373	48.74
2.0325	47.4373
2.0277	47.0034
2.0229	49.4297
2.0182	51.5774
2.0135	51.5739
2.0088	51.2802
2.0042	52.3728
