Name: Prehnite Ca_2Al_2Si_3O_10(OH)_2
Type: Mineral
Class: Silicate
Subclass: Phyllosilicate
Particle Size: Medium
Sample No.: PS-21A
Owner: JPL
Wavelength Range: VSWIR
Origin: USA, Virginia, Centerville.
Description: Particle size was 45-125um.Collected by:  Burminco Original ASTER Spectral Library name was jpl.perkin.mineral.silicate.phyllosilicate.medium.ps21a.spectrum.txt
Measurement: Hemispherical reflectance
X Units: Wavelength (micrometers)
Y Units: Reflectance (percent)
wavelength	value
2.5	35.5377
2.494	35.817
2.488	36.0075
2.482	35.892
2.476	35.7756
2.47	36.2535
2.464	37.5132
2.458	38.8384
2.452	39.9221
2.446	40.4743
2.44	40.0852
2.434	38.6506
2.428	36.5061
2.422	33.9879
2.416	31.7091
2.41	29.4998
2.404	27.7204
2.398	26.2271
2.392	24.6931
2.386	23.6937
2.38	23.2584
2.374	22.851
2.368	21.8407
2.362	20.4009
2.356	20.0018
2.35	21.3748
2.344	23.2741
2.338	24.2884
2.332	24.8811
2.326	27.4583
2.32	33.4698
2.314	41.0602
2.308	46.7165
2.302	48.2025
2.296	47.1012
2.29	45.3685
2.284	44.3195
2.278	44.5822
2.272	46.248
2.266	48.768
2.26	50.5069
2.254	50.5665
2.248	48.8616
2.242	46.1141
2.236	44.0769
2.23	44.6879
2.224	47.5869
2.218	51.3546
2.212	55.4029
2.206	59.7373
2.2	63.5569
2.194	65.62
2.188	66.8137
2.182	67.5745
2.176	68.3206
2.17	69.042
2.164	69.7499
2.158	70.3785
2.152	70.7214
2.146	71.0695
2.14	71.5052
2.134	71.7683
2.128	71.7618
2.122	71.8304
2.116	71.919
2.11	71.9762
2.104	72.0587
2.098	72.2897
2.092	72.79
2.086	73.1655
2.08	73.4376
2.074	73.5837
2.068	73.7324
2.062	73.7615
2.056	73.8649
2.05	74.0004
2.044	73.9955
2.038	73.9874
2.032	73.7729
2.026	73.5361
2.02	73.4473
2.014	73.5349
2.008	73.5406
2.002	73.5137
1.996	73.722
1.99	73.88
1.984	73.9812
1.978	73.8653
1.972	73.662
1.966	73.1346
1.96	72.9694
1.954	72.752
1.948	72.4812
1.942	71.9488
1.936	71.4544
1.93	71.5135
1.924	71.6385
1.918	71.7724
1.912	71.5591
1.906	71.224
1.9	71.5085
1.894	72.415
1.888	72.8514
1.882	72.474
1.876	72.8529
1.87	74.4195
1.864	75.6726
1.858	76.374
1.852	76.7256
1.846	76.7909
1.84	76.7788
1.834	77.0962
1.828	77.5994
1.822	78.2934
1.816	78.9396
1.81	79.4644
1.804	79.9409
1.798	80.1037
1.792	80.3089
1.786	80.2559
1.78	80.193
1.774	80.0907
1.768	80.0034
1.762	79.7391
1.756	79.6826
1.75	79.6389
1.744	79.7289
1.738	79.7824
1.732	80.0641
1.726	80.3784
1.72	80.6435
1.714	80.81
1.708	80.9961
1.702	81.1842
1.696	81.289
1.69	81.5114
1.684	81.6283
1.678	81.5807
1.672	81.6882
1.666	81.826
1.66	81.8843
1.654	81.8661
1.648	81.8229
1.642	81.8826
1.636	81.7475
1.63	81.8912
1.624	81.7307
1.618	81.6739
1.612	81.857
1.606	81.7685
1.6	81.8329
1.594	81.7809
1.588	81.6966
1.582	81.8865
1.576	81.7181
1.57	81.698
1.564	81.5431
1.558	81.1876
1.552	81.1246
1.546	81.0753
1.54	80.8147
1.534	80.5196
1.528	80.2125
1.522	79.4925
1.516	78.4259
1.51	76.5733
1.504	73.8148
1.498	68.9672
1.492	63.9525
1.486	59.7305
1.48	49.4799
1.474	49.1307
1.468	63.4105
1.462	71.1426
1.456	73.0487
1.45	74.679
1.444	75.911
1.438	75.9023
1.432	76.219
1.426	79.0991
1.42	79.9512
1.414	80.3418
1.408	80.6906
1.402	81.1668
1.396	81.6587
1.39	82.0068
1.384	82.128
1.378	82.3371
1.372	82.4045
1.366	82.3829
1.36	82.5158
1.354	82.5805
1.348	82.5366
1.342	82.5136
1.336	82.2647
1.33	81.936
1.324	81.9323
1.318	81.6793
1.312	81.4382
1.306	80.4389
1.3	80.5733
1.294	80.8267
1.288	79.9014
1.282	80.6866
1.276	81.9433
1.27	82.2201
1.264	82.3898
1.258	82.4329
1.252	82.5709
1.246	82.4911
1.24	82.497
1.234	82.4903
1.228	82.5006
1.222	82.3658
1.216	82.3831
1.21	82.3379
1.204	82.3367
1.198	82.3103
1.192	82.2958
1.186	82.3084
1.18	82.2956
1.174	82.2427
1.168	82.1353
1.162	82.0785
1.156	82.0083
1.15	82.0958
1.144	81.9969
1.138	82.0301
1.132	82.0223
1.126	81.9741
1.12	81.9731
1.114	81.8869
1.108	81.8391
1.102	81.8892
1.096	81.8054
1.09	81.7837
1.084	81.6639
1.078	81.561
1.072	81.5453
1.066	81.5058
1.06	81.4768
1.054	81.3887
1.048	81.2685
1.042	81.2205
1.036	81.0517
1.03	80.8251
1.024	80.5479
1.018	80.0428
1.012	79.9058
1.006	80.2663
1	80.4065
0.994	80.518
0.988	80.6037
0.982	80.6584
0.976	80.6964
0.97	80.6873
0.964	80.8231
0.958	80.7494
0.952	80.8316
0.946	80.7859
0.94	80.8251
0.934	80.895
0.928	80.8543
0.922	80.8891
0.916	80.9163
0.91	81.0033
0.904	81.0595
0.898	81.1754
0.892	81.2714
0.886	81.3005
0.88	81.3243
0.874	81.4602
0.868	81.4648
0.862	81.6362
0.856	81.7257
0.85	81.8689
0.844	81.9435
0.838	82.0255
0.832	82.1545
0.826	82.2966
0.82	82.3703
0.814	82.4156
0.808	82.5524
0.802	82.6435
0.796	82.6095
0.79	82.7054
0.784	82.7376
0.778	82.7949
0.772	82.8159
0.766	82.92
0.76	82.9346
0.754	82.9639
0.748	82.9722
0.742	82.9832
0.736	83.002
0.73	82.9545
0.724	82.9234
0.718	82.8611
0.712	82.7824
0.706	82.7298
0.7	82.6315
0.694	82.579
0.688	82.4684
0.682	82.3865
0.676	82.3004
0.67	82.2043
0.664	82.1339
0.658	82.0525
0.652	81.9822
0.646	81.8844
0.64	81.8109
0.634	81.7491
0.628	81.6742
0.622	81.6077
0.616	81.5673
0.61	81.5487
0.604	81.5416
0.598	81.5891
0.592	81.6672
0.586	81.7343
0.58	81.7865
0.574	81.8695
0.568	81.9813
0.562	82.0587
0.556	82.1263
0.55	82.189
0.544	82.2245
0.538	82.2553
0.532	82.2522
0.526	82.2256
0.52	82.1829
0.514	82.0907
0.508	81.9734
0.502	81.8104
0.496	81.5891
0.49	81.333
0.484	81.057
0.478	80.8111
0.472	80.493
0.466	80.1479
0.46	79.7416
0.454	79.1749
0.448	78.3161
0.442	76.9507
0.436	75.1777
0.43	73.3839
0.424	73.304
0.418	73.9749
0.412	74.55
0.406	74.5314
0.4	74.144
