Name: Chlorite
Type: Mineral
Class: Silicate
Subclass: Phyllosilicate
Particle Size: Coarse
Sample No.: PS-12E
Owner: JPL
Wavelength Range: TIR
Origin: USA, Vermont
Description: Particle size was 125-500um.Collected by Ward's Original ASTER Spectral Library name was jpl.nicolet.mineral.silicate.phyllosilicate.coarse.ps12e.spectrum.txt
Measurement: Hemispherical reflectance
X Units: Wavelength (micrometers)
Y Units: Reflectance (percent)
wavelength	value
15.3853	7.6893
15.1161	7.3395
14.8563	5.6581
14.6052	5.4995
14.3624	4.3499
14.1276	3.7008
13.9004	4.0979
13.6803	4.0909
13.4671	4.4052
13.2604	5.0772
13.06	5.2012
12.8656	4.3647
12.6769	3.4755
12.4936	2.5451
12.3155	2.6022
12.1425	2.6929
11.9742	2.5343
11.8106	2.9622
11.6513	3.393
11.4963	3.8405
11.3454	4.3141
11.1983	4.9996
11.0551	5.4202
10.9154	6.2743
10.7793	7.5262
10.6465	10.0297
10.5169	12.904
10.3904	14.318
10.267	14.9838
10.1464	17.5735
10.0287	20.8643
9.9136	23.3833
9.8012	25.5455
9.6913	26.1314
9.5838	21.8546
9.4787	19.1078
9.3758	19.7615
9.2752	15.137
9.1767	8.2875
9.0803	4.7117
8.9858	2.6432
8.8934	1.9162
8.8028	1.3311
8.714	1.2408
8.627	1.5099
8.5417	1.3976
8.4581	1.5175
8.3761	1.4086
8.2957	1.715
8.2169	1.8171
8.1395	1.9366
8.0635	1.9624
7.989	2.1753
7.9158	2.3309
7.8439	2.5656
7.7734	2.5675
7.7041	2.7947
7.636	2.7902
7.5691	2.8462
7.5034	3.0407
7.4388	3.2291
7.3753	3.3512
7.3129	3.4261
7.2515	3.69
7.1912	3.8495
7.1318	4.0293
7.0734	4.1982
7.016	4.2917
6.9595	4.4886
6.9039	4.5336
6.8492	4.6135
6.7953	4.7421
6.7423	4.8291
6.6901	4.834
6.6387	4.8523
6.5881	4.8817
6.5382	4.7076
6.4892	4.8083
6.4408	4.4548
6.3931	4.3968
6.3462	4.2897
6.2999	4.2318
6.2543	4.2416
6.2094	4.1757
6.1651	4.4018
6.1214	4.4157
6.0784	4.4936
6.0359	4.6169
5.994	4.644
5.9527	4.6189
5.912	4.6606
5.8718	4.6831
5.8322	4.9078
5.7931	4.9891
5.7545	5.2491
5.7165	5.6304
5.6789	5.7671
5.6418	5.8699
5.6052	5.8295
5.5691	5.9209
5.5334	6.0832
5.4982	6.3253
5.4635	6.6706
5.4291	7.017
5.3952	7.3331
5.3618	7.5023
5.3287	7.531
5.2961	7.7425
5.2638	7.6863
5.2319	7.7485
5.2004	7.8313
5.1693	7.9593
5.1386	7.8739
5.1082	7.9822
5.0782	8.0078
5.0485	7.95
5.0192	8.0077
4.9902	7.9676
4.9616	8.1137
4.9332	8.3124
4.9052	8.5525
4.8776	8.7909
4.8502	9.2255
4.8231	9.7603
4.7963	10.2202
4.7699	10.6919
4.7437	11.1418
4.7178	11.9574
4.6922	12.6601
4.6668	13.5727
4.6418	14.1675
4.617	14.5766
4.5924	15.3507
4.5681	16.1722
4.5441	16.8472
4.5203	17.2269
4.4968	17.677
4.4735	18.1991
4.4505	18.6626
4.4277	18.9843
4.4051	19.3668
4.3828	19.6085
4.3607	19.8626
4.3388	20.0654
4.3171	20.4486
4.2956	20.657
4.2744	20.8763
4.2534	21.0018
4.2325	21.4302
4.2119	21.5205
4.1915	21.7115
4.1712	21.8131
4.1512	22.0456
4.1313	22.1005
4.1117	22.3153
4.0922	22.3357
4.0729	22.4922
4.0538	22.5454
4.0349	22.5409
4.0161	22.6287
3.9976	22.6179
3.9792	22.6037
3.9609	22.6824
3.9428	22.5723
3.9249	22.6023
3.9072	22.5791
3.8896	22.4306
3.8722	22.3938
3.8549	22.1618
3.8378	21.9804
3.8208	21.8592
3.804	21.7843
3.7873	21.7245
3.7708	21.4845
3.7544	21.4258
3.7382	21.3224
3.7221	21.0834
3.7061	20.9324
3.6903	20.7293
3.6746	20.7143
3.659	20.4312
3.6436	20.0995
3.6283	19.8953
3.6131	19.5513
3.5981	19.1872
3.5832	18.7426
3.5684	18.3902
3.5537	17.9629
3.5391	17.5954
3.5247	17.2919
3.5104	16.8805
3.4962	16.6355
3.4821	16.3622
3.4681	16.123
3.4543	15.7737
3.4405	15.6338
3.4269	15.4693
3.4133	15.1118
3.3999	14.7451
3.3866	14.5078
3.3733	14.3054
3.3602	13.9505
3.3472	13.8157
3.3343	13.6198
3.3215	13.3763
3.3088	13.2441
3.2961	13.0498
3.2836	12.8612
3.2712	12.7363
3.2588	12.6244
3.2466	12.4986
3.2345	12.3421
3.2224	11.8045
3.2104	11.4904
3.1985	11.0234
3.1867	10.6147
3.175	10.2677
3.1634	9.8388
3.1519	9.4316
3.1404	8.8579
3.129	8.4517
3.1178	8.0478
3.1065	7.656
3.0954	7.0167
3.0844	6.7757
3.0734	6.1466
3.0625	5.9774
3.0517	5.5984
3.041	5.1255
3.0303	4.9119
3.0197	4.6499
3.0092	4.4041
2.9987	4.0472
2.9884	4.2266
2.9781	3.774
2.9678	3.8494
2.9577	3.7815
2.9476	3.8196
2.9376	3.5101
2.9276	3.713
2.9177	3.6532
2.9079	3.6115
2.8982	3.5901
2.8885	3.9262
2.8789	4.1609
2.8693	4.245
2.8598	4.4714
2.8504	4.1736
2.841	4.061
2.8317	3.8758
2.8224	3.9651
2.8133	3.7957
2.8041	3.7812
2.7951	3.8781
2.786	4.3404
2.7771	5.1423
2.7682	6.2408
2.7594	6.4097
2.7506	6.8338
2.7418	7.4108
2.7332	7.2461
2.7246	6.6803
2.716	7.5279
2.7075	13.0002
2.699	18.4364
2.6906	19.5355
2.6823	20.403
2.674	21.2818
2.6657	21.8102
2.6575	21.6284
2.6494	21.7691
2.6413	21.9191
2.6332	22.1817
2.6252	22.1468
2.6173	22.0118
2.6094	21.698
2.6015	21.4037
2.5937	21.3761
2.5859	21.0302
2.5782	21.0135
2.5706	21.0397
2.5629	21.288
2.5554	21.5037
2.5478	21.7667
2.5403	21.9434
2.5329	22.1482
2.5255	22.4502
2.5181	22.3576
2.5108	22.6169
2.5035	22.4859
2.4963	22.4045
2.4891	22.5906
2.482	22.5465
2.4749	22.6992
2.4678	22.8955
2.4608	23.7264
2.4538	24.4693
2.4468	24.9208
2.4399	25.5051
2.4331	25.6866
2.4262	26.155
2.4194	26.4547
2.4127	26.1493
2.4059	25.4366
2.3993	24.7289
2.3926	24.3581
2.386	23.9927
2.3795	23.9741
2.3729	22.9556
2.3664	21.8462
2.36	20.5884
2.3535	19.664
2.3471	18.6644
2.3408	18.3077
2.3345	18.0417
2.3282	18.2572
2.3219	18.6745
2.3157	19.6868
2.3095	20.1318
2.3034	20.3734
2.2972	20.4374
2.2911	20.8126
2.2851	22.3247
2.279	24.0021
2.2731	24.8269
2.2671	24.8413
2.2612	24.4727
2.2553	23.3572
2.2494	22.7362
2.2435	23.936
2.2377	27.3175
2.232	29.8793
2.2262	32.0881
2.2205	33.3493
2.2148	34.3687
2.2091	35.0236
2.2035	35.4619
2.1979	35.9584
2.1923	36.2098
2.1868	36.6036
2.1812	36.8692
2.1758	36.9884
2.1703	37.1525
2.1649	37.3522
2.1595	37.699
2.1541	37.6811
2.1487	37.7622
2.1434	37.7901
2.1381	37.9309
2.1328	37.851
2.1275	37.6609
2.1223	37.5467
2.1171	37.4444
2.112	37.6459
2.1068	37.4821
2.1017	37.8174
2.0966	37.8167
2.0915	37.9248
2.0865	38.0033
2.0814	37.6017
2.0764	38.2652
2.0715	37.8738
2.0665	37.5634
2.0616	37.415
2.0567	37.1402
2.0518	37.1779
2.0469	36.5005
2.0421	36.3498
2.0373	35.9623
2.0325	35.6492
2.0277	35.0656
2.0229	34.3237
2.0182	33.8579
2.0135	33.3659
2.0088	32.7743
2.0042	32.5681
