Name: Vesuvianite Ca_10(Mg,Fe^2+)_2Al_4(Si_2O_7)_2(SiO_4)_5(OH,F)_4
Type: Mineral
Class: Silicate
Subclass: Sorosilicate
Particle Size: Medium
Sample No.: SS-3A
Owner: JPL
Wavelength Range: TIR
Origin: USA, California, Riverside County, Crestmore Quarry
Description: Particle size was 45-125um.Collected by Burminco Original ASTER Spectral Library name was jpl.nicolet.mineral.silicate.sorosilicate.medium.ss03a.spectrum.txt
Measurement: Hemispherical reflectance
X Units: Wavelength (micrometers)
Y Units: Reflectance (percent)
wavelength	value
15.3853	1.984
15.1161	2.257
14.8563	2.188
14.6052	2.5755
14.3624	2.2754
14.1276	2.3203
13.9004	2.4699
13.6803	3.6884
13.4671	4.0917
13.2604	4.6545
13.06	4.8959
12.8656	5.5462
12.6769	6.1905
12.4936	6.2842
12.3155	5.9693
12.1425	6.7248
11.9742	7.3133
11.8106	7.5598
11.6513	8.1425
11.4963	8.2143
11.3454	9.5167
11.1983	8.8819
11.0551	8.7749
10.9154	10.4191
10.7793	9.3868
10.6465	8.4659
10.5169	9.3036
10.3904	10.4608
10.267	10.4116
10.1464	9.2787
10.0287	9.1121
9.9136	12.9968
9.8012	18.0514
9.6913	19.4179
9.5838	16.9696
9.4787	11.0228
9.3758	4.3765
9.2752	2.4748
9.1767	1.9165
9.0803	1.6287
8.9858	1.539
8.8934	1.5053
8.8028	1.3649
8.714	1.1798
8.627	1.3784
8.5417	1.5273
8.4581	1.8513
8.3761	2.3792
8.2957	2.7881
8.2169	3.0964
8.1395	3.3823
8.0635	3.621
7.989	3.9965
7.9158	3.9755
7.8439	4.2527
7.7734	4.5003
7.7041	4.7303
7.636	4.9319
7.5691	5.2352
7.5034	5.5107
7.4388	5.5562
7.3753	5.1654
7.3129	5.1368
7.2515	6.0489
7.1912	7.2782
7.1318	7.7932
7.0734	8.7066
7.016	9.2387
6.9595	10.153
6.9039	10.0063
6.8492	7.2934
6.7953	7.0841
6.7423	8.8543
6.6901	12.4237
6.6387	14.7408
6.5881	14.2803
6.5382	11.9073
6.4892	9.7717
6.4408	6.688
6.3931	4.7166
6.3462	7.5378
6.2999	10.7013
6.2543	11.7422
6.2094	11.4339
6.1651	11.0165
6.1214	10.5244
6.0784	10.2776
6.0359	10.0923
5.994	10.4595
5.9527	10.5756
5.912	10.6833
5.8718	10.7441
5.8322	10.4865
5.7931	9.9961
5.7545	9.5299
5.7165	9.2119
5.6789	8.8383
5.6418	8.7827
5.6052	7.8742
5.5691	7.0681
5.5334	7.8841
5.4982	8.7732
5.4635	9.4463
5.4291	9.8804
5.3952	10.2357
5.3618	10.5874
5.3287	11.0388
5.2961	11.5229
5.2638	12.2614
5.2319	13.1333
5.2004	14.0603
5.1693	14.9875
5.1386	15.9925
5.1082	16.8933
5.0782	18.1234
5.0485	19.3193
5.0192	20.5395
4.9902	21.5457
4.9616	22.6707
4.9332	23.8056
4.9052	24.7552
4.8776	25.7896
4.8502	26.6108
4.8231	27.4758
4.7963	28.3342
4.7699	28.9136
4.7437	29.4028
4.7178	29.3369
4.6922	28.6156
4.6668	28.575
4.6418	29.4142
4.617	30.1811
4.5924	30.6342
4.5681	30.8679
4.5441	31.084
4.5203	31.1588
4.4968	31.4536
4.4735	31.7806
4.4505	32.1341
4.4277	32.4099
4.4051	32.6125
4.3828	32.8437
4.3607	32.9404
4.3388	32.9804
4.3171	32.9155
4.2956	32.9346
4.2744	32.9723
4.2534	33.047
4.2325	32.8643
4.2119	32.9923
4.1915	32.9693
4.1712	32.7757
4.1512	32.5884
4.1313	32.3913
4.1117	31.9352
4.0922	31.5207
4.0729	30.929
4.0538	30.2294
4.0349	28.0832
4.0161	26.3169
3.9976	24.2106
3.9792	23.4358
3.9609	23.6318
3.9428	24.7068
3.9249	24.8001
3.9072	24.5429
3.8896	24.4832
3.8722	24.6136
3.8549	24.8724
3.8378	24.9476
3.8208	25.8993
3.804	26.879
3.7873	27.5523
3.7708	27.4798
3.7544	27.0323
3.7382	26.9251
3.7221	26.5935
3.7061	26.1885
3.6903	25.6886
3.6746	25.0867
3.659	24.4499
3.6436	23.8455
3.6283	23.0289
3.6131	22.3325
3.5981	21.6134
3.5832	20.625
3.5684	19.842
3.5537	18.9648
3.5391	17.9226
3.5247	16.2372
3.5104	14.6756
3.4962	13.7748
3.4821	12.9463
3.4681	12.7649
3.4543	12.6612
3.4405	12.2741
3.4269	11.8079
3.4133	11.2667
3.3999	10.6491
3.3866	10.1705
3.3733	9.6271
3.3602	9.0086
3.3472	8.4364
3.3343	9.0634
3.3215	8.6912
3.3088	8.3555
3.2961	7.9413
3.2836	7.5907
3.2712	7.2313
3.2588	6.8928
3.2466	6.4564
3.2345	6.2521
3.2224	6.0182
3.2104	5.7519
3.1985	5.5776
3.1867	5.3599
3.175	5.2773
3.1634	4.9281
3.1519	4.9043
3.1404	4.9872
3.129	4.783
3.1178	4.9025
3.1065	4.8801
3.0954	4.8112
3.0844	4.8776
3.0734	5.0393
3.0625	5.0002
3.0517	5.1433
3.041	5.1839
3.0303	5.2977
3.0197	5.3018
3.0092	5.3358
2.9987	5.3865
2.9884	5.6113
2.9781	5.4381
2.9678	5.4585
2.9577	5.2215
2.9476	5.4218
2.9376	5.1677
2.9276	5.0565
2.9177	4.9748
2.9079	5.2291
2.8982	5.0724
2.8885	5.2324
2.8789	4.9896
2.8693	5.0909
2.8598	5.0195
2.8504	4.819
2.841	4.8124
2.8317	4.679
2.8224	4.7424
2.8133	4.5112
2.8041	4.6825
2.7951	4.4844
2.786	5.0574
2.7771	5.4247
2.7682	5.786
2.7594	5.1283
2.7506	4.7533
2.7418	4.9448
2.7332	5.2773
2.7246	5.5802
2.716	6.8342
2.7075	14.2107
2.699	20.5593
2.6906	23.84
2.6823	26.2334
2.674	28.0028
2.6657	30.9139
2.6575	30.8278
2.6494	31.9168
2.6413	33.1218
2.6332	34.5063
2.6252	35.9457
2.6173	37.7471
2.6094	38.2466
2.6015	38.7335
2.5937	40.6538
2.5859	40.0417
2.5782	40.2966
2.5706	40.9459
2.5629	41.9337
2.5554	41.8666
2.5478	42.7074
2.5403	42.9842
2.5329	43.3774
2.5255	44.0626
2.5181	44.0752
2.5108	44.3453
2.5035	44.2067
2.4963	44.2065
2.4891	44.3427
2.482	44.4726
2.4749	44.2881
2.4678	44.4087
2.4608	44.5392
2.4538	44.3641
2.4468	44.2555
2.4399	43.5973
2.4331	43.7409
2.4262	43.842
2.4194	43.891
2.4127	44.0349
2.4059	44.2268
2.3993	44.3361
2.3926	44.8096
2.386	44.8137
2.3795	44.8782
2.3729	44.466
2.3664	44.0061
2.36	43.1767
2.3535	42.4942
2.3471	42.8898
2.3408	44.0382
2.3345	45.1078
2.3282	46.6388
2.3219	47.5611
2.3157	47.8134
2.3095	47.9001
2.3034	48.4042
2.2972	49.845
2.2911	51.0861
2.2851	51.9363
2.279	52.6978
2.2731	53.321
2.2671	53.7976
2.2612	54.7525
2.2553	55.9687
2.2494	56.8453
2.2435	57.4786
2.2377	58.1895
2.232	58.6824
2.2262	59.158
2.2205	59.2766
2.2148	59.4401
2.2091	60.0442
2.2035	61.5351
2.1979	62.8368
2.1923	63.8894
2.1868	64.1057
2.1812	64.5802
2.1758	65.0381
2.1703	65.4745
2.1649	65.5683
2.1595	65.498
2.1541	65.3989
2.1487	65.1715
2.1434	65.7023
2.1381	66.4234
2.1328	67.6594
2.1275	68.5659
2.1223	69.4203
2.1171	70.4285
2.112	71.3403
2.1068	72.0549
2.1017	72.9039
2.0966	73.294
2.0915	73.9275
2.0865	74.3367
2.0814	74.7488
2.0764	75.0234
2.0715	74.9938
2.0665	75.281
2.0616	75.3905
2.0567	75.9397
2.0518	75.5093
2.0469	75.9371
2.0421	75.8468
2.0373	76.0128
2.0325	76.0631
2.0277	76.0343
2.0229	75.4783
2.0182	75.678
2.0135	75.4608
2.0088	75.6605
2.0042	75.4359
