Name: Cookeite LiAl_4(Si_3Al)O_10(OH)_8
Type: Mineral
Class: Silicate
Subclass: Phyllosilicate
Particle Size: Medium
Sample No.: PS-9A
Owner: JPL
Wavelength Range: VSWIR
Origin: USA, Arkansas, Pulaski County
Description: Particle size was 45-125um.Collected by JPL Original ASTER Spectral Library name was jpl.beckman.mineral.silicate.phyllosilicate.medium.ps09a.spectrum.txt
Measurement: Hemispherical reflectance
X Units: Wavelength (micrometers)
Y Units: Reflectance (percent)
wavelength	value
0.4	37.89
0.403	38.49
0.406	39.08
0.409	39.26
0.412	39.74
0.415	40.24
0.418	40.92
0.421	41.38
0.424	41.91
0.427	42.43
0.43	43.1
0.433	43.57
0.436	44.5
0.439	44.99
0.442	45.5
0.445	45.89
0.448	46.29
0.451	46.47
0.454	46.98
0.457	47.18
0.46	47.34
0.463	47.52
0.466	47.7
0.469	47.85
0.472	48.06
0.475	48.21
0.478	48.33
0.481	48.57
0.484	48.89
0.487	49.36
0.49	49.57
0.493	49.82
0.496	50.3
0.499	50.58
0.502	51.06
0.505	51.36
0.508	51.85
0.511	52.2
0.514	52.62
0.517	53.05
0.52	53.4
0.523	53.74
0.526	54.15
0.529	54.54
0.532	54.72
0.535	55.13
0.538	55.49
0.541	55.79
0.544	56.04
0.547	56.25
0.55	56.35
0.553	56.62
0.556	56.87
0.559	57.12
0.562	57.57
0.565	57.74
0.568	57.64
0.571	57.72
0.574	57.75
0.577	57.96
0.58	58.04
0.583	58.09
0.586	57.95
0.589	58.1
0.592	58.27
0.595	58.41
0.598	58.41
0.601	58.55
0.604	58.4
0.607	58.36
0.61	58.48
0.613	58.58
0.616	58.62
0.619	58.66
0.622	58.69
0.625	58.51
0.628	58.64
0.631	58.72
0.634	58.63
0.637	58.84
0.64	58.86
0.643	58.81
0.646	58.84
0.649	58.96
0.652	59.04
0.655	59.07
0.658	59.18
0.661	59.13
0.664	58.99
0.667	59.27
0.67	59.34
0.673	59.45
0.676	59.45
0.679	59.58
0.682	59.47
0.685	59.57
0.688	59.53
0.691	59.66
0.694	59.51
0.697	59.71
0.7	59.77
0.703	59.93
0.706	59.72
0.709	59.85
0.712	59.88
0.715	59.91
0.718	59.89
0.721	60.04
0.724	60.03
0.727	59.9
0.73	60.01
0.733	59.97
0.736	59.96
0.739	59.91
0.742	60.05
0.745	59.92
0.748	59.84
0.751	59.9
0.754	59.84
0.757	59.89
0.76	59.98
0.763	60.09
0.766	59.88
0.769	59.85
0.772	59.88
0.775	59.82
0.778	59.7
0.781	59.88
0.784	59.77
0.787	59.66
0.79	59.68
0.793	59.62
0.796	59.61
0.799	59.72
0.808	59.76
0.82	59.73
0.832	59.58
0.844	59.66
0.856	59.66
0.868	59.58
0.88	59.68
0.892	59.58
0.904	59.62
0.916	59.55
0.928	59.61
0.94	59.46
0.952	59.35
0.964	59.41
0.976	59.71
0.988	59.76
1	59.67
1.012	59.8
1.024	59.91
1.036	59.93
1.048	59.96
1.06	60.12
1.072	60.14
1.084	60.2
1.096	60.33
1.108	60.37
1.12	60.41
1.132	60.6
1.144	60.53
1.156	60.54
1.168	60.6
1.18	60.58
1.192	60.61
1.204	60.58
1.216	60.64
1.228	60.43
1.24	60.53
1.252	60.52
1.264	60.34
1.276	60.36
1.288	60.11
1.3	60.05
1.312	59.75
1.324	59.56
1.336	59.66
1.348	59.45
1.36	58.94
1.372	57.78
1.384	51.96
1.396	47.2
1.408	49.7
1.42	53.18
1.432	53.86
1.444	55.02
1.456	54.97
1.468	54.94
1.48	55.27
1.492	56.24
1.504	56.81
1.516	57.24
1.528	56.98
1.54	56.5
1.552	56.05
1.564	55.43
1.576	55
1.588	54.87
1.6	55.14
1.612	55.66
1.624	56.28
1.636	56.68
1.648	57.12
1.66	57.5
1.672	57.92
1.684	58.21
1.696	58.57
1.708	58.6
1.72	58.78
1.732	58.81
1.744	58.78
1.756	58.72
1.768	58.43
1.78	57.99
1.792	57.54
1.804	57.17
1.816	56.41
1.828	56.03
1.84	56.24
1.852	56.88
1.864	57.15
1.876	56.71
1.888	55.71
1.9	54.6
1.912	54.24
1.924	54.41
1.936	54.52
1.948	54.37
1.96	53.92
1.972	53.19
1.984	52.33
1.996	51.58
2.008	51.02
2.02	50.98
2.032	51.21
2.044	51.68
2.056	52.23
2.068	52.33
2.08	52.45
2.092	52.35
2.104	52.22
2.116	52.21
2.128	51.48
2.14	48.72
2.152	43.55
2.164	38.25
2.176	35.53
2.188	35.38
2.2	35.4
2.212	35.72
2.224	37.49
2.236	38.77
2.248	39.37
2.26	40.26
2.272	40.97
2.284	40.84
2.296	39.55
2.308	37.4
2.32	35.52
2.332	33.4
2.344	31.12
2.356	29.95
2.368	30.43
2.38	31.79
2.392	32.92
2.404	33.54
2.416	33.54
2.428	33.02
2.44	32.66
2.452	32.51
2.464	32.26
2.476	31.97
2.488	31.68
2.5	31.75
