Name: Andesine (Feldspar) (NaSi,CaAl)AlSi_2O_8
Type: Mineral
Class: Silicate
Subclass: Tectosilicate
Particle Size: Fine
Sample No.: TS-4A
Owner: JPL
Wavelength Range: VSWIR
Origin: Unknown.
Description: Particle size was 0-45um. Collected by:  JPL Original ASTER Spectral Library name was jpl.perkin.mineral.silicate.tectosilicate.fine.ts04a.spectrum.txt
Measurement: Hemispherical reflectance
X Units: Wavelength (micrometers)
Y Units: Reflectance (percent)
wavelength	value
2.5	77.3583
2.494	77.3928
2.488	77.2164
2.482	77.4405
2.476	77.593
2.47	77.7227
2.464	77.6025
2.458	77.5053
2.452	77.7398
2.446	77.7756
2.44	78.021
2.434	77.9651
2.428	78.045
2.422	78.3342
2.416	78.5619
2.41	78.678
2.404	78.8212
2.398	79.016
2.392	79.2342
2.386	79.2905
2.38	79.4479
2.374	79.5586
2.368	79.6161
2.362	79.7331
2.356	79.742
2.35	79.8249
2.344	79.8074
2.338	79.8776
2.332	79.9628
2.326	80.0457
2.32	80.16
2.314	80.1944
2.308	80.312
2.302	80.4363
2.296	80.464
2.29	80.5089
2.284	80.5973
2.278	80.5702
2.272	80.4794
2.266	80.5296
2.26	80.5827
2.254	80.4229
2.248	80.5306
2.242	80.489
2.236	80.5505
2.23	80.5187
2.224	80.4994
2.218	80.4409
2.212	80.3427
2.206	80.078
2.2	80.119
2.194	80.2277
2.188	80.4402
2.182	80.8644
2.176	81.1297
2.17	81.6873
2.164	81.9469
2.158	82.2821
2.152	82.4929
2.146	82.6046
2.14	82.6397
2.134	82.5738
2.128	82.4277
2.122	82.2285
2.116	81.9955
2.11	81.6702
2.104	81.4637
2.098	81.3115
2.092	81.4358
2.086	81.5101
2.08	81.559
2.074	81.6465
2.068	81.7353
2.062	81.8519
2.056	81.8994
2.05	81.9041
2.044	81.9389
2.038	82.0428
2.032	82.0522
2.026	81.9622
2.02	81.9208
2.014	81.9339
2.008	81.8635
2.002	81.7957
1.996	81.782
1.99	81.6318
1.984	81.462
1.978	81.4001
1.972	81.2738
1.966	81.2558
1.96	81.1615
1.954	81.1024
1.948	81.0411
1.942	81.0582
1.936	80.9724
1.93	80.9947
1.924	80.9432
1.918	80.8577
1.912	80.9435
1.906	81.1376
1.9	81.4901
1.894	81.8395
1.888	82.2272
1.882	82.3517
1.876	82.5529
1.87	82.6093
1.864	82.7353
1.858	82.77
1.852	82.8276
1.846	82.7668
1.84	82.7449
1.834	82.8434
1.828	82.8963
1.822	82.8212
1.816	82.8433
1.81	82.9941
1.804	82.8631
1.798	82.8983
1.792	82.8335
1.786	82.839
1.78	82.7969
1.774	82.8305
1.768	82.8754
1.762	82.7428
1.756	82.847
1.75	82.8071
1.744	82.9002
1.738	82.8748
1.732	82.9208
1.726	82.919
1.72	82.9512
1.714	82.9143
1.708	82.873
1.702	82.9016
1.696	82.8937
1.69	82.8436
1.684	82.7919
1.678	82.8525
1.672	82.8655
1.666	82.8194
1.66	82.8468
1.654	82.7356
1.648	82.8761
1.642	82.8735
1.636	82.8437
1.63	82.7605
1.624	82.8225
1.618	82.7997
1.612	82.8085
1.606	82.7986
1.6	82.8146
1.594	82.8112
1.588	82.7442
1.582	82.7877
1.576	82.7041
1.57	82.5942
1.564	82.5993
1.558	82.5814
1.552	82.6001
1.546	82.4475
1.54	82.4437
1.534	82.4349
1.528	82.4989
1.522	82.3275
1.516	82.334
1.51	82.253
1.504	82.2189
1.498	82.159
1.492	82.1397
1.486	82.0679
1.48	82.0141
1.474	81.9147
1.468	81.879
1.462	81.8635
1.456	81.7732
1.45	81.7393
1.444	81.692
1.438	81.6436
1.432	81.5816
1.426	81.3641
1.42	81.1197
1.414	80.7967
1.408	80.7637
1.402	80.944
1.396	81.2494
1.39	81.4239
1.384	81.5274
1.378	81.509
1.372	81.6283
1.366	81.6041
1.36	81.6495
1.354	81.4943
1.348	81.4899
1.342	81.4026
1.336	81.3222
1.33	81.4311
1.324	81.353
1.318	81.3766
1.312	81.3366
1.306	81.2908
1.3	81.291
1.294	81.3583
1.288	81.3507
1.282	81.2853
1.276	81.2941
1.27	81.3619
1.264	81.3176
1.258	81.2736
1.252	81.2754
1.246	81.3127
1.24	81.2392
1.234	81.2817
1.228	81.2967
1.222	81.4135
1.216	81.3909
1.21	81.3721
1.204	81.3944
1.198	81.3258
1.192	81.3549
1.186	81.436
1.18	81.4405
1.174	81.5147
1.168	81.566
1.162	81.5344
1.156	81.6469
1.15	81.647
1.144	81.7117
1.138	81.771
1.132	81.6866
1.126	81.7895
1.12	81.6768
1.114	81.7277
1.108	81.7885
1.102	81.8484
1.096	81.8897
1.09	82.0132
1.084	81.9181
1.078	82.0273
1.072	81.8788
1.066	82.0635
1.06	81.9808
1.054	82.0639
1.048	82.0664
1.042	82.084
1.036	82.0915
1.03	82.084
1.024	82.1399
1.018	82.159
1.012	82.1423
1.006	82.1903
1	82.1607
0.994	82.1999
0.988	82.1815
0.982	82.1638
0.976	82.2035
0.97	82.1524
0.964	82.1594
0.958	82.1766
0.952	82.1583
0.946	82.0957
0.94	82.1587
0.934	82.1132
0.928	82.1065
0.922	82.0716
0.916	82.1094
0.91	82.0762
0.904	82.048
0.898	82.0933
0.892	82.0898
0.886	81.945
0.88	82.0799
0.874	82.0279
0.868	81.9854
0.862	82.0052
0.856	82.0485
0.85	82.1428
0.844	82.129
0.838	82.1561
0.832	82.2724
0.826	82.2382
0.82	82.2883
0.814	82.3632
0.808	82.3887
0.802	82.4207
0.796	82.3319
0.79	82.3449
0.784	82.3788
0.778	82.3266
0.772	82.2729
0.766	82.2681
0.76	82.2376
0.754	82.1939
0.748	82.1645
0.742	82.1249
0.736	82.0478
0.73	82.0148
0.724	81.919
0.718	81.8622
0.712	81.7783
0.706	81.7159
0.7	81.6077
0.694	81.5248
0.688	81.4389
0.682	81.3848
0.676	81.2795
0.67	81.2093
0.664	81.0882
0.658	81.0399
0.652	80.951
0.646	80.8676
0.64	80.756
0.634	80.6792
0.628	80.5865
0.622	80.4717
0.616	80.3697
0.61	80.2373
0.604	80.0755
0.598	79.9469
0.592	79.7885
0.586	79.5727
0.58	79.314
0.574	78.9983
0.568	78.6672
0.562	78.264
0.556	77.8151
0.55	77.2998
0.544	76.7889
0.538	76.1755
0.532	75.5762
0.526	74.9555
0.52	74.3243
0.514	73.6887
0.508	73.0542
0.502	72.445
0.496	71.84
0.49	71.2757
0.484	70.7639
0.478	70.3599
0.472	70.0283
0.466	69.6751
0.46	69.3131
0.454	68.8986
0.448	68.3316
0.442	67.5408
0.436	66.6186
0.43	65.609
0.424	64.6852
0.418	63.91
0.412	63.2386
0.406	62.5455
0.4	61.8191
