Name: Microcline KAlSi3O8
Type: Mineral
Class: Silicate
Subclass: Tectosilicate
Particle Size: Coarse
Sample No.: micro_1
Owner: JHU
Wavelength Range: TIR
Origin: Park County, Colorado via the Smithsonian (sample no. NMNH135231)
Description: Sample was a 19.5 g fragment, light green in color. A slight amount of surface contamination was removed by brushing and ultrasonic cleaning. White material filled one thin (0.5 mm) vein cutting across one corner and was removed by hand-picking the crushed sample. Sample was not obviously perthitic.  Under the microscope it appeared pure, displaying little perthite or alteration. Particle size was 75-250 micrometers.(Framework Silicates); (Feldspar Group) Original ASTER Spectral Library name was jhu.nicolet.mineral.silicate.tectosilicate.coarse.micro1.spectrum.txt
Measurement: Bidirectional reflectance
X Units: Wavelength (micrometers)
Y Units: Reflectance (percent)
wavelength	value
25.0442	3.6352
24.3388	3.8608
23.6719	6.4507
23.0407	5.4502
22.4422	5.2588
21.8741	4.4009
21.334	3.655
20.8199	3.0122
20.33	2.189
19.8627	2.1914
19.4163	2.3491
18.9896	2.7102
18.5812	3.2703
18.19	2.282
17.815	2.6023
17.4551	3.1782
17.1094	4.0303
16.7772	4.5432
16.4576	4.48
16.15	3.3616
15.8537	1.9624
15.568	1.7666
15.2925	2.5522
15.0265	1.8489
14.7697	1.6135
14.5214	1.7427
14.2814	1.8874
14.0492	2.0464
13.8244	2.3091
13.6067	2.1079
13.3957	1.8965
13.1912	1.9963
12.9929	2.272
12.8004	1.6001
12.6135	1.5576
12.432	1.6511
12.2557	1.8398
12.0843	2.0413
11.9176	2.0703
11.7555	2.1155
11.5977	2.1201
11.444	2.1909
11.2944	2.2163
11.1487	2.2607
11.0067	2.3484
10.8682	2.418
10.7332	2.4985
10.6015	2.647
10.473	2.8535
10.3476	3.1418
10.2251	3.6357
10.1056	4.5503
9.9887	5.782
9.8746	6.6885
9.763	6.2195
9.6539	6.5447
9.5472	6.8201
9.4429	6.6767
9.3408	5.8767
9.2409	6.155
9.1431	6.1838
9.0474	5.0669
8.9536	4.7244
8.8618	5.3945
8.7718	6.2444
8.6837	6.6728
8.5973	6.8686
8.5126	6.8017
8.4295	6.7766
8.3481	6.5788
8.2682	5.7895
8.1898	4.6702
8.1129	3.5549
8.0374	2.4878
7.9634	1.5332
7.8906	0.8257
7.8192	0.4233
7.7491	0.3193
7.6802	0.375
7.6126	0.4595
7.5461	0.5452
7.4807	0.6277
7.4165	0.6968
7.3534	0.7427
7.2914	0.8201
7.2303	0.9019
7.1703	0.9915
7.1113	1.1189
7.0533	1.2102
6.9962	1.2429
6.94	1.2549
6.8847	1.3218
6.8302	1.312
6.7767	1.2954
6.7239	1.3445
6.672	1.417
6.6209	1.4446
6.5705	1.4731
6.5209	1.4961
6.4721	1.4766
6.424	1.4512
6.3766	1.4102
6.3299	1.3547
6.2838	1.3249
6.2385	1.2952
6.1937	1.2988
6.1496	1.3518
6.1062	1.4463
6.0633	1.522
6.0211	1.5688
5.9794	1.5847
5.9383	1.5405
5.8978	1.5056
5.8578	1.4853
5.8184	1.4443
5.7794	1.4021
5.741	1.3853
5.7031	1.356
5.6657	1.2991
5.6288	1.3228
5.5924	1.4094
5.5564	1.4275
5.5209	1.6321
5.4859	1.8557
5.4513	1.9123
5.4171	2.0166
5.3833	2.1648
5.35	2.271
5.3171	2.4018
5.2846	2.4739
5.2524	2.5437
5.2207	2.6916
5.1893	3.1074
5.1584	3.5281
5.1277	4.0102
5.0975	4.6174
5.0676	4.9961
5.038	5.0264
5.0088	5.4158
4.98	5.6142
4.9514	5.5002
4.9232	5.3013
4.8953	5.3962
4.8678	5.7336
4.8405	5.8552
4.8135	5.7368
4.7868	5.5166
4.7605	5.5637
4.7344	5.7712
4.7086	5.6164
4.6831	5.5422
4.6578	5.6225
4.6328	5.8618
4.6081	6.206
4.5837	6.487
4.5595	6.8943
4.5356	7.3874
4.5119	7.8249
4.4884	8.239
4.4652	8.6765
4.4423	9.0586
4.4196	9.3252
4.3971	9.6147
4.3748	9.9529
4.3528	10.261
4.331	10.5937
4.3094	10.8786
4.288	11.0783
4.2668	10.821
4.2458	11.5415
4.2251	11.7829
4.2045	12.0652
4.1841	12.2031
4.164	12.2937
4.144	12.3493
4.1242	12.3957
4.1046	12.4341
4.0852	12.4714
4.066	12.4944
4.047	12.5139
4.0281	12.5258
4.0094	12.5317
3.9909	12.5427
3.9725	12.5703
3.9544	12.5898
3.9363	12.6215
3.9185	12.6465
3.9008	12.6892
3.8833	12.6911
3.8659	12.7329
3.8487	12.8047
3.8316	12.8611
3.8147	12.925
3.7979	12.967
3.7813	12.9956
3.7648	13.031
3.7485	13.0576
3.7323	13.093
3.7162	13.1018
3.7003	13.1313
3.6845	13.144
3.6689	13.1594
3.6534	13.1799
3.638	13.1975
3.6227	13.2038
3.6076	13.198
3.5926	13.195
3.5777	13.1884
3.563	13.1635
3.5484	13.1518
3.5338	13.1233
3.5195	13.0869
3.5052	13.0317
3.491	12.9951
3.477	12.9665
3.463	12.9211
3.4492	12.8637
3.4355	12.789
3.4219	12.6985
3.4084	12.6157
3.395	12.5908
3.3817	12.5139
3.3685	12.4494
3.3554	12.3466
3.3425	12.2981
3.3296	12.205
3.3168	12.0742
3.3041	11.9922
3.2915	11.8818
3.279	11.7509
3.2666	11.633
3.2543	11.4953
3.2421	11.3698
3.23	11.2346
3.218	11.0971
3.206	10.9475
3.1942	10.8051
3.1824	10.666
3.1707	10.5261
3.1591	10.3796
3.1476	10.2409
3.1362	10.0984
3.1249	9.9626
3.1136	9.8391
3.1024	9.7436
3.0913	9.6355
3.0803	9.5503
3.0694	9.4631
3.0585	9.3974
3.0477	9.3489
3.037	9.2898
3.0264	9.2229
3.0158	9.1645
3.0053	9.0761
2.9949	9.0066
2.9845	8.9509
2.9743	8.8847
2.9641	8.8086
2.9539	8.7734
2.9439	8.7356
2.9339	8.7224
2.9239	8.7248
2.9141	8.7456
2.9043	8.7878
2.8946	8.8471
2.8849	8.9243
2.8753	8.9809
2.8658	9.092
2.8563	9.1821
2.8469	9.2837
2.8375	9.4021
2.8282	9.4907
2.819	9.6054
2.8098	9.7671
2.8007	9.9358
2.7917	10.1194
2.7827	10.3012
2.7738	10.5444
2.7649	10.7793
2.7561	11.0412
2.7473	11.3405
2.7386	11.7282
2.7299	12.1811
2.7213	12.5952
2.7128	12.9526
2.7043	13.2133
2.6959	13.3935
2.6875	13.5778
2.6791	13.6862
2.6709	13.74
2.6626	13.8772
2.6545	13.9257
2.6463	13.9602
2.6382	13.9348
2.6302	13.967
2.6222	13.9904
2.6143	13.9973
2.6064	14.0197
2.5986	14.0305
2.5908	14.0341
2.583	14.038
2.5753	14.0561
2.5677	14.03
2.5601	14.0175
2.5525	14.0288
2.545	14.0415
2.5375	14.042
2.5301	14.0556
2.5227	14.0122
2.5154	14.0166
2.5081	14.0166
2.5008	14.0451
2.4936	14.0114
2.4864	14.0175
2.4793	14.0254
2.4722	14.0337
2.4651	13.9756
2.4581	14.0107
2.4511	14.0171
2.4442	13.9629
2.4373	13.9817
2.4305	13.9863
2.4236	14.0036
2.4169	14.018
2.4101	14.0131
2.4034	14.0356
2.3967	13.9895
2.3901	13.9646
2.3835	13.9714
2.377	13.9843
2.3704	13.9731
2.364	13.9821
2.3575	13.9301
2.3511	13.9897
2.3447	13.9858
2.3384	13.9428
2.3321	13.873
2.3258	13.8964
2.3195	13.872
2.3133	13.9189
2.3071	13.9135
2.301	13.864
2.2949	13.8711
2.2888	13.8786
2.2828	13.8586
2.2767	13.863
2.2708	13.8422
2.2648	13.8564
2.2589	13.8979
2.253	13.8493
2.2471	13.8501
2.2413	13.8325
2.2355	13.8711
2.2297	13.8518
2.224	13.8149
2.2183	13.8296
2.2126	13.8337
2.207	13.8447
2.2013	13.7973
2.1957	13.8715
2.1902	13.8342
2.1846	13.7822
2.1791	13.7785
2.1736	13.7732
2.1682	13.8335
2.1628	13.8637
2.1574	13.8208
2.152	13.8237
2.1466	13.832
2.1413	13.8098
2.136	13.77
2.1308	13.8066
2.1255	13.8325
2.1203	13.8391
2.1151	13.8154
2.11	13.8344
2.1048	13.8232
2.0997	13.8657
2.0946	13.8476
2.0895	13.8305
2.0845	13.8315
2.0795	13.8256
