Name: Johannsenite Ca(Mn,Fe^2+)(SiO_3)_2
Type: Mineral
Class: Silicate
Subclass: Inosilicate
Particle Size: Coarse
Sample No.: IN-12A
Owner: JPL
Wavelength Range: VSWIR
Origin: USA, Arizona, Graham County, Aravaipa.
Description: Particle size was 125-500um.Collected by:  Burminco Original ASTER Spectral Library name was jpl.perkin.mineral.silicate.inosilicate.coarse.in12a.spectrum.txt
Measurement: Hemispherical reflectance
X Units: Wavelength (micrometers)
Y Units: Reflectance (percent)
wavelength	value
2.5	19.8453
2.494	19.7793
2.488	20.0653
2.482	20.4551
2.476	20.5013
2.47	20.6571
2.464	21.0448
2.458	21.1752
2.452	21.4175
2.446	21.6413
2.44	21.8147
2.434	22.0578
2.428	22.2539
2.422	22.419
2.416	22.5671
2.41	22.6961
2.404	22.8109
2.398	22.9689
2.392	23.1147
2.386	23.3067
2.38	23.5157
2.374	23.766
2.368	23.9264
2.362	24.0976
2.356	24.2507
2.35	24.2858
2.344	24.2656
2.338	24.3
2.332	24.2625
2.326	24.121
2.32	23.9919
2.314	23.8239
2.308	23.5022
2.302	23.2985
2.296	23.1453
2.29	23.1001
2.284	23.2162
2.278	23.4047
2.272	23.5755
2.266	23.68
2.26	23.7553
2.254	23.81
2.248	23.8143
2.242	23.8481
2.236	23.8714
2.23	23.7773
2.224	23.7577
2.218	23.7546
2.212	23.7464
2.206	23.8378
2.2	23.724
2.194	23.7308
2.188	23.7298
2.182	23.6794
2.176	23.6927
2.17	23.629
2.164	23.5093
2.158	23.4352
2.152	23.3586
2.146	23.2156
2.14	23.0716
2.134	22.9107
2.128	22.6744
2.122	22.4693
2.116	22.1896
2.11	22.0216
2.104	21.7938
2.098	21.5378
2.092	21.3864
2.086	21.2744
2.08	21.0266
2.074	20.8762
2.068	20.7559
2.062	20.5572
2.056	20.3965
2.05	20.1913
2.044	20.0472
2.038	19.8533
2.032	19.6565
2.026	19.3996
2.02	19.1614
2.014	18.9326
2.008	18.6858
2.002	18.4613
1.996	18.1753
1.99	17.9026
1.984	17.6684
1.978	17.4356
1.972	17.1982
1.966	16.996
1.96	16.7235
1.954	16.5727
1.948	16.3485
1.942	16.1416
1.936	15.9889
1.93	15.7396
1.924	15.4947
1.918	15.2243
1.912	15.1122
1.906	15.2834
1.9	15.892
1.894	16.5882
1.888	17.1293
1.882	17.3948
1.876	17.5381
1.87	17.5736
1.864	17.6672
1.858	17.548
1.852	17.4063
1.846	17.2983
1.84	17.2721
1.834	17.0597
1.828	16.9224
1.822	16.7952
1.816	16.641
1.81	16.5709
1.804	16.4404
1.798	16.3297
1.792	16.2046
1.786	16.0242
1.78	15.9592
1.774	15.8041
1.768	15.6875
1.762	15.5732
1.756	15.3904
1.75	15.3814
1.744	15.1437
1.738	15.1037
1.732	14.9746
1.726	14.8237
1.72	14.7329
1.714	14.6369
1.708	14.4815
1.702	14.3902
1.696	14.2343
1.69	14.1351
1.684	14.008
1.678	13.8855
1.672	13.7874
1.666	13.6535
1.66	13.473
1.654	13.3287
1.648	13.3188
1.642	13.2553
1.636	13.0267
1.63	12.946
1.624	12.835
1.618	12.7531
1.612	12.571
1.606	12.5533
1.6	12.4237
1.594	12.2896
1.588	12.1539
1.582	12.0546
1.576	11.9404
1.57	11.8255
1.564	11.7119
1.558	11.5821
1.552	11.5339
1.546	11.371
1.54	11.2588
1.534	11.0792
1.528	11.0379
1.522	10.9017
1.516	10.8134
1.51	10.7127
1.504	10.5614
1.498	10.499
1.492	10.3804
1.486	10.2787
1.48	10.141
1.474	10.0012
1.468	9.9252
1.462	9.7894
1.456	9.7626
1.45	9.5859
1.444	9.481
1.438	9.3228
1.432	9.2582
1.426	9.1853
1.42	9.0764
1.414	8.9326
1.408	8.8781
1.402	8.834
1.396	8.8441
1.39	8.8243
1.384	8.7109
1.378	8.64
1.372	8.4013
1.366	8.4387
1.36	8.2062
1.354	8.2752
1.348	8.0277
1.342	7.9973
1.336	7.9004
1.33	7.7262
1.324	7.6652
1.318	7.6733
1.312	7.538
1.306	7.3838
1.3	7.3548
1.294	7.2384
1.288	7.153
1.282	7.0563
1.276	7.0027
1.27	6.8814
1.264	6.9292
1.258	6.7841
1.252	6.7076
1.246	6.6216
1.24	6.6192
1.234	6.5637
1.228	6.4496
1.222	6.4135
1.216	6.3824
1.21	6.3159
1.204	6.3018
1.198	6.2481
1.192	6.151
1.186	6.2558
1.18	6.1875
1.174	6.1153
1.168	6.0489
1.162	6.0944
1.156	6.0263
1.15	6.0397
1.144	6.025
1.138	5.9928
1.132	5.9377
1.126	5.9536
1.12	5.8944
1.114	5.8552
1.108	5.9812
1.102	5.9344
1.096	5.8426
1.09	5.847
1.084	5.8062
1.078	5.8248
1.072	5.6448
1.066	5.743
1.06	5.6865
1.054	5.738
1.048	5.7218
1.042	5.6228
1.036	5.6852
1.03	5.5884
1.024	5.5558
1.018	5.4807
1.012	5.5259
1.006	5.4176
1	5.5322
0.994	5.473
0.988	5.4121
0.982	5.4138
0.976	5.3296
0.97	5.3926
0.964	5.3261
0.958	5.3454
0.952	5.3118
0.946	5.3302
0.94	5.3429
0.934	5.3859
0.928	5.3211
0.922	5.2896
0.916	5.331
0.91	5.3368
0.904	5.2565
0.898	5.2579
0.892	5.2618
0.886	5.2482
0.88	5.2777
0.874	5.2294
0.868	5.2177
0.862	5.1158
0.856	5.4398
0.85	5.4502
0.844	5.4306
0.838	5.3898
0.832	5.3698
0.826	5.3597
0.82	5.3245
0.814	5.3109
0.808	5.2835
0.802	5.2692
0.796	5.2515
0.79	5.2256
0.784	5.2121
0.778	5.2035
0.772	5.1809
0.766	5.1676
0.76	5.1588
0.754	5.1435
0.748	5.1317
0.742	5.13
0.736	5.1135
0.73	5.1052
0.724	5.097
0.718	5.0916
0.712	5.0933
0.706	5.0961
0.7	5.0961
0.694	5.0952
0.688	5.0971
0.682	5.0925
0.676	5.0885
0.67	5.0809
0.664	5.0668
0.658	5.0546
0.652	5.0351
0.646	5.0161
0.64	5.0007
0.634	4.9834
0.628	4.9672
0.622	4.9479
0.616	4.9311
0.61	4.9157
0.604	4.901
0.598	4.8869
0.592	4.8713
0.586	4.8494
0.58	4.8302
0.574	4.8003
0.568	4.7694
0.562	4.7327
0.556	4.6951
0.55	4.6526
0.544	4.6078
0.538	4.563
0.532	4.5121
0.526	4.4682
0.52	4.4251
0.514	4.3839
0.508	4.3436
0.502	4.3149
0.496	4.286
0.49	4.265
0.484	4.2416
0.478	4.2149
0.472	4.1945
0.466	4.1734
0.46	4.1606
0.454	4.1457
0.448	4.1382
0.442	4.1276
0.436	4.1139
0.43	4.1085
0.424	4.093
0.418	4.0841
0.412	4.0772
0.406	4.076
0.4	4.0742
