Name: Beryl Be3Al2Si6O18
Type: Mineral
Class: Silicate
Subclass: Cyclosilicate
Particle Size: Coarse
Sample No.: beryl_2
Owner: JHU
Wavelength Range: TIR
Origin: Smithsonian NMNH 134700Sample from Palermo Mine, NorthGroton, New Hampshire.
Description: Hand sample was pale green to white in color and appeared pure on the inside, with a small amount of surface discoloration.  The sample was roughly cubical, 2 cm on a side.  Microscopic examination indicated it to be pure with a very small amount (much less than 1%) of alteration. Particle size was 74-250 Micrometer.(Ring Silicates) Original ASTER Spectral Library name was jhu.nicolet.mineral.silicate.cyclosilicate.coarse.beryl2.spectrum.txt
Measurement: Bidirectional reflectance
X Units: Wavelength (micrometers)
Y Units: Reflectance (percent)
wavelength	value
25.0442	2.0207
24.3388	2.4031
23.6719	3.0129
23.0407	4.2231
22.4422	4.8266
21.8741	5.2952
21.334	5.1001
20.8199	3.0373
20.33	3.8118
19.8627	2.4875
19.4163	3.4163
18.9896	4.3943
18.5812	4.4067
18.19	3.7954
17.815	1.7998
17.4551	1.1233
17.1094	1.541
16.7772	3.1973
16.4576	2.2541
16.15	0.6572
15.8537	0.9434
15.568	1.2729
15.2925	1.543
15.0265	1.7664
14.7697	2.8237
14.5214	3.4319
14.2814	2.4739
14.0492	1.1763
13.8244	1.1956
13.6067	1.6443
13.3957	2.0518
13.1912	2.155
12.9929	1.3789
12.8004	1.1421
12.6135	1.481
12.432	1.9543
12.2557	2.0725
12.0843	1.7146
11.9176	1.1592
11.7555	0.98
11.5977	1.1272
11.444	1.3223
11.2944	1.5471
11.1487	1.8176
11.0067	2.1848
10.8682	2.7134
10.7332	3.4065
10.6015	4.1777
10.473	5.3223
10.3476	5.9787
10.2251	5.543
10.1056	4.3745
9.9887	2.7659
9.8746	3.0542
9.763	3.2231
9.6539	2.7331
9.5472	2.1633
9.4429	2.0132
9.3408	2.2715
9.2409	2.4834
9.1431	2.6626
9.0474	2.791
8.9536	2.7119
8.8618	2.4514
8.7718	2.2161
8.6837	1.9675
8.5973	1.9158
8.5126	2.0854
8.4295	2.303
8.3481	3.095
8.2682	3.5393
8.1898	3.7112
8.1129	3.8557
8.0374	3.9597
7.9634	4.0183
7.8906	4.0989
7.8192	4.2856
7.7491	3.5764
7.6802	2.5349
7.6126	1.6218
7.5461	0.9275
7.4807	0.4702
7.4165	0.2192
7.3534	0.1541
7.2914	0.1589
7.2303	0.1931
7.1703	0.2173
7.1113	0.2439
7.0533	0.2639
6.9962	0.2952
6.94	0.3196
6.8847	0.335
6.8302	0.3582
6.7767	0.3816
6.7239	0.4197
6.672	0.4463
6.6209	0.4802
6.5705	0.5264
6.5209	0.5327
6.4721	0.478
6.424	0.5124
6.3766	0.5725
6.3299	0.5964
6.2838	0.5898
6.2385	0.5144
6.1937	0.5579
6.1496	0.5354
6.1062	0.4812
6.0633	0.5779
6.0211	0.6455
5.9794	0.7624
5.9383	0.8032
5.8978	0.8013
5.8578	0.7764
5.8184	0.7581
5.7794	0.7788
5.741	0.8071
5.7031	0.8291
5.6657	0.8496
5.6288	0.8533
5.5924	0.8633
5.5564	0.8953
5.5209	0.9055
5.4859	0.9348
5.4513	0.999
5.4171	1.0422
5.3833	1.0754
5.35	1.0527
5.3171	1.012
5.2846	0.9311
5.2524	0.8254
5.2207	0.7388
5.1893	0.7085
5.1584	0.6953
5.1277	0.71
5.0975	0.7468
5.0676	0.8259
5.038	0.9062
5.0088	1.0017
4.98	1.1077
4.9514	1.2358
4.9232	1.353
4.8953	1.5061
4.8678	1.6897
4.8405	1.8459
4.8135	2.0129
4.7868	2.2715
4.7605	2.5207
4.7344	2.71
4.7086	2.844
4.6831	2.9292
4.6578	3.0166
4.6328	3.1392
4.6081	3.2932
4.5837	3.4089
4.5595	3.52
4.5356	3.6321
4.5119	3.7285
4.4884	3.7759
4.4652	3.8486
4.4423	4.0007
4.4196	4.2268
4.3971	4.4189
4.3748	4.5989
4.3528	4.7239
4.331	4.7986
4.3094	4.8523
4.288	4.916
4.2668	4.897
4.2458	4.6416
4.2251	5.0932
4.2045	5.3247
4.1841	5.76
4.164	5.8743
4.144	5.9106
4.1242	5.9365
4.1046	5.9546
4.0852	5.9624
4.066	6.0073
4.047	6.0725
4.0281	6.1411
4.0094	6.185
3.9909	6.2356
3.9725	6.2734
3.9544	6.3115
3.9363	6.3496
3.9185	6.3779
3.9008	6.4018
3.8833	6.4319
3.8659	6.4485
3.8487	6.4663
3.8316	6.4756
3.8147	6.4856
3.7979	6.4949
3.7813	6.5088
3.7648	6.5207
3.7485	6.5102
3.7323	6.521
3.7162	6.5371
3.7003	6.5473
3.6845	6.5329
3.6689	6.5281
3.6534	6.532
3.638	6.5432
3.6227	6.5669
3.6076	6.6035
3.5926	6.6096
3.5777	6.6245
3.563	6.6457
3.5484	6.6562
3.5338	6.6689
3.5195	6.667
3.5052	6.6496
3.491	6.6553
3.477	6.6623
3.463	6.647
3.4492	6.6113
3.4355	6.5727
3.4219	6.5288
3.4084	6.4936
3.395	6.4736
3.3817	6.4597
3.3685	6.4394
3.3554	6.4314
3.3425	6.4089
3.3296	6.3764
3.3168	6.3496
3.3041	6.3183
3.2915	6.2978
3.279	6.28
3.2666	6.2812
3.2543	6.2688
3.2421	6.2429
3.23	6.1597
3.218	5.9331
3.206	5.9209
3.1942	5.9604
3.1824	5.9128
3.1707	5.7849
3.1591	5.6748
3.1476	5.708
3.1362	5.626
3.1249	5.4656
3.1136	5.1411
3.1024	4.5117
3.0913	3.9785
3.0803	4.3757
3.0694	4.8926
3.0585	4.998
3.0477	4.9643
3.037	4.9009
3.0264	4.8132
3.0158	4.7024
3.0053	4.6284
2.9949	4.5222
2.9845	4.4162
2.9743	4.3386
2.9641	4.2644
2.9539	4.1587
2.9439	4.0066
2.9339	3.8777
2.9239	3.7097
2.9141	3.5122
2.9043	3.2959
2.8946	3.062
2.8849	2.8154
2.8753	2.5598
2.8658	2.313
2.8563	2.1006
2.8469	1.8655
2.8375	1.7314
2.8282	1.6721
2.819	1.4438
2.8098	1.2346
2.8007	1.0247
2.7917	0.7822
2.7827	0.6599
2.7738	0.666
2.7649	0.9319
2.7561	0.9109
2.7473	0.8137
2.7386	0.7036
2.7299	0.6682
2.7213	0.6504
2.7128	0.637
2.7043	0.6091
2.6959	0.6418
2.6875	0.759
2.6791	0.8948
2.6709	1.0137
2.6626	1.1357
2.6545	1.2729
2.6463	1.4397
2.6382	1.5828
2.6302	1.6611
2.6222	1.7275
2.6143	1.7422
2.6064	1.7158
2.5986	1.7261
2.5908	1.7585
2.583	1.8157
2.5753	1.8935
2.5677	1.9834
2.5601	2.1367
2.5525	2.3884
2.545	2.7436
2.5375	3.0234
2.5301	3.199
2.5227	3.2881
2.5154	3.3725
2.5081	3.5063
2.5008	3.7349
2.4936	3.977
2.4864	4.2483
2.4793	4.448
2.4722	4.6377
2.4651	4.79
2.4581	4.9433
2.4511	5.0759
2.4442	5.1933
2.4373	5.2849
2.4305	5.3608
2.4236	5.4233
2.4169	5.4829
2.4101	5.5469
2.4034	5.5884
2.3967	5.5644
2.3901	5.5842
2.3835	5.6074
2.377	5.6262
2.3704	5.656
2.364	5.6575
2.3575	5.7024
2.3511	5.6745
2.3447	5.7082
2.3384	5.6977
2.3321	5.7305
2.3258	5.7629
2.3195	5.7727
2.3133	5.8398
2.3071	5.8601
2.301	5.8855
2.2949	5.9114
2.2888	5.9255
2.2828	5.9338
2.2767	5.9319
2.2708	5.9563
2.2648	5.9624
2.2589	5.9819
2.253	5.9873
2.2471	5.9939
2.2413	6.0124
2.2355	6.0259
2.2297	6.0264
2.224	6.0088
2.2183	6.031
2.2126	5.9949
2.207	5.9717
2.2013	5.9294
2.1957	5.9863
2.1902	5.9836
2.1846	5.998
2.1791	6.0122
2.1736	6.0093
2.1682	6.0049
2.1628	5.9939
2.1574	5.9756
2.152	5.937
2.1466	5.9753
2.1413	6.0254
2.136	6.0903
2.1308	6.0871
2.1255	6.1047
2.1203	6.0708
2.1151	6.0906
2.11	6.081
2.1048	6.091
2.0997	6.1282
2.0946	6.116
2.0895	6.0559
2.0845	6.0954
2.0795	6.0749
