Name: Olivine (Fo66) (Fe+2,Mg)2SiO4
Type: Mineral
Class: Silicate
Subclass: Nesosilicate
Particle Size: Coarse
Sample No.: olivine_7
Owner: JHU
Wavelength Range: TIR
Origin: Kiglapait Intrusion, Labrador via Trude King #KI3054(obtained from S.A. Morse, Univ. of Mass.)
Description: Initially, the specimen was contaminated with pyroxene, spinel, and ilmenite.  Heavy liquid separation, followed by magnetic separation and hand picking, allowed olivines of different iron content to be obtained.  Sample ground to <60 micrometers and wet sieved.  Sample preparation by Trude King, USGS, Denver. Particle size was 0-60 micrometers, but Packed powder simulates coarse.(Isolated tetrahedra); (Olivine Group) Original ASTER Spectral Library name was jhu.nicolet.mineral.silicate.nesosilicate.packed.olivin7.spectrum.txt
Measurement: Bidirectional reflectance
X Units: Wavelength (micrometers)
Y Units: Reflectance (percent)
wavelength	value
25.0442	7.5002
24.3388	7.9375
23.6719	6.8843
23.0407	5.4543
22.4422	4.1658
21.8741	4.23
21.334	4.0095
20.8199	4.7202
20.33	5.7051
19.8627	5.5991
19.4163	6.2578
18.9896	6.7331
18.5812	7.1687
18.19	6.9255
17.815	5.258
17.4551	3.7175
17.1094	3.199
16.7772	3.4819
16.4576	3.8025
16.15	4.135
15.8537	3.7192
15.568	2.7969
15.2925	2.4773
15.0265	2.5701
14.7697	2.7812
14.5214	3.0195
14.2814	3.2097
14.0492	3.3996
13.8244	3.5129
13.6067	3.6494
13.3957	3.7317
13.1912	3.873
12.9929	3.8572
12.8004	3.8203
12.6135	3.7612
12.432	3.6804
12.2557	3.6789
12.0843	3.7241
11.9176	3.5906
11.7555	3.8337
11.5977	4.4219
11.444	5.4033
11.2944	6.2126
11.1487	6.7112
11.0067	7.1196
10.8682	7.6413
10.7332	8.1096
10.6015	7.737
10.473	5.6687
10.3476	6.2471
10.2251	6.7309
10.1056	6.1943
9.9887	5.9492
9.8746	5.6985
9.763	5.6301
9.6539	5.7363
9.5472	5.9397
9.4429	5.8
9.3408	4.9021
9.2409	3.7527
9.1431	2.9421
9.0474	2.6228
8.9536	2.613
8.8618	2.9788
8.7718	3.3205
8.6837	3.5149
8.5973	3.6475
8.5126	3.8379
8.4295	4.021
8.3481	4.2007
8.2682	4.3843
8.1898	4.6059
8.1129	4.7959
8.0374	4.9197
7.9634	4.977
7.8906	4.9973
7.8192	5.0264
7.7491	5.0466
7.6802	5.0058
7.6126	4.9968
7.5461	5.0635
7.4807	5.155
7.4165	5.2446
7.3534	5.2915
7.2914	5.3096
7.2303	5.2888
7.1703	5.1597
7.1113	4.9897
7.0533	4.9204
6.9962	4.8889
6.94	4.8672
6.8847	4.863
6.8302	4.9082
6.7767	4.9958
6.7239	5.0559
6.672	5.1123
6.6209	5.2275
6.5705	5.4101
6.5209	5.5876
6.4721	5.7463
6.424	5.8381
6.3766	5.8901
6.3299	5.9072
6.2838	5.8948
6.2385	5.863
6.1937	5.8137
6.1496	5.7397
6.1062	5.541
6.0633	5.2034
6.0211	5.0449
5.9794	5.1184
5.9383	5.1682
5.8978	5.2104
5.8578	5.2668
5.8184	5.3144
5.7794	5.3022
5.741	5.1296
5.7031	4.9001
5.6657	4.7754
5.6288	4.8721
5.5924	5.052
5.5564	5.135
5.5209	5.1401
5.4859	5.1545
5.4513	5.2663
5.4171	5.3989
5.3833	5.4927
5.35	5.5481
5.3171	5.5835
5.2846	5.6243
5.2524	5.6994
5.2207	5.7898
5.1893	5.8828
5.1584	5.9592
5.1277	6.0156
5.0975	6.0583
5.0676	6.0747
5.038	6.073
5.0088	6.0974
4.98	6.1987
4.9514	6.3772
4.9232	6.5588
4.8953	6.7021
4.8678	6.7995
4.8405	6.8689
4.8135	6.9238
4.7868	6.9802
4.7605	7.0276
4.7344	7.0664
4.7086	7.1025
4.6831	7.1435
4.6578	7.1875
4.6328	7.2353
4.6081	7.2707
4.5837	7.3196
4.5595	7.3542
4.5356	7.3982
4.5119	7.4441
4.4884	7.4848
4.4652	7.5202
4.4423	7.5637
4.4196	7.6037
4.3971	7.6474
4.3748	7.6955
4.3528	7.7358
4.331	7.7825
4.3094	7.8074
4.288	7.8635
4.2668	7.9018
4.2458	7.9563
4.2251	8.0119
4.2045	8.0334
4.1841	8.0764
4.164	8.112
4.144	8.1528
4.1242	8.1865
4.1046	8.2099
4.0852	8.2451
4.066	8.2724
4.047	8.2851
4.0281	8.2947
4.0094	8.2903
3.9909	8.2612
3.9725	8.2495
3.9544	8.2527
3.9363	8.3066
3.9185	8.3618
3.9008	8.4314
3.8833	8.4636
3.8659	8.5007
3.8487	8.5342
3.8316	8.5617
3.8147	8.5884
3.7979	8.6155
3.7813	8.6655
3.7648	8.7114
3.7485	8.7522
3.7323	8.7854
3.7162	8.801
3.7003	8.811
3.6845	8.8301
3.6689	8.8491
3.6534	8.8662
3.638	8.8818
3.6227	8.8987
3.6076	8.9167
3.5926	8.9055
3.5777	8.9153
3.563	8.905
3.5484	8.8791
3.5338	8.8594
3.5195	8.7868
3.5052	8.5588
3.491	8.6037
3.477	8.6389
3.463	8.6108
3.4492	8.5537
3.4355	8.4724
3.4219	8.2656
3.4084	8.3281
3.395	8.5044
3.3817	8.5351
3.3685	8.5857
3.3554	8.6772
3.3425	8.7136
3.3296	8.7268
3.3168	8.7209
3.3041	8.7209
3.2915	8.7307
3.279	8.7295
3.2666	8.7287
3.2543	8.7102
3.2421	8.6943
3.23	8.6633
3.218	8.647
3.206	8.625
3.1942	8.5937
3.1824	8.5527
3.1707	8.5161
3.1591	8.5017
3.1476	8.4416
3.1362	8.4194
3.1249	8.3828
3.1136	8.3533
3.1024	8.3254
3.0913	8.2886
3.0803	8.2539
3.0694	8.219
3.0585	8.1982
3.0477	8.1589
3.037	8.1399
3.0264	8.0979
3.0158	8.0661
3.0053	8.0298
2.9949	8.0051
2.9845	7.9636
2.9743	7.9321
2.9641	7.9265
2.9539	7.8916
2.9439	7.8635
2.9339	7.8489
2.9239	7.8235
2.9141	7.8032
2.9043	7.7895
2.8946	7.7646
2.8849	7.7419
2.8753	7.7148
2.8658	7.7051
2.8563	7.6953
2.8469	7.6672
2.8375	7.6233
2.8282	7.5869
2.819	7.5805
2.8098	7.563
2.8007	7.5622
2.7917	7.5945
2.7827	7.6291
2.7738	7.6472
2.7649	7.6604
2.7561	7.6755
2.7473	7.6999
2.7386	7.7788
2.7299	7.6794
2.7213	7.6929
2.7128	8.1811
2.7043	8.666
2.6959	9.0547
2.6875	9.251
2.6791	9.3698
2.6709	9.3877
2.6626	9.3735
2.6545	9.3664
2.6463	9.3733
2.6382	9.3738
2.6302	9.3454
2.6222	9.3442
2.6143	9.3408
2.6064	9.3257
2.5986	9.3147
2.5908	9.3198
2.583	9.3105
2.5753	9.299
2.5677	9.2593
2.5601	9.2497
2.5525	9.2229
2.545	9.2068
2.5375	9.2068
2.5301	9.1982
2.5227	9.1933
2.5154	9.1611
2.5081	9.157
2.5008	9.1164
2.4936	9.1133
2.4864	9.1284
2.4793	9.1252
2.4722	9.1152
2.4651	9.1067
2.4581	9.0801
2.4511	9.0759
2.4442	9.0654
2.4373	9.0303
2.4305	9.011
2.4236	9.0205
2.4169	9.0124
2.4101	9.0058
2.4034	8.9975
2.3967	8.9707
2.3901	8.9695
2.3835	8.9348
2.377	8.9297
2.3704	8.9258
2.364	8.9004
2.3575	8.9204
2.3511	8.8999
2.3447	8.9043
2.3384	8.8894
2.3321	8.842
2.3258	8.8757
2.3195	8.8337
2.3133	8.8542
2.3071	8.8484
2.301	8.8413
2.2949	8.824
2.2888	8.8445
2.2828	8.8261
2.2767	8.8537
2.2708	8.8659
2.2648	8.8471
2.2589	8.8633
2.253	8.8413
2.2471	8.8535
2.2413	8.8462
2.2355	8.8486
2.2297	8.8323
2.224	8.843
2.2183	8.8247
2.2126	8.8137
2.207	8.8247
2.2013	8.8186
2.1957	8.8142
2.1902	8.8117
2.1846	8.822
2.1791	8.8218
2.1736	8.811
2.1682	8.8432
2.1628	8.8323
2.1574	8.8098
2.152	8.8193
2.1466	8.7846
2.1413	8.8388
2.136	8.8359
2.1308	8.8218
2.1255	8.8506
2.1203	8.8794
2.1151	8.8371
2.11	8.8269
2.1048	8.8594
2.0997	8.8672
2.0946	8.8659
2.0895	8.8652
2.0845	8.8955
2.0795	8.9297
