Name: Witherite BaCO_3
Type: Mineral
Class: Carbonate
Subclass: None
Particle Size: Fine
Sample No.: C-2A
Owner: JPL
Wavelength Range: TIR
Origin: United Kingdom, England
Description: Particle size was 0-45um.Collected by Grieger's Inc. Original ASTER Spectral Library name was jpl.nicolet.mineral.carbonate.none.fine.c02a.spectrum.txt
Measurement: Hemispherical reflectance
X Units: Wavelength (micrometers)
Y Units: Reflectance (percent)
wavelength	value
15.3853	57.2345
15.1161	58.926
14.8563	50.7453
14.6052	28.3302
14.3624	3.0353
14.1276	43.0346
13.9004	58.0021
13.6803	64.5129
13.4671	65.2269
13.2604	62.1936
13.06	57.9113
12.8656	59.13
12.6769	60.6881
12.4936	59.0854
12.3155	55.496
12.1425	52.6773
11.9742	33.2305
11.8106	15.5246
11.6513	7.5103
11.4963	20.5321
11.3454	25.5196
11.1983	32.7691
11.0551	41.7196
10.9154	51.0268
10.7793	48.1396
10.6465	54.1879
10.5169	57.4175
10.3904	54.5897
10.267	54.832
10.1464	52.5355
10.0287	52.7009
9.9136	50.3648
9.8012	48.9744
9.6913	48.1985
9.5838	45.2229
9.4787	38.0053
9.3758	43.5811
9.2752	43.818
9.1767	41.5475
9.0803	39.7435
8.9858	37.5973
8.8934	39.9335
8.8028	41.1015
8.714	38.673
8.627	38.1914
8.5417	39.2954
8.4581	38.5623
8.3761	39.7434
8.2957	39.235
8.2169	34.9449
8.1395	37.8184
8.0635	35.3136
7.989	32.4788
7.9158	31.645
7.8439	30.8165
7.7734	23.6534
7.7041	20.0692
7.636	18.4209
7.5691	18.1592
7.5034	17.9476
7.4388	17.2142
7.3753	15.7431
7.3129	10.4042
7.2515	9.4883
7.1912	8.627
7.1318	7.2583
7.0734	9.0052
7.016	12.1596
6.9595	12.4551
6.9039	12.6905
6.8492	13.0811
6.7953	13.2005
6.7423	12.3639
6.6901	12.1386
6.6387	14.3492
6.5881	14.7079
6.5382	9.9161
6.4892	5.7744
6.4408	3.2335
6.3931	2.6297
6.3462	2.72
6.2999	3.5173
6.2543	4.6692
6.2094	6.0588
6.1651	8.2247
6.1214	9.7292
6.0784	12.2538
6.0359	16.65
5.994	23.2834
5.9527	30.6026
5.912	37.9348
5.8718	45.0142
5.8322	47.2069
5.7931	50.6202
5.7545	41.6261
5.7165	3.6477
5.6789	14.7618
5.6418	56.8526
5.6052	64.9886
5.5691	69.18
5.5334	71.5469
5.4982	73.0501
5.4635	74.9766
5.4291	76.469
5.3952	77.3933
5.3618	77.9138
5.3287	79.1057
5.2961	79.9455
5.2638	79.4096
5.2319	80.0099
5.2004	81.2584
5.1693	81.4874
5.1386	81.0094
5.1082	81.9385
5.0782	83.5682
5.0485	83.5338
5.0192	84.1452
4.9902	84.5428
4.9616	84.2682
4.9332	84.0508
4.9052	83.6278
4.8776	82.4207
4.8502	79.4561
4.8231	73.6061
4.7963	57.9584
4.7699	51.7219
4.7437	60.254
4.7178	64.9353
4.6922	70.9142
4.6668	73.5625
4.6418	75.8509
4.617	76.69
4.5924	76.5701
4.5681	76.648
4.5441	77.7319
4.5203	80.2921
4.4968	82.6165
4.4735	82.8488
4.4505	82.3962
4.4277	79.9865
4.4051	74.3495
4.3828	74.4877
4.3607	76.525
4.3388	77.0466
4.3171	77.0271
4.2956	76.0116
4.2744	73.1231
4.2534	72.2939
4.2325	71.8484
4.2119	70.7394
4.1915	69.3092
4.1712	67.6622
4.1512	63.4573
4.1313	48.9371
4.1117	38.5197
4.0922	14.4356
4.0729	8.0232
4.0538	13.6674
4.0349	16.666
4.0161	26.2424
3.9976	31.6171
3.9792	35.2881
3.9609	36.833
3.9428	35.8777
3.9249	35.8398
3.9072	37.5455
3.8896	46.6701
3.8722	63.9956
3.8549	69.9562
3.8378	70.9159
3.8208	72.3856
3.804	73.9626
3.7873	75.0412
3.7708	75.9281
3.7544	76.5338
3.7382	76.7929
3.7221	76.5123
3.7061	76.5683
3.6903	76.192
3.6746	75.4399
3.659	74.0332
3.6436	67.9098
3.6283	71.4621
3.6131	68.8562
3.5981	62.0752
3.5832	48.7715
3.5684	34.1218
3.5537	23.7211
3.5391	18.4325
3.5247	24.9625
3.5104	29.1846
3.4962	31.9981
3.4821	29.2681
3.4681	27.8098
3.4543	29.9332
3.4405	36.2566
3.4269	46.7828
3.4133	56.1505
3.3999	62.1738
3.3866	65.5064
3.3733	67.5389
3.3602	69.5776
3.3472	70.5701
3.3343	71.2752
3.3215	71.6781
3.3088	72.2314
3.2961	72.7991
3.2836	73.3923
3.2712	74.038
3.2588	74.2761
3.2466	74.6183
3.2345	74.9168
3.2224	74.8067
3.2104	73.9045
3.1985	71.1828
3.1867	67.6204
3.175	68.4755
3.1634	71.2195
3.1519	72.2787
3.1404	72.8339
3.129	73.155
3.1178	73.1018
3.1065	73.0644
3.0954	73.0708
3.0844	72.8301
3.0734	72.9976
3.0625	73.0367
3.0517	73.1962
3.041	73.144
3.0303	73.0935
3.0197	73.1212
3.0092	73.0045
2.9987	72.7749
2.9884	72.8474
2.9781	72.9124
2.9678	72.7789
2.9577	72.9567
2.9476	73.1905
2.9376	73.3457
2.9276	73.6483
2.9177	73.804
2.9079	74.0945
2.8982	74.1544
2.8885	74.1492
2.8789	73.2402
2.8693	70.9723
2.8598	66.9193
2.8504	70.7735
2.841	74.1124
2.8317	75.934
2.8224	77.5585
2.8133	78.726
2.8041	79.7715
2.7951	80.2729
2.786	81.5302
2.7771	82.205
2.7682	83.5243
2.7594	84.4575
2.7506	85.9535
2.7418	87.3516
2.7332	87.9138
2.7246	88.6751
2.716	89.0893
2.7075	89.6905
2.699	90.1686
2.6906	90.962
2.6823	91.1129
2.674	91.4243
2.6657	92.1761
2.6575	91.1477
2.6494	90.9188
2.6413	89.968
2.6332	90.6971
2.6252	90.007
2.6173	87.6835
2.6094	82.5083
2.6015	75.3949
2.5937	76.076
2.5859	77.3113
2.5782	79.6726
2.5706	82.1624
2.5629	83.8266
2.5554	84.2776
2.5478	84.4799
2.5403	84.6344
2.5329	84.9683
2.5255	85.954
2.5181	87.5356
2.5108	88.7376
2.5035	89.5989
2.4963	90.2179
2.4891	90.4855
2.482	90.7817
2.4749	90.8233
2.4678	90.9748
2.4608	91.1507
2.4538	91.1121
2.4468	91.0884
2.4399	91.1806
2.4331	91.098
2.4262	90.8857
2.4194	90.2676
2.4127	89.6663
2.4059	87.6917
2.3993	84.7587
2.3926	82.2155
2.386	81.6441
2.3795	84.486
2.3729	86.4003
2.3664	87.4276
2.36	88.0672
2.3535	88.2273
2.3471	88.379
2.3408	88.6644
2.3345	88.8238
2.3282	89.237
2.3219	89.8761
2.3157	90.0936
2.3095	90.6669
2.3034	90.9034
2.2972	91.1213
2.2911	91.3665
2.2851	91.6753
2.279	91.9337
2.2731	92.0142
2.2671	92.227
2.2612	92.3167
2.2553	92.5305
2.2494	92.5339
2.2435	92.5885
2.2377	92.6762
2.232	92.7377
2.2262	92.5776
2.2205	92.3453
2.2148	91.9937
2.2091	91.7987
2.2035	92.0233
2.1979	92.4592
2.1923	92.5902
2.1868	92.7795
2.1812	92.7134
2.1758	92.8594
2.1703	92.8471
2.1649	92.8833
2.1595	92.7381
2.1541	92.9751
2.1487	92.8203
2.1434	93.0363
2.1381	93.0172
2.1328	92.9996
2.1275	92.9503
2.1223	93.1902
2.1171	93.1605
2.112	93.3701
2.1068	93.23
2.1017	93.1191
2.0966	92.9752
2.0915	93.1979
2.0865	92.876
2.0814	93.0287
2.0764	93.0757
2.0715	92.8688
2.0665	93.1382
2.0616	92.8175
2.0567	92.8963
2.0518	92.3867
2.0469	91.6454
2.0421	92.3997
2.0373	92.4611
2.0325	92.3411
2.0277	92.6984
2.0229	92.6669
2.0182	92.8666
2.0135	92.5316
2.0088	92.8272
2.0042	92.9228
