Name: Brucite Mg(OH)_2
Type: Mineral
Class: Hydroxide
Subclass: None
Particle Size: Fine
Sample No.: OH-1A
Owner: JPL
Wavelength Range: VSWIR
Origin: USA, Nevada, Nye County, Gabbs.
Description: Particle size was 0-45um.Collected by:  JPL Original ASTER Spectral Library name was jpl.perkin.mineral.hydroxide.none.fine.oh01a.spectrum.txt
Measurement: Hemispherical reflectance
X Units: Wavelength (micrometers)
Y Units: Reflectance (percent)
wavelength	value
2.5	22.9653
2.494	19.9036
2.488	17.9737
2.482	16.7355
2.476	16.3683
2.47	17.4224
2.464	19.5825
2.458	21.4768
2.452	23.1703
2.446	25.1895
2.44	27.3933
2.434	29.5179
2.428	32.3455
2.422	36.2963
2.416	41.367
2.41	46.7551
2.404	50.865
2.398	53.4798
2.392	54.7896
2.386	55.6156
2.38	55.9894
2.374	56.1175
2.368	55.9804
2.362	55.5475
2.356	54.6627
2.35	53.1499
2.344	50.88
2.338	48.1828
2.332	45.4336
2.326	43.3216
2.32	42.3524
2.314	42.5091
2.308	43.6648
2.302	45.4142
2.296	47.3974
2.29	49.0482
2.284	50.3312
2.278	51.103
2.272	51.4738
2.266	51.7947
2.26	51.9977
2.254	52.2587
2.248	52.696
2.242	53.3629
2.236	53.9936
2.23	54.8743
2.224	55.8799
2.218	56.949
2.212	57.8465
2.206	58.6049
2.2	59.3432
2.194	60.2548
2.188	61.7088
2.182	63.248
2.176	64.8593
2.17	66.2488
2.164	67.2283
2.158	67.789
2.152	68.0197
2.146	67.839
2.14	67.5746
2.134	67.3174
2.128	67.0151
2.122	66.9001
2.116	66.8379
2.11	66.926
2.104	66.8807
2.098	66.8784
2.092	67.1281
2.086	67.2256
2.08	67.3784
2.074	67.4951
2.068	67.5827
2.062	67.7469
2.056	67.9774
2.05	68.3609
2.044	68.6455
2.038	68.9893
2.032	69.1843
2.026	69.4681
2.02	69.7631
2.014	70.0586
2.008	70.5973
2.002	71.1877
1.996	71.6507
1.99	72.2298
1.984	72.6675
1.978	73.0044
1.972	73.0876
1.966	73.2357
1.96	73.2466
1.954	73.374
1.948	73.3842
1.942	73.4803
1.936	73.5163
1.93	73.6177
1.924	73.9569
1.918	74.4606
1.912	75.1527
1.906	76.0196
1.9	76.8989
1.894	77.7795
1.888	78.4685
1.882	78.8724
1.876	79.5399
1.87	79.9034
1.864	80.437
1.858	80.9638
1.852	81.3666
1.846	81.6471
1.84	82.0047
1.834	82.3235
1.828	82.5917
1.822	82.8574
1.816	83.2419
1.81	83.4273
1.804	83.783
1.798	84.0266
1.792	84.256
1.786	84.3538
1.78	84.412
1.774	84.5363
1.768	84.7425
1.762	84.876
1.756	85.0356
1.75	85.1984
1.744	85.4306
1.738	85.6243
1.732	85.8535
1.726	86.0227
1.72	86.1311
1.714	86.2937
1.708	86.4713
1.702	86.5992
1.696	86.7803
1.69	87.015
1.684	87.0746
1.678	87.1999
1.672	87.4202
1.666	87.4738
1.66	87.7336
1.654	87.784
1.648	87.8832
1.642	88.0295
1.636	88.1572
1.63	88.1982
1.624	88.2146
1.618	88.3103
1.612	88.3719
1.606	88.5407
1.6	88.5506
1.594	88.5933
1.588	88.635
1.582	88.7645
1.576	88.6457
1.57	88.7249
1.564	88.6943
1.558	88.7076
1.552	88.7299
1.546	88.743
1.54	88.6467
1.534	88.6106
1.528	88.6613
1.522	88.644
1.516	88.6871
1.51	88.5566
1.504	88.4642
1.498	88.3461
1.492	88.1433
1.486	87.9601
1.48	87.8287
1.474	87.8035
1.468	87.8168
1.462	87.5856
1.456	87.4419
1.45	87.3974
1.444	86.8794
1.438	86.3391
1.432	86.2997
1.426	86.2539
1.42	85.1435
1.414	84.2803
1.408	79.6772
1.402	62.524
1.396	52.7813
1.39	76.0595
1.384	78.8288
1.378	82.2572
1.372	85.429
1.366	80.6901
1.36	80.4503
1.354	87.6739
1.348	87.6683
1.342	87.5474
1.336	87.8472
1.33	88.2777
1.324	88.2875
1.318	88.2018
1.312	88.4465
1.306	87.9226
1.3	87.0161
1.294	87.8653
1.288	88.5813
1.282	89.1185
1.276	89.4684
1.27	89.5334
1.264	89.5469
1.258	89.3878
1.252	89.3309
1.246	89.2548
1.24	89.1824
1.234	89.3038
1.228	89.5431
1.222	89.5193
1.216	89.4701
1.21	89.5414
1.204	89.5692
1.198	89.5724
1.192	89.4571
1.186	89.4691
1.18	89.4834
1.174	89.4595
1.168	89.368
1.162	89.3118
1.156	89.3081
1.15	89.3664
1.144	89.2629
1.138	89.2851
1.132	89.2248
1.126	89.2187
1.12	89.165
1.114	89.1361
1.108	89.0489
1.102	88.9493
1.096	88.8457
1.09	88.7673
1.084	88.7673
1.078	88.7665
1.072	88.6783
1.066	88.699
1.06	88.7743
1.054	88.6578
1.048	88.5362
1.042	88.5733
1.036	88.5999
1.03	88.5452
1.024	88.5435
1.018	88.5488
1.012	88.5683
1.006	88.5113
1	88.5229
0.994	88.5754
0.988	88.5665
0.982	88.4651
0.976	88.4742
0.97	88.4539
0.964	87.9295
0.958	84.528
0.952	84.9777
0.946	87.6158
0.94	88.2209
0.934	88.4607
0.928	88.2747
0.922	88.2143
0.916	88.4648
0.91	88.4297
0.904	88.4719
0.898	88.4128
0.892	88.3534
0.886	88.4156
0.88	88.4221
0.874	88.4664
0.868	88.3663
0.862	88.4719
0.856	88.2107
0.85	88.3862
0.844	88.4269
0.838	88.581
0.832	88.7304
0.826	88.8523
0.82	88.9774
0.814	89.1584
0.808	89.2166
0.802	89.4555
0.796	89.5123
0.79	89.6351
0.784	89.7611
0.778	89.8645
0.772	89.9708
0.766	90.103
0.76	90.1818
0.754	90.3058
0.748	90.4047
0.742	90.4661
0.736	90.2244
0.73	90.3386
0.724	90.6045
0.718	90.6648
0.712	90.7055
0.706	90.6784
0.7	90.7032
0.694	90.6899
0.688	90.665
0.682	90.6557
0.676	90.5874
0.67	90.5509
0.664	90.507
0.658	90.4438
0.652	90.4151
0.646	90.3821
0.64	90.2922
0.634	90.2025
0.628	90.1433
0.622	90.0298
0.616	89.9098
0.61	89.78
0.604	89.6157
0.598	89.5126
0.592	89.3971
0.586	89.2404
0.58	89.0196
0.574	88.8096
0.568	88.5757
0.562	88.3391
0.556	88.0655
0.55	87.8101
0.544	87.5849
0.538	87.2962
0.532	86.9806
0.526	86.6506
0.52	86.2709
0.514	85.8785
0.508	85.6439
0.502	85.2753
0.496	84.8325
0.49	84.2689
0.484	83.6139
0.478	82.9074
0.472	82.1726
0.466	81.4494
0.46	80.4904
0.454	79.2854
0.448	77.9262
0.442	76.5614
0.436	75.1954
0.43	73.8869
0.424	72.7174
0.418	71.4433
0.412	69.7994
0.406	67.6947
0.4	65.1502
