Name: Pyrolusite MnO_2
Type: Mineral
Class: Oxide
Subclass: None
Particle Size: Coarse
Sample No.: O-6A
Owner: JPL
Wavelength Range: TIR
Origin: Mexico, Chihuahua
Description: Particle size was 125-500um.Collected by Grieger's Inc. Original ASTER Spectral Library name was jpl.nicolet.mineral.oxide.none.coarse.o06a.spectrum.txt
Measurement: Hemispherical reflectance
X Units: Wavelength (micrometers)
Y Units: Reflectance (percent)
wavelength	value
15.3853	32.8267
15.1161	31.6572
14.8563	29.6097
14.6052	27.8793
14.3624	23.9154
14.1276	16.5267
13.9004	10.9368
13.6803	8.9722
13.4671	7.2346
13.2604	3.9266
13.06	2.5032
12.8656	2.7883
12.6769	3.428
12.4936	3.8337
12.3155	4.7291
12.1425	5.0861
11.9742	5.4765
11.8106	5.8955
11.6513	6.2085
11.4963	6.7037
11.3454	7.0183
11.1983	7.3198
11.0551	7.4993
10.9154	7.7933
10.7793	8.1726
10.6465	8.3867
10.5169	8.4419
10.3904	8.6898
10.267	8.8742
10.1464	9.0419
10.0287	9.1206
9.9136	9.2786
9.8012	9.5575
9.6913	9.7831
9.5838	9.8087
9.4787	9.9812
9.3758	10.0332
9.2752	9.8582
9.1767	9.8192
9.0803	9.6513
8.9858	9.7129
8.8934	9.7645
8.8028	10.0896
8.714	10.1561
8.627	10.305
8.5417	10.5026
8.4581	10.8689
8.3761	11.0379
8.2957	11.0644
8.2169	11.4671
8.1395	11.5448
8.0635	11.6737
7.989	11.7508
7.9158	11.7409
7.8439	11.8595
7.7734	11.9279
7.7041	11.926
7.636	12.0089
7.5691	12.1737
7.5034	12.2811
7.4388	12.4819
7.3753	12.7205
7.3129	12.8285
7.2515	12.9781
7.1912	13.0361
7.1318	13.2146
7.0734	13.2865
7.016	13.3968
6.9595	13.5393
6.9039	13.3556
6.8492	13.5484
6.7953	13.7757
6.7423	13.4896
6.6901	13.7971
6.6387	14.1564
6.5881	13.8006
6.5382	13.8894
6.4892	14.3593
6.4408	13.9425
6.3931	13.9534
6.3462	14.2301
6.2999	13.9685
6.2543	13.8733
6.2094	13.8882
6.1651	14.1266
6.1214	14.19
6.0784	14.3093
6.0359	14.211
5.994	14.3285
5.9527	14.3492
5.912	14.411
5.8718	14.5659
5.8322	14.694
5.7931	14.5203
5.7545	14.6363
5.7165	14.6716
5.6789	14.6647
5.6418	14.7814
5.6052	14.5871
5.5691	14.5541
5.5334	14.5886
5.4982	14.5849
5.4635	14.768
5.4291	14.7144
5.3952	14.8277
5.3618	14.8089
5.3287	14.8527
5.2961	14.7956
5.2638	14.8659
5.2319	14.7724
5.2004	14.8906
5.1693	14.9305
5.1386	14.9845
5.1082	14.9676
5.0782	14.9442
5.0485	15.0882
5.0192	14.972
4.9902	15.0719
4.9616	15.0997
4.9332	15.0125
4.9052	15.0631
4.8776	15.1264
4.8502	15.1397
4.8231	15.1027
4.7963	15.1432
4.7699	15.2631
4.7437	15.18
4.7178	15.1245
4.6922	15.2209
4.6668	15.2661
4.6418	15.2394
4.617	15.3126
4.5924	15.312
4.5681	15.2596
4.5441	15.346
4.5203	15.304
4.4968	15.4027
4.4735	15.3961
4.4505	15.4029
4.4277	15.3659
4.4051	15.5251
4.3828	15.534
4.3607	15.5119
4.3388	15.4774
4.3171	15.5029
4.2956	15.4156
4.2744	15.4774
4.2534	15.4712
4.2325	15.4825
4.2119	15.5631
4.1915	15.675
4.1712	15.6265
4.1512	15.5985
4.1313	15.6533
4.1117	15.5026
4.0922	15.6646
4.0729	15.6875
4.0538	15.7807
4.0349	15.673
4.0161	15.8058
3.9976	15.8413
3.9792	15.765
3.9609	15.7921
3.9428	15.8186
3.9249	15.7913
3.9072	15.7503
3.8896	15.8189
3.8722	15.715
3.8549	15.8877
3.8378	15.9769
3.8208	15.8045
3.804	15.8859
3.7873	15.9017
3.7708	15.8241
3.7544	15.8678
3.7382	15.8687
3.7221	15.9007
3.7061	15.8085
3.6903	15.9471
3.6746	15.8218
3.659	15.8126
3.6436	15.925
3.6283	15.8873
3.6131	15.9175
3.5981	15.9142
3.5832	15.8238
3.5684	15.9464
3.5537	15.9158
3.5391	15.9608
3.5247	15.9239
3.5104	15.919
3.4962	16.0801
3.4821	16.0531
3.4681	15.8495
3.4543	15.9587
3.4405	15.986
3.4269	16.0812
3.4133	15.9938
3.3999	15.957
3.3866	15.8712
3.3733	15.9307
3.3602	15.9186
3.3472	15.9159
3.3343	15.9088
3.3215	15.8862
3.3088	15.8454
3.2961	15.8551
3.2836	15.7795
3.2712	15.7317
3.2588	15.7819
3.2466	15.7719
3.2345	15.795
3.2224	15.787
3.2104	15.911
3.1985	15.8079
3.1867	15.8737
3.175	15.916
3.1634	15.7252
3.1519	15.825
3.1404	15.8167
3.129	15.8785
3.1178	15.7405
3.1065	15.8333
3.0954	15.8079
3.0844	15.6697
3.0734	15.8592
3.0625	15.694
3.0517	15.8694
3.041	15.7381
3.0303	15.7198
3.0197	15.8945
3.0092	15.8978
2.9987	15.726
2.9884	15.9941
2.9781	15.8195
2.9678	15.8715
2.9577	15.7667
2.9476	15.7177
2.9376	15.5102
2.9276	15.8536
2.9177	15.7569
2.9079	15.953
2.8982	15.9731
2.8885	15.8061
2.8789	16.0473
2.8693	16.1019
2.8598	16.3193
2.8504	16.0598
2.841	16.1308
2.8317	16.0149
2.8224	16.2332
2.8133	16.5048
2.8041	16.3798
2.7951	16.3486
2.786	16.5143
2.7771	16.5835
2.7682	16.7683
2.7594	16.6094
2.7506	16.587
2.7418	16.9383
2.7332	16.8244
2.7246	16.8965
2.716	16.629
2.7075	16.8598
2.699	16.674
2.6906	16.6344
2.6823	16.6995
2.674	16.8775
2.6657	17.0762
2.6575	16.6543
2.6494	16.609
2.6413	16.8397
2.6332	16.8226
2.6252	16.9748
2.6173	16.9288
2.6094	16.7277
2.6015	16.8716
2.5937	17.3905
2.5859	16.844
2.5782	16.7373
2.5706	16.9418
2.5629	16.867
2.5554	16.6773
2.5478	16.7614
2.5403	16.7649
2.5329	16.7677
2.5255	16.944
2.5181	16.8887
2.5108	16.7699
2.5035	16.9274
2.4963	17.0057
2.4891	16.935
2.482	16.7628
2.4749	16.8927
2.4678	16.8747
2.4608	16.913
2.4538	16.798
2.4468	17.0304
2.4399	16.8692
2.4331	16.8262
2.4262	16.8781
2.4194	16.9399
2.4127	16.7074
2.4059	16.8201
2.3993	16.8764
2.3926	16.9224
2.386	16.8126
2.3795	17.0664
2.3729	17.0311
2.3664	16.9953
2.36	16.8562
2.3535	17.0101
2.3471	17.1166
2.3408	17.1308
2.3345	16.9751
2.3282	16.8523
2.3219	16.951
2.3157	16.9145
2.3095	16.943
2.3034	17.165
2.2972	17.0081
2.2911	17.0872
2.2851	17.0036
2.279	17.0367
2.2731	17.0415
2.2671	17.0519
2.2612	17.0369
2.2553	17.2094
2.2494	17.0846
2.2435	17.0019
2.2377	16.9789
2.232	17.1211
2.2262	17.1375
2.2205	16.997
2.2148	17.0491
2.2091	17.2244
2.2035	17.0819
2.1979	17.1752
2.1923	17.1415
2.1868	17.0581
2.1812	17.1886
2.1758	17.2398
2.1703	17.0769
2.1649	17.0455
2.1595	17.1474
2.1541	16.8599
2.1487	17.3166
2.1434	16.9541
2.1381	16.9766
2.1328	17.1027
2.1275	17.0264
2.1223	17.0221
2.1171	16.979
2.112	17.3669
2.1068	16.8655
2.1017	17.0464
2.0966	17.1119
2.0915	16.9343
2.0865	17.1193
2.0814	17.5589
2.0764	16.8444
2.0715	17.1432
2.0665	17.1014
2.0616	17.2926
2.0567	16.83
2.0518	17.4762
2.0469	17.0117
2.0421	17.2762
2.0373	17.209
2.0325	17.1367
2.0277	17.105
2.0229	17.2162
2.0182	17.2486
2.0135	17.3176
2.0088	16.96
2.0042	17.1427
