Name: Riebeckite Na_2(Fe^2+,Mg)_3,Fe_2^3+Si_8O_22(OH)_2
Type: Mineral
Class: Silicate
Subclass: Inosilicate
Particle Size: Fine
Sample No.: IN-7A
Owner: JPL
Wavelength Range: VSWIR
Origin: Canada, Ontario.
Description: Particle size was 0-45um. Collected by:  Ward's Original ASTER Spectral Library name was jpl.perkin.mineral.silicate.inosilicate.fine.in07a.spectrum.txt
Measurement: Hemispherical reflectance
X Units: Wavelength (micrometers)
Y Units: Reflectance (percent)
wavelength	value
2.5	65.8687
2.494	65.5028
2.488	65.6924
2.482	65.777
2.476	65.9423
2.47	65.9444
2.464	66.1236
2.458	66.1789
2.452	66.2276
2.446	66.342
2.44	66.4449
2.434	66.3652
2.428	66.2615
2.422	65.9423
2.416	65.5721
2.41	65.044
2.404	64.5874
2.398	64.2088
2.392	64.0056
2.386	64.1631
2.38	64.4649
2.374	65.0275
2.368	65.474
2.362	65.6633
2.356	65.5222
2.35	65.077
2.344	64.5505
2.338	63.9431
2.332	63.5617
2.326	63.4306
2.32	63.5558
2.314	64.1816
2.308	65.0777
2.302	66.0965
2.296	66.723
2.29	67.3065
2.284	67.6886
2.278	67.9355
2.272	68.1335
2.266	68.1612
2.26	68.2357
2.254	68.3505
2.248	68.426
2.242	68.4145
2.236	68.4913
2.23	68.5481
2.224	68.54
2.218	68.746
2.212	68.6977
2.206	68.7541
2.2	68.9136
2.194	68.9016
2.188	68.9404
2.182	69.0378
2.176	69.0222
2.17	69.1298
2.164	69.1646
2.158	69.2108
2.152	69.2048
2.146	69.1721
2.14	69.116
2.134	68.9335
2.128	68.7158
2.122	68.4392
2.116	68.1626
2.11	67.9331
2.104	67.7178
2.098	67.6256
2.092	67.6952
2.086	67.7162
2.08	67.767
2.074	67.7605
2.068	67.7107
2.062	67.7734
2.056	67.7276
2.05	67.7664
2.044	67.7523
2.038	67.76
2.032	67.6135
2.026	67.5558
2.02	67.3771
2.014	67.2878
2.008	67.2645
2.002	67.1933
1.996	67.0415
1.99	66.9094
1.984	66.7366
1.978	66.5989
1.972	66.4712
1.966	66.3298
1.96	66.0871
1.954	66.0971
1.948	66.0219
1.942	65.7321
1.936	65.7134
1.93	65.5221
1.924	65.4597
1.918	65.4199
1.912	65.2826
1.906	65.3035
1.9	65.2975
1.894	65.3728
1.888	65.3214
1.882	65.3161
1.876	65.2239
1.87	65.0926
1.864	65.0968
1.858	64.8828
1.852	64.7725
1.846	64.5482
1.84	64.4297
1.834	64.263
1.828	64.0867
1.822	63.9763
1.816	63.746
1.81	63.6079
1.804	63.4436
1.798	63.2544
1.792	63.0686
1.786	62.9143
1.78	62.6109
1.774	62.4364
1.768	62.2132
1.762	61.9852
1.756	61.8393
1.75	61.6289
1.744	61.3823
1.738	61.1456
1.732	60.9748
1.726	60.7761
1.72	60.5252
1.714	60.328
1.708	60.0181
1.702	59.7274
1.696	59.5276
1.69	59.1848
1.684	58.9964
1.678	58.7029
1.672	58.4011
1.666	58.1837
1.66	57.831
1.654	57.5623
1.648	57.3423
1.642	57.0014
1.636	56.7368
1.63	56.4776
1.624	56.1665
1.618	55.7865
1.612	55.5091
1.606	55.2769
1.6	54.8726
1.594	54.512
1.588	54.2067
1.582	53.8822
1.576	53.5705
1.57	53.185
1.564	52.8564
1.558	52.5017
1.552	52.2339
1.546	51.8319
1.54	51.4425
1.534	51.0668
1.528	50.6679
1.522	50.361
1.516	49.9977
1.51	49.5738
1.504	49.1109
1.498	48.7371
1.492	48.3629
1.486	47.9868
1.48	47.5953
1.474	47.203
1.468	46.7924
1.462	46.3969
1.456	45.9245
1.45	45.4768
1.444	45.041
1.438	44.681
1.432	44.2392
1.426	43.7834
1.42	43.2567
1.414	42.6428
1.408	41.9251
1.402	41.3631
1.396	40.8643
1.39	40.6234
1.384	40.4724
1.378	40.2127
1.372	39.8172
1.366	39.3797
1.36	38.9545
1.354	38.5103
1.348	37.9899
1.342	37.5559
1.336	37.1093
1.33	36.6431
1.324	36.1767
1.318	35.8076
1.312	35.3626
1.306	34.8133
1.3	34.419
1.294	33.9628
1.288	33.592
1.282	33.137
1.276	32.7871
1.27	32.3079
1.264	31.8951
1.258	31.4976
1.252	31.1268
1.246	30.7046
1.24	30.3539
1.234	30.0036
1.228	29.6296
1.222	29.2195
1.216	28.9578
1.21	28.5477
1.204	28.2457
1.198	27.9798
1.192	27.6355
1.186	27.345
1.18	27.0549
1.174	26.7949
1.168	26.5598
1.162	26.3013
1.156	26.0331
1.15	25.8142
1.144	25.5387
1.138	25.3082
1.132	25.0443
1.126	24.8485
1.12	24.6282
1.114	24.4356
1.108	24.2213
1.102	24.0455
1.096	23.8172
1.09	23.6446
1.084	23.3326
1.078	23.251
1.072	23.0292
1.066	22.7971
1.06	22.5945
1.054	22.3146
1.048	22.1167
1.042	21.9435
1.036	21.6771
1.03	21.5222
1.024	21.2285
1.018	20.9584
1.012	20.7258
1.006	20.3787
1	20.1506
0.994	19.8545
0.988	19.4888
0.982	19.2562
0.976	18.9186
0.97	18.6838
0.964	18.3151
0.958	17.9791
0.952	17.6582
0.946	17.4186
0.94	17.107
0.934	16.8209
0.928	16.5972
0.922	16.3531
0.916	16.1202
0.91	15.926
0.904	15.7422
0.898	15.5092
0.892	15.3915
0.886	15.326
0.88	15.1609
0.874	15.0138
0.868	14.9772
0.862	14.8375
0.856	15.0807
0.85	15.014
0.844	14.9198
0.838	14.8401
0.832	14.7469
0.826	14.623
0.82	14.5125
0.814	14.3589
0.808	14.2063
0.802	14.0249
0.796	13.8252
0.79	13.6042
0.784	13.3895
0.778	13.1441
0.772	12.9233
0.766	12.6807
0.76	12.4431
0.754	12.2239
0.748	12.0078
0.742	11.8072
0.736	11.6002
0.73	11.4167
0.724	11.2438
0.718	11.0779
0.712	10.925
0.706	10.7856
0.7	10.6461
0.694	10.5241
0.688	10.4169
0.682	10.32
0.676	10.2292
0.67	10.1519
0.664	10.0871
0.658	10.0329
0.652	9.9926
0.646	9.9655
0.64	9.9444
0.634	9.9364
0.628	9.9389
0.622	9.9512
0.616	9.9659
0.61	9.9941
0.604	10.0225
0.598	10.0669
0.592	10.1157
0.586	10.1622
0.58	10.215
0.574	10.268
0.568	10.3314
0.562	10.3963
0.556	10.4622
0.55	10.5311
0.544	10.6007
0.538	10.6686
0.532	10.7354
0.526	10.8057
0.52	10.8744
0.514	10.9261
0.508	10.9477
0.502	10.9404
0.496	10.8841
0.49	10.8327
0.484	10.7832
0.478	10.6509
0.472	10.4731
0.466	10.2679
0.46	10.0537
0.454	9.8193
0.448	9.5563
0.442	9.3024
0.436	9.2378
0.43	9.054
0.424	8.7474
0.418	8.4339
0.412	8.1182
0.406	7.8093
0.4	7.5718
