Name: Kyanite Al2SiO5
Type: Mineral
Class: Silicate
Subclass: Nesosilicate
Particle Size: Solid
Sample No.: kyanite_1
Owner: JHU
Wavelength Range: TIR
Origin: Brazil via the Smithsonian (sample no. NMNH 139740)
Description: The sample consisted of two blue crystals, each about 1.5 cm x 0.4 cm x 0.4 cm in size.  Both displayed a very small amount of brown coating (limonite), which could be scraped off or picked out after initial crushing of the crystals.  Under the microscope, the resulting sample appears pure and unaltered. Sample measured was 100 crystal face.(Isolated Tetrahrdra); (Al2SiO5 Group) Original ASTER Spectral Library name was jhu.nicolet.mineral.silicate.phyllosilicate.solid.kyanit1.spectrum.txt
Measurement: Bidirectional reflectance
X Units: Wavelength (micrometers)
Y Units: Reflectance (percent)
wavelength	value
25.0442	24.4902
24.3388	23.6176
23.6719	26.7519
23.0407	32.0863
22.4422	32.8251
21.8741	28.9052
21.334	34.7492
20.8199	28.4845
20.33	29.8801
19.8627	37.3456
19.4163	43.87
18.9896	45.8409
18.5812	42.3939
18.19	41.2011
17.815	24.5317
17.4551	34.1386
17.1094	31.9482
16.7772	34.0614
16.4576	40.1937
16.15	49.225
15.8537	45.3326
15.568	54.0033
15.2925	43.9901
15.0265	39.3751
14.7697	47.2977
14.5214	52.985
14.2814	53.0057
14.0492	47.9327
13.8244	38.5277
13.6067	39.2699
13.3957	29.453
13.1912	25.6804
12.9929	27.4596
12.8004	27.8639
12.6135	26.2009
12.432	22.2546
12.2557	20.3193
12.0843	19.8627
11.9176	19.8132
11.7555	20.3068
11.5977	19.5358
11.444	21.0102
11.2944	22.3015
11.1487	24.873
11.0067	23.9853
10.8682	23.2895
10.7332	25.7079
10.6015	29.2926
10.473	29.8945
10.3476	28.684
10.2251	31.6589
10.1056	31.0195
9.9887	28.2258
9.8746	27.4062
9.763	23.0937
9.6539	25.2585
9.5472	33.422
9.4429	31.9242
9.3408	30.2609
9.2409	30.0051
9.1431	25.8212
9.0474	24.726
8.9536	23.0937
8.8618	22.6264
8.7718	22.1672
8.6837	21.2031
8.5973	20.4877
8.5126	19.3049
8.4295	18.2143
8.3481	17.4848
8.2682	17.3798
8.1898	18.0515
8.1129	18.2443
8.0374	17.8452
7.9634	17.6196
7.8906	17.6228
7.8192	17.2558
7.7491	17.2251
7.6802	17.3078
7.6126	17.642
7.5461	18.0805
7.4807	18.2793
7.4165	18.4663
7.3534	18.4934
7.2914	18.2255
7.2303	18.2253
7.1703	17.7851
7.1113	18.6757
7.0533	19.2731
6.9962	19.1325
6.94	18.7136
6.8847	18.0102
6.8302	17.9807
6.7767	17.9108
6.7239	17.6252
6.672	19.1101
6.6209	19.9355
6.5705	20.0581
6.5209	20.2797
6.4721	20.5251
6.424	20.5473
6.3766	20.7348
6.3299	20.8998
6.2838	20.9274
6.2385	20.8791
6.1937	20.7954
6.1496	20.7136
6.1062	20.7072
6.0633	20.833
6.0211	20.8537
5.9794	20.8759
5.9383	20.3271
5.8978	20.4628
5.8578	20.7917
5.8184	21.3679
5.7794	20.9333
5.741	17.3437
5.7031	14.4687
5.6657	17.4111
5.6288	18.7563
5.5924	19.4177
5.5564	19.81
5.5209	20.2165
5.4859	20.489
5.4513	20.801
5.4171	20.9667
5.3833	21.1542
5.35	21.1198
5.3171	21.2409
5.2846	21.3066
5.2524	21.4079
5.2207	21.5107
5.1893	21.5988
5.1584	21.623
5.1277	21.5693
5.0975	21.5568
5.0676	21.5414
5.038	21.4958
5.0088	21.4824
4.98	21.4877
4.9514	21.4958
4.9232	21.4755
4.8953	21.4999
4.8678	21.5644
4.8405	21.6157
4.8135	21.7375
4.7868	21.9216
4.7605	22.1767
4.7344	22.3923
4.7086	22.5436
4.6831	22.6572
4.6578	22.7812
4.6328	22.9394
4.6081	23.0349
4.5837	23.1369
4.5595	23.1765
4.5356	23.2319
4.5119	23.2621
4.4884	23.2641
4.4652	23.3359
4.4423	23.3278
4.4196	23.3305
4.3971	23.343
4.3748	23.3588
4.3528	23.3954
4.331	23.4096
4.3094	23.434
4.288	23.6118
4.2668	23.6381
4.2458	23.8056
4.2251	23.809
4.2045	23.3598
4.1841	23.1301
4.164	23.1137
4.144	23.1757
4.1242	23.2309
4.1046	23.3076
4.0852	23.362
4.066	23.3659
4.047	23.3637
4.0281	23.4067
4.0094	23.426
3.9909	23.446
3.9725	23.5026
3.9544	23.4919
3.9363	23.5139
3.9185	23.486
3.9008	23.4892
3.8833	23.4631
3.8659	23.4565
3.8487	23.4714
3.8316	23.5285
3.8147	23.5453
3.7979	23.5544
3.7813	23.55
3.7648	23.5119
3.7485	23.5119
3.7323	23.486
3.7162	23.4653
3.7003	23.4186
3.6845	23.3596
3.6689	23.2792
3.6534	23.1618
3.638	23.1142
3.6227	23.0671
3.6076	22.9789
3.5926	22.9531
3.5777	22.9614
3.563	22.7707
3.5484	22.5163
3.5338	22.1777
3.5195	21.6538
3.5052	21.3757
3.491	21.1801
3.477	20.5959
3.463	20.4125
3.4492	19.8276
3.4355	19.4997
3.4219	19.2778
3.4084	18.9399
3.395	18.7255
3.3817	18.4965
3.3685	18.6259
3.3554	18.3422
3.3425	18.0661
3.3296	18.3247
3.3168	19.2958
3.3041	20.2936
3.2915	21.1345
3.279	21.7089
3.2666	21.9897
3.2543	22.1462
3.2421	22.1823
3.23	22.2817
3.218	22.33
3.206	22.352
3.1942	22.3867
3.1824	22.4033
3.1707	22.3823
3.1591	22.3664
3.1476	22.3593
3.1362	22.3686
3.1249	22.374
3.1136	22.3452
3.1024	22.329
3.0913	22.2856
3.0803	22.2575
3.0694	22.1345
3.0585	22.0927
3.0477	22.0598
3.037	22.1298
3.0264	22.196
3.0158	22.1865
3.0053	22.1911
2.9949	22.2202
2.9845	22.1972
2.9743	22.184
2.9641	22.1347
2.9539	21.7885
2.9439	21.997
2.9339	21.7895
2.9239	21.5888
2.9141	21.381
2.9043	21.3071
2.8946	21.4301
2.8849	21.5869
2.8753	21.7719
2.8658	21.8403
2.8563	21.7617
2.8469	21.8945
2.8375	21.8007
2.8282	21.7026
2.819	21.5944
2.8098	21.5834
2.8007	21.7021
2.7917	21.7636
2.7827	21.6464
2.7738	21.6625
2.7649	21.3486
2.7561	21.1259
2.7473	21.4038
2.7386	21.6201
2.7299	21.7861
2.7213	21.7619
2.7128	22.0986
2.7043	22.2487
2.6959	22.4238
2.6875	22.6838
2.6791	22.592
2.6709	22.5908
2.6626	22.7932
2.6545	22.7553
2.6463	22.6772
2.6382	22.7453
2.6302	22.6415
2.6222	22.728
2.6143	22.7685
2.6064	22.6708
2.5986	22.5996
2.5908	22.7275
2.583	22.6572
2.5753	22.6884
2.5677	22.6799
2.5601	22.5959
2.5525	22.4599
2.545	22.4982
2.5375	22.4728
2.5301	22.5353
2.5227	22.4916
2.5154	22.466
2.5081	22.4487
2.5008	22.3818
2.4936	22.3557
2.4864	22.2817
2.4793	22.2895
2.4722	22.2465
2.4651	22.2758
2.4581	22.2109
2.4511	22.1535
2.4442	22.0976
2.4373	22.05
2.4305	22.1154
2.4236	22.1132
2.4169	22.122
2.4101	22.1127
2.4034	22.0405
2.3967	22.1115
2.3901	22.1455
2.3835	22.1682
2.377	22.1701
2.3704	22.1538
2.364	22.2101
2.3575	22.217
2.3511	22.1574
2.3447	22.2473
2.3384	22.2543
2.3321	22.2441
2.3258	22.2951
2.3195	22.3478
2.3133	22.175
2.3071	22.0693
2.301	21.9562
2.2949	21.9531
2.2888	22.0168
2.2828	22.1132
2.2767	22.0927
2.2708	22.1249
2.2648	22.0363
2.2589	21.8723
2.253	22.0268
2.2471	22.1762
2.2413	22.2939
2.2355	22.3276
2.2297	22.5502
2.224	22.6406
2.2183	22.77
2.2126	22.8085
2.207	22.8828
2.2013	22.8515
2.1957	22.8393
2.1902	22.8979
2.1846	23.0097
2.1791	22.9687
2.1736	22.9243
2.1682	22.9531
2.1628	22.9887
2.1574	22.9199
2.152	22.975
2.1466	23.0585
2.1413	22.9384
2.136	22.9863
2.1308	23.0141
2.1255	23.0605
2.1203	23.081
2.1151	23.0693
2.11	23.1181
2.1048	23.123
2.0997	23.1332
2.0946	23.2011
2.0895	23.145
2.0845	23.2773
2.0795	23.184
