Name: Plumbojarosite PbFe_3^3+(SO_4)_4(OH)_12
Type: Mineral
Class: Sulfate
Subclass: None
Particle Size: Medium
Sample No.: SO-7B
Owner: JPL
Wavelength Range: VSWIR
Origin: Mexico, Hidalgo, Zimapan, Lomo De Toro Mine.
Description: Particle size was 45-125um. Collected by:  Burminco Original ASTER Spectral Library name was jpl.perkin.mineral.sulfate.none.medium.so07b.spectrum.txt
Measurement: Hemispherical reflectance
X Units: Wavelength (micrometers)
Y Units: Reflectance (percent)
wavelength	value
2.5	48.4082
2.494	48.9327
2.488	49.3576
2.482	49.564
2.476	50.0096
2.47	50.1859
2.464	50.2007
2.458	50.0047
2.452	49.8171
2.446	49.5753
2.44	49.2463
2.434	49.0367
2.428	48.9868
2.422	48.9602
2.416	48.9692
2.41	49.0669
2.404	49.5318
2.398	50.2057
2.392	51.0389
2.386	51.8918
2.38	52.9017
2.374	53.708
2.368	54.431
2.362	54.9992
2.356	55.4674
2.35	55.7913
2.344	55.9769
2.338	55.8948
2.332	55.7087
2.326	55.2309
2.32	54.6352
2.314	53.9989
2.308	53.5368
2.302	52.9554
2.296	52.4729
2.29	51.9857
2.284	51.8219
2.278	52.0373
2.272	52.4448
2.266	52.9041
2.26	53.2159
2.254	53.5042
2.248	54.1587
2.242	55.1829
2.236	56.4477
2.23	57.8167
2.224	58.8992
2.218	59.6609
2.212	60.6701
2.206	61.4253
2.2	62.0365
2.194	62.7652
2.188	63.2093
2.182	63.8157
2.176	64.4123
2.17	64.8669
2.164	65.4656
2.158	65.9271
2.152	66.2417
2.146	66.5906
2.14	66.7194
2.134	66.8595
2.128	66.9116
2.122	66.8464
2.116	66.7539
2.11	66.6622
2.104	66.5848
2.098	66.4975
2.092	66.5764
2.086	66.6453
2.08	66.6994
2.074	66.7078
2.068	66.6148
2.062	66.5649
2.056	66.619
2.05	66.6156
2.044	66.8279
2.038	66.869
2.032	66.9678
2.026	67.0149
2.02	67.1046
2.014	67.2381
2.008	67.2661
2.002	67.3069
1.996	67.2757
1.99	67.3168
1.984	67.2413
1.978	67.1559
1.972	67.1315
1.966	67.1198
1.96	66.9707
1.954	66.9285
1.948	66.9247
1.942	66.9227
1.936	67.0547
1.93	67.3139
1.924	67.6976
1.918	68.2108
1.912	68.6498
1.906	69.0568
1.9	69.4371
1.894	69.4697
1.888	69.3682
1.882	69.0538
1.876	68.9778
1.87	69.0205
1.864	69.0187
1.858	69.1224
1.852	69.1974
1.846	69.0239
1.84	69.0272
1.834	69.3423
1.828	70.112
1.822	70.7566
1.816	71.0636
1.81	71.2804
1.804	71.4518
1.798	71.5207
1.792	71.6964
1.786	71.7914
1.78	71.8456
1.774	71.9065
1.768	71.9777
1.762	72.045
1.756	72.1165
1.75	72.2142
1.744	72.1959
1.738	72.2949
1.732	72.382
1.726	72.406
1.72	72.4704
1.714	72.6246
1.708	72.4565
1.702	72.4677
1.696	72.4863
1.69	72.4201
1.684	72.4707
1.678	72.4153
1.672	72.4038
1.666	72.4191
1.66	72.4151
1.654	72.4733
1.648	72.257
1.642	72.3896
1.636	72.2981
1.63	72.342
1.624	72.2176
1.618	72.1833
1.612	72.1176
1.606	72.0891
1.6	72.0249
1.594	71.9246
1.588	71.8571
1.582	71.7767
1.576	71.599
1.57	71.5266
1.564	71.3427
1.558	71.1546
1.552	71.0468
1.546	70.961
1.54	70.82
1.534	70.7403
1.528	70.7788
1.522	70.6982
1.516	70.6291
1.51	70.5518
1.504	70.4814
1.498	70.248
1.492	69.8753
1.486	69.2378
1.48	69.1276
1.474	69.129
1.468	69.3197
1.462	69.6939
1.456	70.032
1.45	70.4526
1.444	70.7679
1.438	71.0468
1.432	71.2219
1.426	71.2947
1.42	71.3509
1.414	71.3689
1.408	71.4237
1.402	71.4776
1.396	71.5599
1.39	71.5234
1.384	71.3179
1.378	71.2332
1.372	70.9614
1.366	70.8234
1.36	70.5767
1.354	70.3967
1.348	70.1178
1.342	69.8747
1.336	69.6051
1.33	69.2677
1.324	69.0481
1.318	68.5906
1.312	68.2822
1.306	68.0042
1.3	67.5785
1.294	67.1411
1.288	66.754
1.282	66.3872
1.276	65.8379
1.27	65.4405
1.264	64.9511
1.258	64.4539
1.252	63.9283
1.246	63.4052
1.24	62.9255
1.234	62.267
1.228	61.7233
1.222	61.1072
1.216	60.5147
1.21	59.8349
1.204	59.2459
1.198	58.5088
1.192	57.8543
1.186	57.2661
1.18	56.5208
1.174	55.7881
1.168	55.0806
1.162	54.3808
1.156	53.6983
1.15	52.9373
1.144	52.2441
1.138	51.5999
1.132	50.8174
1.126	50.0652
1.12	49.4561
1.114	48.7793
1.108	48.111
1.102	47.4187
1.096	46.858
1.09	46.2348
1.084	45.6069
1.078	45.0276
1.072	44.3535
1.066	43.8359
1.06	43.428
1.054	42.8335
1.048	42.3247
1.042	41.8248
1.036	41.4756
1.03	41.028
1.024	40.6617
1.018	40.2915
1.012	39.9394
1.006	39.6448
1	39.3138
0.994	39.0417
0.988	38.7958
0.982	38.5685
0.976	38.3729
0.97	38.2147
0.964	37.9456
0.958	37.9176
0.952	37.8386
0.946	37.6661
0.94	37.6771
0.934	37.6405
0.928	37.5727
0.922	37.5801
0.916	37.6976
0.91	37.7368
0.904	37.859
0.898	38.0568
0.892	38.192
0.886	38.4164
0.88	38.6576
0.874	38.929
0.868	39.2885
0.862	39.5994
0.856	40.3473
0.85	40.8132
0.844	41.2699
0.838	41.8307
0.832	42.3251
0.826	42.9845
0.82	43.6219
0.814	44.2865
0.808	44.9947
0.802	45.7024
0.796	46.3462
0.79	47.0307
0.784	47.6785
0.778	48.3198
0.772	48.8353
0.766	49.307
0.76	49.6858
0.754	49.927
0.748	50.0762
0.742	50.0502
0.736	49.925
0.73	49.7037
0.724	49.3345
0.718	48.8843
0.712	48.3585
0.706	47.7728
0.7	47.1578
0.694	46.5304
0.688	45.8904
0.682	45.247
0.676	44.6084
0.67	43.9768
0.664	43.3519
0.658	42.7498
0.652	42.123
0.646	41.5343
0.64	40.9191
0.634	40.288
0.628	39.6597
0.622	39.0098
0.616	38.3348
0.61	37.6582
0.604	36.9577
0.598	36.2197
0.592	35.4364
0.586	34.5968
0.58	33.6167
0.574	32.5237
0.568	31.3357
0.562	29.9862
0.556	28.4883
0.55	26.9352
0.544	25.3358
0.538	23.7396
0.532	22.215
0.526	20.7654
0.52	19.4249
0.514	18.1969
0.508	17.1186
0.502	16.0835
0.496	15.1497
0.49	14.3203
0.484	13.5778
0.478	12.9437
0.472	12.3941
0.466	11.9114
0.46	11.4142
0.454	10.7467
0.448	9.8304
0.442	8.9114
0.436	8.3094
0.43	7.9647
0.424	7.5855
0.418	7.1162
0.412	6.5552
0.406	5.9501
0.4	5.3845
