Name: Quartz SiO_2
Type: Mineral
Class: Silicate
Subclass: Tectosilicate
Particle Size: Medium
Sample No.: TS-1B
Owner: JPL
Wavelength Range: VSWIR
Origin: Brazil, Minas Gerais.
Description: Smoky quartzParticle size was 45-125um.Collected by:  Burminco Original ASTER Spectral Library name was jpl.perkin.mineral.silicate.tectosilicate.medium.ts01b.spectrum.txt
Measurement: Hemispherical reflectance
X Units: Wavelength (micrometers)
Y Units: Reflectance (percent)
wavelength	value
2.5	82.9463
2.494	82.9499
2.488	82.8011
2.482	82.9758
2.476	83.0375
2.47	82.9969
2.464	83.0609
2.458	83.1376
2.452	83.2412
2.446	83.2322
2.44	83.3883
2.434	83.3618
2.428	83.4964
2.422	83.515
2.416	83.6382
2.41	83.6734
2.404	83.7257
2.398	83.714
2.392	83.8484
2.386	83.9845
2.38	84.0734
2.374	84.1052
2.368	84.2457
2.362	84.2522
2.356	84.3397
2.35	84.4393
2.344	84.4274
2.338	84.4892
2.332	84.4442
2.326	84.4245
2.32	84.4117
2.314	84.349
2.308	84.3363
2.302	84.2532
2.296	84.3059
2.29	84.3389
2.284	84.2441
2.278	84.2803
2.272	84.3038
2.266	84.2947
2.26	84.2611
2.254	84.2853
2.248	84.3725
2.242	84.2673
2.236	84.2601
2.23	84.4404
2.224	84.5199
2.218	84.4557
2.212	84.5662
2.206	84.6059
2.2	84.7373
2.194	84.8248
2.188	84.9025
2.182	84.9832
2.176	85.1883
2.17	85.3645
2.164	85.4135
2.158	85.7007
2.152	85.6859
2.146	85.785
2.14	85.7656
2.134	85.6718
2.128	85.4527
2.122	85.2601
2.116	84.9596
2.11	84.6771
2.104	84.37
2.098	84.2803
2.092	84.3269
2.086	84.443
2.08	84.4723
2.074	84.5628
2.068	84.6839
2.062	84.6801
2.056	84.7358
2.05	84.8456
2.044	84.8921
2.038	84.9573
2.032	84.9721
2.026	84.9682
2.02	84.9688
2.014	84.9977
2.008	84.8764
2.002	84.9457
1.996	84.9051
1.99	84.8646
1.984	84.795
1.978	84.7235
1.972	84.7036
1.966	84.6428
1.96	84.5746
1.954	84.5774
1.948	84.5908
1.942	84.5972
1.936	84.6109
1.93	84.624
1.924	84.6509
1.918	84.7393
1.912	84.8545
1.906	84.8962
1.9	84.9717
1.894	84.9845
1.888	85.0898
1.882	85.1299
1.876	85.1314
1.87	85.1343
1.864	85.2021
1.858	85.2914
1.852	85.227
1.846	85.2252
1.84	85.2895
1.834	85.2538
1.828	85.2133
1.822	85.2621
1.816	85.2947
1.81	85.2682
1.804	85.3091
1.798	85.274
1.792	85.3376
1.786	85.2337
1.78	85.2959
1.774	85.1685
1.768	85.1839
1.762	85.1264
1.756	85.1603
1.75	85.1725
1.744	85.2361
1.738	85.2585
1.732	85.2486
1.726	85.3063
1.72	85.2671
1.714	85.2448
1.708	85.162
1.702	85.2456
1.696	85.2003
1.69	85.2129
1.684	85.1039
1.678	85.12
1.672	85.1494
1.666	85.223
1.66	85.1808
1.654	85.124
1.648	85.1144
1.642	85.1552
1.636	85.1372
1.63	85.0934
1.624	85.0842
1.618	85.0554
1.612	85.0723
1.606	85.0453
1.6	85.0568
1.594	85.0869
1.588	85.1803
1.582	85.0659
1.576	85.0382
1.57	85.0786
1.564	85.0045
1.558	85.0191
1.552	85.0072
1.546	85.0351
1.54	85.0119
1.534	84.9615
1.528	84.9416
1.522	84.9202
1.516	84.9579
1.51	84.9054
1.504	84.8614
1.498	84.8324
1.492	84.824
1.486	84.8686
1.48	84.8438
1.474	84.782
1.468	84.785
1.462	84.8025
1.456	84.7966
1.45	84.7681
1.444	84.7535
1.438	84.7402
1.432	84.7219
1.426	84.7788
1.42	84.7211
1.414	84.6973
1.408	84.7329
1.402	84.7677
1.396	84.7552
1.39	84.7884
1.384	84.7421
1.378	84.7124
1.372	84.6801
1.366	84.7075
1.36	84.692
1.354	84.6513
1.348	84.6161
1.342	84.5834
1.336	84.6788
1.33	84.614
1.324	84.5405
1.318	84.6028
1.312	84.5217
1.306	84.5265
1.3	84.4715
1.294	84.4379
1.288	84.3819
1.282	84.4119
1.276	84.4219
1.27	84.404
1.264	84.3045
1.258	84.2926
1.252	84.2775
1.246	84.2514
1.24	84.2551
1.234	84.2437
1.228	84.2391
1.222	84.1466
1.216	84.1365
1.21	84.1491
1.204	84.0218
1.198	84.0735
1.192	84.0374
1.186	84.0666
1.18	84.0088
1.174	83.9988
1.168	83.8533
1.162	83.8945
1.156	83.7969
1.15	83.8417
1.144	83.8542
1.138	83.712
1.132	83.7913
1.126	83.7199
1.12	83.704
1.114	83.5986
1.108	83.5516
1.102	83.4682
1.096	83.4402
1.09	83.417
1.084	83.3697
1.078	83.3741
1.072	83.2144
1.066	83.2176
1.06	83.1043
1.054	83.1243
1.048	82.9815
1.042	82.9994
1.036	82.8981
1.03	82.8264
1.024	82.8002
1.018	82.5075
1.012	82.5127
1.006	82.5121
1	82.3003
0.994	82.2883
0.988	82.1735
0.982	81.9676
0.976	81.9346
0.97	81.8236
0.964	81.7378
0.958	81.5987
0.952	81.3748
0.946	81.3484
0.94	81.127
0.934	80.9896
0.928	80.8276
0.922	80.7179
0.916	80.483
0.91	80.2959
0.904	80.1604
0.898	79.943
0.892	79.7848
0.886	79.6021
0.88	79.3988
0.874	79.1877
0.868	78.9762
0.862	78.8124
0.856	78.5237
0.85	78.284
0.844	77.9946
0.838	77.8504
0.832	77.6141
0.826	77.4239
0.82	77.1706
0.814	76.9003
0.808	76.6129
0.802	76.4344
0.796	76.1034
0.79	75.7978
0.784	75.5108
0.778	75.2849
0.772	75.0008
0.766	74.7332
0.76	74.474
0.754	74.176
0.748	73.9313
0.742	73.667
0.736	73.3916
0.73	73.1841
0.724	72.8922
0.718	72.6139
0.712	72.3718
0.706	72.1388
0.7	71.8902
0.694	71.6305
0.688	71.455
0.682	71.2172
0.676	71.0073
0.67	70.8225
0.664	70.615
0.658	70.4445
0.652	70.2652
0.646	70.1029
0.64	69.9331
0.634	69.7927
0.628	69.6444
0.622	69.5115
0.616	69.3675
0.61	69.2396
0.604	69.0962
0.598	68.9971
0.592	68.9083
0.586	68.7472
0.58	68.5926
0.574	68.4368
0.568	68.2616
0.562	68.0596
0.556	67.8386
0.55	67.6105
0.544	67.3783
0.538	67.1266
0.532	66.8934
0.526	66.638
0.52	66.4042
0.514	66.1367
0.508	65.8912
0.502	65.672
0.496	65.4106
0.49	65.2047
0.484	64.9788
0.478	64.8238
0.472	64.7166
0.466	64.5793
0.46	64.4878
0.454	64.4004
0.448	64.3308
0.442	64.2612
0.436	64.2168
0.43	64.1472
0.424	64.1309
0.418	64.1191
0.412	64.1455
0.406	64.1761
0.4	64.2008
