Name: Celestite SrSO_4
Type: Mineral
Class: Sulfate
Subclass: None
Particle Size: Medium
Sample No.: SO-5A
Owner: JPL
Wavelength Range: TIR
Origin: USA, Utah, Emery County
Description: Particle size was 45-125um.Collected by Grieger's Inc. Original ASTER Spectral Library name was jpl.nicolet.mineral.sulfate.none.medium.so05a.spectrum.txt
Measurement: Hemispherical reflectance
X Units: Wavelength (micrometers)
Y Units: Reflectance (percent)
wavelength	value
15.3853	8.832
15.1161	3.9021
14.8563	2.0261
14.6052	4.5697
14.3624	8.1611
14.1276	9.1826
13.9004	11.0051
13.6803	13.0113
13.4671	14.8606
13.2604	14.9306
13.06	14.716
12.8656	15.0341
12.6769	15.0259
12.4936	14.8513
12.3155	14.8125
12.1425	15.3879
11.9742	15.8353
11.8106	16.6839
11.6513	17.6724
11.4963	18.4991
11.3454	19.2851
11.1983	19.1142
11.0551	17.0459
10.9154	14.2952
10.7793	12.3299
10.6465	11.6385
10.5169	10.729
10.3904	9.2374
10.267	6.8519
10.1464	6.2647
10.0287	5.271
9.9136	6.9691
9.8012	7.0918
9.6913	7.6351
9.5838	8.7308
9.4787	10.3803
9.3758	14.138
9.2752	18.632
9.1767	21.7078
9.0803	24.9066
8.9858	27.5374
8.8934	29.8778
8.8028	31.2736
8.714	31.3653
8.627	27.7858
8.5417	19.6623
8.4581	17.866
8.3761	14.3693
8.2957	12.803
8.2169	12.9893
8.1395	13.256
8.0635	12.9348
7.989	11.66
7.9158	7.3579
7.8439	2.3089
7.7734	0.7512
7.7041	0.5552
7.636	0.6165
7.5691	1.266
7.5034	2.0748
7.4388	3.4232
7.3753	4.8655
7.3129	5.8361
7.2515	7.52
7.1912	9.7365
7.1318	12.371
7.0734	14.9968
7.016	19.5169
6.9595	28.0051
6.9039	30.613
6.8492	30.2453
6.7953	38.777
6.7423	43.0725
6.6901	44.9636
6.6387	44.9488
6.5881	38.3789
6.5382	27.6357
6.4892	19.5999
6.4408	15.6969
6.3931	16.4208
6.3462	18.9747
6.2999	21.6842
6.2543	18.3452
6.2094	19.1424
6.1651	18.3364
6.1214	26.4086
6.0784	28.8129
6.0359	37.3199
5.994	44.7582
5.9527	43.1419
5.912	48.424
5.8718	49.7971
5.8322	49.6466
5.7931	48.1718
5.7545	50.2519
5.7165	51.3236
5.6789	51.7145
5.6418	52.7344
5.6052	53.5594
5.5691	54.7567
5.5334	55.6013
5.4982	56.2856
5.4635	55.6063
5.4291	55.4852
5.3952	55.3553
5.3618	56.3433
5.3287	59.323
5.2961	62.3197
5.2638	64.0292
5.2319	64.8239
5.2004	64.7169
5.1693	63.7697
5.1386	59.9033
5.1082	58.5157
5.0782	51.8242
5.0485	27.6121
5.0192	31.8774
4.9902	49.1954
4.9616	47.2071
4.9332	41.0839
4.9052	31.6686
4.8776	19.6973
4.8502	9.2866
4.8231	7.2768
4.7963	5.486
4.7699	7.0475
4.7437	8.4104
4.7178	8.9031
4.6922	9.5353
4.6668	8.5607
4.6418	7.2574
4.617	7.3654
4.5924	9.1235
4.5681	10.5974
4.5441	10.1752
4.5203	9.3521
4.4968	8.958
4.4735	9.7862
4.4505	12.3163
4.4277	14.5227
4.4051	15.7464
4.3828	16.7264
4.3607	17.5164
4.3388	18.7772
4.3171	19.3192
4.2956	20.3688
4.2744	21.8198
4.2534	23.1509
4.2325	21.3549
4.2119	20.4296
4.1915	20.5363
4.1712	21.3338
4.1512	23.6461
4.1313	27.6047
4.1117	33.8209
4.0922	42.0717
4.0729	48.8313
4.0538	53.9767
4.0349	57.861
4.0161	61.7618
3.9976	64.7704
3.9792	66.5084
3.9609	68.5429
3.9428	69.7202
3.9249	71.0514
3.9072	72.7135
3.8896	74.2118
3.8722	74.682
3.8549	73.485
3.8378	74.3617
3.8208	75.9093
3.804	77.5968
3.7873	78.9155
3.7708	80.531
3.7544	80.9736
3.7382	80.6291
3.7221	80.1972
3.7061	80.8421
3.6903	80.8185
3.6746	81.4829
3.659	82.3656
3.6436	83.0109
3.6283	83.5249
3.6131	83.4122
3.5981	83.1731
3.5832	82.6906
3.5684	82.2956
3.5537	81.9433
3.5391	81.6882
3.5247	81.5351
3.5104	80.7561
3.4962	80.1585
3.4821	80.153
3.4681	80.2102
3.4543	79.8628
3.4405	79.3979
3.4269	78.6304
3.4133	78.0811
3.3999	78.6229
3.3866	79.0839
3.3733	78.0173
3.3602	77.1376
3.3472	79.9323
3.3343	80.5117
3.3215	80.3198
3.3088	79.2154
3.2961	76.2434
3.2836	70.9671
3.2712	69.3486
3.2588	70.0359
3.2466	70.8055
3.2345	72.8343
3.2224	73.9803
3.2104	74.5462
3.1985	73.959
3.1867	72.7355
3.175	71.8577
3.1634	71.8174
3.1519	72.0285
3.1404	71.8474
3.129	71.8698
3.1178	71.976
3.1065	72.2278
3.0954	72.3286
3.0844	72.1822
3.0734	71.8598
3.0625	72.0631
3.0517	72.5915
3.041	72.6383
3.0303	72.5635
3.0197	72.5678
3.0092	72.4113
2.9987	72.5937
2.9884	72.862
2.9781	73.0215
2.9678	73.2191
2.9577	73.5497
2.9476	73.755
2.9376	73.9782
2.9276	74.3017
2.9177	74.4907
2.9079	74.8087
2.8982	74.8181
2.8885	75.2497
2.8789	75.3618
2.8693	75.4858
2.8598	75.9579
2.8504	76.2808
2.841	76.5756
2.8317	77.0163
2.8224	77.5103
2.8133	78.0281
2.8041	78.9597
2.7951	79.802
2.786	81.0604
2.7771	82.1153
2.7682	83.4534
2.7594	84.2817
2.7506	85.4361
2.7418	86.8592
2.7332	87.52
2.7246	88.6509
2.716	88.8769
2.7075	89.365
2.699	89.8163
2.6906	90.3069
2.6823	90.6296
2.674	90.835
2.6657	91.6319
2.6575	91.0974
2.6494	91.1587
2.6413	91.1995
2.6332	91.2728
2.6252	91.4453
2.6173	91.7262
2.6094	91.555
2.6015	91.3821
2.5937	92.022
2.5859	91.4536
2.5782	91.4046
2.5706	91.4085
2.5629	91.5573
2.5554	91.3364
2.5478	91.2968
2.5403	91.2709
2.5329	91.4121
2.5255	91.127
2.5181	91.1878
2.5108	91.2358
2.5035	91.1281
2.4963	91.2887
2.4891	90.918
2.482	91.0432
2.4749	91.0268
2.4678	91.0149
2.4608	91.1655
2.4538	91.296
2.4468	91.2733
2.4399	91.2694
2.4331	91.4029
2.4262	91.3862
2.4194	91.3123
2.4127	91.3265
2.4059	91.3884
2.3993	91.2471
2.3926	91.3603
2.386	91.2965
2.3795	91.2882
2.3729	91.3509
2.3664	91.2853
2.36	91.424
2.3535	91.3227
2.3471	91.4821
2.3408	91.5482
2.3345	91.4949
2.3282	91.5992
2.3219	91.5701
2.3157	91.5873
2.3095	91.483
2.3034	91.4849
2.2972	91.5289
2.2911	91.7401
2.2851	91.5488
2.279	91.6371
2.2731	91.7661
2.2671	91.7289
2.2612	91.4862
2.2553	91.6139
2.2494	91.8168
2.2435	91.7852
2.2377	91.6615
2.232	91.7926
2.2262	91.7202
2.2205	91.7049
2.2148	91.8463
2.2091	91.7899
2.2035	91.8842
2.1979	92.0179
2.1923	91.928
2.1868	91.8305
2.1812	91.9088
2.1758	91.9885
2.1703	91.8155
2.1649	92.0263
2.1595	91.6496
2.1541	92.0769
2.1487	91.9118
2.1434	92.0212
2.1381	91.9776
2.1328	91.989
2.1275	91.8084
2.1223	92.0135
2.1171	92.1033
2.112	91.8466
2.1068	91.7307
2.1017	91.9991
2.0966	91.6634
2.0915	91.8835
2.0865	92.1906
2.0814	92.0663
2.0764	92.0337
2.0715	91.8597
2.0665	92.094
2.0616	91.7648
2.0567	91.8319
2.0518	92.0115
2.0469	92.1004
2.0421	91.9736
2.0373	91.8972
2.0325	91.9562
2.0277	92.1117
2.0229	91.7986
2.0182	91.8885
2.0135	91.9
2.0088	92.2273
2.0042	91.9945
