Name: Lepidolite K(Li,Al)3(Si,Al)_4O_10(F,OH)_2
Type: Mineral
Class: Silicate
Subclass: Phyllosilicate
Particle Size: Coarse
Sample No.: PS-13A
Owner: JPL
Wavelength Range: VSWIR
Origin: USA, South Dakota
Description: Yellow lepidolite. Particle size was 125-500um.Collected by Ward's Original ASTER Spectral Library name was jpl.beckman.mineral.silicate.phyllosilicate.coarse.ps13a.spectrum.txt
Measurement: Hemispherical reflectance
X Units: Wavelength (micrometers)
Y Units: Reflectance (percent)
wavelength	value
0.4	19.33
0.403	20.7
0.406	22.24
0.409	23.1
0.412	24.58
0.415	25.83
0.418	26.86
0.421	28.46
0.424	29.54
0.427	31.25
0.43	32.73
0.433	33.82
0.436	35.64
0.439	36.9
0.442	38.67
0.445	40.27
0.448	41.58
0.451	43.4
0.454	44.49
0.457	46.09
0.46	46.95
0.463	48.77
0.466	49.58
0.469	50.95
0.472	51.97
0.475	52.83
0.478	54.15
0.481	54.96
0.484	56.04
0.487	57.07
0.49	57.65
0.493	58.8
0.496	59.08
0.499	60.12
0.502	60.74
0.505	60.97
0.508	62
0.511	62.28
0.514	62.97
0.517	63.49
0.52	64.05
0.523	64.63
0.526	64.63
0.529	65.37
0.532	65.31
0.535	65.59
0.538	65.99
0.541	66.05
0.544	66.63
0.547	66.57
0.55	66.97
0.553	67.19
0.556	67.25
0.559	67.82
0.562	67.94
0.565	67.65
0.568	68.22
0.571	67.88
0.574	68.05
0.577	68.22
0.58	67.88
0.583	68.51
0.586	68.17
0.589	68.68
0.592	68.79
0.595	68.57
0.598	69.02
0.601	69.02
0.604	69.36
0.607	69.59
0.61	69.48
0.613	69.88
0.616	69.65
0.619	70.17
0.622	69.94
0.625	70.4
0.628	70.44
0.631	70.62
0.634	71.02
0.637	70.85
0.64	71.42
0.643	71.25
0.646	71.59
0.649	71.94
0.652	71.59
0.655	72.27
0.658	72.05
0.661	72.21
0.664	72.62
0.667	72.33
0.67	72.96
0.673	72.79
0.676	73.08
0.679	73.19
0.682	72.96
0.685	73.42
0.688	73.08
0.691	73.59
0.694	73.48
0.697	73.54
0.7	73.48
0.703	73.48
0.706	73.71
0.709	73.76
0.712	74.27
0.715	73.76
0.718	74.04
0.721	74.16
0.724	73.93
0.727	74.16
0.73	73.76
0.733	73.71
0.736	73.65
0.739	73.02
0.742	73.31
0.745	73.25
0.748	73.13
0.751	73.19
0.754	72.67
0.757	72.79
0.76	72.62
0.763	72.16
0.766	72.27
0.769	71.65
0.772	71.82
0.775	71.36
0.778	71.19
0.781	71.08
0.784	70.4
0.787	70.5
0.79	70.05
0.793	69.65
0.796	69.65
0.799	69.48
0.808	68.68
0.82	67.36
0.832	66.05
0.844	65.08
0.856	63.99
0.868	63.08
0.88	62.22
0.892	61.95
0.904	61.6
0.916	61.54
0.928	61.54
0.94	62
0.952	61.72
0.964	60.97
0.976	63.66
0.988	65.03
1	65.82
1.012	66.22
1.024	66.57
1.036	66.8
1.048	66.45
1.06	66.17
1.072	65.65
1.084	65.43
1.096	64.68
1.108	64.22
1.12	63.88
1.132	63.6
1.144	63.2
1.156	62.84
1.168	62.78
1.18	62.58
1.192	62.57
1.204	62.74
1.216	62.91
1.228	63.08
1.24	63.08
1.252	63.42
1.264	64.32
1.276	64.64
1.288	64.91
1.3	64.84
1.312	64.88
1.324	65.26
1.336	66.22
1.348	67.73
1.36	67.84
1.372	66.76
1.384	64.54
1.396	45.7
1.408	30.51
1.42	42.47
1.432	64.92
1.444	72.01
1.456	74.41
1.468	75.95
1.48	77.03
1.492	77.49
1.504	78.23
1.516	78.96
1.528	79.54
1.54	80.05
1.552	80.33
1.564	80.91
1.576	81.41
1.588	81.93
1.6	82.22
1.612	82.14
1.624	82.46
1.636	82.61
1.648	82.47
1.66	82.63
1.672	82.56
1.684	82.93
1.696	82.85
1.708	82.79
1.72	82.9
1.732	82.79
1.744	82.45
1.756	82.11
1.768	81.93
1.78	81.93
1.792	82.05
1.804	81.63
1.816	80.64
1.828	78.86
1.84	78.38
1.852	79.28
1.864	79.94
1.876	79.76
1.888	78.93
1.9	77.62
1.912	76.64
1.924	76.22
1.936	75.81
1.948	75.28
1.96	74.61
1.972	73.65
1.984	73.27
1.996	72.64
2.008	72.17
2.02	71.9
2.032	71.29
2.044	70.61
2.056	69.7
2.068	68.61
2.08	66.57
2.092	63.04
2.104	59.35
2.116	56.51
2.128	55.5
2.14	54.03
2.152	50.23
2.164	42.93
2.176	32.92
2.188	24.12
2.2	22.38
2.212	28.68
2.224	37.63
2.236	44.29
2.248	47.31
2.26	48.37
2.272	48.31
2.284	46.91
2.296	43.58
2.308	38.98
2.32	33.04
2.332	28.89
2.344	26.56
2.356	26.25
2.368	27.1
2.38	27.65
2.392	27.18
2.404	26.02
2.416	24.08
2.428	22.47
2.44	21.53
2.452	21.69
2.464	22.45
2.476	23.55
2.488	24.75
2.5	26.25
