Name: Rhodochrosite MnCO_3
Type: Mineral
Class: Carbonate
Subclass: None
Particle Size: Fine
Sample No.: C-8A
Owner: JPL
Wavelength Range: TIR
Origin: USA, Montana, Silver Bow County, Butte
Description: Particle size was 0-45um.Collected by Ward's Original ASTER Spectral Library name was jpl.nicolet.mineral.carbonate.none.fine.c08a.spectrum.txt
Measurement: Hemispherical reflectance
X Units: Wavelength (micrometers)
Y Units: Reflectance (percent)
wavelength	value
15.3853	32.1296
15.1161	33.1904
14.8563	34.1636
14.6052	32.5801
14.3624	27.0933
14.1276	28.1105
13.9004	13.0348
13.6803	2.7357
13.4671	22.1114
13.2604	30.3451
13.06	30.8602
12.8656	27.5483
12.6769	28.7689
12.4936	28.1492
12.3155	36.8176
12.1425	40.3247
11.9742	29.4643
11.8106	29.7899
11.6513	10.0532
11.4963	8.9784
11.3454	28.1236
11.1983	33.4368
11.0551	36.0866
10.9154	36.4581
10.7793	37.21
10.6465	36.3651
10.5169	35.8774
10.3904	36.2313
10.267	35.2747
10.1464	33.8713
10.0287	32.5566
9.9136	30.7914
9.8012	27.7147
9.6913	26.6793
9.5838	26.7133
9.4787	25.9536
9.3758	26.8403
9.2752	26.4841
9.1767	23.9628
9.0803	26.5495
8.9858	26.7947
8.8934	27.3297
8.8028	27.046
8.714	22.4702
8.627	18.3674
8.5417	18.4683
8.4581	19.9787
8.3761	19.1772
8.2957	20.2437
8.2169	22.288
8.1395	22.7799
8.0635	21.7728
7.989	19.6622
7.9158	19.1779
7.8439	18.7492
7.7734	17.7168
7.7041	15.8398
7.636	14.4854
7.5691	13.9455
7.5034	12.8002
7.4388	11.8421
7.3753	11.0561
7.3129	9.3318
7.2515	8.6912
7.1912	9.3446
7.1318	12.1551
7.0734	11.4484
7.016	11.1439
6.9595	11.4141
6.9039	11.6378
6.8492	12.325
6.7953	13.0916
6.7423	13.9195
6.6901	15.5129
6.6387	17.727
6.5881	18.8746
6.5382	20.4197
6.4892	23.3203
6.4408	22.9006
6.3931	15.3791
6.3462	7.7219
6.2999	4.7353
6.2543	4.1774
6.2094	3.8863
6.1651	3.6153
6.1214	4.3472
6.0784	5.4376
6.0359	6.7015
5.994	7.9826
5.9527	9.7985
5.912	11.8922
5.8718	13.5919
5.8322	14.2594
5.7931	15.2816
5.7545	17.0305
5.7165	17.9138
5.6789	18.3436
5.6418	18.7284
5.6052	16.489
5.5691	5.8286
5.5334	4.9452
5.4982	17.8539
5.4635	34.0518
5.4291	41.1
5.3952	44.0437
5.3618	44.9344
5.3287	46.7759
5.2961	49.2415
5.2638	52.0964
5.2319	55.6941
5.2004	57.8009
5.1693	58.0449
5.1386	54.172
5.1082	57.0013
5.0782	58.0155
5.0485	58.1114
5.0192	58.3223
4.9902	58.7676
4.9616	60.538
4.9332	61.5239
4.9052	62.8725
4.8776	64.1998
4.8502	64.7849
4.8231	65.1928
4.7963	65.1669
4.7699	64.178
4.7437	61.6062
4.7178	51.3343
4.6922	47.5564
4.6668	48.9998
4.6418	53.9064
4.617	57.5281
4.5924	59.7455
4.5681	60.4104
4.5441	60.4682
4.5203	60.311
4.4968	60.1142
4.4735	60.9496
4.4505	62.7516
4.4277	64.4248
4.4051	64.3565
4.3828	63.9821
4.3607	64.6029
4.3388	65.4154
4.3171	65.839
4.2956	65.8377
4.2744	65.3691
4.2534	64.9999
4.2325	65.2864
4.2119	63.9908
4.1915	62.6093
4.1712	61.4963
4.1512	60.1909
4.1313	58.3228
4.1117	55.2238
4.0922	50.8058
4.0729	43.3695
4.0538	32.5016
4.0349	21.0224
4.0161	9.7312
3.9976	10.4082
3.9792	12.3788
3.9609	17.7337
3.9428	22.6682
3.9249	23.7257
3.9072	24.9266
3.8896	25.7812
3.8722	26.0992
3.8549	27.0473
3.8378	30.1117
3.8208	36.7502
3.804	44.2159
3.7873	54.6128
3.7708	60.5692
3.7544	61.8034
3.7382	63.0541
3.7221	64.2756
3.7061	64.9861
3.6903	65.4544
3.6746	65.8549
3.659	66.134
3.6436	66.2106
3.6283	65.407
3.6131	62.1542
3.5981	59.0909
3.5832	57.4884
3.5684	46.2366
3.5537	31.2444
3.5391	25.7412
3.5247	21.9222
3.5104	19.3358
3.4962	21.8404
3.4821	26.9829
3.4681	28.7703
3.4543	29.9318
3.4405	30.6633
3.4269	30.5899
3.4133	29.7698
3.3999	29.2984
3.3866	29.3229
3.3733	29.1659
3.3602	26.8382
3.3472	28.1457
3.3343	45.2871
3.3215	53.672
3.3088	57.1054
3.2961	58.8489
3.2836	60.0184
3.2712	60.8119
3.2588	61.3757
3.2466	62.02
3.2345	62.4178
3.2224	62.6462
3.2104	62.637
3.1985	61.5213
3.1867	60.8038
3.175	60.8693
3.1634	61.139
3.1519	61.1577
3.1404	60.692
3.129	59.6455
3.1178	58.8733
3.1065	58.9786
3.0954	59.385
3.0844	59.855
3.0734	60.0801
3.0625	60.3518
3.0517	60.4649
3.041	60.4392
3.0303	60.3667
3.0197	60.1625
3.0092	60.2083
2.9987	60.1054
2.9884	60.0966
2.9781	59.6622
2.9678	59.2321
2.9577	59.0731
2.9476	59.2784
2.9376	59.4882
2.9276	59.854
2.9177	60.0296
2.9079	60.277
2.8982	60.6498
2.8885	60.9792
2.8789	60.9806
2.8693	61.5623
2.8598	62.303
2.8504	62.4295
2.841	62.268
2.8317	62.3691
2.8224	62.2721
2.8133	61.7374
2.8041	60.9068
2.7951	62.0531
2.786	64.4256
2.7771	65.2566
2.7682	66.9957
2.7594	67.4328
2.7506	68.6078
2.7418	70.8451
2.7332	71.1583
2.7246	73.6967
2.716	73.5389
2.7075	74.2575
2.699	75.2669
2.6906	76.0049
2.6823	76.4153
2.674	76.8064
2.6657	78.691
2.6575	76.627
2.6494	76.5023
2.6413	76.7829
2.6332	77.1708
2.6252	77.0376
2.6173	77.984
2.6094	77.2553
2.6015	76.6397
2.5937	77.902
2.5859	75.7226
2.5782	74.0371
2.5706	71.5956
2.5629	69.8573
2.5554	67.8992
2.5478	68.6251
2.5403	69.5423
2.5329	70.3842
2.5255	70.8468
2.5181	71.1987
2.5108	71.342
2.5035	71.698
2.4963	72.2748
2.4891	72.7785
2.482	73.6073
2.4749	74.3011
2.4678	74.9383
2.4608	75.1512
2.4538	75.5977
2.4468	75.9684
2.4399	76.2868
2.4331	76.1009
2.4262	76.5586
2.4194	76.5674
2.4127	76.8638
2.4059	76.7709
2.3993	76.7595
2.3926	76.7112
2.386	76.1021
2.3795	74.8624
2.3729	73.9547
2.3664	73.3588
2.36	73.2606
2.3535	73.3202
2.3471	73.7384
2.3408	74.0756
2.3345	74.2262
2.3282	74.437
2.3219	74.6606
2.3157	74.6735
2.3095	74.9828
2.3034	75.2927
2.2972	75.5232
2.2911	75.8781
2.2851	76.1361
2.279	76.5251
2.2731	76.481
2.2671	76.6638
2.2612	76.9761
2.2553	77.0565
2.2494	77.0139
2.2435	77.2121
2.2377	77.285
2.232	77.3462
2.2262	77.3731
2.2205	77.4234
2.2148	77.5695
2.2091	77.6083
2.2035	77.5024
2.1979	77.7002
2.1923	77.6743
2.1868	77.6019
2.1812	77.5677
2.1758	77.6954
2.1703	77.5865
2.1649	77.5551
2.1595	77.5436
2.1541	77.5607
2.1487	77.6119
2.1434	77.6532
2.1381	77.7957
2.1328	77.7276
2.1275	77.8969
2.1223	77.9367
2.1171	77.6939
2.112	77.7712
2.1068	77.5841
2.1017	77.865
2.0966	77.792
2.0915	77.6686
2.0865	77.7635
2.0814	77.7029
2.0764	78.1659
2.0715	77.8718
2.0665	77.8081
2.0616	78.1149
2.0567	78.0314
2.0518	77.9179
2.0469	78.0147
2.0421	77.8103
2.0373	77.923
2.0325	77.8243
2.0277	77.8919
2.0229	77.9104
2.0182	77.8011
2.0135	77.352
2.0088	77.5532
2.0042	77.7311
