Name: Topaz Al2SiO4(F,OH)2
Type: Mineral
Class: Silicate
Subclass: Nesosilicate
Particle Size: Coarse
Sample No.: topaz_2
Owner: JHU
Wavelength Range: TIR
Origin: Ouro Preto, Brazil via Don Hoover, USGS
Description: The sample consisted of several orange-colored, rounded (tumbled) grains, each about 1 cm in diameter.  Under the microscope, the sample appeared to be pure topaz with abundant fluid inclusions. Particle size was 75 - 250  Micrometers.(Isolated tetrahedra) Original ASTER Spectral Library name was jhu.nicolet.mineral.silicate.nesosilicate.coarse.topaz2.spectrum.txt
Measurement: Bidirectional reflectance
X Units: Wavelength (micrometers)
Y Units: Reflectance (percent)
wavelength	value
25.0442	3.3257
24.3388	2.9624
23.6719	3.2063
23.0407	4.0239
22.4422	5.5093
21.8741	6.9284
21.334	4.8852
20.8199	5.3491
20.33	4.4819
19.8627	4.2724
19.4163	3.4717
18.9896	3.0002
18.5812	3.3379
18.19	4.0603
17.815	2.4792
17.4551	1.6741
17.1094	1.9895
16.7772	2.8066
16.4576	4.2549
16.15	5.5305
15.8537	5.8974
15.568	5.7641
15.2925	5.1406
15.0265	3.8928
14.7697	2.3318
14.5214	1.2651
14.2814	1.052
14.0492	0.4709
13.8244	0.7217
13.6067	0.9499
13.3957	1.156
13.1912	1.2717
12.9929	1.3337
12.8004	1.448
12.6135	1.7231
12.432	2.0068
12.2557	2.3589
12.0843	2.9399
11.9176	3.8779
11.7555	4.9011
11.5977	5.8242
11.444	6.6982
11.2944	6.9573
11.1487	7.0508
11.0067	6.967
10.8682	6.9346
10.7332	7.698
10.6015	8.0754
10.473	8.022
10.3476	7.1848
10.2251	5.521
10.1056	5.9748
9.9887	6.1965
9.8746	5.5925
9.763	5.1753
9.6539	5.0019
9.5472	4.5547
9.4429	3.54
9.3408	2.2908
9.2409	1.0552
9.1431	0.2622
9.0474	0.0977
8.9536	0.2153
8.8618	0.3335
8.7718	0.5537
8.6837	1.0955
8.5973	1.6379
8.5126	2.0669
8.4295	1.3911
8.3481	0.4041
8.2682	0.2195
8.1898	0.1843
8.1129	0.2437
8.0374	0.3225
7.9634	0.4214
7.8906	0.5193
7.8192	0.6116
7.7491	0.698
7.6802	0.7798
7.6126	0.8779
7.5461	0.9485
7.4807	1.0269
7.4165	1.1238
7.3534	1.2192
7.2914	1.3213
7.2303	1.425
7.1703	1.5195
7.1113	1.5994
7.0533	1.6868
6.9962	1.8037
6.94	1.9189
6.8847	1.9829
6.8302	2.0359
6.7767	2.0881
6.7239	2.1682
6.672	2.2839
6.6209	2.4004
6.5705	2.4741
6.5209	2.5798
6.4721	2.7097
6.424	2.8506
6.3766	2.9739
6.3299	3.0591
6.2838	3.1257
6.2385	3.1821
6.1937	3.2285
6.1496	3.3152
6.1062	3.4287
6.0633	3.531
6.0211	3.4455
5.9794	3.1316
5.9383	2.9087
5.8978	2.8752
5.8578	2.8628
5.8184	2.7903
5.7794	2.6894
5.741	2.4792
5.7031	2.1572
5.6657	1.8257
5.6288	1.5806
5.5924	1.4429
5.5564	1.3828
5.5209	1.385
5.4859	1.4216
5.4513	1.4563
5.4171	1.5007
5.3833	1.6094
5.35	1.7593
5.3171	1.979
5.2846	2.29
5.2524	2.7361
5.2207	3.209
5.1893	3.6316
5.1584	4.0112
5.1277	4.3638
5.0975	4.6518
5.0676	4.8684
5.038	4.9524
5.0088	4.9678
4.98	5.1767
4.9514	5.605
4.9232	6.061
4.8953	6.4751
4.8678	6.8442
4.8405	7.1111
4.8135	7.2844
4.7868	7.3618
4.7605	7.3745
4.7344	7.3794
4.7086	7.3601
4.6831	7.2785
4.6578	7.1706
4.6328	7.1743
4.6081	7.2583
4.5837	7.3674
4.5595	7.5608
4.5356	7.792
4.5119	7.946
4.4884	7.9814
4.4652	7.9389
4.4423	7.803
4.4196	7.5237
4.3971	6.8972
4.3748	5.5473
4.3528	3.9397
4.331	3.0493
4.3094	2.9875
4.288	3.7532
4.2668	5.0217
4.2458	6.3948
4.2251	7.2065
4.2045	7.5971
4.1841	7.7566
4.164	7.8537
4.144	7.9978
4.1242	8.1467
4.1046	8.2619
4.0852	8.2712
4.066	8.1155
4.047	7.8894
4.0281	7.8186
4.0094	8.0044
3.9909	8.2492
3.9725	8.353
3.9544	8.394
3.9363	8.4219
3.9185	8.4072
3.9008	8.3735
3.8833	8.3139
3.8659	8.2981
3.8487	8.2988
3.8316	8.2856
3.8147	8.2991
3.7979	8.3484
3.7813	8.3838
3.7648	8.4345
3.7485	8.4704
3.7323	8.2358
3.7162	8.1328
3.7003	8.501
3.6845	8.5261
3.6689	8.5422
3.6534	8.5566
3.638	8.5742
3.6227	8.5884
3.6076	8.6062
3.5926	8.6096
3.5777	8.623
3.563	8.6526
3.5484	8.6719
3.5338	8.6977
3.5195	8.7031
3.5052	8.6794
3.491	8.6855
3.477	8.6811
3.463	8.6987
3.4492	8.6936
3.4355	8.677
3.4219	8.6155
3.4084	8.5727
3.395	8.5381
3.3817	8.4995
3.3685	8.4665
3.3554	8.4275
3.3425	8.3689
3.3296	8.3142
3.3168	8.2431
3.3041	8.1875
3.2915	8.1279
3.279	8.0505
3.2666	7.9492
3.2543	7.8271
3.2421	7.7539
3.23	7.6892
3.218	7.6316
3.206	7.5371
3.1942	7.4197
3.1824	7.2849
3.1707	7.1826
3.1591	7.1577
3.1476	7.1316
3.1362	7.041
3.1249	6.8857
3.1136	6.6196
3.1024	6.3276
3.0913	6.0566
3.0803	5.793
3.0694	5.5007
3.0585	5.1462
3.0477	4.7915
3.037	4.4453
3.0264	4.0845
3.0158	3.7847
3.0053	3.5828
2.9949	3.4333
2.9845	3.3196
2.9743	3.291
2.9641	3.3525
2.9539	3.49
2.9439	3.5967
2.9339	3.6174
2.9239	3.4563
2.9141	3.1929
2.9043	2.9966
2.8946	2.9824
2.8849	2.9551
2.8753	2.8621
2.8658	2.8098
2.8563	2.8127
2.8469	2.6914
2.8375	2.4722
2.8282	2.1726
2.819	1.9141
2.8098	1.7292
2.8007	1.6421
2.7917	1.5647
2.7827	1.4399
2.7738	1.1892
2.7649	0.9456
2.7561	0.8459
2.7473	0.7917
2.7386	0.6685
2.7299	1.1257
2.7213	1.9849
2.7128	2.7412
2.7043	3.2634
2.6959	3.7036
2.6875	4.06
2.6791	4.2793
2.6709	4.3918
2.6626	4.4609
2.6545	4.447
2.6463	4.387
2.6382	4.2436
2.6302	3.9006
2.6222	3.6069
2.6143	3.5969
2.6064	3.5163
2.5986	3.6223
2.5908	3.792
2.583	3.7529
2.5753	3.3972
2.5677	2.9602
2.5601	2.5608
2.5525	2.3176
2.545	2.313
2.5375	2.3105
2.5301	2.332
2.5227	2.4231
2.5154	2.6811
2.5081	2.9709
2.5008	3.2727
2.4936	3.6064
2.4864	3.865
2.4793	4.0925
2.4722	4.2541
2.4651	4.5786
2.4581	5.0403
2.4511	5.4304
2.4442	5.6601
2.4373	5.6289
2.4305	5.5898
2.4236	5.5984
2.4169	5.7734
2.4101	6.0727
2.4034	6.2134
2.3967	6.3525
2.3901	6.4739
2.3835	6.5415
2.377	6.6435
2.3704	6.8086
2.364	6.8901
2.3575	6.9023
2.3511	6.9221
2.3447	6.936
2.3384	6.9704
2.3321	7.0425
2.3258	7.2746
2.3195	7.5378
2.3133	7.7593
2.3071	8.0259
2.301	8.3515
2.2949	8.6396
2.2888	8.7617
2.2828	8.7192
2.2767	8.4004
2.2708	7.9516
2.2648	7.9682
2.2589	8.5195
2.253	8.9946
2.2471	9.0781
2.2413	9.0141
2.2355	8.8906
2.2297	8.5971
2.224	8.2378
2.2183	8.082
2.2126	8.0132
2.207	8.0825
2.2013	8.2055
2.1957	8.2651
2.1902	8.1286
2.1846	7.9678
2.1791	7.8467
2.1736	7.7607
2.1682	7.5566
2.1628	7.1814
2.1574	7.1025
2.152	7.1584
2.1466	7.3906
2.1413	7.7969
2.136	8.2707
2.1308	8.5371
2.1255	8.5166
2.1203	8.334
2.1151	7.9023
2.11	7.3369
2.1048	6.6684
2.0997	5.5276
2.0946	3.5605
2.0895	2.0977
2.0845	1.8838
2.0795	2.9875
