Name: Quartz SiO2
Type: Mineral
Class: Silicate
Subclass: Tectosilicate
Particle Size: Fine
Sample No.: quartz_2
Owner: JHU
Wavelength Range: TIR
Origin: Rock Springs, Arkansas via Hunt and Salisbury Collection#32B (purchased from Ward's Natural Science Establishment);
Description: No solid sample was available, but the powdered sample grains were crystal clear under the microscope and the sample appeared very pure quartz; pure quartz according to XRD analysis and within the limits of microprobe error. Particle size was Less than 2  Micrometers.(Silica Group) Original ASTER Spectral Library name was jhu.nicolet.mineral.silicate.tectosilicate.powder.quartz2.spectrum.txt
Measurement: Transmission
X Units: Wavelength (micrometers)
Y Units: Transmittance (percent)
wavelength	value
25.0442	56.5936
24.3388	82.9842
23.6719	77.9529
23.0407	71.3748
22.4422	56.7264
21.8741	32.746
21.334	32.7812
20.8199	42.8085
20.33	56.4608
19.8627	55.3045
19.4163	49.3944
18.9896	62.6659
18.5812	77.8211
18.19	83.4763
17.815	85.6326
17.4551	86.9802
17.1094	87.6101
16.7772	88.075
16.4576	88.4216
16.15	88.5984
15.8537	88.8797
15.568	88.9793
15.2925	88.9295
15.0265	88.6306
14.7697	87.7517
14.5214	83.3758
14.2814	81.7801
14.0492	86.6638
13.8244	87.1096
13.6067	86.3108
13.3957	85.1951
13.1912	82.0667
12.9929	70.9608
12.8004	54.7753
12.6135	54.451
12.432	58.7835
12.2557	84.8963
12.0843	89.4275
11.9176	89.1414
11.7555	87.9607
11.5977	86.4827
11.444	84.5428
11.2944	83.0027
11.1487	80.9099
11.0067	78.8435
10.8682	76.7166
10.7332	74.3553
10.6015	70.9549
10.473	67.2596
10.3476	62.2508
10.2251	56.5799
10.1056	50.1757
9.9887	43.7992
9.8746	37.7074
9.763	31.9067
9.6539	26.7421
9.5472	22.7177
9.4429	18.9013
9.3408	15.2588
9.2409	10.7441
9.1431	11.7988
9.0474	15.5468
8.9536	20.6059
8.8618	25.8622
8.7718	29.1406
8.6837	30.9623
8.5973	32.7343
8.5126	32.9945
8.4295	37.8241
8.3481	45.7811
8.2682	54.1837
8.1898	61.5037
8.1129	66.5225
8.0374	70.0274
7.9634	73.0301
7.8906	75.3069
7.8192	77.0684
7.7491	79.0518
7.6802	80.8955
7.6126	82.3426
7.5461	83.5984
7.4807	84.7266
7.4165	85.7539
7.3534	86.5593
7.2914	87.2976
7.2303	87.9571
7.1703	88.5059
7.1113	89.0029
7.0533	89.4216
6.9962	89.8484
6.94	90.3152
6.8847	90.8057
6.8302	91.168
6.7767	91.5557
6.7239	91.8425
6.672	92.1787
6.6209	92.5205
6.5705	92.7481
6.5209	92.99
6.4721	93.5381
6.424	93.9736
6.3766	94.001
6.3299	93.8613
6.2838	93.5713
6.2385	92.8655
6.1937	92.3525
6.1496	92.3943
6.1062	92.6755
6.0633	93.0281
6.0211	93.4939
5.9794	93.8691
5.9383	94.2969
5.8978	94.9246
5.8578	95.5408
5.8184	96.0066
5.7794	96.3044
5.741	96.6768
5.7031	96.8811
5.6657	96.9377
5.6288	96.7793
5.5924	96.6003
5.5564	96.6785
5.5209	96.9236
5.4859	97.2175
5.4513	97.4763
5.4171	97.489
5.3833	96.8708
5.35	96.2627
5.3171	96.4043
5.2846	96.7029
5.2524	97.2703
5.2207	97.8594
5.1893	98.1875
5.1584	98.3203
5.1277	98.3474
5.0975	98.4131
5.0676	98.3555
5.038	98.3787
5.0088	98.405
4.98	98.5574
4.9514	98.926
4.9232	99.0852
4.8953	99.3313
4.8678	99.5305
4.8405	99.6628
4.8135	99.7571
4.7868	99.8669
4.7605	99.9104
4.7344	99.988
4.7086	100.05
4.6831	100.101
4.6578	100.154
4.6328	100.265
4.6081	100.329
4.5837	100.447
4.5595	100.427
4.5356	100.441
4.5119	100.44
4.4884	100.473
4.4652	100.497
4.4423	100.564
4.4196	100.628
4.3971	100.687
4.3748	100.827
4.3528	100.794
4.331	100.914
4.3094	100.934
4.288	100.984
4.2668	101.033
4.2458	101.121
4.2251	101.205
4.2045	101.242
4.1841	101.3
4.164	101.324
4.144	101.384
4.1242	101.372
4.1046	101.414
4.0852	101.462
4.066	101.463
4.047	101.507
4.0281	101.52
4.0094	101.482
3.9909	101.47
3.9725	101.491
3.9544	101.623
3.9363	101.66
3.9185	101.763
3.9008	101.801
3.8833	101.742
3.8659	101.75
3.8487	101.851
3.8316	101.837
3.8147	101.914
3.7979	101.961
3.7813	101.955
3.7648	101.92
3.7485	101.94
3.7323	101.891
3.7162	101.927
3.7003	101.886
3.6845	101.886
3.6689	101.795
3.6534	101.865
3.638	101.794
3.6227	101.711
3.6076	101.683
3.5926	101.668
3.5777	101.673
3.563	101.673
3.5484	101.586
3.5338	101.484
3.5195	101.375
3.5052	101.22
3.491	101.213
3.477	101.144
3.463	101.09
3.4492	101.056
3.4355	100.894
3.4219	100.823
3.4084	100.76
3.395	100.677
3.3817	100.562
3.3685	100.59
3.3554	100.43
3.3425	100.32
3.3296	100.238
3.3168	100.084
3.3041	100.012
3.2915	99.8943
3.279	99.7991
3.2666	99.5779
3.2543	99.3621
3.2421	99.2468
3.23	99.0466
3.218	98.8328
3.206	98.6218
3.1942	98.4031
3.1824	98.1687
3.1707	97.9705
3.1591	97.7771
3.1476	97.5193
3.1362	97.2908
3.1249	97.1062
3.1136	96.8757
3.1024	96.6316
3.0913	96.5037
3.0803	96.3718
3.0694	96.2234
3.0585	96.0046
3.0477	95.8757
3.037	95.6404
3.0264	95.5515
3.0158	95.324
3.0053	95.1209
2.9949	94.9412
2.9845	94.9265
2.9743	94.7459
2.9641	94.696
2.9539	94.6062
2.9439	94.6482
2.9339	94.6326
2.9239	94.739
2.9141	94.8337
2.9043	94.9304
2.8946	95.2341
2.8849	95.3513
2.8753	95.5515
2.8658	95.738
2.8563	96.0945
2.8469	96.3669
2.8375	96.4656
2.8282	96.7888
2.819	96.9958
2.8098	97.2351
2.8007	97.572
2.7917	97.821
2.7827	98.1482
2.7738	98.3982
2.7649	98.7624
2.7561	99.4499
2.7473	100.257
2.7386	101.211
2.7299	102.054
2.7213	102.852
2.7128	103.41
2.7043	103.738
2.6959	104.019
2.6875	104.27
2.6791	104.482
2.6709	104.645
2.6626	104.567
2.6545	104.593
2.6463	104.606
2.6382	104.669
2.6302	104.699
2.6222	104.855
2.6143	104.847
2.6064	104.855
2.5986	104.863
2.5908	104.941
2.583	104.999
2.5753	104.927
2.5677	104.857
2.5601	105.14
2.5525	105.05
2.545	104.976
2.5375	105.3
2.5301	104.993
2.5227	105.044
2.5154	105.116
2.5081	105.14
2.5008	105.298
2.4936	105.243
2.4864	105.409
2.4793	105.532
2.4722	105.417
2.4651	105.587
2.4581	105.515
2.4511	105.64
2.4442	105.431
2.4373	105.831
2.4305	105.573
2.4236	105.493
2.4169	105.618
2.4101	105.788
2.4034	105.714
2.3967	105.79
2.3901	105.738
2.3835	106.109
2.377	106.21
2.3704	106.05
2.364	106.14
2.3575	105.921
2.3511	106.187
2.3447	106.277
2.3384	106.439
2.3321	106.4
2.3258	106.421
2.3195	106.429
2.3133	106.616
2.3071	106.556
2.301	106.611
2.2949	106.741
2.2888	107.009
2.2828	106.726
2.2767	106.861
2.2708	107.093
2.2648	106.956
2.2589	107.14
2.253	107.374
2.2471	107.058
2.2413	107.308
2.2355	107.781
2.2297	107.523
2.224	107.413
2.2183	107.831
2.2126	107.773
2.207	107.722
2.2013	108.081
2.1957	108.058
2.1902	107.909
2.1846	108.288
2.1791	108.296
2.1736	108.304
2.1682	108.437
2.1628	108.687
2.1574	108.464
2.152	108.734
2.1466	109.003
2.1413	108.628
2.136	109.093
2.1308	108.968
2.1255	108.991
2.1203	109.316
2.1151	109.378
2.11	109.659
2.1048	109.21
2.0997	109.659
2.0946	109.648
2.0895	109.753
2.0845	110.031
2.0795	109.659
