Name: Anthophyllite (Mg,Fe^2+)_7Si_8O_22(OH)_2
Type: Mineral
Class: Silicate
Subclass: Inosilicate
Particle Size: Fine
Sample No.: IN-8A
Owner: JPL
Wavelength Range: VSWIR
Origin: USA, North Carolina
Description: Particle size was 0-45um.Collected by Ward's Original ASTER Spectral Library name was jpl.beckman.mineral.silicate.inosilicate.fine.in08a.spectrum.txt
Measurement: Hemispherical reflectance
X Units: Wavelength (micrometers)
Y Units: Reflectance (percent)
wavelength	value
0.4	60.34
0.403	60.74
0.406	60.88
0.409	61.2
0.412	61.4
0.415	61.73
0.418	62.01
0.421	62.17
0.424	62.26
0.427	62.51
0.43	62.84
0.433	63.1
0.436	63.31
0.439	63.49
0.442	63.6
0.445	63.66
0.448	63.9
0.451	64.15
0.454	64.39
0.457	64.3
0.46	64.27
0.463	64.68
0.466	64.93
0.469	65.05
0.472	65.14
0.475	65.17
0.478	65.35
0.481	65.51
0.484	65.78
0.487	65.83
0.49	65.65
0.493	65.93
0.496	65.93
0.499	66.16
0.502	66.26
0.505	66.3
0.508	66.25
0.511	66.5
0.514	66.67
0.517	66.88
0.52	66.8
0.523	66.59
0.526	66.72
0.529	66.91
0.532	66.92
0.535	66.85
0.538	66.68
0.541	66.74
0.544	66.74
0.547	66.93
0.55	67.11
0.553	67.13
0.556	67.02
0.559	67.14
0.562	67.4
0.565	67.49
0.568	67.61
0.571	67.36
0.574	67.08
0.577	67.13
0.58	67.12
0.583	67.15
0.586	67.18
0.589	67.19
0.592	67.14
0.595	67.1
0.598	67.08
0.601	67.31
0.604	67.43
0.607	67.22
0.61	67.06
0.613	67.05
0.616	67.14
0.619	67.08
0.622	67.11
0.625	67.01
0.628	66.91
0.631	66.97
0.634	67.12
0.637	67
0.64	66.88
0.643	66.75
0.646	66.86
0.649	66.92
0.652	66.99
0.655	66.92
0.658	66.95
0.661	66.7
0.664	66.74
0.667	66.74
0.67	66.85
0.673	66.87
0.676	66.83
0.679	66.59
0.682	66.58
0.685	66.65
0.688	66.72
0.691	66.75
0.694	66.75
0.697	66.72
0.7	66.49
0.703	66.47
0.706	66.5
0.709	66.46
0.712	66.55
0.715	66.52
0.718	66.52
0.721	66.38
0.724	66.29
0.727	66.38
0.73	66.5
0.733	66.5
0.736	66.42
0.739	66.29
0.742	66.11
0.745	66.19
0.748	66.32
0.751	66.27
0.754	66.23
0.757	66.02
0.76	65.9
0.763	65.94
0.766	65.98
0.769	65.95
0.772	65.88
0.775	65.57
0.778	65.56
0.781	65.53
0.784	65.78
0.787	65.83
0.79	65.62
0.793	65.3
0.796	65.29
0.799	65.23
0.808	64.46
0.82	63.83
0.832	62.85
0.844	61.83
0.856	60.75
0.868	59.57
0.88	58.38
0.892	57.38
0.904	56.43
0.916	55.74
0.928	55.27
0.94	55.26
0.952	55.47
0.964	56.19
0.976	57.12
0.988	58.29
1	59.24
1.012	60.38
1.024	61.03
1.036	61.55
1.048	61.89
1.06	62.24
1.072	62.5
1.084	62.73
1.096	62.89
1.108	63.12
1.12	63.28
1.132	63.46
1.144	63.45
1.156	63.62
1.168	63.56
1.18	63.65
1.192	63.69
1.204	63.84
1.216	63.76
1.228	63.81
1.24	63.84
1.252	63.89
1.264	64
1.276	63.97
1.288	64.09
1.3	64.06
1.312	64.18
1.324	64.14
1.336	64.25
1.348	64.26
1.36	64.36
1.372	64.25
1.384	62.2
1.396	62.89
1.408	64.34
1.42	64.42
1.432	64.56
1.444	64.63
1.456	64.65
1.468	64.74
1.48	64.77
1.492	64.82
1.504	64.77
1.516	64.86
1.528	64.81
1.54	64.86
1.552	64.89
1.564	64.93
1.576	64.87
1.588	64.86
1.6	64.82
1.612	64.79
1.624	64.78
1.636	64.67
1.648	64.77
1.66	64.63
1.672	64.66
1.684	64.65
1.696	64.63
1.708	64.56
1.72	64.47
1.732	64.39
1.744	64.19
1.756	64.13
1.768	64.08
1.78	64.02
1.792	63.98
1.804	63.86
1.816	63.78
1.828	63.61
1.84	63.51
1.852	63.44
1.864	63.17
1.876	63.04
1.888	62.74
1.9	62.37
1.912	62.15
1.924	61.96
1.936	61.89
1.948	61.76
1.96	61.7
1.972	61.61
1.984	61.52
1.996	61.56
2.008	61.47
2.02	61.46
2.032	61.36
2.044	61.32
2.056	61.01
2.068	60.9
2.08	60.71
2.092	60.51
2.104	60.39
2.116	60.22
2.128	60
2.14	59.75
2.152	59.43
2.164	59.1
2.176	58.86
2.188	58.58
2.2	58.37
2.212	57.9
2.224	57.55
2.236	57.15
2.248	56.7
2.26	55.8
2.272	54.33
2.284	52.4
2.296	50.49
2.308	50.16
2.32	51.72
2.332	53.57
2.344	54.55
2.356	54.33
2.368	53.56
2.38	52.95
2.392	52.92
2.404	53.56
2.416	53.97
2.428	54.15
2.44	54.04
2.452	54.07
2.464	54.08
2.476	54.21
2.488	54.47
2.5	54.88
