Name: Jarosite KFe_3^3+(SO_4)_2(OH)_6
Type: Mineral
Class: Sulfate
Subclass: None
Particle Size: Coarse
Sample No.: SO-7A
Owner: JPL
Wavelength Range: VSWIR
Origin: Mexico, Chihuahua.
Description: Particle size was 125-500um. Collected by:  Ward's Original ASTER Spectral Library name was jpl.perkin.mineral.sulfate.none.coarse.so07a.spectrum.txt
Measurement: Hemispherical reflectance
X Units: Wavelength (micrometers)
Y Units: Reflectance (percent)
wavelength	value
2.5	42.5202
2.494	42.5055
2.488	42.8795
2.482	43.0575
2.476	43.1758
2.47	43.2197
2.464	43.2583
2.458	43.5345
2.452	43.7773
2.446	44.0971
2.44	44.4544
2.434	44.8152
2.428	45.252
2.422	45.64
2.416	46.0958
2.41	46.4779
2.404	46.9648
2.398	47.4417
2.392	47.9741
2.386	48.5014
2.38	49.0877
2.374	49.5941
2.368	50.1558
2.362	50.5556
2.356	50.8681
2.35	51.0885
2.344	51.1253
2.338	50.9108
2.332	50.5646
2.326	50.0235
2.32	49.4412
2.314	48.7972
2.308	48.2071
2.302	47.7199
2.296	47.2742
2.29	46.8615
2.284	46.6835
2.278	46.7845
2.272	47.173
2.266	47.8482
2.26	48.7043
2.254	49.5518
2.248	50.2762
2.242	51.0619
2.236	51.7798
2.23	52.5198
2.224	53.2244
2.218	53.7981
2.212	54.2826
2.206	54.7468
2.2	55.3731
2.194	55.8355
2.188	56.4244
2.182	56.9162
2.176	57.3959
2.17	57.8125
2.164	58.2077
2.158	58.6014
2.152	58.936
2.146	59.2545
2.14	59.4282
2.134	59.6777
2.128	59.7266
2.122	59.7272
2.116	59.767
2.11	59.7141
2.104	59.82
2.098	59.932
2.092	60.0888
2.086	60.2478
2.08	60.4626
2.074	60.7015
2.068	60.7968
2.062	60.8493
2.056	61.0473
2.05	61.1862
2.044	61.3615
2.038	61.4116
2.032	61.5352
2.026	61.5167
2.02	61.5727
2.014	61.654
2.008	61.7127
2.002	61.659
1.996	61.5724
1.99	61.5616
1.984	61.3989
1.978	61.2166
1.972	61.2135
1.966	60.9836
1.96	60.9884
1.954	60.933
1.948	60.9147
1.942	60.9442
1.936	60.8493
1.93	61.065
1.924	61.2458
1.918	61.4599
1.912	61.7591
1.906	61.9966
1.9	62.2408
1.894	62.3733
1.888	62.2362
1.882	61.947
1.876	61.7387
1.87	61.3745
1.864	61.3921
1.858	61.6076
1.852	62.1068
1.846	62.621
1.84	63.1989
1.834	63.9324
1.828	64.5463
1.822	65.1247
1.816	65.6066
1.81	65.8835
1.804	66.1385
1.798	66.4751
1.792	66.7649
1.786	67.0897
1.78	67.4116
1.774	67.7621
1.768	68.0289
1.762	68.367
1.756	68.6865
1.75	69.0283
1.744	69.3419
1.738	69.6655
1.732	70.0382
1.726	70.339
1.72	70.5371
1.714	70.7837
1.708	71.052
1.702	71.3081
1.696	71.4085
1.69	71.5744
1.684	71.7325
1.678	71.8203
1.672	71.8489
1.666	71.9861
1.66	72.1806
1.654	72.2953
1.648	72.4085
1.642	72.5889
1.636	72.6053
1.63	72.7442
1.624	72.9322
1.618	72.9658
1.612	73.05
1.606	73.1338
1.6	73.1741
1.594	73.2175
1.588	73.1244
1.582	73.098
1.576	72.9904
1.57	72.9161
1.564	72.7367
1.558	72.5531
1.552	72.3983
1.546	72.2098
1.54	72.1096
1.534	71.8856
1.528	71.8874
1.522	71.7412
1.516	71.7602
1.51	71.7485
1.504	71.4139
1.498	70.9712
1.492	70.1989
1.486	69.496
1.48	69.2087
1.474	69.561
1.468	70.1896
1.462	70.8833
1.456	71.627
1.45	72.1878
1.444	72.4078
1.438	72.584
1.432	72.5667
1.426	72.474
1.42	72.4271
1.414	72.1428
1.408	72.0492
1.402	71.9575
1.396	71.8592
1.39	71.6202
1.384	71.2615
1.378	70.9229
1.372	70.4217
1.366	69.8939
1.36	69.3765
1.354	68.8892
1.348	68.3036
1.342	67.8043
1.336	67.1787
1.33	66.5824
1.324	66.0992
1.318	65.4512
1.312	64.8927
1.306	64.2896
1.3	63.7236
1.294	63.1264
1.288	62.5065
1.282	61.9649
1.276	61.2905
1.27	60.7423
1.264	60.1264
1.258	59.5259
1.252	58.9473
1.246	58.3368
1.24	57.7156
1.234	57.1061
1.228	56.5309
1.222	55.9627
1.216	55.2908
1.21	54.7212
1.204	54.1212
1.198	53.6233
1.192	52.9845
1.186	52.4247
1.18	51.8359
1.174	51.2302
1.168	50.6718
1.162	50.1747
1.156	49.5452
1.15	49.0231
1.144	48.4407
1.138	47.8822
1.132	47.3644
1.126	46.8348
1.12	46.2856
1.114	45.7179
1.108	45.2737
1.102	44.699
1.096	44.2897
1.09	43.694
1.084	43.2118
1.078	42.7109
1.072	42.2468
1.066	41.7607
1.06	41.3017
1.054	40.8368
1.048	40.3541
1.042	39.8997
1.036	39.446
1.03	39.0532
1.024	38.5957
1.018	38.0796
1.012	37.7428
1.006	37.254
1	36.8902
0.994	36.4645
0.988	36.0701
0.982	35.673
0.976	35.3181
0.97	35.0645
0.964	34.7348
0.958	34.4603
0.952	34.3019
0.946	34.0736
0.94	33.8647
0.934	33.8375
0.928	33.6424
0.922	33.6037
0.916	33.5781
0.91	33.5883
0.904	33.6065
0.898	33.6572
0.892	33.7736
0.886	33.878
0.88	33.9465
0.874	34.1817
0.868	34.4172
0.862	34.7186
0.856	35.4113
0.85	35.7995
0.844	36.1498
0.838	36.6295
0.832	37.1215
0.826	37.5819
0.82	38.1493
0.814	38.757
0.808	39.4149
0.802	40.07
0.796	40.6818
0.79	41.3811
0.784	42.1029
0.778	42.7982
0.772	43.4454
0.766	44.0917
0.76	44.6361
0.754	45.1603
0.748	45.5118
0.742	45.7509
0.736	45.8184
0.73	45.7418
0.724	45.5168
0.718	45.1555
0.712	44.6491
0.706	44.0838
0.7	43.4525
0.694	42.7921
0.688	42.1432
0.682	41.4541
0.676	40.7712
0.67	40.0772
0.664	39.3667
0.658	38.6157
0.652	37.8431
0.646	37.0164
0.64	36.1487
0.634	35.2501
0.628	34.2507
0.622	33.2083
0.616	32.1801
0.61	31.1006
0.604	30.03
0.598	29.0232
0.592	28.0739
0.586	27.1933
0.58	26.3978
0.574	25.6809
0.568	25.039
0.562	24.4571
0.556	23.9076
0.55	23.3993
0.544	22.9107
0.538	22.4151
0.532	21.9253
0.526	21.4174
0.52	20.8666
0.514	20.2706
0.508	19.5879
0.502	18.7823
0.496	17.8504
0.49	16.8215
0.484	15.6429
0.478	14.5068
0.472	13.4122
0.466	12.4335
0.46	11.5054
0.454	10.5187
0.448	9.4843
0.442	8.6582
0.436	8.2893
0.43	8.182
0.424	7.9019
0.418	7.4208
0.412	6.819
0.406	6.1862
0.4	5.6258
