Name: Buddingtonite (Feldspar) (NH_4)AlSi_3O_8.0.5H_2O
Type: Mineral
Class: Silicate
Subclass: Tectosilicate
Particle Size: Medium
Sample No.: TS-11A
Owner: JPL
Wavelength Range: VSWIR
Origin: USA, California, Lake County, Sulfur Bank
Description: Particle size was 45-125um.Collected by Krohn, Dennis Original ASTER Spectral Library name was jpl.beckman.mineral.silicate.tectosilicate.medium.ts11a.spectrum.txt
Measurement: Hemispherical reflectance
X Units: Wavelength (micrometers)
Y Units: Reflectance (percent)
wavelength	value
0.4	18.88
0.403	19.31
0.406	19.73
0.409	20.04
0.412	20.34
0.415	20.51
0.418	20.99
0.421	21.31
0.424	21.44
0.427	21.69
0.43	21.96
0.433	22.21
0.436	22.4
0.439	22.73
0.442	23.16
0.445	23.28
0.448	23.57
0.451	23.88
0.454	24.21
0.457	24.51
0.46	24.75
0.463	25.2
0.466	25.42
0.469	25.58
0.472	25.9
0.475	26.26
0.478	26.38
0.481	26.73
0.484	27.03
0.487	27.38
0.49	27.48
0.493	27.83
0.496	28.26
0.499	28.4
0.502	28.68
0.505	28.95
0.508	29.25
0.511	29.5
0.514	29.78
0.517	30.27
0.52	30.31
0.523	30.68
0.526	31.11
0.529	31.3
0.532	31.55
0.535	31.8
0.538	32.25
0.541	32.48
0.544	32.75
0.547	33.07
0.55	33.3
0.553	33.7
0.556	34.11
0.559	34.09
0.562	34.82
0.565	34.84
0.568	35.18
0.571	35.41
0.574	35.49
0.577	35.92
0.58	36.23
0.583	36.23
0.586	36.6
0.589	36.96
0.592	37.14
0.595	37.43
0.598	37.79
0.601	37.96
0.604	38.24
0.607	38.58
0.61	38.75
0.613	38.99
0.616	39.39
0.619	39.46
0.622	39.63
0.625	40.05
0.628	40.25
0.631	40.57
0.634	40.82
0.637	41.08
0.64	41.24
0.643	41.41
0.646	41.77
0.649	42.12
0.652	42.23
0.655	42.46
0.658	42.77
0.661	43
0.664	43.26
0.667	43.56
0.67	43.94
0.673	44.06
0.676	44.2
0.679	44.66
0.682	44.87
0.685	44.95
0.688	45.22
0.691	45.5
0.694	45.75
0.697	45.8
0.7	46.05
0.703	46.13
0.706	46.5
0.709	46.73
0.712	46.84
0.715	47.13
0.718	47.41
0.721	47.41
0.724	47.55
0.727	47.84
0.73	47.98
0.733	48.19
0.736	48.53
0.739	48.76
0.742	48.76
0.745	48.98
0.748	49.21
0.751	49.21
0.754	49.38
0.757	49.73
0.76	49.84
0.763	49.87
0.766	50.04
0.769	50.42
0.772	50.49
0.775	50.57
0.778	50.81
0.781	51.08
0.784	51.11
0.787	51.22
0.79	51.4
0.793	51.69
0.796	51.75
0.799	51.73
0.808	52.45
0.82	52.84
0.832	53.26
0.844	53.71
0.856	53.93
0.868	54.22
0.88	54.49
0.892	54.67
0.904	54.9
0.916	55.03
0.928	55.27
0.94	55.53
0.952	55.72
0.964	56.11
0.976	56.25
0.988	56.46
1	56.56
1.012	56.82
1.024	56.95
1.036	57.06
1.048	57.19
1.06	57.22
1.072	57.43
1.084	57.62
1.096	57.79
1.108	58.03
1.12	58.2
1.132	58.33
1.144	58.45
1.156	58.67
1.168	58.73
1.18	58.82
1.192	58.88
1.204	59.07
1.216	59.08
1.228	59.26
1.24	59.37
1.252	59.49
1.264	59.53
1.276	59.68
1.288	59.98
1.3	60.02
1.312	60.24
1.324	60.23
1.336	60.34
1.348	60.46
1.36	60.59
1.372	60.47
1.384	60
1.396	58.78
1.408	57.36
1.42	58.3
1.432	59.59
1.444	60.09
1.456	60.13
1.468	60.15
1.48	60.11
1.492	59.84
1.504	59.37
1.516	58.9
1.528	57.99
1.54	56.96
1.552	56.14
1.564	55.92
1.576	56.74
1.588	57.69
1.6	58.41
1.612	58.71
1.624	58.71
1.636	58.93
1.648	59.35
1.66	59.69
1.672	59.82
1.684	59.95
1.696	59.88
1.708	59.82
1.72	59.72
1.732	59.9
1.744	60.12
1.756	60.02
1.768	60.03
1.78	60.19
1.792	60.21
1.804	60.17
1.816	60.02
1.828	59.85
1.84	59.75
1.852	59.52
1.864	59
1.876	58
1.888	56.41
1.9	54.61
1.912	53.65
1.924	53.48
1.936	53.07
1.948	52.31
1.96	51.16
1.972	49.13
1.984	45.94
1.996	42.3
2.008	39.55
2.02	38.51
2.032	38.32
2.044	38.23
2.056	37.83
2.068	36.98
2.08	35.45
2.092	33.41
2.104	31.45
2.116	30.45
2.128	30.47
2.14	31.39
2.152	32.67
2.164	34.06
2.176	35.62
2.188	37.12
2.2	38.12
2.212	39.31
2.224	40.78
2.236	42.17
2.248	43.68
2.26	45.1
2.272	46.29
2.284	47.01
2.296	47.43
2.308	47.75
2.32	47.87
2.332	47.94
2.344	48.11
2.356	48.55
2.368	49.13
2.38	49.58
2.392	49.72
2.404	49.77
2.416	49.72
2.428	49.48
2.44	49.28
2.452	49.16
2.464	48.95
2.476	48.83
2.488	48.89
2.5	48.89
