Name: Topaz Al_2SiO_4(F,OH)_2
Type: Mineral
Class: Silicate
Subclass: Nesosilicate
Particle Size: Medium
Sample No.: NS-6A
Owner: JPL
Wavelength Range: VSWIR
Origin: Australia, Western Australia, Grossmont.
Description: Particle size was 45-125um.Collected by:  Ward's Original ASTER Spectral Library name was jpl.perkin.mineral.silicate.nesosilicate.medium.ns06a.spectrum.txt
Measurement: Hemispherical reflectance
X Units: Wavelength (micrometers)
Y Units: Reflectance (percent)
wavelength	value
2.5	38.7969
2.494	40.1669
2.488	42.0237
2.482	43.6141
2.476	44.4646
2.47	44.984
2.464	45.8809
2.458	47.1148
2.452	48.4705
2.446	49.5751
2.44	50.3223
2.434	50.5086
2.428	50.4578
2.422	50.4455
2.416	50.8467
2.41	51.4231
2.404	51.9804
2.398	52.6388
2.392	53.117
2.386	53.4195
2.38	53.6335
2.374	53.8044
2.368	53.9657
2.362	54.2472
2.356	54.5703
2.35	54.8108
2.344	54.7509
2.338	54.7253
2.332	54.7621
2.326	54.969
2.32	55.2672
2.314	55.7775
2.308	56.2119
2.302	56.7238
2.296	57.2387
2.29	57.7836
2.284	58.1602
2.278	58.2293
2.272	57.8101
2.266	57.0425
2.26	56.7294
2.254	57.3368
2.248	58.2623
2.242	58.5816
2.236	58.6023
2.23	58.2835
2.224	57.9865
2.218	57.3232
2.212	56.7215
2.206	56.6861
2.2	57.0002
2.194	57.272
2.188	57.3994
2.182	57.2059
2.176	56.8349
2.17	56.6086
2.164	56.2361
2.158	55.5048
2.152	54.946
2.146	55.3447
2.14	56.223
2.134	57.303
2.128	57.9337
2.122	58.1713
2.116	58.0578
2.11	57.1908
2.104	55.6331
2.098	52.2687
2.092	43.6715
2.086	30.6963
2.08	30.7198
2.074	45.0379
2.068	54.2926
2.062	57.4616
2.056	58.5999
2.05	59.1382
2.044	59.4751
2.038	59.6622
2.032	59.76
2.026	59.807
2.02	59.7917
2.014	59.7815
2.008	59.6934
2.002	59.7622
1.996	59.8061
1.99	59.8337
1.984	59.781
1.978	59.7266
1.972	59.6466
1.966	59.5378
1.96	59.5029
1.954	59.5738
1.948	59.5958
1.942	59.5719
1.936	59.5796
1.93	59.5164
1.924	59.576
1.918	59.6159
1.912	59.6004
1.906	59.6912
1.9	59.8439
1.894	60.0314
1.888	60.1596
1.882	60.1827
1.876	60.2331
1.87	60.3307
1.864	60.3058
1.858	60.391
1.852	60.3721
1.846	60.3973
1.84	60.3121
1.834	60.3736
1.828	60.3623
1.822	60.4306
1.816	60.4311
1.81	60.4468
1.804	60.3969
1.798	60.3917
1.792	60.3487
1.786	60.3792
1.78	60.3556
1.774	60.3197
1.768	60.3545
1.762	60.3116
1.756	60.2774
1.75	60.3036
1.744	60.378
1.738	60.3406
1.732	60.3418
1.726	60.2936
1.72	60.3024
1.714	60.2759
1.708	60.3245
1.702	60.2576
1.696	60.2358
1.69	59.9237
1.684	59.5468
1.678	59.9695
1.672	60.1989
1.666	60.2262
1.66	60.2011
1.654	60.2517
1.648	60.1471
1.642	60.1522
1.636	60.259
1.63	60.2118
1.624	60.1635
1.618	60.1124
1.612	60.1375
1.606	60.1074
1.6	60.1837
1.594	60.1728
1.588	60.0887
1.582	60.1932
1.576	60.1496
1.57	60.1544
1.564	60.1185
1.558	60.1377
1.552	60.0751
1.546	60.1415
1.54	60.1249
1.534	60.0911
1.528	60.1029
1.522	60.1218
1.516	60.0193
1.51	60.0885
1.504	60.0019
1.498	60.0133
1.492	59.9758
1.486	59.9546
1.48	59.9717
1.474	59.9037
1.468	59.8914
1.462	59.8378
1.456	59.8323
1.45	59.8898
1.444	59.838
1.438	59.8111
1.432	59.7762
1.426	59.7109
1.42	59.5316
1.414	58.6204
1.408	53.6882
1.402	53.3277
1.396	59.2853
1.39	59.6131
1.384	59.6807
1.378	59.5915
1.372	59.609
1.366	59.702
1.36	59.7025
1.354	59.5929
1.348	59.4955
1.342	59.5443
1.336	59.6713
1.33	59.7402
1.324	59.7843
1.318	59.7651
1.312	59.7102
1.306	59.7238
1.3	59.6267
1.294	59.7241
1.288	59.6543
1.282	59.6577
1.276	59.6395
1.27	59.6677
1.264	59.6421
1.258	59.6302
1.252	59.6365
1.246	59.6438
1.24	59.6034
1.234	59.5866
1.228	59.5595
1.222	59.5259
1.216	59.5501
1.21	59.5055
1.204	59.5277
1.198	59.5622
1.192	59.5979
1.186	59.5466
1.18	59.5016
1.174	59.5783
1.168	59.5019
1.162	59.5489
1.156	59.5101
1.15	59.5343
1.144	59.5228
1.138	59.495
1.132	59.4759
1.126	59.431
1.12	59.5284
1.114	59.4377
1.108	59.5148
1.102	59.4611
1.096	59.4884
1.09	59.5074
1.084	59.5497
1.078	59.5056
1.072	59.4489
1.066	59.4235
1.06	59.4422
1.054	59.4229
1.048	59.4747
1.042	59.3779
1.036	59.5089
1.03	59.4722
1.024	59.4856
1.018	59.4175
1.012	59.4019
1.006	59.4352
1	59.4056
0.994	59.3623
0.988	59.4303
0.982	59.3737
0.976	59.3626
0.97	59.3658
0.964	59.2557
0.958	59.2612
0.952	59.3388
0.946	59.3253
0.94	59.3798
0.934	59.3278
0.928	59.3547
0.922	59.3169
0.916	59.2978
0.91	59.3135
0.904	59.2911
0.898	59.2743
0.892	59.2587
0.886	59.2477
0.88	59.2091
0.874	59.2117
0.868	59.1823
0.862	59.1786
0.856	59.4346
0.85	59.4114
0.844	59.4109
0.838	59.4416
0.832	59.5297
0.826	59.4401
0.82	59.4178
0.814	59.3966
0.808	59.3973
0.802	59.41
0.796	59.3408
0.79	59.2966
0.784	59.2433
0.778	59.192
0.772	59.1758
0.766	59.1504
0.76	59.1327
0.754	59.1099
0.748	59.1142
0.742	59.0608
0.736	59.0414
0.73	59.011
0.724	58.9969
0.718	58.9798
0.712	58.9849
0.706	58.96
0.7	58.9532
0.694	58.9175
0.688	58.9093
0.682	58.8874
0.676	58.8702
0.67	58.8635
0.664	58.8463
0.658	58.8265
0.652	58.8234
0.646	58.8091
0.64	58.8105
0.634	58.7979
0.628	58.7923
0.622	58.7881
0.616	58.7929
0.61	58.8095
0.604	58.7875
0.598	58.8207
0.592	58.851
0.586	58.8724
0.58	58.8677
0.574	58.8635
0.568	58.8764
0.562	58.8657
0.556	58.8582
0.55	58.8646
0.544	58.8683
0.538	58.857
0.532	58.8444
0.526	58.839
0.52	58.8465
0.514	58.8294
0.508	58.8115
0.502	58.8073
0.496	58.7834
0.49	58.7504
0.484	58.6981
0.478	58.6994
0.472	58.6829
0.466	58.6562
0.46	58.6342
0.454	58.5818
0.448	58.5275
0.442	58.4647
0.436	58.4044
0.43	58.3556
0.424	58.2858
0.418	58.2363
0.412	58.1749
0.406	58.1245
0.4	58.0725
