Name: Kaliborite KHMg2B12O16(OH)10 * 4H2O
Type: Mineral
Class: Borate
Subclass: None
Particle Size: Coarse
Sample No.: NMNH160075
Owner: Smithsonian Institute, National Museum of Nat. History
Wavelength Range: All
Origin: Spain
Description: Kaliborite from SpainSample was Unsieved coarse powder. Original ASTER Spectral Library name was usgs.perknic.mineral.borate.none.coarse.kaliboc.spectrum.txt
Measurement: Directional Hemispherical Reflectance
X Units: Wavelength (micrometers)
Y Units: Reflectance (percent)
wavelength	value
13.9	3.337
13.644	3.327
13.398	2.771
13.16	2.678
12.93	2.647
12.708	2.977
12.494	2.874
12.287	2.493
12.086	3.069
11.892	3.317
11.704	4.264
11.522	4.769
11.346	4.862
11.175	4.759
11.009	4.975
10.848	4.903
10.691	2.936
10.539	2.616
10.391	3.852
10.247	3.811
10.108	3.832
9.972	3.275
9.839	3.626
9.71	4.141
9.585	4.656
9.462	4.913
9.343	3.646
9.226	2.235
9.113	2.225
9.002	2.843
8.894	1.895
8.789	1.308
8.686	1.246
8.585	1.627
8.487	1.947
8.391	1.473
8.297	1.308
8.205	1.37
8.115	1.391
8.027	1.782
7.941	2.132
7.857	2.493
7.774	3.986
7.694	4.419
7.614	2.884
7.537	3.193
7.461	3.914
7.387	3.811
7.314	4.285
7.242	3.43
7.172	2.657
7.103	1.957
7.036	1.926
6.97	2.009
6.905	1.926
6.841	1.658
6.778	1.349
6.717	1.205
6.657	1.102
6.597	1.071
6.539	0.711
6.482	0.484
6.426	0.494
6.37	0.494
6.316	0.546
6.263	0.536
6.21	0.525
6.159	0.536
6.108	0.546
6.058	0.587
6.009	0.597
5.96	0.597
5.913	0.659
5.866	0.731
5.82	0.793
5.775	0.803
5.73	0.865
5.686	0.886
5.643	0.937
5.6	0.989
5.558	1.03
5.517	1.061
5.476	1.112
5.436	1.185
5.396	1.226
5.357	1.267
5.319	1.298
5.281	1.411
5.243	1.473
5.206	1.442
5.17	1.473
5.134	1.514
5.099	1.597
5.064	1.586
5.03	1.617
4.996	1.679
4.962	1.648
4.929	1.638
4.897	1.607
4.865	1.72
4.833	1.689
4.802	1.751
4.771	1.761
4.74	1.833
4.71	1.854
4.68	1.864
4.651	1.864
4.622	1.864
4.593	1.864
4.565	1.926
4.537	1.916
4.509	1.895
4.482	1.864
4.455	1.844
4.428	1.885
4.402	1.875
4.376	1.885
4.35	1.916
4.325	1.988
4.3	2.009
4.275	2.091
4.251	2.132
4.226	2.122
4.202	2.05
4.179	2.06
4.155	2.081
4.132	1.967
4.109	1.936
4.086	1.926
4.064	1.916
4.042	1.844
4.02	1.895
3.998	1.916
3.977	1.947
3.956	2.091
3.935	2.091
3.914	2.153
3.893	2.111
3.873	2.142
3.853	2.142
3.833	2.081
3.813	2.204
3.794	2.142
3.774	2.111
3.755	2.122
3.736	2.091
3.717	2.142
3.699	2.184
3.68	2.163
3.662	2.081
3.644	2.194
3.626	2.101
3.609	2.081
3.591	2.122
3.574	2.039
3.557	2.07
3.54	2.06
3.523	1.947
3.506	1.957
3.49	1.978
3.473	1.875
3.457	1.916
3.441	1.813
3.425	1.792
3.409	1.741
3.394	1.689
3.378	1.658
3.363	1.689
3.348	1.689
3.333	1.627
3.318	1.597
3.303	1.535
3.288	1.473
3.274	1.504
3.259	1.494
3.245	1.37
3.231	1.442
3.217	1.483
3.203	1.452
3.189	1.37
3.176	1.535
3.162	1.524
3.149	1.432
3.135	1.339
3.122	1.215
3.109	1.205
3.096	1.205
3.083	1.226
3.07	1.143
3.058	1.339
3.045	1.195
3.033	1.215
3.02	1.298
3.008	1.226
2.996	1.246
2.984	1.288
2.972	1.112
2.96	0.999
2.948	0.948
2.937	1.009
2.925	0.948
2.913	0.855
2.902	0.958
2.891	0.834
2.879	0.824
2.868	0.803
2.857	0.824
2.846	0.855
2.835	0.731
2.825	0.875
2.814	0.845
2.803	0.927
2.793	0.937
2.782	1.081
2.772	1.051
2.761	1.257
2.751	1.421
2.741	1.597
2.731	1.895
2.721	2.06
2.711	2.369
2.701	2.441
2.691	2.688
2.681	2.894
2.672	3.152
2.662	3.461
2.653	3.595
2.643	3.801
2.634	3.904
2.624	4.12
2.615	4.089
2.606	4.244
2.597	4.202
2.588	4.213
2.579	4.161
2.57	4.202
2.561	4.233
2.552	4.347
2.543	4.47
2.535	4.583
2.526	4.686
2.517	4.748
2.509	4.779
2.5	4.82
2.486	5.213
2.472	5.125
2.458	5.474
2.444	5.79
2.43	6.028
2.416	6.197
2.402	6.548
2.388	6.928
2.374	7.257
2.36	7.625
2.346	8.045
2.332	8.505
2.318	8.9
2.304	9.228
2.29	9.42
2.276	9.366
2.262	9.342
2.248	9.256
2.234	9.083
2.22	9.115
2.206	8.96
2.192	8.825
2.178	8.763
2.164	8.757
2.15	8.878
2.136	8.988
2.122	9.184
2.108	9.35
2.094	9.402
2.08	9.381
2.066	9.408
2.052	9.361
2.038	9.169
2.024	8.862
2.01	8.611
1.996	8.177
1.982	7.823
1.968	7.815
1.954	8.483
1.94	8.746
1.926	9.027
1.912	10.8
1.898	12.775
1.884	14.168
1.87	15.085
1.856	15.633
1.842	16.06
1.828	16.24
1.814	16.411
1.8	16.926
1.786	17.063
1.772	17.151
1.758	17.128
1.744	16.929
1.73	16.662
1.716	16.283
1.702	15.924
1.688	15.978
1.674	16.132
1.66	16.29
1.646	16.633
1.632	17.145
1.618	17.498
1.604	17.706
1.59	17.525
1.576	17.583
1.562	17.807
1.548	18.073
1.534	18.075
1.52	18.073
1.506	17.472
1.492	16.862
1.478	16.133
1.464	16.869
1.45	19.104
1.436	21.267
1.422	24.801
1.408	28.776
1.394	31.114
1.38	32.516
1.366	33.528
1.352	34.429
1.338	35.455
1.324	36.042
1.31	36.552
1.296	36.904
1.282	37.192
1.268	37.317
1.254	37.693
1.24	37.945
1.226	37.846
1.212	37.859
1.198	37.887
1.184	38.161
1.17	38.322
1.156	38.821
1.142	39.011
1.128	39.123
1.114	39.176
1.1	39.077
1.086	39.049
1.072	38.951
1.058	38.879
1.044	38.724
1.03	38.495
1.016	38.246
1.002	38.188
0.988	38.175
0.974	38.187
0.96	38.404
0.946	38.53
0.932	38.482
0.918	38.317
0.904	38.315
0.89	38.303
0.876	38.21
0.862	38.359
0.848	38.237
0.834	38.204
0.82	38.202
0.806	38.215
0.792	38.171
0.778	38.146
0.764	38.118
0.75	38.056
0.736	38.019
0.722	37.986
0.708	37.969
0.694	37.926
0.68	37.913
0.666	37.887
0.652	37.844
0.638	37.786
0.624	37.72
0.61	37.633
0.596	37.535
0.582	37.403
0.568	37.253
0.554	37.065
0.54	36.873
0.526	36.677
0.512	36.444
0.498	36.153
0.484	35.728
0.47	35.261
0.456	34.649
0.442	33.754
0.428	32.471
0.414	30.612
0.4	28.004
