Name: Smithsonite PbCO_3
Type: Mineral
Class: Carbonate
Subclass: None
Particle Size: Fine
Sample No.: C-11A
Owner: JPL
Wavelength Range: TIR
Origin: N/A
Description: Particle size was 0-45um.Collected by JPL Original ASTER Spectral Library name was jpl.nicolet.mineral.carbonate.none.fine.c11a.spectrum.txt
Measurement: Hemispherical reflectance
X Units: Wavelength (micrometers)
Y Units: Reflectance (percent)
wavelength	value
15.3853	33.3369
15.1161	33.7845
14.8563	33.8474
14.6052	33.4845
14.3624	32.1533
14.1276	28.8903
13.9004	23.1285
13.6803	14.7009
13.4671	5.0691
13.2604	8.5332
13.06	21.852
12.8656	26.5572
12.6769	27.9192
12.4936	28.8203
12.3155	28.1716
12.1425	26.3226
11.9742	23.9438
11.8106	20.884
11.6513	12.0972
11.4963	10.0638
11.3454	21.425
11.1983	25.4803
11.0551	26.1495
10.9154	27.1268
10.7793	27.8287
10.6465	27.4502
10.5169	27.1402
10.3904	27.8104
10.267	28.6532
10.1464	30.1292
10.0287	30.6057
9.9136	30.4339
9.8012	29.2508
9.6913	26.3314
9.5838	24.6693
9.4787	24.0149
9.3758	23.5011
9.2752	22.0099
9.1767	20.423
9.0803	21.7393
8.9858	23.0944
8.8934	24.3532
8.8028	23.9804
8.714	22.8491
8.627	19.0831
8.5417	15.4393
8.4581	14.64
8.3761	14.9612
8.2957	15.2264
8.2169	13.0962
8.1395	13.6725
8.0635	14.3227
7.989	15.0031
7.9158	15.3708
7.8439	14.8945
7.7734	14.1485
7.7041	13.3431
7.636	12.6559
7.5691	11.8982
7.5034	11.1003
7.4388	10.7551
7.3753	9.9232
7.3129	9.4064
7.2515	9.4658
7.1912	10.3587
7.1318	13.4274
7.0734	13.3663
7.016	13.1391
6.9595	13.0889
6.9039	13.0392
6.8492	13.4874
6.7953	14.1821
6.7423	14.8984
6.6901	16.4181
6.6387	18.0153
6.5881	18.5133
6.5382	19.7696
6.4892	20.871
6.4408	18.7396
6.3931	14.666
6.3462	10.0597
6.2999	4.9107
6.2543	2.8747
6.2094	2.2221
6.1651	2.2103
6.1214	2.6084
6.0784	3.2807
6.0359	3.896
5.994	4.4988
5.9527	5.5942
5.912	7.4435
5.8718	9.9199
5.8322	12.117
5.7931	13.3627
5.7545	14.5619
5.7165	15.5534
5.6789	15.8803
5.6418	16.1823
5.6052	15.1641
5.5691	11.2879
5.5334	5.7203
5.4982	5.6002
5.4635	8.9742
5.4291	21.4107
5.3952	33.4914
5.3618	40.0606
5.3287	44.06
5.2961	47.0491
5.2638	48.8601
5.2319	50.2279
5.2004	51.1881
5.1693	51.6371
5.1386	50.7558
5.1082	46.9744
5.0782	52.6144
5.0485	53.94
5.0192	54.3167
4.9902	54.5936
4.9616	55.0736
4.9332	55.3873
4.9052	55.7064
4.8776	55.9376
4.8502	56.1414
4.8231	56.108
4.7963	55.976
4.7699	55.2811
4.7437	53.718
4.7178	49.2424
4.6922	41.383
4.6668	40.0671
4.6418	42.8926
4.617	47.1944
4.5924	49.118
4.5681	50.7156
4.5441	51.478
4.5203	51.6721
4.4968	51.6184
4.4735	51.9004
4.4505	52.8075
4.4277	53.9313
4.4051	53.5626
4.3828	54.0411
4.3607	54.8554
4.3388	55.0764
4.3171	55.5472
4.2956	56.0946
4.2744	56.2599
4.2534	55.7781
4.2325	55.3575
4.2119	54.2782
4.1915	53.5038
4.1712	52.66
4.1512	51.1067
4.1313	49.0022
4.1117	46.4957
4.0922	42.5379
4.0729	36.4822
4.0538	27.1326
4.0349	17.3789
4.0161	8.8986
3.9976	9.0017
3.9792	10.6108
3.9609	13.9099
3.9428	18.2677
3.9249	19.3919
3.9072	20.2098
3.8896	21.1613
3.8722	21.7801
3.8549	22.1205
3.8378	23.901
3.8208	27.6033
3.804	32.0635
3.7873	37.2324
3.7708	43.244
3.7544	47.9118
3.7382	49.3899
3.7221	50.1179
3.7061	50.9303
3.6903	51.7399
3.6746	51.9655
3.659	51.9275
3.6436	51.2456
3.6283	49.9175
3.6131	45.9057
3.5981	45.5271
3.5832	39.9349
3.5684	28.7891
3.5537	22.9697
3.5391	20.3442
3.5247	17.7671
3.5104	16.1018
3.4962	18.6369
3.4821	22.1278
3.4681	23.3877
3.4543	23.6427
3.4405	23.8662
3.4269	23.9704
3.4133	23.5505
3.3999	22.7809
3.3866	22.642
3.3733	22.8612
3.3602	22.1709
3.3472	22.1784
3.3343	23.6902
3.3215	31.6047
3.3088	35.4298
3.2961	37.2357
3.2836	38.1959
3.2712	38.598
3.2588	38.761
3.2466	38.835
3.2345	38.8387
3.2224	38.7613
3.2104	38.6948
3.1985	38.2432
3.1867	37.8942
3.175	37.7262
3.1634	37.6752
3.1519	37.4946
3.1404	37.2938
3.129	36.9323
3.1178	36.6716
3.1065	36.2176
3.0954	36.035
3.0844	35.9906
3.0734	36.0284
3.0625	35.8348
3.0517	35.6813
3.041	35.6435
3.0303	35.5324
3.0197	35.4677
3.0092	35.4092
2.9987	35.2361
2.9884	35.2324
2.9781	35.3131
2.9678	35.5229
2.9577	35.6035
2.9476	36.0096
2.9376	36.6881
2.9276	37.2084
2.9177	38.0088
2.9079	38.6682
2.8982	39.4642
2.8885	40.4143
2.8789	41.2418
2.8693	42.3684
2.8598	43.2162
2.8504	44.084
2.841	44.9327
2.8317	45.7753
2.8224	47.2219
2.8133	48.8013
2.8041	49.8855
2.7951	50.8752
2.786	53.6651
2.7771	56.3301
2.7682	59.1732
2.7594	61.7628
2.7506	65.3465
2.7418	68.6388
2.7332	71.0195
2.7246	73.7796
2.716	74.9349
2.7075	76.8105
2.699	78.3616
2.6906	79.6659
2.6823	80.8419
2.674	81.6056
2.6657	83.1304
2.6575	82.5577
2.6494	82.6033
2.6413	83.1672
2.6332	83.4026
2.6252	83.5264
2.6173	84.0887
2.6094	83.4909
2.6015	82.7435
2.5937	83.099
2.5859	81.0387
2.5782	77.7444
2.5706	73.5848
2.5629	71.2717
2.5554	70.1923
2.5478	70.7609
2.5403	71.8167
2.5329	72.9763
2.5255	73.5059
2.5181	73.9629
2.5108	74.5589
2.5035	74.7922
2.4963	75.5921
2.4891	76.2845
2.482	77.2215
2.4749	78.4626
2.4678	79.7311
2.4608	80.6186
2.4538	81.5225
2.4468	82.082
2.4399	82.8963
2.4331	83.2694
2.4262	83.5765
2.4194	84.1319
2.4127	84.6136
2.4059	84.6074
2.3993	84.6668
2.3926	83.9323
2.386	82.1257
2.3795	80.242
2.3729	79.2542
2.3664	78.8318
2.36	78.9384
2.3535	79.3595
2.3471	79.9321
2.3408	80.3663
2.3345	80.3982
2.3282	80.7299
2.3219	81.1408
2.3157	81.5457
2.3095	82.036
2.3034	82.6865
2.2972	83.219
2.2911	83.9294
2.2851	84.5203
2.279	84.968
2.2731	85.7167
2.2671	85.9752
2.2612	86.425
2.2553	86.8671
2.2494	87.2639
2.2435	87.7393
2.2377	87.9364
2.232	88.2264
2.2262	88.519
2.2205	88.7822
2.2148	88.9662
2.2091	89.2171
2.2035	89.358
2.1979	89.3995
2.1923	89.3969
2.1868	89.3823
2.1812	89.5501
2.1758	89.3253
2.1703	89.3153
2.1649	89.1678
2.1595	89.2361
2.1541	89.3274
2.1487	89.3867
2.1434	89.5174
2.1381	89.7586
2.1328	89.6576
2.1275	89.7825
2.1223	89.6452
2.1171	89.6572
2.112	89.4123
2.1068	89.6249
2.1017	89.6748
2.0966	89.5995
2.0915	89.6672
2.0865	89.5954
2.0814	89.7607
2.0764	89.8029
2.0715	89.7046
2.0665	89.5249
2.0616	89.681
2.0567	89.6383
2.0518	89.6299
2.0469	89.5456
2.0421	89.4649
2.0373	89.6338
2.0325	89.5986
2.0277	89.218
2.0229	89.1157
2.0182	89.174
2.0135	88.9969
2.0088	88.8544
2.0042	88.9042
