Name: Kaolinite Al2Si2O5(OH)4
Type: Mineral
Class: Silicate
Subclass: Phyllosilicate
Particle Size: Coarse
Sample No.: kaolinite_2
Owner: JHU
Wavelength Range: TIR
Origin: Warren County, Georgia, via Hunt and Salisbury Collection#CMS KGA-2 (purchased from Clay Mineral Society Repository)
Description: Cream-colored, earthy clay. Completely disordered kaolinite.(Chain Silicates); (Serpentine/Kaoline Group)Particle size was 0-2 micrometers, but packed powder simulates coarse. Original ASTER Spectral Library name was jhu.nicolet.mineral.silicate.phyllosilicate.packed.kaolin2.spectrum.txt
Measurement: Bidirectional reflectance
X Units: Wavelength (micrometers)
Y Units: Reflectance (percent)
wavelength	value
25.0442	19.705
24.3388	20.6425
23.6719	21.6201
23.0407	22.6806
22.4422	19.6552
21.8741	22.123
21.334	27.622
20.8199	29.2597
20.33	17.7504
19.8627	18.7187
19.4163	20.7133
18.9896	24.2353
18.5812	28.5793
18.19	31.7734
17.815	33.4328
17.4551	34.6955
17.1094	33.7524
16.7772	31.766
16.4576	29.8595
16.15	25.5995
15.8537	19.1713
15.568	16.8642
15.2925	15.2988
15.0265	14.2524
14.7697	14.5788
14.5214	15.445
14.2814	15.4538
14.0492	10.7024
13.8244	9.352
13.6067	11.0908
13.3957	12.4433
13.1912	12.2299
12.9929	11.9121
12.8004	12.7983
12.6135	12.7812
12.432	11.7646
12.2557	12.4502
12.0843	13.2715
11.9176	14.0122
11.7555	14.6997
11.5977	15.434
11.444	16.228
11.2944	17.0871
11.1487	18.4301
11.0067	20.7993
10.8682	20.8644
10.7332	18.4751
10.6015	17.6709
10.473	14.9629
10.3476	16.2263
10.2251	18.0524
10.1056	20.4345
9.9887	24.2824
9.8746	27.3198
9.763	25.2314
9.6539	33.8058
9.5472	38.9652
9.4429	42.9984
9.3408	44.431
9.2409	44.4384
9.1431	38.4909
9.0474	31.8593
8.9536	35.0077
8.8618	50.0128
8.7718	52.4835
8.6837	47.649
8.5973	40.7394
8.5126	31.7284
8.4295	20.2844
8.3481	9.497
8.2682	3.3892
8.1898	2.0737
8.1129	2.7541
8.0374	3.5603
7.9634	4.2663
7.8906	4.8772
7.8192	5.4123
7.7491	5.8584
7.6802	6.2544
7.6126	6.5832
7.5461	6.8965
7.4807	7.1714
7.4165	7.4118
7.3534	7.624
7.2914	7.8276
7.2303	8.0205
7.1703	8.2063
7.1113	8.376
7.0533	8.553
6.9962	8.6968
6.94	8.8406
6.8847	8.9558
6.8302	9.0552
6.7767	9.176
6.7239	9.2925
6.672	9.3967
6.6209	9.508
6.5705	9.6201
6.5209	9.6911
6.4721	9.7817
6.424	9.876
6.3766	9.9284
6.3299	9.9839
6.2838	10.0373
6.2385	10.0908
6.1937	10.124
6.1496	10.1162
6.1062	10.1477
6.0633	10.1848
6.0211	10.1772
5.9794	10.23
5.9383	10.2929
5.8978	10.3081
5.8578	10.3061
5.8184	10.3154
5.7794	10.3147
5.741	10.3508
5.7031	10.3974
5.6657	10.4292
5.6288	10.4814
5.5924	10.532
5.5564	10.5149
5.5209	10.4299
5.4859	10.3359
5.4513	10.3882
5.4171	10.4765
5.3833	10.5368
5.35	10.6145
5.3171	10.6657
5.2846	10.6963
5.2524	10.6745
5.2207	10.645
5.1893	10.6289
5.1584	10.6447
5.1277	10.7019
5.0975	10.8196
5.0676	10.9692
5.038	11.1267
5.0088	11.269
4.98	11.3811
4.9514	11.5
4.9232	11.5796
4.8953	11.6443
4.8678	11.7409
4.8405	11.8249
4.8135	11.9489
4.7868	12.0642
4.7605	12.122
4.7344	12.1406
4.7086	12.1499
4.6831	12.1601
4.6578	12.238
4.6328	12.393
4.6081	12.5759
4.5837	12.7368
4.5595	12.8481
4.5356	12.9079
4.5119	12.9516
4.4884	12.9848
4.4652	13.0776
4.4423	13.1325
4.4196	13.1633
4.3971	13.1997
4.3748	13.206
4.3528	13.2339
4.331	13.2473
4.3094	13.2627
4.288	13.2661
4.2668	13.1211
4.2458	13.2597
4.2251	13.2978
4.2045	13.313
4.1841	13.3039
4.164	13.3083
4.144	13.3147
4.1242	13.3271
4.1046	13.3413
4.0852	13.354
4.066	13.3647
4.047	13.394
4.0281	13.3965
4.0094	13.4135
3.9909	13.4121
3.9725	13.4228
3.9544	13.4316
3.9363	13.4375
3.9185	13.4365
3.9008	13.4209
3.8833	13.3984
3.8659	13.3554
3.8487	13.342
3.8316	13.309
3.8147	13.2592
3.7979	13.2021
3.7813	13.1652
3.7648	13.1049
3.7485	13.0276
3.7323	12.9585
3.7162	12.8344
3.7003	12.6272
3.6845	12.6079
3.6689	12.6843
3.6534	12.6748
3.638	12.6406
3.6227	12.5757
3.6076	12.5163
3.5926	12.4585
3.5777	12.3774
3.563	12.3183
3.5484	12.2617
3.5338	12.1826
3.5195	12.1106
3.5052	11.9924
3.491	11.9839
3.477	11.9387
3.463	11.8789
3.4492	11.7959
3.4355	11.6997
3.4219	11.5527
3.4084	11.4987
3.395	11.5058
3.3817	11.4375
3.3685	11.395
3.3554	11.352
3.3425	11.2881
3.3296	11.226
3.3168	11.1728
3.3041	11.1169
3.2915	11.0442
3.279	10.9961
3.2666	10.9272
3.2543	10.874
3.2421	10.8276
3.23	10.7558
3.218	10.6882
3.206	10.6382
3.1942	10.5752
3.1824	10.5249
3.1707	10.4648
3.1591	10.4336
3.1476	10.3906
3.1362	10.3257
3.1249	10.2671
3.1136	10.2241
3.1024	10.1704
3.0913	10.1176
3.0803	10.1035
3.0694	10.0554
3.0585	9.9963
3.0477	9.9485
3.037	9.9001
3.0264	9.8479
3.0158	9.7778
3.0053	9.7309
2.9949	9.6806
2.9845	9.6045
2.9743	9.5522
2.9641	9.5217
2.9539	9.4612
2.9439	9.4026
2.9339	9.344
2.9239	9.2444
2.9141	9.0254
2.9043	9.0532
2.8946	9.0781
2.8849	9.0381
2.8753	9.0049
2.8658	8.9721
2.8563	8.9399
2.8469	8.8911
2.8375	8.8733
2.8282	8.8371
2.819	8.8037
2.8098	8.7549
2.8007	8.7239
2.7917	8.6858
2.7827	8.6465
2.7738	8.6936
2.7649	9.0683
2.7561	7.8945
2.7473	8.2295
2.7386	8.2688
2.7299	7.9468
2.7213	7.9389
2.7128	8.4248
2.7043	8.7883
2.6959	6.7715
2.6875	7.2197
2.6791	7.8198
2.6709	8.3203
2.6626	8.6826
2.6545	8.9748
2.6463	9.1723
2.6382	9.3821
2.6302	9.5996
2.6222	9.6972
2.6143	9.7805
2.6064	9.8593
2.5986	9.9006
2.5908	9.9404
2.583	10.0185
2.5753	10.0312
2.5677	10.0947
2.5601	10.2453
2.5525	10.25
2.545	10.2658
2.5375	10.3335
2.5301	10.3447
2.5227	10.4018
2.5154	10.4267
2.5081	10.4775
2.5008	10.5488
2.4936	10.5669
2.4864	10.5722
2.4793	10.7173
2.4722	10.8139
2.4651	10.8379
2.4581	10.875
2.4511	10.9101
2.4442	10.9717
2.4373	11.0844
2.4305	11.2773
2.4236	11.374
2.4169	11.4687
2.4101	11.5654
2.4034	11.5254
2.3967	11.4199
2.3901	11.2744
2.3835	11.1665
2.377	11.2881
2.3704	11.4824
2.364	11.5312
2.3575	11.4756
2.3511	11.5825
2.3447	11.727
2.3384	11.8672
2.3321	11.8408
2.3258	11.8051
2.3195	11.8252
2.3133	11.9023
2.3071	12.0205
2.301	12.1035
2.2949	12.2173
2.2888	12.3403
2.2828	12.3955
2.2767	12.5415
2.2708	12.6357
2.2648	12.6958
2.2589	12.7524
2.253	12.8012
2.2471	12.7661
2.2413	12.665
2.2355	12.7363
2.2297	12.6953
2.224	12.5122
2.2183	11.9863
2.2126	10.8242
2.207	9.9599
2.2013	10.8833
2.1957	11.1684
2.1902	11.3247
2.1846	11.4511
2.1791	11.3989
2.1736	11.4282
2.1682	11.4394
2.1628	11.4238
2.1574	11.6001
2.152	11.8867
2.1466	12.4165
2.1413	12.8691
2.136	13.1709
2.1308	13.3632
2.1255	13.4394
2.1203	13.5371
2.1151	13.5302
2.11	13.5068
2.1048	13.8007
2.0997	13.7763
2.0946	13.8545
2.0895	13.916
2.0845	13.9443
2.0795	13.9746
