Name: Muscovite KAl2(Si3Al)O10(OH,F)2
Type: Mineral
Class: Silicate
Subclass: Phyllosilicate
Particle Size: Coarse
Sample No.: muscov_2
Owner: JHU
Wavelength Range: TIR
Origin: Fremont Co., Colorado via Hunt and Salisbury Collection #146B
Description: The hand sample appeared to be pure, transparent muscovite, but microscopic analysis showed a trace (<<1%) of what appeared to be quartz.  (However, no quartz bands are apparent in the infrared spectrum.). Particle size was 75-250  Micrometers.(Sheet Silicates); (MicaGroup) Original ASTER Spectral Library name was jhu.nicolet.mineral.silicate.phyllosilicate.coarse.muscov2.spectrum.txt
Measurement: Bidirectional reflectance
X Units: Wavelength (micrometers)
Y Units: Reflectance (percent)
wavelength	value
25.0442	4.1724
24.3388	4.05
23.6719	4.0752
23.0407	3.665
22.4422	3.6382
21.8741	4.0784
21.334	4.5283
20.8199	5.0591
20.33	4.9075
19.8627	4.3083
19.4163	4.144
18.9896	4.928
18.5812	5.6909
18.19	5.7871
17.815	5.7453
17.4551	5.3154
17.1094	5.0661
16.7772	4.4182
16.4576	3.4028
16.15	2.5752
15.8537	2.0159
15.568	1.5945
15.2925	1.4458
15.0265	1.5593
14.7697	1.6455
14.5214	1.6299
14.2814	1.7466
14.0492	1.8701
13.8244	1.9185
13.6067	1.958
13.3957	1.8223
13.1912	1.6897
12.9929	1.9751
12.8004	2.2119
12.6135	2.1926
12.432	2.186
12.2557	2.4534
12.0843	2.6365
11.9176	3.1023
11.7555	3.1321
11.5977	2.7883
11.444	2.4741
11.2944	2.3193
11.1487	2.2908
11.0067	2.2932
10.8682	2.2227
10.7332	2.2078
10.6015	2.3997
10.473	2.7175
10.3476	2.8909
10.2251	3.1252
10.1056	3.3288
9.9887	3.5259
9.8746	3.7734
9.763	4.1855
9.6539	5.2573
9.5472	5.8899
9.4429	4.5481
9.3408	4.2595
9.2409	5.0632
9.1431	5.9072
9.0474	6.3432
8.9536	6.487
8.8618	6.5593
8.7718	6.6098
8.6837	6.3313
8.5973	5.2622
8.5126	4.0796
8.4295	2.7595
8.3481	1.6528
8.2682	1.2078
8.1898	1.3176
8.1129	1.6436
8.0374	2.0566
7.9634	2.4739
7.8906	2.8574
7.8192	3.2073
7.7491	3.541
7.6802	3.8721
7.6126	4.1819
7.5461	4.4761
7.4807	4.6848
7.4165	4.8674
7.3534	5.0215
7.2914	5.1426
7.2303	5.3586
7.1703	5.5932
7.1113	5.8325
7.0533	6.0117
6.9962	6.2126
6.94	6.3972
6.8847	6.5796
6.8302	6.7573
6.7767	6.9722
6.7239	7.1789
6.672	7.3728
6.6209	7.55
6.5705	7.687
6.5209	7.8391
6.4721	7.9262
6.424	7.9607
6.3766	8.0083
6.3299	8.0078
6.2838	7.9873
6.2385	7.9004
6.1937	7.7463
6.1496	7.5508
6.1062	7.3088
6.0633	7.1225
6.0211	6.9858
5.9794	6.875
5.9383	6.7712
5.8978	6.7693
5.8578	6.8244
5.8184	6.8533
5.7794	6.8398
5.741	6.7641
5.7031	6.688
5.6657	6.6247
5.6288	6.5622
5.5924	6.5249
5.5564	6.5366
5.5209	6.5661
5.4859	6.6355
5.4513	6.7788
5.4171	6.9621
5.3833	7.1511
5.35	7.3371
5.3171	7.6299
5.2846	7.997
5.2524	8.4167
5.2207	8.8381
5.1893	9.2534
5.1584	9.6828
5.1277	10.0388
5.0975	10.2851
5.0676	10.3884
5.038	10.4455
5.0088	10.4553
4.98	10.4563
4.9514	10.4717
4.9232	10.5017
4.8953	10.5974
4.8678	10.7187
4.8405	10.8039
4.8135	10.8774
4.7868	10.9655
4.7605	11.0971
4.7344	11.2551
4.7086	11.4099
4.6831	11.551
4.6578	11.7468
4.6328	11.9516
4.6081	12.1772
4.5837	12.3703
4.5595	12.5251
4.5356	12.6706
4.5119	12.8108
4.4884	12.9504
4.4652	13.1115
4.4423	13.2729
4.4196	13.4192
4.3971	13.5366
4.3748	13.6242
4.3528	13.6674
4.331	13.7011
4.3094	13.7263
4.288	13.7358
4.2668	13.7605
4.2458	13.7827
4.2251	13.7985
4.2045	13.8181
4.1841	13.809
4.164	13.8203
4.144	13.823
4.1242	13.8432
4.1046	13.8525
4.0852	13.8752
4.066	13.8816
4.047	13.896
4.0281	13.9128
4.0094	13.9257
3.9909	13.9238
3.9725	13.9282
3.9544	13.9382
3.9363	13.9546
3.9185	13.967
3.9008	13.9785
3.8833	13.9863
3.8659	13.9738
3.8487	13.9797
3.8316	13.9802
3.8147	13.9629
3.7979	13.9487
3.7813	13.9006
3.7648	13.8413
3.7485	13.76
3.7323	13.7097
3.7162	13.6726
3.7003	13.664
3.6845	13.6628
3.6689	13.6533
3.6534	13.6897
3.638	13.7138
3.6227	13.7292
3.6076	13.7502
3.5926	13.7426
3.5777	13.7336
3.563	13.6948
3.5484	13.6511
3.5338	13.6169
3.5195	13.5224
3.5052	13.395
3.491	13.3735
3.477	13.334
3.463	13.2905
3.4492	13.216
3.4355	13.1052
3.4219	12.9609
3.4084	12.8818
3.395	12.8947
3.3817	12.8388
3.3685	12.8012
3.3554	12.7849
3.3425	12.7444
3.3296	12.7009
3.3168	12.6445
3.3041	12.5984
3.2915	12.5258
3.279	12.4392
3.2666	12.3532
3.2543	12.261
3.2421	12.1919
3.23	12.0825
3.218	11.9946
3.206	11.9023
3.1942	11.8215
3.1824	11.7221
3.1707	11.6528
3.1591	11.5993
3.1476	11.5017
3.1362	11.4104
3.1249	11.3205
3.1136	11.2488
3.1024	11.1836
3.0913	11.1086
3.0803	11.0627
3.0694	11.0036
3.0585	10.937
3.0477	10.8899
3.037	10.831
3.0264	10.7859
3.0158	10.7275
3.0053	10.678
2.9949	10.6208
2.9845	10.5263
2.9743	10.4265
2.9641	10.3205
2.9539	10.1946
2.9439	10.0639
2.9339	9.927
2.9239	9.7954
2.9141	9.7058
2.9043	9.6357
2.8946	9.6206
2.8849	9.6137
2.8753	9.5779
2.8658	9.5825
2.8563	9.5254
2.8469	9.2983
2.8375	8.8227
2.8282	7.9143
2.819	6.5112
2.8098	4.8755
2.8007	3.5737
2.7917	2.595
2.7827	2.0098
2.7738	1.7419
2.7649	1.5359
2.7561	1.4883
2.7473	1.677
2.7386	2.0969
2.7299	3.1338
2.7213	5.8244
2.7128	9.2024
2.7043	10.8442
2.6959	11.4675
2.6875	11.8523
2.6791	12.165
2.6709	12.4765
2.6626	12.7942
2.6545	12.9616
2.6463	13.049
2.6382	13.0312
2.6302	13.0163
2.6222	13.0434
2.6143	13.0822
2.6064	13.1003
2.5986	13.2199
2.5908	13.3303
2.583	13.3916
2.5753	13.4648
2.5677	13.539
2.5601	13.6247
2.5525	13.6645
2.545	13.7014
2.5375	13.6445
2.5301	13.5861
2.5227	13.4572
2.5154	13.3657
2.5081	13.2741
2.5008	13.1621
2.4936	13.0822
2.4864	13.0512
2.4793	12.9604
2.4722	12.8398
2.4651	12.7099
2.4581	12.6274
2.4511	12.5385
2.4442	12.4909
2.4373	12.5468
2.4305	12.6714
2.4236	12.8215
2.4169	12.9653
2.4101	13.0673
2.4034	13.0796
2.3967	13.0688
2.3901	12.9653
2.3835	12.9345
2.377	12.9087
2.3704	12.9084
2.364	12.8564
2.3575	12.8139
2.3511	12.8049
2.3447	12.905
2.3384	13.1425
2.3321	13.4206
2.3258	13.7431
2.3195	14.0127
2.3133	14.2529
2.3071	14.4668
2.301	14.6377
2.2949	14.727
2.2888	14.7656
2.2828	14.7719
2.2767	14.7319
2.2708	14.698
2.2648	14.6352
2.2589	14.4209
2.253	14.1401
2.2471	13.8491
2.2413	13.6933
2.2355	13.6252
2.2297	13.4477
2.224	13.0771
2.2183	12.6396
2.2126	12.3369
2.207	12.292
2.2013	12.4948
2.1957	12.9399
2.1902	13.5927
2.1846	14.0998
2.1791	14.5224
2.1736	14.8508
2.1682	15.019
2.1628	15.1818
2.1574	15.2348
2.152	15.2802
2.1466	15.34
2.1413	15.4191
2.136	15.4284
2.1308	15.3955
2.1255	15.4187
2.1203	15.4777
2.1151	15.4719
2.11	15.5044
2.1048	15.6001
2.0997	15.6572
2.0946	15.7214
2.0895	15.7685
2.0845	15.8
2.0795	15.7863
