Name: Goethite alpha Fe^3+O(OH)
Type: Mineral
Class: Hydroxide
Subclass: None
Particle Size: Fine
Sample No.: OH-2A
Owner: JPL
Wavelength Range: VSWIR
Origin: USA, California, San Diego County, Julian
Description: Particle size was 0-45um.Collected by Burminco Original ASTER Spectral Library name was jpl.beckman.mineral.hydroxide.none.fine.oh02a.spectrum.txt
Measurement: Hemispherical reflectance
X Units: Wavelength (micrometers)
Y Units: Reflectance (percent)
wavelength	value
0.4	1.44
0.403	1.5
0.406	1.55
0.409	1.67
0.412	1.73
0.415	1.8
0.418	1.91
0.421	1.86
0.424	1.97
0.427	2.09
0.43	2.26
0.433	2.5
0.436	2.75
0.439	2.8
0.442	2.92
0.445	3.1
0.448	3.28
0.451	3.33
0.454	3.45
0.457	3.48
0.46	3.48
0.463	3.4
0.466	3.57
0.469	3.63
0.472	3.63
0.475	3.81
0.478	3.81
0.481	3.88
0.484	4.04
0.487	4.19
0.49	4.44
0.493	4.59
0.496	4.92
0.499	5.14
0.502	5.42
0.505	5.81
0.508	6.28
0.511	6.63
0.514	7.13
0.517	7.6
0.52	8.17
0.523	8.96
0.526	9.61
0.529	10.35
0.532	11.29
0.535	12.07
0.538	12.9
0.541	13.9
0.544	14.8
0.547	15.71
0.55	16.68
0.553	17.51
0.556	18.37
0.559	18.92
0.562	20.09
0.565	20.7
0.568	21.24
0.571	21.84
0.574	22.21
0.577	22.64
0.58	22.98
0.583	23.22
0.586	23.43
0.589	23.69
0.592	23.84
0.595	24.04
0.598	24.14
0.601	24.4
0.604	24.42
0.607	24.42
0.61	24.66
0.613	24.64
0.616	24.79
0.619	24.76
0.622	24.83
0.625	24.83
0.628	24.92
0.631	25.09
0.634	25.16
0.637	25.29
0.64	25.37
0.643	25.42
0.646	25.49
0.649	25.77
0.652	25.9
0.655	26.09
0.658	26.24
0.661	26.41
0.664	26.48
0.667	26.82
0.67	27.05
0.673	27.3
0.676	27.45
0.679	27.72
0.682	27.89
0.685	28.25
0.688	28.56
0.691	28.86
0.694	29.17
0.697	29.47
0.7	29.73
0.703	30.19
0.706	30.56
0.709	30.78
0.712	31.28
0.715	31.59
0.718	32
0.721	32.25
0.724	32.72
0.727	33.01
0.73	33.26
0.733	33.66
0.736	34.02
0.739	34.29
0.742	34.56
0.745	34.77
0.748	34.97
0.751	35.23
0.754	35.34
0.757	35.43
0.76	35.57
0.763	35.7
0.766	35.75
0.769	35.78
0.772	35.82
0.775	35.69
0.778	35.74
0.781	35.77
0.784	35.62
0.787	35.61
0.79	35.41
0.793	35.32
0.796	35.18
0.799	35.12
0.808	35.15
0.82	34.38
0.832	33.63
0.844	32.98
0.856	32.47
0.868	32.14
0.88	31.84
0.892	31.72
0.904	31.66
0.916	31.74
0.928	31.94
0.94	32.31
0.952	32.63
0.964	33.03
0.976	33.49
0.988	34.06
1	34.55
1.012	35.37
1.024	36.19
1.036	37.04
1.048	37.95
1.06	39.03
1.072	40.2
1.084	41.37
1.096	42.62
1.108	43.99
1.12	45.26
1.132	46.6
1.144	47.84
1.156	49
1.168	50.11
1.18	51.18
1.192	51.97
1.204	52.85
1.216	53.37
1.228	53.92
1.24	54.41
1.252	54.82
1.264	55.16
1.276	55.42
1.288	55.68
1.3	55.88
1.312	56
1.324	56.17
1.336	56.28
1.348	56.42
1.36	56.66
1.372	56.69
1.384	56.78
1.396	56.76
1.408	56.55
1.42	56.75
1.432	57.03
1.444	57.22
1.456	57.41
1.468	57.46
1.48	57.63
1.492	57.72
1.504	57.85
1.516	58.07
1.528	58.14
1.54	58.25
1.552	58.25
1.564	58.31
1.576	58.39
1.588	58.42
1.6	58.48
1.612	58.4
1.624	58.43
1.636	58.35
1.648	58.4
1.66	58.45
1.672	58.42
1.684	58.56
1.696	58.65
1.708	58.72
1.72	58.77
1.732	58.68
1.744	58.65
1.756	58.71
1.768	58.68
1.78	58.79
1.792	58.91
1.804	59
1.816	59.11
1.828	59.17
1.84	59.22
1.852	59.36
1.864	59.25
1.876	59.09
1.888	59.01
1.9	58.86
1.912	58.73
1.924	58.61
1.936	58.58
1.948	58.59
1.96	58.64
1.972	58.83
1.984	59.03
1.996	59.26
2.008	59.39
2.02	59.69
2.032	59.87
2.044	60.12
2.056	60.39
2.068	60.53
2.08	60.62
2.092	60.83
2.104	60.85
2.116	61.08
2.128	61.1
2.14	61
2.152	60.82
2.164	60.57
2.176	60.2
2.188	59.74
2.2	59.09
2.212	58.8
2.224	59.01
2.236	59.27
2.248	59.26
2.26	59.12
2.272	59.05
2.284	58.73
2.296	58.57
2.308	58.07
2.32	57.78
2.332	57.39
2.344	56.98
2.356	56.67
2.368	56.28
2.38	55.82
2.392	55.29
2.404	54.76
2.416	54.43
2.428	54.21
2.44	54.17
2.452	54.12
2.464	53.97
2.476	54.02
2.488	54.14
2.5	54.36
