Name: Epidote Ca2(Al,Fe+3)3(SiO4)3(OH)
Type: Mineral
Class: Silicate
Subclass: Sorosilicate
Particle Size: Fine
Sample No.: epidote_1
Owner: JHU
Wavelength Range: TIR
Origin: Donated by Bruce Hemingway;  Sample from Prince of WalesIsland, Alaska.
Description: The sample consisted of several deep green epidote crystals, 2 cm x 1 cm x 1 cm in size.  The sample looked pure in hand specimen and microscopic examination indicated pure, unaltered epidote. Sample was in Epidote Group and had particle size 0-74 Micrometers. Original ASTER Spectral Library name was jhu.nicolet.mineral.silicate.sorosilicate.fine.epidot1.spectrum.txt
Measurement: Bidirectional reflectance
X Units: Wavelength (micrometers)
Y Units: Reflectance (percent)
wavelength	value
25.0442	1.5686
24.3388	1.564
23.6719	1.5537
23.0407	1.7314
22.4422	1.5566
21.8741	1.4565
21.334	1.3193
20.8199	1.146
20.33	1.2124
19.8627	1.5969
19.4163	1.7922
18.9896	1.8015
18.5812	1.5476
18.19	1.6467
17.815	1.7444
17.4551	1.5806
17.1094	1.1272
16.7772	0.8311
16.4576	0.8601
16.15	0.8804
15.8537	1.0056
15.568	1.2087
15.2925	1.2959
15.0265	1.1704
14.7697	1.0532
14.5214	1.2148
14.2814	1.2019
14.0492	0.9922
13.8244	0.771
13.6067	1.1245
13.3957	1.4665
13.1912	1.6252
12.9929	1.6946
12.8004	1.7253
12.6135	1.6675
12.432	1.4636
12.2557	1.2844
12.0843	1.1658
11.9176	1.0759
11.7555	1.1294
11.5977	1.1062
11.444	1.2996
11.2944	1.5063
11.1487	1.3696
11.0067	1.2683
10.8682	1.0454
10.7332	1.146
10.6015	1.5525
10.473	1.9729
10.3476	2.0559
10.2251	1.8406
10.1056	1.6992
9.9887	1.124
9.8746	0.481
9.763	0.6038
9.6539	1.0234
9.5472	1.2747
9.4429	1.4338
9.3408	1.3323
9.2409	1.4136
9.1431	1.3826
9.0474	1.3098
8.9536	1.3171
8.8618	1.3769
8.7718	1.3508
8.6837	0.9175
8.5973	0.5703
8.5126	0.5017
8.4295	0.6819
8.3481	1.0154
8.2682	1.4019
8.1898	1.7651
8.1129	2.0215
8.0374	2.2292
7.9634	2.4121
7.8906	2.6164
7.8192	2.8806
7.7491	3.1838
7.6802	3.5315
7.6126	3.8306
7.5461	4.0571
7.4807	4.2624
7.4165	4.4328
7.3534	4.571
7.2914	4.7202
7.2303	4.7988
7.1703	4.7952
7.1113	4.8896
7.0533	5.1067
6.9962	5.2849
6.94	5.3342
6.8847	5.3718
6.8302	5.3452
6.7767	5.4929
6.7239	5.6152
6.672	5.6062
6.6209	5.6103
6.5705	5.6308
6.5209	5.6948
6.4721	5.751
6.424	5.9138
6.3766	6.0537
6.3299	6.0613
6.2838	6.0193
6.2385	6.0393
6.1937	6.1059
6.1496	6.0007
6.1062	5.739
6.0633	5.4673
6.0211	5.0273
5.9794	4.4204
5.9383	4.0181
5.8978	4.0879
5.8578	4.2881
5.8184	4.4045
5.7794	4.4243
5.741	4.4639
5.7031	4.5723
5.6657	4.6533
5.6288	4.7944
5.5924	5.0491
5.5564	5.4841
5.5209	5.8857
5.4859	6.2207
5.4513	6.4895
5.4171	6.6091
5.3833	6.6565
5.35	6.5539
5.3171	6.5368
5.2846	6.4341
5.2524	6.2058
5.2207	6.1013
5.1893	6.3069
5.1584	6.7002
5.1277	6.7688
5.0975	6.6284
5.0676	6.5654
5.038	6.4692
5.0088	6.3252
4.98	5.6914
4.9514	5.449
4.9232	5.5561
4.8953	5.5786
4.8678	6.2112
4.8405	6.6484
4.8135	6.8652
4.7868	7.3989
4.7605	8.1328
4.7344	8.5637
4.7086	8.6169
4.6831	8.7517
4.6578	8.8652
4.6328	8.7683
4.6081	8.7165
4.5837	9.251
4.5595	9.8452
4.5356	10.3327
4.5119	10.7116
4.4884	11.0822
4.4652	11.3169
4.4423	11.4736
4.4196	11.5991
4.3971	11.6989
4.3748	11.7837
4.3528	11.8496
4.331	11.8894
4.3094	11.9094
4.288	11.9367
4.2668	11.9653
4.2458	12.0171
4.2251	12.0813
4.2045	12.1496
4.1841	12.2075
4.164	12.2507
4.144	12.2693
4.1242	12.3117
4.1046	12.3147
4.0852	12.3266
4.066	12.3222
4.047	12.3017
4.0281	12.2458
4.0094	12.1391
3.9909	11.915
3.9725	11.9411
3.9544	12.0881
3.9363	12.2321
3.9185	12.3315
3.9008	12.3889
3.8833	12.4001
3.8659	12.3967
3.8487	12.3767
3.8316	12.3745
3.8147	12.3613
3.7979	12.3552
3.7813	12.3515
3.7648	12.3488
3.7485	12.2978
3.7323	12.2439
3.7162	12.157
3.7003	12.0798
3.6845	12.0349
3.6689	11.9912
3.6534	12.0068
3.638	12.0263
3.6227	11.9851
3.6076	11.9179
3.5926	11.8308
3.5777	11.7251
3.563	11.6186
3.5484	11.4807
3.5338	11.2629
3.5195	10.6196
3.5052	8.8362
3.491	10.2348
3.477	10.2348
3.463	10.0188
3.4492	9.5959
3.4355	8.6264
3.4219	7.6369
3.4084	8.8432
3.395	9.4946
3.3817	9.3923
3.3685	9.6792
3.3554	9.8381
3.3425	9.7915
3.3296	9.6684
3.3168	9.5276
3.3041	9.384
3.2915	9.1657
3.279	8.8249
3.2666	8.499
3.2543	8.2947
3.2421	8.177
3.23	8.0078
3.218	7.7595
3.206	7.4607
3.1942	7.093
3.1824	6.6848
3.1707	6.3572
3.1591	6.1352
3.1476	5.9516
3.1362	5.698
3.1249	5.3005
3.1136	4.7839
3.1024	4.2966
3.0913	3.9009
3.0803	3.6057
3.0694	3.3967
3.0585	3.258
3.0477	3.1208
3.037	2.9839
3.0264	2.8335
3.0158	2.6555
3.0053	2.406
2.9949	2.0056
2.9845	1.6709
2.9743	1.4499
2.9641	1.2969
2.9539	1.2656
2.9439	1.4138
2.9339	1.7393
2.9239	2.1997
2.9141	2.7202
2.9043	3.0488
2.8946	3.1719
2.8849	3.2966
2.8753	3.4573
2.8658	3.761
2.8563	4.1741
2.8469	4.6816
2.8375	5.3132
2.8282	6.073
2.819	6.5879
2.8098	7.2915
2.8007	7.5405
2.7917	8.041
2.7827	8.2898
2.7738	8.6921
2.7649	9.2163
2.7561	9.7641
2.7473	10.2673
2.7386	10.5542
2.7299	10.9526
2.7213	11.1528
2.7128	11.6203
2.7043	11.748
2.6959	12.5012
2.6875	12.8391
2.6791	12.9939
2.6709	13.2107
2.6626	13.5302
2.6545	13.7136
2.6463	13.7697
2.6382	13.8379
2.6302	13.8586
2.6222	13.9597
2.6143	13.9902
2.6064	14.0351
2.5986	14.165
2.5908	14.2314
2.583	14.2788
2.5753	14.3032
2.5677	14.2741
2.5601	14.2876
2.5525	14.2854
2.545	14.2812
2.5375	14.3281
2.5301	14.3742
2.5227	14.3774
2.5154	14.4118
2.5081	14.4775
2.5008	14.5722
2.4936	14.6613
2.4864	14.7529
2.4793	14.8396
2.4722	14.9438
2.4651	14.945
2.4581	14.9951
2.4511	15.0434
2.4442	15.0546
2.4373	15.1015
2.4305	15.1445
2.4236	15.1108
2.4169	15.1399
2.4101	15.0781
2.4034	15.0307
2.3967	14.9109
2.3901	14.7407
2.3835	14.5346
2.377	14.2409
2.3704	13.8081
2.364	13.1294
2.3575	12.0498
2.3511	10.727
2.3447	9.6059
2.3384	9.1255
2.3321	9.3481
2.3258	10.0405
2.3195	10.8271
2.3133	11.4565
2.3071	12.291
2.301	12.9792
2.2949	13.4536
2.2888	13.7605
2.2828	14.0161
2.2767	14.2192
2.2708	14.2378
2.2648	14.0522
2.2589	13.7646
2.253	13.4345
2.2471	13.8559
2.2413	14.5053
2.2355	15.081
2.2297	15.3588
2.224	15.5449
2.2183	15.706
2.2126	15.7714
2.207	15.8491
2.2013	15.8899
2.1957	15.9665
2.1902	15.9941
2.1846	16.0617
2.1791	16.0744
2.1736	16.1362
2.1682	16.1538
2.1628	16.2116
2.1574	16.206
2.152	16.1823
2.1466	16.2524
2.1413	16.2661
2.136	16.3147
2.1308	16.3237
2.1255	16.3376
2.1203	16.3086
2.1151	16.2876
2.11	16.3418
2.1048	16.3789
2.0997	16.4328
2.0946	16.413
2.0895	16.4328
2.0845	16.4619
2.0795	16.4443
