Name: Rutile TiO_2
Type: Mineral
Class: Oxide
Subclass: None
Particle Size: Coarse
Sample No.: O-2A
Owner: JPL
Wavelength Range: VSWIR
Description: Particle size was 125-500um.Collected by JPL Original ASTER Spectral Library name was jpl.beckman.mineral.oxide.none.coarse.o02a.spectrum.txt
Measurement: Hemispherical reflectance
X Units: Wavelength (micrometers)
Y Units: Reflectance (percent)
wavelength	value
0.4	9.78
0.403	9.74
0.406	9.59
0.409	9.63
0.412	9.57
0.415	9.48
0.418	9.39
0.421	9.33
0.424	9.32
0.427	9.27
0.43	9.21
0.433	9.15
0.436	9.16
0.439	9.12
0.442	9.13
0.445	9.12
0.448	9.14
0.451	8.93
0.454	9.02
0.457	9.09
0.46	8.94
0.463	8.91
0.466	8.85
0.469	8.82
0.472	8.78
0.475	8.87
0.478	8.85
0.481	8.94
0.484	8.89
0.487	8.73
0.49	8.68
0.493	8.63
0.496	8.52
0.499	8.55
0.502	8.65
0.505	8.63
0.508	8.6
0.511	8.67
0.514	8.6
0.517	8.57
0.52	8.6
0.523	8.61
0.526	8.51
0.529	8.59
0.532	8.6
0.535	8.57
0.538	8.59
0.541	8.71
0.544	8.61
0.547	8.67
0.55	8.68
0.553	8.66
0.556	8.74
0.559	8.74
0.562	8.89
0.565	8.8
0.568	8.73
0.571	8.93
0.574	8.84
0.577	8.8
0.58	8.8
0.583	8.91
0.586	8.93
0.589	8.92
0.592	8.95
0.595	8.87
0.598	9
0.601	9.11
0.604	9.11
0.607	9.03
0.61	9.23
0.613	9.2
0.616	9.24
0.619	9.16
0.622	9.23
0.625	9.32
0.628	9.37
0.631	9.39
0.634	9.35
0.637	9.56
0.64	9.55
0.643	9.56
0.646	9.57
0.649	9.71
0.652	9.78
0.655	9.73
0.658	9.8
0.661	9.88
0.664	9.91
0.667	9.89
0.67	9.98
0.673	10.02
0.676	10.14
0.679	10.17
0.682	10.21
0.685	10.19
0.688	10.41
0.691	10.46
0.694	10.4
0.697	10.42
0.7	10.52
0.703	10.54
0.706	10.67
0.709	10.74
0.712	10.75
0.715	10.83
0.718	10.93
0.721	11
0.724	11.06
0.727	11.06
0.73	11.03
0.733	11.15
0.736	11.24
0.739	11.39
0.742	11.36
0.745	11.48
0.748	11.53
0.751	11.56
0.754	11.62
0.757	11.64
0.76	11.79
0.763	11.83
0.766	11.9
0.769	11.96
0.772	12.03
0.775	12.13
0.778	12.26
0.781	12.26
0.784	12.39
0.787	12.49
0.79	12.55
0.793	12.5
0.796	12.7
0.799	12.8
0.808	13.18
0.82	13.42
0.832	13.63
0.844	13.91
0.856	14.08
0.868	14.44
0.88	14.7
0.892	14.89
0.904	15.07
0.916	15.42
0.928	15.6
0.94	15.73
0.952	15.92
0.964	16.12
0.976	16.2
0.988	16.2
1	16.33
1.012	16.49
1.024	16.4
1.036	16.33
1.048	16.49
1.06	16.47
1.072	16.37
1.084	16.43
1.096	16.44
1.108	16.36
1.12	16.25
1.132	16.26
1.144	16.1
1.156	16.17
1.168	16.13
1.18	16.05
1.192	16.03
1.204	16.08
1.216	15.93
1.228	15.88
1.24	15.93
1.252	15.97
1.264	15.91
1.276	15.91
1.288	15.87
1.3	15.94
1.312	16.02
1.324	16.05
1.336	16.07
1.348	16.03
1.36	16.03
1.372	16.19
1.384	16.1
1.396	16.01
1.408	16.18
1.42	16.24
1.432	16.19
1.444	16.25
1.456	16.41
1.468	16.41
1.48	16.3
1.492	16.44
1.504	16.51
1.516	16.48
1.528	16.42
1.54	16.52
1.552	16.61
1.564	16.66
1.576	16.56
1.588	16.7
1.6	16.81
1.612	16.81
1.624	16.72
1.636	16.85
1.648	16.95
1.66	16.94
1.672	17.05
1.684	17.19
1.696	17.15
1.708	17.22
1.72	17.37
1.732	17.34
1.744	17.42
1.756	17.58
1.768	17.55
1.78	17.65
1.792	17.81
1.804	17.77
1.816	17.93
1.828	18.01
1.84	18.01
1.852	18.19
1.864	18.22
1.876	18.21
1.888	18.37
1.9	18.29
1.912	18.42
1.924	18.54
1.936	18.53
1.948	18.64
1.96	18.84
1.972	18.88
1.984	18.93
1.996	19.13
2.008	19.17
2.02	19.31
2.032	19.44
2.044	19.37
2.056	19.56
2.068	19.65
2.08	19.64
2.092	19.84
2.104	19.88
2.116	19.96
2.128	20.11
2.14	20.08
2.152	20.15
2.164	20.23
2.176	20.16
2.188	20.3
2.2	20.37
2.212	20.32
2.224	20.42
2.236	20.51
2.248	20.45
2.26	20.53
2.272	20.53
2.284	20.28
2.296	20.16
2.308	20.29
2.32	20.63
2.332	21.02
2.344	21.18
2.356	21.15
2.368	21.29
2.38	21.29
2.392	21.48
2.404	21.44
2.416	21.47
2.428	21.63
2.44	21.62
2.452	21.53
2.464	21.61
2.476	21.76
2.488	21.91
2.5	22.09
