Name: Hematite a-Fe2O3
Type: Mineral
Class: Oxide
Subclass: None
Particle Size: Fine
Sample No.: hematite_1
Owner: JHU
Wavelength Range: TIR
Origin: Frizington, Cumberland, England via the Smithsonian (sampleno. NMNH B7373)
Description: The sample was a 2.5 cm x 2.5 cm x 1 cm sawn plate, deep red in color and weighing 15.3 g.  It appears clean with no impurities in hand sample or microscopically. Particle size was less than 2 micrometers.(Hematite Group) Original ASTER Spectral Library name was jhu.nicolet.mineral.oxide.none.powder.hemati1.spectrum.txt
Measurement: Transmission
X Units: Wavelength (micrometers)
Y Units: Transmittance (percent)
wavelength	value
25.0442	46.9764
24.3388	58.6034
23.6719	53.6893
23.0407	37.497
22.4422	20.1035
21.8741	11.082
21.334	8.8838
20.8199	14.0019
20.33	28.6249
19.8627	36.5609
19.4163	24.3442
18.9896	10.5703
18.5812	6.3486
18.19	6.1514
17.815	7.7744
17.4551	10.8027
17.1094	14.5981
16.7772	18.5332
16.4576	22.1318
16.15	24.3847
15.8537	25.0893
15.568	30.3222
15.2925	46.9042
15.0265	59.6952
14.7697	66.265
14.5214	70.1468
14.2814	73.0081
14.0492	76.1302
13.8244	79.1023
13.6067	81.9822
13.3957	84.2928
13.1912	85.7432
12.9929	86.6973
12.8004	86.8311
12.6135	86.8318
12.432	86.6492
12.2557	86.8438
12.0843	87.1331
11.9176	87.1741
11.7555	86.7488
11.5977	86.3245
11.444	86.0137
11.2944	85.7713
11.1487	85.3282
11.0067	84.6814
10.8682	84.6563
10.7332	84.6624
10.6015	84.8811
10.473	85.2139
10.3476	85.2373
10.2251	85.2774
10.1056	85.2151
9.9887	84.9571
9.8746	84.9173
9.763	84.5603
9.6539	84.0235
9.5472	84.1082
9.4429	84.3203
9.3408	84.5584
9.2409	84.6223
9.1431	84.6426
9.0474	84.8338
8.9536	85.5965
8.8618	86.1184
8.7718	86.3411
8.6837	86.605
8.5973	86.8521
8.5126	87.0379
8.4295	87.2766
8.3481	87.3992
8.2682	87.4241
8.1898	87.4878
8.1129	87.3509
8.0374	87.1306
7.9634	86.4329
7.8906	85.7195
7.8192	86.4719
7.7491	86.3479
7.6802	86.0271
7.6126	85.7671
7.5461	85.5674
7.4807	85.315
7.4165	85.0012
7.3534	84.7442
7.2914	84.4239
7.2303	83.9002
7.1703	83.5203
7.1113	83.1985
7.0533	83.1643
6.9962	83.1961
6.94	83.0628
6.8847	82.8943
6.8302	82.5721
6.7767	82.3431
6.7239	82.1219
6.672	81.6824
6.6209	81.3343
6.5705	80.8943
6.5209	80.7356
6.4721	80.441
6.424	80.0999
6.3766	79.9851
6.3299	79.7708
6.2838	79.4627
6.2385	78.9383
6.1937	77.9817
6.1496	76.9246
6.1062	76.8133
6.0633	76.9593
6.0211	77.4446
5.9794	77.9651
5.9383	77.8675
5.8978	78.0218
5.8578	78.0838
5.8184	77.8123
5.7794	77.8641
5.741	77.7093
5.7031	77.511
5.6657	77.3055
5.6288	77.1038
5.5924	76.8865
5.5564	76.6326
5.5209	76.3658
5.4859	76.1561
5.4513	75.9417
5.4171	75.6663
5.3833	75.4319
5.35	75.1326
5.3171	74.9178
5.2846	74.6707
5.2524	74.4773
5.2207	74.1751
5.1893	73.9417
5.1584	73.7454
5.1277	73.473
5.0975	73.2044
5.0676	73.0003
5.038	72.7606
5.0088	72.491
4.98	72.2357
4.9514	71.9788
4.9232	71.7173
4.8953	71.4778
4.8678	71.2349
4.8405	70.9915
4.8135	70.7388
4.7868	70.5259
4.7605	70.2657
4.7344	70.004
4.7086	69.7405
4.6831	69.5731
4.6578	69.3543
4.6328	69.1029
4.6081	68.92
4.5837	68.6361
4.5595	68.4346
4.5356	68.213
4.5119	67.9564
4.4884	67.7518
4.4652	67.5093
4.4423	67.3236
4.4196	67.0792
4.3971	66.8226
4.3748	66.6104
4.3528	66.3758
4.331	66.1097
4.3094	65.9232
4.288	65.7015
4.2668	65.4046
4.2458	65.1807
4.2251	64.9329
4.2045	64.702
4.1841	64.4845
4.164	64.2862
4.144	64.0262
4.1242	63.7992
4.1046	63.5794
4.0852	63.3211
4.066	63.0684
4.047	62.8238
4.0281	62.5863
4.0094	62.2987
3.9909	62.0494
3.9725	61.7982
3.9544	61.63
3.9363	61.4227
3.9185	61.1854
3.9008	60.9227
3.8833	60.6798
3.8659	60.412
3.8487	60.1834
3.8316	59.9259
3.8147	59.679
3.7979	59.4386
3.7813	59.2191
3.7648	59.0135
3.7485	58.7618
3.7323	58.5394
3.7162	58.264
3.7003	57.9837
3.6845	57.7132
3.6689	57.4979
3.6534	57.2391
3.638	57.045
3.6227	56.7357
3.6076	56.3993
3.5926	56.2792
3.5777	56.0284
3.563	55.7127
3.5484	55.4525
3.5338	55.1717
3.5195	54.8605
3.5052	54.6366
3.491	54.3021
3.477	54.162
3.463	53.9129
3.4492	53.6659
3.4355	53.4012
3.4219	53.0624
3.4084	52.7921
3.395	52.7032
3.3817	52.3563
3.3685	52.1424
3.3554	52.0607
3.3425	51.9003
3.3296	51.5673
3.3168	51.3641
3.3041	51.1117
3.2915	50.826
3.279	50.6278
3.2666	50.329
3.2543	50.0411
3.2421	49.703
3.23	49.4169
3.218	49.1954
3.206	48.9093
3.1942	48.6176
3.1824	48.2733
3.1707	48.0614
3.1591	47.7677
3.1476	47.4982
3.1362	47.1573
3.1249	46.8622
3.1136	46.516
3.1024	46.2474
3.0913	45.955
3.0803	45.6288
3.0694	45.3539
3.0585	45.0316
3.0477	44.6815
3.037	44.4555
3.0264	44.0785
3.0158	43.6903
3.0053	43.3168
2.9949	42.9315
2.9845	42.4345
2.9743	41.9564
2.9641	41.4506
2.9539	40.9931
2.9439	40.6522
2.9339	40.4696
2.9239	40.0941
2.9141	40.0155
2.9043	39.9809
2.8946	39.9516
2.8849	40.0028
2.8753	40.0336
2.8658	39.9374
2.8563	40.0062
2.8469	40.143
2.8375	40.3739
2.8282	40.5199
2.819	40.7758
2.8098	40.9242
2.8007	40.9789
2.7917	41.0419
2.7827	41.1063
2.7738	41.1864
2.7649	41.2733
2.7561	41.4442
2.7473	41.3778
2.7386	41.266
2.7299	41.2016
2.7213	40.8812
2.7128	40.7016
2.7043	40.725
2.6959	40.5419
2.6875	40.4052
2.6791	40.1586
2.6709	39.9227
2.6626	39.8046
2.6545	39.6483
2.6463	39.496
2.6382	39.2343
2.6302	38.9008
2.6222	38.7929
2.6143	38.5937
2.6064	38.4555
2.5986	38.2733
2.5908	38.1786
2.583	37.9081
2.5753	37.727
2.5677	37.4999
2.5601	37.2777
2.5525	37.2948
2.545	36.932
2.5375	36.7675
2.5301	36.6249
2.5227	36.4394
2.5154	36.2948
2.5081	36.12
2.5008	36.0233
2.4936	35.7519
2.4864	35.6581
2.4793	35.3368
2.4722	35.1737
2.4651	35.0888
2.4581	34.9169
2.4511	34.6357
2.4442	34.5458
2.4373	34.5243
2.4305	34.3271
2.4236	34.0321
2.4169	33.9501
2.4101	33.7411
2.4034	33.6376
2.3967	33.536
2.3901	33.3485
2.3835	33.123
2.377	33.0741
2.3704	32.9179
2.364	32.6816
2.3575	32.6405
2.3511	32.371
2.3447	32.2226
2.3384	32.122
2.3321	31.9941
2.3258	31.9179
2.3195	31.6728
2.3133	31.5038
2.3071	31.5282
2.301	31.4296
2.2949	31.2812
2.2888	31.1737
2.2828	30.9843
2.2767	30.6913
2.2708	30.578
2.2648	30.6972
2.2589	30.3515
2.253	30.3798
2.2471	30.4814
2.2413	30.2089
2.2355	29.8564
2.2297	29.9316
2.224	29.9706
2.2183	29.5282
2.2126	29.3749
2.207	29.5702
2.2013	29.2109
2.1957	29.2265
2.1902	29.165
2.1846	28.9667
2.1791	28.8417
2.1736	28.7695
2.1682	28.6611
2.1628	28.6962
2.1574	28.414
2.152	28.497
2.1466	28.3837
2.1413	28.4257
2.136	27.8749
2.1308	28.1523
2.1255	28.0038
2.1203	27.6249
2.1151	27.7577
2.11	27.4999
2.1048	27.6025
2.0997	27.6738
2.0946	27.2011
2.0895	27.1894
2.0845	27.1601
2.0795	26.998
