Name: Ulexite NaCaB_5O_6(OH)_6.5H_2O
Type: Mineral
Class: Borate
Subclass: None
Particle Size: Medium
Sample No.: B-3A
Owner: JPL
Wavelength Range: TIR
Origin: USA, California, Kern County, Boron
Description: Particle size was 45-125um.Collected by JPL Original ASTER Spectral Library name was jpl.nicolet.mineral.borate.none.medium.b03a.spectrum.txt
Measurement: Hemispherical reflectance
X Units: Wavelength (micrometers)
Y Units: Reflectance (percent)
wavelength	value
15.3853	3.468
15.1161	2.2903
14.8563	2.5998
14.6052	2.7053
14.3624	2.9977
14.1276	3.1935
13.9004	2.9438
13.6803	2.2364
13.4671	2.5979
13.2604	2.109
13.06	1.7883
12.8656	2.2147
12.6769	2.3895
12.4936	2.8126
12.3155	3.4909
12.1425	4.0603
11.9742	4.1363
11.8106	4.8954
11.6513	6.9594
11.4963	5.946
11.3454	3.5324
11.1983	1.7718
11.0551	2.0541
10.9154	2.5473
10.7793	2.6648
10.6465	2.9085
10.5169	3.6446
10.3904	3.9758
10.267	5.0654
10.1464	5.0626
10.0287	5.9209
9.9136	5.9428
9.8012	4.0045
9.6913	3.0704
9.5838	4.2603
9.4787	5.3168
9.3758	5.6787
9.2752	5.282
9.1767	4.5061
9.0803	4.5082
8.9858	4.149
8.8934	3.2546
8.8028	2.3891
8.714	1.6517
8.627	1.3069
8.5417	1.0435
8.4581	1.4463
8.3761	1.7569
8.2957	1.8515
8.2169	2.218
8.1395	1.2517
8.0635	0.895
7.989	0.822
7.9158	0.8693
7.8439	1.2964
7.7734	1.4606
7.7041	1.7921
7.636	2.6296
7.5691	3.5535
7.5034	3.0982
7.4388	2.2647
7.3753	2.3916
7.3129	2.0108
7.2515	1.3947
7.1912	2.0259
7.1318	2.0403
7.0734	2.4868
7.016	2.9617
6.9595	2.6588
6.9039	0.994
6.8492	0.5732
6.7953	0.5138
6.7423	0.464
6.6901	0.3137
6.6387	0.4604
6.5881	0.4526
6.5382	0.5773
6.4892	0.5705
6.4408	0.5661
6.3931	0.6471
6.3462	0.5727
6.2999	0.7812
6.2543	0.7986
6.2094	0.7942
6.1651	0.7442
6.1214	0.7112
6.0784	0.71
6.0359	0.7095
5.994	0.7536
5.9527	0.6081
5.912	0.7707
5.8718	0.6561
5.8322	0.6722
5.7931	0.9997
5.7545	0.9072
5.7165	1.0801
5.6789	1.1565
5.6418	1.2186
5.6052	1.3072
5.5691	1.2853
5.5334	1.305
5.4982	1.3676
5.4635	1.3564
5.4291	1.3455
5.3952	1.3967
5.3618	1.3945
5.3287	1.4451
5.2961	1.378
5.2638	1.4148
5.2319	1.4296
5.2004	1.5116
5.1693	1.56
5.1386	1.5653
5.1082	1.5505
5.0782	1.5983
5.0485	1.6175
5.0192	1.5785
4.9902	1.5349
4.9616	1.4914
4.9332	1.4889
4.9052	1.4567
4.8776	1.5509
4.8502	1.6118
4.8231	1.3732
4.7963	1.4901
4.7699	1.3597
4.7437	1.411
4.7178	1.4537
4.6922	1.4848
4.6668	1.3544
4.6418	1.4205
4.617	1.4105
4.5924	1.4408
4.5681	1.4138
4.5441	1.3295
4.5203	1.3109
4.4968	1.4383
4.4735	1.4798
4.4505	1.3768
4.4277	1.584
4.4051	1.391
4.3828	1.4814
4.3607	1.5294
4.3388	1.4378
4.3171	1.4863
4.2956	1.5535
4.2744	1.6601
4.2534	1.5398
4.2325	1.4557
4.2119	1.3848
4.1915	1.4729
4.1712	1.3201
4.1512	1.4331
4.1313	1.4869
4.1117	1.6164
4.0922	1.5271
4.0729	1.6232
4.0538	1.6977
4.0349	1.4868
4.0161	1.5258
3.9976	1.4671
3.9792	1.5159
3.9609	1.4465
3.9428	1.6194
3.9249	1.5914
3.9072	1.553
3.8896	1.6696
3.8722	1.5788
3.8549	1.7034
3.8378	1.72
3.8208	1.6806
3.804	1.6005
3.7873	1.6561
3.7708	1.6895
3.7544	1.7894
3.7382	1.7187
3.7221	1.7999
3.7061	1.6928
3.6903	1.7439
3.6746	1.7594
3.659	1.7094
3.6436	1.6816
3.6283	1.7153
3.6131	1.6765
3.5981	1.7545
3.5832	1.6847
3.5684	1.6837
3.5537	1.6899
3.5391	1.5579
3.5247	1.6023
3.5104	1.5306
3.4962	1.5364
3.4821	1.5456
3.4681	1.4814
3.4543	1.4492
3.4405	1.6315
3.4269	1.5606
3.4133	1.4148
3.3999	1.4091
3.3866	1.6164
3.3733	1.6232
3.3602	1.6639
3.3472	1.5968
3.3343	1.6604
3.3215	1.7178
3.3088	1.671
3.2961	1.6556
3.2836	1.7094
3.2712	1.7643
3.2588	1.7747
3.2466	1.7848
3.2345	1.9539
3.2224	1.947
3.2104	1.9411
3.1985	1.872
3.1867	1.7263
3.175	1.7678
3.1634	1.523
3.1519	1.7026
3.1404	1.6645
3.129	1.7048
3.1178	1.6495
3.1065	1.5967
3.0954	1.5765
3.0844	1.609
3.0734	1.5548
3.0625	1.5069
3.0517	1.4717
3.041	1.5507
3.0303	1.4541
3.0197	1.4122
3.0092	1.3253
2.9987	1.3519
2.9884	1.4237
2.9781	1.5515
2.9678	1.311
2.9577	1.3958
2.9476	1.2219
2.9376	1.4814
2.9276	1.5052
2.9177	1.3663
2.9079	1.236
2.8982	1.0519
2.8885	1.0738
2.8789	0.8948
2.8693	1.0245
2.8598	0.9191
2.8504	1.0426
2.841	0.8324
2.8317	0.9134
2.8224	0.6271
2.8133	0.7437
2.8041	0.9478
2.7951	0.909
2.786	1.2
2.7771	1.2831
2.7682	0.2789
2.7594	0.9109
2.7506	0.8241
2.7418	0.8174
2.7332	0.8057
2.7246	1.2977
2.716	1.4984
2.7075	1.8543
2.699	2.4859
2.6906	3.0627
2.6823	3.96
2.674	4.5646
2.6657	5.282
2.6575	5.9196
2.6494	6.4246
2.6413	6.9649
2.6332	7.7259
2.6252	8.2654
2.6173	8.9697
2.6094	8.955
2.6015	9.1811
2.5937	9.2806
2.5859	9.2635
2.5782	9.6058
2.5706	9.7277
2.5629	9.8449
2.5554	9.3871
2.5478	9.0839
2.5403	9.0219
2.5329	8.7565
2.5255	8.5508
2.5181	8.5976
2.5108	8.1671
2.5035	8.1903
2.4963	7.8359
2.4891	7.8262
2.482	7.5604
2.4749	7.7252
2.4678	7.8624
2.4608	8.1729
2.4538	8.9057
2.4468	9.4945
2.4399	10.3671
2.4331	10.8003
2.4262	11.3982
2.4194	11.7958
2.4127	12.35
2.4059	12.9602
2.3993	13.6422
2.3926	14.4282
2.386	15.3605
2.3795	16.2937
2.3729	17.0878
2.3664	18.0523
2.36	18.8098
2.3535	19.7829
2.3471	20.5203
2.3408	21.0952
2.3345	21.5476
2.3282	21.8724
2.3219	21.9119
2.3157	22.2055
2.3095	22.9856
2.3034	23.1991
2.2972	23.3821
2.2911	23.6331
2.2851	23.3585
2.279	23.1896
2.2731	23.0454
2.2671	22.3762
2.2612	21.6098
2.2553	20.5975
2.2494	19.4507
2.2435	19.1011
2.2377	18.8673
2.232	19.129
2.2262	19.0873
2.2205	18.9495
2.2148	18.0528
2.2091	17.6266
2.2035	16.7875
2.1979	16.2694
2.1923	15.2105
2.1868	14.1642
2.1812	13.37
2.1758	12.5668
2.1703	12.8785
2.1649	12.8332
2.1595	13.1607
2.1541	13.8132
2.1487	14.3616
2.1434	14.7793
2.1381	14.6217
2.1328	14.0256
2.1275	13.3285
2.1223	13.1426
2.1171	13.6267
2.112	14.2346
2.1068	14.8808
2.1017	15.227
2.0966	15.9636
2.0915	16.1979
2.0865	16.5718
2.0814	16.8123
2.0764	17.1114
2.0715	16.7856
2.0665	17.2643
2.0616	17.645
2.0567	17.5146
2.0518	17.6189
2.0469	17.5278
2.0421	17.8653
2.0373	17.14
2.0325	17.5095
2.0277	17.5836
2.0229	17.4429
2.0182	17.2684
2.0135	16.8545
2.0088	16.3452
2.0042	15.8376
