Name: Pyrope Mg3Al2(SiO4)3
Type: Mineral
Class: Silicate
Subclass: Nesosilicate
Particle Size: Coarse
Sample No.: pyrope_1
Owner: JHU
Wavelength Range: TIR
Origin: Finsch Mine, Brits Farm, 23 miles E. of Posemasburg, CapeProv., South Africa, via the Smithsonian (sample no. NMNH 121624)
Description: The sample consisted of many rounded (tumbled?) pieces about 3 mm in diameter, with a total weight of 19.3 g.  Dark maroon in color, some pieces contained a green mineral (chlorite, uvarovite), limonitic alteration, and a soft, thin, cream-colored coating (talc).  These pieces (<1% of total sample) were discarded.  The remaining sample appears pure under the microscope. Particle size was 75 - 250  Micrometers. (Isolated tetrahedra); Garnet Group Original ASTER Spectral Library name was jhu.nicolet.mineral.silicate.nesosilicate.coarse.pyrope1.spectrum.txt
Measurement: Bidirectional reflectance
X Units: Wavelength (micrometers)
Y Units: Reflectance (percent)
wavelength	value
25.0442	2.9602
24.3388	3.1943
23.6719	3.4575
23.0407	4.5666
22.4422	6.7075
21.8741	8.4812
21.334	6.7829
20.8199	8.8708
20.33	9.3869
19.8627	9.0766
19.4163	7.6372
18.9896	5.4827
18.5812	5.9087
18.19	2.6897
17.815	1.9631
17.4551	4.9197
17.1094	6.5471
16.7772	6.0666
16.4576	4.5244
16.15	2.0693
15.8537	0.5535
15.568	0.4739
15.2925	0.6692
15.0265	0.8237
14.7697	1.0557
14.5214	1.1982
14.2814	1.3047
14.0492	1.4319
13.8244	1.5215
13.6067	1.6255
13.3957	1.696
13.1912	1.7878
12.9929	1.9287
12.8004	2.0471
12.6135	2.2275
12.432	2.4123
12.2557	2.563
12.0843	2.9219
11.9176	3.428
11.7555	4.1748
11.5977	5.2507
11.444	5.6853
11.2944	4.8396
11.1487	6.3035
11.0067	6.6448
10.8682	5.582
10.7332	3.1086
10.6015	1.9582
10.473	3.5725
10.3476	7.1848
10.2251	9.3694
10.1056	10.1545
9.9887	10.4992
9.8746	10.414
9.763	9.9126
9.6539	9.1733
9.5472	7.9155
9.4429	6.4895
9.3408	4.9678
9.2409	3.3931
9.1431	1.9663
9.0474	0.7607
8.9536	0.125
8.8618	0.0955
8.7718	0.1907
8.6837	0.2639
8.5973	0.3479
8.5126	0.4294
8.4295	0.4871
8.3481	0.5586
8.2682	0.6318
8.1898	0.7151
8.1129	0.804
8.0374	0.8721
7.9634	0.967
7.8906	1.0586
7.8192	1.1746
7.7491	1.2695
7.6802	1.3525
7.6126	1.4128
7.5461	1.4321
7.4807	1.4482
7.4165	1.4656
7.3534	1.4873
7.2914	1.4963
7.2303	1.5322
7.1703	1.6138
7.1113	1.7529
7.0533	1.8967
6.9962	2.0527
6.94	2.1418
6.8847	2.1699
6.8302	2.158
6.7767	2.167
6.7239	2.197
6.672	2.2881
6.6209	2.4458
6.5705	2.6435
6.5209	2.8901
6.4721	3.0752
6.424	3.2261
6.3766	3.4646
6.3299	3.7583
6.2838	4.0627
6.2385	4.3093
6.1937	4.4338
6.1496	4.4766
6.1062	4.4189
6.0633	4.3948
6.0211	4.321
5.9794	4.133
5.9383	3.7461
5.8978	3.2839
5.8578	2.7795
5.8184	2.3274
5.7794	2.0547
5.741	1.8325
5.7031	1.7046
5.6657	1.6487
5.6288	1.6348
5.5924	1.6619
5.5564	1.6956
5.5209	1.7375
5.4859	1.8215
5.4513	1.9492
5.4171	2.0786
5.3833	2.2205
5.35	2.331
5.3171	2.4004
5.2846	2.4736
5.2524	2.5527
5.2207	2.6521
5.1893	2.8376
5.1584	3.0583
5.1277	3.3398
5.0975	3.6719
5.0676	4.1047
5.038	4.625
5.0088	5.1274
4.98	5.4678
4.9514	5.7156
4.9232	5.9419
4.8953	6.1279
4.8678	6.2859
4.8405	6.3738
4.8135	6.4502
4.7868	6.5559
4.7605	6.6982
4.7344	6.8276
4.7086	6.9223
4.6831	7.0083
4.6578	7.0832
4.6328	7.1553
4.6081	7.2319
4.5837	7.2783
4.5595	7.3371
4.5356	7.3742
4.5119	7.4314
4.4884	7.4919
4.4652	7.5454
4.4423	7.5871
4.4196	7.6599
4.3971	7.7258
4.3748	7.7788
4.3528	7.8235
4.331	7.865
4.3094	7.9248
4.288	7.9707
4.2668	8.019
4.2458	8.0622
4.2251	8.1179
4.2045	8.1809
4.1841	8.2319
4.164	8.291
4.144	8.3315
4.1242	8.3862
4.1046	8.4309
4.0852	8.4939
4.066	8.5495
4.047	8.6169
4.0281	8.6723
4.0094	8.7019
3.9909	8.7331
3.9725	8.7737
3.9544	8.7854
3.9363	8.8069
3.9185	8.8301
3.9008	8.8159
3.8833	8.7998
3.8659	8.7788
3.8487	8.76
3.8316	8.7654
3.8147	8.7824
3.7979	8.7932
3.7813	8.8362
3.7648	8.8762
3.7485	8.9214
3.7323	8.978
3.7162	9.0344
3.7003	9.0752
3.6845	9.1274
3.6689	9.1787
3.6534	9.2226
3.638	9.2793
3.6227	9.3076
3.6076	9.3515
3.5926	9.3786
3.5777	9.4419
3.563	9.4763
3.5484	9.5136
3.5338	9.5427
3.5195	9.5852
3.5052	9.5976
3.491	9.6594
3.477	9.6997
3.463	9.7448
3.4492	9.7583
3.4355	9.7851
3.4219	9.7629
3.4084	9.7778
3.395	9.8186
3.3817	9.8491
3.3685	9.8633
3.3554	9.8835
3.3425	9.9289
3.3296	9.946
3.3168	9.9524
3.3041	9.9612
3.2915	9.9895
3.279	9.9699
3.2666	9.9726
3.2543	9.9885
3.2421	9.9792
3.23	9.9812
3.218	9.9802
3.206	9.9768
3.1942	9.9804
3.1824	9.977
3.1707	9.9656
3.1591	9.9646
3.1476	9.9739
3.1362	9.9382
3.1249	9.9482
3.1136	9.9272
3.1024	9.9294
3.0913	9.9326
3.0803	9.946
3.0694	9.9323
3.0585	9.9189
3.0477	9.9221
3.037	9.9209
3.0264	9.9177
3.0158	9.9131
3.0053	9.8923
2.9949	9.8952
2.9845	9.8742
2.9743	9.8513
2.9641	9.8301
2.9539	9.803
2.9439	9.7739
2.9339	9.7744
2.9239	9.7612
2.9141	9.7429
2.9043	9.7419
2.8946	9.729
2.8849	9.7019
2.8753	9.656
2.8658	9.6474
2.8563	9.6108
2.8469	9.5578
2.8375	9.5134
2.8282	9.4719
2.819	9.4175
2.8098	9.3921
2.8007	9.3432
2.7917	9.3371
2.7827	9.3291
2.7738	9.3662
2.7649	9.365
2.7561	9.3132
2.7473	9.3899
2.7386	9.3283
2.7299	9.4258
2.7213	9.3716
2.7128	9.4604
2.7043	9.5102
2.6959	9.4746
2.6875	9.4785
2.6791	9.4975
2.6709	9.3977
2.6626	9.445
2.6545	9.3999
2.6463	9.3579
2.6382	9.3186
2.6302	9.2134
2.6222	9.2466
2.6143	9.1574
2.6064	9.0823
2.5986	9.0752
2.5908	9.0334
2.583	8.9292
2.5753	8.9148
2.5677	8.9026
2.5601	8.8174
2.5525	8.7729
2.545	8.7365
2.5375	8.7292
2.5301	8.647
2.5227	8.6108
2.5154	8.5815
2.5081	8.5298
2.5008	8.4763
2.4936	8.4253
2.4864	8.4053
2.4793	8.3525
2.4722	8.279
2.4651	8.2456
2.4581	8.2158
2.4511	8.2077
2.4442	8.1633
2.4373	8.1167
2.4305	8.0866
2.4236	7.9924
2.4169	7.998
2.4101	7.9856
2.4034	7.9626
2.3967	7.8742
2.3901	7.8486
2.3835	7.8323
2.377	7.8139
2.3704	7.7927
2.364	7.7353
2.3575	7.6982
2.3511	7.7221
2.3447	7.7073
2.3384	7.6365
2.3321	7.6301
2.3258	7.6235
2.3195	7.6116
2.3133	7.5771
2.3071	7.6113
2.301	7.5722
2.2949	7.5337
2.2888	7.5539
2.2828	7.5315
2.2767	7.5429
2.2708	7.5278
2.2648	7.4924
2.2589	7.5078
2.253	7.4888
2.2471	7.4927
2.2413	7.466
2.2355	7.5019
2.2297	7.4663
2.224	7.458
2.2183	7.435
2.2126	7.4243
2.207	7.4497
2.2013	7.4109
2.1957	7.4116
2.1902	7.4834
2.1846	7.4179
2.1791	7.4629
2.1736	7.4919
2.1682	7.5027
2.1628	7.5075
2.1574	7.5195
2.152	7.499
2.1466	7.4912
2.1413	7.4902
2.136	7.5019
2.1308	7.5014
2.1255	7.5586
2.1203	7.5581
2.1151	7.5381
2.11	7.5928
2.1048	7.5928
2.0997	7.5635
2.0946	7.6157
2.0895	7.6479
2.0845	7.6433
2.0795	7.6255
