Name: Labradorite (Na,Ca)Al(Al,Si)Si2O8
Type: Mineral
Class: Silicate
Subclass: Tectosilicate
Particle Size: Fine
Sample No.: labrador_1
Owner: JHU
Wavelength Range: TIR
Origin: Lake County, Oregon, acquired from the Smithsonian (sampleno. NMNH 115500) via Dave Stewart, USGS
Description: The sample consisted of a 2 cm x 1 cm x 0.2 cm, 0.536 g portion, of a single transparent crystal.  The fragment seemed to have been sawn on one side.  A very, very small amount of iron oxide stain could be seen on the surface of the fragment and still less on the inside.  No impurities were detected under the microscope. Particle size was Less than 2 micrometers.(Framework Silicates); (Feldspar Group) Original ASTER Spectral Library name was jhu.nicolet.mineral.silicate.tectosilicate.powder.labrad1.spectrum.txt
Measurement: Transmission
X Units: Wavelength (micrometers)
Y Units: Transmittence (percent)
wavelength	value
25.0442	46.4491
24.3388	49.1835
23.6719	51.8475
23.0407	55.2391
22.4422	62.5477
21.8741	63.2743
21.334	60.6717
20.8199	63.8953
20.33	70.202
19.8627	69.7386
19.4163	65.2889
18.9896	58.973
18.5812	47.1473
18.19	50.8768
17.815	47.8651
17.4551	39.9022
17.1094	40.2108
16.7772	44.2294
16.4576	47.1503
16.15	46.1503
15.8537	48.8759
15.568	60.6375
15.2925	67.0687
15.0265	67.1346
14.7697	66.5682
14.5214	68.0784
14.2814	69.3343
14.0492	69.2606
13.8244	67.4874
13.6067	65.2442
13.3957	64.7208
13.1912	64.9356
12.9929	66.6309
12.8004	70.3133
12.6135	75.7352
12.432	78.8038
12.2557	78.1228
12.0843	73.2566
11.9176	67.5567
11.7555	62.753
11.5977	58.6944
11.444	53.3671
11.2944	45.6405
11.1487	37.4357
11.0067	31.352
10.8682	27.1943
10.7332	24.8525
10.6015	23.6513
10.473	23.591
10.3476	23.8657
10.2251	23.5969
10.1056	23.1193
9.9887	23.6013
9.8746	24.9282
9.763	26.5019
9.6539	28.1742
9.5472	29.839
9.4429	30.8002
9.3408	30.7521
9.2409	30.0927
9.1431	29.2338
9.0474	29.9604
8.9536	31.5634
8.8618	32.2909
8.7718	31.8703
8.6837	32.2841
8.5973	35.1064
8.5126	39.2511
8.4295	44.3671
8.3481	50.1244
8.2682	55.8573
8.1898	60.2855
8.1129	63.5887
8.0374	66.1375
7.9634	68.4334
7.8906	70.1917
7.8192	71.6695
7.7491	73.0201
7.6802	74.1966
7.6126	75.4847
7.5461	76.5765
7.4807	77.5545
7.4165	78.3658
7.3534	79.1443
7.2914	79.9065
7.2303	80.5503
7.1703	81.4959
7.1113	82.2591
7.0533	82.6717
6.9962	83.2693
6.94	83.9141
6.8847	84.26
6.8302	84.5686
6.7767	84.8972
6.7239	85.302
6.672	85.7393
6.6209	86.0945
6.5705	86.4514
6.5209	86.6878
6.4721	86.9749
6.424	87.2132
6.3766	87.3533
6.3299	87.4622
6.2838	87.51
6.2385	87.4527
6.1937	86.9878
6.1496	86.6072
6.1062	86.7229
6.0633	87.3035
6.0211	88.7942
5.9794	89.8631
5.9383	89.8386
5.8978	89.9666
5.8578	90.2068
5.8184	90.6546
5.7794	90.9221
5.741	91.1277
5.7031	91.2991
5.6657	91.4226
5.6288	91.6384
5.5924	91.8733
5.5564	92.0754
5.5209	92.156
5.4859	92.3049
5.4513	92.491
5.4171	92.6897
5.3833	92.8264
5.35	93.0447
5.3171	93.1755
5.2846	93.3206
5.2524	93.4783
5.2207	93.6179
5.1893	93.7737
5.1584	93.9822
5.1277	94.0686
5.0975	94.196
5.0676	94.3054
5.038	94.4155
5.0088	94.5088
4.98	94.6465
4.9514	94.8066
4.9232	94.8752
4.8953	94.9395
4.8678	95.0022
4.8405	95.0803
4.8135	95.2302
4.7868	95.3333
4.7605	95.4316
4.7344	95.5188
4.7086	95.5972
4.6831	95.6824
4.6578	95.7422
4.6328	95.915
4.6081	96.1577
4.5837	96.1013
4.5595	96.1785
4.5356	96.2053
4.5119	96.2568
4.4884	96.3308
4.4652	96.385
4.4423	96.4397
4.4196	96.4895
4.3971	96.5674
4.3748	96.6804
4.3528	96.7048
4.331	96.7795
4.3094	96.833
4.288	96.8601
4.2668	96.948
4.2458	96.9902
4.2251	97.0459
4.2045	97.051
4.1841	97.1125
4.164	97.1843
4.144	97.1995
4.1242	97.2683
4.1046	97.283
4.0852	97.2969
4.066	97.3757
4.047	97.3821
4.0281	97.4402
4.0094	97.4668
3.9909	97.4709
3.9725	97.5098
3.9544	97.5652
3.9363	97.6846
3.9185	97.7119
3.9008	97.7119
3.8833	97.7527
3.8659	97.6833
3.8487	97.7497
3.8316	97.7624
3.8147	97.8557
3.7979	97.8369
3.7813	97.8269
3.7648	97.8779
3.7485	97.7981
3.7323	97.9004
3.7162	97.8799
3.7003	97.8513
3.6845	97.8664
3.6689	97.8289
3.6534	97.8816
3.638	97.9456
3.6227	97.8779
3.6076	97.8621
3.5926	97.9475
3.5777	97.8972
3.563	97.8664
3.5484	97.9392
3.5338	97.9209
3.5195	97.8728
3.5052	97.9788
3.491	97.8528
3.477	97.835
3.463	97.8291
3.4492	97.822
3.4355	97.8484
3.4219	97.8611
3.4084	97.6658
3.395	97.7156
3.3817	97.7617
3.3685	97.7803
3.3554	97.5164
3.3425	97.6101
3.3296	97.6443
3.3168	97.5234
3.3041	97.583
3.2915	97.616
3.279	97.5623
3.2666	97.5295
3.2543	97.512
3.2421	97.5955
3.23	97.5359
3.218	97.5242
3.206	97.4856
3.1942	97.2771
3.1824	97.2703
3.1707	97.1423
3.1591	97.0618
3.1476	96.9163
3.1362	96.7449
3.1249	96.5852
3.1136	96.3967
3.1024	96.1174
3.0913	95.8425
3.0803	95.6658
3.0694	95.49
3.0585	95.2424
3.0477	95.1882
3.037	94.9749
3.0264	94.7854
3.0158	94.385
3.0053	93.948
2.9949	93.3831
2.9845	92.8147
2.9743	91.9749
2.9641	91.0964
2.9539	90.4944
2.9439	89.95
2.9339	89.471
2.9239	89.2346
2.9141	89.0081
2.9043	89.1248
2.8946	89.4553
2.8849	89.8396
2.8753	90.0877
2.8658	90.4627
2.8563	91.053
2.8469	91.3635
2.8375	91.9417
2.8282	92.3914
2.819	93.0808
2.8098	93.551
2.8007	94.1736
2.7917	94.741
2.7827	95.4202
2.7738	95.9573
2.7649	96.449
2.7561	97.0212
2.7473	97.6824
2.7386	97.9221
2.7299	98.2556
2.7213	98.3103
2.7128	98.363
2.7043	98.7346
2.6959	98.8909
2.6875	99.1619
2.6791	99.2478
2.6709	99.3513
2.6626	99.1638
2.6545	99.1941
2.6463	99.363
2.6382	99.2654
2.6302	99.3201
2.6222	99.3386
2.6143	99.3357
2.6064	99.3708
2.5986	99.3376
2.5908	99.3611
2.583	99.5232
2.5753	99.3367
2.5677	99.322
2.5601	99.5447
2.5525	99.4031
2.545	99.3533
2.5375	99.5203
2.5301	99.3767
2.5227	99.3357
2.5154	99.3513
2.5081	99.5505
2.5008	99.5867
2.4936	99.3728
2.4864	99.5281
2.4793	99.3562
2.4722	99.5935
2.4651	99.697
2.4581	99.7117
2.4511	99.5671
2.4442	99.4704
2.4373	99.5486
2.4305	99.4451
2.4236	99.5544
2.4169	99.6218
2.4101	99.7244
2.4034	99.7185
2.3967	99.574
2.3901	99.4646
2.3835	99.6492
2.377	99.6579
2.3704	99.6326
2.364	99.5056
2.3575	99.7078
2.3511	99.7341
2.3447	99.7263
2.3384	99.8445
2.3321	99.7888
2.3258	99.5046
2.3195	99.8679
2.3133	99.7898
2.3071	100.011
2.301	99.8943
2.2949	99.8318
2.2888	100.001
2.2828	99.7244
2.2767	99.7322
2.2708	99.8083
2.2648	99.738
2.2589	99.8103
2.253	99.906
2.2471	100.011
2.2413	100.15
2.2355	99.8689
2.2297	99.8845
2.224	99.9646
2.2183	99.824
2.2126	100.111
2.207	99.9724
2.2013	99.8845
2.1957	99.9997
2.1902	100.128
2.1846	99.9294
2.1791	99.7263
2.1736	99.9079
2.1682	99.9997
2.1628	100.253
2.1574	100.163
2.152	99.7986
2.1466	99.9079
2.1413	99.9412
2.136	100.12
2.1308	99.9372
2.1255	99.7283
2.1203	99.7048
2.1151	100.159
2.11	100.144
2.1048	99.7829
2.0997	100.167
2.0946	100.23
2.0895	100.298
2.0845	99.9138
2.0795	100.439
