Name: Nepheline (Na,K)AlSiO_4
Type: Mineral
Class: Silicate
Subclass: Tectosilicate
Particle Size: Fine
Sample No.: TS-16A
Owner: JPL
Wavelength Range: VSWIR
Origin: Canada, Ontario, Hastings County, Bancroft
Description: Particle size was 0-45um.Collected by Ward's Original ASTER Spectral Library name was jpl.beckman.mineral.silicate.tectosilicate.fine.ts16a.spectrum.txt
Measurement: Hemispherical reflectance
X Units: Wavelength (micrometers)
Y Units: Reflectance (percent)
wavelength	value
0.4	73.6
0.403	73.94
0.406	74.22
0.409	74.24
0.412	74.45
0.415	74.72
0.418	74.94
0.421	74.95
0.424	75.09
0.427	75.24
0.43	75.51
0.433	75.55
0.436	75.61
0.439	75.89
0.442	76
0.445	76.13
0.448	76.16
0.451	76.44
0.454	76.36
0.457	76.45
0.46	76.75
0.463	76.74
0.466	76.75
0.469	77.1
0.472	77.11
0.475	77.26
0.478	77.29
0.481	77.33
0.484	77.43
0.487	77.3
0.49	77.68
0.493	77.83
0.496	77.67
0.499	77.94
0.502	77.86
0.505	78.05
0.508	77.99
0.511	78.19
0.514	78.32
0.517	78.38
0.52	78.41
0.523	78.35
0.526	78.44
0.529	78.37
0.532	78.41
0.535	78.57
0.538	78.7
0.541	78.51
0.544	78.77
0.547	78.64
0.55	78.86
0.553	78.83
0.556	78.92
0.559	79.08
0.562	79.56
0.565	79.52
0.568	79.36
0.571	79.56
0.574	79.65
0.577	79.59
0.58	79.69
0.583	79.8
0.586	79.92
0.589	79.92
0.592	79.93
0.595	80.22
0.598	80.15
0.601	80.4
0.604	80.4
0.607	80.65
0.61	80.4
0.613	80.31
0.616	80.48
0.619	80.33
0.622	80.44
0.625	80.48
0.628	80.48
0.631	80.54
0.634	80.44
0.637	80.57
0.64	80.76
0.643	80.63
0.646	80.74
0.649	80.66
0.652	80.84
0.655	80.81
0.658	80.76
0.661	80.96
0.664	80.86
0.667	80.87
0.67	80.93
0.673	80.84
0.676	80.93
0.679	80.89
0.682	81.01
0.685	80.97
0.688	81.08
0.691	81.01
0.694	81.04
0.697	81.2
0.7	80.92
0.703	81.08
0.706	81.2
0.709	81.35
0.712	81.26
0.715	81.2
0.718	81.3
0.721	81.34
0.724	81.3
0.727	81.29
0.73	81.33
0.733	81.5
0.736	81.2
0.739	81.21
0.742	81.5
0.745	81.51
0.748	81.38
0.751	81.41
0.754	81.39
0.757	81.66
0.76	81.36
0.763	81.36
0.766	81.58
0.769	81.6
0.772	81.63
0.775	81.64
0.778	81.55
0.781	81.77
0.784	81.53
0.787	81.58
0.79	81.71
0.793	81.81
0.796	81.67
0.799	81.73
0.808	81.84
0.82	81.83
0.832	81.79
0.844	81.75
0.856	81.85
0.868	81.94
0.88	81.9
0.892	81.91
0.904	81.92
0.916	81.91
0.928	82.03
0.94	82.08
0.952	82.17
0.964	82.23
0.976	82.19
0.988	82.28
1	82.31
1.012	82.37
1.024	82.41
1.036	82.4
1.048	82.48
1.06	82.43
1.072	82.48
1.084	82.57
1.096	82.59
1.108	82.61
1.12	82.68
1.132	82.82
1.144	82.71
1.156	82.68
1.168	82.73
1.18	82.82
1.192	82.83
1.204	82.99
1.216	82.91
1.228	83.08
1.24	83.01
1.252	83.12
1.264	83.21
1.276	83.29
1.288	83.38
1.3	83.33
1.312	83.35
1.324	83.28
1.336	83.29
1.348	83.21
1.36	83.38
1.372	83.23
1.384	83.16
1.396	82.84
1.408	82.18
1.42	81.48
1.432	81.97
1.444	82.42
1.456	82.51
1.468	82.66
1.48	82.79
1.492	83.15
1.504	83.24
1.516	83.53
1.528	83.46
1.54	83.69
1.552	83.6
1.564	83.76
1.576	83.72
1.588	83.81
1.6	83.83
1.612	83.89
1.624	83.78
1.636	83.78
1.648	83.77
1.66	83.8
1.672	83.93
1.684	83.97
1.696	84.01
1.708	84
1.72	83.99
1.732	83.86
1.744	83.72
1.756	83.66
1.768	83.57
1.78	83.66
1.792	83.55
1.804	83.69
1.816	83.6
1.828	83.62
1.84	83.68
1.852	83.52
1.864	83.14
1.876	82.47
1.888	80.85
1.9	77.72
1.912	75.18
1.924	74.88
1.936	75.1
1.948	76.53
1.96	78.11
1.972	78.92
1.984	79.67
1.996	80.06
2.008	80.54
2.02	81.03
2.032	81.37
2.044	81.69
2.056	81.8
2.068	81.94
2.08	82.28
2.092	82.43
2.104	82.68
2.116	82.84
2.128	82.98
2.14	82.78
2.152	82.72
2.164	82.62
2.176	82.26
2.188	82.24
2.2	82.1
2.212	82
2.224	82.27
2.236	82.35
2.248	82.49
2.26	82.48
2.272	82.55
2.284	82.66
2.296	82.53
2.308	82.41
2.32	82.46
2.332	82.26
2.344	81.99
2.356	81.53
2.368	81.01
2.38	80.65
2.392	79.89
2.404	79.08
2.416	78.22
2.428	77.37
2.44	76.61
2.452	76.05
2.464	75.62
2.476	75.44
2.488	75.51
2.5	75.61
