Name: Montmorillonite (Na,Ca)0.33(Al,Mg)2Si4O10(OH)2.nH2O
Type: Mineral
Class: Silicate
Subclass: Phyllosilicate
Particle Size: Fine
Sample No.: montmor_2
Owner: JHU
Wavelength Range: TIR
Origin: Gonzales Co., Texas via the Hunt and Salisbury Collection(#CMS STx-1) (Purchased from the Clay Mineral Society Repository)
Description: The sample was a white, earthy clay. The bulk sample contains calcite, but <2 micrometer size fraction used in the spectral measurements is pure montmorillonite.Particle size was Less than 2  Micrometers and Packed.(Sheet Silicates); (SmectiteGroup) Original ASTER Spectral Library name was jhu.nicolet.mineral.silicate.phyllosilicate.powder.montmo2.spectrum.txt
Measurement: Transmission
X Units: Wavelength (micrometers)
Y Units: Transmittance (percent)
wavelength	value
25.0442	53.91
24.3388	47.5702
23.6719	40.162
23.0407	37.4892
22.4422	34.3642
21.8741	30.4921
21.334	27.8095
20.8199	35.9657
20.33	44.747
19.8627	43.6015
19.4163	36.9184
18.9896	38.1371
18.5812	43.3988
18.19	47.3246
17.815	49.8905
17.4551	51.9437
17.1094	54.4999
16.7772	58.1825
16.4576	61.1307
16.15	62.1995
15.8537	65.1746
15.568	70.4007
15.2925	73.8641
15.0265	76.2767
14.7697	78.3382
14.5214	79.8987
14.2814	81.5906
14.0492	83.784
13.8244	86.0723
13.6067	87.6697
13.3957	89.1572
13.1912	89.3298
12.9929	87.9082
12.8004	85.7718
12.6135	84.0323
12.432	83.25
12.2557	80.7762
12.0843	75.702
11.9176	72.2354
11.7555	73.1131
11.5977	73.9402
11.444	71.8553
11.2944	68.5662
11.1487	64.0626
11.0067	57.7843
10.8682	56.6561
10.7332	57.4305
10.6015	54.7267
10.473	48.4105
10.3476	41.2318
10.2251	34.3817
10.1056	28.8061
9.9887	24.7328
9.8746	22.0441
9.763	20.7795
9.6539	21.2004
9.5472	23.3742
9.4429	26.7219
9.3408	30.2033
9.2409	32.9291
9.1431	35.682
9.0474	37.9862
8.9536	40.3732
8.8618	43.7733
8.7718	47.1107
8.6837	50.0343
8.5973	52.8072
8.5126	55.2355
8.4295	57.9908
8.3481	61.0287
8.2682	63.7943
8.1898	66.0076
8.1129	67.9608
8.0374	69.5591
7.9634	71.1888
7.8906	72.5745
7.8192	73.6898
7.7491	74.7552
7.6802	75.7659
7.6126	76.6937
7.5461	77.6644
7.4807	78.4358
7.4165	79.2151
7.3534	79.9412
7.2914	80.553
7.2303	81.1092
7.1703	82.0879
7.1113	82.6795
7.0533	82.9197
6.9962	83.3577
6.94	84.1155
6.8847	84.6062
6.8302	84.7815
6.7767	85.1277
6.7239	85.6399
6.672	86.1243
6.6209	86.5379
6.5705	86.9094
6.5209	87.2249
6.4721	87.5857
6.424	87.9844
6.3766	88.3367
6.3299	88.5657
6.2838	88.595
6.2385	88.0867
6.1937	85.9065
6.1496	82.7576
6.1062	81.9527
6.0633	83.8528
6.0211	86.2825
5.9794	87.9324
5.9383	88.1043
5.8978	88.3196
5.8578	88.6756
5.8184	89.1218
5.7794	89.5635
5.741	89.9426
5.7031	90.2073
5.6657	90.4041
5.6288	90.6284
5.5924	90.7234
5.5564	90.7605
5.5209	90.7952
5.4859	90.8811
5.4513	90.9495
5.4171	91.0964
5.3833	91.2522
5.35	91.5169
5.3171	91.7705
5.2846	91.9846
5.2524	92.1643
5.2207	92.3435
5.1893	92.4929
5.1584	92.6375
5.1277	92.8323
5.0975	92.9749
5.0676	93.1118
5.038	93.335
5.0088	93.4722
4.98	93.634
4.9514	93.7939
4.9232	93.9468
4.8953	94.0557
4.8678	94.2078
4.8405	94.3059
4.8135	94.46
4.7868	94.5532
4.7605	94.6326
4.7344	94.7114
4.7086	94.8027
4.6831	94.8621
4.6578	94.9922
4.6328	95.0813
4.6081	95.2422
4.5837	95.1814
4.5595	95.2405
4.5356	95.2581
4.5119	95.2981
4.4884	95.3899
4.4652	95.4729
4.4423	95.4595
4.4196	95.5059
4.3971	95.6306
4.3748	95.7366
4.3528	95.7861
4.331	95.8484
4.3094	95.9031
4.288	95.9114
4.2668	96.01
4.2458	96.1465
4.2251	96.196
4.2045	96.2197
4.1841	96.3391
4.164	96.3723
4.144	96.4434
4.1242	96.5361
4.1046	96.583
4.0852	96.6055
4.066	96.6484
4.047	96.7014
4.0281	96.7756
4.0094	96.7493
3.9909	96.6873
3.9725	96.6941
3.9544	96.8408
3.9363	96.9534
3.9185	97.0051
3.9008	97.0505
3.8833	97.0481
3.8659	97.0398
3.8487	97.123
3.8316	97.1599
3.8147	97.2051
3.7979	97.259
3.7813	97.2754
3.7648	97.2537
3.7485	97.2351
3.7323	97.2917
3.7162	97.3281
3.7003	97.2541
3.6845	97.279
3.6689	97.2888
3.6534	97.3406
3.638	97.331
3.6227	97.2998
3.6076	97.3516
3.5926	97.3308
3.5777	97.376
3.563	97.3748
3.5484	97.3098
3.5338	97.2722
3.5195	97.0784
3.5052	96.9326
3.491	96.8796
3.477	96.9128
3.463	96.9724
3.4492	96.9707
3.4355	96.8789
3.4219	96.6433
3.4084	96.364
3.395	96.5439
3.3817	96.5496
3.3685	96.7434
3.3554	96.7019
3.3425	96.6873
3.3296	96.6892
3.3168	96.585
3.3041	96.5955
3.2915	96.4922
3.279	96.3437
3.2666	96.2136
3.2543	95.9951
3.2421	95.9441
3.23	95.7063
3.218	95.5066
3.206	95.2336
3.1942	94.8064
3.1824	94.4456
3.1707	94.0276
3.1591	93.4915
3.1476	92.8943
3.1362	92.176
3.1249	91.5061
3.1136	90.8552
3.1024	90.0916
3.0913	89.6174
3.0803	89.2517
3.0694	88.9265
3.0585	88.5105
3.0477	87.8592
3.037	87.1331
3.0264	86.2893
3.0158	85.3572
3.0053	84.4143
2.9949	83.5135
2.9845	82.8382
2.9743	82.055
2.9641	81.5403
2.9539	81.1292
2.9439	81.0857
2.9339	81.0574
2.9239	81.0652
2.9141	81.201
2.9043	81.4412
2.8946	81.6844
2.8849	81.8709
2.8753	81.8836
2.8658	81.9598
2.8563	82.2034
2.8469	82.4646
2.8375	82.6404
2.8282	82.7957
2.819	82.8396
2.8098	82.4436
2.8007	81.6795
2.7917	79.8128
2.7827	77.5311
2.7738	75.0887
2.7649	73.4217
2.7561	73.3069
2.7473	75.9471
2.7386	79.1687
2.7299	81.7386
2.7213	84.3328
2.7128	87.0003
2.7043	89.6448
2.6959	91.7927
2.6875	93.2639
2.6791	93.8987
2.6709	94.4084
2.6626	94.7463
2.6545	94.7913
2.6463	94.9734
2.6382	95.1018
2.6302	95.2673
2.6222	95.4202
2.6143	95.4949
2.6064	95.5613
2.5986	95.8093
2.5908	95.7576
2.583	95.99
2.5753	96.0632
2.5677	96.0564
2.5601	96.24
2.5525	96.072
2.545	96.0447
2.5375	96.2478
2.5301	96.2507
2.5227	96.0789
2.5154	96.2361
2.5081	96.4939
2.5008	96.4665
2.4936	96.3982
2.4864	96.4802
2.4793	96.4665
2.4722	96.6052
2.4651	96.6189
2.4581	96.5095
2.4511	96.5486
2.4442	96.5164
2.4373	96.5007
2.4305	96.6814
2.4236	96.696
2.4169	96.7165
2.4101	96.9294
2.4034	96.8943
2.3967	96.656
2.3901	96.7986
2.3835	96.7263
2.377	96.9421
2.3704	97.0193
2.364	97.1208
2.3575	96.9148
2.3511	96.9851
2.3447	97.3044
2.3384	97.0955
2.3321	97.0388
2.3258	97.0037
2.3195	97.113
2.3133	97.3914
2.3071	97.1648
2.301	97.154
2.2949	97.364
2.2888	97.4646
2.2828	97.3601
2.2767	97.4109
2.2708	97.4617
2.2648	97.4656
2.2589	97.5466
2.253	97.6443
2.2471	97.6062
2.2413	97.3982
2.2355	97.613
2.2297	97.7107
2.224	97.4783
2.2183	97.7107
2.2126	97.908
2.207	97.5095
2.2013	97.6697
2.1957	97.6189
2.1902	97.9255
2.1846	97.9587
2.1791	97.8747
2.1736	97.8611
2.1682	98.1912
2.1628	98.3533
2.1574	98.0622
2.152	98.1267
2.1466	98.1013
2.1413	98.0408
2.136	98.0974
2.1308	98.4763
2.1255	98.4177
2.1203	98.1482
2.1151	98.4919
2.11	98.6091
2.1048	98.3142
2.0997	98.5642
2.0946	98.5486
2.0895	98.4646
2.0845	98.8201
2.0795	98.697
