Name: Chalcopyrite CuFeS_2
Type: Mineral
Class: Sulfide
Subclass: None
Particle Size: Medium
Sample No.: S-4A
Owner: JPL
Wavelength Range: TIR
Origin: Canada, Quebec, Rouyn District
Description: Particle size was 45-125um.Collected by JPL Original ASTER Spectral Library name was jpl.nicolet.mineral.sulfide.none.medium.s04a.spectrum.txt
Measurement: Hemispherical reflectance
X Units: Wavelength (micrometers)
Y Units: Reflectance (percent)
wavelength	value
15.3853	21.147
15.1161	23.2348
14.8563	24.292
14.6052	24.5281
14.3624	24.7907
14.1276	25.0868
13.9004	24.9341
13.6803	24.3234
13.4671	24.2456
13.2604	24.9126
13.06	26.2646
12.8656	28.2072
12.6769	30.0618
12.4936	32.0935
12.3155	32.5696
12.1425	33.5892
11.9742	34.7315
11.8106	36.2367
11.6513	37.6965
11.4963	38.75
11.3454	39.046
11.1983	38.5169
11.0551	40.0542
10.9154	40.0785
10.7793	39.5687
10.6465	38.8801
10.5169	37.9366
10.3904	37.7223
10.267	38.1866
10.1464	39.0383
10.0287	39.5211
9.9136	38.9288
9.8012	38.2615
9.6913	38.1325
9.5838	38.1889
9.4787	38.9744
9.3758	41.112
9.2752	42.2845
9.1767	42.5499
9.0803	42.421
8.9858	42.5895
8.8934	42.7632
8.8028	42.6947
8.714	42.8273
8.627	41.7791
8.5417	44.3018
8.4581	46.0908
8.3761	47.804
8.2957	49.7981
8.2169	51.7278
8.1395	52.6515
8.0635	52.3283
7.989	51.0232
7.9158	51.9886
7.8439	51.5463
7.7734	51.5083
7.7041	51.6594
7.636	51.8349
7.5691	52.4441
7.5034	52.7871
7.4388	53.0411
7.3753	53.3733
7.3129	53.1309
7.2515	53.6328
7.1912	54.6899
7.1318	55.1316
7.0734	55.037
7.016	55.095
6.9595	56.1645
6.9039	54.7964
6.8492	54.0869
6.7953	54.6369
6.7423	53.4994
6.6901	53.881
6.6387	56.9054
6.5881	54.3005
6.5382	53.2487
6.4892	57.5248
6.4408	55.4959
6.3931	54.2749
6.3462	53.3408
6.2999	49.5742
6.2543	47.5918
6.2094	45.9636
6.1651	45.545
6.1214	45.8597
6.0784	46.6057
6.0359	46.4266
5.994	47.5477
5.9527	47.4177
5.912	48.7065
5.8718	51.6815
5.8322	54.0883
5.7931	55.3242
5.7545	57.7158
5.7165	59.3665
5.6789	58.8157
5.6418	57.9543
5.6052	55.5989
5.5691	55.6272
5.5334	56.2542
5.4982	57.5715
5.4635	59.1571
5.4291	58.1742
5.3952	55.3907
5.3618	53.9904
5.3287	53.9282
5.2961	54.5302
5.2638	55.4211
5.2319	57.5777
5.2004	59.3756
5.1693	58.977
5.1386	58.7239
5.1082	58.5624
5.0782	57.7862
5.0485	57.2719
5.0192	57.3064
4.9902	57.4888
4.9616	59.0445
4.9332	60.0813
4.9052	62.2665
4.8776	65.1929
4.8502	66.636
4.8231	67.303
4.7963	67.6133
4.7699	67.9127
4.7437	67.9988
4.7178	67.9092
4.6922	67.4654
4.6668	67.5164
4.6418	68.1355
4.617	68.4811
4.5924	68.679
4.5681	68.6518
4.5441	68.5736
4.5203	67.8224
4.4968	67.1682
4.4735	66.7967
4.4505	67.0078
4.4277	67.3531
4.4051	67.7837
4.3828	68.229
4.3607	68.7334
4.3388	68.7169
4.3171	68.1732
4.2956	66.4979
4.2744	60.7587
4.2534	64.6486
4.2325	67.5082
4.2119	68.8102
4.1915	69.4102
4.1712	69.7324
4.1512	69.884
4.1313	70.0118
4.1117	70.2391
4.0922	70.3181
4.0729	70.5079
4.0538	70.4447
4.0349	70.4165
4.0161	70.4567
3.9976	70.5502
3.9792	70.6644
3.9609	70.7707
3.9428	70.8156
3.9249	70.9466
3.9072	70.9987
3.8896	70.9005
3.8722	70.7664
3.8549	70.7026
3.8378	70.6754
3.8208	70.6357
3.804	70.5353
3.7873	70.3547
3.7708	70.1732
3.7544	69.8377
3.7382	69.6697
3.7221	69.4302
3.7061	69.2997
3.6903	69.0497
3.6746	68.7855
3.659	68.4702
3.6436	68.1371
3.6283	67.7769
3.6131	67.3867
3.5981	66.947
3.5832	66.565
3.5684	66.0403
3.5537	65.5199
3.5391	64.8683
3.5247	63.7699
3.5104	61.0517
3.4962	59.9944
3.4821	60.7119
3.4681	60.5643
3.4543	59.6582
3.4405	58.1139
3.4269	55.1185
3.4133	53.9045
3.3999	56.1669
3.3866	56.0102
3.3733	55.5146
3.3602	57.3326
3.3472	57.2123
3.3343	56.8891
3.3215	56.2796
3.3088	55.6838
3.2961	54.8928
3.2836	54.2725
3.2712	53.3703
3.2588	52.6577
3.2466	51.9212
3.2345	51.084
3.2224	50.3258
3.2104	49.5334
3.1985	48.68
3.1867	47.8924
3.175	47.0059
3.1634	46.2395
3.1519	45.4437
3.1404	44.7303
3.129	44.0979
3.1178	43.4554
3.1065	42.9436
3.0954	42.4192
3.0844	42.0596
3.0734	41.6943
3.0625	41.5713
3.0517	41.1891
3.041	40.9718
3.0303	40.8682
3.0197	40.3985
3.0092	40.2097
2.9987	40.1549
2.9884	39.9634
2.9781	39.5193
2.9678	39.4071
2.9577	39.131
2.9476	39.4916
2.9376	39.6884
2.9276	40.0959
2.9177	40.4222
2.9079	40.8117
2.8982	41.2344
2.8885	41.9055
2.8789	42.0982
2.8693	42.8656
2.8598	43.8698
2.8504	44.525
2.841	45.4785
2.8317	46.5365
2.8224	47.3312
2.8133	48.5936
2.8041	50.391
2.7951	51.0351
2.786	52.9899
2.7771	54.1176
2.7682	56.2698
2.7594	57.3202
2.7506	59.8657
2.7418	63.5592
2.7332	65.5346
2.7246	70.7816
2.716	72.4919
2.7075	75.535
2.699	77.5539
2.6906	79.7364
2.6823	81.4108
2.674	82.426
2.6657	85.6269
2.6575	82.926
2.6494	83.2646
2.6413	83.8493
2.6332	84.4197
2.6252	84.5607
2.6173	86.1623
2.6094	85.1409
2.6015	85.253
2.5937	87.3405
2.5859	85.3025
2.5782	85.0539
2.5706	85.2796
2.5629	86.0323
2.5554	84.7167
2.5478	85.0307
2.5403	84.8226
2.5329	85.0886
2.5255	84.859
2.5181	84.8509
2.5108	84.8868
2.5035	85.1009
2.4963	85.1056
2.4891	85.2482
2.482	85.2906
2.4749	85.4009
2.4678	85.4833
2.4608	85.5337
2.4538	85.9449
2.4468	85.888
2.4399	86.1171
2.4331	86.0483
2.4262	86.298
2.4194	86.173
2.4127	86.4266
2.4059	86.5777
2.3993	86.529
2.3926	86.5092
2.386	86.7277
2.3795	86.759
2.3729	86.7934
2.3664	86.8546
2.36	86.9669
2.3535	86.9522
2.3471	86.7815
2.3408	86.7986
2.3345	87.1454
2.3282	87.1046
2.3219	86.9672
2.3157	87.0627
2.3095	86.9167
2.3034	86.7131
2.2972	86.9725
2.2911	87.0578
2.2851	86.8747
2.279	87.1022
2.2731	87.1718
2.2671	87.1555
2.2612	87.022
2.2553	87.1998
2.2494	87.2824
2.2435	87.2913
2.2377	87.3559
2.232	87.2481
2.2262	87.1604
2.2205	87.3786
2.2148	87.4063
2.2091	87.3775
2.2035	87.3429
2.1979	87.4641
2.1923	87.2355
2.1868	87.4892
2.1812	87.272
2.1758	87.5547
2.1703	87.5437
2.1649	87.7884
2.1595	87.4735
2.1541	87.5175
2.1487	87.4397
2.1434	87.5737
2.1381	87.3652
2.1328	87.5578
2.1275	87.4224
2.1223	87.4467
2.1171	87.5257
2.112	87.4352
2.1068	87.3309
2.1017	87.4724
2.0966	87.1811
2.0915	87.4944
2.0865	87.2686
2.0814	87.2705
2.0764	87.6392
2.0715	87.7016
2.0665	87.4142
2.0616	87.3324
2.0567	87.1656
2.0518	87.2859
2.0469	86.9416
2.0421	87.014
2.0373	87.1643
2.0325	86.8322
2.0277	86.891
2.0229	86.8649
2.0182	86.7912
2.0135	86.5077
2.0088	86.7438
2.0042	86.5177
