Name: Lepidolite K(Li,Al)3(Si,Al)_4O_10(F,OH)_2
Type: Mineral
Class: Silicate
Subclass: Phyllosilicate
Particle Size: Fine
Sample No.: PS-13A
Owner: JPL
Wavelength Range: VSWIR
Origin: USA, South Dakota
Description: Yellow lepidolite. Particle size was 0-45um.Collected by Ward's Original ASTER Spectral Library name was jpl.beckman.mineral.silicate.phyllosilicate.fine.ps13a.spectrum.txt
Measurement: Hemispherical reflectance
X Units: Wavelength (micrometers)
Y Units: Reflectance (percent)
wavelength	value
0.4	45.63
0.403	46.94
0.406	48.13
0.409	49.33
0.412	50.25
0.415	51.67
0.418	52.35
0.421	53.78
0.424	54.24
0.427	55.78
0.43	56.34
0.433	57.66
0.436	58.06
0.439	59.37
0.442	59.89
0.445	60.97
0.448	61.48
0.451	62.22
0.454	63.08
0.457	63.43
0.46	64.17
0.463	64.8
0.466	65.03
0.469	65.67
0.472	66.13
0.475	66.37
0.478	67.05
0.481	66.94
0.484	67.63
0.487	67.8
0.49	68.26
0.493	68.56
0.496	68.79
0.499	69.53
0.502	69.36
0.505	69.99
0.508	69.99
0.511	70.4
0.514	70.62
0.517	70.9
0.52	71.19
0.523	71.02
0.526	71.76
0.529	71.48
0.532	71.99
0.535	71.65
0.538	72.05
0.541	72.27
0.544	72.1
0.547	72.56
0.55	72.33
0.553	73.02
0.556	72.62
0.559	72.96
0.562	72.96
0.565	73.31
0.568	72.96
0.571	73.36
0.574	72.96
0.577	73.13
0.58	72.96
0.583	72.96
0.586	73.25
0.589	73.19
0.592	73.59
0.595	73.13
0.598	73.81
0.601	73.36
0.604	73.71
0.607	73.59
0.61	73.42
0.613	73.87
0.616	73.54
0.619	73.93
0.622	73.54
0.625	73.71
0.628	73.76
0.631	73.65
0.634	73.98
0.637	73.76
0.64	74.1
0.643	73.71
0.646	73.87
0.649	73.81
0.652	73.87
0.655	74.21
0.658	73.93
0.661	74.21
0.664	73.98
0.667	74.62
0.67	74.04
0.673	74.44
0.676	74.21
0.679	74.21
0.682	74.67
0.685	74.16
0.688	74.79
0.691	74.33
0.694	74.9
0.697	74.56
0.7	74.62
0.703	74.5
0.706	74.73
0.709	74.44
0.712	74.79
0.715	74.56
0.718	75.02
0.721	74.67
0.724	74.9
0.727	74.73
0.73	74.9
0.733	75.13
0.736	74.62
0.739	75.02
0.742	74.67
0.745	75.25
0.748	74.85
0.751	75.13
0.754	74.96
0.757	75.19
0.76	75.25
0.763	75.02
0.766	75.19
0.769	74.96
0.772	75.41
0.775	74.96
0.778	75.31
0.781	74.9
0.784	75.31
0.787	74.79
0.79	75.36
0.793	74.79
0.796	74.9
0.799	74.96
0.808	74.96
0.82	74.5
0.832	74.44
0.844	74.21
0.856	73.98
0.868	73.93
0.88	73.54
0.892	73.36
0.904	73.25
0.916	73.25
0.928	73.36
0.94	73.48
0.952	73.42
0.964	73.42
0.976	73.87
0.988	74.1
1	74.33
1.012	74.56
1.024	74.62
1.036	74.56
1.048	74.73
1.06	74.62
1.072	74.44
1.084	74.5
1.096	74.39
1.108	74.33
1.12	74.16
1.132	74.16
1.144	74.16
1.156	73.98
1.168	74.01
1.18	74
1.192	74.04
1.204	74.2
1.216	74.26
1.228	74.2
1.24	74.2
1.252	74.54
1.264	74.75
1.276	74.68
1.288	74.94
1.3	74.93
1.312	75.14
1.324	75.06
1.336	75.27
1.348	75.81
1.36	75.81
1.372	75.47
1.384	74.56
1.396	66.65
1.408	59.32
1.42	67.36
1.432	75.29
1.444	76.68
1.456	77.2
1.468	77.6
1.48	77.65
1.492	78
1.504	78
1.516	78.23
1.528	78.4
1.54	78.4
1.552	78.51
1.564	78.51
1.576	78.79
1.588	78.69
1.6	78.85
1.612	78.84
1.624	78.75
1.636	78.91
1.648	78.83
1.66	79.05
1.672	79.08
1.684	78.89
1.696	79.1
1.708	79.03
1.72	79.09
1.732	78.92
1.744	78.98
1.756	78.98
1.768	78.75
1.78	78.92
1.792	78.92
1.804	78.9
1.816	78.82
1.828	78.58
1.84	78.44
1.852	78.49
1.864	78.41
1.876	78.17
1.888	77.63
1.9	77
1.912	76.59
1.924	76.51
1.936	76.55
1.948	76.63
1.96	76.71
1.972	76.7
1.984	76.7
1.996	76.98
2.008	77.07
2.02	77.01
2.032	77.12
2.044	76.99
2.056	76.74
2.068	76.59
2.08	76.11
2.092	75.17
2.104	73.91
2.116	73.32
2.128	72.89
2.14	72.19
2.152	70.31
2.164	66.06
2.176	59.16
2.188	52.67
2.2	51.73
2.212	56.96
2.224	63.41
2.236	67.25
2.248	68.68
2.26	69.34
2.272	69.33
2.284	68.46
2.296	66.76
2.308	64.59
2.32	60.84
2.332	57.85
2.344	56.4
2.356	56.21
2.368	56.93
2.38	57.36
2.392	56.69
2.404	55.58
2.416	53.8
2.428	52.29
2.44	51.56
2.452	51.71
2.464	52.31
2.476	53.13
2.488	54.21
2.5	55.31
