Name: Acmite NaFe+3Si2O6
Type: Mineral
Class: Silicate
Subclass: Inosilicate
Particle Size: Fine
Sample No.: acmite_2
Owner: JHU
Wavelength Range: TIR
Origin: Sample from Kangerdluarssuk, near Narssaq, Greenland viathe Smithsonian (sample no. NMNH 133746).
Description: The sample consisted of large (up to 2 cm long and almost as wide), very dark green prismatic crystals of acmite intergrown with albite (?).  The material was crushed and hand-picked for single crystal measurements and grinding.  The concentrate appeared pure under microscopic examination.  Particle size was less than 2 Micrometers.(Pyroxene Group - single chain) Original ASTER Spectral Library name was jhu.nicolet.mineral.silicate.inosilicate.powder.acmite2.spectrum.txt
Measurement: Transmission
X Units: Wavelength (micrometers)
Y Units: Transmittance (percent)
wavelength	value
25.0442	68.9061
24.3388	76.1092
23.6719	76.2967
23.0407	71.7361
22.4422	63.1717
21.8741	53.1424
21.334	45.66
20.8199	47.4628
20.33	53.2518
19.8627	54.0331
19.4163	64.0701
18.9896	70.7342
18.5812	68.699
18.19	65.8055
17.815	62.9159
17.4551	70.576
17.1094	79.9939
16.7772	85.2469
16.4576	87.3787
16.15	87.8797
15.8537	84.9724
15.568	75.534
15.2925	83.4334
15.0265	88.7468
14.7697	89.5642
14.5214	89.7625
14.2814	89.5925
14.0492	89.1453
13.8244	88.2561
13.6067	87.7132
13.3957	88.8826
13.1912	89.0994
12.9929	88.9763
12.8004	88.5193
12.6135	88.3167
12.432	87.4378
12.2557	86.2674
12.0843	83.8328
11.9176	79.9554
11.7555	73.3006
11.5977	69.9246
11.444	67.0667
11.2944	61.0721
11.1487	54.514
11.0067	48.1815
10.8682	43.4052
10.7332	38.3905
10.6015	34.4042
10.473	30.9555
10.3476	29.873
10.2251	32.497
10.1056	35.0849
9.9887	34.1083
9.8746	32.2602
9.763	31.6195
9.6539	31.2992
9.5472	30.4706
9.4429	30.9985
9.3408	33.6767
9.2409	38.4628
9.1431	45.8031
9.0474	54.3739
8.9536	62.3729
8.8618	68.2108
8.7718	72.7562
8.6837	76.7439
8.5973	79.6028
8.5126	82.116
8.4295	84.6697
8.3481	87.1736
8.2682	89.3259
8.1898	91.0342
8.1129	92.2224
8.0374	93.2214
7.9634	93.7686
7.8906	94.2693
7.8192	94.8474
7.7491	95.2449
7.6802	95.5215
7.6126	95.7078
7.5461	95.8411
7.4807	95.9529
7.4165	96.0605
7.3534	96.2285
7.2914	96.3623
7.2303	96.4512
7.1703	96.616
7.1113	96.8008
7.0533	96.9402
6.9962	97.041
6.94	97.1155
6.8847	97.2334
6.8302	97.3215
6.7767	97.4475
6.7239	97.4939
6.672	97.4668
6.6209	97.4309
6.5705	97.5183
6.5209	97.4988
6.4721	97.3889
6.424	97.2693
6.3766	97.125
6.3299	96.9736
6.2838	96.7781
6.2385	96.541
6.1937	96.2559
6.1496	96.0691
6.1062	96.2744
6.0633	96.5281
6.0211	96.8533
5.9794	97.1316
5.9383	97.6621
5.8978	97.9802
5.8578	98.1848
5.8184	98.2922
5.7794	98.3298
5.741	98.4519
5.7031	98.4514
5.6657	98.5535
5.6288	98.6211
5.5924	98.6631
5.5564	98.822
5.5209	98.8301
5.4859	98.8699
5.4513	98.9265
5.4171	98.96
5.3833	98.8926
5.35	98.947
5.3171	98.9753
5.2846	98.9853
5.2524	99.0251
5.2207	99.0059
5.1893	99.0398
5.1584	99.1169
5.1277	99.1572
5.0975	99.2048
5.0676	99.1748
5.038	99.1599
5.0088	99.1951
4.98	99.219
4.9514	99.2561
4.9232	99.2224
4.8953	99.2541
4.8678	99.2253
4.8405	99.2556
4.8135	99.2493
4.7868	99.2449
4.7605	99.2698
4.7344	99.2786
4.7086	99.2361
4.6831	99.2273
4.6578	99.199
4.6328	99.2253
4.6081	99.1912
4.5837	99.1999
4.5595	99.1697
4.5356	99.1467
4.5119	99.1213
4.4884	99.1111
4.4652	99.1077
4.4423	99.0442
4.4196	99.0627
4.3971	99.0144
4.3748	99.0369
4.3528	98.9934
4.331	98.9944
4.3094	98.9695
4.288	98.9944
4.2668	98.9792
4.2458	99.0095
4.2251	99.0144
4.2045	98.9729
4.1841	98.8874
4.164	98.949
4.144	98.9314
4.1242	98.8894
4.1046	98.9206
4.0852	98.8655
4.066	98.8562
4.047	98.8577
4.0281	98.7996
4.0094	98.7742
3.9909	98.7097
3.9725	98.7014
3.9544	98.7156
3.9363	98.6775
3.9185	98.6882
3.9008	98.6287
3.8833	98.5105
3.8659	98.3928
3.8487	98.4285
3.8316	98.3689
3.8147	98.3171
3.7979	98.2693
3.7813	98.24
3.7648	98.1252
3.7485	98.0491
3.7323	97.9792
3.7162	97.9202
3.7003	97.8186
3.6845	97.7932
3.6689	97.7073
3.6534	97.6682
3.638	97.6228
3.6227	97.5847
3.6076	97.3962
3.5926	97.3791
3.5777	97.2273
3.563	97.2742
3.5484	97.1384
3.5338	97.0295
3.5195	96.8494
3.5052	96.637
3.491	96.6565
3.477	96.5662
3.463	96.5276
3.4492	96.4304
3.4355	96.1721
3.4219	95.9182
3.4084	95.9177
3.395	95.9612
3.3817	95.842
3.3685	95.8401
3.3554	95.8245
3.3425	95.7659
3.3296	95.7302
3.3168	95.5081
3.3041	95.4041
3.2915	95.3674
3.279	95.2776
3.2666	95.24
3.2543	95.0652
3.2421	94.9089
3.23	94.7419
3.218	94.6853
3.206	94.5837
3.1942	94.4705
3.1824	94.3259
3.1707	94.2351
3.1591	94.0349
3.1476	93.8435
3.1362	93.74
3.1249	93.5584
3.1136	93.4353
3.1024	93.325
3.0913	93.1697
3.0803	93.0603
3.0694	92.9959
3.0585	92.8103
3.0477	92.7117
3.037	92.5867
3.0264	92.3445
3.0158	92.1482
3.0053	91.9617
2.9949	91.8289
2.9845	91.7166
2.9743	91.5193
2.9641	91.156
2.9539	90.988
2.9439	90.9841
2.9339	90.8289
2.9239	90.7888
2.9141	90.7713
2.9043	90.8132
2.8946	91.0701
2.8849	91.2869
2.8753	91.5603
2.8658	91.8367
2.8563	92.197
2.8469	92.3953
2.8375	92.6296
2.8282	92.9255
2.819	93.1091
2.8098	93.5037
2.8007	93.7429
2.7917	94.283
2.7827	94.7361
2.7738	95.2615
2.7649	95.7742
2.7561	96.4412
2.7473	97.0408
2.7386	97.4099
2.7299	97.6023
2.7213	97.7224
2.7128	97.8132
2.7043	97.9646
2.6959	97.9265
2.6875	97.9958
2.6791	97.9539
2.6709	97.9783
2.6626	97.9568
2.6545	97.8357
2.6463	97.7742
2.6382	97.7478
2.6302	97.6501
2.6222	97.7712
2.6143	97.6658
2.6064	97.6677
2.5986	97.654
2.5908	97.7908
2.583	97.7419
2.5753	97.6443
2.5677	97.4138
2.5601	97.4978
2.5525	97.4255
2.545	97.488
2.5375	97.5037
2.5301	97.3669
2.5227	97.3474
2.5154	97.4216
2.5081	97.3708
2.5008	97.3689
2.4936	97.2888
2.4864	97.3201
2.4793	97.4021
2.4722	97.2537
2.4651	97.3357
2.4581	97.3689
2.4511	97.1677
2.4442	96.947
2.4373	97.1892
2.4305	97.3396
2.4236	97.0896
2.4169	97.0876
2.4101	97.2439
2.4034	96.9646
2.3967	97.0564
2.3901	96.8845
2.3835	97.0642
2.377	97.1814
2.3704	97.0779
2.364	96.8826
2.3575	96.7048
2.3511	96.7263
2.3447	97.156
2.3384	96.8533
2.3321	96.9138
2.3258	96.8123
2.3195	96.8376
2.3133	96.9451
2.3071	96.8689
2.301	96.8533
2.2949	97.0251
2.2888	97.0349
2.2828	96.6638
2.2767	96.7283
2.2708	96.613
2.2648	96.6794
2.2589	96.7927
2.253	96.8552
2.2471	96.7302
2.2413	96.7146
2.2355	96.8318
2.2297	96.6013
2.224	96.4998
2.2183	96.7185
2.2126	96.6873
2.207	96.7029
2.2013	96.7302
2.1957	96.7419
2.1902	96.5818
2.1846	96.6716
2.1791	96.5466
2.1736	96.656
2.1682	96.6716
2.1628	96.824
2.1574	96.7693
2.152	96.5818
2.1466	96.4607
2.1413	96.7068
2.136	96.656
2.1308	96.6794
2.1255	96.4568
2.1203	96.7966
2.1151	96.5232
2.11	96.6013
2.1048	96.2107
2.0997	96.6873
2.0946	96.4998
2.0895	96.7068
2.0845	96.6873
2.0795	96.2263
