Name: Vesuvianite Ca_10(Mg,Fe^2+)_2Al_4(Si_2O_7)_2(SiO_4)_5(OH,F)_4
Type: Mineral
Class: Silicate
Subclass: Sorosilicate
Particle Size: Medium
Sample No.: SS-3A
Owner: JPL
Wavelength Range: VSWIR
Origin: USA, California, Riverside County, Crestmore Quarry.
Description: Particle size was 45-125um.Collected by:  Burminco Original ASTER Spectral Library name was jpl.perkin.mineral.silicate.sorosilicate.medium.ss03a.spectrum.txt
Measurement: Hemispherical reflectance
X Units: Wavelength (micrometers)
Y Units: Reflectance (percent)
wavelength	value
2.5	35.6454
2.494	35.5017
2.488	35.5481
2.482	35.5718
2.476	35.8084
2.47	35.8355
2.464	36.0044
2.458	35.894
2.452	35.8797
2.446	35.6604
2.44	35.5667
2.434	35.3933
2.428	35.4712
2.422	35.5485
2.416	35.5688
2.41	35.6651
2.404	35.7681
2.398	35.9792
2.392	36.2136
2.386	36.416
2.38	36.4828
2.374	36.2218
2.368	35.9531
2.362	35.4296
2.356	35.0478
2.35	34.8645
2.344	35.2692
2.338	36.1454
2.332	37.2336
2.326	38.1688
2.32	38.9485
2.314	39.3445
2.308	39.6744
2.302	40.2773
2.296	41.2601
2.29	42.2968
2.284	43.2534
2.278	44.0381
2.272	44.5997
2.266	45.2968
2.26	46.1922
2.254	47.0821
2.248	48.1057
2.242	48.8869
2.236	49.5748
2.23	50.0383
2.224	50.4154
2.218	50.6825
2.212	51.2764
2.206	52.2635
2.2	53.7399
2.194	54.9697
2.188	55.8638
2.182	56.4422
2.176	56.8758
2.17	57.3264
2.164	57.6418
2.158	57.7697
2.152	57.6881
2.146	57.8698
2.14	58.6333
2.134	59.5511
2.128	60.637
2.122	61.5987
2.116	62.4453
2.11	63.3574
2.104	64.0482
2.098	64.8319
2.092	65.5222
2.086	66.1876
2.08	66.635
2.074	66.9734
2.068	67.2362
2.062	67.3834
2.056	67.5262
2.05	67.7656
2.044	68.0555
2.038	68.1706
2.032	68.2208
2.026	68.1154
2.02	67.8302
2.014	67.7866
2.008	67.6738
2.002	67.4282
1.996	66.8653
1.99	66.087
1.984	66.0364
1.978	66.756
1.972	67.3483
1.966	67.6699
1.96	68.3341
1.954	68.9721
1.948	69.3227
1.942	69.7259
1.936	69.9011
1.93	70.2005
1.924	70.3765
1.918	70.7466
1.912	71.0127
1.906	71.364
1.9	71.7317
1.894	72.1343
1.888	72.5393
1.882	72.846
1.876	73.0475
1.87	73.3743
1.864	73.6668
1.858	73.8411
1.852	74.0268
1.846	74.1674
1.84	74.3461
1.834	74.4612
1.828	74.6875
1.822	74.8998
1.816	75.0463
1.81	75.1527
1.804	75.2552
1.798	75.3482
1.792	75.44
1.786	75.4445
1.78	75.4608
1.774	75.5132
1.768	75.6027
1.762	75.6543
1.756	75.7693
1.75	75.895
1.744	75.9793
1.738	75.9986
1.732	76.0894
1.726	76.1781
1.72	76.2077
1.714	76.3398
1.708	76.2938
1.702	76.373
1.696	76.436
1.69	76.4901
1.684	76.6088
1.678	76.7613
1.672	76.8724
1.666	77.0059
1.66	77.2405
1.654	77.3437
1.648	77.4728
1.642	77.7458
1.636	77.8242
1.63	77.9044
1.624	78.1068
1.618	78.3151
1.612	78.4471
1.606	78.4812
1.6	78.6447
1.594	78.5763
1.588	78.6267
1.582	78.8405
1.576	78.8244
1.57	78.8399
1.564	78.8812
1.558	78.8786
1.552	78.8091
1.546	78.8555
1.54	78.7748
1.534	78.7719
1.528	78.7153
1.522	78.5843
1.516	78.5063
1.51	78.2615
1.504	78.0926
1.498	77.8374
1.492	77.5917
1.486	77.2292
1.48	76.9359
1.474	76.5347
1.468	76.2047
1.462	75.846
1.456	75.5832
1.45	75.2398
1.444	74.0582
1.438	72.2499
1.432	72.4482
1.426	74.4457
1.42	74.4892
1.414	72.107
1.408	70.3071
1.402	70.1106
1.396	70.1033
1.39	73.0753
1.384	77.5031
1.378	79.305
1.372	80.0756
1.366	80.448
1.36	80.7261
1.354	80.9729
1.348	81.0356
1.342	81.1572
1.336	81.2034
1.33	81.1948
1.324	81.1647
1.318	81.1748
1.312	81.2276
1.306	81.1367
1.3	81.1767
1.294	81.0822
1.288	80.9588
1.282	80.8881
1.276	80.8113
1.27	80.7646
1.264	80.5457
1.258	80.5453
1.252	80.5327
1.246	80.49
1.24	80.4638
1.234	80.3462
1.228	80.1975
1.222	80.0929
1.216	79.9907
1.21	79.8304
1.204	79.6845
1.198	79.5001
1.192	79.3526
1.186	79.2341
1.18	78.9851
1.174	78.9543
1.168	78.7829
1.162	78.653
1.156	78.4875
1.15	78.2322
1.144	78.1384
1.138	77.9804
1.132	77.8948
1.126	77.7331
1.12	77.5786
1.114	77.5379
1.108	77.2828
1.102	77.229
1.096	77.061
1.09	76.9787
1.084	76.921
1.078	76.7813
1.072	76.6666
1.066	76.6429
1.06	76.4857
1.054	76.4631
1.048	76.29
1.042	76.3031
1.036	76.1202
1.03	75.9894
1.024	75.9801
1.018	75.7564
1.012	75.6366
1.006	75.4878
1	75.2577
0.994	75.001
0.988	74.7021
0.982	74.2224
0.976	73.6905
0.97	73.0539
0.964	72.0051
0.958	70.8091
0.952	69.6238
0.946	68.5189
0.94	67.5023
0.934	67.4415
0.928	67.8056
0.922	68.3182
0.916	68.8575
0.91	69.5126
0.904	70.2405
0.898	70.8016
0.892	71.3012
0.886	71.8062
0.88	72.1746
0.874	72.4224
0.868	72.6501
0.862	72.9802
0.856	73.5784
0.85	73.8348
0.844	74.0466
0.838	74.1439
0.832	74.273
0.826	74.3287
0.82	74.4021
0.814	74.3774
0.808	74.403
0.802	74.4177
0.796	74.366
0.79	74.3592
0.784	74.2797
0.778	74.2005
0.772	74.1596
0.766	74.0765
0.76	74.0354
0.754	74.0038
0.748	73.9074
0.742	73.8326
0.736	73.7597
0.73	73.7206
0.724	73.593
0.718	73.5092
0.712	73.3339
0.706	73.1484
0.7	72.9042
0.694	72.6399
0.688	72.3643
0.682	72.0624
0.676	71.7275
0.67	71.3836
0.664	71.0349
0.658	70.7164
0.652	70.4071
0.646	70.1143
0.64	69.7909
0.634	69.4796
0.628	69.1755
0.622	68.9486
0.616	68.8792
0.61	68.8549
0.604	68.745
0.598	68.6155
0.592	68.485
0.586	68.2923
0.58	68.0928
0.574	67.8958
0.568	67.6085
0.562	67.275
0.556	66.9209
0.55	66.5262
0.544	66.0574
0.538	65.509
0.532	65.0138
0.526	64.752
0.52	64.8174
0.514	64.8465
0.508	64.6952
0.502	64.2503
0.496	63.4547
0.49	62.348
0.484	61.1536
0.478	59.7444
0.472	57.6586
0.466	54.3087
0.46	50.764
0.454	49.5918
0.448	47.1194
0.442	44.7384
0.436	43.0589
0.43	41.4886
0.424	39.5986
0.418	37.617
0.412	36.0942
0.406	34.3772
0.4	32.1024
