Name: Gypsum (selenite) CaSO4.2H2O
Type: Mineral
Class: Sulfate
Subclass: None
Particle Size: Fine
Sample No.: gypsum_2
Owner: JHU
Wavelength Range: TIR
Origin: Washington Co., Vermont, from Hunt and Salisbury Collection#333B.
Description: The sample appears to be pure semi-transparent gypsum. Particle size was less than 2 micrometers. Original ASTER Spectral Library name was jhu.nicolet.mineral.sulfate.none.powder.gypsum2.spectrum.txt
Measurement: Transmission
X Units: Wavelength (micrometers)
Y Units: Transmittance (percent)
wavelength	value
25.0442	86.742
24.3388	86.2849
23.6719	86.3943
23.0407	87.281
22.4422	86.5115
21.8741	86.447
21.334	86.7205
20.8199	87.9568
20.33	88.5466
19.8627	89.5447
19.4163	90.4646
18.9896	90.8865
18.5812	91.0007
18.19	90.9627
17.815	90.3797
17.4551	89.2
17.1094	86.7117
16.7772	73.3397
16.4576	70.6307
16.15	82.7967
15.8537	86.2859
15.568	89.6931
15.2925	82.3787
15.0265	72.5877
14.7697	84.5408
14.5214	91.8992
14.2814	93.3425
14.0492	93.6433
13.8244	94.1038
13.6067	94.3987
13.3957	94.7893
13.1912	95.0056
12.9929	95.0295
12.8004	95.1345
12.6135	95.178
12.432	95.3713
12.2557	95.4158
12.0843	95.5217
11.9176	95.5759
11.7555	95.5374
11.5977	95.6936
11.444	94.5544
11.2944	95.5999
11.1487	95.7678
11.0067	95.7146
10.8682	95.8381
10.7332	95.3591
10.6015	95.5876
10.473	95.3259
10.3476	95.1487
10.2251	94.6702
10.1056	93.7507
9.9887	91.4651
9.8746	90.4509
9.763	92.4045
9.6539	91.0447
9.5472	89.1311
9.4429	85.8972
9.3408	79.1346
9.2409	65.6092
9.1431	48.3539
9.0474	41.3212
8.9536	32.3642
8.8618	31.516
8.7718	26.207
8.6837	24.3828
8.5973	28.4531
8.5126	36.4423
8.4295	50.0638
8.3481	63.6395
8.2682	74.0545
8.1898	81.8064
8.1129	87.551
8.0374	90.3467
7.9634	91.8679
7.8906	92.8821
7.8192	93.6426
7.7491	94.1084
7.6802	94.5623
7.6126	94.9453
7.5461	95.292
7.4807	95.5247
7.4165	95.7332
7.3534	95.6973
7.2914	95.6846
7.2303	95.5361
7.1703	94.9795
7.1113	94.2344
7.0533	93.2148
6.9962	91.9622
6.94	91.4338
6.8847	91.3584
6.8302	91.8045
6.7767	92.6504
6.7239	93.9275
6.672	95.0056
6.6209	95.6833
6.5705	96.1687
6.5209	96.2888
6.4721	96.3457
6.424	96.4912
6.3766	96.4822
6.3299	96.1199
6.2838	95.5527
6.2385	93.9277
6.1937	85.5877
6.1496	81.6084
6.1062	90.5674
6.0633	93.6621
6.0211	94.5488
5.9794	94.6501
5.9383	92.3926
5.8978	95.2087
5.8578	96.5637
5.8184	97.1074
5.7794	97.321
5.741	97.5041
5.7031	97.6609
5.6657	97.78
5.6288	97.823
5.5924	97.7849
5.5564	97.8523
5.5209	97.9346
5.4859	97.9158
5.4513	97.99
5.4171	98.0449
5.3833	98.0798
5.35	98.0994
5.3171	98.1179
5.2846	98.2139
5.2524	98.2331
5.2207	98.2439
5.1893	98.2263
5.1584	98.2656
5.1277	98.3086
5.0975	98.3601
5.0676	98.2869
5.038	98.2751
5.0088	98.2839
4.98	98.2664
4.9514	98.3318
4.9232	98.3215
4.8953	98.2449
4.8678	98.2522
4.8405	98.1853
4.8135	98.1291
4.7868	97.9446
4.7605	97.7068
4.7344	97.5373
4.7086	97.4695
4.6831	97.531
4.6578	97.5613
4.6328	97.655
4.6081	97.7136
4.5837	97.6648
4.5595	97.5706
4.5356	97.4299
4.5119	97.3664
4.4884	97.3445
4.4652	97.4778
4.4423	97.4519
4.4196	97.6428
4.3971	97.7527
4.3748	97.8889
4.3528	97.9636
4.331	98.094
4.3094	98.2131
4.288	98.3254
4.2668	98.3708
4.2458	98.4978
4.2251	98.5369
4.2045	98.5608
4.1841	98.6589
4.164	98.7327
4.144	98.7165
4.1242	98.7156
4.1046	98.6697
4.0852	98.676
4.066	98.6697
4.047	98.6794
4.0281	98.7302
4.0094	98.741
3.9909	98.6389
3.9725	98.6038
3.9544	98.7385
3.9363	98.7761
3.9185	98.7859
3.9008	98.7136
3.8833	98.8713
3.8659	98.7781
3.8487	98.7283
3.8316	98.8328
3.8147	98.7742
3.7979	98.8728
3.7813	98.9499
3.7648	98.8147
3.7485	98.8337
3.7323	98.8572
3.7162	98.782
3.7003	98.7737
3.6845	98.824
3.6689	98.7756
3.6534	98.781
3.638	98.7541
3.6227	98.7234
3.6076	98.7136
3.5926	98.7615
3.5777	98.7634
3.563	98.7361
3.5484	98.7244
3.5338	98.6999
3.5195	98.7112
3.5052	98.8142
3.491	98.7869
3.477	98.7068
3.463	98.5925
3.4492	98.6936
3.4355	98.6858
3.4219	98.7302
3.4084	98.5544
3.395	98.4377
3.3817	98.3816
3.3685	98.3518
3.3554	98.0925
3.3425	98.0178
3.3296	97.9729
3.3168	97.8206
3.3041	97.7009
3.2915	97.5784
3.279	97.51
3.2666	97.2732
3.2543	97.1482
3.2421	96.988
3.23	96.6892
3.218	96.4885
3.206	96.1858
3.1942	95.8337
3.1824	95.5974
3.1707	95.2361
3.1591	94.6599
3.1476	94.1169
3.1362	93.6912
3.1249	93.2078
3.1136	92.8679
3.1024	92.0603
3.0913	91.2742
3.0803	90.3982
3.0694	90.8162
3.0585	90.3836
3.0477	89.8884
3.037	89.0672
3.0264	88.4324
3.0158	87.4666
3.0053	86.5174
2.9949	85.697
2.9845	85.1961
2.9743	84.0838
2.9641	81.8826
2.9539	77.9744
2.9439	72.9734
2.9339	70.6092
2.9239	74.2772
2.9141	78.9822
2.9043	82.0047
2.8946	83.3367
2.8849	83.5388
2.8753	82.657
2.8658	81.0711
2.8563	79.949
2.8469	78.0984
2.8375	74.2469
2.8282	69.2069
2.819	65.7381
2.8098	66.8123
2.8007	71.6033
2.7917	75.868
2.7827	76.9744
2.7738	76.5545
2.7649	77.6131
2.7561	81.6482
2.7473	86.3211
2.7386	89.825
2.7299	91.6257
2.7213	93.0642
2.7128	93.8064
2.7043	94.3201
2.6959	94.7351
2.6875	94.9334
2.6791	95.2859
2.6709	95.4568
2.6626	95.446
2.6545	95.4617
2.6463	95.6726
2.6382	95.7976
2.6302	95.7029
2.6222	95.8132
2.6143	95.9031
2.6064	95.8787
2.5986	95.7703
2.5908	96.2029
2.583	96.1013
2.5753	96.032
2.5677	95.9998
2.5601	95.7322
2.5525	95.8767
2.545	95.908
2.5375	96.2361
2.5301	95.7986
2.5227	95.7244
2.5154	95.9138
2.5081	95.8611
2.5008	95.7869
2.4936	95.8455
2.4864	96.0662
2.4793	95.572
2.4722	95.7263
2.4651	95.6248
2.4581	95.8318
2.4511	95.7966
2.4442	95.658
2.4373	95.6814
2.4305	95.7947
2.4236	95.8611
2.4169	95.8123
2.4101	95.7849
2.4034	95.8943
2.3967	95.8748
2.3901	95.6794
2.3835	95.8396
2.377	95.658
2.3704	95.6677
2.364	95.738
2.3575	95.8162
2.3511	95.5466
2.3447	96.2283
2.3384	95.7029
2.3321	95.3611
2.3258	95.8767
2.3195	95.9021
2.3133	96.0271
2.3071	95.5115
2.301	96.2908
2.2949	95.7302
2.2888	96.1248
2.2828	95.5623
2.2767	96.033
2.2708	95.7126
2.2648	96.0798
2.2589	96.0095
2.253	96.1736
2.2471	96.0388
2.2413	95.8826
2.2355	95.9861
2.2297	96.4783
2.224	95.8689
2.2183	95.822
2.2126	96.1423
2.207	96.0701
2.2013	96.1345
2.1957	96.0583
2.1902	96.033
2.1846	96.0701
2.1791	95.9373
2.1736	96.3201
2.1682	96.3513
2.1628	96.6365
2.1574	96.656
2.152	96.281
2.1466	96.199
2.1413	96.3787
2.136	96.3943
2.1308	96.2029
2.1255	96.4099
2.1203	96.2576
2.1151	96.4451
2.11	96.7029
2.1048	96.531
2.0997	96.8552
2.0946	96.7458
2.0895	96.7771
2.0845	96.8123
2.0795	96.9646
