Name: Galena PbS
Type: Mineral
Class: Sulfide
Subclass: None
Particle Size: Fine
Sample No.: S-7A
Owner: JPL
Wavelength Range: TIR
Origin: USA, Kansas, Cherokee County, Galena
Description: Particle size was 0-45um.Collected by Grieger's Inc. Original ASTER Spectral Library name was jpl.nicolet.mineral.sulfide.none.fine.s07a.spectrum.txt
Measurement: Hemispherical reflectance
X Units: Wavelength (micrometers)
Y Units: Reflectance (percent)
wavelength	value
15.3853	11.5185
15.1161	12.4434
14.8563	12.5284
14.6052	12.7044
14.3624	13.01
14.1276	13.0785
13.9004	13.5054
13.6803	13.774
13.4671	14.034
13.2604	14.3248
13.06	14.5676
12.8656	14.8921
12.6769	15.0596
12.4936	15.4049
12.3155	15.42
12.1425	15.588
11.9742	15.569
11.8106	15.653
11.6513	15.9611
11.4963	15.6893
11.3454	15.9274
11.1983	16.252
11.0551	16.4348
10.9154	16.7349
10.7793	16.7862
10.6465	17.095
10.5169	17.4226
10.3904	17.3756
10.267	17.729
10.1464	17.9242
10.0287	17.9292
9.9136	17.785
9.8012	17.6333
9.6913	17.3827
9.5838	17.1147
9.4787	16.8775
9.3758	16.7361
9.2752	16.6527
9.1767	16.6395
9.0803	16.8033
8.9858	16.9972
8.8934	17.1337
8.8028	17.0587
8.714	17.0091
8.627	17.1529
8.5417	17.1764
8.4581	17.32
8.3761	17.9243
8.2957	19.0332
8.2169	20.2532
8.1395	21.2325
8.0635	21.8437
7.989	22.1173
7.9158	22.4036
7.8439	22.7911
7.7734	23.1841
7.7041	23.5557
7.636	23.8926
7.5691	24.1635
7.5034	23.967
7.4388	24.2278
7.3753	24.235
7.3129	24.3691
7.2515	24.537
7.1912	24.5173
7.1318	24.6559
7.0734	24.7932
7.016	24.912
6.9595	25.7167
6.9039	25.4231
6.8492	25.8191
6.7953	26.465
6.7423	26.1149
6.6901	26.7777
6.6387	28.4029
6.5881	27.4416
6.5382	27.0372
6.4892	28.8467
6.4408	27.4727
6.3931	27.6444
6.3462	28.8883
6.2999	27.9557
6.2543	28.2244
6.2094	28.5535
6.1651	28.8644
6.1214	29.4329
6.0784	29.8732
6.0359	29.7058
5.994	30.255
5.9527	30.0583
5.912	30.0592
5.8718	30.8458
5.8322	30.8687
5.7931	30.3203
5.7545	30.7406
5.7165	31.2696
5.6789	31.2328
5.6418	31.9659
5.6052	31.3363
5.5691	31.455
5.5334	31.4785
5.4982	31.5368
5.4635	32.1489
5.4291	32.1377
5.3952	32.0474
5.3618	32.2399
5.3287	32.284
5.2961	32.4641
5.2638	32.5514
5.2319	32.7419
5.2004	32.8765
5.1693	32.9124
5.1386	33.0313
5.1082	33.1647
5.0782	33.2893
5.0485	33.4076
5.0192	33.5072
4.9902	33.5457
4.9616	33.7231
4.9332	33.7695
4.9052	33.809
4.8776	34.0402
4.8502	34.0496
4.8231	34.2576
4.7963	34.3851
4.7699	34.4904
4.7437	34.512
4.7178	34.7294
4.6922	34.7667
4.6668	34.9475
4.6418	35.0561
4.617	35.1025
4.5924	35.317
4.5681	35.4398
4.5441	35.4421
4.5203	35.6438
4.4968	35.7929
4.4735	35.8622
4.4505	35.9527
4.4277	36.0614
4.4051	36.2427
4.3828	36.2493
4.3607	36.4215
4.3388	36.413
4.3171	36.2827
4.2956	36.0033
4.2744	35.8499
4.2534	36.3629
4.2325	35.7187
4.2119	36.5339
4.1915	37.1209
4.1712	37.019
4.1512	37.06
4.1313	37.1989
4.1117	37.3209
4.0922	37.4371
4.0729	37.5639
4.0538	37.5231
4.0349	37.7397
4.0161	37.7439
3.9976	37.7603
3.9792	37.7376
3.9609	37.7817
3.9428	37.8404
3.9249	38.1504
3.9072	37.994
3.8896	38.1597
3.8722	38.218
3.8549	38.1593
3.8378	38.3605
3.8208	38.293
3.804	38.2907
3.7873	38.3051
3.7708	38.3344
3.7544	38.3569
3.7382	38.3342
3.7221	38.2227
3.7061	38.3706
3.6903	38.2387
3.6746	38.2226
3.659	38.0061
3.6436	37.8843
3.6283	37.763
3.6131	37.8114
3.5981	37.5864
3.5832	37.5401
3.5684	37.2879
3.5537	37.1372
3.5391	36.9617
3.5247	36.6459
3.5104	36.2791
3.4962	35.9548
3.4821	35.8705
3.4681	35.5548
3.4543	35.2458
3.4405	34.9357
3.4269	34.3889
3.4133	33.9041
3.3999	33.7336
3.3866	33.3667
3.3733	32.884
3.3602	32.628
3.3472	32.1072
3.3343	31.6112
3.3215	31.1803
3.3088	30.5134
3.2961	30.0093
3.2836	29.2948
3.2712	28.8366
3.2588	28.1289
3.2466	27.4472
3.2345	26.8123
3.2224	26.0053
3.2104	25.4235
3.1985	24.7293
3.1867	23.9232
3.175	23.1685
3.1634	22.6073
3.1519	21.9511
3.1404	21.1432
3.129	20.5791
3.1178	20.017
3.1065	19.18
3.0954	18.7136
3.0844	18.0922
3.0734	17.5746
3.0625	16.9971
3.0517	16.4422
3.041	16.1062
3.0303	15.396
3.0197	14.9966
3.0092	14.6066
2.9987	14.2306
2.9884	14.0492
2.9781	13.459
2.9678	13.3944
2.9577	13.0122
2.9476	12.8835
2.9376	12.6009
2.9276	12.4933
2.9177	12.3636
2.9079	12.0337
2.8982	12.0506
2.8885	11.8429
2.8789	11.7708
2.8693	11.7525
2.8598	11.4636
2.8504	11.3975
2.841	11.3214
2.8317	11.2569
2.8224	11.2145
2.8133	11.0814
2.8041	11.3319
2.7951	10.921
2.786	11.1964
2.7771	11.0946
2.7682	11.0859
2.7594	10.9419
2.7506	11.0373
2.7418	10.9257
2.7332	10.8236
2.7246	10.9766
2.716	10.5486
2.7075	10.8004
2.699	10.6356
2.6906	10.6574
2.6823	10.6527
2.674	10.6039
2.6657	11.0839
2.6575	10.4772
2.6494	10.4052
2.6413	10.4294
2.6332	10.5397
2.6252	10.6299
2.6173	10.9177
2.6094	10.3863
2.6015	10.6883
2.5937	10.9689
2.5859	10.5239
2.5782	10.3279
2.5706	10.5121
2.5629	10.5477
2.5554	10.4331
2.5478	10.3439
2.5403	10.4817
2.5329	10.3151
2.5255	10.2886
2.5181	10.2098
2.5108	10.1678
2.5035	10.3548
2.4963	10.4072
2.4891	10.2466
2.482	10.3175
2.4749	10.3346
2.4678	10.3589
2.4608	10.5053
2.4538	10.5199
2.4468	10.1277
2.4399	10.3232
2.4331	10.4671
2.4262	10.1922
2.4194	10.2494
2.4127	10.2083
2.4059	10.2835
2.3993	10.256
2.3926	10.3847
2.386	10.1665
2.3795	10.2097
2.3729	10.3191
2.3664	10.2646
2.36	10.3512
2.3535	10.3838
2.3471	10.3651
2.3408	10.3016
2.3345	10.1365
2.3282	10.3179
2.3219	10.2582
2.3157	10.2069
2.3095	10.1306
2.3034	10.0665
2.2972	10.2239
2.2911	10.0691
2.2851	10.1104
2.279	10.2289
2.2731	10.1424
2.2671	10.1747
2.2612	10.1982
2.2553	10.2129
2.2494	10.387
2.2435	10.2513
2.2377	10.3038
2.232	10.2718
2.2262	10.1526
2.2205	10.205
2.2148	10.4828
2.2091	10.3517
2.2035	10.3958
2.1979	10.2739
2.1923	10.3456
2.1868	9.9721
2.1812	10.5038
2.1758	10.1644
2.1703	10.4689
2.1649	10.1517
2.1595	10.4247
2.1541	10.3018
2.1487	10.0731
2.1434	10.3037
2.1381	10.6308
2.1328	10.1243
2.1275	10.3817
2.1223	10.2702
2.1171	10.2233
2.112	10.3889
2.1068	10.3388
2.1017	10.4535
2.0966	10.2536
2.0915	10.614
2.0865	10.4447
2.0814	10.5186
2.0764	10.0031
2.0715	10.1946
2.0665	10.1907
2.0616	10.2254
2.0567	10.2899
2.0518	10.2818
2.0469	10.169
2.0421	10.6268
2.0373	10.5228
2.0325	10.378
2.0277	10.0459
2.0229	10.019
2.0182	10.3048
2.0135	10.3879
2.0088	10.2878
2.0042	10.4928
