Name: Stilbite NaCa_2Al_5Si_3O_36.14H_2O
Type: Mineral
Class: Silicate
Subclass: Tectosilicate
Particle Size: Coarse
Sample No.: TS-9A
Owner: JPL
Wavelength Range: TIR
Origin: India
Description: Particle size was 125-500um.Collected by Grieger's Inc. Original ASTER Spectral Library name was jpl.nicolet.mineral.silicate.tectosilicate.coarse.ts09a.spectrum.txt
Measurement: Hemispherical reflectance
X Units: Wavelength (micrometers)
Y Units: Reflectance (percent)
wavelength	value
15.3853	1.1267
15.1161	1.3118
14.8563	1.5328
14.6052	1.8907
14.3624	1.7207
14.1276	2.1151
13.9004	1.6979
13.6803	1.9082
13.4671	1.7885
13.2604	1.8535
13.06	1.8285
12.8656	2.012
12.6769	1.932
12.4936	1.8776
12.3155	1.991
12.1425	2.2113
11.9742	2.6552
11.8106	2.6533
11.6513	3.1332
11.4963	3.1907
11.3454	3.6846
11.1983	4.0934
11.0551	4.3354
10.9154	4.5451
10.7793	5.3418
10.6465	5.8637
10.5169	6.9031
10.3904	8.0473
10.267	9.7823
10.1464	11.7386
10.0287	13.5592
9.9136	15.014
9.8012	17.2938
9.6913	19.1488
9.5838	20.9575
9.4787	22.1543
9.3758	22.8383
9.2752	19.8194
9.1767	14.3266
9.0803	9.9851
8.9858	7.5592
8.8934	6.5504
8.8028	6.0079
8.714	5.6643
8.627	5.3584
8.5417	4.6158
8.4581	4.0539
8.3761	3.4021
8.2957	2.2785
8.2169	1.0045
8.1395	0.3515
8.0635	0.1614
7.989	0.0946
7.9158	0.1572
7.8439	0.0639
7.7734	0.1716
7.7041	0.2035
7.636	0.2201
7.5691	0.2378
7.5034	0.3847
7.4388	0.353
7.3753	0.423
7.3129	0.4787
7.2515	0.599
7.1912	0.6006
7.1318	0.5938
7.0734	0.7582
7.016	0.7205
6.9595	0.706
6.9039	0.858
6.8492	0.9034
6.7953	0.868
6.7423	0.8849
6.6901	0.889
6.6387	1.082
6.5881	0.981
6.5382	1.0221
6.4892	1.1393
6.4408	1.2049
6.3931	1.0889
6.3462	1.1942
6.2999	1.2825
6.2543	1.2942
6.2094	1.393
6.1651	1.5692
6.1214	1.4189
6.0784	1.0766
6.0359	0.9094
5.994	0.7906
5.9527	0.882
5.912	0.8685
5.8718	0.8265
5.8322	1.0231
5.7931	1.0569
5.7545	1.1451
5.7165	1.0931
5.6789	1.3358
5.6418	1.2861
5.6052	1.3108
5.5691	1.422
5.5334	1.3838
5.4982	1.619
5.4635	1.4776
5.4291	1.6463
5.3952	1.6577
5.3618	1.7181
5.3287	1.8296
5.2961	1.8733
5.2638	1.9421
5.2319	1.9345
5.2004	2.0934
5.1693	2.1547
5.1386	2.1332
5.1082	2.4127
5.0782	2.5277
5.0485	2.5593
5.0192	2.6273
4.9902	2.6147
4.9616	2.7667
4.9332	2.6632
4.9052	2.5548
4.8776	2.5378
4.8502	2.5234
4.8231	2.5704
4.7963	2.5247
4.7699	2.4552
4.7437	2.5013
4.7178	2.3009
4.6922	2.3389
4.6668	2.3811
4.6418	2.2825
4.617	2.3224
4.5924	2.4628
4.5681	2.4282
4.5441	2.4207
4.5203	2.4052
4.4968	2.4549
4.4735	2.5531
4.4505	2.6079
4.4277	2.7154
4.4051	2.684
4.3828	2.967
4.3607	3.0689
4.3388	3.2632
4.3171	3.3622
4.2956	3.5791
4.2744	3.6968
4.2534	4.0351
4.2325	4.3444
4.2119	4.5821
4.1915	5.1721
4.1712	5.6514
4.1512	5.9844
4.1313	6.3695
4.1117	6.864
4.0922	7.2889
4.0729	7.7442
4.0538	8.2674
4.0349	8.6422
4.0161	9.1201
3.9976	9.5078
3.9792	9.8847
3.9609	10.2543
3.9428	10.4673
3.9249	10.582
3.9072	10.7933
3.8896	10.8372
3.8722	10.7559
3.8549	10.7757
3.8378	10.6424
3.8208	10.5875
3.804	10.3012
3.7873	10.1846
3.7708	9.8928
3.7544	9.701
3.7382	9.2325
3.7221	8.9913
3.7061	8.781
3.6903	8.3981
3.6746	7.9818
3.659	7.7522
3.6436	7.3994
3.6283	6.9047
3.6131	6.5738
3.5981	6.3788
3.5832	5.9855
3.5684	5.8014
3.5537	5.3684
3.5391	4.9711
3.5247	4.7448
3.5104	4.5431
3.4962	4.3793
3.4821	4.0231
3.4681	3.8471
3.4543	3.712
3.4405	3.4983
3.4269	3.1783
3.4133	3.0799
3.3999	2.9225
3.3866	2.8362
3.3733	2.6766
3.3602	2.7277
3.3472	2.3625
3.3343	2.3797
3.3215	2.4052
3.3088	2.3215
3.2961	2.2574
3.2836	2.1668
3.2712	2.1962
3.2588	2.0872
3.2466	2.0676
3.2345	2.1391
3.2224	2.0517
3.2104	2.1149
3.1985	1.9001
3.1867	2.114
3.175	2.0311
3.1634	2.0398
3.1519	1.9856
3.1404	1.9417
3.129	1.9696
3.1178	1.8522
3.1065	1.9861
3.0954	1.8946
3.0844	1.9244
3.0734	1.9318
3.0625	1.9855
3.0517	1.8165
3.041	2.0037
3.0303	1.753
3.0197	1.9036
3.0092	1.9831
2.9987	2.0361
2.9884	1.9036
2.9781	1.8102
2.9678	1.7117
2.9577	1.8379
2.9476	1.9514
2.9376	1.8979
2.9276	1.8368
2.9177	1.5855
2.9079	1.9273
2.8982	1.9218
2.8885	1.7141
2.8789	1.7794
2.8693	1.6456
2.8598	1.6398
2.8504	1.6546
2.841	1.5323
2.8317	1.6654
2.8224	1.5197
2.8133	1.5907
2.8041	1.423
2.7951	1.4266
2.786	1.6544
2.7771	1.3378
2.7682	1.5278
2.7594	1.3308
2.7506	1.2599
2.7418	1.1693
2.7332	1.4232
2.7246	1.2803
2.716	1.2969
2.7075	1.4105
2.699	1.7611
2.6906	1.6234
2.6823	1.9337
2.674	1.8834
2.6657	2.0124
2.6575	2.067
2.6494	2.1551
2.6413	2.2576
2.6332	2.7232
2.6252	2.5048
2.6173	2.464
2.6094	2.8136
2.6015	2.7839
2.5937	2.6196
2.5859	2.8601
2.5782	2.7788
2.5706	2.8086
2.5629	2.9297
2.5554	3.0558
2.5478	3.1185
2.5403	3.2893
2.5329	3.554
2.5255	3.3965
2.5181	3.6047
2.5108	3.6156
2.5035	3.9434
2.4963	3.9663
2.4891	4.0521
2.482	4.3751
2.4749	4.282
2.4678	4.4036
2.4608	4.5142
2.4538	4.7737
2.4468	4.8646
2.4399	5.0292
2.4331	5.2215
2.4262	5.6119
2.4194	6.0458
2.4127	6.2672
2.4059	7.2822
2.3993	7.6076
2.3926	8.6747
2.386	9.5028
2.3795	10.6167
2.3729	11.9485
2.3664	13.3271
2.36	14.1835
2.3535	15.698
2.3471	17.1388
2.3408	17.9412
2.3345	19.3354
2.3282	20.4223
2.3219	21.3623
2.3157	22.4034
2.3095	23.4036
2.3034	24.0983
2.2972	24.5435
2.2911	25.4442
2.2851	26.1944
2.279	26.6723
2.2731	27.0132
2.2671	27.705
2.2612	27.981
2.2553	28.2967
2.2494	28.6504
2.2435	28.9995
2.2377	28.8072
2.232	29.3081
2.2262	29.2233
2.2205	29.5872
2.2148	29.3774
2.2091	29.5411
2.2035	29.62
2.1979	29.5688
2.1923	29.6333
2.1868	29.6492
2.1812	29.494
2.1758	29.6889
2.1703	29.4133
2.1649	29.475
2.1595	29.2197
2.1541	29.0943
2.1487	28.77
2.1434	28.7571
2.1381	28.5789
2.1328	28.377
2.1275	27.9172
2.1223	27.8583
2.1171	27.5184
2.112	27.314
2.1068	26.8702
2.1017	26.5503
2.0966	26.3105
2.0915	25.881
2.0865	25.759
2.0814	25.6107
2.0764	25.1358
2.0715	24.4638
2.0665	24.6397
2.0616	24.3861
2.0567	23.7851
2.0518	23.4457
2.0469	23.0308
2.0421	22.4685
2.0373	21.5285
2.0325	20.8711
2.0277	20.1114
2.0229	19.322
2.0182	18.1682
2.0135	17.0592
2.0088	16.1204
2.0042	15.1796
