Name: Montmorillonite (Na,Ca)0.33(Al,Mg)2Si4O10(OH)2.nH2O
Type: Mineral
Class: Silicate
Subclass: Phyllosilicate
Particle Size: Fine
Sample No.: montmor_1
Owner: JHU
Wavelength Range: TIR
Origin: San Diego, California via Clay Mineral Society, Source ClayMineral Repository (#SCa-2CMS)
Description: The sample was a tan, earthy clay. The bulk sample contains a trace of quartz, but <2 micrometers separate is pure montmorillonite.Particle size was Less than 2  micrometers.(Sheet Silicates); (SmectiteGroup) Original ASTER Spectral Library name was jhu.nicolet.mineral.silicate.phyllosilicate.powder.montmo1.spectrum.txt
Measurement: Transmission
X Units: Wavelength (micrometers)
Y Units: Transmittance (percent)
wavelength	value
25.0442	67.0545
24.3388	59.8377
23.6719	52.8475
23.0407	48.8553
22.4422	45.3954
21.8741	41.3602
21.334	38.6347
20.8199	47.3768
20.33	55.9764
19.8627	54.0917
19.4163	47.5726
18.9896	49.0555
18.5812	54.3514
18.19	57.8109
17.815	60.4979
17.4551	62.4222
17.1094	64.7054
16.7772	67.5086
16.4576	69.6111
16.15	70.0506
15.8537	72.5252
15.568	76.9124
15.2925	79.6971
15.0265	81.3694
14.7697	82.7254
14.5214	83.9666
14.2814	85.2029
14.0492	86.8128
13.8244	88.4881
13.6067	89.6775
13.3957	90.7283
13.1912	90.5847
12.9929	89.9717
12.8004	88.4024
12.6135	87.6504
12.432	87.449
12.2557	85.6013
12.0843	81.5996
11.9176	78.7225
11.7555	79.5645
11.5977	79.9856
11.444	78.2491
11.2944	75.7969
11.1487	72.3116
11.0067	67.2767
10.8682	66.4403
10.7332	66.7628
10.6015	63.7952
10.473	57.9269
10.3476	50.9999
10.2251	44.1898
10.1056	38.4545
9.9887	34.1896
9.8746	31.4101
9.763	30.1239
9.6539	30.9057
9.5472	33.7216
9.4429	37.6222
9.3408	41.058
9.2409	43.3058
9.1431	45.7013
9.0474	48.0638
8.9536	50.7855
8.8618	54.6019
8.7718	58.1859
8.6837	61.2196
8.5973	63.9305
8.5126	66.3121
8.4295	68.7796
8.3481	71.4046
8.2682	73.6531
8.1898	75.4524
8.1129	76.888
8.0374	78.1062
7.9634	79.4349
7.8906	80.5494
7.8192	81.2703
7.7491	82.084
7.6802	82.7537
7.6126	83.4339
7.5461	84.0496
7.4807	84.6004
7.4165	85.0896
7.3534	85.5086
7.2914	85.9566
7.2303	86.2468
7.1703	87.0423
7.1113	87.4256
7.0533	87.5252
6.9962	87.72
6.94	88.2727
6.8847	88.5862
6.8302	88.6472
6.7767	88.8367
6.7239	89.1834
6.672	89.532
6.6209	89.8372
6.5705	90.1887
6.5209	90.4539
6.4721	90.699
6.424	90.97
6.3766	91.1008
6.3299	91.1321
6.2838	91.012
6.2385	90.5095
6.1937	88.7879
6.1496	86.3509
6.1062	85.5222
6.0633	86.7864
6.0211	88.7515
5.9794	90.324
5.9383	90.5615
5.8978	90.832
5.8578	91.197
5.8184	91.6167
5.7794	91.9924
5.741	92.2556
5.7031	92.4363
5.6657	92.5545
5.6288	92.7371
5.5924	92.8098
5.5564	92.8113
5.5209	92.8259
5.4859	92.8836
5.4513	92.9392
5.4171	93.0647
5.3833	93.1755
5.35	93.3196
5.3171	93.4485
5.2846	93.574
5.2524	93.6682
5.2207	93.8386
5.1893	93.9163
5.1584	94.0418
5.1277	94.1619
5.0975	94.2415
5.0676	94.3091
5.038	94.4204
5.0088	94.5078
4.98	94.5984
4.9514	94.699
4.9232	94.7751
4.8953	94.8296
4.8678	94.8879
4.8405	94.9622
4.8135	95.0464
4.7868	95.0779
4.7605	95.1453
4.7344	95.1775
4.7086	95.196
4.6831	95.2327
4.6578	95.3174
4.6328	95.3477
4.6081	95.5317
4.5837	95.4272
4.5595	95.4402
4.5356	95.4805
4.5119	95.4734
4.4884	95.5227
4.4652	95.4939
4.4423	95.5432
4.4196	95.5784
4.3971	95.6497
4.3748	95.7397
4.3528	95.7722
4.331	95.7561
4.3094	95.7754
4.288	95.8398
4.2668	95.8801
4.2458	95.9709
4.2251	96.01
4.2045	95.9929
4.1841	96.0823
4.164	96.1387
4.144	96.1018
4.1242	96.1516
4.1046	96.21
4.0852	96.2312
4.066	96.2185
4.047	96.2058
4.0281	96.2332
4.0094	96.2981
3.9909	96.2595
3.9725	96.1931
3.9544	96.3184
3.9363	96.335
3.9185	96.366
3.9008	96.3955
3.8833	96.345
3.8659	96.3191
3.8487	96.3154
3.8316	96.4338
3.8147	96.4456
3.7979	96.4482
3.7813	96.407
3.7648	96.3914
3.7485	96.4011
3.7323	96.4248
3.7162	96.4316
3.7003	96.3691
3.6845	96.3499
3.6689	96.3464
3.6534	96.3557
3.638	96.3459
3.6227	96.3279
3.6076	96.2849
3.5926	96.2385
3.5777	96.2393
3.563	96.1711
3.5484	96.0769
3.5338	96.0986
3.5195	95.991
3.5052	95.9875
3.491	95.8867
3.477	95.8408
3.463	95.8376
3.4492	95.7617
3.4355	95.6721
3.4219	95.6218
3.4084	95.3914
3.395	95.3718
3.3817	95.4207
3.3685	95.4314
3.3554	95.3018
3.3425	95.1824
3.3296	95.0488
3.3168	94.9551
3.3041	94.8359
3.2915	94.7644
3.279	94.6013
3.2666	94.4338
3.2543	94.1804
3.2421	94.0818
3.23	93.8533
3.218	93.613
3.206	93.3455
3.1942	92.9255
3.1824	92.5227
3.1707	92.0881
3.1591	91.6594
3.1476	91.1004
3.1362	90.4548
3.1249	89.8181
3.1136	89.1926
3.1024	88.4324
3.0913	87.7683
3.0803	87.5139
3.0694	87.1262
3.0585	86.6795
3.0477	86.1248
3.037	85.4729
3.0264	84.8631
3.0158	84.0174
3.0053	83.1795
2.9949	82.3836
2.9845	81.6038
2.9743	80.9119
2.9641	80.1267
2.9539	79.6609
2.9439	79.3465
2.9339	79.2019
2.9239	79.1546
2.9141	79.3025
2.9043	79.492
2.8946	79.7381
2.8849	80.0315
2.8753	80.0857
2.8658	80.1546
2.8563	80.6683
2.8469	80.9881
2.8375	81.5135
2.8282	81.9026
2.819	82.2176
2.8098	82.0877
2.8007	81.6663
2.7917	80.4808
2.7827	79.1004
2.7738	77.6214
2.7649	76.6961
2.7561	76.8753
2.7473	79.031
2.7386	81.5965
2.7299	83.2791
2.7213	85.1492
2.7128	86.991
2.7043	89.0906
2.6959	90.5232
2.6875	91.5628
2.6791	92.0628
2.6709	92.3064
2.6626	92.492
2.6545	92.5881
2.6463	92.6443
2.6382	92.7488
2.6302	92.8572
2.6222	92.926
2.6143	93.0593
2.6064	93.032
2.5986	93.0867
2.5908	93.1521
2.583	93.2185
2.5753	93.3337
2.5677	93.325
2.5601	93.3367
2.5525	93.3162
2.545	93.2468
2.5375	93.3318
2.5301	93.3484
2.5227	93.1619
2.5154	93.2244
2.5081	93.4099
2.5008	93.3894
2.4936	93.2615
2.4864	93.45
2.4793	93.3992
2.4722	93.3171
2.4651	93.2664
2.4581	93.2507
2.4511	93.2439
2.4442	93.1375
2.4373	93.2419
2.4305	93.2351
2.4236	93.2341
2.4169	93.1306
2.4101	93.3377
2.4034	93.2869
2.3967	93.1736
2.3901	93.2029
2.3835	93.0945
2.377	93.1091
2.3704	93.2976
2.364	93.282
2.3575	93.156
2.3511	93.2
2.3447	93.2498
2.3384	93.2546
2.3321	93.0203
2.3258	92.8406
2.3195	93.2039
2.3133	93.1638
2.3071	92.9294
2.301	92.9294
2.2949	92.988
2.2888	92.9929
2.2828	92.9177
2.2767	93.0662
2.2708	93.0076
2.2648	92.7976
2.2589	92.6736
2.253	92.864
2.2471	92.699
2.2413	92.742
2.2355	93.2127
2.2297	92.8611
2.224	92.6384
2.2183	92.6912
2.2126	92.7595
2.207	92.7244
2.2013	92.4861
2.1957	92.658
2.1902	92.6013
2.1846	92.6736
2.1791	92.6638
2.1736	92.6052
2.1682	92.7361
2.1628	92.8533
2.1574	92.5095
2.152	92.5584
2.1466	92.4177
2.1413	92.0564
2.136	92.6404
2.1308	92.6658
2.1255	92.6033
2.1203	92.3845
2.1151	92.5388
2.11	92.5466
2.1048	92.4158
2.0997	92.6658
2.0946	92.5564
2.0895	92.5486
2.0845	92.5584
2.0795	92.4783
