Name: Chlorite
Type: Mineral
Class: Silicate
Subclass: Phyllosilicate
Particle Size: Medium
Sample No.: PS-12E
Owner: JPL
Wavelength Range: TIR
Origin: USA, Vermont
Description: Particle size was 45-125um.Collected by Ward's Original ASTER Spectral Library name was jpl.nicolet.mineral.silicate.phyllosilicate.medium.ps12e.spectrum.txt
Measurement: Hemispherical reflectance
X Units: Wavelength (micrometers)
Y Units: Reflectance (percent)
wavelength	value
15.3853	6.2292
15.1161	6.1973
14.8563	4.8303
14.6052	4.0452
14.3624	3.3966
14.1276	2.9032
13.9004	3.2836
13.6803	3.0918
13.4671	3.2548
13.2604	4.1632
13.06	4.2367
12.8656	3.4779
12.6769	2.5783
12.4936	1.9476
12.3155	1.7262
12.1425	1.7313
11.9742	1.7105
11.8106	2.1911
11.6513	2.5768
11.4963	3.2744
11.3454	3.4918
11.1983	4.0087
11.0551	4.4562
10.9154	5.3035
10.7793	6.562
10.6465	8.5491
10.5169	11.1048
10.3904	12.4012
10.267	13.2779
10.1464	15.5353
10.0287	18.5266
9.9136	20.8522
9.8012	22.9055
9.6913	23.6299
9.5838	19.6306
9.4787	16.9909
9.3758	17.8685
9.2752	13.8747
9.1767	7.5622
9.0803	4.1402
8.9858	2.1286
8.8934	1.3517
8.8028	0.8852
8.714	0.7422
8.627	0.8509
8.5417	0.9954
8.4581	1.1943
8.3761	1.338
8.2957	1.4078
8.2169	1.7847
8.1395	2.0298
8.0635	2.2596
7.989	2.5317
7.9158	2.8381
7.8439	3.1617
7.7734	3.2749
7.7041	3.5285
7.636	3.7326
7.5691	3.9598
7.5034	4.1001
7.4388	4.3513
7.3753	4.5194
7.3129	4.8274
7.2515	5.0549
7.1912	5.391
7.1318	5.6649
7.0734	5.8606
7.016	6.2152
6.9595	6.478
6.9039	6.6112
6.8492	6.5895
6.7953	6.8197
6.7423	6.8119
6.6901	6.8342
6.6387	6.8896
6.5881	6.6776
6.5382	6.5103
6.4892	6.5061
6.4408	6.1756
6.3931	5.7725
6.3462	5.5237
6.2999	5.297
6.2543	5.41
6.2094	5.3493
6.1651	5.5356
6.1214	5.6841
6.0784	5.9483
6.0359	6.0614
5.994	6.0858
5.9527	5.9786
5.912	6.0776
5.8718	6.1739
5.8322	6.3913
5.7931	6.5967
5.7545	7.1442
5.7165	7.4966
5.6789	7.7233
5.6418	7.9384
5.6052	7.8984
5.5691	8.0581
5.5334	8.2181
5.4982	8.5617
5.4635	8.9559
5.4291	9.3574
5.3952	9.5852
5.3618	9.7211
5.3287	9.9141
5.2961	10.0118
5.2638	10.0862
5.2319	10.2651
5.2004	10.5233
5.1693	10.6968
5.1386	10.8037
5.1082	10.8493
5.0782	10.8208
5.0485	10.8723
5.0192	10.7403
4.9902	10.7663
4.9616	10.8129
4.9332	11.2872
4.9052	11.8268
4.8776	12.445
4.8502	12.9862
4.8231	13.7745
4.7963	14.4218
4.7699	15.0226
4.7437	15.8194
4.7178	17.0088
4.6922	18.3269
4.6668	19.3765
4.6418	20.3548
4.617	20.8697
4.5924	21.8737
4.5681	23.3767
4.5441	24.1927
4.5203	24.9174
4.4968	25.6402
4.4735	26.1344
4.4505	26.774
4.4277	27.3933
4.4051	27.8456
4.3828	28.1659
4.3607	28.4548
4.3388	28.8464
4.3171	29.2308
4.2956	29.5424
4.2744	30.0161
4.2534	30.1823
4.2325	30.6182
4.2119	30.703
4.1915	30.742
4.1712	31.0542
4.1512	31.2266
4.1313	31.5082
4.1117	31.6011
4.0922	31.6526
4.0729	31.7578
4.0538	31.8636
4.0349	31.9565
4.0161	31.8869
3.9976	31.8722
3.9792	31.9386
3.9609	31.9142
3.9428	31.8315
3.9249	31.8469
3.9072	31.7739
3.8896	31.7304
3.8722	31.6215
3.8549	31.2897
3.8378	31.0332
3.8208	30.8789
3.804	30.7734
3.7873	30.5923
3.7708	30.4598
3.7544	30.2586
3.7382	30.0177
3.7221	29.8906
3.7061	29.4984
3.6903	29.2928
3.6746	29.0387
3.659	28.7312
3.6436	28.3654
3.6283	27.9658
3.6131	27.4384
3.5981	26.9457
3.5832	26.3696
3.5684	25.6312
3.5537	25.1654
3.5391	24.6519
3.5247	24.0326
3.5104	23.6755
3.4962	23.0295
3.4821	22.5508
3.4681	22.2368
3.4543	21.9315
3.4405	21.4342
3.4269	21.0812
3.4133	20.6659
3.3999	20.3469
3.3866	19.9058
3.3733	19.5755
3.3602	19.0338
3.3472	18.5605
3.3343	18.2964
3.3215	18.0272
3.3088	17.7313
3.2961	17.3209
3.2836	16.9638
3.2712	16.9098
3.2588	16.5056
3.2466	16.0137
3.2345	15.6379
3.2224	15.1405
3.2104	14.4605
3.1985	13.8499
3.1867	13.3223
3.175	12.5077
3.1634	11.9633
3.1519	11.3167
3.1404	10.5445
3.129	10.0728
3.1178	9.3614
3.1065	8.8957
3.0954	8.2406
3.0844	7.6377
3.0734	7.2998
3.0625	6.5962
3.0517	6.0347
3.041	5.5004
3.0303	5.2688
3.0197	4.7166
3.0092	4.4659
2.9987	4.1988
2.9884	3.8506
2.9781	3.6349
2.9678	3.5987
2.9577	3.6029
2.9476	3.3264
2.9376	3.4308
2.9276	3.4345
2.9177	3.2943
2.9079	3.3427
2.8982	3.5872
2.8885	3.7281
2.8789	3.9701
2.8693	4.321
2.8598	4.1724
2.8504	4.2506
2.841	3.7935
2.8317	3.6083
2.8224	3.4518
2.8133	3.4606
2.8041	3.7899
2.7951	3.8316
2.786	4.3086
2.7771	5.3233
2.7682	6.4382
2.7594	6.9158
2.7506	7.5485
2.7418	8.3875
2.7332	8.242
2.7246	7.546
2.716	8.3926
2.7075	16.1126
2.699	25.0918
2.6906	26.9718
2.6823	28.607
2.674	29.652
2.6657	30.5331
2.6575	30.7227
2.6494	30.5099
2.6413	30.8001
2.6332	31.102
2.6252	31.0765
2.6173	31.1801
2.6094	30.2834
2.6015	30.2156
2.5937	30.3542
2.5859	29.7356
2.5782	29.3739
2.5706	29.6118
2.5629	29.9564
2.5554	29.9591
2.5478	30.3529
2.5403	30.3406
2.5329	30.7058
2.5255	30.8643
2.5181	31.0561
2.5108	31.1136
2.5035	31.3734
2.4963	31.3426
2.4891	31.2347
2.482	31.4238
2.4749	31.4718
2.4678	31.687
2.4608	32.7284
2.4538	33.5943
2.4468	34.4548
2.4399	35.0002
2.4331	35.2903
2.4262	35.7211
2.4194	36.3972
2.4127	36.0645
2.4059	35.4283
2.3993	34.7737
2.3926	34.177
2.386	33.853
2.3795	33.7092
2.3729	32.8184
2.3664	31.4529
2.36	29.707
2.3535	28.5506
2.3471	27.3548
2.3408	26.8024
2.3345	26.5623
2.3282	26.9407
2.3219	27.6582
2.3157	28.5737
2.3095	29.3342
2.3034	29.5973
2.2972	29.4585
2.2911	30.2112
2.2851	32.0704
2.279	34.2507
2.2731	34.7713
2.2671	34.5603
2.2612	34.3452
2.2553	33.2263
2.2494	32.5842
2.2435	33.8653
2.2377	37.5083
2.232	40.2313
2.2262	42.2027
2.2205	43.3764
2.2148	44.1275
2.2091	44.9816
2.2035	45.5735
2.1979	45.6511
2.1923	46.0936
2.1868	46.5249
2.1812	46.7538
2.1758	46.8567
2.1703	47.3151
2.1649	47.3467
2.1595	47.5939
2.1541	47.4936
2.1487	47.621
2.1434	47.5968
2.1381	47.3867
2.1328	47.6326
2.1275	47.3781
2.1223	47.3769
2.1171	47.4068
2.112	47.3673
2.1068	47.5639
2.1017	47.3579
2.0966	47.6414
2.0915	47.7727
2.0865	47.9746
2.0814	47.6158
2.0764	47.5499
2.0715	47.0582
2.0665	47.7309
2.0616	47.315
2.0567	46.958
2.0518	46.7267
2.0469	46.5761
2.0421	46.4624
2.0373	46.1815
2.0325	45.6142
2.0277	45.2643
2.0229	44.5865
2.0182	44.2034
2.0135	43.4955
2.0088	43.0006
2.0042	42.6454
