Name: Howlite Ca_2B_5SiO_9(OH)_5
Type: Mineral
Class: Borate
Subclass: None
Particle Size: Coarse
Sample No.: B-5A
Owner: JPL
Wavelength Range: VSWIR
Origin: USA, California, San Gabriel Mountains, Tick Canyon.
Description: Particle size was 125-500um.Collected by:  Burminco Original ASTER Spectral Library name was jpl.perkin.mineral.borate.none.coarse.b05a.spectrum.txt
Measurement: Hemispherical reflectance
X Units: Wavelength (micrometers)
Y Units: Reflectance (percent)
wavelength	value
2.5	14.7518
2.494	13.7024
2.488	12.6966
2.482	11.5137
2.476	10.4122
2.47	9.185
2.464	8.2034
2.458	8.0313
2.452	8.1633
2.446	8.7889
2.44	9.7066
2.434	10.3496
2.428	11.1237
2.422	12.0562
2.416	13.5382
2.41	15.3383
2.404	17.3191
2.398	19.2655
2.392	21.0506
2.386	22.7742
2.38	24.3164
2.374	25.5258
2.368	26.3208
2.362	26.6871
2.356	27.0324
2.35	27.5939
2.344	28.4145
2.338	28.7965
2.332	28.5736
2.326	27.8174
2.32	26.8793
2.314	26.0577
2.308	25.4469
2.302	24.9665
2.296	24.7998
2.29	25.0722
2.284	25.2546
2.278	25.1806
2.272	24.7122
2.266	23.6458
2.26	22.4245
2.254	21.0971
2.248	20.1678
2.242	19.7936
2.236	20.0324
2.23	20.6486
2.224	21.505
2.218	22.1801
2.212	22.8358
2.206	23.0428
2.2	23.0795
2.194	22.4807
2.188	21.3606
2.182	20.0468
2.176	18.6489
2.17	17.1634
2.164	16.2428
2.158	16.2485
2.152	17.1108
2.146	17.8491
2.14	17.526
2.134	16.2565
2.128	15.7478
2.122	17.0403
2.116	19.3856
2.11	21.5183
2.104	23.0321
2.098	24.7103
2.092	27.3057
2.086	30.5102
2.08	34.2793
2.074	38.6506
2.068	42.6979
2.062	45.4374
2.056	47.3218
2.05	48.3417
2.044	48.6987
2.038	48.048
2.032	46.9823
2.026	47.6981
2.02	49.8211
2.014	50.4564
2.008	50.6568
2.002	51.6234
1.996	52.5558
1.99	53.6032
1.984	54.5761
1.978	55.0577
1.972	55.4106
1.966	55.7587
1.96	56.1804
1.954	56.5152
1.948	56.859
1.942	57.2015
1.936	57.4132
1.93	57.7668
1.924	58.0956
1.918	58.4202
1.912	58.9275
1.906	59.2588
1.9	59.5709
1.894	59.7962
1.888	60.0452
1.882	60.3655
1.876	60.6675
1.87	60.8755
1.864	61.2124
1.858	61.4478
1.852	61.6749
1.846	61.8213
1.84	61.8268
1.834	61.7341
1.828	61.6785
1.822	61.661
1.816	61.6176
1.81	61.5282
1.804	61.4732
1.798	61.4312
1.792	61.3632
1.786	61.2497
1.78	60.9981
1.774	60.709
1.768	60.5337
1.762	60.3308
1.756	60.1084
1.75	59.9096
1.744	59.514
1.738	59.1471
1.732	58.6305
1.726	58.229
1.72	57.8339
1.714	57.5632
1.708	57.3469
1.702	57.0075
1.696	56.7594
1.69	56.4608
1.684	56.1466
1.678	55.8264
1.672	55.4785
1.666	55.0907
1.66	54.8311
1.654	54.5118
1.648	54.4634
1.642	54.5024
1.636	54.4616
1.63	54.5628
1.624	54.8941
1.618	55.2944
1.612	55.697
1.606	56.2323
1.6	56.8206
1.594	57.5382
1.588	58.4209
1.582	59.3296
1.576	60.1421
1.57	60.8354
1.564	61.3384
1.558	61.7357
1.552	61.8569
1.546	61.6548
1.54	61.0221
1.534	59.2979
1.528	56.367
1.522	53.9506
1.516	54.0522
1.51	55.1894
1.504	55.7753
1.498	56.0626
1.492	56.6552
1.486	56.3821
1.48	55.1877
1.474	54.1483
1.468	54.7547
1.462	54.9335
1.456	54.3658
1.45	46.8559
1.444	37.5599
1.438	46.6408
1.432	42.6114
1.426	52.6924
1.42	55.9429
1.414	56.7518
1.408	58.5361
1.402	61.2003
1.396	64.9243
1.39	68.5435
1.384	71.2028
1.378	73.1617
1.372	74.7655
1.366	75.867
1.36	75.9032
1.354	74.9403
1.348	73.6871
1.342	73.7675
1.336	72.5852
1.33	77.2103
1.324	79.6835
1.318	80.9322
1.312	82.2363
1.306	83.0899
1.3	83.6033
1.294	83.8919
1.288	84.0158
1.282	83.6161
1.276	83.5004
1.27	83.4046
1.264	83.0473
1.258	82.6849
1.252	82.4503
1.246	82.5302
1.24	82.5728
1.234	83.0466
1.228	83.933
1.222	85.0462
1.216	85.81
1.21	86.2875
1.204	86.7834
1.198	87.0963
1.192	87.3556
1.186	87.5503
1.18	87.7132
1.174	87.7878
1.168	87.8807
1.162	87.9795
1.156	88.0499
1.15	88.214
1.144	88.2125
1.138	88.3124
1.132	88.2957
1.126	88.308
1.12	88.2111
1.114	88.237
1.108	88.0697
1.102	88.103
1.096	88.2133
1.09	88.1711
1.084	88.3569
1.078	88.2739
1.072	88.3954
1.066	88.4237
1.06	88.3589
1.054	88.3091
1.048	88.1523
1.042	88.0735
1.036	87.9079
1.03	87.9644
1.024	87.826
1.018	87.7756
1.012	87.5869
1.006	87.1724
1	86.4368
0.994	84.8291
0.988	83.788
0.982	83.6771
0.976	84.371
0.97	85.7449
0.964	86.1351
0.958	86.4255
0.952	87.1009
0.946	87.6972
0.94	87.956
0.934	88.147
0.928	88.5694
0.922	88.8034
0.916	88.9709
0.91	88.9594
0.904	88.9992
0.898	89.0296
0.892	89.0593
0.886	89.1271
0.88	89.1806
0.874	89.2174
0.868	89.3341
0.862	89.3871
0.856	89.1854
0.85	89.2917
0.844	89.3269
0.838	89.37
0.832	89.4041
0.826	89.4261
0.82	89.4188
0.814	89.3807
0.808	89.4125
0.802	89.3861
0.796	89.35
0.79	89.3448
0.784	89.3118
0.778	89.2537
0.772	89.1411
0.766	89.0158
0.76	88.9754
0.754	88.9698
0.748	89.1054
0.742	89.167
0.736	89.1828
0.73	89.2253
0.724	89.2545
0.718	89.2763
0.712	89.2754
0.706	89.2731
0.7	89.2713
0.694	89.2751
0.688	89.23
0.682	89.2188
0.676	89.1761
0.67	89.1845
0.664	89.136
0.658	89.1139
0.652	89.0757
0.646	89.0279
0.64	88.9806
0.634	88.9397
0.628	88.8711
0.622	88.8124
0.616	88.7722
0.61	88.7017
0.604	88.6137
0.598	88.6009
0.592	88.5257
0.586	88.4107
0.58	88.3177
0.574	88.1906
0.568	88.081
0.562	87.9064
0.556	87.7072
0.55	87.5499
0.544	87.3204
0.538	87.112
0.532	86.8851
0.526	86.6021
0.52	86.346
0.514	86.002
0.508	85.6649
0.502	85.2659
0.496	84.8539
0.49	84.42
0.484	83.9255
0.478	83.5036
0.472	83.0594
0.466	82.5938
0.46	82.1175
0.454	81.6066
0.448	81.0853
0.442	80.546
0.436	79.992
0.43	79.4697
0.424	78.8678
0.418	78.2411
0.412	77.6028
0.406	76.8861
0.4	76.1974
