Name: Epidote Ca_2(Al,Fe^3+)_3O.SiO_4.Si_2O_7.OH
Type: Mineral
Class: Silicate
Subclass: Sorosilicate
Particle Size: Coarse
Sample No.: SS-1A
Owner: JPL
Wavelength Range: TIR
Origin: Mexico, Baja California Norte, Valle De La Trinidad
Description: Particle size was 125-500um.Collected by Burminco Original ASTER Spectral Library name was jpl.nicolet.mineral.silicate.sorosilicate.coarse.ss01a.spectrum.txt
Measurement: Hemispherical reflectance
X Units: Wavelength (micrometers)
Y Units: Reflectance (percent)
wavelength	value
15.3853	14.2033
15.1161	12.9061
14.8563	8.1953
14.6052	6.5529
14.3624	5.6876
14.1276	3.049
13.9004	2.3029
13.6803	1.5875
13.4671	2.0335
13.2604	2.8037
13.06	3.0659
12.8656	3.9835
12.6769	4.5537
12.4936	5.1232
12.3155	5.9234
12.1425	7.0944
11.9742	8.6552
11.8106	8.5021
11.6513	10.7944
11.4963	10.6453
11.3454	16.8156
11.1983	17.7107
11.0551	14.1818
10.9154	11.41
10.7793	10.2822
10.6465	16.3842
10.5169	25.484
10.3904	28.7448
10.267	24.4975
10.1464	19.4126
10.0287	13.309
9.9136	3.1717
9.8012	1.8301
9.6913	5.7069
9.5838	10.3748
9.4787	12.4995
9.3758	11.4598
9.2752	9.2293
9.1767	9.0694
9.0803	8.5102
8.9858	9.0854
8.8934	7.7582
8.8028	5.4531
8.714	3.1626
8.627	0.9104
8.5417	0.2586
8.4581	0.4829
8.3761	0.258
8.2957	0.644
8.2169	0.52
8.1395	0.8774
8.0635	0.8359
7.989	1.0786
7.9158	1.1547
7.8439	1.1423
7.7734	1.4252
7.7041	1.5571
7.636	1.7342
7.5691	1.9089
7.5034	2.0634
7.4388	2.3205
7.3753	2.562
7.3129	2.7124
7.2515	2.8036
7.1912	2.988
7.1318	3.1187
7.0734	3.1613
7.016	3.4647
6.9595	3.7851
6.9039	3.7773
6.8492	4.0987
6.7953	4.1272
6.7423	4.1722
6.6901	4.2168
6.6387	4.569
6.5881	4.4085
6.5382	4.4575
6.4892	4.8506
6.4408	4.9676
6.3931	5.211
6.3462	5.5465
6.2999	5.3466
6.2543	5.3788
6.2094	5.4883
6.1651	5.5736
6.1214	5.3172
6.0784	5.0769
6.0359	4.5943
5.994	4.1113
5.9527	3.604
5.912	3.381
5.8718	3.5112
5.8322	3.7707
5.7931	3.5496
5.7545	3.5125
5.7165	3.4625
5.6789	3.4986
5.6418	3.5457
5.6052	3.5708
5.5691	3.7463
5.5334	4.2828
5.4982	4.8246
5.4635	5.3567
5.4291	5.5936
5.3952	5.6705
5.3618	5.7982
5.3287	5.6665
5.2961	5.6768
5.2638	5.4913
5.2319	5.2861
5.2004	5.1322
5.1693	5.855
5.1386	6.4383
5.1082	6.6156
5.0782	6.7089
5.0485	6.7241
5.0192	6.7919
4.9902	6.3856
4.9616	5.8813
4.9332	5.9828
4.9052	6.1573
4.8776	6.3883
4.8502	7.1796
4.8231	7.6591
4.7963	8.1263
4.7699	9.5019
4.7437	11.1622
4.7178	12.0831
4.6922	12.4434
4.6668	12.7827
4.6418	12.905
4.617	12.63
4.5924	13.2226
4.5681	15.4451
4.5441	17.9569
4.5203	20.4202
4.4968	22.9092
4.4735	25.4496
4.4505	27.3934
4.4277	28.9066
4.4051	29.8779
4.3828	30.7617
4.3607	31.6834
4.3388	32.1962
4.3171	32.6583
4.2956	33.066
4.2744	33.4658
4.2534	33.7551
4.2325	34.1286
4.2119	34.5276
4.1915	35.1325
4.1712	35.8047
4.1512	36.1673
4.1313	36.3787
4.1117	36.4108
4.0922	36.4315
4.0729	36.3202
4.0538	35.9562
4.0349	35.2997
4.0161	33.9683
3.9976	32.331
3.9792	33.1988
3.9609	34.2844
3.9428	35.2707
3.9249	35.8579
3.9072	36.4294
3.8896	36.7349
3.8722	36.9207
3.8549	36.8992
3.8378	37.0269
3.8208	37.0469
3.804	37.0553
3.7873	36.9614
3.7708	36.8451
3.7544	36.3247
3.7382	35.6511
3.7221	34.9749
3.7061	34.6403
3.6903	34.3479
3.6746	34.6336
3.659	34.7079
3.6436	34.7171
3.6283	34.5642
3.6131	34.2239
3.5981	33.7936
3.5832	33.4255
3.5684	32.9642
3.5537	32.5362
3.5391	31.7263
3.5247	30.8593
3.5104	29.6394
3.4962	28.5893
3.4821	27.5025
3.4681	26.6023
3.4543	25.5725
3.4405	24.6464
3.4269	23.8686
3.4133	23.4898
3.3999	23.5876
3.3866	23.4416
3.3733	22.7661
3.3602	21.9521
3.3472	21.1826
3.3343	20.2576
3.3215	19.6192
3.3088	18.7638
3.2961	17.539
3.2836	16.1466
3.2712	15.0931
3.2588	14.4819
3.2466	14.2003
3.2345	13.7023
3.2224	12.9643
3.2104	12.1311
3.1985	11.4898
3.1867	10.7791
3.175	10.2402
3.1634	10.0581
3.1519	9.7181
3.1404	9.2282
3.129	8.7986
3.1178	8.2546
3.1065	8.1298
3.0954	7.8251
3.0844	7.4362
3.0734	7.3152
3.0625	7.4232
3.0517	7.2639
3.041	7.2139
3.0303	7.2455
3.0197	7.2228
3.0092	7.0573
2.9987	6.7629
2.9884	6.5293
2.9781	6.4494
2.9678	5.9051
2.9577	5.3335
2.9476	5.3492
2.9376	5.6576
2.9276	5.9136
2.9177	5.9104
2.9079	6.3189
2.8982	6.4042
2.8885	6.3016
2.8789	6.7275
2.8693	6.8456
2.8598	7.2961
2.8504	7.7324
2.841	8.3512
2.8317	9.088
2.8224	9.8664
2.8133	10.6331
2.8041	11.5399
2.7951	12.1641
2.786	13.1184
2.7771	14.1135
2.7682	16.1025
2.7594	17.573
2.7506	19.1821
2.7418	21.3357
2.7332	22.305
2.7246	24.4479
2.716	26.3389
2.7075	28.9792
2.699	31.2439
2.6906	32.9728
2.6823	34.6917
2.674	36.77
2.6657	40.6416
2.6575	39.956
2.6494	40.7432
2.6413	41.5068
2.6332	42.0622
2.6252	42.4575
2.6173	43.5722
2.6094	43.6491
2.6015	44.5361
2.5937	46.8846
2.5859	45.8054
2.5782	45.5751
2.5706	45.8121
2.5629	46.2384
2.5554	45.2573
2.5478	45.4444
2.5403	45.3378
2.5329	45.8364
2.5255	45.8227
2.5181	46.1412
2.5108	46.9204
2.5035	47.8767
2.4963	48.9502
2.4891	49.9173
2.482	50.7763
2.4749	51.3877
2.4678	52.1802
2.4608	52.8359
2.4538	53.5338
2.4468	54.0276
2.4399	54.325
2.4331	54.6723
2.4262	54.3835
2.4194	54.1244
2.4127	53.32
2.4059	52.3356
2.3993	50.931
2.3926	49.0428
2.386	46.5461
2.3795	43.2743
2.3729	38.8649
2.3664	32.585
2.36	25.0499
2.3535	19.1176
2.3471	15.556
2.3408	14.1924
2.3345	14.7577
2.3282	16.5883
2.3219	18.9743
2.3157	22.3494
2.3095	26.1473
2.3034	29.7695
2.2972	32.8413
2.2911	35.1609
2.2851	37.9929
2.279	39.7005
2.2731	39.9474
2.2671	39.0119
2.2612	35.5424
2.2553	32.978
2.2494	35.3873
2.2435	39.6864
2.2377	45.962
2.232	50.3526
2.2262	53.178
2.2205	54.909
2.2148	56.2073
2.2091	57.236
2.2035	57.7701
2.1979	58.4126
2.1923	58.926
2.1868	59.1972
2.1812	59.4778
2.1758	60.0955
2.1703	60.3801
2.1649	60.6456
2.1595	60.8817
2.1541	61.1103
2.1487	61.112
2.1434	61.344
2.1381	61.2813
2.1328	61.4692
2.1275	61.3188
2.1223	61.4194
2.1171	61.4543
2.112	61.1938
2.1068	61.9339
2.1017	61.4316
2.0966	61.8475
2.0915	61.487
2.0865	61.7977
2.0814	61.4196
2.0764	61.1241
2.0715	61.4824
2.0665	60.9294
2.0616	61.1346
2.0567	61.2274
2.0518	61.0838
2.0469	60.7931
2.0421	60.4145
2.0373	60.4838
2.0325	60.3145
2.0277	60.2341
2.0229	60.0071
2.0182	59.7601
2.0135	59.894
2.0088	59.6934
2.0042	59.67
