Name: Ilmenite Fe+2TiO3
Type: Mineral
Class: Oxide
Subclass: None
Particle Size: Fine
Sample No.: ilmenite_1
Owner: JHU
Wavelength Range: TIR
Origin: Ilmen Mountains, Urals, USSR via the Smithsonian (sample no.NMNH 96189)
Description: The sample consisted of two large and several smaller fragments.  Each large piece was about 1 cm x 3 cm, with a total weight of 19 g. Many surfaces of this black mineral had a yellow-brown alteration coating, which was difficult to remove completely.  Under the microscope the sample appeared pure. Particle size was Less than 2 micrometers.(Hematite Group) Original ASTER Spectral Library name was jhu.nicolet.mineral.oxide.none.powder.ilmeni1.spectrum.txt
Measurement: Transmission
X Units: Wavelength (micrometers)
Y Units: Transmittance (percent)
wavelength	value
25.0442	65.8006
24.3388	60.8143
23.6719	54.9647
23.0407	48.5946
22.4422	44.7753
21.8741	43.7391
21.334	44.1483
20.8199	43.8358
20.33	42.1864
19.8627	39.202
19.4163	34.8734
18.9896	30.8945
18.5812	28.4047
18.19	27.2568
17.815	27.5273
17.4551	28.7157
17.1094	30.2948
16.7772	32.1269
16.4576	34.016
16.15	35.9491
15.8537	38.2987
15.568	40.6723
15.2925	43.2577
15.0265	45.3749
14.7697	47.0028
14.5214	48.0243
14.2814	49.1923
14.0492	51.7347
13.8244	56.8221
13.6067	62.9786
13.3957	68.5809
13.1912	72.753
12.9929	75.8252
12.8004	78.3995
12.6135	80.6172
12.432	82.4661
12.2557	83.8741
12.0843	85.0186
11.9176	86.0164
11.7555	86.8889
11.5977	87.5037
11.444	87.8015
11.2944	88.2097
11.1487	88.6377
11.0067	88.99
10.8682	89.3887
10.7332	89.5584
10.6015	89.7569
10.473	89.9666
10.3476	90.2073
10.2251	90.1721
10.1056	90.1421
9.9887	90.1045
9.8746	90.2246
9.763	90.0969
9.6539	90.0774
9.5472	90.1809
9.4429	90.2688
9.3408	90.3645
9.2409	90.3787
9.1431	90.3399
9.0474	90.1907
8.9536	90.2002
8.8618	90.3386
8.7718	90.614
8.6837	90.4631
8.5973	90.3677
8.5126	90.4534
8.4295	90.532
8.3481	90.5369
8.2682	90.4373
8.1898	90.3132
8.1129	90.1594
8.0374	89.989
7.9634	89.7908
7.8906	89.5725
7.8192	89.2656
7.7491	89.0193
7.6802	88.7849
7.6126	88.5008
7.5461	88.2556
7.4807	87.9534
7.4165	87.7595
7.3534	87.5252
7.2914	87.177
7.2303	86.9597
7.1703	86.666
7.1113	86.3435
7.0533	86.2249
6.9962	85.9707
6.94	85.7613
6.8847	85.5049
6.8302	85.3125
6.7767	85.2566
6.7239	85.0188
6.672	84.7776
6.6209	84.4392
6.5705	84.2635
6.5209	83.7522
6.4721	83.4373
6.424	83.2151
6.3766	82.7703
6.3299	82.4134
6.2838	82.1302
6.2385	81.8733
6.1937	81.5247
6.1496	81.1219
6.1062	80.8826
6.0633	80.5601
6.0211	80.5013
5.9794	80.552
5.9383	80.6038
5.8978	80.4148
5.8578	80.0564
5.8184	79.9978
5.7794	79.5564
5.741	79.2976
5.7031	79.0965
5.6657	78.7801
5.6288	78.5091
5.5924	78.2063
5.5564	77.9651
5.5209	77.7225
5.4859	77.4349
5.4513	77.1595
5.4171	76.9451
5.3833	76.5975
5.35	76.3597
5.3171	76.0125
5.2846	75.7576
5.2524	75.4871
5.2207	75.2034
5.1893	74.9354
5.1584	74.6849
5.1277	74.4168
5.0975	74.1043
5.0676	73.8445
5.038	73.5677
5.0088	73.2982
4.98	73.0257
4.9514	72.7681
4.9232	72.4769
4.8953	72.1822
4.8678	71.9109
4.8405	71.6739
4.8135	71.4117
4.7868	71.1588
4.7605	70.8961
4.7344	70.5579
4.7086	70.3001
4.6831	70.0284
4.6578	69.8238
4.6328	69.5386
4.6081	69.3096
4.5837	69.0501
4.5595	68.7891
4.5356	68.4971
4.5119	68.2235
4.4884	67.9368
4.4652	67.6812
4.4423	67.4903
4.4196	67.2484
4.3971	66.9471
4.3748	66.6937
4.3528	66.4178
4.331	66.1678
4.3094	65.9337
4.288	65.7132
4.2668	65.4598
4.2458	65.1585
4.2251	64.9066
4.2045	64.658
4.1841	64.3848
4.164	64.1414
4.144	63.9112
4.1242	63.6563
4.1046	63.37
4.0852	63.138
4.066	62.8936
4.047	62.6485
4.0281	62.3939
4.0094	62.1014
3.9909	61.8514
3.9725	61.6219
3.9544	61.3914
3.9363	61.1563
3.9185	60.8944
3.9008	60.6258
3.8833	60.4422
3.8659	60.1922
3.8487	59.9122
3.8316	59.6788
3.8147	59.4063
3.7979	59.1551
3.7813	58.95
3.7648	58.714
3.7485	58.4825
3.7323	58.2054
3.7162	57.9789
3.7003	57.723
3.6845	57.4972
3.6689	57.2679
3.6534	56.9833
3.638	56.7372
3.6227	56.5233
3.6076	56.2784
3.5926	56.0438
3.5777	55.8153
3.563	55.5462
3.5484	55.2901
3.5338	55.006
3.5195	54.701
3.5052	54.3124
3.491	54.1612
3.477	53.963
3.463	53.7616
3.4492	53.4481
3.4355	53.0721
3.4219	52.672
3.4084	52.6427
3.395	52.599
3.3817	52.4408
3.3685	52.2606
3.3554	52.1356
3.3425	51.8429
3.3296	51.6307
3.3168	51.4462
3.3041	51.2772
3.2915	51.0265
3.279	50.7323
3.2666	50.4737
3.2543	50.1866
3.2421	49.9669
3.23	49.7374
3.218	49.4845
3.206	49.1942
3.1942	49.0311
3.1824	48.7635
3.1707	48.5575
3.1591	48.2919
3.1476	48.1039
3.1362	47.8905
3.1249	47.6727
3.1136	47.3768
3.1024	47.205
3.0913	46.9301
3.0803	46.6615
3.0694	46.4672
3.0585	46.2938
3.0477	46.056
3.037	45.8646
3.0264	45.663
3.0158	45.4237
3.0053	45.2528
2.9949	45.0023
2.9845	44.7543
2.9743	44.7245
2.9641	44.5004
2.9539	44.3851
2.9439	44.1893
2.9339	43.955
2.9239	43.9203
2.9141	43.8051
2.9043	43.6972
2.8946	43.6015
2.8849	43.5648
2.8753	43.5941
2.8658	43.4579
2.8563	43.4379
2.8469	43.3246
2.8375	43.3349
2.8282	43.3661
2.819	43.2836
2.8098	43.1952
2.8007	43.1259
2.7917	42.9906
2.7827	42.9672
2.7738	42.91
2.7649	42.8563
2.7561	42.7484
2.7473	42.5849
2.7386	42.5604
2.7299	42.4266
2.7213	42.3612
2.7128	42.1659
2.7043	41.9628
2.6959	41.7562
2.6875	41.5629
2.6791	41.2802
2.6709	41.2655
2.6626	41.1776
2.6545	40.911
2.6463	40.8495
2.6382	40.6332
2.6302	40.5199
2.6222	40.246
2.6143	40.1508
2.6064	40.0624
2.5986	39.9042
2.5908	39.7226
2.583	39.5414
2.5753	39.4066
2.5677	39.1737
2.5601	39.0087
2.5525	39.0614
2.545	38.8554
2.5375	38.5624
2.5301	38.4833
2.5227	38.5585
2.5154	38.3075
2.5081	37.9823
2.5008	38.0458
2.4936	37.9149
2.4864	37.6688
2.4793	37.5478
2.4722	37.414
2.4651	37.4384
2.4581	37.0614
2.4511	36.8876
2.4442	36.8202
2.4373	36.7646
2.4305	36.6933
2.4236	36.6034
2.4169	36.5175
2.4101	36.3173
2.4034	36.205
2.3967	36.0585
2.3901	35.9657
2.3835	35.7616
2.377	35.7284
2.3704	35.6093
2.364	35.4687
2.3575	35.2509
2.3511	35.161
2.3447	34.9735
2.3384	35.0429
2.3321	34.9931
2.3258	34.9198
2.3195	34.6816
2.3133	34.5087
2.3071	34.4775
2.301	34.3876
2.2949	34.0829
2.2888	33.872
2.2828	34.037
2.2767	33.8066
2.2708	33.7001
2.2648	33.6767
2.2589	33.5116
2.253	33.3007
2.2471	33.3788
2.2413	33.3319
2.2355	32.9618
2.2297	33.0136
2.224	32.9931
2.2183	32.8876
2.2126	32.7001
2.207	32.6874
2.2013	32.4433
2.1957	32.3046
2.1902	31.8525
2.1846	32.0126
2.1791	32.3027
2.1736	32.1962
2.1682	32.0712
2.1628	31.8486
2.1574	31.7206
2.152	31.787
2.1466	31.539
2.1413	31.3515
2.136	31.4042
2.1308	31.373
2.1255	30.9843
2.1203	30.8612
2.1151	30.9237
2.11	30.6581
2.1048	30.9921
2.0997	30.8085
2.0946	30.7773
2.0895	30.5663
2.0845	30.371
2.0795	30.2148
