Name: Sillimanite Al_2SiO_5
Type: Mineral
Class: Silicate
Subclass: Nesosilicate
Particle Size: Coarse
Sample No.: NS-8A
Owner: JPL
Wavelength Range: VSWIR
Origin: Australia, South Australia, Williamstown
Description: Particle size was 125-500um.Collected by Ward's Original ASTER Spectral Library name was jpl.beckman.mineral.silicate.nesosilicate.coarse.ns08a.spectrum.txt
Measurement: Hemispherical reflectance
X Units: Wavelength (micrometers)
Y Units: Reflectance (percent)
wavelength	value
0.4	44.3
0.403	45.49
0.406	46
0.409	46.56
0.412	47.46
0.415	48.08
0.418	48.94
0.421	49.65
0.424	50.36
0.427	51.43
0.43	52.1
0.433	52.99
0.436	53.8
0.439	54.37
0.442	55.14
0.445	55.71
0.448	56.06
0.451	56.55
0.454	56.68
0.457	57.06
0.46	57.21
0.463	57.47
0.466	57.95
0.469	58.04
0.472	58.36
0.475	58.93
0.478	59.23
0.481	59.78
0.484	60.21
0.487	60.88
0.49	61.31
0.493	61.94
0.496	62.35
0.499	63.01
0.502	63.38
0.505	64
0.508	64.39
0.511	64.89
0.514	65.38
0.517	65.65
0.52	66.32
0.523	66.58
0.526	67.06
0.529	67.39
0.532	67.9
0.535	68.18
0.538	68.56
0.541	68.92
0.544	69.19
0.547	69.55
0.55	69.94
0.553	70.36
0.556	70.61
0.559	70.83
0.562	71.42
0.565	71.43
0.568	71.72
0.571	71.84
0.574	71.98
0.577	71.91
0.58	72.17
0.583	72.14
0.586	72.35
0.589	72.68
0.592	72.53
0.595	72.78
0.598	72.99
0.601	73.07
0.604	73.28
0.607	73.2
0.61	73.26
0.613	73.41
0.616	73.35
0.619	73.48
0.622	73.53
0.625	73.64
0.628	73.73
0.631	73.88
0.634	73.98
0.637	74.05
0.64	74.11
0.643	74.18
0.646	74.59
0.649	74.62
0.652	74.91
0.655	75.03
0.658	75.08
0.661	75.36
0.664	75.61
0.667	75.74
0.67	75.8
0.673	76.12
0.676	76.22
0.679	76.29
0.682	76.55
0.685	76.44
0.688	76.71
0.691	76.86
0.694	77.19
0.697	77.33
0.7	77.15
0.703	77.73
0.706	77.72
0.709	77.77
0.712	78.02
0.715	78.18
0.718	78.32
0.721	78.58
0.724	78.48
0.727	78.68
0.73	78.71
0.733	78.88
0.736	78.93
0.739	78.84
0.742	79.17
0.745	79.22
0.748	79.32
0.751	79.41
0.754	79.47
0.757	79.57
0.76	79.52
0.763	79.73
0.766	79.91
0.769	79.74
0.772	79.89
0.775	79.92
0.778	80.02
0.781	80.07
0.784	80.01
0.787	80.05
0.79	80.08
0.793	80.28
0.796	80.32
0.799	80.09
0.808	80.35
0.82	80.42
0.832	80.47
0.844	80.42
0.856	80.48
0.868	80.69
0.88	80.69
0.892	80.77
0.904	80.89
0.916	80.93
0.928	80.93
0.94	80.76
0.952	80.72
0.964	80.8
0.976	81.06
0.988	81.13
1	81.25
1.012	81.27
1.024	81.15
1.036	81.35
1.048	81.46
1.06	81.44
1.072	81.51
1.084	81.62
1.096	81.63
1.108	81.72
1.12	81.72
1.132	81.76
1.144	81.67
1.156	81.62
1.168	81.5
1.18	81.31
1.192	81.06
1.204	81.04
1.216	81.04
1.228	81.19
1.24	81.39
1.252	81.48
1.264	81.44
1.276	81.49
1.288	81.11
1.3	80.74
1.312	80.64
1.324	80.35
1.336	80.19
1.348	79.46
1.36	78.36
1.372	76.45
1.384	70.79
1.396	69.78
1.408	69
1.42	74.19
1.432	76.33
1.444	77.61
1.456	78.13
1.468	78.62
1.48	79.03
1.492	79.3
1.504	79.62
1.516	79.83
1.528	79.97
1.54	80.16
1.552	80.24
1.564	80.33
1.576	80.23
1.588	80.33
1.6	80.3
1.612	80.21
1.624	80.08
1.636	79.95
1.648	79.92
1.66	79.68
1.672	79.33
1.684	78.36
1.696	77.02
1.708	76.15
1.72	75.37
1.732	75.94
1.744	76.54
1.756	76.22
1.768	76.5
1.78	77.01
1.792	76.97
1.804	76.99
1.816	76.87
1.828	76.86
1.84	77.04
1.852	77.13
1.864	76.84
1.876	75.71
1.888	73.14
1.9	69.6
1.912	67.7
1.924	68.4
1.936	69.38
1.948	70.16
1.96	70.8
1.972	71.42
1.984	71.95
1.996	72.6
2.008	72.97
2.02	73.45
2.032	73.64
2.044	73.73
2.056	73.62
2.068	73.49
2.08	73.42
2.092	73.14
2.104	72.75
2.116	72.13
2.128	70.77
2.14	67.98
2.152	63.95
2.164	61.52
2.176	61.08
2.188	59.54
2.2	57.96
2.212	60.48
2.224	64.14
2.236	65.14
2.248	64.84
2.26	63.4
2.272	61.65
2.284	59.84
2.296	57.75
2.308	56.15
2.32	56.3
2.332	56.2
2.344	55.24
2.356	55.19
2.368	54.97
2.38	54.31
2.392	53.98
2.404	53.81
2.416	53.36
2.428	52.56
2.44	51.82
2.452	51.12
2.464	50.63
2.476	50.19
2.488	49.86
2.5	49.72
