Name: Chalcopyrite CuFeS_2
Type: Mineral
Class: Sulfide
Subclass: None
Particle Size: Fine
Sample No.: S-4A
Owner: JPL
Wavelength Range: TIR
Origin: Canada, Quebec, Rouyn District
Description: Particle size was 0-45um.Collected by JPL Original ASTER Spectral Library name was jpl.nicolet.mineral.sulfide.none.fine.s04a.spectrum.txt
Measurement: Hemispherical reflectance
X Units: Wavelength (micrometers)
Y Units: Reflectance (percent)
wavelength	value
15.3853	39.5285
15.1161	40.6383
14.8563	40.4492
14.6052	39.4224
14.3624	37.4747
14.1276	37.7323
13.9004	35.5356
13.6803	32.7849
13.4671	31.1908
13.2604	31.3974
13.06	33.7449
12.8656	35.9678
12.6769	41.7038
12.4936	44.9067
12.3155	49.5335
12.1425	52.3441
11.9742	54.3403
11.8106	56.2412
11.6513	58.244
11.4963	59.6355
11.3454	59.3885
11.1983	57.5668
11.0551	59.3219
10.9154	58.5714
10.7793	56.6758
10.6465	54.8162
10.5169	52.6954
10.3904	52.071
10.267	52.4857
10.1464	53.1895
10.0287	53.6262
9.9136	52.7344
9.8012	51.2372
9.6913	50.1144
9.5838	49.4052
9.4787	48.9819
9.3758	49.0617
9.2752	48.6573
9.1767	47.3095
9.0803	47.0466
8.9858	47.357
8.8934	47.7265
8.8028	48.2358
8.714	48.7905
8.627	48.8074
8.5417	50.3024
8.4581	52.3608
8.3761	54.6503
8.2957	57.785
8.2169	61.7968
8.1395	65.4054
8.0635	67.2045
7.989	67.2762
7.9158	69.9888
7.8439	70.4339
7.7734	71.1411
7.7041	72.0224
7.636	72.5879
7.5691	73.7408
7.5034	74.5709
7.4388	75.0094
7.3753	75.4832
7.3129	75.2373
7.2515	75.4222
7.1912	76.0498
7.1318	75.9252
7.0734	74.9504
7.016	74.5817
6.9595	75.9236
6.9039	74.5859
6.8492	74.5048
6.7953	76.0631
6.7423	75.5139
6.6901	76.6036
6.6387	80.3435
6.5881	77.5799
6.5382	76.4304
6.4892	80.8241
6.4408	77.852
6.3931	76.8936
6.3462	77.1647
6.2999	73.6299
6.2543	71.9808
6.2094	70.8036
6.1651	70.8014
6.1214	71.5378
6.0784	72.2128
6.0359	71.4782
5.994	72.4735
5.9527	71.9558
5.912	72.5503
5.8718	74.9099
5.8322	76.5986
5.7931	77.0237
5.7545	78.9425
5.7165	80.322
5.6789	80.0898
5.6418	80.4173
5.6052	78.1352
5.5691	78.07
5.5334	78.3701
5.4982	79.208
5.4635	80.4771
5.4291	79.6973
5.3952	77.5182
5.3618	75.8931
5.3287	75.7198
5.2961	76.4733
5.2638	77.4295
5.2319	79.124
5.2004	80.1957
5.1693	79.9253
5.1386	79.7291
5.1082	79.6326
5.0782	79.1621
5.0485	78.8291
5.0192	78.8601
4.9902	78.912
4.9616	79.8532
4.9332	80.1946
4.9052	81.1491
4.8776	81.9704
4.8502	82.3388
4.8231	82.3952
4.7963	82.4357
4.7699	82.4187
4.7437	82.3064
4.7178	82.271
4.6922	82.2107
4.6668	82.1567
4.6418	82.2694
4.617	82.1341
4.5924	82.2124
4.5681	82.1299
4.5441	82.2074
4.5203	81.987
4.4968	81.8758
4.4735	81.6897
4.4505	81.7198
4.4277	81.6958
4.4051	81.805
4.3828	81.7617
4.3607	81.8954
4.3388	81.7928
4.3171	81.6737
4.2956	81.2015
4.2744	79.7415
4.2534	80.7332
4.2325	81.4803
4.2119	81.6942
4.1915	81.7413
4.1712	81.6536
4.1512	81.7159
4.1313	81.6908
4.1117	81.5957
4.0922	81.6626
4.0729	81.5914
4.0538	81.4513
4.0349	81.3787
4.0161	81.4224
3.9976	81.3186
3.9792	81.3682
3.9609	81.3955
3.9428	81.4005
3.9249	81.3842
3.9072	81.3809
3.8896	81.2763
3.8722	81.2818
3.8549	81.1498
3.8378	81.0856
3.8208	81.0088
3.804	80.892
3.7873	80.6516
3.7708	80.5934
3.7544	80.2835
3.7382	80.0526
3.7221	79.847
3.7061	79.6738
3.6903	79.4574
3.6746	79.1598
3.659	78.8571
3.6436	78.512
3.6283	78.2597
3.6131	77.8575
3.5981	77.4706
3.5832	77.1154
3.5684	76.6945
3.5537	76.2383
3.5391	75.6436
3.5247	74.6403
3.5104	72.4478
3.4962	71.8085
3.4821	72.4846
3.4681	72.3979
3.4543	71.634
3.4405	70.3484
3.4269	67.6793
3.4133	66.9091
3.3999	69.2558
3.3866	68.8643
3.3733	68.9586
3.3602	70.5848
3.3472	70.641
3.3343	70.6346
3.3215	70.2828
3.3088	69.9681
3.2961	69.5188
3.2836	69.3512
3.2712	68.8515
3.2588	68.5771
3.2466	68.3503
3.2345	68.0285
3.2224	67.6438
3.2104	67.3291
3.1985	66.9375
3.1867	66.5031
3.175	65.9992
3.1634	65.5947
3.1519	65.062
3.1404	64.7232
3.129	64.3243
3.1178	63.9837
3.1065	63.7288
3.0954	63.5648
3.0844	63.2428
3.0734	63.1674
3.0625	63.028
3.0517	63.0733
3.041	62.9245
3.0303	62.854
3.0197	62.7948
3.0092	62.6882
2.9987	62.6463
2.9884	62.5231
2.9781	62.4468
2.9678	62.3927
2.9577	62.189
2.9476	62.407
2.9376	62.6327
2.9276	62.9627
2.9177	63.4717
2.9079	63.7585
2.8982	64.0814
2.8885	64.6388
2.8789	64.9323
2.8693	65.6246
2.8598	66.2323
2.8504	66.8821
2.841	67.6617
2.8317	68.8131
2.8224	69.5052
2.8133	70.5188
2.8041	72.3492
2.7951	72.773
2.786	74.6715
2.7771	75.464
2.7682	77.4158
2.7594	77.9824
2.7506	79.5887
2.7418	82.4815
2.7332	82.8292
2.7246	86.2389
2.716	85.45
2.7075	86.5898
2.699	87.0893
2.6906	87.8252
2.6823	88.5358
2.674	88.9071
2.6657	91.9348
2.6575	88.8825
2.6494	88.8039
2.6413	89.0804
2.6332	89.6544
2.6252	89.6031
2.6173	91.1556
2.6094	89.9948
2.6015	89.9911
2.5937	92.0379
2.5859	90.0085
2.5782	89.7536
2.5706	89.8907
2.5629	90.7251
2.5554	89.2077
2.5478	89.5751
2.5403	89.2968
2.5329	89.4742
2.5255	89.1647
2.5181	89.2662
2.5108	89.2395
2.5035	89.3933
2.4963	89.2243
2.4891	89.5516
2.482	89.3862
2.4749	89.4037
2.4678	89.4401
2.4608	89.4369
2.4538	89.7219
2.4468	89.5656
2.4399	89.6906
2.4331	89.6237
2.4262	89.9016
2.4194	89.6936
2.4127	89.6785
2.4059	89.8555
2.3993	89.7463
2.3926	89.8778
2.386	89.8986
2.3795	89.8689
2.3729	89.9513
2.3664	89.916
2.36	89.9474
2.3535	89.9187
2.3471	89.8557
2.3408	89.8432
2.3345	90.0971
2.3282	89.9457
2.3219	89.8154
2.3157	89.9394
2.3095	89.7471
2.3034	89.753
2.2972	89.921
2.2911	89.9269
2.2851	89.7888
2.279	89.9993
2.2731	89.8397
2.2671	89.9307
2.2612	89.8134
2.2553	89.9254
2.2494	90.0338
2.2435	89.9697
2.2377	90.0907
2.232	89.8602
2.2262	90.1137
2.2205	89.997
2.2148	90.115
2.2091	90.0636
2.2035	90.0971
2.1979	90.1816
2.1923	89.9125
2.1868	90.0148
2.1812	89.98
2.1758	90.1887
2.1703	90.0832
2.1649	90.2182
2.1595	90.2087
2.1541	90.1007
2.1487	90.0953
2.1434	90.089
2.1381	90.1594
2.1328	90.0693
2.1275	89.9744
2.1223	90.1289
2.1171	90.011
2.112	90.015
2.1068	90.0336
2.1017	90.0694
2.0966	90.0398
2.0915	90.2665
2.0865	90.1812
2.0814	89.8066
2.0764	90.3797
2.0715	90.3582
2.0665	89.9369
2.0616	89.917
2.0567	90.123
2.0518	90.2532
2.0469	89.9947
2.0421	90.0695
2.0373	90.1774
2.0325	89.8909
2.0277	90.1237
2.0229	89.8938
2.0182	89.888
2.0135	90.1103
2.0088	89.9344
2.0042	89.8467
