Name: Labradorite (Feldspar) (NaSi,CaAl)AlSi_2O_8
Type: Mineral
Class: Silicate
Subclass: Tectosilicate
Particle Size: Fine
Sample No.: TS-2B
Owner: JPL
Wavelength Range: TIR
Origin: Canada, Quebec, Lake St. John
Description: Particle size was 0-45um.Collected by Ward's Original ASTER Spectral Library name was jpl.nicolet.mineral.silicate.tectosilicate.fine.ts02b.spectrum.txt
Measurement: Hemispherical reflectance
X Units: Wavelength (micrometers)
Y Units: Reflectance (percent)
wavelength	value
15.3853	3.6472
15.1161	2.6181
14.8563	2.5353
14.6052	2.8326
14.3624	2.9194
14.1276	3.2264
13.9004	3.2061
13.6803	3.0365
13.4671	3.3863
13.2604	2.9412
13.06	3.0078
12.8656	3.3951
12.6769	3.6747
12.4936	5.257
12.3155	8.6164
12.1425	11.4513
11.9742	11.5779
11.8106	10.61
11.6513	9.9451
11.4963	9.483
11.3454	8.4279
11.1983	7.0123
11.0551	5.9632
10.9154	6.2038
10.7793	6.0979
10.6465	6.1274
10.5169	6.0085
10.3904	5.9382
10.267	5.5859
10.1464	5.7574
10.0287	6.1705
9.9136	5.9794
9.8012	5.666
9.6913	5.4126
9.5838	5.1567
9.4787	4.6456
9.3758	4.0075
9.2752	3.7697
9.1767	3.9802
9.0803	4.315
8.9858	4.7901
8.8934	4.8125
8.8028	5.1245
8.714	5.242
8.627	5.2257
8.5417	5.2739
8.4581	5.4991
8.3761	5.7721
8.2957	5.0545
8.2169	3.613
8.1395	2.7962
8.0635	2.4301
7.989	2.2552
7.9158	2.5166
7.8439	2.8929
7.7734	3.4339
7.7041	4.1018
7.636	4.6575
7.5691	5.457
7.5034	6.2352
7.4388	7.0189
7.3753	7.7912
7.3129	8.4494
7.2515	8.9166
7.1912	9.5499
7.1318	9.8704
7.0734	10.3529
7.016	10.6918
6.9595	11.0979
6.9039	11.3656
6.8492	11.7758
6.7953	12.4384
6.7423	12.8369
6.6901	13.5063
6.6387	14.7464
6.5881	15.0861
6.5382	15.6075
6.4892	16.798
6.4408	16.6187
6.3931	16.5952
6.3462	16.9807
6.2999	16.6046
6.2543	16.6466
6.2094	16.9055
6.1651	17.1752
6.1214	17.4215
6.0784	17.8715
6.0359	17.9633
5.994	18.4827
5.9527	18.8545
5.912	19.2503
5.8718	20.0755
5.8322	20.8233
5.7931	21.1911
5.7545	21.9048
5.7165	22.4718
5.6789	22.8065
5.6418	23.6251
5.6052	23.6313
5.5691	23.7571
5.5334	24.7232
5.4982	25.5746
5.4635	26.5272
5.4291	27.1629
5.3952	27.9539
5.3618	28.7618
5.3287	29.4074
5.2961	30.0851
5.2638	30.7135
5.2319	31.3702
5.2004	32.309
5.1693	33.3799
5.1386	34.4878
5.1082	35.5827
5.0782	36.8355
5.0485	37.8671
5.0192	38.9878
4.9902	39.7292
4.9616	40.3887
4.9332	40.9413
4.9052	41.3944
4.8776	41.9189
4.8502	42.2922
4.8231	42.6807
4.7963	43.0311
4.7699	43.4973
4.7437	43.9255
4.7178	44.4576
4.6922	44.9492
4.6668	45.4453
4.6418	46.1772
4.617	46.8661
4.5924	47.5634
4.5681	48.2253
4.5441	48.8887
4.5203	49.3431
4.4968	49.9678
4.4735	50.4299
4.4505	50.7978
4.4277	51.2164
4.4051	51.5778
4.3828	52.0348
4.3607	52.2868
4.3388	52.6881
4.3171	52.6902
4.2956	52.4821
4.2744	52.6462
4.2534	53.445
4.2325	52.7477
4.2119	53.7228
4.1915	54.4532
4.1712	54.5293
4.1512	54.6037
4.1313	54.7067
4.1117	54.8024
4.0922	54.8416
4.0729	54.7674
4.0538	54.8593
4.0349	54.6648
4.0161	54.4629
3.9976	53.8946
3.9792	53.3856
3.9609	53.7276
3.9428	54.3666
3.9249	54.6687
3.9072	54.7886
3.8896	54.8739
3.8722	54.8567
3.8549	54.9831
3.8378	55.0328
3.8208	55.2239
3.804	55.3095
3.7873	55.4469
3.7708	55.426
3.7544	55.4091
3.7382	55.496
3.7221	55.5198
3.7061	55.4145
3.6903	55.3294
3.6746	55.2165
3.659	55.2625
3.6436	55.1463
3.6283	55.0882
3.6131	55.076
3.5981	54.9804
3.5832	54.8541
3.5684	54.7205
3.5537	54.5727
3.5391	54.4767
3.5247	54.0566
3.5104	53.6875
3.4962	53.4415
3.4821	53.1976
3.4681	53.1942
3.4543	53.3174
3.4405	53.2332
3.4269	52.9287
3.4133	52.6363
3.3999	52.6074
3.3866	52.586
3.3733	52.3716
3.3602	52.219
3.3472	52.1443
3.3343	52.2464
3.3215	52.2934
3.3088	52.0433
3.2961	51.7889
3.2836	51.6295
3.2712	51.5144
3.2588	51.2293
3.2466	51.096
3.2345	50.6917
3.2224	50.6173
3.2104	50.311
3.1985	49.9629
3.1867	49.6226
3.175	49.3773
3.1634	49.0863
3.1519	48.7573
3.1404	48.4597
3.129	48.1306
3.1178	47.8651
3.1065	47.6356
3.0954	47.4066
3.0844	46.9436
3.0734	46.6269
3.0625	46.4945
3.0517	46.1982
3.041	45.8292
3.0303	45.5271
3.0197	45.1526
3.0092	44.7575
2.9987	44.7212
2.9884	44.184
2.9781	43.8637
2.9678	43.5337
2.9577	43.2317
2.9476	43.0585
2.9376	42.8763
2.9276	42.6628
2.9177	42.7125
2.9079	42.7884
2.8982	42.6411
2.8885	42.9782
2.8789	42.8426
2.8693	42.8484
2.8598	42.675
2.8504	42.7483
2.841	42.5823
2.8317	42.5347
2.8224	42.4491
2.8133	42.3061
2.8041	42.5792
2.7951	41.9592
2.786	41.6907
2.7771	40.211
2.7682	39.4629
2.7594	38.6429
2.7506	39.4019
2.7418	41.3644
2.7332	42.8197
2.7246	46.4908
2.716	48.9121
2.7075	51.9456
2.699	53.9688
2.6906	55.4181
2.6823	56.2169
2.674	56.6996
2.6657	58.2824
2.6575	56.6688
2.6494	56.5887
2.6413	56.7632
2.6332	57.1137
2.6252	57.1019
2.6173	57.6873
2.6094	57.1068
2.6015	57.1745
2.5937	58.3051
2.5859	57.1153
2.5782	57.0932
2.5706	57.2582
2.5629	57.6357
2.5554	56.8366
2.5478	56.9077
2.5403	56.7858
2.5329	56.9738
2.5255	56.8352
2.5181	56.8164
2.5108	56.7461
2.5035	56.7056
2.4963	56.7789
2.4891	56.6509
2.482	56.6046
2.4749	56.72
2.4678	56.6694
2.4608	56.7754
2.4538	56.7054
2.4468	56.8465
2.4399	56.7447
2.4331	56.8669
2.4262	56.5659
2.4194	56.8755
2.4127	56.9069
2.4059	56.8338
2.3993	56.8056
2.3926	56.8367
2.386	56.7796
2.3795	56.9703
2.3729	56.9011
2.3664	56.8821
2.36	56.7521
2.3535	56.714
2.3471	56.7425
2.3408	56.6946
2.3345	56.7579
2.3282	56.8341
2.3219	56.8236
2.3157	56.7927
2.3095	56.9027
2.3034	56.9084
2.2972	56.8327
2.2911	57.0309
2.2851	56.629
2.279	56.7477
2.2731	56.9996
2.2671	56.9098
2.2612	56.851
2.2553	56.8287
2.2494	56.8002
2.2435	56.9312
2.2377	56.978
2.232	56.8376
2.2262	56.9303
2.2205	56.8246
2.2148	56.875
2.2091	56.7317
2.2035	56.7648
2.1979	56.8587
2.1923	56.709
2.1868	57.0781
2.1812	56.6992
2.1758	56.9862
2.1703	56.9961
2.1649	56.8348
2.1595	56.7903
2.1541	57.0169
2.1487	57.2018
2.1434	57.0937
2.1381	56.9743
2.1328	57.1564
2.1275	57.0323
2.1223	57.0446
2.1171	57.0818
2.112	57.0243
2.1068	56.8787
2.1017	56.8009
2.0966	57.3186
2.0915	57.092
2.0865	56.9769
2.0814	56.6049
2.0764	56.8199
2.0715	56.8255
2.0665	56.9308
2.0616	56.8325
2.0567	56.8736
2.0518	57.1616
2.0469	57.113
2.0421	57.0005
2.0373	57.1282
2.0325	56.8878
2.0277	57.0554
2.0229	57.0628
2.0182	56.9953
2.0135	57.0093
2.0088	56.9357
2.0042	56.9552
