Name: Vermiculite (Mg,Fe^2+,Al)_3(Al,Si)_4O_10(OH)_2.4H_2O
Type: Mineral
Class: Silicate
Subclass: Phyllosilicate
Particle Size: Medium
Sample No.: PS-18A
Owner: JPL
Wavelength Range: VSWIR
Origin: USA, Texas, Llano County, Llano.
Description: Particle size was 45-125um.Collected by:  Clay Mineral Society Original ASTER Spectral Library name was jpl.perkin.mineral.silicate.phyllosilicate.medium.ps18a.spectrum.txt
Measurement: Hemispherical reflectance
X Units: Wavelength (micrometers)
Y Units: Reflectance (percent)
wavelength	value
2.5	36.1893
2.494	36.9734
2.488	37.7749
2.482	38.8385
2.476	39.7993
2.47	40.6095
2.464	41.4525
2.458	41.8965
2.452	42.4349
2.446	43.0114
2.44	43.4241
2.434	44.0346
2.428	44.6601
2.422	45.4192
2.416	46.2416
2.41	46.9077
2.404	47.4316
2.398	47.8994
2.392	48.313
2.386	48.7915
2.38	49.4063
2.374	50.3118
2.368	51.1918
2.362	51.8754
2.356	51.7718
2.35	50.4916
2.344	48.1795
2.338	45.6166
2.332	43.5585
2.326	42.4841
2.32	42.3
2.314	42.8774
2.308	44.4507
2.302	46.2036
2.296	47.7449
2.29	49.1883
2.284	50.3834
2.278	51.2404
2.272	52.0739
2.266	53.3221
2.26	54.8697
2.254	56.0477
2.248	56.7451
2.242	57.6879
2.236	59.2374
2.23	61.1323
2.224	62.715
2.218	63.7946
2.212	64.6324
2.206	65.1722
2.2	65.8288
2.194	66.0909
2.188	66.5153
2.182	66.7603
2.176	66.9131
2.17	66.8842
2.164	66.8948
2.158	66.7549
2.152	66.5401
2.146	66.0441
2.14	65.4248
2.134	64.8482
2.128	64.6431
2.122	64.6625
2.116	64.4047
2.11	63.9707
2.104	63.7732
2.098	63.7213
2.092	63.8336
2.086	64.1662
2.08	64.7159
2.074	65.0816
2.068	65.1893
2.062	65.0319
2.056	64.7962
2.05	64.3649
2.044	63.9025
2.038	63.4964
2.032	63.0757
2.026	62.6424
2.02	62.2715
2.014	61.7854
2.008	61.3554
2.002	60.7121
1.996	60.16
1.99	59.5867
1.984	59.0407
1.978	58.7199
1.972	58.2708
1.966	58.1511
1.96	57.9818
1.954	57.8213
1.948	57.6321
1.942	57.3234
1.936	57.0234
1.93	56.8473
1.924	56.7016
1.918	56.863
1.912	57.5016
1.906	59.0701
1.9	61.4989
1.894	64.3215
1.888	66.7412
1.882	68.5845
1.876	70.2365
1.87	71.523
1.864	72.3486
1.858	72.7936
1.852	73.0868
1.846	73.3687
1.84	73.7098
1.834	73.7975
1.828	73.9895
1.822	74.0667
1.816	74.1214
1.81	74.1774
1.804	74.2953
1.798	74.5409
1.792	74.5112
1.786	74.5814
1.78	74.6568
1.774	74.731
1.768	74.7725
1.762	74.8143
1.756	74.8911
1.75	75.0843
1.744	75.0542
1.738	75.2059
1.732	75.3009
1.726	75.3067
1.72	75.3586
1.714	75.5143
1.708	75.5196
1.702	75.5944
1.696	75.8055
1.69	75.7693
1.684	75.8165
1.678	75.8925
1.672	75.9123
1.666	76.0692
1.66	76.0885
1.654	76.1786
1.648	76.2215
1.642	76.322
1.636	76.3161
1.63	76.3287
1.624	76.278
1.618	76.323
1.612	76.3687
1.606	76.3264
1.6	76.419
1.594	76.4249
1.588	76.3298
1.582	76.1515
1.576	76.2474
1.57	76.1383
1.564	76.0075
1.558	75.8266
1.552	75.7024
1.546	75.5875
1.54	75.4954
1.534	75.3006
1.528	75.1538
1.522	74.8483
1.516	74.7386
1.51	74.5209
1.504	74.2573
1.498	74.0044
1.492	73.7414
1.486	73.4856
1.48	73.2354
1.474	73.0076
1.468	72.7335
1.462	72.5959
1.456	72.4397
1.45	72.2379
1.444	71.9092
1.438	71.7856
1.432	71.5194
1.426	71.2827
1.42	71.1825
1.414	70.6762
1.408	68.5085
1.402	65.3817
1.396	59.8799
1.39	59.4334
1.384	59.2978
1.378	72.4711
1.372	75.314
1.366	75.4611
1.36	75.0452
1.354	76.1159
1.348	77.4873
1.342	77.7921
1.336	77.9147
1.33	78.0073
1.324	77.9922
1.318	77.9565
1.312	77.9496
1.306	77.8697
1.3	77.7366
1.294	77.6054
1.288	77.0196
1.282	76.981
1.276	77.0884
1.27	77.2855
1.264	77.3979
1.258	77.5097
1.252	77.5626
1.246	77.5678
1.24	77.5521
1.234	77.4726
1.228	77.3586
1.222	77.3453
1.216	77.2843
1.21	77.2009
1.204	77.1513
1.198	77.0067
1.192	77.0829
1.186	77.0672
1.18	77.0076
1.174	76.8743
1.168	76.8479
1.162	76.763
1.156	76.9258
1.15	76.856
1.144	76.8485
1.138	76.8928
1.132	76.8799
1.126	76.7983
1.12	76.7986
1.114	76.8197
1.108	76.732
1.102	76.7059
1.096	76.6744
1.09	76.6256
1.084	76.5464
1.078	76.4737
1.072	76.492
1.066	76.3916
1.06	76.3236
1.054	76.2791
1.048	76.2187
1.042	76.2028
1.036	76.1849
1.03	76.1101
1.024	76.1015
1.018	76.0135
1.012	75.9995
1.006	75.9026
1	75.8886
0.994	75.9454
0.988	75.853
0.982	75.8252
0.976	75.8612
0.97	75.8144
0.964	75.6613
0.958	75.3997
0.952	75.0738
0.946	74.9988
0.94	75.4744
0.934	75.8031
0.928	75.8482
0.922	75.887
0.916	75.9056
0.91	75.9158
0.904	75.8413
0.898	75.801
0.892	75.9093
0.886	75.848
0.88	75.9095
0.874	75.875
0.868	75.8475
0.862	75.9248
0.856	75.9618
0.85	76.0098
0.844	75.9746
0.838	76.0026
0.832	75.9782
0.826	75.9645
0.82	75.9452
0.814	75.9789
0.808	75.9116
0.802	75.8577
0.796	75.7512
0.79	75.6521
0.784	75.6438
0.778	75.5738
0.772	75.4465
0.766	75.3385
0.76	75.3052
0.754	75.1883
0.748	75.0789
0.742	74.9888
0.736	74.8715
0.73	74.7254
0.724	74.6201
0.718	74.5221
0.712	74.4153
0.706	74.2836
0.7	74.1509
0.694	74.0113
0.688	73.8435
0.682	73.7174
0.676	73.5243
0.67	73.3403
0.664	73.1562
0.658	72.9391
0.652	72.7172
0.646	72.5206
0.64	72.2875
0.634	72.062
0.628	71.8426
0.622	71.6314
0.616	71.4174
0.61	71.1845
0.604	70.9367
0.598	70.7101
0.592	70.4972
0.586	70.1987
0.58	69.881
0.574	69.5375
0.568	69.1721
0.562	68.7715
0.556	68.2956
0.55	67.8063
0.544	67.2765
0.538	66.6963
0.532	66.067
0.526	65.4132
0.52	64.7314
0.514	64.0077
0.508	63.2436
0.502	62.4315
0.496	61.5922
0.49	60.7542
0.484	59.9025
0.478	59.1702
0.472	58.4295
0.466	57.6518
0.46	56.9158
0.454	56.1323
0.448	55.2147
0.442	54.1765
0.436	53.1756
0.43	52.2352
0.424	51.3583
0.418	50.467
0.412	49.5692
0.406	48.6572
0.4	47.6307
