Name: Tincalconite Na_2B_4O_5(OH)_4.3H_2O
Type: Mineral
Class: Borate
Subclass: None
Particle Size: Coarse
Sample No.: B-4A
Owner: JPL
Wavelength Range: TIR
Origin: USA, California, Kern County, Boron
Description: Particle size was 125-500um.Collected by Burminco Original ASTER Spectral Library name was jpl.nicolet.mineral.borate.none.coarse.b04a.spectrum.txt
Measurement: Hemispherical reflectance
X Units: Wavelength (micrometers)
Y Units: Reflectance (percent)
wavelength	value
15.3853	2.7861
15.1161	2.8277
14.8563	2.9818
14.6052	3.1099
14.3624	3.0072
14.1276	3.2876
13.9004	2.6065
13.6803	2.1729
13.4671	2.6079
13.2604	2.7968
13.06	3.0933
12.8656	3.2128
12.6769	3.2574
12.4936	3.5588
12.3155	4.5751
12.1425	6.6677
11.9742	4.2928
11.8106	1.1905
11.6513	1.2448
11.4963	1.9036
11.3454	1.8435
11.1983	2.0522
11.0551	2.5551
10.9154	2.9216
10.7793	3.5693
10.6465	5.1365
10.5169	4.8623
10.3904	1.9679
10.267	3.3173
10.1464	5.3965
10.0287	8.3342
9.9136	9.2245
9.8012	5.7222
9.6913	5.9395
9.5838	5.2104
9.4787	1.9731
9.3758	1.1659
9.2752	1.2592
9.1767	0.9127
9.0803	1.1266
8.9858	1.3551
8.8934	2.9867
8.8028	4.2612
8.714	1.7672
8.627	1.2655
8.5417	0.938
8.4581	0.7085
8.3761	0.9391
8.2957	1.2052
8.2169	1.2906
8.1395	1.3997
8.0635	1.7362
7.989	2.1768
7.9158	1.7986
7.8439	1.6592
7.7734	1.5093
7.7041	1.1796
7.636	1.4104
7.5691	2.1665
7.5034	3.1114
7.4388	3.5405
7.3753	2.8477
7.3129	2.0747
7.2515	2.2225
7.1912	2.2195
7.1318	2.0711
7.0734	2.2098
7.016	2.7119
6.9595	2.6874
6.9039	1.8555
6.8492	1.6435
6.7953	2.36
6.7423	2.8552
6.6901	3.31
6.6387	2.7228
6.5881	1.2716
6.5382	0.5053
6.4892	0.3789
6.4408	0.3305
6.3931	0.4302
6.3462	0.5584
6.2999	0.6588
6.2543	0.6164
6.2094	0.6359
6.1651	0.7247
6.1214	0.8543
6.0784	0.5998
6.0359	0.6314
5.994	0.5384
5.9527	0.6684
5.912	0.4731
5.8718	0.6474
5.8322	0.5948
5.7931	0.7599
5.7545	0.9321
5.7165	1.0199
5.6789	1.04
5.6418	1.28
5.6052	1.0699
5.5691	1.2922
5.5334	1.2113
5.4982	1.4264
5.4635	1.428
5.4291	1.504
5.3952	1.6517
5.3618	1.8303
5.3287	1.9182
5.2961	1.9103
5.2638	1.965
5.2319	2.0024
5.2004	2.0348
5.1693	1.97
5.1386	2.0399
5.1082	2.109
5.0782	2.2263
5.0485	2.3053
5.0192	2.2873
4.9902	2.3787
4.9616	2.3543
4.9332	2.4113
4.9052	2.4475
4.8776	2.5253
4.8502	2.6186
4.8231	2.5651
4.7963	2.7801
4.7699	2.6951
4.7437	2.6025
4.7178	2.6787
4.6922	2.6025
4.6668	2.5877
4.6418	2.544
4.617	2.458
4.5924	2.5372
4.5681	2.4901
4.5441	2.3508
4.5203	2.4228
4.4968	2.4673
4.4735	2.4097
4.4505	2.6444
4.4277	2.6261
4.4051	2.5654
4.3828	2.728
4.3607	2.4461
4.3388	2.5172
4.3171	2.5535
4.2956	2.5263
4.2744	2.5484
4.2534	2.4834
4.2325	2.3167
4.2119	2.2432
4.1915	2.0446
4.1712	1.7456
4.1512	1.5413
4.1313	1.4522
4.1117	1.397
4.0922	1.4824
4.0729	1.3234
4.0538	1.4268
4.0349	1.3754
4.0161	1.3044
3.9976	1.4446
3.9792	1.4509
3.9609	1.535
3.9428	1.5913
3.9249	1.6156
3.9072	1.5449
3.8896	1.4945
3.8722	1.4238
3.8549	1.3814
3.8378	1.296
3.8208	1.3613
3.804	1.3457
3.7873	1.3306
3.7708	1.4123
3.7544	1.421
3.7382	1.4546
3.7221	1.4277
3.7061	1.5341
3.6903	1.523
3.6746	1.3356
3.659	1.4837
3.6436	1.4694
3.6283	1.3365
3.6131	1.3273
3.5981	1.3666
3.5832	1.3136
3.5684	1.3861
3.5537	1.4105
3.5391	1.3922
3.5247	1.3461
3.5104	1.4858
3.4962	1.3171
3.4821	1.3074
3.4681	1.4447
3.4543	1.4529
3.4405	1.3317
3.4269	1.475
3.4133	1.3017
3.3999	1.2488
3.3866	1.5026
3.3733	1.4329
3.3602	1.3253
3.3472	1.4298
3.3343	1.3208
3.3215	1.3343
3.3088	1.3486
3.2961	1.1446
3.2836	1.2124
3.2712	1.2352
3.2588	1.2558
3.2466	1.2446
3.2345	1.2193
3.2224	1.1118
3.2104	1.2353
3.1985	1.2271
3.1867	1.3322
3.175	1.3574
3.1634	1.2402
3.1519	1.3532
3.1404	1.2142
3.129	1.3686
3.1178	1.31
3.1065	1.4399
3.0954	1.3634
3.0844	1.2462
3.0734	1.4195
3.0625	1.4507
3.0517	1.352
3.041	1.5807
3.0303	1.4791
3.0197	1.8452
3.0092	1.6586
2.9987	1.668
2.9884	1.7776
2.9781	1.4571
2.9678	1.1782
2.9577	0.893
2.9476	0.7287
2.9376	0.7432
2.9276	0.6629
2.9177	0.5425
2.9079	0.5173
2.8982	0.6225
2.8885	0.6694
2.8789	0.5761
2.8693	0.5004
2.8598	0.5999
2.8504	0.6176
2.841	0.5088
2.8317	0.4418
2.8224	0.6805
2.8133	0.5986
2.8041	0.5964
2.7951	0.6618
2.786	0.7073
2.7771	0.6695
2.7682	0.852
2.7594	0.9467
2.7506	0.969
2.7418	1.2857
2.7332	1.9162
2.7246	2.4726
2.716	3.3527
2.7075	4.3004
2.699	4.9955
2.6906	5.8917
2.6823	6.5464
2.674	7.1098
2.6657	7.8544
2.6575	8.3683
2.6494	8.8739
2.6413	9.2118
2.6332	9.8438
2.6252	10.2515
2.6173	10.8986
2.6094	10.9254
2.6015	11.3123
2.5937	11.8307
2.5859	11.626
2.5782	11.6775
2.5706	11.6156
2.5629	11.6426
2.5554	11.2155
2.5478	10.9165
2.5403	10.7205
2.5329	10.5955
2.5255	10.5746
2.5181	11.0953
2.5108	11.4904
2.5035	12.3813
2.4963	12.8656
2.4891	13.6722
2.482	14.4526
2.4749	14.9766
2.4678	15.6227
2.4608	16.1024
2.4538	16.3613
2.4468	16.6492
2.4399	16.6698
2.4331	16.8383
2.4262	17.5338
2.4194	18.0687
2.4127	18.8364
2.4059	19.6268
2.3993	20.3878
2.3926	21.1627
2.386	22.0088
2.3795	22.8617
2.3729	23.2976
2.3664	24.0789
2.36	24.4058
2.3535	24.7151
2.3471	24.9779
2.3408	25.18
2.3345	25.3771
2.3282	25.3705
2.3219	25.4002
2.3157	25.3786
2.3095	25.6355
2.3034	25.4249
2.2972	25.5465
2.2911	25.4814
2.2851	25.392
2.279	25.3892
2.2731	25.5124
2.2671	25.6806
2.2612	25.3334
2.2553	25.6676
2.2494	25.6647
2.2435	25.5938
2.2377	25.9566
2.232	26.0881
2.2262	26.0437
2.2205	26.1358
2.2148	26.7523
2.2091	26.8149
2.2035	26.7907
2.1979	27.0207
2.1923	27.1475
2.1868	26.7939
2.1812	26.8278
2.1758	26.144
2.1703	25.6573
2.1649	24.9958
2.1595	24.55
2.1541	24.3379
2.1487	24.5114
2.1434	25.0518
2.1381	25.789
2.1328	26.4022
2.1275	26.5479
2.1223	26.6518
2.1171	26.6111
2.112	26.3406
2.1068	26.0943
2.1017	26.1571
2.0966	25.9902
2.0915	26.1361
2.0865	26.3562
2.0814	26.2449
2.0764	26.3458
2.0715	25.989
2.0665	25.715
2.0616	26.0525
2.0567	25.5624
2.0518	25.5165
2.0469	25.1996
2.0421	25.1562
2.0373	25.2231
2.0325	25.1085
2.0277	24.8745
2.0229	24.5177
2.0182	24.345
2.0135	24.2787
2.0088	24.265
2.0042	24.0456
