Name: Graphite C
Type: Mineral
Class: Element
Subclass: None
Particle Size: Coarse
Sample No.: E-1A
Owner: JPL
Wavelength Range: TIR
Origin: Mexico, Sonora, Morelos, San Jose Mine
Description: Particle size was 125-500um.Collected by Burminco Original ASTER Spectral Library name was jpl.nicolet.mineral.element.none.coarse.e01a.spectrum.txt
Measurement: Hemispherical reflectance
X Units: Wavelength (micrometers)
Y Units: Reflectance (percent)
wavelength	value
15.3853	14.3174
15.1161	14.0299
14.8563	14.4563
14.6052	14.0334
14.3624	13.9292
14.1276	13.7144
13.9004	13.5381
13.6803	13.6624
13.4671	13.447
13.2604	13.6312
13.06	13.5857
12.8656	13.4564
12.6769	13.1842
12.4936	13.3069
12.3155	13.0031
12.1425	12.8857
11.9742	12.9065
11.8106	12.7271
11.6513	12.7354
11.4963	12.6686
11.3454	12.6486
11.1983	12.5853
11.0551	12.4943
10.9154	12.4051
10.7793	12.2947
10.6465	12.3174
10.5169	12.4292
10.3904	12.1899
10.267	12.227
10.1464	12.2753
10.0287	12.243
9.9136	12.3332
9.8012	12.3624
9.6913	12.361
9.5838	12.4919
9.4787	12.2141
9.3758	12.1906
9.2752	12.2568
9.1767	12.1502
9.0803	12.1955
8.9858	12.0423
8.8934	11.9502
8.8028	12.0311
8.714	11.8335
8.627	11.6882
8.5417	11.6868
8.4581	11.7071
8.3761	11.6265
8.2957	11.4938
8.2169	11.5354
8.1395	11.4674
8.0635	11.0664
7.989	10.9663
7.9158	11.0211
7.8439	10.8457
7.7734	10.8833
7.7041	10.8162
7.636	10.746
7.5691	10.7498
7.5034	10.8274
7.4388	10.7554
7.3753	10.625
7.3129	10.6638
7.2515	10.5248
7.1912	10.4969
7.1318	10.4957
7.0734	10.468
7.016	10.5384
6.9595	10.4975
6.9039	10.4089
6.8492	10.3737
6.7953	10.371
6.7423	10.3046
6.6901	10.2198
6.6387	10.3983
6.5881	10.3164
6.5382	10.1076
6.4892	10.3731
6.4408	10.2258
6.3931	10.1228
6.3462	10.1773
6.2999	10.0468
6.2543	9.9749
6.2094	9.9724
6.1651	9.9071
6.1214	9.9778
6.0784	9.9372
6.0359	9.776
5.994	9.8929
5.9527	9.7228
5.912	9.7107
5.8718	9.704
5.8322	9.7159
5.7931	9.6534
5.7545	9.7047
5.7165	9.709
5.6789	9.6318
5.6418	9.4512
5.6052	9.5525
5.5691	9.4804
5.5334	9.4407
5.4982	9.4805
5.4635	9.4254
5.4291	9.3405
5.3952	9.3203
5.3618	9.2522
5.3287	9.2299
5.2961	9.2702
5.2638	9.3535
5.2319	9.134
5.2004	9.268
5.1693	9.2517
5.1386	9.1593
5.1082	9.2537
5.0782	9.1256
5.0485	9.122
5.0192	9.0329
4.9902	9.1365
4.9616	9.0532
4.9332	9.0256
4.9052	9.0581
4.8776	9.0043
4.8502	9.028
4.8231	8.9961
4.7963	8.9907
4.7699	8.9162
4.7437	8.934
4.7178	8.931
4.6922	8.8327
4.6668	8.8932
4.6418	8.8829
4.617	8.7895
4.5924	8.8822
4.5681	8.7879
4.5441	8.7824
4.5203	8.8166
4.4968	8.7492
4.4735	8.7775
4.4505	8.7027
4.4277	8.7764
4.4051	8.6376
4.3828	8.69
4.3607	8.6022
4.3388	8.5582
4.3171	8.6102
4.2956	8.5857
4.2744	8.528
4.2534	8.6086
4.2325	8.5854
4.2119	8.5613
4.1915	8.5274
4.1712	8.4138
4.1512	8.5713
4.1313	8.3659
4.1117	8.4144
4.0922	8.4687
4.0729	8.3537
4.0538	8.3679
4.0349	8.4878
4.0161	8.3442
3.9976	8.344
3.9792	8.5057
3.9609	8.2006
3.9428	8.3434
3.9249	8.2517
3.9072	8.299
3.8896	8.1779
3.8722	8.2392
3.8549	8.3106
3.8378	8.2399
3.8208	8.1269
3.804	8.239
3.7873	8.1026
3.7708	8.206
3.7544	8.1942
3.7382	8.0534
3.7221	8.137
3.7061	8.1299
3.6903	8.1364
3.6746	8.2534
3.659	8.0791
3.6436	8.1261
3.6283	8.0509
3.6131	8.132
3.5981	8.0829
3.5832	8.0422
3.5684	7.9874
3.5537	7.9364
3.5391	7.9606
3.5247	8.0513
3.5104	7.943
3.4962	8.0152
3.4821	7.9273
3.4681	7.8708
3.4543	8.0455
3.4405	7.8696
3.4269	7.9797
3.4133	7.8626
3.3999	8.0457
3.3866	7.8651
3.3733	7.8796
3.3602	7.9612
3.3472	7.8461
3.3343	7.7485
3.3215	7.7632
3.3088	7.7424
3.2961	7.6863
3.2836	7.7179
3.2712	7.8301
3.2588	7.6604
3.2466	7.7857
3.2345	7.7942
3.2224	7.6356
3.2104	7.7185
3.1985	7.6457
3.1867	7.712
3.175	7.7166
3.1634	7.7123
3.1519	7.5861
3.1404	7.5681
3.129	7.5946
3.1178	7.6292
3.1065	7.606
3.0954	7.7045
3.0844	7.6057
3.0734	7.7077
3.0625	7.5892
3.0517	7.6661
3.041	7.5718
3.0303	7.5715
3.0197	7.6207
3.0092	7.4878
2.9987	7.4643
2.9884	7.5298
2.9781	7.5927
2.9678	7.5989
2.9577	7.6388
2.9476	7.5806
2.9376	7.6145
2.9276	7.304
2.9177	7.4891
2.9079	7.3853
2.8982	7.2676
2.8885	7.5346
2.8789	7.488
2.8693	7.2784
2.8598	7.3297
2.8504	7.3292
2.841	7.2765
2.8317	7.3215
2.8224	7.2334
2.8133	7.4094
2.8041	7.4763
2.7951	7.2912
2.786	7.2202
2.7771	7.0694
2.7682	7.2705
2.7594	7.3265
2.7506	7.3178
2.7418	7.2626
2.7332	6.9876
2.7246	7.1687
2.716	6.9619
2.7075	7.2952
2.699	7.2008
2.6906	7.1582
2.6823	7.0746
2.674	7.0209
2.6657	7.125
2.6575	6.972
2.6494	7.1889
2.6413	6.9295
2.6332	7.107
2.6252	7.1493
2.6173	7.2308
2.6094	7.0967
2.6015	6.9829
2.5937	7.2403
2.5859	7.0951
2.5782	7.0436
2.5706	6.9183
2.5629	7.0938
2.5554	7.1155
2.5478	6.9084
2.5403	7.0387
2.5329	7.0552
2.5255	6.9754
2.5181	6.9919
2.5108	6.9515
2.5035	7.0079
2.4963	6.8794
2.4891	6.9422
2.482	6.9911
2.4749	6.7925
2.4678	6.7992
2.4608	7.0101
2.4538	6.8907
2.4468	6.7878
2.4399	6.8547
2.4331	6.9276
2.4262	6.7774
2.4194	6.7025
2.4127	6.7023
2.4059	6.8046
2.3993	6.8318
2.3926	6.7927
2.386	6.8549
2.3795	6.7382
2.3729	6.9494
2.3664	6.8423
2.36	6.7886
2.3535	6.5028
2.3471	6.8141
2.3408	6.8673
2.3345	6.7059
2.3282	6.878
2.3219	6.7312
2.3157	6.8136
2.3095	6.7774
2.3034	6.7315
2.2972	6.7074
2.2911	6.6511
2.2851	6.616
2.279	6.7452
2.2731	6.733
2.2671	6.5783
2.2612	6.6529
2.2553	6.5834
2.2494	6.4804
2.2435	6.7048
2.2377	6.5622
2.232	6.5839
2.2262	6.4725
2.2205	6.5683
2.2148	6.824
2.2091	6.6842
2.2035	6.5469
2.1979	6.5663
2.1923	6.711
2.1868	6.6487
2.1812	6.8268
2.1758	6.6432
2.1703	6.321
2.1649	6.7313
2.1595	6.6201
2.1541	6.7999
2.1487	6.4291
2.1434	6.8937
2.1381	6.474
2.1328	6.597
2.1275	6.5361
2.1223	6.6482
2.1171	6.4386
2.112	6.388
2.1068	6.6683
2.1017	6.5004
2.0966	6.7245
2.0915	7.0549
2.0865	6.4947
2.0814	6.661
2.0764	6.6842
2.0715	6.9809
2.0665	7.13
2.0616	6.6194
2.0567	6.3106
2.0518	6.4403
2.0469	6.3257
2.0421	6.5419
2.0373	6.6348
2.0325	6.58
2.0277	5.9485
2.0229	6.5996
2.0182	6.4725
2.0135	6.5846
2.0088	6.6329
2.0042	6.9056
