Name: Bornite Cu_5FeS_4
Type: Mineral
Class: Sulfide
Subclass: None
Particle Size: Medium
Sample No.: S-9A
Owner: JPL
Wavelength Range: TIR
Origin: USA, Arizona, Pinal County, Superior, Magma Mine
Description: Particle size was 45-125um.Collected by Burminco Original ASTER Spectral Library name was jpl.nicolet.mineral.sulfide.none.medium.s09a.spectrum.txt
Measurement: Hemispherical reflectance
X Units: Wavelength (micrometers)
Y Units: Reflectance (percent)
wavelength	value
15.3853	16.5184
15.1161	16.5345
14.8563	16.6345
14.6052	16.704
14.3624	16.7138
14.1276	16.8025
13.9004	16.6798
13.6803	16.612
13.4671	16.8067
13.2604	16.8639
13.06	16.9137
12.8656	17.1264
12.6769	17.1341
12.4936	17.2848
12.3155	17.0342
12.1425	17.0421
11.9742	16.9312
11.8106	17.0478
11.6513	17.1621
11.4963	17.0833
11.3454	17.1756
11.1983	17.1748
11.0551	17.1756
10.9154	17.2491
10.7793	17.187
10.6465	17.2007
10.5169	17.1699
10.3904	17.3731
10.267	17.3118
10.1464	17.3667
10.0287	17.2055
9.9136	17.568
9.8012	17.6041
9.6913	17.7829
9.5838	17.7814
9.4787	17.9546
9.3758	18.3491
9.2752	18.6387
9.1767	18.6436
9.0803	18.5807
8.9858	18.5606
8.8934	18.6533
8.8028	18.6845
8.714	18.3376
8.627	18.1936
8.5417	18.4176
8.4581	18.5269
8.3761	18.5142
8.2957	18.58
8.2169	18.4233
8.1395	18.1294
8.0635	18.0359
7.989	17.8643
7.9158	17.7734
7.8439	17.5972
7.7734	17.6597
7.7041	17.6349
7.636	17.6345
7.5691	17.6111
7.5034	17.4798
7.4388	17.6706
7.3753	17.566
7.3129	17.665
7.2515	17.6144
7.1912	17.771
7.1318	17.801
7.0734	17.6961
7.016	17.7622
6.9595	18.0591
6.9039	17.8434
6.8492	17.9595
6.7953	17.9766
6.7423	17.7317
6.6901	17.7175
6.6387	18.3642
6.5881	18.0723
6.5382	17.9515
6.4892	18.3725
6.4408	17.9905
6.3931	17.917
6.3462	17.9705
6.2999	17.6214
6.2543	17.6268
6.2094	17.6617
6.1651	17.757
6.1214	17.9242
6.0784	18.02
6.0359	17.8001
5.994	17.8434
5.9527	17.7406
5.912	17.6939
5.8718	17.765
5.8322	17.8932
5.7931	17.7801
5.7545	17.7361
5.7165	17.9099
5.6789	17.8629
5.6418	17.9119
5.6052	17.5558
5.5691	17.4892
5.5334	17.5795
5.4982	17.5186
5.4635	17.6571
5.4291	17.5965
5.3952	17.4835
5.3618	17.5479
5.3287	17.4307
5.2961	17.6294
5.2638	17.4899
5.2319	17.5732
5.2004	17.6763
5.1693	17.6892
5.1386	17.6879
5.1082	17.6364
5.0782	17.6004
5.0485	17.6469
5.0192	17.5893
4.9902	17.6668
4.9616	17.6672
4.9332	17.7078
4.9052	17.7568
4.8776	17.8162
4.8502	17.9036
4.8231	17.8964
4.7963	17.8041
4.7699	17.9534
4.7437	17.7935
4.7178	17.8853
4.6922	17.8739
4.6668	17.7506
4.6418	17.9108
4.617	17.8971
4.5924	17.9302
4.5681	17.9429
4.5441	17.9805
4.5203	17.8299
4.4968	17.8566
4.4735	17.8818
4.4505	17.8675
4.4277	17.8501
4.4051	17.8407
4.3828	17.9572
4.3607	17.9208
4.3388	17.8632
4.3171	17.8688
4.2956	17.9395
4.2744	17.9003
4.2534	17.8595
4.2325	17.7681
4.2119	17.9057
4.1915	17.9537
4.1712	18.0032
4.1512	18.0009
4.1313	18.0066
4.1117	17.9684
4.0922	17.7689
4.0729	17.9268
4.0538	17.9286
4.0349	17.8549
4.0161	17.9124
3.9976	17.8159
3.9792	17.8652
3.9609	17.8134
3.9428	17.9607
3.9249	17.8508
3.9072	17.9341
3.8896	17.9367
3.8722	17.8193
3.8549	17.8262
3.8378	17.9225
3.8208	17.939
3.804	17.8164
3.7873	17.8505
3.7708	17.9724
3.7544	17.8464
3.7382	18.0163
3.7221	17.9396
3.7061	17.9551
3.6903	17.9049
3.6746	17.809
3.659	17.8956
3.6436	17.9129
3.6283	17.9053
3.6131	17.9709
3.5981	18.0265
3.5832	17.839
3.5684	17.9326
3.5537	17.9836
3.5391	17.8634
3.5247	17.9574
3.5104	17.9964
3.4962	17.917
3.4821	17.8799
3.4681	17.932
3.4543	17.8733
3.4405	18.0099
3.4269	17.9217
3.4133	17.8848
3.3999	18.0134
3.3866	17.8642
3.3733	17.9292
3.3602	17.9398
3.3472	17.7405
3.3343	17.8699
3.3215	17.8253
3.3088	17.8991
3.2961	17.9604
3.2836	17.9297
3.2712	17.8492
3.2588	17.8663
3.2466	17.7749
3.2345	18.0027
3.2224	17.8339
3.2104	17.9346
3.1985	17.7113
3.1867	17.8667
3.175	17.7526
3.1634	17.7435
3.1519	17.8957
3.1404	17.905
3.129	17.768
3.1178	17.7824
3.1065	17.891
3.0954	17.8162
3.0844	17.7394
3.0734	17.7904
3.0625	17.7991
3.0517	17.7876
3.041	17.7216
3.0303	17.7814
3.0197	17.8484
3.0092	17.7475
2.9987	17.6911
2.9884	17.7356
2.9781	17.7113
2.9678	17.7921
2.9577	17.6327
2.9476	17.6686
2.9376	17.6304
2.9276	17.7379
2.9177	17.7836
2.9079	17.8106
2.8982	17.6047
2.8885	17.7052
2.8789	17.6654
2.8693	17.629
2.8598	17.5944
2.8504	17.8307
2.841	17.4455
2.8317	17.6328
2.8224	17.6294
2.8133	17.6505
2.8041	17.8541
2.7951	17.676
2.786	17.9485
2.7771	17.6257
2.7682	17.4512
2.7594	17.5866
2.7506	17.5107
2.7418	17.8289
2.7332	17.4924
2.7246	17.9399
2.716	17.7343
2.7075	17.6339
2.699	17.6254
2.6906	17.6612
2.6823	17.6353
2.674	17.7012
2.6657	18.0381
2.6575	17.5822
2.6494	17.4571
2.6413	17.7092
2.6332	17.5114
2.6252	17.6612
2.6173	17.8729
2.6094	17.579
2.6015	17.9427
2.5937	18.0481
2.5859	17.7807
2.5782	17.5799
2.5706	17.6185
2.5629	17.7062
2.5554	17.5967
2.5478	17.422
2.5403	17.5795
2.5329	17.6181
2.5255	17.4966
2.5181	17.4694
2.5108	17.5075
2.5035	17.4479
2.4963	17.3206
2.4891	17.5833
2.482	17.4652
2.4749	17.1937
2.4678	17.454
2.4608	17.374
2.4538	17.3449
2.4468	17.5419
2.4399	17.2406
2.4331	17.4921
2.4262	17.4812
2.4194	17.3387
2.4127	17.7116
2.4059	17.4351
2.3993	17.3446
2.3926	17.2754
2.386	17.3272
2.3795	17.4836
2.3729	17.3207
2.3664	17.4945
2.36	17.3847
2.3535	17.0711
2.3471	17.3648
2.3408	17.1636
2.3345	17.3331
2.3282	17.37
2.3219	17.4473
2.3157	17.1917
2.3095	17.3532
2.3034	17.403
2.2972	17.4497
2.2911	17.4376
2.2851	17.3828
2.279	17.3304
2.2731	17.3189
2.2671	17.1252
2.2612	17.2083
2.2553	17.2169
2.2494	17.3657
2.2435	17.2776
2.2377	17.1517
2.232	17.1226
2.2262	17.2778
2.2205	17.117
2.2148	17.2974
2.2091	17.3861
2.2035	17.1495
2.1979	17.277
2.1923	17.0488
2.1868	17.1506
2.1812	17.2418
2.1758	17.2961
2.1703	17.2636
2.1649	17.3408
2.1595	17.3205
2.1541	17.3407
2.1487	17.1488
2.1434	17.048
2.1381	17.1757
2.1328	17.0775
2.1275	17.2764
2.1223	17.1022
2.1171	17.2258
2.112	17.1121
2.1068	17.1887
2.1017	17.0054
2.0966	17.2839
2.0915	17.7076
2.0865	17.0774
2.0814	17.1132
2.0764	16.9963
2.0715	16.9372
2.0665	17.0729
2.0616	17.1895
2.0567	16.9669
2.0518	16.945
2.0469	17.2278
2.0421	17.1336
2.0373	16.9562
2.0325	17.0555
2.0277	17.2111
2.0229	16.8379
2.0182	17.0968
2.0135	17.2465
2.0088	17.1329
2.0042	17.1853
