Name: Riebeckite Na2(Fe+2,Mg)3Fe2+3Si8O22(OH)2
Type: Mineral
Class: Silicate
Subclass: Inosilicate
Particle Size: Fine
Sample No.: riebeck_1
Owner: JHU
Wavelength Range: TIR
Origin: Hurricane Mountain, Conway, New Hampshire via theSmithsonian (sample no. NMNH 122689)
Description: The sample was an 11.54 g portion of a black crystal.  The crystal displayed a small amount of surficial limonitic stain, which could be brushed off.  The crushed sample was hand-picked to avoid grains containing small crystals of included quartz.  The resultant sample appeared very pure under the microscope (<1% impurities). (chain silicates); (Amphibole Group) Particle size was Less than 2  Micrometers. Original ASTER Spectral Library name was jhu.nicolet.mineral.silicate.inosilicate.powder.riebec1.spectrum.txt
Measurement: Transmission
X Units: Wavelength (micrometers)
Y Units: Transmittance (percent)
wavelength	value
25.0442	70.3436
24.3388	69.285
23.6719	62.4725
23.0407	53.4374
22.4422	39.7655
21.8741	40.2987
21.334	52.6092
20.8199	58.9022
20.33	57.5858
19.8627	60.3329
19.4163	67.8084
18.9896	72.24
18.5812	70.4354
18.19	76.451
17.815	83.325
17.4551	86.5554
17.1094	88.9422
16.7772	89.9607
16.4576	89.3992
16.15	87.8953
15.8537	83.9392
15.568	81.2068
15.2925	85.2752
15.0265	85.9939
14.7697	88.7019
14.5214	88.8963
14.2814	89.4529
14.0492	88.9881
13.8244	89.1956
13.6067	87.4788
13.3957	82.9651
13.1912	82.074
12.9929	84.6702
12.8004	86.8401
12.6135	88.9841
12.432	88.1912
12.2557	86.7444
12.0843	84.6546
11.9176	82.1775
11.7555	79.0218
11.5977	74.5604
11.444	69.7386
11.2944	66.8519
11.1487	64.4432
11.0067	62.1541
10.8682	56.5497
10.7332	49.7557
10.6015	40.5922
10.473	32.6938
10.3476	29.5375
10.2251	30.266
10.1056	34.8114
9.9887	39.6347
9.8746	43.0765
9.763	45.3436
9.6539	48.162
9.5472	51.7479
9.4429	53.7323
9.3408	52.0257
9.2409	50.264
9.1431	53.66
9.0474	58.2762
8.9536	60.0428
8.8618	60.9315
8.7718	67.7015
8.6837	73.9647
8.5973	78.1482
8.5126	80.5169
8.4295	82.6338
8.3481	84.4929
8.2682	86.1463
8.1898	87.5176
8.1129	88.4776
8.0374	89.2715
7.9634	90.1726
7.8906	90.8386
7.8192	91.2527
7.7491	91.6004
7.6802	91.7727
7.6126	92.0088
7.5461	92.4011
7.4807	92.6631
7.4165	92.9082
7.3534	93.1091
7.2914	93.168
7.2303	93.3464
7.1703	93.9387
7.1113	94.3445
7.0533	94.2695
6.9962	94.3914
6.94	94.6931
6.8847	94.6697
6.8302	94.53
6.7767	94.6045
6.7239	94.7585
6.672	94.8535
6.6209	94.74
6.5705	94.7996
6.5209	94.873
6.4721	95.0154
6.424	94.9893
6.3766	94.8701
6.3299	94.709
6.2838	94.6355
6.2385	94.7432
6.1937	94.7878
6.1496	94.4531
6.1062	94.239
6.0633	94.3552
6.0211	95.0947
5.9794	95.7498
5.9383	95.2188
5.8978	94.8682
5.8578	94.7529
5.8184	94.6882
5.7794	94.7297
5.741	94.7312
5.7031	94.6563
5.6657	94.5605
5.6288	94.3694
5.5924	94.4089
5.5564	94.3779
5.5209	94.4509
5.4859	94.4734
5.4513	94.4336
5.4171	94.3701
5.3833	94.283
5.35	94.3799
5.3171	94.3496
5.2846	94.3826
5.2524	94.3079
5.2207	94.2158
5.1893	94.2205
5.1584	94.2354
5.1277	94.2324
5.0975	94.1843
5.0676	94.0986
5.038	94.0344
5.0088	93.9519
4.98	93.9788
4.9514	93.9299
4.9232	93.8162
4.8953	93.7488
4.8678	93.6326
4.8405	93.6375
4.8135	93.5408
4.7868	93.5183
4.7605	93.3836
4.7344	93.301
4.7086	93.2102
4.6831	93.1521
4.6578	93.177
4.6328	93.096
4.6081	93.1482
4.5837	92.9568
4.5595	92.8508
4.5356	92.8015
4.5119	92.7073
4.4884	92.6863
4.4652	92.6199
4.4423	92.5046
4.4196	92.4387
4.3971	92.366
4.3748	92.3186
4.3528	92.217
4.331	92.1238
4.3094	91.9929
4.288	91.8855
4.2668	91.8718
4.2458	91.7947
4.2251	91.7307
4.2045	91.5593
4.1841	91.4832
4.164	91.3987
4.144	91.2854
4.1242	91.2371
4.1046	91.1336
4.0852	90.9885
4.066	90.8806
4.047	90.7522
4.0281	90.7288
4.0094	90.6043
3.9909	90.5691
3.9725	90.3611
3.9544	90.282
3.9363	90.2717
3.9185	90.1936
3.9008	90.1209
3.8833	89.9636
3.8659	89.8455
3.8487	89.7327
3.8316	89.658
3.8147	89.6834
3.7979	89.5525
3.7813	89.4548
3.7648	89.3245
3.7485	89.1922
3.7323	89.1052
3.7162	89.0056
3.7003	88.846
3.6845	88.7151
3.6689	88.5769
3.6534	88.5261
3.638	88.4124
3.6227	88.28
3.6076	88.1194
3.5926	88.1267
3.5777	87.9046
3.563	87.7464
3.5484	87.7381
3.5338	87.5232
3.5195	87.428
3.5052	87.3767
3.491	87.072
3.477	86.9676
3.463	86.8264
3.4492	86.7678
3.4355	86.7014
3.4219	86.6951
3.4084	86.4773
3.395	86.3513
3.3817	86.3089
3.3685	86.2542
3.3554	86.1214
3.3425	85.9685
3.3296	85.9007
3.3168	85.8206
3.3041	85.783
3.2915	85.7
3.279	85.4529
3.2666	85.2796
3.2543	85.3089
3.2421	85.1697
3.23	85.1038
3.218	84.9832
3.206	84.8865
3.1942	84.6658
3.1824	84.5105
3.1707	84.4012
3.1591	84.1931
3.1476	84.0623
3.1362	83.8933
3.1249	83.7469
3.1136	83.6385
3.1024	83.2781
3.0913	83.115
3.0803	82.8709
3.0694	82.7928
3.0585	82.4705
3.0477	82.2517
3.037	82.1746
3.0264	82.0652
3.0158	81.8221
3.0053	81.6062
2.9949	81.2322
2.9845	80.9744
2.9743	80.656
2.9641	80.4725
2.9539	80.156
2.9439	79.9392
2.9339	79.7517
2.9239	79.4891
2.9141	79.4344
2.9043	79.3836
2.8946	79.3553
2.8849	79.1307
2.8753	78.9744
2.8658	78.9334
2.8563	78.824
2.8469	78.8494
2.8375	78.8953
2.8282	78.9021
2.819	79.1248
2.8098	79.1092
2.8007	79.0506
2.7917	79.0662
2.7827	79.1101
2.7738	79.0193
2.7649	76.4764
2.7561	79.5935
2.7473	79.0906
2.7386	79.3016
2.7299	79.6697
2.7213	79.4451
2.7128	79.4217
2.7043	79.282
2.6959	79.2361
2.6875	79.1307
2.6791	79.1678
2.6709	78.8748
2.6626	78.743
2.6545	78.7859
2.6463	78.617
2.6382	78.5271
2.6302	78.4773
2.6222	78.3133
2.6143	78.1287
2.6064	77.9646
2.5986	78.035
2.5908	77.8436
2.583	77.7732
2.5753	77.5271
2.5677	77.5076
2.5601	77.4803
2.5525	77.2049
2.545	77.0115
2.5375	77.1873
2.5301	76.9139
2.5227	76.6268
2.5154	76.6424
2.5081	76.6131
2.5008	76.3064
2.4936	76.2342
2.4864	76.1736
2.4793	75.9627
2.4722	75.8748
2.4651	75.824
2.4581	75.8377
2.4511	75.3689
2.4442	75.3006
2.4373	75.1912
2.4305	75.1287
2.4236	75.0623
2.4169	75.0252
2.4101	74.8611
2.4034	74.6639
2.3967	74.4295
2.3901	74.2928
2.3835	74.4002
2.377	74.2986
2.3704	74.0897
2.364	74.0897
2.3575	73.9256
2.3511	73.9236
2.3447	73.7264
2.3384	73.5272
2.3321	73.3611
2.3258	73.5311
2.3195	73.2732
2.3133	73.3299
2.3071	73.0643
2.301	73.1131
2.2949	72.91
2.2888	72.742
2.2828	72.9236
2.2767	72.4861
2.2708	72.5858
2.2648	72.5252
2.2589	72.4608
2.253	72.117
2.2471	72.119
2.2413	72.0643
2.2355	71.7986
2.2297	71.8846
2.224	71.7733
2.2183	71.7498
2.2126	71.66
2.207	71.66
2.2013	71.2068
2.1957	71.2537
2.1902	71.2225
2.1846	71.0701
2.1791	71.0311
2.1736	71.2733
2.1682	71.2928
2.1628	71.0662
2.1574	71.0154
2.152	70.9139
2.1466	70.9998
2.1413	70.7654
2.136	70.7615
2.1308	70.7225
2.1255	70.6873
2.1203	70.4529
2.1151	70.9373
2.11	70.3944
2.1048	70.4569
2.0997	70.367
2.0946	70.6092
2.0895	70.2811
2.0845	70.3045
2.0795	70.5194
