Name: Calcite CaCO_3
Type: Mineral
Class: Carbonate
Subclass: None
Particle Size: Fine
Sample No.: C-3A
Owner: JPL
Wavelength Range: VSWIR
Origin: Italy.
Description: TravertineParticle size was 0-45um.Collected by:  Ward's Original ASTER Spectral Library name was jpl.perkin.mineral.carbonate.none.fine.c03a.spectrum.txt
Measurement: Hemispherical reflectance
X Units: Wavelength (micrometers)
Y Units: Reflectance (percent)
wavelength	value
2.5	70.5837
2.494	70.7662
2.488	71.4241
2.482	72.1964
2.476	73.3787
2.47	74.688
2.464	76.0951
2.458	77.3272
2.452	78.5761
2.446	79.2988
2.44	80.1501
2.434	80.8196
2.428	81.4403
2.422	81.9454
2.416	82.4431
2.41	82.6694
2.404	82.9414
2.398	83.1236
2.392	83.3173
2.386	83.452
2.38	83.2251
2.374	82.8061
2.368	81.94
2.362	80.4805
2.356	78.6179
2.35	76.7288
2.344	75.4381
2.338	74.8533
2.332	75.0739
2.326	75.853
2.32	76.6671
2.314	77.4787
2.308	78.08
2.302	78.5133
2.296	78.9177
2.29	79.5274
2.284	80.2017
2.278	80.9866
2.272	81.8172
2.266	82.5792
2.26	83.1408
2.254	83.6887
2.248	84.2298
2.242	84.6297
2.236	84.9861
2.23	85.2736
2.224	85.6361
2.218	85.8689
2.212	86.1631
2.206	86.4488
2.2	86.5907
2.194	86.7212
2.188	86.8638
2.182	86.9352
2.176	86.7903
2.17	86.8731
2.164	86.8887
2.158	86.9623
2.152	87.0795
2.146	87.2821
2.14	87.4879
2.134	87.6311
2.128	87.5195
2.122	87.3557
2.116	87.1222
2.11	86.902
2.104	86.673
2.098	86.5801
2.092	86.7141
2.086	86.7616
2.08	86.8646
2.074	86.895
2.068	86.9755
2.062	86.94
2.056	87.0658
2.05	87.0963
2.044	87.1825
2.038	87.0935
2.032	86.9935
2.026	86.9287
2.02	86.7827
2.014	86.6387
2.008	86.2753
2.002	85.9255
1.996	85.6154
1.99	85.7159
1.984	85.842
1.978	85.7909
1.972	85.7635
1.966	85.6378
1.96	85.6005
1.954	85.6766
1.948	85.6652
1.942	85.6369
1.936	85.7608
1.93	85.8616
1.924	86.0712
1.918	86.3818
1.912	86.6523
1.906	87.0153
1.9	87.381
1.894	87.5816
1.888	87.719
1.882	87.431
1.876	87.4944
1.87	87.7761
1.864	88.1992
1.858	88.3885
1.852	88.5731
1.846	88.6309
1.84	88.7515
1.834	88.8567
1.828	89.0195
1.822	89.0604
1.816	89.1376
1.81	89.2427
1.804	89.249
1.798	89.2625
1.792	89.2081
1.786	89.2661
1.78	89.1922
1.774	89.2364
1.768	89.1999
1.762	89.0869
1.756	89.194
1.75	89.1798
1.744	89.2176
1.738	89.2459
1.732	89.3373
1.726	89.263
1.72	89.3344
1.714	89.3941
1.708	89.3684
1.702	89.4147
1.696	89.3763
1.69	89.4774
1.684	89.4332
1.678	89.5254
1.672	89.5147
1.666	89.492
1.66	89.5757
1.654	89.4898
1.648	89.5705
1.642	89.5444
1.636	89.5838
1.63	89.5544
1.624	89.5916
1.618	89.6257
1.612	89.6275
1.606	89.6438
1.6	89.6562
1.594	89.6832
1.588	89.6728
1.582	89.6333
1.576	89.6092
1.57	89.4613
1.564	89.5211
1.558	89.5046
1.552	89.4804
1.546	89.5136
1.54	89.5135
1.534	89.4798
1.528	89.4915
1.522	89.4622
1.516	89.4338
1.51	89.3494
1.504	89.3885
1.498	89.3289
1.492	89.3585
1.486	89.2633
1.48	89.2381
1.474	89.3038
1.468	89.1728
1.462	89.2604
1.456	89.1664
1.45	89.2356
1.444	89.2175
1.438	89.2517
1.432	89.2279
1.426	89.24
1.42	89.3407
1.414	89.4264
1.408	89.4835
1.402	89.4492
1.396	89.6812
1.39	89.7059
1.384	89.7431
1.378	89.8291
1.372	89.8634
1.366	89.8538
1.36	89.8024
1.354	89.9202
1.348	89.8181
1.342	89.8119
1.336	89.8729
1.33	89.8684
1.324	89.8161
1.318	89.8767
1.312	89.8118
1.306	89.8837
1.3	89.7974
1.294	89.8155
1.288	89.7821
1.282	89.7697
1.276	89.7958
1.27	89.8056
1.264	89.7414
1.258	89.8342
1.252	89.7797
1.246	89.7911
1.24	89.7978
1.234	89.7374
1.228	89.8051
1.222	89.7382
1.216	89.7317
1.21	89.7189
1.204	89.7489
1.198	89.6664
1.192	89.7565
1.186	89.688
1.18	89.7166
1.174	89.7273
1.168	89.767
1.162	89.7318
1.156	89.668
1.15	89.6997
1.144	89.7207
1.138	89.7332
1.132	89.7548
1.126	89.7519
1.12	89.6922
1.114	89.7549
1.108	89.7638
1.102	89.7984
1.096	89.74
1.09	89.8344
1.084	89.7347
1.078	89.7976
1.072	89.8292
1.066	89.709
1.06	89.7648
1.054	89.7057
1.048	89.7372
1.042	89.7838
1.036	89.7298
1.03	89.7411
1.024	89.8175
1.018	89.7372
1.012	89.7038
1.006	89.7675
1	89.7625
0.994	89.7667
0.988	89.7598
0.982	89.7125
0.976	89.7559
0.97	89.7833
0.964	89.7913
0.958	89.7545
0.952	89.7946
0.946	89.8136
0.94	89.769
0.934	89.7088
0.928	89.7333
0.922	89.7941
0.916	89.6864
0.91	89.6889
0.904	89.7696
0.898	89.6768
0.892	89.7251
0.886	89.6563
0.88	89.6627
0.874	89.6624
0.868	89.6797
0.862	89.6293
0.856	89.6137
0.85	89.4905
0.844	89.5198
0.838	89.5053
0.832	89.527
0.826	89.5463
0.82	89.5554
0.814	89.5441
0.808	89.5801
0.802	89.5333
0.796	89.4694
0.79	89.4304
0.784	89.3638
0.778	89.3049
0.772	89.3142
0.766	89.2701
0.76	89.1877
0.754	89.1489
0.748	89.1422
0.742	89.0385
0.736	89.0031
0.73	88.9661
0.724	88.8904
0.718	88.8136
0.712	88.7651
0.706	88.6785
0.7	88.5885
0.694	88.5025
0.688	88.422
0.682	88.3261
0.676	88.2129
0.67	88.1503
0.664	88.0249
0.658	87.93
0.652	87.8042
0.646	87.6857
0.64	87.5738
0.634	87.429
0.628	87.3127
0.622	87.1577
0.616	86.9885
0.61	86.829
0.604	86.6443
0.598	86.4951
0.592	86.325
0.586	86.0871
0.58	85.8574
0.574	85.5819
0.568	85.3063
0.562	85.032
0.556	84.7007
0.55	84.3675
0.544	84.0679
0.538	83.7032
0.532	83.3668
0.526	82.9874
0.52	82.6276
0.514	82.2292
0.508	81.8349
0.502	81.4163
0.496	80.9849
0.49	80.5296
0.484	80.099
0.478	79.694
0.472	79.3248
0.466	78.898
0.46	78.4604
0.454	78.0089
0.448	77.4853
0.442	76.8771
0.436	76.3265
0.43	75.6818
0.424	75.0481
0.418	74.3925
0.412	73.7114
0.406	73.043
0.4	72.2841
