Name: Cerussite PbCO_3
Type: Mineral
Class: Carbonate
Subclass: None
Particle Size: Coarse
Sample No.: C-10A
Owner: JPL
Wavelength Range: VSWIR
Origin: USA, Arizona, Flux Mine.
Description: Particle size was 125-500um.Collected by:  JPL Original ASTER Spectral Library name was jpl.perkin.mineral.carbonate.none.coarse.c10a.spectrum.txt
Measurement: Hemispherical reflectance
X Units: Wavelength (micrometers)
Y Units: Reflectance (percent)
wavelength	value
2.5	52.4411
2.494	50.7878
2.488	50.0189
2.482	49.1376
2.476	48.3643
2.47	47.9247
2.464	47.7781
2.458	47.6914
2.452	48.2503
2.446	49.0683
2.44	49.7398
2.434	50.1609
2.428	50.4862
2.422	50.9714
2.416	51.7972
2.41	52.8726
2.404	53.973
2.398	54.9913
2.392	56.0726
2.386	57.1236
2.38	58.1207
2.374	59.2874
2.368	60.3441
2.362	61.3643
2.356	62.462
2.35	63.5491
2.344	64.5356
2.338	65.6207
2.332	66.5918
2.326	67.5604
2.32	68.4514
2.314	69.2763
2.308	70.076
2.302	70.8124
2.296	71.4028
2.29	71.9154
2.284	72.4084
2.278	72.7963
2.272	72.9944
2.266	73.0157
2.26	72.9962
2.254	72.9122
2.248	73.1924
2.242	73.5579
2.236	73.9221
2.23	74.3185
2.224	75.0943
2.218	75.8555
2.212	76.5249
2.206	76.9149
2.2	77.2251
2.194	77.465
2.188	77.7875
2.182	78.0991
2.176	78.3687
2.17	78.6263
2.164	78.7778
2.158	78.9844
2.152	79.009
2.146	78.9342
2.14	78.7772
2.134	78.4545
2.128	78.1157
2.122	77.581
2.116	77.0247
2.11	76.3771
2.104	75.6913
2.098	74.9415
2.092	74.1144
2.086	73.3358
2.08	73.391
2.074	73.8401
2.068	74.1085
2.062	74.2858
2.056	74.4676
2.05	74.6363
2.044	74.6916
2.038	74.6972
2.032	74.7328
2.026	74.498
2.02	74.3355
2.014	74.0576
2.008	73.5995
2.002	73.149
1.996	72.5464
1.99	71.8888
1.984	71.2106
1.978	70.5954
1.972	70.0846
1.966	69.5612
1.96	69.3067
1.954	69.1734
1.948	68.8962
1.942	68.6821
1.936	68.6605
1.93	68.8785
1.924	69.2674
1.918	69.6115
1.912	70.2899
1.906	71.1513
1.9	72.4873
1.894	74.1535
1.888	75.9552
1.882	77.4784
1.876	78.6286
1.87	79.4619
1.864	79.9685
1.858	80.2938
1.852	80.4182
1.846	80.4936
1.84	80.6428
1.834	80.6186
1.828	80.4869
1.822	80.5216
1.816	80.6236
1.81	80.6612
1.804	80.7023
1.798	80.708
1.792	80.7337
1.786	80.7165
1.78	80.8172
1.774	80.9207
1.768	81.0388
1.762	81.075
1.756	81.1278
1.75	81.2052
1.744	81.3276
1.738	81.3963
1.732	81.4996
1.726	81.4734
1.72	81.5625
1.714	81.5202
1.708	81.5674
1.702	81.6225
1.696	81.6268
1.69	81.5906
1.684	81.5464
1.678	81.5849
1.672	81.6267
1.666	81.6134
1.66	81.6462
1.654	81.5209
1.648	81.4669
1.642	81.4568
1.636	81.4722
1.63	81.4081
1.624	81.4797
1.618	81.4112
1.612	81.4463
1.606	81.4771
1.6	81.4593
1.594	81.3417
1.588	81.3925
1.582	81.3152
1.576	81.2126
1.57	81.1633
1.564	81.0773
1.558	80.9894
1.552	80.9755
1.546	80.7716
1.54	80.6697
1.534	80.5958
1.528	80.4125
1.522	80.2639
1.516	80.1341
1.51	80.0335
1.504	79.8813
1.498	79.7035
1.492	79.5786
1.486	79.375
1.48	79.2116
1.474	79.0252
1.468	78.9164
1.462	78.792
1.456	78.7492
1.45	78.7527
1.444	78.7976
1.438	78.8288
1.432	78.8774
1.426	79.104
1.42	79.2616
1.414	79.4723
1.408	79.7575
1.402	80.1898
1.396	80.6014
1.39	81.0646
1.384	81.4202
1.378	81.4262
1.372	81.5974
1.366	81.7
1.36	81.6295
1.354	81.6276
1.348	81.6534
1.342	81.6371
1.336	81.6379
1.33	81.6395
1.324	81.7173
1.318	81.6884
1.312	81.7486
1.306	81.7235
1.3	81.7596
1.294	81.7479
1.288	81.7543
1.282	81.6999
1.276	81.6884
1.27	81.6734
1.264	81.6641
1.258	81.6547
1.252	81.5679
1.246	81.6332
1.24	81.5762
1.234	81.592
1.228	81.5843
1.222	81.5271
1.216	81.5545
1.21	81.5248
1.204	81.4678
1.198	81.4895
1.192	81.4663
1.186	81.5021
1.18	81.5726
1.174	81.5233
1.168	81.4135
1.162	81.4171
1.156	81.4354
1.15	81.4739
1.144	81.5065
1.138	81.549
1.132	81.4682
1.126	81.486
1.12	81.4806
1.114	81.5032
1.108	81.4983
1.102	81.4355
1.096	81.4607
1.09	81.5153
1.084	81.4359
1.078	81.4256
1.072	81.3768
1.066	81.348
1.06	81.3836
1.054	81.3448
1.048	81.3185
1.042	81.3181
1.036	81.3039
1.03	81.2833
1.024	81.2257
1.018	81.256
1.012	81.2568
1.006	81.2738
1	81.1945
0.994	81.1999
0.988	81.1604
0.982	81.1631
0.976	81.1236
0.97	81.1317
0.964	81.1281
0.958	81.1196
0.952	81.0637
0.946	81.0285
0.94	81.0759
0.934	81.0959
0.928	81.0429
0.922	81.0572
0.916	80.9889
0.91	81.0176
0.904	81.0176
0.898	80.9997
0.892	80.963
0.886	80.9076
0.88	80.8754
0.874	80.8831
0.868	80.8932
0.862	80.7894
0.856	80.6259
0.85	80.6393
0.844	80.6986
0.838	80.7487
0.832	80.7364
0.826	80.7705
0.82	80.7781
0.814	80.6877
0.808	80.5917
0.802	80.5478
0.796	80.4725
0.79	80.5087
0.784	80.5908
0.778	80.5494
0.772	80.5469
0.766	80.4858
0.76	80.4486
0.754	80.3838
0.748	80.3545
0.742	80.3035
0.736	80.1437
0.73	80.2372
0.724	80.3084
0.718	80.2844
0.712	80.2221
0.706	80.222
0.7	80.1797
0.694	80.1484
0.688	80.1257
0.682	80.095
0.676	80.0723
0.67	80.039
0.664	80.0208
0.658	80.0067
0.652	79.9896
0.646	79.9492
0.64	79.931
0.634	79.8914
0.628	79.8571
0.622	79.8033
0.616	79.7335
0.61	79.6628
0.604	79.5352
0.598	79.4621
0.592	79.3359
0.586	78.8233
0.58	78.4407
0.574	78.7335
0.568	78.7819
0.562	78.9129
0.556	78.8013
0.55	78.6699
0.544	78.521
0.538	78.3445
0.532	78.18
0.526	77.9039
0.52	77.7334
0.514	77.5395
0.508	77.3018
0.502	77.0877
0.496	76.8951
0.49	76.665
0.484	76.4416
0.478	76.3151
0.472	76.1324
0.466	75.9769
0.46	75.773
0.454	75.5452
0.448	75.265
0.442	74.9532
0.436	74.6448
0.43	74.2504
0.424	73.8861
0.418	73.4902
0.412	73.1006
0.406	72.6656
0.4	72.2154
