Name: Alunite KAl_3(SO_4)_2(OH)_6
Type: Mineral
Class: Sulfate
Subclass: None
Particle Size: Medium
Sample No.: SO-4A
Owner: JPL
Wavelength Range: VSWIR
Origin: USA, Utah.
Description: Particle size was 45-125um. Collected by:  Ward's Original ASTER Spectral Library name was jpl.perkin.mineral.sulfate.none.medium.so04a.spectrum.txt
Measurement: Hemispherical reflectance
X Units: Wavelength (micrometers)
Y Units: Reflectance (percent)
wavelength	value
2.5	13.4029
2.494	15.5153
2.488	17.3776
2.482	18.2532
2.476	18.2471
2.47	17.4441
2.464	17.3166
2.458	18.0197
2.452	18.7787
2.446	19.0687
2.44	18.3735
2.434	17.8229
2.428	17.7399
2.422	18.6623
2.416	20.1874
2.41	21.703
2.404	22.7065
2.398	23.424
2.392	24.6269
2.386	27.0535
2.38	30.4597
2.374	34.0603
2.368	37.1439
2.362	39.2149
2.356	40.2677
2.35	40.4791
2.344	39.7483
2.338	37.9547
2.332	35.4528
2.326	32.9399
2.32	31.6508
2.314	32.6641
2.308	36.0755
2.302	40.3532
2.296	43.6848
2.29	45.6282
2.284	46.6667
2.278	47.2645
2.272	47.6866
2.266	47.9257
2.26	48.0315
2.254	48.0394
2.248	48.0162
2.242	47.5499
2.236	46.5902
2.23	44.6297
2.224	40.55
2.218	33.9751
2.212	27.9862
2.206	26.3005
2.2	27.6801
2.194	26.6839
2.188	23.469
2.182	21.1412
2.176	20.3813
2.17	20.0836
2.164	19.7081
2.158	19.8306
2.152	20.8011
2.146	22.4034
2.14	23.7881
2.134	25.232
2.128	26.8748
2.122	29.4871
2.116	32.6755
2.11	35.5338
2.104	37.763
2.098	39.3852
2.092	40.5201
2.086	41.355
2.08	41.6783
2.074	41.7261
2.068	41.5704
2.062	41.5329
2.056	41.964
2.05	42.6406
2.044	43.2806
2.038	43.7261
2.032	44.3051
2.026	44.7129
2.02	44.7209
2.014	44.5345
2.008	44.7161
2.002	45.5137
1.996	46.7622
1.99	47.7931
1.984	48.5349
1.978	48.9601
1.972	48.7221
1.966	48.5115
1.96	48.629
1.954	49.0549
1.948	49.6564
1.942	50.1917
1.936	50.6006
1.93	51.0837
1.924	51.7782
1.918	52.7654
1.912	54.0204
1.906	55.5213
1.9	57.051
1.894	58.4902
1.888	59.6979
1.882	60.9055
1.876	61.8996
1.87	62.82
1.864	63.5278
1.858	64.0388
1.852	64.4378
1.846	64.7785
1.84	65.0903
1.834	65.3814
1.828	65.6681
1.822	65.7641
1.816	65.8031
1.81	65.6838
1.804	65.2696
1.798	64.3544
1.792	61.9649
1.786	58.0737
1.78	54.8707
1.774	52.8204
1.768	51.1006
1.762	51.6218
1.756	52.815
1.75	54.3301
1.744	56.6208
1.738	59.1501
1.732	61.2442
1.726	63.3034
1.72	65.0318
1.714	66.0333
1.708	66.8756
1.702	67.421
1.696	67.8361
1.69	68.2405
1.684	68.7835
1.678	69.2897
1.672	69.7363
1.666	70.2533
1.66	70.638
1.654	71.0497
1.648	71.2615
1.642	71.5602
1.636	71.5297
1.63	71.9772
1.624	72.0312
1.618	72.057
1.612	72.1086
1.606	72.2343
1.6	72.3426
1.594	72.3097
1.588	72.4394
1.582	72.5978
1.576	72.7157
1.57	72.8155
1.564	72.9152
1.558	73.071
1.552	72.9342
1.546	72.8641
1.54	72.6823
1.534	72.1467
1.528	72.0758
1.522	71.6778
1.516	70.5753
1.51	68.8832
1.504	65.6571
1.498	63.6655
1.492	62.037
1.486	54.8671
1.48	37.6571
1.474	44.6229
1.468	54.6496
1.462	56.1403
1.456	57.3504
1.45	60.8963
1.444	63.2776
1.438	61.6142
1.432	52.0322
1.426	47.5028
1.42	65.242
1.414	72.737
1.408	75.6857
1.402	78.456
1.396	80.2578
1.39	81.7052
1.384	82.3624
1.378	82.4844
1.372	83.2135
1.366	82.8484
1.36	81.7816
1.354	81.8013
1.348	82.0451
1.342	81.7895
1.336	81.7802
1.33	84.0722
1.324	84.3492
1.318	85.0682
1.312	86.181
1.306	86.435
1.3	86.4358
1.294	86.3127
1.288	85.6024
1.282	83.2715
1.276	81.5836
1.27	79.8141
1.264	80.0354
1.258	82.6365
1.252	83.9159
1.246	84.4082
1.24	84.882
1.234	85.363
1.228	85.9664
1.222	86.7189
1.216	87.3061
1.21	87.5709
1.204	87.8868
1.198	88.1809
1.192	88.3058
1.186	88.3812
1.18	88.5243
1.174	88.4648
1.168	88.5157
1.162	88.5769
1.156	88.7404
1.15	88.7787
1.144	88.7368
1.138	88.7184
1.132	88.5881
1.126	88.4947
1.12	88.2707
1.114	88.2344
1.108	88.1699
1.102	87.9943
1.096	88.2646
1.09	88.1707
1.084	88.127
1.078	88.0132
1.072	88.071
1.066	88.0141
1.06	87.8489
1.054	87.8613
1.048	87.7135
1.042	87.6843
1.036	87.5596
1.03	87.1735
1.024	86.5162
1.018	85.6362
1.012	84.786
1.006	84.5064
1	84.3079
0.994	84.5512
0.988	84.9915
0.982	85.4912
0.976	85.9527
0.97	86.2801
0.964	86.56
0.958	86.6554
0.952	86.6506
0.946	86.6168
0.94	86.6994
0.934	86.7275
0.928	86.7706
0.922	86.6773
0.916	86.4632
0.91	86.4775
0.904	86.4327
0.898	86.4399
0.892	86.5179
0.886	86.5948
0.88	86.683
0.874	86.7085
0.868	86.7286
0.862	86.8087
0.856	87.0598
0.85	87.0639
0.844	87.1957
0.838	87.1962
0.832	87.2089
0.826	87.1836
0.82	87.2599
0.814	87.2523
0.808	87.285
0.802	87.2331
0.796	87.0981
0.79	87.1034
0.784	87.0464
0.778	86.9921
0.772	86.9229
0.766	86.9803
0.76	86.9708
0.754	87.0198
0.748	86.9229
0.742	86.8147
0.736	86.6913
0.73	86.5902
0.724	86.4523
0.718	86.2725
0.712	86.0913
0.706	85.865
0.7	85.6153
0.694	85.3639
0.688	85.126
0.682	84.85
0.676	84.5679
0.67	84.2551
0.664	83.943
0.658	83.618
0.652	83.2873
0.646	82.9101
0.64	82.5577
0.634	82.1715
0.628	81.7668
0.622	81.316
0.616	80.8174
0.61	80.3004
0.604	79.7045
0.598	79.1253
0.592	78.4688
0.586	77.7124
0.58	76.9294
0.574	76.1023
0.568	75.2848
0.562	74.4207
0.556	73.5434
0.55	72.68
0.544	71.7988
0.538	70.9531
0.532	70.1377
0.526	69.3261
0.52	68.5447
0.514	67.8048
0.508	67.0645
0.502	66.37
0.496	65.6766
0.49	65.0172
0.484	64.4192
0.478	63.8964
0.472	63.413
0.466	62.9567
0.46	62.5476
0.454	62.1154
0.448	61.6172
0.442	61.011
0.436	60.2785
0.43	59.3696
0.424	58.8526
0.418	58.1366
0.412	57.3457
0.406	56.4148
0.4	55.2815
