Name: Natrojarosite NaFe_3^3+(SO_4)_2(OH)_6
Type: Mineral
Class: Sulfate
Subclass: None
Particle Size: Medium
Sample No.: SO-7C
Owner: JPL
Wavelength Range: VSWIR
Origin: USA, Utah, Tooele County, Gold Hill
Description: Particle size was 45-125um.Collected by Ward's Original ASTER Spectral Library name was jpl.beckman.mineral.sulfate.none.medium.so07c.spectrum.txt
Measurement: Hemispherical reflectance
X Units: Wavelength (micrometers)
Y Units: Reflectance (percent)
wavelength	value
0.4	3.91
0.403	4.79
0.406	5.26
0.409	5.74
0.412	6.04
0.415	6.1
0.418	6.16
0.421	6.09
0.424	6.1
0.427	5.79
0.43	5.37
0.433	5.35
0.436	5.55
0.439	6.11
0.442	6.64
0.445	7.26
0.448	7.78
0.451	8.4
0.454	8.92
0.457	9.47
0.46	9.66
0.463	10.06
0.466	10.32
0.469	10.62
0.472	10.86
0.475	11.19
0.478	11.55
0.481	11.81
0.484	12.03
0.487	12.48
0.49	12.81
0.493	13.19
0.496	13.6
0.499	14.01
0.502	14.5
0.505	14.95
0.508	15.56
0.511	16.09
0.514	16.82
0.517	17.37
0.52	18.07
0.523	18.89
0.526	19.77
0.529	20.64
0.532	21.6
0.535	22.48
0.538	23.64
0.541	24.63
0.544	25.68
0.547	26.85
0.55	27.86
0.553	29.16
0.556	30.08
0.559	30.86
0.562	32.45
0.565	33.32
0.568	34.1
0.571	34.9
0.574	35.52
0.577	36.2
0.58	36.84
0.583	37.08
0.586	37.67
0.589	37.93
0.592	38.34
0.595	38.67
0.598	38.82
0.601	39.26
0.604	39.41
0.607	39.66
0.61	39.9
0.613	39.9
0.616	40.25
0.619	40.21
0.622	40.48
0.625	40.68
0.628	40.71
0.631	40.96
0.634	41.14
0.637	41.31
0.64	41.46
0.643	41.57
0.646	41.86
0.649	42.02
0.652	42.34
0.655	42.51
0.658	42.84
0.661	43.17
0.664	43.29
0.667	43.7
0.67	44.1
0.673	44.33
0.676	44.76
0.679	45.08
0.682	45.43
0.685	45.85
0.688	46.2
0.691	46.49
0.694	46.9
0.697	47.35
0.7	47.56
0.703	47.98
0.706	48.36
0.709	48.65
0.712	48.96
0.715	49.28
0.718	49.49
0.721	49.71
0.724	50
0.727	50.09
0.73	50.17
0.733	50.26
0.736	50.31
0.739	50.26
0.742	50.16
0.745	50.16
0.748	49.97
0.751	49.78
0.754	49.56
0.757	49.27
0.76	49.01
0.763	48.62
0.766	48.36
0.769	47.89
0.772	47.43
0.775	47.01
0.778	46.58
0.781	46.18
0.784	45.63
0.787	45.21
0.79	44.84
0.793	44.22
0.796	43.86
0.799	43.43
0.808	42.5
0.82	40.75
0.832	39.22
0.844	38.08
0.856	36.94
0.868	36.14
0.88	35.53
0.892	35.12
0.904	34.82
0.916	34.71
0.928	34.81
0.94	35.04
0.952	35.35
0.964	35.92
0.976	36.56
0.988	37.44
1	38.2
1.012	39.37
1.024	40.54
1.036	41.85
1.048	43.15
1.06	44.38
1.072	45.73
1.084	47.1
1.096	48.45
1.108	49.8
1.12	51.04
1.132	52.36
1.144	53.57
1.156	54.87
1.168	56.15
1.18	57.43
1.192	58.78
1.204	60.05
1.216	61.41
1.228	62.58
1.24	63.88
1.252	65.07
1.264	66.39
1.276	67.62
1.288	68.9
1.3	70.05
1.312	71.18
1.324	72.28
1.336	73.42
1.348	74.48
1.36	75.43
1.372	76.23
1.384	77.14
1.396	77.75
1.408	78.34
1.42	78.61
1.432	78.45
1.444	77.98
1.456	75.38
1.468	70.81
1.48	71.55
1.492	75.98
1.504	76.79
1.516	76.57
1.528	76.29
1.54	76.49
1.552	76.9
1.564	77.61
1.576	78.35
1.588	79.07
1.6	79.61
1.612	79.84
1.624	80.08
1.636	80.3
1.648	80.5
1.66	80.61
1.672	80.7
1.684	80.96
1.696	81.11
1.708	81.07
1.72	81.1
1.732	80.86
1.744	80.45
1.756	80.09
1.768	79.65
1.78	79.44
1.792	79.01
1.804	78.21
1.816	76.7
1.828	73.65
1.84	69.22
1.852	69.24
1.864	72.14
1.876	75.78
1.888	76.72
1.9	76.36
1.912	75.29
1.924	74.3
1.936	73.64
1.948	73.2
1.96	73.06
1.972	72.9
1.984	72.62
1.996	72.29
2.008	72.11
2.02	71.97
2.032	71.56
2.044	70.88
2.056	70.22
2.068	69.85
2.08	69.51
2.092	69.1
2.104	68.73
2.116	68.28
2.128	67.79
2.14	66.9
2.152	66.06
2.164	65.33
2.176	64.27
2.188	62.88
2.2	61.19
2.212	59.18
2.224	57.67
2.236	56.06
2.248	53.1
2.26	50.18
2.272	50.74
2.284	53.88
2.296	57.48
2.308	60.89
2.32	63.27
2.332	64.31
2.344	64.04
2.356	62.82
2.368	60.66
2.38	57.55
2.392	54.28
2.404	51.82
2.416	50.53
2.428	49.79
2.44	48.6
2.452	47.35
2.464	46.57
2.476	46.01
2.488	45.19
2.5	44.02
