Name: Anhydrite CaSO4
Type: Mineral
Class: Sulfate
Subclass: None
Particle Size: Fine
Sample No.: anhydrite_1
Owner: JHU
Wavelength Range: TIR
Origin: Sample from Champo, Isere, France, via the Smithsonian(sample no. NMNH 46393).
Description: The sample was a 3 cm x 3 cm x 4 cm, white, granular mass weighing 30 g.  One surface was stained and this material was discarded after crushing.  Microscopic examination indicated pure anhydrite.Particle size was less than 2 Micrometers. Original ASTER Spectral Library name was jhu.nicolet.mineral.sulfate.none.powder.anhyd1.spectrum.txt
Measurement: Transmission
X Units: Wavelength (micrometers)
Y Units: Transmittance (percent)
wavelength	value
25.0442	93.2966
24.3388	92.5662
23.6719	92.2263
23.0407	93.1013
22.4422	92.0642
21.8741	91.4177
21.334	91.8142
20.8199	92.5115
20.33	92.8123
19.8627	92.5193
19.4163	92.114
18.9896	92.6414
18.5812	92.8279
18.19	92.7439
17.815	92.7312
17.4551	92.3015
17.1094	90.6892
16.7772	43.4315
16.4576	72.619
16.15	64.3602
15.8537	90.7781
15.568	91.9861
15.2925	90.9802
15.0265	82.4422
14.7697	35.33
14.5214	81.8084
14.2814	93.5613
14.0492	93.7048
13.8244	94.3186
13.6067	94.8904
13.3957	95.0706
13.1912	95.7283
12.9929	95.6643
12.8004	96.2556
12.6135	96.4514
12.432	96.7385
12.2557	97.0134
12.0843	96.9924
11.9176	96.9509
11.7555	96.6916
11.5977	96.698
11.444	96.1643
11.2944	96.1169
11.1487	96.0007
11.0067	95.9636
10.8682	95.9509
10.7332	95.8601
10.6015	95.6101
10.473	94.5974
10.3476	93.7449
10.2251	92.1975
10.1056	90.3103
9.9887	87.8836
9.8746	85.0882
9.763	85.2654
9.6539	83.8069
9.5472	82.1126
9.4429	79.6018
9.3408	74.2386
9.2409	62.4901
9.1431	44.747
9.0474	22.4887
8.9536	12.6836
8.8618	13.2114
8.7718	14.3637
8.6837	8.6352
8.5973	6.9394
8.5126	11.5996
8.4295	18.4941
8.3481	32.3781
8.2682	51.964
8.1898	67.1524
8.1129	79.157
8.0374	84.8838
7.9634	87.9729
7.8906	90.1931
7.8192	91.0645
7.7491	91.8291
7.6802	93.113
7.6126	93.9365
7.5461	94.4949
7.4807	94.9216
7.4165	95.4167
7.3534	95.6458
7.2914	95.8477
7.2303	96.5889
7.1703	95.9851
7.1113	96.1443
7.0533	96.4102
6.9962	96.679
6.94	96.905
6.8847	97.0085
6.8302	96.9285
6.7767	97.166
6.7239	97.4512
6.672	97.6418
6.6209	97.7175
6.5705	97.6533
6.5209	97.5759
6.4721	97.3984
6.424	97.3581
6.3766	97.2598
6.3299	96.9609
6.2838	96.4734
6.2385	95.8625
6.1937	94.7595
6.1496	93.8728
6.1062	94.1201
6.0633	94.5742
6.0211	95.3623
5.9794	96.1277
5.9383	96.7373
5.8978	97.3799
5.8578	97.8008
5.8184	98.0251
5.7794	98.123
5.741	98.2822
5.7031	98.4463
5.6657	98.6269
5.6288	98.6934
5.5924	98.7302
5.5564	98.7383
5.5209	98.7043
5.4859	98.7424
5.4513	98.8157
5.4171	98.8435
5.3833	98.8083
5.35	98.8425
5.3171	98.9363
5.2846	98.904
5.2524	98.9353
5.2207	98.8955
5.1893	98.8972
5.1584	98.9912
5.1277	98.9443
5.0975	98.9763
5.0676	98.8767
5.038	98.906
5.0088	98.9187
4.98	98.8884
4.9514	98.9636
4.9232	98.7932
4.8953	98.8777
4.8678	98.8581
4.8405	98.9333
4.8135	98.8113
4.7868	98.821
4.7605	98.74
4.7344	98.4763
4.7086	97.5588
4.6831	96.8977
4.6578	97.1843
4.6328	97.8513
4.6081	98.1716
4.5837	98.4358
4.5595	98.5002
4.5356	98.404
4.5119	98.3122
4.4884	98.2092
4.4652	98.1614
4.4423	98.2366
4.4196	98.4607
4.3971	98.6174
4.3748	98.5979
4.3528	98.6384
4.331	98.7131
4.3094	98.7678
4.288	98.8015
4.2668	98.8806
4.2458	99.0373
4.2251	99.1912
4.2045	99.1023
4.1841	99.1081
4.164	99.219
4.144	99.2283
4.1242	99.3181
4.1046	99.3381
4.0852	99.2976
4.066	99.24
4.047	99.1951
4.0281	99.3367
4.0094	99.2156
3.9909	99.1721
3.9725	99.1077
3.9544	99.2327
3.9363	99.2204
3.9185	99.1775
3.9008	99.3264
3.8833	99.2639
3.8659	99.2244
3.8487	99.1912
3.8316	99.2322
3.8147	99.282
3.7979	99.1833
3.7813	99.2019
3.7648	99.197
3.7485	99.1824
3.7323	99.1179
3.7162	99.0881
3.7003	99.0613
3.6845	99.1643
3.6689	99.0417
3.6534	99.0535
3.638	99.0823
3.6227	98.9924
3.6076	98.9665
3.5926	98.9822
3.5777	98.9089
3.563	98.8972
3.5484	98.9241
3.5338	98.8308
3.5195	98.6467
3.5052	98.176
3.491	98.5525
3.477	98.5212
3.463	98.4202
3.4492	98.24
3.4355	98.033
3.4219	97.6155
3.4084	97.8249
3.395	98.0212
3.3817	97.9499
3.3685	98.1018
3.3554	98.0007
3.3425	97.9763
3.3296	97.9548
3.3168	97.824
3.3041	97.7205
3.2915	97.6228
3.279	97.4607
3.2666	97.2263
3.2543	97.0085
3.2421	96.8376
3.23	96.6462
3.218	96.4456
3.206	96.1423
3.1942	95.8225
3.1824	95.6506
3.1707	95.325
3.1591	94.9861
3.1476	94.7419
3.1362	94.2986
3.1249	93.9744
3.1136	93.6462
3.1024	93.3132
3.0913	92.9978
3.0803	92.6648
3.0694	92.3572
3.0585	92.074
3.0477	91.8181
3.037	91.5095
3.0264	91.0955
3.0158	90.4832
3.0053	89.9646
2.9949	89.4041
2.9845	88.8533
2.9743	88.2283
2.9641	87.6677
2.9539	87.2439
2.9439	86.8533
2.9339	86.5779
2.9239	86.325
2.9141	86.1521
2.9043	86.2947
2.8946	86.5213
2.8849	86.8533
2.8753	87.0799
2.8658	87.5115
2.8563	88.1336
2.8469	88.6795
2.8375	89.1638
2.8282	89.533
2.819	90.0935
2.8098	90.6228
2.8007	91.4236
2.7917	92.4138
2.7827	92.9314
2.7738	93.5789
2.7649	94.3142
2.7561	95.1873
2.7473	96.3162
2.7386	97.1609
2.7299	97.6677
2.7213	98.1931
2.7128	98.2341
2.7043	98.279
2.6959	98.5505
2.6875	98.6443
2.6791	98.6267
2.6709	98.6374
2.6626	98.6716
2.6545	98.6755
2.6463	98.7429
2.6382	98.6716
2.6302	98.7078
2.6222	98.6023
2.6143	98.7185
2.6064	98.7859
2.5986	98.8162
2.5908	98.9421
2.583	98.7283
2.5753	98.7849
2.5677	98.8015
2.5601	98.6257
2.5525	98.6413
2.545	98.5593
2.5375	98.8005
2.5301	98.7497
2.5227	98.5486
2.5154	98.6326
2.5081	98.781
2.5008	98.7478
2.4936	98.8044
2.4864	98.6091
2.4793	98.654
2.4722	98.8318
2.4651	98.7361
2.4581	98.8455
2.4511	98.7576
2.4442	98.7693
2.4373	98.6892
2.4305	98.6423
2.4236	98.5857
2.4169	98.8259
2.4101	98.8318
2.4034	98.8767
2.3967	98.6345
2.3901	98.6833
2.3835	98.8552
2.377	98.7458
2.3704	98.8611
2.364	98.6287
2.3575	98.7205
2.3511	98.9802
2.3447	98.6716
2.3384	98.5232
2.3321	98.5798
2.3258	98.4568
2.3195	98.6111
2.3133	98.656
2.3071	98.6267
2.301	98.5896
2.2949	98.7771
2.2888	98.8064
2.2828	98.6052
2.2767	98.4861
2.2708	98.8044
2.2648	98.4958
2.2589	98.6033
2.253	98.6872
2.2471	98.6814
2.2413	98.8279
2.2355	98.6267
2.2297	98.7185
2.224	98.656
2.2183	98.6091
2.2126	98.5544
2.207	98.7126
2.2013	98.3357
2.1957	98.5701
2.1902	98.5622
2.1846	98.5818
2.1791	98.283
2.1736	98.5466
2.1682	98.7068
2.1628	98.6267
2.1574	98.531
2.152	98.5622
2.1466	98.3533
2.1413	98.4841
2.136	98.3591
2.1308	98.5662
2.1255	98.7068
2.1203	98.4333
2.1151	98.449
2.11	98.4802
2.1048	98.3708
2.0997	98.613
2.0946	98.7966
2.0895	98.7107
2.0845	98.5076
2.0795	98.5505
