Name: Ulexite NaCaB_5O_6(OH)_6.5H_2O
Type: Mineral
Class: Borate
Subclass: None
Particle Size: Coarse
Sample No.: B-3A
Owner: JPL
Wavelength Range: TIR
Origin: USA, California, Kern County, Boron
Description: Particle size was 125-500um.Collected by JPL Original ASTER Spectral Library name was jpl.nicolet.mineral.borate.none.coarse.b03a.spectrum.txt
Measurement: Hemispherical reflectance
X Units: Wavelength (micrometers)
Y Units: Reflectance (percent)
wavelength	value
15.3853	3.9867
15.1161	3.3015
14.8563	3.1595
14.6052	3.3622
14.3624	3.699
14.1276	4.0243
13.9004	3.3147
13.6803	2.7339
13.4671	3.31
13.2604	2.47
13.06	2.0085
12.8656	2.6945
12.6769	2.8516
12.4936	3.4278
12.3155	4.1394
12.1425	5.3888
11.9742	5.3648
11.8106	5.9832
11.6513	8.4957
11.4963	6.9704
11.3454	4.1906
11.1983	2.0237
11.0551	2.5699
10.9154	3.0317
10.7793	3.2539
10.6465	3.4087
10.5169	4.3332
10.3904	4.8309
10.267	5.9766
10.1464	6.1375
10.0287	7.1795
9.9136	7.5282
9.8012	4.825
9.6913	3.6635
9.5838	4.9309
9.4787	6.3445
9.3758	6.6264
9.2752	6.1003
9.1767	5.2589
9.0803	5.2044
8.9858	4.9458
8.8934	3.9098
8.8028	2.7956
8.714	1.9873
8.627	1.3183
8.5417	1.2914
8.4581	1.7476
8.3761	2.2905
8.2957	2.3203
8.2169	2.8314
8.1395	1.6876
8.0635	1.0865
7.989	0.8111
7.9158	1.073
7.8439	1.4937
7.7734	1.7489
7.7041	2.1619
7.636	3.0869
7.5691	4.0072
7.5034	3.5998
7.4388	2.8556
7.3753	2.9696
7.3129	2.1608
7.2515	1.5866
7.1912	2.4367
7.1318	2.3849
7.0734	2.7637
7.016	3.3111
6.9595	2.9963
6.9039	1.2955
6.8492	0.5877
6.7953	0.6397
6.7423	0.5437
6.6901	0.3523
6.6387	0.3685
6.5881	0.5534
6.5382	0.5865
6.4892	0.666
6.4408	0.6848
6.3931	0.7112
6.3462	0.7466
6.2999	0.8
6.2543	0.9268
6.2094	1.0417
6.1651	1.0035
6.1214	0.8288
6.0784	0.7441
6.0359	0.8522
5.994	0.8712
5.9527	0.7901
5.912	0.8276
5.8718	0.7792
5.8322	0.8501
5.7931	0.9195
5.7545	0.9348
5.7165	0.9663
5.6789	0.9008
5.6418	1.0579
5.6052	1.0479
5.5691	0.9561
5.5334	1.1191
5.4982	1.0593
5.4635	1.2018
5.4291	1.1357
5.3952	1.2069
5.3618	1.1878
5.3287	1.2494
5.2961	1.1624
5.2638	1.2053
5.2319	1.1634
5.2004	1.261
5.1693	1.216
5.1386	1.2587
5.1082	1.2171
5.0782	1.273
5.0485	1.2641
5.0192	1.2732
4.9902	1.3656
4.9616	1.3507
4.9332	1.3722
4.9052	1.1606
4.8776	1.2964
4.8502	1.3136
4.8231	1.2878
4.7963	1.411
4.7699	1.4047
4.7437	1.4025
4.7178	1.3728
4.6922	1.4272
4.6668	1.4613
4.6418	1.4261
4.617	1.3724
4.5924	1.53
4.5681	1.4563
4.5441	1.5249
4.5203	1.3548
4.4968	1.476
4.4735	1.476
4.4505	1.534
4.4277	1.4246
4.4051	1.5432
4.3828	1.3823
4.3607	1.4323
4.3388	1.4996
4.3171	1.5297
4.2956	1.518
4.2744	1.4874
4.2534	1.5593
4.2325	1.6034
4.2119	1.4845
4.1915	1.4495
4.1712	1.5554
4.1512	1.6437
4.1313	1.5721
4.1117	1.586
4.0922	1.6072
4.0729	1.5865
4.0538	1.5248
4.0349	1.6022
4.0161	1.4291
3.9976	1.6114
3.9792	1.4867
3.9609	1.5647
3.9428	1.5606
3.9249	1.6581
3.9072	1.5138
3.8896	1.5478
3.8722	1.6699
3.8549	1.4905
3.8378	1.5733
3.8208	1.6587
3.804	1.5714
3.7873	1.6985
3.7708	1.578
3.7544	1.5931
3.7382	1.6335
3.7221	1.5742
3.7061	1.6124
3.6903	1.6846
3.6746	1.7132
3.659	1.7725
3.6436	1.7029
3.6283	1.7327
3.6131	1.6476
3.5981	1.6839
3.5832	1.7816
3.5684	1.7656
3.5537	1.7992
3.5391	1.6746
3.5247	1.751
3.5104	1.8703
3.4962	1.8233
3.4821	1.7483
3.4681	1.8101
3.4543	1.7409
3.4405	1.7865
3.4269	1.9838
3.4133	1.8577
3.3999	1.85
3.3866	1.8976
3.3733	1.7623
3.3602	1.8102
3.3472	1.7571
3.3343	1.8246
3.3215	1.894
3.3088	2.0151
3.2961	1.9292
3.2836	2.1438
3.2712	1.9736
3.2588	2.1547
3.2466	2.1
3.2345	2.1974
3.2224	2.2884
3.2104	2.4184
3.1985	2.2408
3.1867	2.1042
3.175	1.9047
3.1634	1.9917
3.1519	1.8563
3.1404	2.1069
3.129	1.9639
3.1178	1.9386
3.1065	1.7928
3.0954	1.8677
3.0844	1.8335
3.0734	1.7268
3.0625	1.686
3.0517	1.6734
3.041	1.9741
3.0303	1.7065
3.0197	1.724
3.0092	1.5983
2.9987	1.5817
2.9884	1.7217
2.9781	1.6291
2.9678	1.4658
2.9577	1.7008
2.9476	1.5383
2.9376	1.6736
2.9276	1.8209
2.9177	1.5123
2.9079	1.3473
2.8982	1.2887
2.8885	1.2127
2.8789	1.1669
2.8693	1.2508
2.8598	1.2354
2.8504	1.1505
2.841	1.1418
2.8317	0.984
2.8224	0.8458
2.8133	0.864
2.8041	1.2231
2.7951	1.0211
2.786	1.4787
2.7771	1.2862
2.7682	0.7277
2.7594	0.6028
2.7506	0.9037
2.7418	0.8231
2.7332	0.8341
2.7246	0.8863
2.716	1.1648
2.7075	1.1826
2.699	1.1088
2.6906	1.129
2.6823	1.4988
2.674	1.6628
2.6657	1.8188
2.6575	2.0082
2.6494	2.0561
2.6413	2.0309
2.6332	2.324
2.6252	2.5414
2.6173	2.7847
2.6094	2.7628
2.6015	2.7732
2.5937	2.9907
2.5859	2.8005
2.5782	3.047
2.5706	3.1946
2.5629	2.8537
2.5554	3.0306
2.5478	2.9098
2.5403	2.8162
2.5329	2.6498
2.5255	2.7061
2.5181	2.7553
2.5108	2.6501
2.5035	2.5236
2.4963	2.4876
2.4891	2.6428
2.482	2.5852
2.4749	2.5643
2.4678	2.5323
2.4608	2.7509
2.4538	2.8686
2.4468	3.2551
2.4399	3.4297
2.4331	3.5329
2.4262	3.5792
2.4194	3.8426
2.4127	4.1105
2.4059	4.2676
2.3993	4.5174
2.3926	5.1798
2.386	5.322
2.3795	5.6999
2.3729	6.3092
2.3664	6.7309
2.36	7.2426
2.3535	7.4775
2.3471	8.1053
2.3408	8.6218
2.3345	8.9677
2.3282	8.7322
2.3219	9.0173
2.3157	9.0682
2.3095	9.5437
2.3034	9.8709
2.2972	10.0228
2.2911	9.9652
2.2851	9.8265
2.279	9.6596
2.2731	9.7259
2.2671	9.3787
2.2612	8.6316
2.2553	8.0699
2.2494	7.6122
2.2435	7.2913
2.2377	7.2169
2.232	7.3373
2.2262	7.1773
2.2205	7.0179
2.2148	6.8974
2.2091	6.6399
2.2035	6.3564
2.1979	5.6441
2.1923	5.3724
2.1868	4.9009
2.1812	4.6306
2.1758	4.7173
2.1703	4.2618
2.1649	4.2373
2.1595	4.8414
2.1541	5.0453
2.1487	5.1057
2.1434	5.1317
2.1381	5.1074
2.1328	4.8638
2.1275	4.6206
2.1223	4.5813
2.1171	4.7374
2.112	5.052
2.1068	5.1613
2.1017	5.3052
2.0966	5.7936
2.0915	5.8172
2.0865	6.2372
2.0814	6.5941
2.0764	6.2971
2.0715	6.597
2.0665	6.1936
2.0616	6.8432
2.0567	6.8204
2.0518	6.6401
2.0469	6.6082
2.0421	6.3069
2.0373	6.6507
2.0325	7.0174
2.0277	7.0296
2.0229	6.2225
2.0182	6.5701
2.0135	6.3851
2.0088	5.96
2.0042	5.6247
