Name: Chlorite
Type: Mineral
Class: Silicate
Subclass: Phyllosilicate
Particle Size: Medium
Sample No.: PS-12E
Owner: JPL
Wavelength Range: VSWIR
Origin: USA, Vermont
Description: Particle size was 45-125um.Collected by Ward's Original ASTER Spectral Library name was jpl.beckman.mineral.silicate.phyllosilicate.medium.ps12e.spectrum.txt
Measurement: Hemispherical reflectance
X Units: Wavelength (micrometers)
Y Units: Reflectance (percent)
wavelength	value
0.4	9.99
0.403	10.11
0.406	10.17
0.409	10.3
0.412	10.47
0.415	10.57
0.418	10.83
0.421	11.09
0.424	11.31
0.427	11.31
0.43	11.59
0.433	11.71
0.436	11.92
0.439	12.04
0.442	12.17
0.445	12.1
0.448	11.89
0.451	12.01
0.454	12.1
0.457	12.31
0.46	12.33
0.463	12.6
0.466	12.75
0.469	13.11
0.472	13.45
0.475	13.68
0.478	13.97
0.481	14.12
0.484	14.41
0.487	14.78
0.49	14.58
0.493	14.54
0.496	14.64
0.499	14.69
0.502	14.88
0.505	15.05
0.508	15.07
0.511	15.07
0.514	15.06
0.517	15.08
0.52	15.14
0.523	15.01
0.526	14.92
0.529	14.85
0.532	14.78
0.535	14.71
0.538	14.81
0.541	14.63
0.544	14.56
0.547	14.52
0.55	14.51
0.553	14.51
0.556	14.32
0.559	14.3
0.562	14.27
0.565	14.11
0.568	14.19
0.571	13.91
0.574	13.61
0.577	13.54
0.58	13.37
0.583	13.31
0.586	13.2
0.589	13.13
0.592	12.87
0.595	12.71
0.598	12.51
0.601	12.36
0.604	12.44
0.607	12.23
0.61	12
0.613	11.81
0.616	11.74
0.619	11.5
0.622	11.34
0.625	11.16
0.628	11.07
0.631	10.94
0.634	10.77
0.637	10.67
0.64	10.53
0.643	10.48
0.646	10.31
0.649	10.2
0.652	10.12
0.655	9.9
0.658	9.76
0.661	9.78
0.664	9.64
0.667	9.51
0.67	9.44
0.673	9.37
0.676	9.34
0.679	9.29
0.682	9.19
0.685	9.13
0.688	9.05
0.691	9.04
0.694	9.03
0.697	8.9
0.7	8.9
0.703	8.87
0.706	8.86
0.709	8.82
0.712	8.86
0.715	8.91
0.718	8.83
0.721	8.87
0.724	8.91
0.727	8.91
0.73	8.99
0.733	9.03
0.736	9.08
0.739	9.11
0.742	9.23
0.745	9.24
0.748	9.37
0.751	9.53
0.754	9.76
0.757	9.9
0.76	9.87
0.763	10.15
0.766	10.17
0.769	10.19
0.772	10.39
0.775	10.32
0.778	10.49
0.781	10.59
0.784	10.66
0.787	10.76
0.79	10.76
0.793	10.79
0.796	10.82
0.799	10.78
0.808	11.04
0.82	10.95
0.832	10.77
0.844	10.64
0.856	10.39
0.868	10.41
0.88	10.23
0.892	10.22
0.904	10.3
0.916	10.37
0.928	10.52
0.94	10.77
0.952	11.07
0.964	11.3
0.976	11.56
0.988	11.64
1	11.76
1.012	11.89
1.024	11.87
1.036	11.91
1.048	11.95
1.06	12.01
1.072	12.04
1.084	12.14
1.096	12.26
1.108	12.42
1.12	12.58
1.132	12.75
1.144	12.87
1.156	13.11
1.168	13.46
1.18	13.9
1.192	14.23
1.204	14.69
1.216	15.07
1.228	15.56
1.24	16
1.252	16.55
1.264	17.04
1.276	17.54
1.288	18.09
1.3	18.64
1.312	19.19
1.324	19.73
1.336	20.34
1.348	20.91
1.36	21.48
1.372	21.9
1.384	20.74
1.396	21.18
1.408	22.06
1.42	23.22
1.432	23.56
1.444	23.92
1.456	24.57
1.468	25.35
1.48	26.01
1.492	26.39
1.504	26.69
1.516	26.98
1.528	27.39
1.54	27.84
1.552	28.35
1.564	28.92
1.576	29.51
1.588	30.16
1.6	30.84
1.612	31.43
1.624	32.15
1.636	32.66
1.648	33.27
1.66	33.8
1.672	34.36
1.684	34.89
1.696	35.34
1.708	35.74
1.72	36.21
1.732	36.54
1.744	36.95
1.756	37.32
1.768	37.65
1.78	37.99
1.792	38.27
1.804	38.39
1.816	38.53
1.828	38.66
1.84	38.55
1.852	38.47
1.864	38.28
1.876	38.31
1.888	38.8
1.9	39.34
1.912	39.53
1.924	39.59
1.936	39.26
1.948	38.8
1.96	38.48
1.972	38.11
1.984	37.76
1.996	37.94
2.008	38.65
2.02	39.88
2.032	41.03
2.044	41.87
2.056	42.47
2.068	42.83
2.08	43.05
2.092	43.08
2.104	43.09
2.116	43.18
2.128	43.2
2.14	43.25
2.152	43.08
2.164	42.75
2.176	42.21
2.188	41.53
2.2	40.64
2.212	39.17
2.224	36.17
2.236	32.16
2.248	30.02
2.26	30.07
2.272	29.64
2.284	27.97
2.296	26.28
2.308	24.9
2.32	23.98
2.332	23.67
2.344	24.62
2.356	26.52
2.368	28.63
2.38	29.91
2.392	30.8
2.404	31.63
2.416	32.01
2.428	31.61
2.44	30.66
2.452	29.59
2.464	28.62
2.476	27.98
2.488	27.91
2.5	27.94
