Name: Anorthite (Feldspar) (NaSi,CaAl)AlSi_2O_8
Type: Mineral
Class: Silicate
Subclass: Tectosilicate
Particle Size: Coarse
Sample No.: TS-5A
Owner: JPL
Wavelength Range: TIR
Description: Particle size was 125-500um.Collected by JPL Original ASTER Spectral Library name was jpl.nicolet.mineral.silicate.tectosilicate.coarse.ts05a.spectrum.txt
Measurement: Hemispherical reflectance
X Units: Wavelength (micrometers)
Y Units: Reflectance (percent)
wavelength	value
15.3853	3.5341
15.1161	3.0846
14.8563	2.6079
14.6052	2.8078
14.3624	2.2693
14.1276	2.3577
13.9004	2.8533
13.6803	3.1732
13.4671	2.7418
13.2604	3.6969
13.06	3.0028
12.8656	2.4187
12.6769	2.4032
12.4936	2.9453
12.3155	3.451
12.1425	4.1421
11.9742	4.343
11.8106	4.8724
11.6513	5.8638
11.4963	6.4829
11.3454	7.7022
11.1983	10.0885
11.0551	12.1798
10.9154	13.2245
10.7793	14.635
10.6465	14.9261
10.5169	14.6013
10.3904	12.5376
10.267	10.1251
10.1464	9.9833
10.0287	9.2707
9.9136	8.6647
9.8012	9.6834
9.6913	10.1799
9.5838	8.1821
9.4787	5.746
9.3758	4.865
9.2752	5.2268
9.1767	5.8913
9.0803	7.5757
8.9858	7.7342
8.8934	7.7713
8.8028	7.7881
8.714	8.0777
8.627	7.3776
8.5417	5.8597
8.4581	4.2347
8.3761	2.7854
8.2957	1.1903
8.2169	0.6031
8.1395	0.261
8.0635	0.068
7.989	0.4822
7.9158	0.3467
7.8439	0.4117
7.7734	0.4941
7.7041	0.4568
7.636	0.5773
7.5691	0.6851
7.5034	0.7997
7.4388	0.7966
7.3753	0.9177
7.3129	0.9837
7.2515	0.9952
7.1912	1.0598
7.1318	1.1125
7.0734	1.2192
7.016	1.3366
6.9595	1.2743
6.9039	1.2441
6.8492	1.3153
6.7953	1.4048
6.7423	1.3517
6.6901	1.4598
6.6387	1.4788
6.5881	1.4641
6.5382	1.4352
6.4892	1.4634
6.4408	1.6231
6.3931	1.4666
6.3462	1.6304
6.2999	1.6244
6.2543	1.5349
6.2094	1.4206
6.1651	1.5927
6.1214	1.6347
6.0784	1.6237
6.0359	1.6129
5.994	1.6296
5.9527	1.6946
5.912	1.8179
5.8718	1.9413
5.8322	2.1377
5.7931	2.1539
5.7545	2.2468
5.7165	2.4578
5.6789	2.4839
5.6418	2.525
5.6052	2.6136
5.5691	2.7297
5.5334	2.5783
5.4982	2.4891
5.4635	2.6244
5.4291	2.5778
5.3952	2.7903
5.3618	2.8167
5.3287	3.0056
5.2961	3.2317
5.2638	3.5238
5.2319	3.7966
5.2004	3.9333
5.1693	4.1747
5.1386	4.6278
5.1082	5.007
5.0782	5.3008
5.0485	5.5312
5.0192	5.8387
4.9902	6.3225
4.9616	6.6994
4.9332	7.1075
4.9052	7.3988
4.8776	7.9063
4.8502	8.2964
4.8231	8.5897
4.7963	8.955
4.7699	9.3926
4.7437	9.8714
4.7178	10.4901
4.6922	10.7967
4.6668	10.982
4.6418	11.3409
4.617	12.2985
4.5924	13.5964
4.5681	15.1018
4.5441	16.4135
4.5203	17.3139
4.4968	17.9361
4.4735	18.4937
4.4505	19.0598
4.4277	19.7235
4.4051	20.4372
4.3828	21.1707
4.3607	22.2271
4.3388	23.1893
4.3171	24.2078
4.2956	25.3938
4.2744	27.0706
4.2534	28.5783
4.2325	29.0791
4.2119	29.9978
4.1915	30.7406
4.1712	31.3245
4.1512	31.7777
4.1313	32.2342
4.1117	32.5014
4.0922	32.7639
4.0729	32.8731
4.0538	33.0562
4.0349	33.0639
4.0161	33.1403
3.9976	33.0605
3.9792	33.0246
3.9609	33.1568
3.9428	33.3004
3.9249	33.3524
3.9072	33.2755
3.8896	33.0364
3.8722	32.8386
3.8549	32.6367
3.8378	32.416
3.8208	32.0959
3.804	31.9027
3.7873	31.509
3.7708	31.1483
3.7544	30.538
3.7382	30.2925
3.7221	29.7596
3.7061	29.3509
3.6903	28.8912
3.6746	28.5695
3.659	28.1276
3.6436	27.6993
3.6283	27.2305
3.6131	26.6243
3.5981	26.2811
3.5832	25.6342
3.5684	25.146
3.5537	24.5246
3.5391	23.8871
3.5247	23.101
3.5104	22.5782
3.4962	21.8923
3.4821	21.3646
3.4681	20.9194
3.4543	20.406
3.4405	19.7231
3.4269	19.128
3.4133	18.4861
3.3999	18.0209
3.3866	17.2567
3.3733	16.7851
3.3602	16.3328
3.3472	15.6708
3.3343	15.1874
3.3215	14.8436
3.3088	14.3005
3.2961	13.8297
3.2836	13.2827
3.2712	12.9008
3.2588	12.326
3.2466	12.0976
3.2345	11.4443
3.2224	11.1169
3.2104	10.6357
3.1985	10.2551
3.1867	9.9254
3.175	9.4877
3.1634	9.2044
3.1519	8.8929
3.1404	8.716
3.129	8.308
3.1178	8.2239
3.1065	7.917
3.0954	7.6682
3.0844	7.6124
3.0734	7.3416
3.0625	7.2195
3.0517	6.9345
3.041	6.6421
3.0303	6.6183
3.0197	6.2932
3.0092	6.1057
2.9987	5.9293
2.9884	5.6054
2.9781	5.6696
2.9678	5.4384
2.9577	5.4245
2.9476	5.2496
2.9376	5.2289
2.9276	5.1771
2.9177	5.2381
2.9079	5.1864
2.8982	5.1442
2.8885	5.0325
2.8789	5.1592
2.8693	4.9871
2.8598	5.2612
2.8504	5.2675
2.841	5.2517
2.8317	5.323
2.8224	5.3461
2.8133	5.3753
2.8041	5.4006
2.7951	5.5896
2.786	5.3041
2.7771	5.5297
2.7682	5.5853
2.7594	5.5731
2.7506	5.5994
2.7418	5.9374
2.7332	7.1104
2.7246	8.2112
2.716	11.3259
2.7075	17.3426
2.699	24.339
2.6906	29.02
2.6823	32.0842
2.674	34.5056
2.6657	36.1541
2.6575	37.2639
2.6494	38.2343
2.6413	38.7924
2.6332	39.434
2.6252	39.329
2.6173	39.5753
2.6094	39.5998
2.6015	40.0093
2.5937	40.5223
2.5859	40.7014
2.5782	40.5958
2.5706	40.6813
2.5629	41.0555
2.5554	41.0422
2.5478	41.4046
2.5403	41.9677
2.5329	41.9244
2.5255	42.1769
2.5181	42.6357
2.5108	42.8457
2.5035	42.8886
2.4963	42.8398
2.4891	42.8497
2.482	42.5522
2.4749	42.1618
2.4678	41.8042
2.4608	42.2918
2.4538	42.7998
2.4468	43.5227
2.4399	44.0502
2.4331	44.5111
2.4262	44.8431
2.4194	45.2042
2.4127	45.1057
2.4059	45.1025
2.3993	44.9037
2.3926	44.3409
2.386	43.9626
2.3795	43.4016
2.3729	42.2856
2.3664	40.485
2.36	39.081
2.3535	39.2069
2.3471	40.1445
2.3408	40.5662
2.3345	40.828
2.3282	42.1392
2.3219	44.1164
2.3157	45.8802
2.3095	46.906
2.3034	47.2262
2.2972	47.4077
2.2911	47.7384
2.2851	48.5333
2.279	49.3277
2.2731	49.5443
2.2671	49.3166
2.2612	48.9669
2.2553	49.1824
2.2494	49.7492
2.2435	50.621
2.2377	51.3495
2.232	52.147
2.2262	53.1327
2.2205	53.7601
2.2148	53.8667
2.2091	53.4833
2.2035	53.3753
2.1979	52.8148
2.1923	52.9935
2.1868	53.381
2.1812	54.2631
2.1758	54.5755
2.1703	55.4173
2.1649	56.0908
2.1595	56.7597
2.1541	57.1965
2.1487	57.2263
2.1434	57.4887
2.1381	57.6136
2.1328	57.7258
2.1275	57.4995
2.1223	57.7903
2.1171	57.9526
2.112	58.2511
2.1068	57.8411
2.1017	57.9521
2.0966	58.4807
2.0915	58.1866
2.0865	58.3832
2.0814	58.1569
2.0764	57.843
2.0715	58.1282
2.0665	57.4958
2.0616	57.808
2.0567	57.5389
2.0518	57.5575
2.0469	57.4855
2.0421	57.3503
2.0373	57.2022
2.0325	57.0197
2.0277	56.9219
2.0229	56.7358
2.0182	56.3698
2.0135	56.4434
2.0088	56.2364
2.0042	56.1573
