Name: Kyanite Al2SiO5
Type: Mineral
Class: Silicate
Subclass: Nesosilicate
Particle Size: Fine
Sample No.: kyanite_1
Owner: JHU
Wavelength Range: TIR
Origin: Brazil (?) via the Smithsonian (sample no. NMNH 139740)
Description: The sample consisted of two blue crystals, each about 1.5 cm x 0.4 cm x 0.4 cm in size.  Both displayed a very small amount of brown coating (limonite?), which could be scraped off or picked out after initial crushing of the crystals.  Under the microscope, the resulting sample appears pure and unaltered. Particle size was Less than 2 Micrometers.(Isolated Tetrahedra); (Al2SiO5 Group) Original ASTER Spectral Library name was jhu.nicolet.mineral.silicate.phyllosilicate.powder.kyanit1.spectrum.txt
Measurement: Transmission
X Units: Wavelength (micrometers)
Y Units: Transmittance (percent)
wavelength	value
25.0442	56.6444
24.3388	62.0643
23.6719	52.203
23.0407	32.1962
22.4422	26.9423
21.8741	18.5937
21.334	16.8837
20.8199	37.3026
20.33	32.7636
19.8627	28.6132
19.4163	31.3891
18.9896	39.934
18.5812	43.9203
18.19	34.2192
17.815	39.0746
17.4551	31.1117
17.1094	19.8378
16.7772	15.5473
16.4576	9.8208
16.15	10.2744
15.8537	12.5771
15.568	10.0771
15.2925	12.0576
15.0265	14.3564
14.7697	12.8911
14.5214	16.7973
14.2814	19.872
14.0492	20.4536
13.8244	21.4338
13.6067	23.8144
13.3957	31.7021
13.1912	37.0009
12.9929	40.0705
12.8004	41.8212
12.6135	43.5079
12.432	45.3783
12.2557	48.1644
12.0843	51.6952
11.9176	55.4413
11.7555	57.9247
11.5977	57.8236
11.444	52.0284
11.2944	43.8859
11.1487	37.2355
11.0067	40.6298
10.8682	36.8283
10.7332	24.7538
10.6015	20.5288
10.473	22.5981
10.3476	25.2746
10.2251	28.8766
10.1056	27.9992
9.9887	26.7363
9.8746	31.1437
9.763	33.976
9.6539	31.6632
9.5472	37.9162
9.4429	48.1498
9.3408	54.1068
9.2409	57.847
9.1431	60.9666
9.0474	63.6551
8.9536	66.3787
8.8618	69.0382
8.7718	71.2059
8.6837	72.8243
8.5973	74.5403
8.5126	76.5423
8.4295	78.4202
8.3481	79.7078
8.2682	81.0037
8.1898	82.1258
8.1129	82.7737
8.0374	83.2207
7.9634	83.523
7.8906	83.7622
7.8192	84.8079
7.7491	85.1311
7.6802	85.3611
7.6126	85.5613
7.5461	85.8191
7.4807	85.9622
7.4165	86.1131
7.3534	86.1638
7.2914	86.2566
7.2303	86.1829
7.1703	86.7986
7.1113	86.7259
7.0533	86.6834
6.9962	86.8103
6.94	87.138
6.8847	87.1453
6.8302	87.2698
6.7767	87.6931
6.7239	87.9509
6.672	88.1253
6.6209	88.179
6.5705	88.3435
6.5209	88.3628
6.4721	88.3484
6.424	88.3723
6.3766	88.1892
6.3299	88.0081
6.2838	87.7185
6.2385	87.3406
6.1937	86.7576
6.1496	85.8064
6.1062	85.8284
6.0633	86.2903
6.0211	87.2239
5.9794	88.4241
5.9383	88.658
5.8978	88.78
5.8578	88.9822
5.8184	89.3538
5.7794	89.3645
5.741	89.5293
5.7031	89.5823
5.6657	89.5715
5.6288	89.5061
5.5924	89.4463
5.5564	89.4216
5.5209	89.4173
5.4859	89.3606
5.4513	89.4119
5.4171	89.4876
5.3833	89.4251
5.35	89.4558
5.3171	89.4207
5.2846	89.4148
5.2524	89.4221
5.2207	89.3953
5.1893	89.4397
5.1584	89.3958
5.1277	89.4046
5.0975	89.4021
5.0676	89.386
5.038	89.4771
5.0088	89.5078
4.98	89.4451
4.9514	89.4851
4.9232	89.3967
4.8953	89.4141
4.8678	89.4002
4.8405	89.3445
4.8135	89.4314
4.7868	89.3916
4.7605	89.3887
4.7344	89.3211
4.7086	89.3489
4.6831	89.3469
4.6578	89.3123
4.6328	89.3145
4.6081	89.4368
4.5837	89.2927
4.5595	89.2195
4.5356	89.2505
4.5119	89.1541
4.4884	89.1677
4.4652	89.0574
4.4423	89.0642
4.4196	89.095
4.3971	89.0095
4.3748	88.9959
4.3528	88.9329
4.331	88.9243
4.3094	88.8543
4.288	88.8945
4.2668	88.7522
4.2458	88.7703
4.2251	88.7195
4.2045	88.6743
4.1841	88.6712
4.164	88.5862
4.144	88.5076
4.1242	88.4939
4.1046	88.4968
4.0852	88.377
4.066	88.3701
4.047	88.3106
4.0281	88.3145
4.0094	88.3018
3.9909	88.2371
3.9725	88.1572
3.9544	88.138
3.9363	88.1614
3.9185	88.1514
3.9008	88.055
3.8833	88.0315
3.8659	87.9026
3.8487	87.9365
3.8316	87.9102
3.8147	87.875
3.7979	87.7725
3.7813	87.762
3.7648	87.6565
3.7485	87.5977
3.7323	87.5208
3.7162	87.4568
3.7003	87.3787
3.6845	87.333
3.6689	87.1951
3.6534	87.1717
3.638	87.1389
3.6227	86.969
3.6076	86.8848
3.5926	86.8479
3.5777	86.7879
3.563	86.6133
3.5484	86.5086
3.5338	86.3303
3.5195	86.002
3.5052	85.5349
3.491	85.4922
3.477	85.3094
3.463	85.2249
3.4492	85.0144
3.4355	84.6963
3.4219	84.304
3.4084	84.3201
3.395	84.6182
3.3817	84.6277
3.3685	84.8445
3.3554	85.1035
3.3425	85.1258
3.3296	85.1045
3.3168	85.0418
3.3041	84.9883
3.2915	84.8089
3.279	84.6065
3.2666	84.6172
3.2543	84.5186
3.2421	84.4261
3.23	84.1136
3.218	84.1082
3.206	83.9051
3.1942	83.8133
3.1824	83.6433
3.1707	83.3113
3.1591	82.9983
3.1476	82.7176
3.1362	82.4187
3.1249	82.0413
3.1136	81.7478
3.1024	81.3557
3.0913	80.7801
3.0803	80.346
3.0694	79.971
3.0585	79.4651
3.0477	79.2068
3.037	78.8279
3.0264	78.4578
3.0158	77.9822
3.0053	77.2996
2.9949	76.6687
2.9845	76.0296
2.9743	75.1858
2.9641	74.4529
2.9539	73.6722
2.9439	73.1678
2.9339	72.7811
2.9239	72.4847
2.9141	72.4559
2.9043	72.4803
2.8946	72.5936
2.8849	72.9476
2.8753	73.0447
2.8658	73.3221
2.8563	73.8089
2.8469	74.1839
2.8375	74.8826
2.8282	75.5223
2.819	76.742
2.8098	77.4939
2.8007	78.2439
2.7917	79.0042
2.7827	79.7522
2.7738	80.5164
2.7649	81.0257
2.7561	81.8142
2.7473	82.1897
2.7386	82.7068
2.7299	83.0115
2.7213	83.0017
2.7128	83.1936
2.7043	83.3128
2.6959	83.7249
2.6875	84.0335
2.6791	84.0686
2.6709	84.1931
2.6626	83.93
2.6545	83.9261
2.6463	83.9339
2.6382	83.8064
2.6302	83.9534
2.6222	83.8221
2.6143	83.7947
2.6064	83.8181
2.5986	83.6619
2.5908	83.6482
2.583	83.7273
2.5753	83.366
2.5677	83.5213
2.5601	83.4178
2.5525	83.2234
2.545	83.1219
2.5375	83.3562
2.5301	83.2781
2.5227	82.9422
2.5154	82.9744
2.5081	83.0291
2.5008	82.9734
2.4936	82.9178
2.4864	82.8133
2.4793	82.7527
2.4722	82.781
2.4651	82.658
2.4581	82.7508
2.4511	82.7322
2.4442	82.5115
2.4373	82.5877
2.4305	82.4109
2.4236	82.4265
2.4169	82.5174
2.4101	82.5349
2.4034	82.4529
2.3967	82.2166
2.3901	82.2078
2.3835	82.1072
2.377	82.1209
2.3704	82.2195
2.364	82.0467
2.3575	82.0203
2.3511	82.2107
2.3447	82.0242
2.3384	81.7976
2.3321	81.782
2.3258	81.7889
2.3195	81.8787
2.3133	81.4959
2.3071	81.5935
2.301	81.868
2.2949	81.6834
2.2888	81.3982
2.2828	81.6726
2.2767	81.2967
2.2708	81.3826
2.2648	81.5857
2.2589	81.5232
2.253	81.5506
2.2471	81.3221
2.2413	81.0428
2.2355	81.2185
2.2297	81.4139
2.224	81.0135
2.2183	81.0349
2.2126	81.1697
2.207	81.1346
2.2013	80.9295
2.1957	80.7849
2.1902	80.8924
2.1846	80.9666
2.1791	80.6736
2.1736	80.7361
2.1682	81.0721
2.1628	81.0193
2.1574	80.6248
2.152	80.6404
2.1466	80.5232
2.1413	80.117
2.136	80.6111
2.1308	80.99
2.1255	80.3299
2.1203	80.4139
2.1151	80.4002
2.11	80.406
2.1048	80.4021
2.0997	80.7576
2.0946	80.6424
2.0895	80.1131
2.0845	80.1209
2.0795	80.1795
