Name: Pectolite NaCa2Si308(OH)
Type: Mineral
Class: Silicate
Subclass: Inosilicate
Particle Size: Solid
Sample No.: pectol_2
Owner: JHU
Wavelength Range: TIR
Origin: Thedford, Ontario, Canada via the Smithsonian (sample no.NMNH 94865)
Description: Sample consisted of a small (1 mm x 1 mm x 1 cm ) and one larger (5 mm x 6 mm x 1 cm) fragment. Sample appears to be composed of pure pectolite needles. However, microsopic examination revealed that it contained 2% of an isotropic mineral. Fibrous pectolite precludes effective sieving; the fine fraction was separated from the coarse fraction by elutriation in acetone. (Chain Silicates); (Pyrexenoid Group) Original ASTER Spectral Library name was jhu.nicolet.mineral.silicate.inosilicate.solid.pectol2.spectrum.txt
Measurement: Bidirectional reflectance
X Units: Wavelength (micrometers)
Y Units: Reflectance (percent)
wavelength	value
25.0442	14.1015
24.3388	16.4453
23.6719	15.1093
23.0407	16.7646
22.4422	22.6572
21.8741	28.3476
21.334	32.7245
20.8199	36.9931
20.33	38.0565
19.8627	36.5102
19.4163	26.8075
18.9896	24.342
18.5812	22.8137
18.19	19.0634
17.815	13.9101
17.4551	11.4651
17.1094	11.7939
16.7772	12.4428
16.4576	13.1972
16.15	14.007
15.8537	15.3549
15.568	18.1057
15.2925	12.3174
15.0265	12.5195
14.7697	19.2236
14.5214	17.1135
14.2814	15.2412
14.0492	13.6753
13.8244	13.8943
13.6067	14.1001
13.3957	14.3388
13.1912	14.6845
12.9929	14.9643
12.8004	15.3442
12.6135	15.7124
12.432	16.1113
12.2557	16.3833
12.0843	16.7465
11.9176	16.9003
11.7555	17.0678
11.5977	17.1938
11.444	17.4834
11.2944	18.4907
11.1487	21.5073
11.0067	28.5258
10.8682	33.7741
10.7332	37.975
10.6015	31.2985
10.473	28.2065
10.3476	32.1798
10.2251	29.4106
10.1056	30.6772
9.9887	25.8681
9.8746	16.8293
9.763	20.5302
9.6539	27.2407
9.5472	32.7526
9.4429	35.737
9.3408	38.081
9.2409	38.9816
9.1431	37.9745
9.0474	36.4792
8.9536	30.2416
8.8618	22.0178
8.7718	15.726
8.6837	11.7383
8.5973	8.0901
8.5126	5.7214
8.4295	5.7666
8.3481	6.6235
8.2682	7.3406
8.1898	7.9616
8.1129	8.4741
8.0374	8.8767
7.9634	9.2009
7.8906	9.4709
7.8192	9.7402
7.7491	9.9558
7.6802	10.1499
7.6126	10.313
7.5461	10.5451
7.4807	10.6828
7.4165	10.9272
7.3534	11.1279
7.2914	11.3679
7.2303	11.6172
7.1703	11.4819
7.1113	10.042
7.0533	9.8694
6.9962	10.435
6.94	10.8283
6.8847	11.0132
6.8302	11.1162
6.7767	11.2094
6.7239	11.2651
6.672	11.4294
6.6209	11.6176
6.5705	11.4985
6.5209	11.623
6.4721	11.7822
6.424	11.7124
6.3766	11.8037
6.3299	11.9043
6.2838	11.9077
6.2385	11.9275
6.1937	11.9021
6.1496	11.9519
6.1062	12.02
6.0633	12.0969
6.0211	12.0612
5.9794	12.1128
5.9383	11.8335
5.8978	11.937
5.8578	12.1792
5.8184	12.1325
5.7794	12.2588
5.741	12.3574
5.7031	12.3093
5.6657	12.3288
5.6288	12.3142
5.5924	12.3349
5.5564	12.3103
5.5209	12.3767
5.4859	12.365
5.4513	12.4226
5.4171	12.4101
5.3833	12.4458
5.35	12.3769
5.3171	12.4426
5.2846	12.4189
5.2524	12.3703
5.2207	12.3362
5.1893	12.3606
5.1584	12.3747
5.1277	12.3962
5.0975	12.3911
5.0676	12.3747
5.038	12.365
5.0088	12.3362
4.98	12.3105
4.9514	12.3364
4.9232	12.3364
4.8953	12.4116
4.8678	12.4729
4.8405	12.4919
4.8135	12.5193
4.7868	12.5266
4.7605	12.5224
4.7344	12.5725
4.7086	12.6577
4.6831	12.6933
4.6578	12.7309
4.6328	12.7915
4.6081	12.8254
4.5837	12.8574
4.5595	12.8672
4.5356	12.8882
4.5119	12.8901
4.4884	12.9062
4.4652	12.9121
4.4423	12.9192
4.4196	12.9233
4.3971	12.9038
4.3748	12.917
4.3528	12.8935
4.331	12.8125
4.3094	12.6897
4.288	12.5129
4.2668	12.5503
4.2458	12.4424
4.2251	12.4516
4.2045	12.74
4.1841	12.8569
4.164	12.8479
4.144	12.8501
4.1242	12.8601
4.1046	12.8772
4.0852	12.8589
4.066	12.8715
4.047	12.8923
4.0281	12.8911
4.0094	12.8943
3.9909	12.9091
3.9725	12.9326
3.9544	12.9299
3.9363	12.9426
3.9185	12.9421
3.9008	12.9404
3.8833	12.946
3.8659	12.9284
3.8487	12.9279
3.8316	12.914
3.8147	12.9206
3.7979	12.9135
3.7813	12.9113
3.7648	12.8899
3.7485	12.8794
3.7323	12.8537
3.7162	12.8466
3.7003	12.8183
3.6845	12.8083
3.6689	12.7973
3.6534	12.7744
3.638	12.7597
3.6227	12.7436
3.6076	12.7085
3.5926	12.6887
3.5777	12.6552
3.563	12.6631
3.5484	12.6557
3.5338	12.6589
3.5195	12.6606
3.5052	12.6023
3.491	12.5263
3.477	12.5542
3.463	12.6001
3.4492	12.5988
3.4355	12.5898
3.4219	12.5874
3.4084	12.4492
3.395	12.4223
3.3817	12.4487
3.3685	12.4633
3.3554	12.4858
3.3425	12.5092
3.3296	12.5454
3.3168	12.5385
3.3041	12.5424
3.2915	12.5693
3.279	12.5595
3.2666	12.5507
3.2543	12.5454
3.2421	12.5429
3.23	12.5664
3.218	12.5468
3.206	12.5444
3.1942	12.5405
3.1824	12.5366
3.1707	12.5271
3.1591	12.5417
3.1476	12.5193
3.1362	12.5153
3.1249	12.5005
3.1136	12.4973
3.1024	12.4756
3.0913	12.4675
3.0803	12.4692
3.0694	12.4663
3.0585	12.4712
3.0477	12.4377
3.037	12.4409
3.0264	12.4428
3.0158	12.4321
3.0053	12.414
2.9949	12.4294
2.9845	12.4018
2.9743	12.3896
2.9641	12.3625
2.9539	12.3662
2.9439	12.3545
2.9339	12.3325
2.9239	12.3413
2.9141	12.2929
2.9043	12.3134
2.8946	12.3056
2.8849	12.2973
2.8753	12.2815
2.8658	12.3217
2.8563	12.3154
2.8469	12.3264
2.8375	12.3137
2.8282	12.3091
2.819	12.3383
2.8098	12.3383
2.8007	12.4301
2.7917	12.3447
2.7827	12.3003
2.7738	12.3857
2.7649	12.3418
2.7561	12.2148
2.7473	12.3186
2.7386	12.33
2.7299	12.334
2.7213	12.3164
2.7128	12.3364
2.7043	12.3217
2.6959	12.29
2.6875	12.3066
2.6791	12.2695
2.6709	12.2295
2.6626	12.3344
2.6545	12.3134
2.6463	12.2334
2.6382	12.2558
2.6302	12.2314
2.6222	12.2812
2.6143	12.3398
2.6064	12.25
2.5986	12.2446
2.5908	12.2949
2.583	12.2568
2.5753	12.25
2.5677	12.2129
2.5601	12.1919
2.5525	12.164
2.545	12.1767
2.5375	12.1821
2.5301	12.1718
2.5227	12.1255
2.5154	12.1357
2.5081	12.1308
2.5008	12.122
2.4936	12.124
2.4864	12.0927
2.4793	12.1113
2.4722	12.0571
2.4651	12.0888
2.4581	12.0586
2.4511	12.0429
2.4442	12.0376
2.4373	12.0742
2.4305	12.0322
2.4236	12.0356
2.4169	12.0434
2.4101	12.0551
2.4034	12.0234
2.3967	12.0175
2.3901	12.0175
2.3835	11.9751
2.377	12.061
2.3704	12.0395
2.364	12.0234
2.3575	12.0224
2.3511	12.0273
2.3447	12.0937
2.3384	11.997
2.3321	11.9648
2.3258	12.0449
2.3195	12.0898
2.3133	12.0468
2.3071	12.0615
2.301	12.0625
2.2949	12.1294
2.2888	12.1508
2.2828	12.1933
2.2767	12.1445
2.2708	12.1723
2.2648	12.1997
2.2589	12.1562
2.253	12.1884
2.2471	12.206
2.2413	12.2363
2.2355	12.25
2.2297	12.2685
2.224	12.2597
2.2183	12.2724
2.2126	12.3222
2.207	12.2744
2.2013	12.2871
2.1957	12.2832
2.1902	12.3437
2.1846	12.374
2.1791	12.4179
2.1736	12.3457
2.1682	12.3984
2.1628	12.3955
2.1574	12.4218
2.152	12.4248
2.1466	12.4004
2.1413	12.4345
2.136	12.4541
2.1308	12.4902
2.1255	12.5156
2.1203	12.5361
2.1151	12.4668
2.11	12.6132
2.1048	12.5322
2.0997	12.6172
2.0946	12.5791
2.0895	12.6269
2.0845	12.6806
2.0795	12.6484
