Name: Vermiculite (Mg,Fe^2+,Al)_3(Al,Si)_4O_10(OH)_2.4H_2O
Type: Mineral
Class: Silicate
Subclass: Phyllosilicate
Particle Size: Medium
Sample No.: PS-18B
Owner: JPL
Wavelength Range: VSWIR
Origin: USA, Montana, Lincoln County, Libby.
Description: Particle size was 45-125um. Collected by:  Ward's Original ASTER Spectral Library name was jpl.perkin.mineral.silicate.phyllosilicate.medium.ps18b.spectrum.txt
Measurement: Hemispherical reflectance
X Units: Wavelength (micrometers)
Y Units: Reflectance (percent)
wavelength	value
2.5	32.7257
2.494	32.9218
2.488	33.0725
2.482	33.66
2.476	33.9154
2.47	34.2061
2.464	34.8366
2.458	35.1882
2.452	35.5581
2.446	35.89
2.44	36.2804
2.434	36.743
2.428	36.992
2.422	37.2437
2.416	37.59
2.41	37.7731
2.404	37.9209
2.398	38.1578
2.392	38.2948
2.386	38.635
2.38	39.0824
2.374	39.7698
2.368	40.6045
2.362	41.2431
2.356	41.7797
2.35	42.2065
2.344	42.1752
2.338	41.8752
2.332	41.2789
2.326	40.6722
2.32	40.4703
2.314	40.5061
2.308	40.8042
2.302	41.1628
2.296	41.8882
2.29	43.0156
2.284	45.1308
2.278	47.2773
2.272	49.1767
2.266	50.6925
2.26	51.8093
2.254	52.6095
2.248	53.1752
2.242	53.5956
2.236	54.1234
2.23	54.4089
2.224	54.5664
2.218	54.7499
2.212	54.8968
2.206	55.0314
2.2	55.1436
2.194	55.1956
2.188	55.1924
2.182	55.3556
2.176	55.2267
2.17	55.2974
2.164	55.253
2.158	55.2422
2.152	55.2064
2.146	55.079
2.14	54.8854
2.134	54.6057
2.128	54.3015
2.122	53.8989
2.116	53.4924
2.11	53.0454
2.104	52.6441
2.098	52.2542
2.092	51.9834
2.086	51.7245
2.08	51.4128
2.074	51.1732
2.068	50.9154
2.062	50.592
2.056	50.1787
2.05	49.7789
2.044	49.3832
2.038	48.9869
2.032	48.3851
2.026	47.8421
2.02	47.2037
2.014	46.5335
2.008	45.8066
2.002	45.0968
1.996	44.1721
1.99	43.3474
1.984	42.4529
1.978	41.7392
1.972	41.0706
1.966	40.4525
1.96	39.8347
1.954	39.2477
1.948	38.6052
1.942	38.0748
1.936	37.3227
1.93	36.6745
1.924	35.9446
1.918	35.6013
1.912	36.0049
1.906	37.7714
1.9	41.3446
1.894	45.5696
1.888	49.1603
1.882	51.8847
1.876	53.7796
1.87	55.2005
1.864	56.1539
1.858	56.6105
1.852	56.9106
1.846	57.1438
1.84	57.1685
1.834	57.2143
1.828	57.0754
1.822	57.0437
1.816	56.913
1.81	56.8211
1.804	56.7553
1.798	56.711
1.792	56.5159
1.786	56.439
1.78	56.3749
1.774	56.3098
1.768	56.2409
1.762	56.2068
1.756	56.2249
1.75	56.1343
1.744	56.0982
1.738	56.1039
1.732	56.0275
1.726	55.9574
1.72	55.8852
1.714	55.7404
1.708	55.7062
1.702	55.5436
1.696	55.4431
1.69	55.2134
1.684	55.0609
1.678	55.0243
1.672	54.7952
1.666	54.6939
1.66	54.4988
1.654	54.2227
1.648	54.1248
1.642	53.9229
1.636	53.7661
1.63	53.6055
1.624	53.3174
1.618	53.2588
1.612	53.0443
1.606	52.8406
1.6	52.6643
1.594	52.4932
1.588	52.2065
1.582	52.0185
1.576	51.7826
1.57	51.5485
1.564	51.3123
1.558	51.1059
1.552	50.8201
1.546	50.4717
1.54	50.1976
1.534	49.9062
1.528	49.6458
1.522	49.2472
1.516	48.8905
1.51	48.5999
1.504	48.149
1.498	47.7757
1.492	47.3497
1.486	46.9944
1.48	46.4671
1.474	46.0657
1.468	45.611
1.462	45.2771
1.456	45.0349
1.45	44.6039
1.444	44.1917
1.438	43.8819
1.432	43.5369
1.426	43.3231
1.42	42.9701
1.414	42.8996
1.408	43.4911
1.402	44.0743
1.396	43.3215
1.39	43.7995
1.384	45.0254
1.378	44.5649
1.372	44.9901
1.366	45.6087
1.36	45.3865
1.354	45.224
1.348	45.023
1.342	44.8752
1.336	44.5893
1.33	44.4038
1.324	44.1422
1.318	43.9474
1.312	43.7041
1.306	43.5015
1.3	43.1392
1.294	42.8928
1.288	42.6561
1.282	42.3603
1.276	42.1164
1.27	41.9121
1.264	41.6572
1.258	41.4202
1.252	41.0903
1.246	40.9445
1.24	40.6662
1.234	40.4249
1.228	40.1431
1.222	39.9225
1.216	39.7067
1.21	39.4854
1.204	39.2601
1.198	39.0997
1.192	38.9056
1.186	38.7333
1.18	38.5066
1.174	38.385
1.168	38.1918
1.162	38.0614
1.156	37.9447
1.15	37.819
1.144	37.7596
1.138	37.6299
1.132	37.4997
1.126	37.4201
1.12	37.3716
1.114	37.216
1.108	37.1357
1.102	37.0512
1.096	36.9242
1.09	36.945
1.084	36.8318
1.078	36.8344
1.072	36.7723
1.066	36.6382
1.06	36.5966
1.054	36.6065
1.048	36.5288
1.042	36.5457
1.036	36.4332
1.03	36.3993
1.024	36.3819
1.018	36.2757
1.012	36.3517
1.006	36.2191
1	36.0982
0.994	36.0929
0.988	35.9751
0.982	35.9724
0.976	35.8441
0.97	35.7042
0.964	35.6888
0.958	35.6609
0.952	35.5069
0.946	35.4759
0.94	35.45
0.934	35.452
0.928	35.3262
0.922	35.4063
0.916	35.28
0.91	35.2816
0.904	35.3653
0.898	35.3022
0.892	35.3757
0.886	35.3322
0.88	35.3593
0.874	35.3889
0.868	35.3299
0.862	35.3854
0.856	35.7768
0.85	35.7879
0.844	35.7707
0.838	35.7512
0.832	35.7389
0.826	35.6756
0.82	35.6069
0.814	35.5038
0.808	35.3358
0.802	35.2155
0.796	34.9946
0.79	34.7749
0.784	34.5243
0.778	34.2804
0.772	34.004
0.766	33.7312
0.76	33.4976
0.754	33.23
0.748	33.0037
0.742	32.7988
0.736	32.6195
0.73	32.4527
0.724	32.3046
0.718	32.1591
0.712	32.0367
0.706	31.9566
0.7	31.8923
0.694	31.8366
0.688	31.8082
0.682	31.8264
0.676	31.7582
0.67	31.658
0.664	31.543
0.658	31.415
0.652	31.2643
0.646	31.0922
0.64	30.8866
0.634	30.6638
0.628	30.4121
0.622	30.1471
0.616	29.8716
0.61	29.5772
0.604	29.2706
0.598	28.9686
0.592	28.6704
0.586	28.3465
0.58	28.0349
0.574	27.7093
0.568	27.3784
0.562	27.0104
0.556	26.5991
0.55	26.1643
0.544	25.7004
0.538	25.1624
0.532	24.5305
0.526	23.7874
0.52	22.9435
0.514	22.0061
0.508	20.9978
0.502	19.9742
0.496	18.9925
0.49	18.1552
0.484	17.5006
0.478	16.9992
0.472	16.6697
0.466	16.4557
0.46	16.2466
0.454	15.8805
0.448	15.2845
0.442	14.5448
0.436	13.7281
0.43	12.8964
0.424	12.1698
0.418	11.6252
0.412	11.2274
0.406	10.8989
0.4	10.5712
