Name: Microcline (Feldspar) (K,Na)AlSi_3O_8
Type: Mineral
Class: Silicate
Subclass: Tectosilicate
Particle Size: Fine
Sample No.: TS-17A
Owner: JPL
Wavelength Range: VSWIR
Description: Particle size was 0-45um.Collected by JPL Original ASTER Spectral Library name was jpl.beckman.mineral.silicate.tectosilicate.fine.ts17a.spectrum.txt
Measurement: Hemispherical reflectance
X Units: Wavelength (micrometers)
Y Units: Reflectance (percent)
wavelength	value
0.4	58.01
0.403	58.74
0.406	59.31
0.409	59.64
0.412	59.95
0.415	60.29
0.418	60.66
0.421	61.05
0.424	61.59
0.427	61.78
0.43	62.23
0.433	62.67
0.436	63.01
0.439	63.41
0.442	63.78
0.445	64.06
0.448	64.24
0.451	64.6
0.454	64.66
0.457	65.03
0.46	65.19
0.463	65.54
0.466	65.55
0.469	65.84
0.472	65.99
0.475	66.24
0.478	66.44
0.481	66.64
0.484	66.58
0.487	66.85
0.49	67.07
0.493	67.46
0.496	67.62
0.499	67.97
0.502	67.87
0.505	68.16
0.508	68.25
0.511	68.62
0.514	68.82
0.517	68.97
0.52	69.04
0.523	69.21
0.526	69.52
0.529	69.74
0.532	69.88
0.535	70.09
0.538	70.34
0.541	70.48
0.544	70.8
0.547	71.01
0.55	71.46
0.553	71.64
0.556	71.94
0.559	72.03
0.562	72.97
0.565	73.13
0.568	73.34
0.571	73.54
0.574	73.78
0.577	73.92
0.58	74.28
0.583	74.23
0.586	74.45
0.589	74.67
0.592	74.91
0.595	74.92
0.598	75.12
0.601	75.1
0.604	75.26
0.607	75.31
0.61	75.35
0.613	75.35
0.616	75.39
0.619	75.39
0.622	75.31
0.625	75.38
0.628	75.43
0.631	75.46
0.634	75.53
0.637	75.68
0.64	75.41
0.643	75.51
0.646	75.58
0.649	75.56
0.652	75.6
0.655	75.86
0.658	75.56
0.661	75.74
0.664	75.77
0.667	75.85
0.67	75.71
0.673	75.91
0.676	75.85
0.679	75.78
0.682	75.89
0.685	75.89
0.688	75.98
0.691	75.92
0.694	76.04
0.697	76.01
0.7	76.01
0.703	76.16
0.706	76.04
0.709	76.13
0.712	76.28
0.715	76.24
0.718	76.32
0.721	76.32
0.724	76.48
0.727	76.33
0.73	76.42
0.733	76.32
0.736	76.37
0.739	76.47
0.742	76.44
0.745	76.36
0.748	76.47
0.751	76.43
0.754	76.47
0.757	76.51
0.76	76.55
0.763	76.43
0.766	76.44
0.769	76.54
0.772	76.53
0.775	76.54
0.778	76.68
0.781	76.62
0.784	76.63
0.787	76.6
0.79	76.63
0.793	76.56
0.796	76.75
0.799	76.55
0.808	77.24
0.82	77.19
0.832	77.27
0.844	77.23
0.856	77.35
0.868	77.33
0.88	77.45
0.892	77.41
0.904	77.47
0.916	77.57
0.928	77.58
0.94	77.81
0.952	77.84
0.964	77.86
0.976	77.99
0.988	78.01
1	78.18
1.012	78.24
1.024	78.34
1.036	78.26
1.048	78.44
1.06	78.52
1.072	78.58
1.084	78.57
1.096	78.73
1.108	78.77
1.12	78.88
1.132	79
1.144	79
1.156	79.06
1.168	79.08
1.18	79.11
1.192	79.21
1.204	79.35
1.216	79.25
1.228	79.38
1.24	79.38
1.252	79.46
1.264	79.45
1.276	79.6
1.288	79.68
1.3	79.58
1.312	79.6
1.324	79.61
1.336	79.65
1.348	79.6
1.36	79.7
1.372	79.57
1.384	79.45
1.396	78.65
1.408	78
1.42	79.12
1.432	79.5
1.444	79.75
1.456	79.74
1.468	79.87
1.48	79.87
1.492	79.99
1.504	79.98
1.516	80.1
1.528	80.05
1.54	80.18
1.552	80.25
1.564	80.18
1.576	80.29
1.588	80.16
1.6	80.27
1.612	80.3
1.624	80.35
1.636	80.3
1.648	80.25
1.66	80.36
1.672	80.35
1.684	80.27
1.696	80.43
1.708	80.34
1.72	80.42
1.732	80.29
1.744	80.29
1.756	80.25
1.768	80.13
1.78	80.24
1.792	80.18
1.804	80.16
1.816	80.13
1.828	80.05
1.84	80.14
1.852	79.94
1.864	79.98
1.876	79.68
1.888	79.43
1.9	78.89
1.912	78.6
1.924	78.41
1.936	78.6
1.948	78.68
1.96	78.8
1.972	78.94
1.984	79.25
1.996	79.46
2.008	79.69
2.02	79.73
2.032	79.91
2.044	79.89
2.056	79.95
2.068	79.87
2.08	80.09
2.092	79.89
2.104	79.97
2.116	80.1
2.128	80.03
2.14	79.83
2.152	79.47
2.164	78.83
2.176	77.83
2.188	76.68
2.2	76.63
2.212	77.4
2.224	78.22
2.236	78.55
2.248	78.7
2.26	78.82
2.272	78.78
2.284	78.83
2.296	78.48
2.308	78.04
2.32	77.8
2.332	77.5
2.344	77.37
2.356	77.67
2.368	77.62
2.38	77.77
2.392	77.51
2.404	77.15
2.416	76.84
2.428	76.35
2.44	76.31
2.452	76.04
2.464	76.11
2.476	76.11
2.488	76.39
2.5	76.78
