Name: Nepheline (Na,K)AlSiO_4
Type: Mineral
Class: Silicate
Subclass: Tectosilicate
Particle Size: Medium
Sample No.: TS-16A
Owner: JPL
Wavelength Range: VSWIR
Origin: Canada, Ontario, Hastings County, Bancroft
Description: Particle size as 45-125um.Collected by Ward's Original ASTER Spectral Library name was jpl.beckman.mineral.silicate.tectosilicate.medium.ts16a.spectrum.txt
Measurement: Hemispherical reflectance
X Units: Wavelength (micrometers)
Y Units: Reflectance (percent)
wavelength	value
0.4	70.63
0.403	70.99
0.406	71.2
0.409	71.39
0.412	71.67
0.415	71.98
0.418	71.98
0.421	72.31
0.424	72.5
0.427	72.51
0.43	72.98
0.433	73.14
0.436	73.23
0.439	73.48
0.442	73.61
0.445	73.54
0.448	73.82
0.451	74.01
0.454	74.15
0.457	74.43
0.46	74.51
0.463	74.56
0.466	74.75
0.469	74.88
0.472	75.06
0.475	75.18
0.478	75.28
0.481	75.43
0.484	75.54
0.487	75.72
0.49	75.74
0.493	75.94
0.496	75.9
0.499	75.98
0.502	75.94
0.505	76.16
0.508	76.31
0.511	76.33
0.514	76.39
0.517	76.37
0.52	76.6
0.523	76.73
0.526	76.78
0.529	76.88
0.532	76.91
0.535	76.91
0.538	76.99
0.541	77.03
0.544	77.04
0.547	77.11
0.55	77.06
0.553	76.97
0.556	77.03
0.559	77
0.562	77.52
0.565	77.58
0.568	77.4
0.571	77.36
0.574	77.4
0.577	77.48
0.58	77.51
0.583	77.45
0.586	77.7
0.589	77.73
0.592	77.7
0.595	77.78
0.598	77.7
0.601	77.93
0.604	78.04
0.607	78.01
0.61	77.87
0.613	77.67
0.616	77.9
0.619	77.73
0.622	77.79
0.625	77.96
0.628	77.86
0.631	77.77
0.634	77.77
0.637	77.86
0.64	77.73
0.643	77.7
0.646	77.71
0.649	77.83
0.652	77.7
0.655	77.75
0.658	77.93
0.661	77.82
0.664	77.86
0.667	77.93
0.67	78
0.673	78
0.676	77.88
0.679	77.97
0.682	77.99
0.685	78.05
0.688	78.03
0.691	78.06
0.694	77.87
0.697	77.83
0.7	77.92
0.703	78.09
0.706	77.95
0.709	78.01
0.712	78.19
0.715	78.13
0.718	78.22
0.721	78.24
0.724	78.34
0.727	78.05
0.73	78.37
0.733	78.29
0.736	78.32
0.739	78.32
0.742	78.41
0.745	78.5
0.748	78.27
0.751	78.48
0.754	78.44
0.757	78.47
0.76	78.43
0.763	78.57
0.766	78.68
0.769	78.51
0.772	78.69
0.775	78.72
0.778	78.67
0.781	78.76
0.784	78.69
0.787	78.61
0.79	78.55
0.793	78.73
0.796	78.63
0.799	78.64
0.808	78.83
0.82	78.8
0.832	78.85
0.844	78.92
0.856	78.94
0.868	78.93
0.88	78.93
0.892	78.82
0.904	78.98
0.916	78.92
0.928	78.99
0.94	79.16
0.952	79.16
0.964	79.34
0.976	79.23
0.988	79.28
1	79.36
1.012	79.49
1.024	79.48
1.036	79.56
1.048	79.63
1.06	79.53
1.072	79.62
1.084	79.62
1.096	79.69
1.108	79.67
1.12	79.81
1.132	79.87
1.144	79.67
1.156	79.68
1.168	79.64
1.18	79.96
1.192	80.05
1.204	80.04
1.216	80.25
1.228	80.29
1.24	80.49
1.252	80.61
1.264	80.69
1.276	80.77
1.288	80.88
1.3	80.87
1.312	81
1.324	80.86
1.336	80.66
1.348	80.7
1.36	80.74
1.372	80.57
1.384	80.21
1.396	79.19
1.408	77.43
1.42	75.34
1.432	76.2
1.444	77.32
1.456	77.8
1.468	78.12
1.48	78.76
1.492	79.5
1.504	80.05
1.516	80.42
1.528	80.65
1.54	80.9
1.552	81.06
1.564	81.13
1.576	81.25
1.588	81.28
1.6	81.41
1.612	81.3
1.624	81.39
1.636	81.52
1.648	81.59
1.66	81.68
1.672	81.81
1.684	81.75
1.696	81.75
1.708	81.83
1.72	81.74
1.732	81.52
1.744	81.23
1.756	81.02
1.768	80.83
1.78	80.96
1.792	80.94
1.804	81.11
1.816	81.17
1.828	81.21
1.84	81.16
1.852	80.85
1.864	80.11
1.876	77.99
1.888	74.03
1.9	67.37
1.912	62.17
1.924	61.13
1.936	61.7
1.948	64.38
1.96	67.62
1.972	69.64
1.984	70.97
1.996	71.9
2.008	72.59
2.02	73.71
2.032	74.66
2.044	75.38
2.056	75.87
2.068	76.14
2.08	76.51
2.092	76.99
2.104	77.55
2.116	77.82
2.128	78.05
2.14	78.02
2.152	77.95
2.164	77.82
2.176	77.53
2.188	77.3
2.2	77.28
2.212	77.25
2.224	77.77
2.236	78.18
2.248	78.39
2.26	78.55
2.272	78.52
2.284	78.59
2.296	78.29
2.308	77.85
2.32	77.51
2.332	76.89
2.344	76
2.356	75.04
2.368	73.93
2.38	72.73
2.392	71.42
2.404	69.77
2.416	67.76
2.428	66.08
2.44	64.58
2.452	63.69
2.464	63.13
2.476	62.74
2.488	62.71
2.5	62.65
