Name: Andalusite Al2SiO5
Type: Mineral
Class: Silicate
Subclass: Nesosilicate
Particle Size: Fine
Sample No.: andalusite_1
Owner: JHU
Wavelength Range: TIR
Origin: Sample from St. Theresa, Espirito Santo, Brazil via Smithsonian(sample no. NMNH R17898).
Description: Sample was composed of two crystals, one clear and one pale pink. Both appeared pure, both 1 cm x 1 cm x 5 cm. Examination under a petrographic microscope indicated pure and clean samples. Sample grains chosen for microprobe analysis were clear, but with poor polish in part. Particle size was less than 2 Micrometers.(Isolated tetrahedra) (Al2SiO5 Group) Original ASTER Spectral Library name was jhu.nicolet.mineral.silicate.nesosilicate.powder.andalu1.spectrum.txt
Measurement: Transmission
X Units: Wavelength (micrometers)
Y Units: Transmittance (percent)
wavelength	value
25.0442	79.6951
24.3388	76.6326
23.6719	66.4451
23.0407	49.0253
22.4422	34.9843
21.8741	27.7831
21.334	49.3846
20.8199	44.2421
20.33	46.7264
19.8627	64.3241
19.4163	59.0985
18.9896	46.3954
18.5812	61.3602
18.19	68.0018
17.815	62.9373
17.4551	59.5682
17.1094	47.6024
16.7772	35.5038
16.4576	29.5605
16.15	30.8632
15.8537	38.9022
15.568	46.5223
15.2925	47.6913
15.0265	46.3866
14.7697	39.0214
14.5214	34.788
14.2814	37.122
14.0492	47.0145
13.8244	55.6112
13.6067	51.9217
13.3957	58.867
13.1912	71.4627
12.9929	70.3167
12.8004	69.0369
12.6135	77.2815
12.432	79.6546
12.2557	79.7796
12.0843	78.6351
11.9176	75.4983
11.7555	69.6815
11.5977	58.8304
11.444	45.2186
11.2944	33.6776
11.1487	30.2153
11.0067	37.7499
10.8682	37.9398
10.7332	22.2617
10.6015	19.5166
10.473	20.934
10.3476	25.1738
10.2251	22.8754
10.1056	25.0507
9.9887	25.2387
9.8746	27.12
9.763	32.661
9.6539	40.6337
9.5472	48.7645
9.4429	54.8915
9.3408	58.3128
9.2409	60.221
9.1431	61.1424
9.0474	62.7557
8.9536	64.3304
8.8618	65.848
8.7718	67.8807
8.6837	70.7469
8.5973	73.6033
8.5126	76.3431
8.4295	79.3489
8.3481	82.241
8.2682	84.6797
8.1898	86.7146
8.1129	88.2188
8.0374	89.2979
7.9634	90.0545
7.8906	90.656
7.8192	91.1038
7.7491	91.5068
7.6802	91.9246
7.6126	92.2354
7.5461	92.5735
7.4807	92.8203
7.4165	93.1013
7.3534	93.4131
7.2914	93.6218
7.2303	93.7009
7.1703	93.7205
7.1113	93.8142
7.0533	94.2068
6.9962	94.3474
6.94	94.2041
6.8847	94.2429
6.8302	94.498
6.7767	94.8132
6.7239	95.0283
6.672	95.0896
6.6209	95.0632
6.5705	95.1121
6.5209	95.1052
6.4721	95.031
6.424	94.9568
6.3766	94.8213
6.3299	94.4297
6.2838	94.0508
6.2385	93.1953
6.1937	92.2139
6.1496	92.0115
6.1062	92.085
6.0633	92.7224
6.0211	93.7849
5.9794	94.25
5.9383	95.1934
5.8978	95.781
5.8578	96.0459
5.8184	96.2891
5.7794	96.3398
5.741	96.5813
5.7031	96.8289
5.6657	96.905
5.6288	97.0107
5.5924	96.9199
5.5564	96.9558
5.5209	96.8789
5.4859	96.8992
5.4513	97.0244
5.4171	96.9763
5.3833	96.9304
5.35	97.0466
5.3171	97.2322
5.2846	97.2253
5.2524	97.2644
5.2207	97.3242
5.1893	97.4873
5.1584	97.5535
5.1277	97.5349
5.0975	97.4824
5.0676	97.5691
5.038	97.5393
5.0088	97.6096
4.98	97.5461
4.9514	97.4905
4.9232	97.5466
4.8953	97.6697
4.8678	97.7761
4.8405	97.8303
4.8135	97.8865
4.7868	97.908
4.7605	97.9255
4.7344	97.9539
4.7086	97.9788
4.6831	98.0378
4.6578	98.0403
4.6328	98.0618
4.6081	98.0842
4.5837	98.133
4.5595	98.1897
4.5356	98.1243
4.5119	98.1609
4.4884	98.2039
4.4652	98.1448
4.4423	98.1394
4.4196	98.2122
4.3971	98.2747
4.3748	98.2839
4.3528	98.2683
4.331	98.3015
4.3094	98.2839
4.288	98.3083
4.2668	98.2751
4.2458	98.3127
4.2251	98.3464
4.2045	98.3196
4.1841	98.3415
4.164	98.3166
4.144	98.3039
4.1242	98.3396
4.1046	98.3757
4.0852	98.3503
4.066	98.3044
4.047	98.3777
4.0281	98.3796
4.0094	98.385
3.9909	98.3445
3.9725	98.406
3.9544	98.467
3.9363	98.4636
3.9185	98.5808
3.9008	98.5867
3.8833	98.4455
3.8659	98.4885
3.8487	98.5261
3.8316	98.5139
3.8147	98.5212
3.7979	98.5779
3.7813	98.5569
3.7648	98.5061
3.7485	98.4714
3.7323	98.4475
3.7162	98.4148
3.7003	98.365
3.6845	98.3791
3.6689	98.3088
3.6534	98.3142
3.638	98.2424
3.6227	98.1765
3.6076	98.1174
3.5926	98.0666
3.5777	98.0173
3.563	97.9773
3.5484	97.9377
3.5338	97.844
3.5195	97.6296
3.5052	97.2624
3.491	97.4241
3.477	97.3357
3.463	97.1628
3.4492	97.072
3.4355	96.7717
3.4219	96.4104
3.4084	96.4612
3.395	96.6189
3.3817	96.3635
3.3685	96.5041
3.3554	96.5002
3.3425	96.5315
3.3296	96.4749
3.3168	96.365
3.3041	96.3044
3.2915	96.2498
3.279	96.1545
3.2666	95.9734
3.2543	95.8611
3.2421	95.6853
3.23	95.5417
3.218	95.2781
3.206	95.0945
3.1942	94.9314
3.1824	94.7771
3.1707	94.5857
3.1591	94.3757
3.1476	94.0437
3.1362	93.7761
3.1249	93.6765
3.1136	93.3572
3.1024	93.0427
3.0913	92.8562
3.0803	92.6795
3.0694	92.5046
3.0585	92.2127
3.0477	92.0789
3.037	91.782
3.0264	91.3836
3.0158	90.738
3.0053	90.2459
2.9949	89.5877
2.9845	88.8357
2.9743	87.8806
2.9641	86.8709
2.9539	85.9021
2.9439	85.4002
2.9339	84.7742
2.9239	84.4851
2.9141	84.3357
2.9043	84.5672
2.8946	84.9461
2.8849	85.5291
2.8753	86.2615
2.8658	87.0701
2.8563	87.7732
2.8469	88.4812
2.8375	88.9939
2.8282	89.6052
2.819	90.2039
2.8098	90.9304
2.8007	91.825
2.7917	92.7586
2.7827	93.9334
2.7738	94.906
2.7649	95.7927
2.7561	96.7156
2.7473	97.6326
2.7386	98.3591
2.7299	98.9421
2.7213	99.5046
2.7128	99.6101
2.7043	99.8826
2.6959	100.314
2.6875	100.413
2.6791	100.511
2.6709	100.711
2.6626	100.645
2.6545	100.558
2.6463	100.714
2.6382	100.72
2.6302	100.652
2.6222	100.841
2.6143	100.988
2.6064	100.882
2.5986	100.851
2.5908	101.06
2.583	101.06
2.5753	100.851
2.5677	100.837
2.5601	101.025
2.5525	101.036
2.545	100.892
2.5375	101.351
2.5301	101.083
2.5227	101.048
2.5154	101.105
2.5081	101.171
2.5008	101.157
2.4936	101.32
2.4864	101.384
2.4793	101.538
2.4722	101.47
2.4651	101.374
2.4581	101.439
2.4511	101.572
2.4442	101.392
2.4373	101.751
2.4305	101.478
2.4236	101.554
2.4169	101.736
2.4101	101.814
2.4034	101.503
2.3967	101.777
2.3901	101.773
2.3835	101.986
2.377	102.087
2.3704	101.988
2.364	102.14
2.3575	101.939
2.3511	101.991
2.3447	102.181
2.3384	102.093
2.3321	102.363
2.3258	102.093
2.3195	102.407
2.3133	102.517
2.3071	102.468
2.301	102.486
2.2949	102.337
2.2888	102.845
2.2828	102.65
2.2767	102.478
2.2708	102.585
2.2648	102.616
2.2589	102.878
2.253	103.007
2.2471	103.097
2.2413	103.007
2.2355	103.038
2.2297	103.202
2.224	102.976
2.2183	103.202
2.2126	102.96
2.207	103.038
2.2013	103.491
2.1957	103.46
2.1902	103.519
2.1846	103.351
2.1791	103.374
2.1736	103.695
2.1682	103.644
2.1628	103.89
2.1574	103.523
2.152	104.05
2.1466	104.074
2.1413	103.687
2.136	104.187
2.1308	103.945
2.1255	104.031
2.1203	104.406
2.1151	104.327
2.11	103.988
2.1048	104.144
2.0997	104.39
2.0946	104.722
2.0895	104.71
2.0845	104.878
2.0795	104.347
