Name: Fluorite CaF_2
Type: Mineral
Class: Halide
Subclass: None
Particle Size: Fine
Sample No.: H-2A
Owner: JPL
Wavelength Range: TIR
Origin: USA, Illinois, Hardin County, Rosiclare
Description: Purple fluorite.Particle size was 0-45um.Collected by Ward's Original ASTER Spectral Library name was jpl.nicolet.mineral.halide.none.fine.h02a.spectrum.txt
Measurement: Hemispherical reflectance
X Units: Wavelength (micrometers)
Y Units: Reflectance (percent)
wavelength	value
15.3853	0.4772
15.1161	0.7054
14.8563	1.4212
14.6052	1.7168
14.3624	2.5847
14.1276	3.754
13.9004	4.3021
13.6803	5.0903
13.4671	6.7369
13.2604	8.9832
13.06	11.0335
12.8656	13.299
12.6769	16.1579
12.4936	19.7265
12.3155	23.8773
12.1425	27.7657
11.9742	30.9982
11.8106	33.6914
11.6513	34.0915
11.4963	36.5303
11.3454	39.2995
11.1983	44.2167
11.0551	46.3763
10.9154	48.046
10.7793	49.5384
10.6465	50.6958
10.5169	52.7431
10.3904	54.5921
10.267	56.065
10.1464	57.4648
10.0287	58.4369
9.9136	59.0365
9.8012	59.6285
9.6913	60.5794
9.5838	61.2797
9.4787	61.9202
9.3758	63.2717
9.2752	63.6292
9.1767	63.2607
9.0803	65.5438
8.9858	67.3059
8.8934	68.7523
8.8028	70.1531
8.714	70.9927
8.627	71.7771
8.5417	73.0884
8.4581	74.456
8.3761	75.7154
8.2957	76.6912
8.2169	77.6447
8.1395	78.0964
8.0635	78.5429
7.989	78.8528
7.9158	78.9667
7.8439	79.0289
7.7734	78.5165
7.7041	77.4235
7.636	76.3217
7.5691	75.3739
7.5034	75.4934
7.4388	74.1918
7.3753	72.0451
7.3129	69.0923
7.2515	65.1314
7.1912	61.9418
7.1318	58.1153
7.0734	56.7034
7.016	58.2701
6.9595	61.7626
6.9039	60.6713
6.8492	59.635
6.7953	58.2475
6.7423	55.5585
6.6901	55.9546
6.6387	58.8678
6.5881	57.8968
6.5382	60.7208
6.4892	68.8202
6.4408	66.8801
6.3931	68.44
6.3462	71.3541
6.2999	68.1318
6.2543	68.4748
6.2094	71.0833
6.1651	74.0615
6.1214	75.6457
6.0784	77.9826
6.0359	78.2162
5.994	80.4683
5.9527	80.5069
5.912	81.306
5.8718	83.8098
5.8322	85.7512
5.7931	85.7942
5.7545	87.4407
5.7165	88.8447
5.6789	88.3515
5.6418	88.9144
5.6052	87.6799
5.5691	85.9975
5.5334	88.4573
5.4982	89.393
5.4635	90.8261
5.4291	90.4815
5.3952	89.825
5.3618	89.8159
5.3287	89.6377
5.2961	90.0962
5.2638	89.9783
5.2319	90.3428
5.2004	90.7083
5.1693	90.5092
5.1386	90.615
5.1082	90.4881
5.0782	90.6307
5.0485	90.5612
5.0192	90.6963
4.9902	90.5285
4.9616	90.6952
4.9332	90.7156
4.9052	90.8043
4.8776	90.7745
4.8502	90.8761
4.8231	90.8658
4.7963	90.9265
4.7699	90.9137
4.7437	90.8153
4.7178	90.8195
4.6922	90.6993
4.6668	90.73
4.6418	90.7836
4.617	90.896
4.5924	90.9723
4.5681	91.0619
4.5441	91.0678
4.5203	91.115
4.4968	91.1902
4.4735	91.1928
4.4505	91.3513
4.4277	91.3525
4.4051	91.4319
4.3828	91.3923
4.3607	91.4935
4.3388	91.588
4.3171	91.7829
4.2956	91.9665
4.2744	92.0198
4.2534	91.7477
4.2325	92.2334
4.2119	91.878
4.1915	91.6939
4.1712	91.6494
4.1512	91.6418
4.1313	91.6241
4.1117	91.4747
4.0922	91.3592
4.0729	91.0963
4.0538	90.6404
4.0349	90.0153
4.0161	89.3191
3.9976	88.5331
3.9792	88.1741
3.9609	88.4767
3.9428	89.4839
3.9249	89.7425
3.9072	89.7546
3.8896	89.7825
3.8722	89.6807
3.8549	89.6961
3.8378	89.8062
3.8208	90.0532
3.804	90.3657
3.7873	90.544
3.7708	90.3602
3.7544	90.3844
3.7382	90.2685
3.7221	90.1207
3.7061	89.9036
3.6903	89.8908
3.6746	89.5555
3.659	89.5023
3.6436	89.359
3.6283	89.1782
3.6131	88.9625
3.5981	88.836
3.5832	88.4968
3.5684	88.2836
3.5537	87.8368
3.5391	87.1326
3.5247	86.4177
3.5104	84.9105
3.4962	84.282
3.4821	84.5421
3.4681	84.5603
3.4543	84.5827
3.4405	83.9052
3.4269	82.5451
3.4133	81.8271
3.3999	82.623
3.3866	83.1495
3.3733	82.8983
3.3602	83.3632
3.3472	83.6669
3.3343	84.2664
3.3215	84.3868
3.3088	84.1829
3.2961	84.1063
3.2836	83.7241
3.2712	83.6403
3.2588	83.3097
3.2466	82.9991
3.2345	82.7669
3.2224	82.5232
3.2104	82.2017
3.1985	81.9813
3.1867	81.6509
3.175	81.3108
3.1634	80.9067
3.1519	80.5163
3.1404	80.3799
3.129	80.1085
3.1178	79.7953
3.1065	79.4697
3.0954	79.3072
3.0844	79.0408
3.0734	78.9495
3.0625	78.6957
3.0517	78.5552
3.041	78.3307
3.0303	78.1492
3.0197	77.9681
3.0092	77.8032
2.9987	77.6043
2.9884	77.4617
2.9781	77.3585
2.9678	77.1261
2.9577	77.2837
2.9476	77.2926
2.9376	77.2355
2.9276	77.2476
2.9177	77.2846
2.9079	77.5398
2.8982	77.7241
2.8885	78.0958
2.8789	78.2568
2.8693	78.5814
2.8598	79.0313
2.8504	79.4827
2.841	79.8138
2.8317	80.4121
2.8224	80.9818
2.8133	81.4263
2.8041	82.845
2.7951	82.3912
2.786	83.7414
2.7771	83.5708
2.7682	85.0119
2.7594	84.6393
2.7506	85.5223
2.7418	88.3257
2.7332	87.7682
2.7246	90.905
2.716	89.4247
2.7075	90.4736
2.699	91.1452
2.6906	92.3847
2.6823	93.3985
2.674	93.8945
2.6657	97.2608
2.6575	93.7119
2.6494	93.6766
2.6413	94.022
2.6332	94.65
2.6252	94.6969
2.6173	96.4884
2.6094	95.2588
2.6015	95.0769
2.5937	97.5346
2.5859	95.2591
2.5782	94.7903
2.5706	95.1408
2.5629	96.0151
2.5554	94.3719
2.5478	94.621
2.5403	94.4075
2.5329	94.5544
2.5255	94.3405
2.5181	94.2982
2.5108	94.3717
2.5035	94.3609
2.4963	94.2339
2.4891	94.401
2.482	94.4736
2.4749	94.4014
2.4678	94.302
2.4608	94.4361
2.4538	94.5671
2.4468	94.5326
2.4399	94.5509
2.4331	94.5432
2.4262	94.6544
2.4194	94.8738
2.4127	94.7633
2.4059	94.7489
2.3993	94.7484
2.3926	94.7397
2.386	94.86
2.3795	94.915
2.3729	94.9121
2.3664	94.9373
2.36	94.8606
2.3535	94.9086
2.3471	94.8805
2.3408	95.0927
2.3345	95.0406
2.3282	95.0001
2.3219	95.2332
2.3157	95.3007
2.3095	95.0216
2.3034	94.9998
2.2972	95.0406
2.2911	95.0956
2.2851	95.1634
2.279	95.1982
2.2731	95.2556
2.2671	95.2119
2.2612	95.181
2.2553	95.2808
2.2494	95.1362
2.2435	95.4765
2.2377	95.1975
2.232	95.3803
2.2262	95.2956
2.2205	95.3392
2.2148	95.4303
2.2091	95.0778
2.2035	95.4097
2.1979	95.1669
2.1923	95.4427
2.1868	95.4437
2.1812	95.2136
2.1758	95.428
2.1703	95.2909
2.1649	95.3563
2.1595	95.3228
2.1541	95.2618
2.1487	95.3524
2.1434	95.3207
2.1381	95.1323
2.1328	95.2651
2.1275	95.3125
2.1223	95.3679
2.1171	95.3737
2.112	95.3065
2.1068	95.4156
2.1017	95.48
2.0966	95.3841
2.0915	95.498
2.0865	95.5564
2.0814	95.2487
2.0764	95.161
2.0715	95.4242
2.0665	95.4573
2.0616	95.4379
2.0567	95.1859
2.0518	95.619
2.0469	95.2826
2.0421	95.4476
2.0373	95.3125
2.0325	95.3174
2.0277	95.3279
2.0229	95.2393
2.0182	95.1207
2.0135	95.3667
2.0088	95.2291
2.0042	95.5156
