Name: Graphite C
Type: Mineral
Class: Element
Subclass: None
Particle Size: Coarse
Sample No.: E-1A
Owner: JPL
Wavelength Range: VSWIR
Origin: Mexico, Sonora, Morelos, San Jose Mine.
Description: Particle size was 125-500um.Collected by:  Burminco Original ASTER Spectral Library name was jpl.perkin.mineral.element.none.coarse.e01a.spectrum.txt
Measurement: Hemispherical reflectance
X Units: Wavelength (micrometers)
Y Units: Reflectance (percent)
wavelength	value
2.5	6.2844
2.494	6.4402
2.488	6.528
2.482	6.4391
2.476	6.4374
2.47	6.4943
2.464	6.5221
2.458	6.5021
2.452	6.3092
2.446	6.3452
2.44	6.3814
2.434	6.4168
2.428	6.3106
2.422	6.4279
2.416	6.3814
2.41	6.4109
2.404	6.351
2.398	6.3668
2.392	6.3712
2.386	6.3396
2.38	6.3862
2.374	6.4161
2.368	6.3654
2.362	6.3706
2.356	6.34
2.35	6.3218
2.344	6.2835
2.338	6.2643
2.332	6.284
2.326	6.3521
2.32	6.2577
2.314	6.3123
2.308	6.2581
2.302	6.2477
2.296	6.2798
2.29	6.2364
2.284	6.2548
2.278	6.2037
2.272	6.234
2.266	6.2345
2.26	6.1776
2.254	6.1233
2.248	6.1428
2.242	6.1968
2.236	6.0594
2.23	6.1385
2.224	6.0767
2.218	6.1041
2.212	6.2053
2.206	6.0376
2.2	6.2222
2.194	6.1304
2.188	6.1285
2.182	6.0715
2.176	6.0939
2.17	6.0962
2.164	6.0996
2.158	6.1981
2.152	6.1499
2.146	6.1116
2.14	6.1061
2.134	6.1508
2.128	6.1162
2.122	5.9983
2.116	6.041
2.11	6.0782
2.104	6.0726
2.098	6.0136
2.092	6.0177
2.086	6.0265
2.08	6.0336
2.074	6.0373
2.068	6.0527
2.062	5.9695
2.056	6.0642
2.05	6.009
2.044	6.0096
2.038	6.0131
2.032	5.9676
2.026	6.0043
2.02	6.0627
2.014	6.0486
2.008	6.0293
2.002	5.9874
1.996	5.9784
1.99	6.011
1.984	6.0283
1.978	5.9624
1.972	5.9719
1.966	6.0121
1.96	5.9639
1.954	5.8679
1.948	5.9294
1.942	5.9515
1.936	5.9371
1.93	6.0248
1.924	5.955
1.918	5.9591
1.912	5.9426
1.906	5.9467
1.9	5.8961
1.894	5.9444
1.888	5.9412
1.882	5.8868
1.876	5.9909
1.87	5.854
1.864	5.8983
1.858	5.828
1.852	5.9178
1.846	5.8113
1.84	5.8544
1.834	5.876
1.828	5.842
1.822	5.8567
1.816	5.7904
1.81	5.7928
1.804	5.8785
1.798	5.8106
1.792	5.7751
1.786	5.8319
1.78	5.7634
1.774	5.7867
1.768	5.7733
1.762	5.7533
1.756	5.7226
1.75	5.7206
1.744	5.7121
1.738	5.7142
1.732	5.6944
1.726	5.7188
1.72	5.6849
1.714	5.6773
1.708	5.6228
1.702	5.6608
1.696	5.5646
1.69	5.6354
1.684	5.6126
1.678	5.6018
1.672	5.5996
1.666	5.606
1.66	5.5867
1.654	5.5676
1.648	5.5105
1.642	5.613
1.636	5.5484
1.63	5.5476
1.624	5.5378
1.618	5.5988
1.612	5.5498
1.606	5.4804
1.6	5.5028
1.594	5.531
1.588	5.4392
1.582	5.5114
1.576	5.4971
1.57	5.4975
1.564	5.5191
1.558	5.461
1.552	5.4833
1.546	5.5925
1.54	5.5012
1.534	5.4302
1.528	5.4412
1.522	5.423
1.516	5.4658
1.51	5.477
1.504	5.3913
1.498	5.4128
1.492	5.4852
1.486	5.3672
1.48	5.4098
1.474	5.4094
1.468	5.4129
1.462	5.3257
1.456	5.435
1.45	5.4047
1.444	5.3855
1.438	5.3979
1.432	5.3998
1.426	5.4005
1.42	5.3962
1.414	5.2865
1.408	5.3555
1.402	5.3889
1.396	5.331
1.39	5.4513
1.384	5.3703
1.378	5.3279
1.372	5.2798
1.366	5.3576
1.36	5.3984
1.354	5.2775
1.348	5.1774
1.342	5.2888
1.336	5.2475
1.33	5.271
1.324	5.2221
1.318	5.3024
1.312	5.1592
1.306	5.2346
1.3	5.1882
1.294	5.1995
1.288	5.1249
1.282	5.23
1.276	5.1344
1.27	5.1346
1.264	5.1465
1.258	5.1485
1.252	5.1155
1.246	5.1004
1.24	5.0904
1.234	5.0303
1.228	5.0828
1.222	5.1117
1.216	5.0755
1.21	5.014
1.204	4.9861
1.198	4.9917
1.192	4.9799
1.186	5.0072
1.18	4.9282
1.174	4.9772
1.168	4.9706
1.162	4.9628
1.156	4.8906
1.15	4.9069
1.144	4.8469
1.138	4.8783
1.132	4.8905
1.126	4.9196
1.12	4.8765
1.114	4.7615
1.108	4.818
1.102	4.7454
1.096	4.7858
1.09	4.7736
1.084	4.6878
1.078	4.8023
1.072	4.7425
1.066	4.7882
1.06	4.684
1.054	4.6642
1.048	4.6607
1.042	4.6734
1.036	4.7137
1.03	4.7023
1.024	4.6774
1.018	4.6584
1.012	4.6839
1.006	4.6745
1	4.6274
0.994	4.6461
0.988	4.6776
0.982	4.643
0.976	4.615
0.97	4.6847
0.964	4.6684
0.958	4.6389
0.952	4.6817
0.946	4.5979
0.94	4.5931
0.934	4.583
0.928	4.5976
0.922	4.5824
0.916	4.5428
0.91	4.5344
0.904	4.517
0.898	4.5339
0.892	4.4948
0.886	4.4975
0.88	4.5224
0.874	4.4414
0.868	4.5056
0.862	4.4957
0.856	4.7338
0.85	4.7251
0.844	4.7196
0.838	4.7002
0.832	4.6865
0.826	4.6743
0.82	4.6646
0.814	4.6493
0.808	4.6426
0.802	4.6332
0.796	4.6186
0.79	4.6106
0.784	4.5992
0.778	4.5859
0.772	4.5766
0.766	4.5652
0.76	4.5598
0.754	4.5515
0.748	4.5406
0.742	4.5319
0.736	4.5279
0.73	4.5195
0.724	4.5125
0.718	4.5058
0.712	4.4915
0.706	4.4847
0.7	4.4769
0.694	4.4735
0.688	4.47
0.682	4.4671
0.676	4.4639
0.67	4.4615
0.664	4.4563
0.658	4.4555
0.652	4.4531
0.646	4.4529
0.64	4.4525
0.634	4.4525
0.628	4.4495
0.622	4.4519
0.616	4.4518
0.61	4.4539
0.604	4.4564
0.598	4.4587
0.592	4.4655
0.586	4.4669
0.58	4.4725
0.574	4.4783
0.568	4.4824
0.562	4.4861
0.556	4.4984
0.55	4.5042
0.544	4.5136
0.538	4.5224
0.532	4.5323
0.526	4.5456
0.52	4.5564
0.514	4.569
0.508	4.5896
0.502	4.6082
0.496	4.6333
0.49	4.6587
0.484	4.6857
0.478	4.6977
0.472	4.7199
0.466	4.7458
0.46	4.7769
0.454	4.8104
0.448	4.8433
0.442	4.8884
0.436	4.9272
0.43	4.9734
0.424	5.0227
0.418	5.0815
0.412	5.1387
0.406	5.2095
0.4	5.2875
