Name: Realgar AsS
Type: Mineral
Class: Sulfide
Subclass: None
Particle Size: Coarse
Sample No.: S-3A
Owner: JPL
Wavelength Range: VSWIR
Description: Particle size was 125-500um.Collected by JPL Original ASTER Spectral Library name was jpl.beckman.mineral.sulfide.none.coarse.s03a.spectrum.txt
Measurement: Hemispherical reflectance
X Units: Wavelength (micrometers)
Y Units: Reflectance (percent)
wavelength	value
0.4	6.73
0.403	6.72
0.406	6.78
0.409	6.71
0.412	6.71
0.415	6.71
0.418	6.69
0.421	6.71
0.424	6.75
0.427	6.75
0.43	6.69
0.433	6.64
0.436	6.59
0.439	6.68
0.442	6.68
0.445	6.69
0.448	6.63
0.451	6.56
0.454	6.53
0.457	6.52
0.46	6.54
0.463	6.45
0.466	6.55
0.469	6.54
0.472	6.6
0.475	6.56
0.478	6.67
0.481	6.49
0.484	6.46
0.487	6.57
0.49	6.64
0.493	6.65
0.496	6.68
0.499	6.6
0.502	6.59
0.505	6.7
0.508	6.72
0.511	6.78
0.514	6.86
0.517	6.95
0.52	6.82
0.523	7.03
0.526	7.11
0.529	7.29
0.532	7.47
0.535	7.67
0.538	7.67
0.541	7.92
0.544	8.18
0.547	8.56
0.55	8.92
0.553	9.37
0.556	9.62
0.559	10.04
0.562	11.01
0.565	11.91
0.568	12.95
0.571	14.17
0.574	15.58
0.577	17.35
0.58	19.16
0.583	21.37
0.586	23.87
0.589	26.39
0.592	29.12
0.595	31.84
0.598	34.49
0.601	37.26
0.604	39.82
0.607	42.06
0.61	44.13
0.613	45.95
0.616	47.62
0.619	49
0.622	50.33
0.625	51.36
0.628	52.27
0.631	53.11
0.634	53.68
0.637	54.36
0.64	54.85
0.643	55.36
0.646	55.69
0.649	56.11
0.652	56.37
0.655	56.68
0.658	56.93
0.661	57.25
0.664	57.36
0.667	57.66
0.67	57.8
0.673	57.95
0.676	58.14
0.679	58.37
0.682	58.49
0.685	58.56
0.688	58.7
0.691	58.87
0.694	58.97
0.697	59.11
0.7	59.15
0.703	59.55
0.706	59.59
0.709	59.83
0.712	60.01
0.715	60.1
0.718	60.2
0.721	60.31
0.724	60.54
0.727	60.75
0.73	60.94
0.733	61.11
0.736	61.23
0.739	61.44
0.742	61.73
0.745	61.94
0.748	62.28
0.751	62.53
0.754	62.72
0.757	63.01
0.76	63.3
0.763	63.53
0.766	63.83
0.769	64.06
0.772	64.21
0.775	64.48
0.778	64.7
0.781	64.94
0.784	65.07
0.787	65.27
0.79	65.38
0.793	65.57
0.796	65.67
0.799	65.88
0.808	66.5
0.82	66.77
0.832	67.03
0.844	67.18
0.856	67.53
0.868	67.67
0.88	67.84
0.892	67.99
0.904	68.13
0.916	68.29
0.928	68.35
0.94	68.55
0.952	68.6
0.964	68.74
0.976	68.72
0.988	68.94
1	69
1.012	69.15
1.024	69.22
1.036	69.44
1.048	69.42
1.06	69.58
1.072	69.61
1.084	69.7
1.096	69.95
1.108	70
1.12	70.13
1.132	70.2
1.144	70.3
1.156	70.31
1.168	70.45
1.18	70.55
1.192	70.72
1.204	70.88
1.216	71.01
1.228	71.17
1.24	71.47
1.252	71.6
1.264	71.82
1.276	72
1.288	72.21
1.3	72.46
1.312	72.78
1.324	72.88
1.336	73.25
1.348	73.35
1.36	73.77
1.372	73.86
1.384	73.98
1.396	73.81
1.408	73.71
1.42	73.68
1.432	73.82
1.444	74.13
1.456	74.45
1.468	74.88
1.48	75.46
1.492	76.15
1.504	76.74
1.516	77.21
1.528	77.69
1.54	78.29
1.552	78.56
1.564	79.02
1.576	79.51
1.588	79.91
1.6	80.23
1.612	80.55
1.624	80.9
1.636	81.14
1.648	81.41
1.66	81.73
1.672	82.01
1.684	82.21
1.696	82.35
1.708	82.6
1.72	82.63
1.732	82.78
1.744	82.78
1.756	82.89
1.768	82.81
1.78	83
1.792	83.07
1.804	83.17
1.816	83.23
1.828	83.28
1.84	83.26
1.852	82.99
1.864	82.34
1.876	80.58
1.888	78.06
1.9	75.17
1.912	73.29
1.924	72.45
1.936	72.46
1.948	73.01
1.96	73.91
1.972	74.84
1.984	75.94
1.996	76.88
2.008	77.73
2.02	78.62
2.032	79.22
2.044	79.86
2.056	80.35
2.068	80.85
2.08	81.35
2.092	81.82
2.104	82.21
2.116	82.61
2.128	82.83
2.14	82.95
2.152	82.97
2.164	83
2.176	83.03
2.188	82.9
2.2	82.94
2.212	82.82
2.224	82.78
2.236	82.69
2.248	82.56
2.26	82.5
2.272	82.42
2.284	82.29
2.296	82.02
2.308	81.78
2.32	81.75
2.332	81.54
2.344	81.32
2.356	81.04
2.368	80.52
2.38	80.26
2.392	79.67
2.404	79.31
2.416	78.82
2.428	78.22
2.44	77.66
2.452	77.02
2.464	76.39
2.476	75.88
2.488	75.65
2.5	75.53
