Name: Marcasite FeS_2
Type: Mineral
Class: Sulfide
Subclass: None
Particle Size: Coarse
Sample No.: S-10A
Owner: JPL
Wavelength Range: TIR
Origin: USA, Indiana, Jasper County, Rensselaer, Pleasant Ridge Quarry
Description: Particle size was 125-500um.Collected by Ward's Original ASTER Spectral Library name was jpl.nicolet.mineral.sulfide.none.coarse.s10a.spectrum.txt
Measurement: Hemispherical reflectance
X Units: Wavelength (micrometers)
Y Units: Reflectance (percent)
wavelength	value
15.3853	22.3932
15.1161	21.6056
14.8563	22.4547
14.6052	22.9468
14.3624	22.922
14.1276	22.7171
13.9004	22.2635
13.6803	21.8366
13.4671	21.2251
13.2604	20.1122
13.06	18.7654
12.8656	17.2366
12.6769	16.1294
12.4936	15.9648
12.3155	15.7694
12.1425	16.1179
11.9742	16.4354
11.8106	16.3484
11.6513	16.1754
11.4963	15.4994
11.3454	15.2183
11.1983	16.0019
11.0551	16.9416
10.9154	18.2228
10.7793	19.1223
10.6465	19.5202
10.5169	19.0766
10.3904	18.3063
10.267	17.887
10.1464	17.5584
10.0287	17.3663
9.9136	15.7962
9.8012	15.4306
9.6913	16.0096
9.5838	14.9135
9.4787	13.8648
9.3758	12.3142
9.2752	11.2156
9.1767	11.7272
9.0803	11.8671
8.9858	11.5835
8.8934	11.4525
8.8028	12.1039
8.714	13.1534
8.627	14.4122
8.5417	14.691
8.4581	14.8804
8.3761	15.4766
8.2957	16.3412
8.2169	17.4209
8.1395	18.5956
8.0635	19.7777
7.989	20.3726
7.9158	20.8307
7.8439	21.0826
7.7734	20.9649
7.7041	21.0233
7.636	20.7397
7.5691	20.7314
7.5034	20.5585
7.4388	20.5119
7.3753	20.2595
7.3129	20.1996
7.2515	19.977
7.1912	19.9199
7.1318	19.7061
7.0734	19.52
7.016	19.3137
6.9595	19.6574
6.9039	18.9611
6.8492	18.7416
6.7953	18.437
6.7423	17.5794
6.6901	17.6216
6.6387	18.7127
6.5881	18.2062
6.5382	18.0574
6.4892	19.093
6.4408	18.0906
6.3931	17.659
6.3462	17.9625
6.2999	17.0413
6.2543	16.5937
6.2094	16.299
6.1651	15.9245
6.1214	15.813
6.0784	15.7186
6.0359	15.5989
5.994	16.2039
5.9527	16.4143
5.912	16.8212
5.8718	17.2842
5.8322	17.418
5.7931	17.0995
5.7545	17.3282
5.7165	17.4677
5.6789	17.168
5.6418	17.4038
5.6052	17.1374
5.5691	17.123
5.5334	17.2363
5.4982	17.3446
5.4635	17.5863
5.4291	17.514
5.3952	17.4295
5.3618	17.5873
5.3287	17.5442
5.2961	17.6372
5.2638	17.6049
5.2319	17.5822
5.2004	17.5644
5.1693	17.499
5.1386	17.5998
5.1082	17.5025
5.0782	17.5746
5.0485	17.5162
5.0192	17.4723
4.9902	17.4105
4.9616	17.5465
4.9332	17.4974
4.9052	17.4509
4.8776	17.5317
4.8502	17.5328
4.8231	17.5015
4.7963	17.6042
4.7699	17.5519
4.7437	17.6458
4.7178	17.5919
4.6922	17.5022
4.6668	17.5843
4.6418	17.5643
4.617	17.5411
4.5924	17.6973
4.5681	17.5377
4.5441	17.6107
4.5203	17.5789
4.4968	17.6544
4.4735	17.6281
4.4505	17.7251
4.4277	17.6229
4.4051	17.6933
4.3828	17.7005
4.3607	17.6091
4.3388	17.4722
4.3171	17.5392
4.2956	17.4072
4.2744	17.3218
4.2534	17.4618
4.2325	17.1865
4.2119	17.5776
4.1915	17.6167
4.1712	17.6596
4.1512	17.6712
4.1313	17.5947
4.1117	17.5913
4.0922	17.5206
4.0729	17.5975
4.0538	17.5012
4.0349	17.4474
4.0161	17.4742
3.9976	17.4644
3.9792	17.3508
3.9609	17.4292
3.9428	17.349
3.9249	17.2621
3.9072	17.277
3.8896	17.2482
3.8722	17.0893
3.8549	17.0293
3.8378	17.069
3.8208	16.9155
3.804	16.8567
3.7873	16.8956
3.7708	16.7962
3.7544	16.6778
3.7382	16.5967
3.7221	16.5069
3.7061	16.4641
3.6903	16.3481
3.6746	16.335
3.659	16.1314
3.6436	15.9211
3.6283	15.8692
3.6131	15.6289
3.5981	15.5988
3.5832	15.4078
3.5684	15.4071
3.5537	15.0982
3.5391	15.0071
3.5247	14.8201
3.5104	14.7304
3.4962	14.6654
3.4821	14.5025
3.4681	14.2656
3.4543	14.1977
3.4405	14.0254
3.4269	13.8415
3.4133	13.7976
3.3999	13.6381
3.3866	13.2568
3.3733	13.0707
3.3602	12.8963
3.3472	12.7231
3.3343	12.5599
3.3215	12.2751
3.3088	11.9871
3.2961	11.7672
3.2836	11.4144
3.2712	11.2716
3.2588	10.9046
3.2466	10.5384
3.2345	10.1313
3.2224	9.909
3.2104	9.7063
3.1985	9.2542
3.1867	8.8662
3.175	9.1431
3.1634	8.6981
3.1519	8.6026
3.1404	8.4363
3.129	8.57
3.1178	8.2643
3.1065	8.5904
3.0954	8.4299
3.0844	8.3402
3.0734	8.5963
3.0625	8.5847
3.0517	8.7513
3.041	8.6526
3.0303	9.0185
3.0197	9.0833
3.0092	8.9359
2.9987	9.3828
2.9884	9.2748
2.9781	9.3831
2.9678	9.3997
2.9577	9.6011
2.9476	9.5277
2.9376	9.6765
2.9276	10.002
2.9177	9.9192
2.9079	10.128
2.8982	10.2941
2.8885	10.5887
2.8789	10.8709
2.8693	10.8822
2.8598	11.2567
2.8504	11.6708
2.841	11.8077
2.8317	12.3353
2.8224	12.7123
2.8133	12.9871
2.8041	13.6551
2.7951	13.877
2.786	14.7459
2.7771	15.0172
2.7682	15.7525
2.7594	16.0732
2.7506	16.2052
2.7418	17.1076
2.7332	17.005
2.7246	17.7396
2.716	17.3098
2.7075	17.4185
2.699	17.3506
2.6906	17.4121
2.6823	17.6455
2.674	17.6429
2.6657	18.331
2.6575	17.5309
2.6494	17.3626
2.6413	17.4546
2.6332	17.525
2.6252	17.5897
2.6173	17.9937
2.6094	17.5588
2.6015	17.6314
2.5937	18.2092
2.5859	17.6598
2.5782	17.2645
2.5706	17.3808
2.5629	17.5542
2.5554	17.2538
2.5478	17.2002
2.5403	17.2441
2.5329	17.2376
2.5255	17.171
2.5181	17.0963
2.5108	17.1765
2.5035	17.1112
2.4963	17.0481
2.4891	17.1055
2.482	17.2067
2.4749	16.8904
2.4678	17.0717
2.4608	17.0839
2.4538	17.1215
2.4468	16.8693
2.4399	16.936
2.4331	17.1604
2.4262	16.9445
2.4194	17.0968
2.4127	16.8618
2.4059	16.6985
2.3993	17.0985
2.3926	16.9782
2.386	16.9944
2.3795	16.9764
2.3729	16.8125
2.3664	16.77
2.36	16.9915
2.3535	16.9877
2.3471	16.8146
2.3408	16.9045
2.3345	16.9051
2.3282	16.8086
2.3219	16.6859
2.3157	16.5945
2.3095	16.765
2.3034	16.8488
2.2972	16.8027
2.2911	16.6369
2.2851	16.6741
2.279	16.6052
2.2731	16.8526
2.2671	16.7535
2.2612	16.7541
2.2553	16.7364
2.2494	16.8696
2.2435	16.6236
2.2377	16.4463
2.232	16.4397
2.2262	16.527
2.2205	16.669
2.2148	16.6264
2.2091	16.5897
2.2035	16.4359
2.1979	16.3725
2.1923	16.498
2.1868	16.2338
2.1812	16.3673
2.1758	16.332
2.1703	16.5759
2.1649	16.4824
2.1595	16.3749
2.1541	16.1588
2.1487	16.3996
2.1434	16.4134
2.1381	16.3697
2.1328	16.1182
2.1275	16.2469
2.1223	16.3203
2.1171	16.2713
2.112	16.2764
2.1068	16.4195
2.1017	16.2126
2.0966	15.956
2.0915	16.4426
2.0865	16.0674
2.0814	16.0681
2.0764	15.7499
2.0715	16.2706
2.0665	15.9814
2.0616	16.0288
2.0567	16.1272
2.0518	15.9137
2.0469	15.7536
2.0421	16.1156
2.0373	15.8103
2.0325	16.1602
2.0277	15.8068
2.0229	15.5927
2.0182	15.5621
2.0135	15.8273
2.0088	15.8617
2.0042	16.0166
