Name: Montmorillonite (Na,Ca)0.33(Al,Mg)2Si4O10(OH)2.nH2O
Type: Mineral
Class: Silicate
Subclass: Phyllosilicate
Particle Size: Coarse
Sample No.: montmor_3
Owner: JHU
Wavelength Range: TIR
Origin: Apache Co., Arizona via Roger Clark, USGS #SAZ-1 (CMS),purchased from the Clay Mineral Society Repository
Description: The sample is a light brown, earthy clay. Both bulk sample and <2 micrometers particle-size separate are pure montmorillonite.Particle size was 0-2 micrometers and Packed powder simulates coarse.(Sheet Silicates); (SmectiteGroup) Original ASTER Spectral Library name was jhu.nicolet.mineral.silicate.phyllosilicate.packed.montmo3.spectrum.txt
Measurement: Bidirectional reflectance
X Units: Wavelength (micrometers)
Y Units: Reflectance (percent)
wavelength	value
25.0442	8.1279
24.3388	8.1826
23.6719	8.5571
23.0407	8.7475
22.4422	9.0766
21.8741	9.4656
21.334	10.6023
20.8199	11.0122
20.33	9.2607
19.8627	8.3142
19.4163	9.2705
18.9896	10.247
18.5812	10.237
18.19	9.9892
17.815	9.7644
17.4551	9.0705
17.1094	8.2749
16.7772	7.6164
16.4576	6.8179
16.15	6.3027
15.8537	6.0845
15.568	4.6135
15.2925	3.9294
15.0265	3.7363
14.7697	3.7605
14.5214	3.7786
14.2814	3.8249
14.0492	3.8999
13.8244	3.9697
13.6067	4.0828
13.3957	4.2068
13.1912	4.3684
12.9929	4.4729
12.8004	4.5237
12.6135	4.56
12.432	4.6601
12.2557	4.7995
12.0843	4.8613
11.9176	4.7681
11.7555	4.6894
11.5977	4.8413
11.444	4.9861
11.2944	5.0901
11.1487	5.157
11.0067	5.1428
10.8682	5.0456
10.7332	5.1018
10.6015	5.2087
10.473	5.3218
10.3476	5.4866
10.2251	5.75
10.1056	6.1033
9.9887	6.4709
9.8746	6.8835
9.763	7.4363
9.6539	8.3
9.5472	9.4878
9.4429	10.7422
9.3408	11.3562
9.2409	10.9516
9.1431	9.9848
9.0474	9.3984
8.9536	9.5742
8.8618	10.2729
8.7718	10.6848
8.6837	10.6269
8.5973	10.105
8.5126	9.0049
8.4295	6.9026
8.3481	3.978
8.2682	1.6165
8.1898	0.8328
8.1129	1.0269
8.0374	1.3091
7.9634	1.7248
7.8906	2.0867
7.8192	2.4221
7.7491	2.7273
7.6802	2.9924
7.6126	3.238
7.5461	3.4363
7.4807	3.616
7.4165	3.7663
7.3534	3.8061
7.2914	3.8166
7.2303	4.0793
7.1703	4.3013
7.1113	4.3852
7.0533	4.3796
6.9962	4.4495
6.94	4.5886
6.8847	4.7168
6.8302	4.811
6.7767	4.9018
6.7239	4.9709
6.672	5.019
6.6209	5.0598
6.5705	5.0544
6.5209	5.0295
6.4721	4.9812
6.424	4.8642
6.3766	4.7163
6.3299	4.4673
6.2838	4.0674
6.2385	3.5527
6.1937	3.1064
6.1496	2.7871
6.1062	2.6038
6.0633	2.5876
6.0211	2.6782
5.9794	2.9131
5.9383	3.2161
5.8978	3.2842
5.8578	3.8721
5.8184	4.5168
5.7794	4.8523
5.741	5.1074
5.7031	5.3313
5.6657	5.4739
5.6288	5.5312
5.5924	5.5254
5.5564	5.4614
5.5209	5.3567
5.4859	5.2634
5.4513	5.2654
5.4171	5.3259
5.3833	5.4446
5.35	5.563
5.3171	5.6723
5.2846	5.7297
5.2524	5.7624
5.2207	5.7678
5.1893	5.7785
5.1584	5.8171
5.1277	5.8884
5.0975	5.9812
5.0676	6.093
5.038	6.2082
5.0088	6.3039
4.98	6.3823
4.9514	6.4555
4.9232	6.5141
4.8953	6.5471
4.8678	6.5813
4.8405	6.6033
4.8135	6.6196
4.7868	6.6435
4.7605	6.6523
4.7344	6.6645
4.7086	6.6711
4.6831	6.6904
4.6578	6.6911
4.6328	6.7036
4.6081	6.7173
4.5837	6.7278
4.5595	6.7375
4.5356	6.749
4.5119	6.7622
4.4884	6.7866
4.4652	6.8118
4.4423	6.8442
4.4196	6.8828
4.3971	6.9233
4.3748	6.968
4.3528	7.0156
4.331	7.0649
4.3094	7.1177
4.288	7.1841
4.2668	7.2573
4.2458	7.3269
4.2251	7.3967
4.2045	7.4726
4.1841	7.5405
4.164	7.6142
4.144	7.6894
4.1242	7.75
4.1046	7.8093
4.0852	7.8764
4.066	7.9387
4.047	7.9988
4.0281	8.0498
4.0094	8.0886
3.9909	8.1211
3.9725	8.1474
3.9544	8.1601
3.9363	8.1631
3.9185	8.1684
3.9008	8.1631
3.8833	8.1284
3.8659	8.0913
3.8487	8.0508
3.8316	8.0039
3.8147	7.9543
3.7979	7.9106
3.7813	7.8569
3.7648	7.7812
3.7485	7.7038
3.7323	7.6347
3.7162	7.5254
3.7003	7.4411
3.6845	7.3508
3.6689	7.272
3.6534	7.1816
3.638	7.0757
3.6227	6.9641
3.6076	6.8576
3.5926	6.7339
3.5777	6.6135
3.563	6.4924
3.5484	6.3635
3.5338	6.229
3.5195	6.0972
3.5052	5.9253
3.491	5.8052
3.477	5.6694
3.463	5.5334
3.4492	5.3848
3.4355	5.2204
3.4219	5.0466
3.4084	4.9099
3.395	4.7817
3.3817	4.6318
3.3685	4.5078
3.3554	4.366
3.3425	4.2212
3.3296	4.0747
3.3168	3.9297
3.3041	3.8098
3.2915	3.6936
3.279	3.5688
3.2666	3.4426
3.2543	3.3159
3.2421	3.2063
3.23	3.0974
3.218	2.9941
3.206	2.8899
3.1942	2.7854
3.1824	2.6982
3.1707	2.6003
3.1591	2.5359
3.1476	2.4468
3.1362	2.3811
3.1249	2.3125
3.1136	2.2544
3.1024	2.2085
3.0913	2.1704
3.0803	2.1526
3.0694	2.1289
3.0585	2.1164
3.0477	2.1204
3.037	2.1121
3.0264	2.0769
3.0158	2.0593
3.0053	2.0308
2.9949	2.0044
2.9845	1.9885
2.9743	1.9355
2.9641	1.9316
2.9539	1.908
2.9439	1.8757
2.9339	1.8679
2.9239	1.8633
2.9141	1.8462
2.9043	1.8354
2.8946	1.8467
2.8849	1.8384
2.8753	1.8201
2.8658	1.8083
2.8563	1.7956
2.8469	1.8083
2.8375	1.8174
2.8282	1.8057
2.819	1.7913
2.8098	1.7756
2.8007	1.7554
2.7917	1.7139
2.7827	1.667
2.7738	1.6094
2.7649	1.5537
2.7561	1.5183
2.7473	1.5212
2.7386	1.5449
2.7299	1.6196
2.7213	1.7983
2.7128	2.1736
2.7043	2.6807
2.6959	3.2642
2.6875	3.8157
2.6791	4.2097
2.6709	4.491
2.6626	4.7466
2.6545	4.9182
2.6463	5.0542
2.6382	5.1814
2.6302	5.2495
2.6222	5.3357
2.6143	5.3823
2.6064	5.4348
2.5986	5.4919
2.5908	5.5105
2.583	5.5305
2.5753	5.5159
2.5677	5.529
2.5601	5.5427
2.5525	5.5757
2.545	5.5981
2.5375	5.623
2.5301	5.6323
2.5227	5.7163
2.5154	5.7536
2.5081	5.7783
2.5008	5.8437
2.4936	5.8799
2.4864	5.947
2.4793	5.9797
2.4722	5.9746
2.4651	5.9985
2.4581	6.0246
2.4511	6.0459
2.4442	6.0791
2.4373	6.1445
2.4305	6.1831
2.4236	6.2341
2.4169	6.2776
2.4101	6.3547
2.4034	6.3838
2.3967	6.4492
2.3901	6.5051
2.3835	6.5967
2.377	6.6587
2.3704	6.6943
2.364	6.7842
2.3575	6.8735
2.3511	6.9651
2.3447	7.0122
2.3384	7.0766
2.3321	7.145
2.3258	7.2092
2.3195	7.23
2.3133	7.3315
2.3071	7.3838
2.301	7.4145
2.2949	7.5249
2.2888	7.5703
2.2828	7.6362
2.2767	7.6665
2.2708	7.7016
2.2648	7.6645
2.2589	7.5747
2.253	7.5278
2.2471	7.4748
2.2413	7.3396
2.2355	7.237
2.2297	7.073
2.224	6.9133
2.2183	6.7571
2.2126	6.6885
2.207	6.8752
2.2013	7.1692
2.1957	7.5014
2.1902	7.6748
2.1846	7.821
2.1791	7.9419
2.1736	8.0105
2.1682	8.0256
2.1628	8.0552
2.1574	8.0901
2.152	8.0801
2.1466	8.0705
2.1413	8.1084
2.136	8.1279
2.1308	8.1379
2.1255	8.0981
2.1203	8.1098
2.1151	8.1362
2.11	8.0781
2.1048	8.0903
2.0997	8.1015
2.0946	8.1018
2.0895	8.1396
2.0845	8.1396
2.0795	8.1235
