Name: Prehnite Ca2Al2Si3O10(OH)2
Type: Mineral
Class: Silicate
Subclass: Phyllosilicate
Particle Size: Coarse
Sample No.: prehnite_1
Owner: JHU
Wavelength Range: TIR
Origin: Paterson, New Jersey, USA via Norma Vergo
Description: The sample consisted of a cluster of light green, translucent crystals weighing about 14 g. Purity appeared high in hand sample and under the microscope. Particle size was 75 - 250  Micrometers.(Sheet Silicates); (Chlorite Group) Original ASTER Spectral Library name was jhu.nicolet.mineral.silicate.phyllosilicate.coarse.prehni1.spectrum.txt
Measurement: Bidirectional reflectance
X Units: Wavelength (micrometers)
Y Units: Reflectance (percent)
wavelength	value
25.0442	3.0439
24.3388	3.2217
23.6719	3.3074
23.0407	3.5918
22.4422	3.6572
21.8741	3.4448
21.334	3.6225
20.8199	4.6933
20.33	4.8286
19.8627	2.9477
19.4163	2.6448
18.9896	2.7412
18.5812	3.2734
18.19	3.1831
17.815	2.104
17.4551	0.7578
17.1094	0.428
16.7772	0.5764
16.4576	0.6721
16.15	0.8335
15.8537	0.9729
15.568	0.978
15.2925	1.114
15.0265	1.1377
14.7697	1.2231
14.5214	1.3415
14.2814	1.4936
14.0492	1.6477
13.8244	1.8977
13.6067	2.3916
13.3957	2.8274
13.1912	3.1287
12.9929	2.7297
12.8004	1.2673
12.6135	1.2444
12.432	1.3811
12.2557	1.5469
12.0843	1.3896
11.9176	1.4065
11.7555	1.5303
11.5977	1.7519
11.444	1.7642
11.2944	1.7798
11.1487	1.9878
11.0067	2.3452
10.8682	2.9104
10.7332	3.4167
10.6015	3.3074
10.473	2.8569
10.3476	3.1767
10.2251	3.7471
10.1056	4.8105
9.9887	5.6391
9.8746	6.4162
9.763	6.6221
9.6539	5.4055
9.5472	3.5364
9.4429	2.74
9.3408	4.6311
9.2409	6.4353
9.1431	5.9443
9.0474	5.1919
8.9536	4.4509
8.8618	3.7192
8.7718	3.1267
8.6837	2.1777
8.5973	1.1443
8.5126	0.4761
8.4295	0.228
8.3481	0.1648
8.2682	0.2019
8.1898	0.2603
8.1129	0.3218
8.0374	0.3835
7.9634	0.4514
7.8906	0.5124
7.8192	0.5764
7.7491	0.6475
7.6802	0.7222
7.6126	0.7993
7.5461	0.8677
7.4807	0.9319
7.4165	0.9587
7.3534	0.9849
7.2914	1.0051
7.2303	1.0215
7.1703	1.0356
7.1113	1.0293
7.0533	1.0061
6.9962	1.0083
6.94	1.0054
6.8847	0.9915
6.8302	1.0127
6.7767	1.033
6.7239	1.0439
6.672	1.0454
6.6209	1.0283
6.5705	1.0161
6.5209	0.9995
6.4721	0.9863
6.424	0.9988
6.3766	1.0549
6.3299	1.1401
6.2838	1.2346
6.2385	1.2803
6.1937	1.3035
6.1496	1.3313
6.1062	1.3557
6.0633	1.3718
6.0211	1.3523
5.9794	1.3184
5.9383	1.2925
5.8978	1.2812
5.8578	1.2517
5.8184	1.2529
5.7794	1.3086
5.741	1.3408
5.7031	1.3616
5.6657	1.3789
5.6288	1.4207
5.5924	1.468
5.5564	1.4788
5.5209	1.4548
5.4859	1.3694
5.4513	1.3201
5.4171	1.3647
5.3833	1.4294
5.35	1.5388
5.3171	1.7078
5.2846	1.8892
5.2524	2.1016
5.2207	2.2395
5.1893	2.2607
5.1584	2.2173
5.1277	2.1887
5.0975	2.3
5.0676	2.4607
5.038	2.6008
5.0088	2.7417
4.98	2.8479
4.9514	3.011
4.9232	3.2676
4.8953	3.4631
4.8678	3.583
4.8405	3.6811
4.8135	3.7429
4.7868	3.7219
4.7605	3.7519
4.7344	3.9958
4.7086	4.167
4.6831	4.3467
4.6578	4.4897
4.6328	4.5476
4.6081	4.6672
4.5837	4.8769
4.5595	4.9971
4.5356	5.0764
4.5119	5.2165
4.4884	5.345
4.4652	5.5068
4.4423	5.6748
4.4196	5.7839
4.3971	5.8672
4.3748	5.9468
4.3528	6.0102
4.331	6.0537
4.3094	6.0967
4.288	6.1504
4.2668	6.2068
4.2458	6.2519
4.2251	6.2732
4.2045	6.2942
4.1841	6.3125
4.164	6.3159
4.144	6.344
4.1242	6.3916
4.1046	6.4263
4.0852	6.4433
4.066	6.4446
4.047	6.4343
4.0281	6.4292
4.0094	6.4133
3.9909	6.4177
3.9725	6.4292
3.9544	6.4277
3.9363	6.4685
3.9185	6.4192
3.9008	6.3296
3.8833	6.1225
3.8659	6.0422
3.8487	6.0784
3.8316	6.074
3.8147	6.1426
3.7979	6.186
3.7813	6.208
3.7648	6.1765
3.7485	6.0554
3.7323	5.9282
3.7162	5.9187
3.7003	5.9106
3.6845	5.8269
3.6689	5.7397
3.6534	5.7073
3.638	5.7065
3.6227	5.6999
3.6076	5.6723
3.5926	5.6758
3.5777	5.7512
3.563	5.8078
3.5484	5.8315
3.5338	5.8357
3.5195	5.8266
3.5052	5.8279
3.491	5.8701
3.477	5.8894
3.463	5.8733
3.4492	5.7937
3.4355	5.7041
3.4219	5.571
3.4084	5.5066
3.395	5.5044
3.3817	5.4448
3.3685	5.3735
3.3554	5.2751
3.3425	5.1413
3.3296	4.9602
3.3168	4.7986
3.3041	4.6792
3.2915	4.6008
3.279	4.5159
3.2666	4.4145
3.2543	4.2649
3.2421	4.1609
3.23	4.0637
3.218	3.9827
3.206	3.8162
3.1942	3.614
3.1824	3.4043
3.1707	3.2851
3.1591	3.2014
3.1476	3.1484
3.1362	3.1272
3.1249	3.0496
3.1136	2.9438
3.1024	2.8782
3.0913	2.8098
3.0803	2.7651
3.0694	2.7339
3.0585	2.6282
3.0477	2.4846
3.037	2.3645
3.0264	2.1953
3.0158	2.0449
3.0053	1.8625
2.9949	1.7517
2.9845	1.686
2.9743	1.6638
2.9641	1.667
2.9539	1.6172
2.9439	1.624
2.9339	1.6538
2.9239	1.5488
2.9141	1.3726
2.9043	1.2119
2.8946	1.1365
2.8849	1.071
2.8753	1.1226
2.8658	1.2144
2.8563	0.7964
2.8469	0.9014
2.8375	1.2139
2.8282	1.4861
2.819	1.5894
2.8098	1.6003
2.8007	1.605
2.7917	1.5979
2.7827	1.6538
2.7738	1.7947
2.7649	2.03
2.7561	2.2986
2.7473	2.6565
2.7386	2.9783
2.7299	3.3015
2.7213	3.6189
2.7128	3.9773
2.7043	4.2903
2.6959	4.521
2.6875	4.6626
2.6791	4.7373
2.6709	4.7861
2.6626	4.8855
2.6545	5.0591
2.6463	5.0986
2.6382	4.8889
2.6302	4.613
2.6222	4.4524
2.6143	4.2646
2.6064	4.1179
2.5986	4.1633
2.5908	4.22
2.583	4.1404
2.5753	3.9944
2.5677	4.0163
2.5601	4.1169
2.5525	4.2449
2.545	4.3787
2.5375	4.3699
2.5301	4.2847
2.5227	4.4485
2.5154	4.7734
2.5081	4.9001
2.5008	4.9072
2.4936	4.9043
2.4864	4.9473
2.4793	4.9516
2.4722	4.9888
2.4651	5.1455
2.4581	5.2385
2.4511	5.2312
2.4442	5.2217
2.4373	4.979
2.4305	4.6865
2.4236	4.4267
2.4169	4.0815
2.4101	3.8359
2.4034	3.7595
2.3967	3.6208
2.3901	3.4534
2.3835	3.4692
2.377	3.5737
2.3704	3.5273
2.364	3.1904
2.3575	3.081
2.3511	3.281
2.3447	3.5559
2.3384	3.5747
2.3321	3.4968
2.3258	3.9277
2.3195	4.8911
2.3133	5.4468
2.3071	5.7085
2.301	5.7217
2.2949	5.6062
2.2888	5.4761
2.2828	5.3203
2.2767	5.3457
2.2708	5.52
2.2648	5.6951
2.2589	5.8428
2.253	5.8188
2.2471	5.5845
2.2413	5.3901
2.2355	5.3479
2.2297	5.5569
2.224	5.8662
2.2183	6.0859
2.2126	6.312
2.207	6.6113
2.2013	6.7954
2.1957	6.8662
2.1902	6.8999
2.1846	6.9375
2.1791	7.0215
2.1736	7.0102
2.1682	7.073
2.1628	7.0779
2.1574	7.0996
2.152	7.1577
2.1466	7.1904
2.1413	7.2163
2.136	7.2026
2.1308	7.2207
2.1255	7.2629
2.1203	7.3183
2.1151	7.3279
2.11	7.342
2.1048	7.373
2.0997	7.3825
2.0946	7.4177
2.0895	7.4526
2.0845	7.4768
2.0795	7.4924
