Name: Gypsum (alabaster) CaSO4.2H20
Type: Mineral
Class: Sulfate
Subclass: None
Particle Size: Fine
Sample No.: gypsum_1
Owner: JHU
Wavelength Range: TIR
Origin: Pomaia, Italy via Hunt and Salisbury Collection #26B(purchased from Ward's Natural Science Establishment).
Description: The sample was white, translucent, and appeared pure, both in hand sample and under the microscope. XRD Analysis- Pure gypsum. Particle size was Less than 2 Micrometers. Original ASTER Spectral Library name was jhu.nicolet.mineral.sulfate.none.powder.gypsum1.spectrum.txt
Measurement: Transmission
X Units: Wavelength (micrometers)
Y Units: Transmittance (percent)
wavelength	value
25.0442	87.8357
24.3388	86.656
23.6719	85.7068
23.0407	86.9529
22.4422	86.7771
21.8741	86.8435
21.334	87.9646
20.8199	88.7576
20.33	89.5525
19.8627	90.8259
19.4163	90.6755
18.9896	91.0203
18.5812	91.8601
18.19	92.7156
17.815	93.4109
17.4551	92.8513
17.1094	89.3279
16.7772	55.1883
16.4576	74.201
16.15	84.697
15.8537	82.9314
15.568	91.4461
15.2925	84.5857
15.0265	54.5838
14.7697	83.2058
14.5214	92.3347
14.2814	93.1609
14.0492	93.2859
13.8244	94.1365
13.6067	94.3611
13.3957	94.4529
13.1912	94.5588
12.9929	94.6389
12.8004	94.2654
12.6135	94.6194
12.432	94.5115
12.2557	94.7151
12.0843	94.9202
11.9176	95.0022
11.7555	94.9119
11.5977	94.9885
11.444	94.7927
11.2944	94.9802
11.1487	95.2815
11.0067	95.967
10.8682	96.3582
10.7332	96.637
10.6015	97.1604
10.473	97.4475
10.3476	96.6609
10.2251	94.7234
10.1056	91.8836
9.9887	88.8967
9.8746	84.3025
9.763	88.1194
9.6539	86.7991
9.5472	84.9495
9.4429	81.6785
9.3408	75.1111
9.2409	58.9559
9.1431	28.4911
9.0474	34.8524
8.9536	15.9912
8.8618	14.663
8.7718	16.0551
8.6837	5.4692
8.5973	8.1435
8.5126	15.0673
8.4295	29.0639
8.3481	50.2352
8.2682	63.0391
8.1898	73.1033
8.1129	81.2527
8.0374	85.7805
7.9634	88.2918
7.8906	89.9861
7.8192	91.0173
7.7491	91.8711
7.6802	92.5613
7.6126	93.0986
7.5461	93.6758
7.4807	94.0896
7.4165	94.4275
7.3534	94.6834
7.2914	94.8787
7.2303	95.0012
7.1703	95.1836
7.1113	95.3181
7.0533	95.502
6.9962	95.5598
6.94	95.698
6.8847	95.8076
6.8302	95.9749
6.7767	96.199
6.7239	96.4219
6.672	96.5056
6.6209	96.4932
6.5705	96.5515
6.5209	96.3997
6.4721	96.3552
6.424	96.3047
6.3766	96.1348
6.3299	95.8582
6.2838	95.2332
6.2385	93.073
6.1937	82.4187
6.1496	83.9832
6.1062	92.5437
6.0633	94.4666
6.0211	95.083
5.9794	95.6472
5.9383	96.4011
5.8978	96.8591
5.8578	97.2615
5.8184	97.5105
5.7794	97.6101
5.741	97.8289
5.7031	97.9932
5.6657	98.0117
5.6288	98.208
5.5924	98.2351
5.5564	98.282
5.5209	98.3184
5.4859	98.3945
5.4513	98.5017
5.4171	98.5749
5.3833	98.5579
5.35	98.6677
5.3171	98.7273
5.2846	98.8455
5.2524	98.9004
5.2207	98.9197
5.1893	98.9661
5.1584	99.0486
5.1277	99.114
5.0975	99.1201
5.0676	99.166
5.038	99.1077
5.0088	99.1746
4.98	99.1418
4.9514	99.2097
4.9232	99.2234
4.8953	99.2507
4.8678	99.2595
4.8405	99.2156
4.8135	99.1565
4.7868	98.8987
4.7605	98.8279
4.7344	98.9084
4.7086	98.6423
4.6831	98.2834
4.6578	98.5745
4.6328	98.6843
4.6081	98.864
4.5837	99.2346
4.5595	99.2722
4.5356	99.3015
4.5119	99.1921
4.4884	99.1726
4.4652	99.323
4.4423	99.4109
4.4196	99.5881
4.3971	99.678
4.3748	99.8596
4.3528	99.8342
4.331	99.9319
4.3094	99.9695
4.288	100.027
4.2668	100.107
4.2458	100.223
4.2251	100.344
4.2045	100.405
4.1841	100.51
4.164	100.607
4.144	100.543
4.1242	100.563
4.1046	100.669
4.0852	100.605
4.066	100.574
4.047	100.635
4.0281	100.66
4.0094	100.588
3.9909	100.504
3.9725	100.467
3.9544	100.627
3.9363	100.665
3.9185	100.811
3.9008	100.799
3.8833	100.87
3.8659	100.801
3.8487	100.877
3.8316	100.903
3.8147	100.951
3.7979	100.928
3.7813	101.097
3.7648	101.074
3.7485	101.102
3.7323	101.097
3.7162	101.131
3.7003	101.11
3.6845	101.188
3.6689	101.094
3.6534	101.13
3.638	101.224
3.6227	101.222
3.6076	101.109
3.5926	101.219
3.5777	101.131
3.563	101.191
3.5484	101.105
3.5338	101.076
3.5195	100.941
3.5052	100.556
3.491	100.748
3.477	100.656
3.463	100.693
3.4492	100.675
3.4355	100.462
3.4219	100.137
3.4084	100.308
3.395	100.589
3.3817	100.648
3.3685	100.883
3.3554	100.914
3.3425	101.032
3.3296	101.083
3.3168	101.042
3.3041	101.005
3.2915	101.064
3.279	101.068
3.2666	101.018
3.2543	100.851
3.2421	100.9
3.23	100.727
3.218	100.735
3.206	100.66
3.1942	100.489
3.1824	100.388
3.1707	100.332
3.1591	100.28
3.1476	99.9783
3.1362	99.822
3.1249	99.6931
3.1136	99.5974
3.1024	99.447
3.0913	99.5242
3.0803	99.6042
3.0694	99.3689
3.0585	99.1599
3.0477	99.1736
3.037	99.0037
3.0264	98.8025
3.0158	98.7078
3.0053	98.5447
2.9949	98.3259
2.9845	98.3376
2.9743	98.3415
2.9641	97.9695
2.9539	97.863
2.9439	97.7507
2.9339	97.7263
2.9239	97.6755
2.9141	97.4568
2.9043	97.6179
2.8946	97.5554
2.8849	97.5857
2.8753	97.571
2.8658	97.5212
2.8563	97.4187
2.8469	97.1013
2.8375	96.3679
2.8282	94.4021
2.819	88.0125
2.8098	83.156
2.8007	86.4881
2.7917	91.6726
2.7827	87.2937
2.7738	77.5291
2.7649	76.118
2.7561	80.8328
2.7473	89.031
2.7386	95.2146
2.7299	98.3044
2.7213	100.05
2.7128	101.039
2.7043	101.426
2.6959	102.153
2.6875	102.34
2.6791	102.742
2.6709	102.843
2.6626	102.999
2.6545	103.067
2.6463	102.968
2.6382	103.226
2.6302	103.202
2.6222	103.458
2.6143	103.486
2.6064	103.454
2.5986	103.435
2.5908	103.81
2.583	103.853
2.5753	103.534
2.5677	103.675
2.5601	103.517
2.5525	103.831
2.545	103.913
2.5375	103.884
2.5301	103.894
2.5227	103.847
2.5154	103.886
2.5081	103.9
2.5008	104.023
2.4936	103.978
2.4864	104.15
2.4793	104.009
2.4722	104.189
2.4651	104.298
2.4581	104.259
2.4511	104.62
2.4442	104.251
2.4373	104.603
2.4305	104.48
2.4236	104.734
2.4169	104.304
2.4101	105.054
2.4034	104.956
2.3967	104.909
2.3901	104.816
2.3835	105.253
2.377	105.113
2.3704	105.394
2.364	105.142
2.3575	105.228
2.3511	105.464
2.3447	105.29
2.3384	105.609
2.3321	105.642
2.3258	105.468
2.3195	105.579
2.3133	105.898
2.3071	105.991
2.301	105.697
2.2949	106.187
2.2888	106.15
2.2828	106.009
2.2767	106.085
2.2708	106.234
2.2648	106.241
2.2589	106.57
2.253	106.558
2.2471	106.206
2.2413	106.577
2.2355	106.874
2.2297	106.913
2.224	106.304
2.2183	107.062
2.2126	107.031
2.207	107.152
2.2013	107.57
2.1957	107.292
2.1902	107.347
2.1846	107.331
2.1791	107.429
2.1736	107.546
2.1682	107.968
2.1628	107.898
2.1574	107.984
2.152	107.952
2.1466	107.968
2.1413	108.05
2.136	108.179
2.1308	108.148
2.1255	107.999
2.1203	108.648
2.1151	108.382
2.11	108.132
2.1048	108.695
2.0997	108.89
2.0946	108.534
2.0895	108.784
2.0845	109.378
2.0795	108.96
