Name: Quartz SiO_2
Type: Mineral
Class: Silicate
Subclass: Tectosilicate
Particle Size: Medium
Sample No.: TS-1E
Owner: JPL
Wavelength Range: TIR
Description: Crysoprase. Particle size was 45-125um.Collected by JPL Original ASTER Spectral Library name was jpl.nicolet.mineral.silicate.tectosilicate.medium.ts01e.spectrum.txt
Measurement: Hemispherical reflectance
X Units: Wavelength (micrometers)
Y Units: Reflectance (percent)
wavelength	value
15.3853	3.3546
15.1161	3.4865
14.8563	2.8043
14.6052	2.9074
14.3624	2.8226
14.1276	2.4504
13.9004	2.8903
13.6803	3.4264
13.4671	3.7979
13.2604	4.0451
13.06	4.6112
12.8656	7.442
12.6769	5.8287
12.4936	6.7038
12.3155	0.9156
12.1425	1.2333
11.9742	2.3182
11.8106	2.8136
11.6513	3.1167
11.4963	3.6013
11.3454	3.5964
11.1983	3.8911
11.0551	4.0031
10.9154	4.2705
10.7793	4.2358
10.6465	4.6284
10.5169	4.6772
10.3904	5.0974
10.267	5.3877
10.1464	5.8593
10.0287	6.4598
9.9136	7.1367
9.8012	8.1193
9.6913	9.631
9.5838	11.8042
9.4787	15.9449
9.3758	26.8479
9.2752	35.7964
9.1767	36.2346
9.0803	35.4705
8.9858	33.8769
8.8934	31.023
8.8028	28.0092
8.714	25.1177
8.627	18.3428
8.5417	25.5094
8.4581	27.2683
8.3761	28.6457
8.2957	30.6917
8.2169	33.0943
8.1395	28.8522
8.0635	19.238
7.989	12.3557
7.9158	6.9924
7.8439	3.6626
7.7734	2.2777
7.7041	1.0493
7.636	0.5396
7.5691	0.2793
7.5034	0
7.4388	0.1012
7.3753	0.1339
7.3129	0.0461
7.2515	0.0856
7.1912	0.2967
7.1318	0.4102
7.0734	0.5164
7.016	0.6272
6.9595	0.9317
6.9039	1.0506
6.8492	1.1262
6.7953	1.1662
6.7423	0.9776
6.6901	0.8936
6.6387	1.2576
6.5881	1.1394
6.5382	1.1493
6.4892	2.1418
6.4408	3.1168
6.3931	2.8321
6.3462	2.0706
6.2999	1.3274
6.2543	1.0359
6.2094	0.8697
6.1651	1.1153
6.1214	1.7951
6.0784	2.5849
6.0359	2.6479
5.994	2.4067
5.9527	1.7726
5.912	2.0403
5.8718	3.0115
5.8322	4.2265
5.7931	5.5761
5.7545	6.8793
5.7165	7.6393
5.6789	6.4759
5.6418	3.9318
5.6052	2.5835
5.5691	2.3585
5.5334	2.8341
5.4982	3.8489
5.4635	4.8869
5.4291	4.1267
5.3952	2.0585
5.3618	1.3245
5.3287	1.2467
5.2961	1.4605
5.2638	1.8902
5.2319	3.1457
5.2004	4.8774
5.1693	4.8213
5.1386	4.5063
5.1082	4.4353
5.0782	3.5836
5.0485	3.3987
5.0192	3.1639
4.9902	3.4715
4.9616	5.218
4.9332	6.8245
4.9052	10.8547
4.8776	18.9294
4.8502	24.7814
4.8231	28.673
4.7963	31.5708
4.7699	33.8233
4.7437	35.164
4.7178	35.1545
4.6922	32.4044
4.6668	33.5121
4.6418	37.4586
4.617	40.5279
4.5924	41.7029
4.5681	41.6873
4.5441	39.6492
4.5203	35.1413
4.4968	30.1178
4.4735	28.1471
4.4505	29.5469
4.4277	31.3783
4.4051	33.8803
4.3828	37.1125
4.3607	40.4369
4.3388	42.8237
4.3171	43.446
4.2956	43.2549
4.2744	43.4058
4.2534	45.33
4.2325	45.3978
4.2119	45.6738
4.1915	45.95
4.1712	47.1239
4.1512	48.1858
4.1313	49.3104
4.1117	50.7036
4.0922	51.9506
4.0729	52.8853
4.0538	53.2291
4.0349	53.2341
4.0161	53.0828
3.9976	53.1403
3.9792	53.5311
3.9609	54.1097
3.9428	54.6286
3.9249	54.9312
3.9072	54.6922
3.8896	54.1347
3.8722	53.3505
3.8549	52.9103
3.8378	52.7165
3.8208	52.6561
3.804	52.4138
3.7873	51.9581
3.7708	51.0764
3.7544	50.2443
3.7382	49.597
3.7221	49.5025
3.7061	49.4125
3.6903	49.5583
3.6746	49.3358
3.659	48.9946
3.6436	48.3849
3.6283	47.7361
3.6131	46.8736
3.5981	45.9417
3.5832	45.1901
3.5684	44.3186
3.5537	43.2832
3.5391	42.4087
3.5247	41.0609
3.5104	39.2213
3.4962	38.2002
3.4821	37.3104
3.4681	36.3726
3.4543	35.2784
3.4405	33.7917
3.4269	32.1738
3.4133	30.7266
3.3999	30.2958
3.3866	29.156
3.3733	28.4053
3.3602	27.5471
3.3472	26.6478
3.3343	25.8914
3.3215	24.8429
3.3088	23.8386
3.2961	22.8354
3.2836	21.9548
3.2712	21.0069
3.2588	20.1373
3.2466	19.2415
3.2345	18.3483
3.2224	17.4959
3.2104	16.7319
3.1985	15.8921
3.1867	15.0178
3.175	14.4097
3.1634	13.8099
3.1519	13.0856
3.1404	12.2492
3.129	11.7331
3.1178	11.2641
3.1065	10.8752
3.0954	10.6222
3.0844	9.7841
3.0734	9.3903
3.0625	9.1601
3.0517	8.8409
3.041	8.3808
3.0303	8.2697
3.0197	7.9427
3.0092	7.5755
2.9987	7.3006
2.9884	7.2315
2.9781	6.9891
2.9678	6.5248
2.9577	6.4367
2.9476	6.3608
2.9376	6.393
2.9276	6.1214
2.9177	5.9494
2.9079	6.007
2.8982	6.0472
2.8885	6.1799
2.8789	6.488
2.8693	6.6791
2.8598	7.191
2.8504	7.7174
2.841	7.9394
2.8317	8.7552
2.8224	8.944
2.8133	8.7773
2.8041	8.4358
2.7951	7.9622
2.786	7.6021
2.7771	8.2822
2.7682	9.136
2.7594	8.3202
2.7506	11.1739
2.7418	13.4709
2.7332	19.5937
2.7246	26.1482
2.716	33.4067
2.7075	40.7565
2.699	46.6127
2.6906	51.0696
2.6823	55.127
2.674	58.1355
2.6657	61.7828
2.6575	62.3437
2.6494	63.5262
2.6413	64.6081
2.6332	65.4083
2.6252	66.0528
2.6173	66.9093
2.6094	66.8087
2.6015	67.1148
2.5937	68.1472
2.5859	67.2953
2.5782	67.457
2.5706	67.6854
2.5629	68.2758
2.5554	67.8773
2.5478	68.1492
2.5403	68.3268
2.5329	68.7707
2.5255	68.9257
2.5181	69.2218
2.5108	69.5551
2.5035	69.89
2.4963	70.2684
2.4891	70.6297
2.482	71.0972
2.4749	71.5733
2.4678	71.9354
2.4608	72.8226
2.4538	73.4006
2.4468	74.2431
2.4399	74.8544
2.4331	75.4672
2.4262	75.635
2.4194	76.2006
2.4127	76.4098
2.4059	76.7184
2.3993	77.4605
2.3926	77.7085
2.386	78.113
2.3795	78.163
2.3729	78.3315
2.3664	78.2753
2.36	78.2331
2.3535	77.9195
2.3471	77.6717
2.3408	77.2773
2.3345	76.6201
2.3282	75.8465
2.3219	75.2404
2.3157	75.1062
2.3095	74.7821
2.3034	74.8358
2.2972	75.0362
2.2911	75.3099
2.2851	75.4304
2.279	75.6289
2.2731	75.6474
2.2671	75.4827
2.2612	75.3424
2.2553	75.2988
2.2494	75.3458
2.2435	75.3723
2.2377	75.646
2.232	75.527
2.2262	75.5369
2.2205	75.3631
2.2148	75.7306
2.2091	75.6591
2.2035	76.4991
2.1979	77.061
2.1923	77.9745
2.1868	78.676
2.1812	79.5168
2.1758	80.3249
2.1703	80.6193
2.1649	80.9229
2.1595	81.4512
2.1541	81.7755
2.1487	82.0197
2.1434	82.2818
2.1381	82.4141
2.1328	82.5861
2.1275	82.7298
2.1223	82.8372
2.1171	82.801
2.112	82.8893
2.1068	82.8668
2.1017	82.7004
2.0966	82.746
2.0915	83.0982
2.0865	82.8969
2.0814	82.7996
2.0764	82.7774
2.0715	82.916
2.0665	82.6216
2.0616	82.8572
2.0567	82.7268
2.0518	82.7626
2.0469	82.9469
2.0421	82.8959
2.0373	82.7549
2.0325	82.8072
2.0277	82.3908
2.0229	82.3382
2.0182	82.1791
2.0135	82.2432
2.0088	81.7998
2.0042	81.9373
