Name: Gypsum (selenite) CaSO4.2H2O
Type: Mineral
Class: Sulfate
Subclass: None
Particle Size: Solid
Sample No.: gypsum_2
Owner: JHU
Wavelength Range: TIR
Origin: Washington Co., Vermont, from Hunt and Salisbury Collection#333B.
Description: The sample appears to be pure semi-transparent gypsum. Original ASTER Spectral Library name was jhu.nicolet.mineral.sulfate.none.solid.gypsum2.spectrum.txt
Measurement: Bidirectional reflectance
X Units: Wavelength (micrometers)
Y Units: Reflectance (percent)
wavelength	value
25.0442	15.4843
24.3388	15.6425
23.6719	15.8564
23.0407	16.7519
22.4422	18.0322
21.8741	19.622
21.334	20.8554
20.8199	21.2226
20.33	21.0585
19.8627	20.1308
19.4163	18.5976
18.9896	16.7216
18.5812	14.7822
18.19	13.2465
17.815	12.9394
17.4551	13.497
17.1094	15.1399
16.7772	19.206
16.4576	21.9658
16.15	11.3283
15.8537	8.2834
15.568	9.3039
15.2925	11.8156
15.0265	22.3242
14.7697	30.0119
14.5214	19.9936
14.2814	9.8615
14.0492	8.1125
13.8244	8.1028
13.6067	8.3332
13.3957	8.603
13.1912	8.8379
12.9929	9.0503
12.8004	9.3445
12.6135	9.5832
12.432	9.7422
12.2557	9.9697
12.0843	10.1799
11.9176	10.3784
11.7555	10.5622
11.5977	10.759
11.444	10.9721
11.2944	11.1914
11.1487	11.4301
11.0067	11.6821
10.8682	11.9345
10.7332	12.1755
10.6015	12.4301
10.473	12.6757
10.3476	12.9306
10.2251	13.1865
10.1056	13.4931
9.9887	13.9062
9.8746	14.3501
9.763	14.7934
9.6539	15.4697
9.5472	16.3642
9.4429	17.4648
9.3408	19.0683
9.2409	21.5036
9.1431	25.7931
9.0474	33.9699
8.9536	45.9808
8.8618	54.4388
8.7718	65.4461
8.6837	72.013
8.5973	72.2386
8.5126	64.6558
8.4295	53.8121
8.3481	49.9325
8.2682	38.7924
8.1898	23.7348
8.1129	11.3352
8.0374	5.1924
7.9634	2.772
7.8906	2.7497
7.8192	3.2109
7.7491	3.6833
7.6802	4.1121
7.6126	4.5227
7.5461	4.8989
7.4807	5.2263
7.4165	5.5176
7.3534	5.7898
7.2914	6.0332
7.2303	6.2436
7.1703	6.4165
7.1113	6.6172
7.0533	6.771
6.9962	6.9663
6.94	7.1335
6.8847	7.2837
6.8302	7.4175
6.7767	7.5495
6.7239	7.6899
6.672	7.8066
6.6209	7.9438
6.5705	8.0386
6.5209	8.2395
6.4721	8.417
6.424	8.5842
6.3766	8.9106
6.3299	9.302
6.2838	9.8691
6.2385	10.9558
6.1937	13.9897
6.1496	14.1779
6.1062	5.532
6.0633	6.2344
6.0211	6.8796
5.9794	7.3091
5.9383	7.5505
5.8978	7.3208
5.8578	7.584
5.8184	7.7038
5.7794	7.8789
5.741	7.9665
5.7031	8.0578
5.6657	8.1494
5.6288	8.2146
5.5924	8.2788
5.5564	8.3264
5.5209	8.3879
5.4859	8.4494
5.4513	8.5107
5.4171	8.5442
5.3833	8.6155
5.35	8.6465
5.3171	8.7192
5.2846	8.7663
5.2524	8.8135
5.2207	8.8484
5.1893	8.8821
5.1584	8.9067
5.1277	8.9341
5.0975	8.959
5.0676	8.9804
5.038	9.0014
5.0088	9.0222
4.98	9.0449
4.9514	9.0737
4.9232	9.1074
4.8953	9.1374
4.8678	9.1721
4.8405	9.2051
4.8135	9.2475
4.7868	9.2922
4.7605	9.3293
4.7344	9.3076
4.7086	9.2856
4.6831	9.2683
4.6578	9.2793
4.6328	9.3108
4.6081	9.3374
4.5837	9.3581
4.5595	9.3662
4.5356	9.3554
4.5119	9.3471
4.4884	9.334
4.4652	9.3227
4.4423	9.3169
4.4196	9.3205
4.3971	9.332
4.3748	9.342
4.3528	9.3525
4.331	9.3655
4.3094	9.3823
4.288	9.4153
4.2668	9.4487
4.2458	9.4912
4.2251	9.5371
4.2045	9.5771
4.1841	9.6191
4.164	9.6699
4.144	9.7185
4.1242	9.7705
4.1046	9.8249
4.0852	9.8711
4.066	9.9111
4.047	9.9489
4.0281	9.9936
4.0094	10.0429
3.9909	10.0903
3.9725	10.1211
3.9544	10.2026
3.9363	10.2722
3.9185	10.3242
3.9008	10.3623
3.8833	10.351
3.8659	10.3301
3.8487	10.4114
3.8316	10.4233
3.8147	10.4223
3.7979	10.4087
3.7813	10.4048
3.7648	10.4038
3.7485	10.3955
3.7323	10.3843
3.7162	10.3935
3.7003	10.3989
3.6845	10.3938
3.6689	10.3852
3.6534	10.375
3.638	10.3642
3.6227	10.3532
3.6076	10.3423
3.5926	10.3286
3.5777	10.313
3.563	10.2998
3.5484	10.2834
3.5338	10.2737
3.5195	10.2717
3.5052	10.2749
3.491	10.2651
3.477	10.2593
3.463	10.2544
3.4492	10.2551
3.4355	10.2583
3.4219	10.2715
3.4084	10.278
3.395	10.2817
3.3817	10.2973
3.3685	10.333
3.3554	10.3491
3.3425	10.3349
3.3296	10.3564
3.3168	10.4033
3.3041	10.4258
3.2915	10.4536
3.279	10.4819
3.2666	10.5097
3.2543	10.5415
3.2421	10.5781
3.23	10.6196
3.218	10.6631
3.206	10.7114
3.1942	10.7685
3.1824	10.8301
3.1707	10.9006
3.1591	10.9724
3.1476	11.0405
3.1362	11.0918
3.1249	11.1455
3.1136	11.2207
3.1024	11.3335
3.0913	11.4258
3.0803	11.2158
3.0694	11.124
3.0585	11.2651
3.0477	11.4052
3.037	11.5446
3.0264	11.6819
3.0158	11.8261
3.0053	11.9738
2.9949	12.1262
2.9845	12.3464
2.9743	12.8235
2.9641	13.7439
2.9539	15.1772
2.9439	17.0629
2.9339	18.1918
2.9239	16.8466
2.9141	13.6801
2.9043	10.5959
2.8946	8.7732
2.8849	8.0813
2.8753	7.9126
2.8658	7.8501
2.8563	7.9429
2.8469	8.2346
2.8375	8.5268
2.8282	8.843
2.819	9.2014
2.8098	9.5801
2.8007	9.7578
2.7917	9.5195
2.7827	8.9624
2.7738	8.4792
2.7649	8.1875
2.7561	8.0754
2.7473	8.1887
2.7386	8.2434
2.7299	8.384
2.7213	8.4018
2.7128	8.5171
2.7043	8.6028
2.6959	8.633
2.6875	8.6965
2.6791	8.6997
2.6709	8.6719
2.6626	8.7934
2.6545	8.8225
2.6463	8.8471
2.6382	8.885
2.6302	8.8352
2.6222	8.9072
2.6143	8.9336
2.6064	8.8999
2.5986	8.9785
2.5908	8.9897
2.583	8.9797
2.5753	9.0239
2.5677	9.0566
2.5601	9.0566
2.5525	9.0791
2.545	9.1076
2.5375	9.1223
2.5301	9.1401
2.5227	9.1518
2.5154	9.1621
2.5081	9.1731
2.5008	9.1787
2.4936	9.1858
2.4864	9.1799
2.4793	9.1836
2.4722	9.1782
2.4651	9.1826
2.4581	9.186
2.4511	9.1875
2.4442	9.1858
2.4373	9.1887
2.4305	9.1963
2.4236	9.1963
2.4169	9.206
2.4101	9.2168
2.4034	9.2334
2.3967	9.2632
2.3901	9.2951
2.3835	9.3437
2.377	9.3869
2.3704	9.4375
2.364	9.4973
2.3575	9.5559
2.3511	9.6018
2.3447	9.6582
2.3384	9.6992
2.3321	9.7368
2.3258	9.7763
2.3195	9.7881
2.3133	9.7993
2.3071	9.792
2.301	9.789
2.2949	9.768
2.2888	9.747
2.2828	9.7109
2.2767	9.6562
2.2708	9.6103
2.2648	9.6084
2.2589	9.6396
2.253	9.6621
2.2471	9.6816
2.2413	9.6806
2.2355	9.6635
2.2297	9.6264
2.224	9.5708
2.2183	9.5395
2.2126	9.5713
2.207	9.6172
2.2013	9.6528
2.1957	9.6841
2.1902	9.706
2.1846	9.7256
2.1791	9.7348
2.1736	9.7505
2.1682	9.7705
2.1628	9.8052
2.1574	9.8403
2.152	9.8691
2.1466	9.8994
2.1413	9.9277
2.136	9.9536
2.1308	9.9814
2.1255	10.0239
2.1203	10.0747
2.1151	10.1308
2.11	10.188
2.1048	10.2524
2.0997	10.3188
2.0946	10.374
2.0895	10.4243
2.0845	10.4614
2.0795	10.477
