Name: Erionite (K2,Ca,Na2)2Al4Si14O36.15H2O
Type: Mineral
Class: Silicate
Subclass: Tectosilicate
Particle Size: Coarse
Sample No.: erionite_1
Owner: JHU
Wavelength Range: TIR
Origin: Donated by W. J. Ehmann;  Sample #15 from Rome, Oregon.
Description: The hand sample was a cream-colored, earthy mass.  As a result, the "solid" sample had very weak reststrahlen bands.  Petrographically the sample appeared to be pure. Particle size was 74-250 Micrometers.(Zeolite Group) Original ASTER Spectral Library name was jhu.nicolet.mineral.silicate.tectosilicate.coarse.erioni1.spectrum.txt
Measurement: Bidirectional reflectance
X Units: Wavelength (micrometers)
Y Units: Reflectance (percent)
wavelength	value
25.0442	5.1797
24.3388	5.7471
23.6719	5.323
23.0407	6.1997
22.4422	6.1994
21.8741	5.1606
21.334	6.2212
20.8199	6.8909
20.33	5.2734
19.8627	3.6511
19.4163	2.7815
18.9896	2.3445
18.5812	2.2629
18.19	2.2156
17.815	2.114
17.4551	2.2654
17.1094	2.1392
16.7772	2.019
16.4576	2.1064
16.15	2.2454
15.8537	2.3516
15.568	2.1882
15.2925	1.9453
15.0265	1.9224
14.7697	1.989
14.5214	2.0649
14.2814	2.1016
14.0492	2.1492
13.8244	2.1343
13.6067	2.0789
13.3957	2.1006
13.1912	2.1916
12.9929	2.2456
12.8004	2.1829
12.6135	1.9883
12.432	1.8955
12.2557	2.2976
12.0843	2.7612
11.9176	3.1467
11.7555	3.4651
11.5977	3.6604
11.444	3.8008
11.2944	4.082
11.1487	4.323
11.0067	4.5044
10.8682	4.6174
10.7332	4.6423
10.6015	4.5898
10.473	4.5217
10.3476	4.4866
10.2251	4.4265
10.1056	4.395
9.9887	4.4536
9.8746	4.6365
9.763	4.9575
9.6539	5.2727
9.5472	5.4953
9.4429	5.6677
9.3408	5.8169
9.2409	5.9104
9.1431	5.7644
9.0474	5.4116
8.9536	5.0154
8.8618	4.6919
8.7718	4.4683
8.6837	4.4582
8.5973	4.6081
8.5126	4.8506
8.4295	5.0957
8.3481	4.9399
8.2682	4.2515
8.1898	3.3508
8.1129	2.4534
8.0374	1.5923
7.9634	0.9758
7.8906	0.6609
7.8192	0.5007
7.7491	0.4944
7.6802	0.5784
7.6126	0.7285
7.5461	0.8984
7.4807	1.0901
7.4165	1.2854
7.3534	1.4888
7.2914	1.7014
7.2303	1.9138
7.1703	2.1172
7.1113	2.293
7.0533	2.4563
6.9962	2.6121
6.94	2.7842
6.8847	2.9424
6.8302	3.0962
6.7767	3.2771
6.7239	3.4463
6.672	3.5979
6.6209	3.7563
6.5705	3.8896
6.5209	4.0239
6.4721	4.1045
6.424	4.1177
6.3766	4.0605
6.3299	3.8911
6.2838	3.5796
6.2385	3.0732
6.1937	2.3918
6.1496	1.8843
6.1062	1.7043
6.0633	1.699
6.0211	1.835
5.9794	2.1221
5.9383	2.6072
5.8978	3.2712
5.8578	4.0295
5.8184	4.6958
5.7794	5.209
5.741	5.5539
5.7031	5.7803
5.6657	5.9304
5.6288	6.0315
5.5924	6.1306
5.5564	6.249
5.5209	6.4228
5.4859	6.6211
5.4513	6.8572
5.4171	7.0925
5.3833	7.3235
5.35	7.4953
5.3171	7.6396
5.2846	7.7475
5.2524	7.8374
5.2207	7.9314
5.1893	8.0288
5.1584	8.1377
5.1277	8.2798
5.0975	8.4411
5.0676	8.6052
5.038	8.7898
5.0088	8.9663
4.98	9.1582
4.9514	9.32
4.9232	9.4663
4.8953	9.5788
4.8678	9.6802
4.8405	9.7802
4.8135	9.8613
4.7868	9.9682
4.7605	10.0512
4.7344	10.1325
4.7086	10.2185
4.6831	10.2942
4.6578	10.3633
4.6328	10.4485
4.6081	10.5222
4.5837	10.6191
4.5595	10.7192
4.5356	10.8188
4.5119	10.9287
4.4884	11.0381
4.4652	11.1657
4.4423	11.2871
4.4196	11.4145
4.3971	11.5288
4.3748	11.6692
4.3528	11.8137
4.331	11.958
4.3094	12.0964
4.288	12.2487
4.2668	12.4089
4.2458	12.5747
4.2251	12.7666
4.2045	12.9331
4.1841	13.1045
4.164	13.2641
4.144	13.4267
4.1242	13.5957
4.1046	13.7539
4.0852	13.9094
4.066	14.0593
4.047	14.2055
4.0281	14.3161
4.0094	14.416
3.9909	14.497
3.9725	14.5647
3.9544	14.6342
3.9363	14.6838
3.9185	14.7319
3.9008	14.7495
3.8833	14.7458
3.8659	14.7507
3.8487	14.7343
3.8316	14.7185
3.8147	14.6784
3.7979	14.6347
3.7813	14.5888
3.7648	14.5256
3.7485	14.4599
3.7323	14.3715
3.7162	14.2876
3.7003	14.1994
3.6845	14.0852
3.6689	13.9756
3.6534	13.8496
3.638	13.7273
3.6227	13.6057
3.6076	13.4665
3.5926	13.3049
3.5777	13.1443
3.563	12.969
3.5484	12.7881
3.5338	12.5752
3.5195	12.3347
3.5052	12.0146
3.491	11.8706
3.477	11.7077
3.463	11.5464
3.4492	11.31
3.4355	11.0234
3.4219	10.7031
3.4084	10.4668
3.395	10.313
3.3817	10.0649
3.3685	9.8462
3.3554	9.657
3.3425	9.3999
3.3296	9.145
3.3168	8.8672
3.3041	8.5971
3.2915	8.3335
3.279	8.0429
3.2666	7.7666
3.2543	7.4971
3.2421	7.2253
3.23	6.948
3.218	6.6741
3.206	6.4121
3.1942	6.1504
3.1824	5.8821
3.1707	5.6286
3.1591	5.3799
3.1476	5.1345
3.1362	4.8874
3.1249	4.6575
3.1136	4.4497
3.1024	4.2705
3.0913	4.1155
3.0803	3.9836
3.0694	3.9043
3.0585	3.8437
3.0477	3.7881
3.037	3.7436
3.0264	3.6841
3.0158	3.6162
3.0053	3.5237
2.9949	3.4243
2.9845	3.3191
2.9743	3.2009
2.9641	3.0872
2.9539	3.0076
2.9439	2.9309
2.9339	2.8618
2.9239	2.8127
2.9141	2.7632
2.9043	2.7314
2.8946	2.7041
2.8849	2.71
2.8753	2.698
2.8658	2.6995
2.8563	2.6748
2.8469	2.699
2.8375	2.6943
2.8282	2.676
2.819	2.6601
2.8098	2.6606
2.8007	2.654
2.7917	2.6389
2.7827	2.6296
2.7738	2.6011
2.7649	2.6025
2.7561	2.6975
2.7473	2.9482
2.7386	3.3789
2.7299	4.1164
2.7213	5.1877
2.7128	6.5285
2.7043	7.8955
2.6959	9.1135
2.6875	10.0835
2.6791	10.7995
2.6709	11.3569
2.6626	12.0866
2.6545	12.488
2.6463	12.7917
2.6382	13.0168
2.6302	13.1838
2.6222	13.3886
2.6143	13.4934
2.6064	13.5561
2.5986	13.667
2.5908	13.7114
2.583	13.7407
2.5753	13.801
2.5677	13.8051
2.5601	13.8415
2.5525	13.8747
2.545	13.9358
2.5375	13.9885
2.5301	14.0332
2.5227	14.1181
2.5154	14.2058
2.5081	14.3103
2.5008	14.4006
2.4936	14.497
2.4864	14.6086
2.4793	14.7387
2.4722	14.8567
2.4651	14.9814
2.4581	15.1142
2.4511	15.2199
2.4442	15.3786
2.4373	15.5026
2.4305	15.653
2.4236	15.7851
2.4169	15.9604
2.4101	16.082
2.4034	16.1962
2.3967	16.3122
2.3901	16.4406
2.3835	16.5703
2.377	16.7036
2.3704	16.7905
2.364	16.8852
2.3575	17.0156
2.3511	17.1218
2.3447	17.2114
2.3384	17.2885
2.3321	17.3303
2.3258	17.4135
2.3195	17.4431
2.3133	17.5253
2.3071	17.5229
2.301	17.5918
2.2949	17.6342
2.2888	17.697
2.2828	17.7622
2.2767	17.8203
2.2708	17.854
2.2648	17.8698
2.2589	17.9165
2.253	17.8955
2.2471	17.9047
2.2413	17.9169
2.2355	17.9697
2.2297	18.0009
2.224	17.988
2.2183	18.0459
2.2126	18.0424
2.207	18.0795
2.2013	18.1376
2.1957	18.187
2.1902	18.1914
2.1846	18.2426
2.1791	18.2758
2.1736	18.2841
2.1682	18.3549
2.1628	18.3852
2.1574	18.4072
2.152	18.3847
2.1466	18.3598
2.1413	18.352
2.136	18.3916
2.1308	18.416
2.1255	18.3972
2.1203	18.3576
2.1151	18.3964
2.11	18.3828
2.1048	18.3693
2.0997	18.3772
2.0946	18.3774
2.0895	18.3972
2.0845	18.3833
2.0795	18.322
