Name: Vesuvianite Ca_10(Mg,Fe^2+)_2Al_4(Si_2O_7)_2(SiO_4)_5(OH,F)_4
Type: Mineral
Class: Silicate
Subclass: Sorosilicate
Particle Size: Fine
Sample No.: SS-3A
Owner: JPL
Wavelength Range: TIR
Origin: USA, California, Riverside County, Crestmore Quarry
Description: Particle size was 0-45um.Collected by Burminco Original ASTER Spectral Library name was jpl.nicolet.mineral.silicate.sorosilicate.fine.ss03a.spectrum.txt
Measurement: Hemispherical reflectance
X Units: Wavelength (micrometers)
Y Units: Reflectance (percent)
wavelength	value
15.3853	2.6474
15.1161	2.5297
14.8563	2.7871
14.6052	3.0113
14.3624	3.5482
14.1276	4.0444
13.9004	4.1181
13.6803	5.2086
13.4671	5.1082
13.2604	5.4912
13.06	5.8735
12.8656	5.4391
12.6769	5.3154
12.4936	5.0594
12.3155	5.045
12.1425	5.3566
11.9742	5.6844
11.8106	5.6212
11.6513	5.8783
11.4963	5.6388
11.3454	5.9639
11.1983	5.9926
11.0551	5.7816
10.9154	6.4288
10.7793	5.8486
10.6465	5.6695
10.5169	5.9417
10.3904	6.6411
10.267	6.5911
10.1464	6.1957
10.0287	5.9114
9.9136	8.0364
9.8012	10.3281
9.6913	11.3412
9.5838	11.7881
9.4787	10.8059
9.3758	8.1848
9.2752	7.079
9.1767	6.3996
9.0803	6.405
8.9858	6.6838
8.8934	7.0373
8.8028	7.8501
8.714	8.0955
8.627	8.4939
8.5417	9.5097
8.4581	10.2809
8.3761	12.4002
8.2957	14.1227
8.2169	15.1973
8.1395	15.6817
8.0635	15.9497
7.989	17.0515
7.9158	17.1046
7.8439	17.4838
7.7734	17.8467
7.7041	17.6141
7.636	16.5995
7.5691	16.2033
7.5034	16.1936
7.4388	15.3165
7.3753	13.7757
7.3129	11.8928
7.2515	11.1294
7.1912	10.6174
7.1318	10.5169
7.0734	11.4853
7.016	11.0523
6.9595	11.042
6.9039	10.8846
6.8492	9.7978
6.7953	9.825
6.7423	11.2589
6.6901	13.8885
6.6387	16.6517
6.5881	18.0439
6.5382	19.1897
6.4892	19.9568
6.4408	17.6247
6.3931	14.8318
6.3462	20.5458
6.2999	23.3089
6.2543	25.4733
6.2094	25.6877
6.1651	25.3787
6.1214	25.3202
6.0784	25.5241
6.0359	25.6913
5.994	26.7048
5.9527	27.1164
5.912	27.7377
5.8718	28.259
5.8322	28.0244
5.7931	26.9617
5.7545	26.5024
5.7165	26.4871
5.6789	26.0632
5.6418	26.4891
5.6052	23.6689
5.5691	16.1711
5.5334	24.2388
5.4982	27.2045
5.4635	28.8535
5.4291	29.7878
5.3952	30.3886
5.3618	31.1037
5.3287	31.8237
5.2961	32.8742
5.2638	33.977
5.2319	35.3955
5.2004	36.8736
5.1693	38.2107
5.1386	39.6007
5.1082	40.631
5.0782	42.2737
5.0485	43.7293
5.0192	45.1698
4.9902	46.3745
4.9616	47.5083
4.9332	48.6248
4.9052	49.6988
4.8776	50.7097
4.8502	51.5838
4.8231	52.3877
4.7963	53.0837
4.7699	53.6689
4.7437	53.8777
4.7178	53.5879
4.6922	52.0674
4.6668	51.9881
4.6418	53.3377
4.617	54.4816
4.5924	54.9154
4.5681	55.1756
4.5441	55.2172
4.5203	55.4026
4.4968	55.7296
4.4735	56.1291
4.4505	56.5261
4.4277	56.8425
4.4051	57.1729
4.3828	57.365
4.3607	57.3944
4.3388	57.2388
4.3171	57.2281
4.2956	57.263
4.2744	57.2
4.2534	57.4494
4.2325	56.9732
4.2119	57.3252
4.1915	57.4643
4.1712	57.2549
4.1512	57.0391
4.1313	56.5856
4.1117	56.0377
4.0922	55.5286
4.0729	54.6223
4.0538	53.0533
4.0349	48.5299
4.0161	43.5156
3.9976	34.191
3.9792	30.6148
3.9609	32.6874
3.9428	39.3297
3.9249	41.8615
3.9072	42.3848
3.8896	42.861
3.8722	43.2512
3.8549	43.7318
3.8378	44.8518
3.8208	47.979
3.804	50.658
3.7873	52.7403
3.7708	52.8974
3.7544	52.619
3.7382	52.5703
3.7221	52.3427
3.7061	51.9796
3.6903	51.5278
3.6746	50.8973
3.659	50.3106
3.6436	49.7061
3.6283	48.8828
3.6131	48.2366
3.5981	47.3977
3.5832	46.1811
3.5684	45.0116
3.5537	44.2375
3.5391	42.7513
3.5247	39.3097
3.5104	35.1893
3.4962	32.8913
3.4821	30.6774
3.4681	32.3432
3.4543	33.8536
3.4405	33.476
3.4269	32.8608
3.4133	32.0212
3.3999	31.2429
3.3866	30.3317
3.3733	29.4137
3.3602	28.0578
3.3472	27.0601
3.3343	29.6612
3.3215	29.0182
3.3088	27.8971
3.2961	26.5029
3.2836	25.3227
3.2712	24.1077
3.2588	23.1143
3.2466	21.8099
3.2345	20.5783
3.2224	19.5068
3.2104	18.3657
3.1985	17.1893
3.1867	16.5774
3.175	15.8137
3.1634	15.4173
3.1519	15.0929
3.1404	15.0521
3.129	15.0621
3.1178	15.2937
3.1065	15.5334
3.0954	16.077
3.0844	16.5298
3.0734	16.9862
3.0625	17.6376
3.0517	18.0395
3.041	18.3345
3.0303	18.8683
3.0197	19.2494
3.0092	19.5704
2.9987	19.6314
2.9884	19.7559
2.9781	19.4979
2.9678	19.156
2.9577	18.8681
2.9476	18.5446
2.9376	18.061
2.9276	17.592
2.9177	17.2778
2.9079	17.2787
2.8982	17.3778
2.8885	17.5045
2.8789	17.2051
2.8693	16.799
2.8598	16.4212
2.8504	16.028
2.841	15.1895
2.8317	14.3459
2.8224	14.0919
2.8133	13.5395
2.8041	12.9696
2.7951	13.027
2.786	15.661
2.7771	18.656
2.7682	19.1443
2.7594	15.992
2.7506	13.4655
2.7418	15.2791
2.7332	17.7996
2.7246	18.5494
2.716	23.5194
2.7075	38.6487
2.699	47.3367
2.6906	51.3187
2.6823	53.966
2.674	55.9408
2.6657	59.2882
2.6575	58.3969
2.6494	59.0837
2.6413	60.3132
2.6332	61.6845
2.6252	62.6195
2.6173	64.5384
2.6094	64.4883
2.6015	64.8116
2.5937	66.9745
2.5859	65.7103
2.5782	65.8964
2.5706	66.3224
2.5629	67.1903
2.5554	66.5184
2.5478	66.8949
2.5403	66.5942
2.5329	67.0299
2.5255	67.4814
2.5181	67.7615
2.5108	67.9479
2.5035	67.9294
2.4963	67.9289
2.4891	67.8461
2.482	68.2622
2.4749	68.18
2.4678	68.3309
2.4608	68.5499
2.4538	68.4237
2.4468	68.3054
2.4399	68.0967
2.4331	68.1575
2.4262	68.2273
2.4194	68.3176
2.4127	68.3221
2.4059	68.3745
2.3993	68.6158
2.3926	68.9956
2.386	68.923
2.3795	68.9033
2.3729	68.8074
2.3664	68.3218
2.36	67.674
2.3535	67.3531
2.3471	67.4212
2.3408	67.993
2.3345	68.9697
2.3282	69.9351
2.3219	70.3528
2.3157	70.5953
2.3095	70.551
2.3034	70.9494
2.2972	71.8667
2.2911	72.4766
2.2851	73.1612
2.279	73.4852
2.2731	73.9558
2.2671	74.3224
2.2612	74.9017
2.2553	75.5258
2.2494	76.1262
2.2435	76.2667
2.2377	76.6539
2.232	76.9584
2.2262	77.295
2.2205	77.2912
2.2148	77.4864
2.2091	77.6462
2.2035	78.5038
2.1979	79.0224
2.1923	79.4111
2.1868	79.599
2.1812	80.0085
2.1758	80.126
2.1703	80.1418
2.1649	80.294
2.1595	80.3038
2.1541	80.2553
2.1487	80.068
2.1434	80.4761
2.1381	80.9528
2.1328	81.2907
2.1275	81.7024
2.1223	81.8819
2.1171	82.4161
2.112	82.6484
2.1068	82.9157
2.1017	83.363
2.0966	83.2973
2.0915	83.8195
2.0865	83.7746
2.0814	83.9074
2.0764	84.0482
2.0715	83.9466
2.0665	84.4047
2.0616	84.3096
2.0567	84.3015
2.0518	84.2338
2.0469	84.5426
2.0421	84.4534
2.0373	84.4148
2.0325	84.3844
2.0277	84.4358
2.0229	84.3886
2.0182	84.3802
2.0135	84.2601
2.0088	84.2464
2.0042	84.1844
