Name: Hematite alpha Fe_2O_3
Type: Mineral
Class: Oxide
Subclass: None
Particle Size: Fine
Sample No.: O-1B
Owner: JPL
Wavelength Range: VSWIR
Origin: Baker, J.T.
Description: Synthetic hematite.Particle size was 0-45um.Collected by:  JPL Original ASTER Spectral Library name was jpl.perkin.mineral.oxide.none.fine.o01b.spectrum.txt
Measurement: Hemispherical reflectance
X Units: Wavelength (micrometers)
Y Units: Reflectance (percent)
wavelength	value
2.5	78.5501
2.494	78.391
2.488	78.5491
2.482	78.7799
2.476	78.9306
2.47	79.1771
2.464	79.3324
2.458	79.643
2.452	79.7089
2.446	79.9549
2.44	80.2646
2.434	80.2439
2.428	80.5844
2.422	80.7371
2.416	81.0162
2.41	81.2656
2.404	81.2279
2.398	81.537
2.392	81.8221
2.386	82.0292
2.38	82.3397
2.374	82.4866
2.368	82.7956
2.362	83.0734
2.356	83.3637
2.35	83.586
2.344	83.8379
2.338	83.9279
2.332	84.0667
2.326	84.262
2.32	84.3445
2.314	84.2936
2.308	84.4653
2.302	84.5932
2.296	84.7362
2.29	84.7721
2.284	84.8935
2.278	84.9925
2.272	84.9616
2.266	85.1215
2.26	85.2693
2.254	85.2538
2.248	85.4487
2.242	85.543
2.236	85.6601
2.23	85.8221
2.224	85.9844
2.218	86.215
2.212	86.4581
2.206	86.5698
2.2	86.8341
2.194	86.9358
2.188	87.031
2.182	87.1274
2.176	87.3069
2.17	87.5265
2.164	87.7117
2.158	87.8596
2.152	87.9231
2.146	87.8606
2.14	87.8981
2.134	87.7985
2.128	87.5871
2.122	87.29
2.116	87.02
2.11	86.7451
2.104	86.4058
2.098	86.1397
2.092	86.2542
2.086	86.2614
2.08	86.3461
2.074	86.3259
2.068	86.4231
2.062	86.4461
2.056	86.3885
2.05	86.4036
2.044	86.4043
2.038	86.3564
2.032	86.3515
2.026	86.1932
2.02	86.1004
2.014	85.9876
2.008	85.8171
2.002	85.7243
1.996	85.513
1.99	85.3372
1.984	85.1042
1.978	85.0548
1.972	84.7658
1.966	84.6326
1.96	84.5372
1.954	84.4266
1.948	84.4555
1.942	84.4147
1.936	84.3268
1.93	84.627
1.924	84.7439
1.918	84.8232
1.912	85.02
1.906	85.3243
1.9	85.3967
1.894	85.3404
1.888	84.9255
1.882	84.9614
1.876	86.2261
1.87	87.806
1.864	88.4649
1.858	88.7079
1.852	88.9429
1.846	89.0435
1.84	89.1676
1.834	89.222
1.828	89.2382
1.822	89.2632
1.816	89.2819
1.81	89.3634
1.804	89.4031
1.798	89.3762
1.792	89.4413
1.786	89.4065
1.78	89.3688
1.774	89.4287
1.768	89.3761
1.762	89.4895
1.756	89.4594
1.75	89.4898
1.744	89.5932
1.738	89.6133
1.732	89.7165
1.726	89.7992
1.72	89.6835
1.714	89.7411
1.708	89.7319
1.702	89.7658
1.696	89.7144
1.69	89.7514
1.684	89.7709
1.678	89.8891
1.672	89.7925
1.666	89.7449
1.66	89.7641
1.654	89.7818
1.648	89.838
1.642	89.8847
1.636	89.8254
1.63	89.8259
1.624	89.8456
1.618	89.8335
1.612	89.8333
1.606	89.9042
1.6	89.8594
1.594	89.7602
1.588	89.8437
1.582	89.8028
1.576	89.7937
1.57	89.7169
1.564	89.6543
1.558	89.579
1.552	89.6271
1.546	89.5581
1.54	89.5284
1.534	89.3686
1.528	89.379
1.522	89.3018
1.516	89.2721
1.51	89.1706
1.504	89.1619
1.498	89.0476
1.492	88.9428
1.486	88.8598
1.48	88.8048
1.474	88.6954
1.468	88.4741
1.462	88.4491
1.456	88.2239
1.45	88.2926
1.444	88.2446
1.438	88.1756
1.432	88.1278
1.426	88.1269
1.42	87.9954
1.414	88.0694
1.408	88.2365
1.402	88.3942
1.396	88.3213
1.39	88.2
1.384	87.9514
1.378	88.4549
1.372	88.8193
1.366	88.9461
1.36	88.8377
1.354	88.7081
1.348	88.6628
1.342	88.5795
1.336	88.5403
1.33	88.3111
1.324	88.1669
1.318	88.0984
1.312	87.8492
1.306	87.6876
1.3	87.4644
1.294	87.2858
1.288	87.1198
1.282	86.7473
1.276	86.5367
1.27	86.1475
1.264	85.9589
1.258	85.5971
1.252	85.0921
1.246	84.6847
1.24	84.2283
1.234	83.6933
1.228	83.1272
1.222	82.5035
1.216	81.7785
1.21	80.994
1.204	80.1886
1.198	79.2824
1.192	78.2245
1.186	77.2442
1.18	76.1434
1.174	74.9042
1.168	73.8017
1.162	72.5164
1.156	71.2008
1.15	69.9746
1.144	68.6367
1.138	67.2176
1.132	66.0102
1.126	64.7707
1.12	63.4805
1.114	62.2887
1.108	61.1932
1.102	59.9389
1.096	58.9283
1.09	57.8802
1.084	56.7819
1.078	55.8204
1.072	54.7685
1.066	53.821
1.06	52.8241
1.054	51.814
1.048	50.8401
1.042	49.7928
1.036	48.6945
1.03	47.5238
1.024	46.3415
1.018	45.0177
1.012	43.6131
1.006	42.2175
1	40.7893
0.994	39.2832
0.988	37.8302
0.982	36.3543
0.976	34.9956
0.97	33.6111
0.964	32.3341
0.958	31.196
0.952	29.9789
0.946	28.9285
0.94	28.0664
0.934	27.1579
0.928	26.4912
0.922	25.7463
0.916	25.0866
0.91	24.574
0.904	24.1223
0.898	23.6945
0.892	23.4083
0.886	23.0553
0.88	22.8587
0.874	22.735
0.868	22.5469
0.862	22.4627
0.856	22.7822
0.85	22.8775
0.844	22.989
0.838	23.2287
0.832	23.4975
0.826	23.8273
0.82	24.2185
0.814	24.661
0.808	25.1842
0.802	25.7338
0.796	26.3206
0.79	26.9781
0.784	27.6525
0.778	28.3249
0.772	28.993
0.766	29.5872
0.76	30.1063
0.754	30.4855
0.748	30.7023
0.742	30.6857
0.736	30.4497
0.73	29.9634
0.724	29.2655
0.718	28.3953
0.712	27.4202
0.706	26.3893
0.7	25.3481
0.694	24.3423
0.688	23.3853
0.682	22.4781
0.676	21.6659
0.67	20.9227
0.664	20.2595
0.658	19.6862
0.652	19.1716
0.646	18.7284
0.64	18.3246
0.634	17.9604
0.628	17.6098
0.622	17.184
0.616	16.6232
0.61	15.8462
0.604	14.7634
0.598	13.3054
0.592	11.5103
0.586	9.5109
0.58	7.5547
0.574	5.8255
0.568	4.4712
0.562	3.5195
0.556	2.8881
0.55	2.5069
0.544	2.2777
0.538	2.132
0.532	2.04
0.526	1.9875
0.52	1.9443
0.514	1.9184
0.508	1.9005
0.502	1.8881
0.496	1.8802
0.49	1.874
0.484	1.8679
0.478	1.8667
0.472	1.876
0.466	1.8896
0.46	1.9092
0.454	1.9335
0.448	1.9607
0.442	1.9857
0.436	2.0093
0.43	2.0325
0.424	2.0571
0.418	2.0761
0.412	2.0974
0.406	2.1172
0.4	2.1373
