Name: Chlorite (Mg,Al)_6(Si,Al)_4O_10(OH)_8
Type: Mineral
Class: Silicate
Subclass: Phyllosilicate
Particle Size: Coarse
Sample No.: PS-12C
Owner: JPL
Wavelength Range: VSWIR
Origin: USA, California
Description: Particle size was 125-500um.Collected by Ward's Original ASTER Spectral Library name was jpl.beckman.mineral.silicate.phyllosilicate.coarse.ps12c.spectrum.txt
Measurement: Hemispherical reflectance
X Units: Wavelength (micrometers)
Y Units: Reflectance (percent)
wavelength	value
0.4	15.52
0.403	15.39
0.406	15.63
0.409	15.81
0.412	15.95
0.415	16.04
0.418	16.33
0.421	16.51
0.424	16.9
0.427	17.06
0.43	17.08
0.433	17.26
0.436	17.35
0.439	17.58
0.442	17.89
0.445	17.83
0.448	17.71
0.451	17.76
0.454	17.82
0.457	17.99
0.46	18.17
0.463	18.48
0.466	18.72
0.469	18.98
0.472	19.22
0.475	19.6
0.478	19.81
0.481	20.04
0.484	20.31
0.487	20.46
0.49	20.31
0.493	20.24
0.496	20.32
0.499	20.73
0.502	20.91
0.505	21
0.508	21.13
0.511	21.14
0.514	21.17
0.517	21.1
0.52	21.11
0.523	21.1
0.526	21.07
0.529	20.84
0.532	20.87
0.535	20.76
0.538	20.8
0.541	20.79
0.544	20.79
0.547	20.72
0.55	20.67
0.553	20.73
0.556	20.55
0.559	20.59
0.562	20.67
0.565	20.56
0.568	20.41
0.571	20.26
0.574	20.22
0.577	20.09
0.58	19.85
0.583	19.92
0.586	19.7
0.589	19.49
0.592	19.4
0.595	19.28
0.598	19.04
0.601	19.12
0.604	19.05
0.607	18.82
0.61	18.7
0.613	18.51
0.616	18.48
0.619	18.12
0.622	18.17
0.625	18.08
0.628	17.89
0.631	17.71
0.634	17.55
0.637	17.49
0.64	17.25
0.643	17.31
0.646	17.02
0.649	16.92
0.652	16.76
0.655	16.67
0.658	16.39
0.661	16.43
0.664	16.37
0.667	16.14
0.67	16.07
0.673	15.95
0.676	15.87
0.679	15.81
0.682	15.8
0.685	15.72
0.688	15.62
0.691	15.5
0.694	15.58
0.697	15.52
0.7	15.42
0.703	15.32
0.706	15.27
0.709	15.49
0.712	15.44
0.715	15.28
0.718	15.32
0.721	15.27
0.724	15.4
0.727	15.45
0.73	15.58
0.733	15.49
0.736	15.49
0.739	15.55
0.742	15.66
0.745	15.7
0.748	15.87
0.751	15.99
0.754	15.98
0.757	16.12
0.76	16.3
0.763	16.47
0.766	16.77
0.769	16.94
0.772	16.82
0.775	17
0.778	17.07
0.781	17.15
0.784	16.96
0.787	17.12
0.79	17.17
0.793	17.18
0.796	17.42
0.799	17.4
0.808	17.63
0.82	17.45
0.832	17.24
0.844	17.01
0.856	16.75
0.868	16.63
0.88	16.42
0.892	16.35
0.904	16.49
0.916	16.56
0.928	16.76
0.94	16.99
0.952	17.24
0.964	17.55
0.976	17.68
0.988	17.85
1	17.97
1.012	18.19
1.024	18.04
1.036	18.21
1.048	18.09
1.06	18.11
1.072	18.09
1.084	18.21
1.096	18.22
1.108	18.38
1.12	18.48
1.132	18.71
1.144	18.95
1.156	19.25
1.168	19.52
1.18	19.93
1.192	20.28
1.204	20.77
1.216	21.21
1.228	21.79
1.24	22.28
1.252	22.85
1.264	23.47
1.276	23.9
1.288	24.54
1.3	25
1.312	25.61
1.324	26.25
1.336	26.83
1.348	27.41
1.36	27.99
1.372	28.65
1.384	25.08
1.396	26.59
1.408	28.08
1.42	28.93
1.432	28.9
1.444	29.39
1.456	30.31
1.468	31.37
1.48	31.99
1.492	32.59
1.504	32.88
1.516	33.24
1.528	33.59
1.54	34.05
1.552	34.75
1.564	35.41
1.576	36.3
1.588	37.24
1.6	38.05
1.612	38.93
1.624	39.9
1.636	40.61
1.648	41.53
1.66	42.29
1.672	42.93
1.684	43.67
1.696	44.26
1.708	44.96
1.72	45.52
1.732	45.99
1.744	46.58
1.756	46.96
1.768	47.35
1.78	47.58
1.792	47.99
1.804	47.88
1.816	47.86
1.828	47.65
1.84	47.12
1.852	46.31
1.864	45.67
1.876	45.12
1.888	45.64
1.9	45.89
1.912	45.93
1.924	45.82
1.936	45
1.948	43.93
1.96	43.16
1.972	42.27
1.984	41.66
1.996	41.94
2.008	42.91
2.02	44.81
2.032	47.2
2.044	49.06
2.056	50.44
2.068	51.38
2.08	51.84
2.092	51.31
2.104	50.57
2.116	50.63
2.128	50.84
2.14	50.76
2.152	50.28
2.164	49.36
2.176	48.02
2.188	46.45
2.2	44.38
2.212	41.26
2.224	36.48
2.236	31.17
2.248	28.42
2.26	28.27
2.272	27.5
2.284	25.58
2.296	23.55
2.308	21.88
2.32	20.96
2.332	21.06
2.344	22.42
2.356	24.38
2.368	25.94
2.38	26.79
2.392	27.69
2.404	28.85
2.416	29.61
2.428	29.19
2.44	28.4
2.452	27.48
2.464	26.72
2.476	26.37
2.488	26.33
2.5	26.38
