Name: Scheelite CaWO_4
Type: Mineral
Class: Tungstate
Subclass: None
Particle Size: Coarse
Sample No.: T-1A
Owner: JPL
Wavelength Range: VSWIR
Origin: USA, California, Kern County, Atolia.
Description: Particle size was 125-500um. Collected by: Burminco. Original ASTER Spectral Library name was jpl.perkin.mineral.tungstate.none.coarse.t01a.spectrum.txt
Measurement: Hemispherical reflectance
X Units: Wavelength (micrometers)
Y Units: Reflectance (percent)
wavelength	value
2.5	60.2514
2.494	60.2194
2.488	60.4544
2.482	60.6401
2.476	60.8391
2.47	61.1787
2.464	61.4352
2.458	61.7664
2.452	61.9547
2.446	62.2608
2.44	62.5644
2.434	62.8103
2.428	63.0977
2.422	63.5196
2.416	63.7373
2.41	64.0306
2.404	64.2935
2.398	64.4795
2.392	64.7232
2.386	64.9465
2.38	65.1617
2.374	65.3901
2.368	65.4584
2.362	65.6225
2.356	65.633
2.35	65.6401
2.344	65.7327
2.338	65.8901
2.332	66.1991
2.326	66.5131
2.32	66.6919
2.314	66.8685
2.308	67.0644
2.302	67.2728
2.296	67.4899
2.29	67.7755
2.284	68.0026
2.278	68.2422
2.272	68.3871
2.266	68.5143
2.26	68.4653
2.254	68.5315
2.248	68.5614
2.242	68.5893
2.236	68.6693
2.23	68.6114
2.224	68.4843
2.218	68.1676
2.212	67.9449
2.206	67.805
2.2	67.8886
2.194	68.1263
2.188	68.6887
2.182	69.2057
2.176	69.7973
2.17	70.2008
2.164	70.593
2.158	70.8686
2.152	71.123
2.146	71.1522
2.14	71.1225
2.134	71.0661
2.128	70.9256
2.122	70.6073
2.116	70.405
2.11	70.0824
2.104	69.853
2.098	69.7136
2.092	69.7134
2.086	69.7586
2.08	69.7267
2.074	69.7331
2.068	69.6403
2.062	69.5597
2.056	69.5947
2.05	69.4264
2.044	69.2673
2.038	69.1171
2.032	68.9767
2.026	68.6944
2.02	68.3744
2.014	68.1152
2.008	67.7783
2.002	67.5052
1.996	67.1324
1.99	66.7621
1.984	66.2861
1.978	65.8429
1.972	65.3876
1.966	65.1142
1.96	64.6665
1.954	64.3583
1.948	63.996
1.942	63.7989
1.936	63.5587
1.93	63.2552
1.924	63.089
1.918	63.128
1.912	63.2034
1.906	63.7999
1.9	65.2164
1.894	67.0763
1.888	68.8427
1.882	70.3283
1.876	71.2419
1.87	71.9118
1.864	72.352
1.858	72.5944
1.852	72.7543
1.846	72.8393
1.84	72.812
1.834	72.9301
1.828	72.9836
1.822	72.9807
1.816	72.9426
1.81	72.9675
1.804	72.9864
1.798	72.9731
1.792	72.93
1.786	72.9224
1.78	72.8198
1.774	72.8494
1.768	72.8153
1.762	72.8305
1.756	72.8452
1.75	72.8512
1.744	72.8918
1.738	72.9138
1.732	72.939
1.726	72.826
1.72	72.8567
1.714	72.9156
1.708	72.9293
1.702	72.9124
1.696	72.8765
1.69	72.8789
1.684	72.7969
1.678	72.7932
1.672	72.8624
1.666	72.849
1.66	72.9005
1.654	72.7987
1.648	72.8542
1.642	72.777
1.636	72.7626
1.63	72.6955
1.624	72.6935
1.618	72.6612
1.612	72.6367
1.606	72.578
1.6	72.4669
1.594	72.529
1.588	72.3504
1.582	72.3125
1.576	72.1931
1.57	72.0778
1.564	72.0114
1.558	71.8523
1.552	71.7236
1.546	71.638
1.54	71.401
1.534	71.3121
1.528	71.1359
1.522	70.9524
1.516	70.8444
1.51	70.6375
1.504	70.4142
1.498	70.139
1.492	69.8962
1.486	69.659
1.48	69.4692
1.474	69.2518
1.468	69.0336
1.462	68.7972
1.456	68.6431
1.45	68.4706
1.444	68.3641
1.438	68.0477
1.432	67.7921
1.426	67.4467
1.42	66.8994
1.414	66.4892
1.408	66.6696
1.402	67.1614
1.396	67.8525
1.39	68.3609
1.384	68.6163
1.378	68.7441
1.372	68.6234
1.366	68.577
1.36	68.4438
1.354	68.3899
1.348	68.1946
1.342	68.0984
1.336	67.9843
1.33	67.8538
1.324	67.6709
1.318	67.5119
1.312	67.3469
1.306	67.2073
1.3	67.036
1.294	66.924
1.288	66.6821
1.282	66.5863
1.276	66.4736
1.27	66.2815
1.264	66.1316
1.258	65.9965
1.252	65.8438
1.246	65.6732
1.24	65.4826
1.234	65.4097
1.228	65.2057
1.222	65.043
1.216	64.8414
1.21	64.7123
1.204	64.5595
1.198	64.3754
1.192	64.2626
1.186	64.0315
1.18	63.8911
1.174	63.6312
1.168	63.3798
1.162	63.1611
1.156	62.9625
1.15	62.8064
1.144	62.5551
1.138	62.2946
1.132	62.038
1.126	61.9162
1.12	61.5709
1.114	61.2936
1.108	61.1136
1.102	60.827
1.096	60.6287
1.09	60.4161
1.084	60.1732
1.078	60.0269
1.072	59.8147
1.066	59.6799
1.06	59.4751
1.054	59.3483
1.048	59.244
1.042	59.1201
1.036	58.9968
1.03	58.8765
1.024	58.7885
1.018	58.704
1.012	58.5738
1.006	58.4305
1	58.461
0.994	58.4193
0.988	58.3085
0.982	58.3227
0.976	58.2444
0.97	58.2527
0.964	58.1792
0.958	58.1259
0.952	58.0899
0.946	58.0758
0.94	58.1142
0.934	58.0509
0.928	58.056
0.922	58.0431
0.916	58.0673
0.91	57.9976
0.904	57.9884
0.898	57.9722
0.892	57.9713
0.886	57.9959
0.88	57.9516
0.874	57.9908
0.868	57.9192
0.862	57.9693
0.856	58.4555
0.85	58.675
0.844	58.6618
0.838	58.7467
0.832	58.8786
0.826	58.9486
0.82	59.0585
0.814	59.1562
0.808	59.2597
0.802	59.2972
0.796	59.3611
0.79	59.5026
0.784	59.5891
0.778	59.6274
0.772	59.6599
0.766	59.6605
0.76	59.6281
0.754	59.5202
0.748	59.4452
0.742	59.3377
0.736	59.1623
0.73	59.0531
0.724	58.8502
0.718	58.6042
0.712	58.3587
0.706	58.0776
0.7	57.8084
0.694	57.5238
0.688	57.2492
0.682	56.9732
0.676	56.7
0.67	56.4345
0.664	56.1892
0.658	55.9901
0.652	55.7757
0.646	55.5778
0.64	55.382
0.634	55.1639
0.628	54.965
0.622	54.8207
0.616	54.6488
0.61	54.4793
0.604	54.2544
0.598	54.0103
0.592	53.6205
0.586	53.1442
0.58	52.7779
0.574	52.2655
0.568	51.7278
0.562	50.9912
0.556	50.1366
0.55	49.2157
0.544	48.2577
0.538	47.2694
0.532	46.2706
0.526	45.2692
0.52	44.3575
0.514	43.4932
0.508	42.6714
0.502	41.877
0.496	41.1174
0.49	40.4627
0.484	39.8796
0.478	39.457
0.472	39.0425
0.466	38.6793
0.46	38.2806
0.454	37.7924
0.448	37.2199
0.442	36.5397
0.436	35.7293
0.43	34.8958
0.424	34.1355
0.418	33.4656
0.412	32.8006
0.406	32.1294
0.4	31.4526
