Name: Cummingtonite (Mg,Fe^2+)_7Si_8O_22(OH)_2
Type: Mineral
Class: Silicate
Subclass: Inosilicate
Particle Size: Fine
Sample No.: IN-6A
Owner: JPL
Wavelength Range: VSWIR
Origin: USA, South Dakota
Description: Particle size was 0-45um.Collected by Ward's Original ASTER Spectral Library name was jpl.beckman.mineral.silicate.inosilicate.fine.in06a.spectrum.txt
Measurement: Hemispherical reflectance
X Units: Wavelength (micrometers)
Y Units: Reflectance (percent)
wavelength	value
0.4	11.01
0.403	11.22
0.406	11.4
0.409	11.55
0.412	11.79
0.415	11.85
0.418	12.08
0.421	12.2
0.424	12.44
0.427	12.58
0.43	12.83
0.433	12.93
0.436	13.19
0.439	13.43
0.442	13.5
0.445	13.68
0.448	13.82
0.451	14.05
0.454	14.03
0.457	14.25
0.46	14.36
0.463	14.38
0.466	14.56
0.469	14.74
0.472	14.82
0.475	14.87
0.478	14.99
0.481	15.06
0.484	15.36
0.487	15.48
0.49	15.57
0.493	15.66
0.496	15.76
0.499	16.02
0.502	16.08
0.505	16.05
0.508	16.04
0.511	16.28
0.514	16.5
0.517	16.58
0.52	16.8
0.523	16.86
0.526	17.19
0.529	17.31
0.532	17.16
0.535	17.32
0.538	17.61
0.541	17.51
0.544	17.25
0.547	17.29
0.55	17.57
0.553	17.75
0.556	17.9
0.559	17.84
0.562	17.97
0.565	18.04
0.568	18
0.571	17.95
0.574	18.15
0.577	18
0.58	17.95
0.583	18.02
0.586	17.97
0.589	17.92
0.592	18.07
0.595	18.01
0.598	17.85
0.601	18.08
0.604	18.04
0.607	17.94
0.61	17.92
0.613	17.91
0.616	17.94
0.619	17.95
0.622	17.78
0.625	17.66
0.628	17.82
0.631	17.79
0.634	17.8
0.637	17.68
0.64	17.66
0.643	17.41
0.646	17.35
0.649	17.42
0.652	17.32
0.655	17.37
0.658	17.23
0.661	17.02
0.664	17
0.667	17.1
0.67	16.99
0.673	16.97
0.676	16.97
0.679	16.87
0.682	16.87
0.685	16.92
0.688	16.82
0.691	16.71
0.694	16.85
0.697	16.91
0.7	16.85
0.703	16.88
0.706	16.87
0.709	16.86
0.712	16.69
0.715	16.77
0.718	16.83
0.721	16.79
0.724	16.69
0.727	16.79
0.73	16.88
0.733	16.83
0.736	16.92
0.739	16.8
0.742	16.87
0.745	16.89
0.748	16.94
0.751	16.9
0.754	16.9
0.757	17
0.76	16.98
0.763	17.03
0.766	17.05
0.769	17.09
0.772	17.15
0.775	17.07
0.778	17.03
0.781	17.15
0.784	17.14
0.787	17.26
0.79	17.21
0.793	17.2
0.796	17.33
0.799	17.36
0.808	17.36
0.82	17.2
0.832	16.79
0.844	16.38
0.856	15.84
0.868	15.43
0.88	15
0.892	14.4
0.904	13.92
0.916	13.45
0.928	13.04
0.94	12.74
0.952	12.52
0.964	12.45
0.976	12.39
0.988	12.4
1	12.62
1.012	13.16
1.024	13.83
1.036	14.52
1.048	15.25
1.06	15.85
1.072	16.3
1.084	16.75
1.096	17.01
1.108	17.24
1.12	17.4
1.132	17.49
1.144	17.51
1.156	17.57
1.168	17.61
1.18	17.85
1.192	17.96
1.204	18
1.216	18.12
1.228	18.18
1.24	18.31
1.252	18.55
1.264	18.69
1.276	18.85
1.288	18.96
1.3	19.1
1.312	19.16
1.324	19.18
1.336	19.26
1.348	19.46
1.36	19.56
1.372	19.74
1.384	19.82
1.396	19.78
1.408	19.66
1.42	20
1.432	20.08
1.444	20.22
1.456	20.32
1.468	20.43
1.48	20.49
1.492	20.6
1.504	20.57
1.516	20.62
1.528	20.59
1.54	20.67
1.552	20.74
1.564	20.76
1.576	20.85
1.588	20.85
1.6	20.91
1.612	20.86
1.624	20.96
1.636	20.98
1.648	20.97
1.66	21
1.672	20.97
1.684	20.96
1.696	21.03
1.708	21.15
1.72	21.17
1.732	21.2
1.744	21.17
1.756	21.17
1.768	21.17
1.78	21.26
1.792	21.27
1.804	21.22
1.816	21.15
1.828	21.24
1.84	21.27
1.852	21.18
1.864	21.08
1.876	21.08
1.888	21.03
1.9	21.01
1.912	21.04
1.924	21.04
1.936	20.99
1.948	21.01
1.96	20.93
1.972	20.96
1.984	20.96
1.996	20.94
2.008	20.95
2.02	20.94
2.032	20.95
2.044	20.96
2.056	20.92
2.068	20.88
2.08	20.91
2.092	20.8
2.104	20.77
2.116	20.74
2.128	20.71
2.14	20.65
2.152	20.44
2.164	20.35
2.176	20.2
2.188	20.16
2.2	20.04
2.212	19.9
2.224	19.85
2.236	19.75
2.248	19.65
2.26	19.53
2.272	19.46
2.284	19.3
2.296	19.08
2.308	18.73
2.32	18.63
2.332	18.58
2.344	18.53
2.356	18.59
2.368	18.56
2.38	18.42
2.392	18.28
2.404	18.26
2.416	18.19
2.428	18.17
2.44	18.08
2.452	18.09
2.464	17.98
2.476	17.86
2.488	17.91
2.5	17.92
