Name: Pyrope Mg3Al2(SiO4)3
Type: Mineral
Class: Silicate
Subclass: Nesosilicate
Particle Size: Solid
Sample No.: pyrope_1
Owner: JHU
Wavelength Range: TIR
Origin: Finsch Mine, Brits Farm, 23 miles E. of Posemasburg, CapeProv., South Africa, via the Smithsonian (sample no. NMNH 121624)
Description: The sample consisted of many rounded (tumbled?) pieces about 3 mm in diameter, with a total weight of 19.3 g.  Dark maroon in color, some pieces contained a green mineral (chlorite?, uvarovite?), limonitic alteration, and a soft, thin, cream-colored coating (talc?).  These pieces (<1% of total sample) were discarded.  The remaining sample appears pure under the microscope. (Isolated tetrahedra); Garnet Group Original ASTER Spectral Library name was jhu.nicolet.mineral.silicate.nesosilicate.solid.pyrope1.spectrum.txt
Measurement: Bidirectional reflectance
X Units: Wavelength (micrometers)
Y Units: Reflectance (percent)
wavelength	value
25.0442	3.9136
24.3388	4.3315
23.6719	5.167
23.0407	6.9917
22.4422	9.9018
21.8741	11.8247
21.334	9.8415
20.8199	12.7104
20.33	13.1779
19.8627	12.5627
19.4163	10.3315
18.9896	7.3598
18.5812	7.2253
18.19	2.4446
17.815	2.5273
17.4551	7.3349
17.1094	9.0737
16.7772	7.8276
16.4576	5.0036
16.15	1.4448
15.8537	0.2312
15.568	0.2766
15.2925	0.4922
15.0265	0.6982
14.7697	0.9031
14.5214	1.1465
14.2814	1.3545
14.0492	1.554
13.8244	1.7576
13.6067	1.9529
13.3957	2.1973
13.1912	2.3821
12.9929	2.6045
12.8004	2.9067
12.6135	3.2502
12.432	3.6435
12.2557	3.9236
12.0843	4.5649
11.9176	5.626
11.7555	6.8464
11.5977	8.3596
11.444	8.6189
11.2944	7.73
11.1487	9.6377
11.0067	9.5193
10.8682	7.8069
10.7332	4.0718
10.6015	2.8393
10.473	5.7878
10.3476	10.9221
10.2251	13.1338
10.1056	13.6921
9.9887	13.7417
9.8746	13.2092
9.763	12.135
9.6539	11.1062
9.5472	9.5681
9.4429	7.4665
9.3408	4.9241
9.2409	2.5955
9.1431	1.0391
9.0474	0.2891
8.9536	0.0422
8.8618	0.0757
8.7718	0.1133
8.6837	0.1738
8.5973	0.2378
8.5126	0.2905
8.4295	0.334
8.3481	0.3914
8.2682	0.4451
8.1898	0.4941
8.1129	0.5452
8.0374	0.585
7.9634	0.6313
7.8906	0.6709
7.8192	0.6995
7.7491	0.7288
7.6802	0.7686
7.6126	0.804
7.5461	0.8425
7.4807	0.8625
7.4165	0.895
7.3534	0.9228
7.2914	0.9526
7.2303	0.9675
7.1703	0.9941
7.1113	1.0232
7.0533	1.0391
6.9962	1.0674
6.94	1.092
6.8847	1.1096
6.8302	1.1355
6.7767	1.1382
6.7239	1.1565
6.672	1.1748
6.6209	1.1953
6.5705	1.207
6.5209	1.2305
6.4721	1.2522
6.424	1.2554
6.3766	1.2925
6.3299	1.3113
6.2838	1.3254
6.2385	1.3433
6.1937	1.3652
6.1496	1.3689
6.1062	1.3787
6.0633	1.3931
6.0211	1.4089
5.9794	1.4204
5.9383	1.4106
5.8978	1.4329
5.8578	1.4553
5.8184	1.4714
5.7794	1.4646
5.741	1.468
5.7031	1.4802
5.6657	1.4951
5.6288	1.5039
5.5924	1.5183
5.5564	1.519
5.5209	1.5391
5.4859	1.5386
5.4513	1.5474
5.4171	1.5564
5.3833	1.5759
5.35	1.574
5.3171	1.5818
5.2846	1.5891
5.2524	1.5957
5.2207	1.6006
5.1893	1.6045
5.1584	1.6221
5.1277	1.6279
5.0975	1.6377
5.0676	1.646
5.038	1.666
5.0088	1.6934
4.98	1.7034
4.9514	1.7104
4.9232	1.7322
4.8953	1.7571
4.8678	1.7676
4.8405	1.7773
4.8135	1.7947
4.7868	1.8074
4.7605	1.8191
4.7344	1.8359
4.7086	1.8359
4.6831	1.8428
4.6578	1.8518
4.6328	1.8657
4.6081	1.8874
4.5837	1.8879
4.5595	1.8935
4.5356	1.9048
4.5119	1.915
4.4884	1.916
4.4652	1.9277
4.4423	1.9358
4.4196	1.9529
4.3971	1.968
4.3748	1.9731
4.3528	1.9858
4.331	1.9966
4.3094	1.9954
4.288	2.0088
4.2668	2.0249
4.2458	2.0369
4.2251	2.0435
4.2045	2.0623
4.1841	2.0554
4.164	2.0676
4.144	2.084
4.1242	2.0791
4.1046	2.0832
4.0852	2.094
4.066	2.1013
4.047	2.1108
4.0281	2.0996
4.0094	2.0945
3.9909	2.0874
3.9725	2.1023
3.9544	2.0964
3.9363	2.1116
3.9185	2.1133
3.9008	2.1238
3.8833	2.1228
3.8659	2.1343
3.8487	2.1406
3.8316	2.146
3.8147	2.1548
3.7979	2.155
3.7813	2.167
3.7648	2.1728
3.7485	2.1741
3.7323	2.1853
3.7162	2.2012
3.7003	2.2009
3.6845	2.2034
3.6689	2.2175
3.6534	2.2114
3.638	2.2244
3.6227	2.2273
3.6076	2.2275
3.5926	2.2292
3.5777	2.2358
3.563	2.2317
3.5484	2.2241
3.5338	2.2278
3.5195	2.2361
3.5052	2.2322
3.491	2.2202
3.477	2.2183
3.463	2.23
3.4492	2.2336
3.4355	2.2312
3.4219	2.2378
3.4084	2.2285
3.395	2.2192
3.3817	2.22
3.3685	2.2078
3.3554	2.2261
3.3425	2.2195
3.3296	2.24
3.3168	2.2456
3.3041	2.2727
3.2915	2.2766
3.279	2.2905
3.2666	2.2991
3.2543	2.3047
3.2421	2.2971
3.23	2.2913
3.218	2.3064
3.206	2.3122
3.1942	2.3105
3.1824	2.3101
3.1707	2.301
3.1591	2.3083
3.1476	2.3039
3.1362	2.3081
3.1249	2.2961
3.1136	2.3079
3.1024	2.3032
3.0913	2.2978
3.0803	2.3147
3.0694	2.3054
3.0585	2.312
3.0477	2.3159
3.037	2.3235
3.0264	2.3081
3.0158	2.321
3.0053	2.3369
2.9949	2.3225
2.9845	2.3391
2.9743	2.3262
2.9641	2.3284
2.9539	2.3289
2.9439	2.3462
2.9339	2.3601
2.9239	2.356
2.9141	2.3384
2.9043	2.3481
2.8946	2.3462
2.8849	2.3486
2.8753	2.3442
2.8658	2.3484
2.8563	2.3406
2.8469	2.3574
2.8375	2.3774
2.8282	2.3691
2.819	2.3762
2.8098	2.3765
2.8007	2.3818
2.7917	2.3826
2.7827	2.4155
2.7738	2.4226
2.7649	2.4343
2.7561	2.4253
2.7473	2.4375
2.7386	2.4548
2.7299	2.4785
2.7213	2.4897
2.7128	2.5066
2.7043	2.5232
2.6959	2.5347
2.6875	2.5571
2.6791	2.564
2.6709	2.5632
2.6626	2.5671
2.6545	2.5598
2.6463	2.5593
2.6382	2.5764
2.6302	2.5644
2.6222	2.5642
2.6143	2.5449
2.6064	2.5454
2.5986	2.5684
2.5908	2.5806
2.583	2.5679
2.5753	2.5869
2.5677	2.5749
2.5601	2.5588
2.5525	2.582
2.545	2.5669
2.5375	2.5706
2.5301	2.5742
2.5227	2.5684
2.5154	2.5559
2.5081	2.5884
2.5008	2.5791
2.4936	2.5879
2.4864	2.6123
2.4793	2.5769
2.4722	2.571
2.4651	2.5698
2.4581	2.602
2.4511	2.5793
2.4442	2.6003
2.4373	2.5859
2.4305	2.5942
2.4236	2.5703
2.4169	2.6106
2.4101	2.595
2.4034	2.6064
2.3967	2.6147
2.3901	2.6274
2.3835	2.6089
2.377	2.5976
2.3704	2.6299
2.364	2.6279
2.3575	2.623
2.3511	2.6123
2.3447	2.6328
2.3384	2.6577
2.3321	2.6411
2.3258	2.6611
2.3195	2.6601
2.3133	2.6333
2.3071	2.6687
2.301	2.6689
2.2949	2.6626
2.2888	2.666
2.2828	2.6575
2.2767	2.6728
2.2708	2.6841
2.2648	2.6907
2.2589	2.731
2.253	2.7559
2.2471	2.7446
2.2413	2.7978
2.2355	2.7832
2.2297	2.7776
2.224	2.8137
2.2183	2.833
2.2126	2.8193
2.207	2.8401
2.2013	2.8159
2.1957	2.814
2.1902	2.8498
2.1846	2.8306
2.1791	2.842
2.1736	2.8332
2.1682	2.8965
2.1628	2.8928
2.1574	2.9018
2.152	2.895
2.1466	2.8928
2.1413	2.8674
2.136	2.9221
2.1308	2.9121
2.1255	2.9448
2.1203	2.887
2.1151	2.9072
2.11	2.9446
2.1048	2.9556
2.0997	2.9414
2.0946	2.9385
2.0895	2.9846
2.0845	2.9541
2.0795	2.9514
