Name: Beryl Be3Al2Si6O18
Type: Mineral
Class: Silicate
Subclass: Cyclosilicate
Particle Size: Coarse
Sample No.: beryl_1
Owner: JHU
Wavelength Range: TIR
Origin: Sample from Maine via Hunt and Salisbury Collection sample#180B (purchased from Ward's Natural Science Establishment).
Description: The hand sample was cut and polished along an unknown axis.  It was pale green and appeared pure.  Microscopic examination showed a small amount (2% or less) of very fine, low birefringent material in the sample.  The contaminating grains occasionally have rhombic or cubic shape.  These grains were unidentifiable. Particle size was 74-250 Micrometers. (Ring Silicates) Original ASTER Spectral Library name was jhu.nicolet.mineral.silicate.cyclosilicate.coarse.beryl1.spectrum.txt
Measurement: Bidirectional reflectance
X Units: Wavelength (micrometers)
Y Units: Reflectance (percent)
wavelength	value
25.0442	4.0976
24.3388	4.8498
23.6719	5.8428
23.0407	7.625
22.4422	8.4721
21.8741	8.8659
21.334	8.7546
20.8199	5.9451
20.33	6.8034
19.8627	3.977
19.4163	5.7888
18.9896	7.1763
18.5812	7.2763
18.19	6.3
17.815	3.3552
17.4551	2.187
17.1094	3.3562
16.7772	6.3047
16.4576	4.5857
16.15	1.8235
15.8537	2.3169
15.568	2.7351
15.2925	3.0959
15.0265	3.2688
14.7697	4.8828
14.5214	6.2932
14.2814	4.9595
14.0492	2.6326
13.8244	2.7793
13.6067	3.5171
13.3957	4.126
13.1912	4.1553
12.9929	2.7417
12.8004	2.0867
12.6135	2.6218
12.432	3.4897
12.2557	3.803
12.0843	3.1836
11.9176	2.3025
11.7555	2.144
11.5977	2.3757
11.444	2.6538
11.2944	3.008
11.1487	3.3821
11.0067	3.9563
10.8682	4.843
10.7332	5.8642
10.6015	6.8699
10.473	8.3567
10.3476	9.3691
10.2251	9.0176
10.1056	7.8081
9.9887	5.5827
9.8746	5.7688
9.763	6.8782
9.6539	6.0837
9.5472	4.9568
9.4429	4.6875
9.3408	4.9436
9.2409	5.1931
9.1431	5.1975
9.0474	5.0447
8.9536	4.7312
8.8618	4.3303
8.7718	3.9319
8.6837	3.5317
8.5973	3.344
8.5126	3.4636
8.4295	3.7095
8.3481	5.1814
8.2682	6.2358
8.1898	6.4807
8.1129	6.6653
8.0374	6.8296
7.9634	6.9507
7.8906	7.1772
7.8192	7.6616
7.7491	7.4167
7.6802	5.9302
7.6126	4.4975
7.5461	3.134
7.4807	2.0332
7.4165	1.1689
7.3534	0.5769
7.2914	0.4194
7.2303	0.4631
7.1703	0.5388
7.1113	0.6116
7.0533	0.6787
6.9962	0.7402
6.94	0.8037
6.8847	0.844
6.8302	0.8884
6.7767	0.9756
6.7239	1.0872
6.672	1.1663
6.6209	1.282
6.5705	1.4272
6.5209	1.4329
6.4721	1.2146
6.424	1.3877
6.3766	1.5806
6.3299	1.6934
6.2838	1.6201
6.2385	1.3586
6.1937	1.5107
6.1496	1.1477
6.1062	1.1084
6.0633	1.5774
6.0211	1.7993
5.9794	2.1765
5.9383	2.2976
5.8978	2.2727
5.8578	2.1694
5.8184	2.073
5.7794	2.0803
5.741	2.1558
5.7031	2.2664
5.6657	2.2993
5.6288	2.2646
5.5924	2.2219
5.5564	2.3223
5.5209	2.3193
5.4859	2.3694
5.4513	2.5757
5.4171	2.7493
5.3833	2.8328
5.35	2.7847
5.3171	2.6606
5.2846	2.4407
5.2524	2.0718
5.2207	1.7341
5.1893	1.5752
5.1584	1.5459
5.1277	1.5691
5.0975	1.6865
5.0676	1.925
5.038	2.1919
5.0088	2.4348
4.98	2.7405
4.9514	3.0371
4.9232	3.2751
4.8953	3.5998
4.8678	4.0376
4.8405	4.4485
4.8135	4.7834
4.7868	5.3818
4.7605	6.0327
4.7344	6.4958
4.7086	6.8362
4.6831	7.0044
4.6578	7.1631
4.6328	7.4394
4.6081	7.812
4.5837	8.115
4.5595	8.3689
4.5356	8.635
4.5119	8.7822
4.4884	8.7615
4.4652	8.7263
4.4423	8.9331
4.4196	9.3247
4.3971	9.7075
4.3748	9.9739
4.3528	9.9602
4.331	9.8894
4.3094	9.1333
4.288	7.4136
4.2668	5.3274
4.2458	3.876
4.2251	4.5405
4.2045	5.8511
4.1841	10.3269
4.164	12.0156
4.144	12.3313
4.1242	12.4316
4.1046	12.4404
4.0852	12.4558
4.066	12.4992
4.047	12.5298
4.0281	12.6123
4.0094	12.7819
3.9909	12.9216
3.9725	13.0388
3.9544	13.1186
3.9363	13.1867
3.9185	13.2378
3.9008	13.2902
3.8833	13.3408
3.8659	13.3694
3.8487	13.3901
3.8316	13.4145
3.8147	13.4297
3.7979	13.4233
3.7813	13.4052
3.7648	13.5083
3.7485	13.5236
3.7323	13.5354
3.7162	13.5556
3.7003	13.5808
3.6845	13.5659
3.6689	13.5398
3.6534	13.55
3.638	13.5656
3.6227	13.6018
3.6076	13.645
3.5926	13.6684
3.5777	13.7102
3.563	13.716
3.5484	13.7243
3.5338	13.7251
3.5195	13.7085
3.5052	13.6877
3.491	13.6799
3.477	13.6479
3.463	13.612
3.4492	13.5649
3.4355	13.4956
3.4219	13.4016
3.4084	13.3007
3.395	13.2483
3.3817	13.1875
3.3685	13.1291
3.3554	13.0542
3.3425	12.9758
3.3296	12.8984
3.3168	12.7844
3.3041	12.7087
3.2915	12.6152
3.279	12.5171
3.2666	12.4406
3.2543	12.354
3.2421	12.2436
3.23	12.0373
3.218	11.6843
3.206	11.6208
3.1942	11.5696
3.1824	11.458
3.1707	11.2353
3.1591	11.0654
3.1476	11.0053
3.1362	10.8415
3.1249	10.6396
3.1136	10.365
3.1024	9.8049
3.0913	9.2864
3.0803	9.6338
3.0694	9.9968
3.0585	10.008
3.0477	9.9365
3.037	9.842
3.0264	9.7331
3.0158	9.613
3.0053	9.4746
2.9949	9.3406
2.9845	9.2175
2.9743	9.0898
2.9641	8.9839
2.9539	8.8381
2.9439	8.6863
2.9339	8.5281
2.9239	8.3762
2.9141	8.1216
2.9043	7.8157
2.8946	7.5205
2.8849	7.1682
2.8753	6.7007
2.8658	6.3264
2.8563	6.0408
2.8469	5.699
2.8375	5.5015
2.8282	5.436
2.819	4.8896
2.8098	4.4338
2.8007	4.0278
2.7917	2.8342
2.7827	1.7646
2.7738	1.9119
2.7649	3.7209
2.7561	3.5676
2.7473	3.0146
2.7386	2.4241
2.7299	2.1711
2.7213	2.168
2.7128	1.905
2.7043	1.5532
2.6959	1.9558
2.6875	2.9031
2.6791	3.593
2.6709	4.1101
2.6626	4.6492
2.6545	5.1587
2.6463	5.6465
2.6382	6.0537
2.6302	6.2556
2.6222	6.3462
2.6143	6.2493
2.6064	6.1257
2.5986	6.0425
2.5908	6.082
2.583	6.1328
2.5753	6.2568
2.5677	6.428
2.5601	6.7192
2.5525	7.341
2.545	8.3603
2.5375	9.2036
2.5301	9.6758
2.5227	9.9697
2.5154	10.2856
2.5081	10.6274
2.5008	11.0984
2.4936	11.5517
2.4864	11.9526
2.4793	12.3073
2.4722	12.5593
2.4651	12.7485
2.4581	12.9887
2.4511	13.208
2.4442	13.3979
2.4373	13.5688
2.4305	13.6718
2.4236	13.8125
2.4169	13.882
2.4101	13.9775
2.4034	14.0673
2.3967	14.038
2.3901	14.1118
2.3835	14.1074
2.377	14.1152
2.3704	14.1679
2.364	14.1582
2.3575	14.2006
2.3511	14.2397
2.3447	14.2729
2.3384	14.2402
2.3321	14.2651
2.3258	14.3364
2.3195	14.4565
2.3133	14.4687
2.3071	14.4775
2.301	14.5153
2.2949	14.5305
2.2888	14.5371
2.2828	14.5454
2.2767	14.54
2.2708	14.5395
2.2648	14.5615
2.2589	14.5581
2.253	14.5561
2.2471	14.5376
2.2413	14.5717
2.2355	14.5942
2.2297	14.5561
2.224	14.5105
2.2183	14.5085
2.2126	14.4987
2.207	14.417
2.2013	14.3452
2.1957	14.3833
2.1902	14.4282
2.1846	14.3862
2.1791	14.364
2.1736	14.3955
2.1682	14.3764
2.1628	14.3283
2.1574	14.2785
2.152	14.1994
2.1466	14.2163
2.1413	14.2934
2.136	14.3742
2.1308	14.3422
2.1255	14.3632
2.1203	14.3388
2.1151	14.3193
2.11	14.3095
2.1048	14.3225
2.0997	14.3742
2.0946	14.3056
2.0895	14.2973
2.0845	14.3237
2.0795	14.2954
