Name: Epidote Ca_2(Al,Fe^3+)_3O.SiO_4.Si_2O_7.OH
Type: Mineral
Class: Silicate
Subclass: Sorosilicate
Particle Size: Fine
Sample No.: SS-1C
Owner: JPL
Wavelength Range: TIR
Origin: USA, Colorado
Description: Particle size was 0-45um.Collected by Ward's Original ASTER Spectral Library name was jpl.nicolet.mineral.silicate.sorosilicate.fine.ss01c.spectrum.txt
Measurement: Hemispherical reflectance
X Units: Wavelength (micrometers)
Y Units: Reflectance (percent)
wavelength	value
15.3853	4.4287
15.1161	3.7
14.8563	3.5453
14.6052	3.7096
14.3624	3.6637
14.1276	4.2058
13.9004	4.2417
13.6803	5.1296
13.4671	5.9953
13.2604	5.0648
13.06	6.195
12.8656	6.449
12.6769	7.1759
12.4936	7.5642
12.3155	7.8132
12.1425	7.4351
11.9742	7.1938
11.8106	6.5983
11.6513	7.1577
11.4963	6.8239
11.3454	7.6282
11.1983	7.7229
11.0551	6.9632
10.9154	6.0553
10.7793	5.3217
10.6465	6.7867
10.5169	8.3061
10.3904	8.6451
10.267	8.0898
10.1464	7.4383
10.0287	6.2694
9.9136	4.6175
9.8012	4.0202
9.6913	4.6356
9.5838	5.4797
9.4787	6.103
9.3758	6.3958
9.2752	6.4281
9.1767	6.5324
9.0803	6.1784
8.9858	6.1542
8.8934	6.1139
8.8028	6.3431
8.714	6.2737
8.627	5.4794
8.5417	5.3567
8.4581	5.3932
8.3761	5.7903
8.2957	6.7286
8.2169	7.769
8.1395	8.7545
8.0635	9.3997
7.989	10.3805
7.9158	11.7718
7.8439	12.9167
7.7734	13.7734
7.7041	14.8661
7.636	15.247
7.5691	15.6365
7.5034	15.9852
7.4388	15.803
7.3753	15.0774
7.3129	13.6317
7.2515	12.6718
7.1912	11.4554
7.1318	11.0867
7.0734	11.3578
7.016	10.8615
6.9595	10.7594
6.9039	10.7996
6.8492	11.2156
6.7953	11.6932
6.7423	12.3331
6.6901	13.51
6.6387	15.3227
6.5881	16.9004
6.5382	19.0745
6.4892	21.8552
6.4408	23.4423
6.3931	23.7256
6.3462	23.136
6.2999	21.2624
6.2543	20.5099
6.2094	19.3416
6.1651	18.3148
6.1214	17.654
6.0784	18.4007
6.0359	19.4113
5.994	20.1474
5.9527	20.2822
5.912	21.2639
5.8718	23.0677
5.8322	24.6614
5.7931	25.5149
5.7545	26.1925
5.7165	26.9191
5.6789	27.1858
5.6418	27.7801
5.6052	26.9857
5.5691	23.2398
5.5334	29.3005
5.4982	31.7964
5.4635	33.393
5.4291	34.1103
5.3952	33.823
5.3618	32.9316
5.3287	32.8474
5.2961	33.6487
5.2638	34.1179
5.2319	35.1905
5.2004	36.0297
5.1693	36.626
5.1386	37.023
5.1082	37.1076
5.0782	37.1006
5.0485	37.1515
5.0192	37.4037
4.9902	37.1126
4.9616	35.8912
4.9332	36.223
4.9052	37.1152
4.8776	37.7897
4.8502	40.2376
4.8231	41.3394
4.7963	42.5416
4.7699	44.5862
4.7437	46.4548
4.7178	47.1696
4.6922	47.1914
4.6668	47.6847
4.6418	48.2109
4.617	48.7326
4.5924	49.4481
4.5681	50.7639
4.5441	51.8722
4.5203	52.6753
4.4968	53.3551
4.4735	54.042
4.4505	54.4472
4.4277	54.8367
4.4051	55.1428
4.3828	55.5315
4.3607	55.7284
4.3388	55.9189
4.3171	56.2906
4.2956	56.6648
4.2744	56.8737
4.2534	56.8559
4.2325	57.337
4.2119	57.2599
4.1915	57.2672
4.1712	57.305
4.1512	57.4264
4.1313	57.4285
4.1117	57.4093
4.0922	57.3546
4.0729	57.1278
4.0538	56.5154
4.0349	54.5696
4.0161	51.7395
3.9976	46.972
3.9792	43.7207
3.9609	45.3742
3.9428	50.0121
3.9249	51.938
3.9072	52.6034
3.8896	52.8823
3.8722	53.1122
3.8549	53.327
3.8378	53.8605
3.8208	55.2178
3.804	56.4923
3.7873	57.4022
3.7708	57.4857
3.7544	57.3601
3.7382	57.1808
3.7221	57.0247
3.7061	56.8694
3.6903	56.5658
3.6746	56.3572
3.659	56.1656
3.6436	55.9874
3.6283	55.5566
3.6131	55.3605
3.5981	54.9904
3.5832	54.532
3.5684	53.9024
3.5537	53.5117
3.5391	52.5706
3.5247	50.8906
3.5104	48.2635
3.4962	46.6486
3.4821	45.2985
3.4681	46.2913
3.4543	47.2647
3.4405	46.7658
3.4269	45.882
3.4133	45.0433
3.3999	45.0559
3.3866	44.7224
3.3733	44.1294
3.3602	43.345
3.3472	42.8035
3.3343	44.4442
3.3215	44.1649
3.3088	43.6166
3.2961	42.7562
3.2836	41.8196
3.2712	40.8591
3.2588	39.7541
3.2466	39.0516
3.2345	37.9835
3.2224	37.0601
3.2104	35.8983
3.1985	34.8545
3.1867	33.652
3.175	32.5867
3.1634	31.6542
3.1519	30.8677
3.1404	29.9019
3.129	28.7661
3.1178	27.3876
3.1065	26.0158
3.0954	25.2331
3.0844	24.4788
3.0734	23.75
3.0625	23.2011
3.0517	22.7065
3.041	22.5009
3.0303	21.9723
3.0197	21.1847
3.0092	19.6063
2.9987	17.6688
2.9884	15.8073
2.9781	14.3273
2.9678	13.7021
2.9577	14.1672
2.9476	14.7614
2.9376	16.4463
2.9276	18.5456
2.9177	20.228
2.9079	21.1673
2.8982	21.5829
2.8885	22.09
2.8789	22.4882
2.8693	23.5109
2.8598	24.5827
2.8504	25.5782
2.841	25.9234
2.8317	25.3693
2.8224	23.8502
2.8133	24.4683
2.8041	24.8916
2.7951	25.116
2.786	25.6857
2.7771	26.1802
2.7682	27.8785
2.7594	28.3969
2.7506	30.2789
2.7418	31.0512
2.7332	26.7715
2.7246	32.7174
2.716	46.01
2.7075	51.6835
2.699	54.6757
2.6906	57.1252
2.6823	58.8784
2.674	60.0664
2.6657	61.6537
2.6575	61.2321
2.6494	61.5503
2.6413	61.8166
2.6332	62.2228
2.6252	62.339
2.6173	62.9312
2.6094	62.7292
2.6015	62.7206
2.5937	63.56
2.5859	62.9225
2.5782	62.9457
2.5706	62.9935
2.5629	63.2022
2.5554	62.7507
2.5478	62.9236
2.5403	62.6945
2.5329	62.7442
2.5255	62.8783
2.5181	62.8428
2.5108	62.9142
2.5035	63.0737
2.4963	63.1755
2.4891	63.2728
2.482	63.4482
2.4749	63.408
2.4678	63.7438
2.4608	63.7964
2.4538	64.0101
2.4468	64.0351
2.4399	64.2094
2.4331	64.3225
2.4262	64.3727
2.4194	64.3627
2.4127	64.3706
2.4059	64.0998
2.3993	63.7496
2.3926	63.4252
2.386	63.0303
2.3795	63.5341
2.3729	63.508
2.3664	63.1291
2.36	62.0766
2.3535	60.443
2.3471	58.8771
2.3408	58.0269
2.3345	58.0402
2.3282	58.9133
2.3219	59.0395
2.3157	59.7449
2.3095	60.8454
2.3034	61.3257
2.2972	61.9778
2.2911	62.7088
2.2851	63.4164
2.279	64.1333
2.2731	64.6315
2.2671	64.7924
2.2612	64.5583
2.2553	64.4588
2.2494	64.7528
2.2435	65.1307
2.2377	65.7367
2.232	65.9279
2.2262	66.2843
2.2205	66.3721
2.2148	66.4527
2.2091	66.3912
2.2035	66.6053
2.1979	66.5868
2.1923	66.7069
2.1868	66.5193
2.1812	66.8712
2.1758	66.8184
2.1703	66.9846
2.1649	66.7131
2.1595	66.9458
2.1541	66.77
2.1487	66.7784
2.1434	66.9942
2.1381	66.9839
2.1328	66.9124
2.1275	66.8661
2.1223	66.9382
2.1171	66.8495
2.112	66.9007
2.1068	67.0961
2.1017	67.1541
2.0966	67.1969
2.0915	67.1404
2.0865	66.9124
2.0814	66.9748
2.0764	67.1914
2.0715	67.0579
2.0665	67.3547
2.0616	66.8039
2.0567	67.1984
2.0518	66.9544
2.0469	67.1641
2.0421	66.9686
2.0373	67.621
2.0325	67.1658
2.0277	67.2809
2.0229	67.0933
2.0182	67.0486
2.0135	66.9029
2.0088	67.0737
2.0042	66.7602
