Name: Nontronite Na0.33Fe2+3(Si,Al)4O10.3H2O
Type: Mineral
Class: Silicate
Subclass: Phyllosilicate
Particle Size: Fine
Sample No.: nontron_1
Owner: JHU
Wavelength Range: TIR
Origin: Holen Hagen, Germany via the Hunt and Salisbury Collection#CMS Ng-1 (purchased from the Clay Mineral Society Repository)
Description: Brown, earthy clay. Less than 2 µm fraction is nontronite, plus a faint trace of quartz.  Larger size fraction has abundant quartz.  (Note: Quartz features do not show up in spectra of the <2 µm size fraction, either sifted or packed.)Particle size was Less than 2 micrometers.(Sheet Silicates); (Smectite Group) Original ASTER Spectral Library name was jhu.nicolet.mineral.silicate.phyllosilicate.powder.nontro1.spectrum.txt
Measurement: Transmission
X Units: Wavelength (micrometers)
Y Units: Transmittance (percent)
wavelength	value
25.0442	55.6639
24.3388	47.3944
23.6719	39.5624
23.0407	37.5487
22.4422	39.2616
21.8741	40.3671
21.334	44.1112
20.8199	43.2938
20.33	38.0048
19.8627	43.5526
19.4163	46.9139
18.9896	50.9081
18.5812	55.5877
18.19	61.1278
17.815	65.7791
17.4551	69.3289
17.1094	72.1014
16.7772	74.5066
16.4576	76.7127
16.15	79.1873
15.8537	81.43
15.568	82.0369
15.2925	81.865
15.0265	80.159
14.7697	78.305
14.5214	80.7351
14.2814	83.7796
14.0492	86.0427
13.8244	87.1892
13.6067	87.1648
13.3957	86.2058
13.1912	84.4358
12.9929	82.4041
12.8004	79.3064
12.6135	78.6658
12.432	76.8519
12.2557	72.4886
12.0843	73.5281
11.9176	73.4402
11.7555	72.5804
11.5977	71.6336
11.444	68.866
11.2944	69.2069
11.1487	67.848
11.0067	63.2982
10.8682	58.2362
10.7332	53.8295
10.6015	49.5199
10.473	44.4921
10.3476	39.4474
10.2251	34.871
10.1056	30.7255
9.9887	27.7089
9.8746	26.049
9.763	25.467
9.6539	25.8935
9.5472	28.6545
9.4429	32.8713
9.3408	37.7953
9.2409	42.4701
9.1431	45.8407
9.0474	48.1312
8.9536	50.4198
8.8618	52.8754
8.7718	55.9842
8.6837	59.6456
8.5973	63.2833
8.5126	66.4669
8.4295	69.8709
8.3481	72.8389
8.2682	75.2156
8.1898	77.2967
8.1129	79.3631
8.0374	81.0408
7.9634	82.6065
7.8906	83.9099
7.8192	84.7205
7.7491	85.572
7.6802	86.3028
7.6126	87.0271
7.5461	87.742
7.4807	88.3186
7.4165	88.7774
7.3534	89.2588
7.2914	89.7166
7.2303	90.0293
7.1703	90.6882
7.1113	90.9895
7.0533	91.1272
6.9962	91.4495
6.94	92.0227
6.8847	92.2793
6.8302	92.3528
6.7767	92.5625
6.7239	92.8171
6.672	93.1052
6.6209	93.3359
6.5705	93.6536
6.5209	93.6379
6.4721	93.9377
6.424	94.1687
6.3766	94.1062
6.3299	93.9954
6.2838	93.656
6.2385	92.7383
6.1937	90.739
6.1496	88.9807
6.1062	89.4949
6.0633	91.1321
6.0211	92.9072
5.9794	94.2634
5.9383	94.2415
5.8978	94.1624
5.8578	94.2517
5.8184	94.6433
5.7794	94.793
5.741	94.9143
5.7031	94.9319
5.6657	94.9075
5.6288	94.9666
5.5924	94.9504
5.5564	94.9978
5.5209	95.0291
5.4859	95.1072
5.4513	95.2244
5.4171	95.3679
5.3833	95.3376
5.35	95.4773
5.3171	95.5378
5.2846	95.6628
5.2524	95.7922
5.2207	95.9062
5.1893	95.9866
5.1584	96.0928
5.1277	96.1396
5.0975	96.1973
5.0676	96.2478
5.038	96.3203
5.0088	96.4075
4.98	96.4646
4.9514	96.5452
4.9232	96.5144
4.8953	96.5117
4.8678	96.5261
4.8405	96.5666
4.8135	96.5693
4.7868	96.6074
4.7605	96.6013
4.7344	96.6423
4.7086	96.6501
4.6831	96.6348
4.6578	96.6316
4.6328	96.6543
4.6081	96.8249
4.5837	96.7175
4.5595	96.6946
4.5356	96.699
4.5119	96.655
4.4884	96.634
4.4652	96.6257
4.4423	96.6584
4.4196	96.6533
4.3971	96.6853
4.3748	96.7588
4.3528	96.6963
4.331	96.6531
4.3094	96.6394
4.288	96.6758
4.2668	96.6523
4.2458	96.6951
4.2251	96.7322
4.2045	96.6631
4.1841	96.6853
4.164	96.6064
4.144	96.5662
4.1242	96.5593
4.1046	96.5798
4.0852	96.531
4.066	96.5276
4.047	96.4812
4.0281	96.4407
4.0094	96.4495
3.9909	96.3596
3.9725	96.3181
3.9544	96.3513
3.9363	96.363
3.9185	96.303
3.9008	96.3142
3.8833	96.2239
3.8659	96.0627
3.8487	96.0886
3.8316	96.0486
3.8147	96.0623
3.7979	95.9631
3.7813	95.9343
3.7648	95.8811
3.7485	95.8123
3.7323	95.7595
3.7162	95.6335
3.7003	95.573
3.6845	95.4968
3.6689	95.4514
3.6534	95.365
3.638	95.2639
3.6227	95.1433
3.6076	95.0779
3.5926	95.0398
3.5777	94.9031
3.563	94.8562
3.5484	94.7791
3.5338	94.658
3.5195	94.5295
3.5052	94.4646
3.491	94.2971
3.477	94.1897
3.463	94.1599
3.4492	94.0125
3.4355	93.9265
3.4219	93.7722
3.4084	93.5056
3.395	93.51
3.3817	93.3816
3.3685	93.3303
3.3554	93.0764
3.3425	92.9182
3.3296	92.7439
3.3168	92.5789
3.3041	92.4021
3.2915	92.2644
3.279	92.0164
3.2666	91.7224
3.2543	91.4744
3.2421	91.2527
3.23	90.969
3.218	90.6638
3.206	90.3069
3.1942	89.9319
3.1824	89.6629
3.1707	89.2586
3.1591	88.8181
3.1476	88.574
3.1362	88.1716
3.1249	87.8225
3.1136	87.4802
3.1024	87.135
3.0913	86.7849
3.0803	86.5525
3.0694	86.3616
3.0585	85.9905
3.0477	85.6658
3.037	85.1521
3.0264	84.6839
3.0158	84.1272
3.0053	83.5921
2.9949	83.117
2.9845	82.6189
2.9743	82.0877
2.9641	81.781
2.9539	81.5291
2.9439	81.3748
2.9339	81.2303
2.9239	81.2459
2.9141	81.2068
2.9043	81.4002
2.8946	81.45
2.8849	81.4744
2.8753	81.3894
2.8658	81.3553
2.8563	81.0974
2.8469	80.5564
2.8375	79.16
2.8282	76.3816
2.819	73.2391
2.8098	70.6932
2.8007	69.5945
2.7917	70.5369
2.7827	73.4256
2.7738	76.4617
2.7649	78.2156
2.7561	79.9392
2.7473	82.1482
2.7386	84.6746
2.7299	86.5535
2.7213	88.0906
2.7128	89.3484
2.7043	90.0974
2.6959	90.6013
2.6875	90.8093
2.6791	90.99
2.6709	91.0349
2.6626	90.8474
2.6545	90.8162
2.6463	90.8123
2.6382	90.6922
2.6302	90.7195
2.6222	90.6804
2.6143	90.6267
2.6064	90.6287
2.5986	90.49
2.5908	90.49
2.583	90.4734
2.5753	90.3054
2.5677	90.2039
2.5601	90.2029
2.5525	90.1179
2.545	89.8748
2.5375	89.9812
2.5301	89.8875
2.5227	89.5047
2.5154	89.7156
2.5081	89.6531
2.5008	89.5506
2.4936	89.3728
2.4864	89.3015
2.4793	89.2468
2.4722	89.3015
2.4651	89.1804
2.4581	89.2
2.4511	89.0584
2.4442	88.8572
2.4373	89.0115
2.4305	88.8572
2.4236	88.8318
2.4169	88.6365
2.4101	88.8533
2.4034	88.5935
2.3967	88.5017
2.3901	88.367
2.3835	88.2634
2.377	88.5252
2.3704	88.5232
2.364	88.2498
2.3575	88.0974
2.3511	88.4295
2.3447	88.0955
2.3384	87.8826
2.3321	87.8474
2.3258	87.7986
2.3195	88.1599
2.3133	87.822
2.3071	87.6853
2.301	87.8787
2.2949	87.9177
2.2888	87.5642
2.2828	87.5408
2.2767	87.7967
2.2708	87.7205
2.2648	87.6658
2.2589	87.6795
2.253	87.6267
2.2471	87.7439
2.2413	87.5506
2.2355	87.5408
2.2297	87.7674
2.224	87.4939
2.2183	87.5818
2.2126	87.4549
2.207	87.531
2.2013	87.322
2.1957	87.5271
2.1902	87.5701
2.1846	87.5193
2.1791	87.406
2.1736	87.7029
2.1682	87.656
2.1628	87.617
2.1574	87.8064
2.152	87.4842
2.1466	87.5154
2.1413	87.4705
2.136	87.447
2.1308	87.7049
2.1255	87.7283
2.1203	87.7185
2.1151	87.5935
2.11	87.4842
2.1048	87.4685
2.0997	87.7185
2.0946	87.9295
2.0895	87.6345
2.0845	88.0466
2.0795	88.3045
