Name: Alunite (sodium alunite) NaAl3(SO4)2(OH)6
Type: Mineral
Class: Sulfate
Subclass: None
Particle Size: Coarse
Sample No.: alunite_4
Owner: JHU
Wavelength Range: TIR
Origin: Synthetic; Synthesized by Roger Stoffregen and supplied byPhil Bethke (USGS).
Description: The sample was a white, microcrystalline powder composed of equant or lath-shaped crystallites from 1 to 15 micrometers in largest dimension.Particle size was 0-15 micrometers, but packed powder simulates coarse. Original ASTER Spectral Library name was jhu.nicolet.mineral.sulfate.none.packed.alunit4.spectrum.txt
Measurement: Bidirectional Reflectance
X Units: Wavelength (micrometers)
Y Units: Reflectance (percent)
wavelength	value
25.0442	9.7392
24.3388	10.6504
23.6719	11.1887
23.0407	11.884
22.4422	12.1064
21.8741	8.1118
21.334	9.2495
20.8199	10.2378
20.33	10.1843
19.8627	11.0713
19.4163	12.0984
18.9896	11.3467
18.5812	10.7197
18.19	10.8352
17.815	11.925
17.4551	12.9621
17.1094	14.8691
16.7772	18.8022
16.4576	20.7966
16.15	14.2873
15.8537	20.9218
15.568	21.6625
15.2925	18.176
15.0265	14.0134
14.7697	13.176
14.5214	14.5817
14.2814	16.1059
14.0492	17.7744
13.8244	19.2302
13.6067	18.2983
13.3957	13.0263
13.1912	6.8357
12.9929	3.2004
12.8004	2.896
12.6135	3.4202
12.432	3.8994
12.2557	4.3225
12.0843	4.6833
11.9176	5.0544
11.7555	5.364
11.5977	5.668
11.444	5.9119
11.2944	6.1225
11.1487	6.2944
11.0067	6.5049
10.8682	6.7156
10.7332	6.9306
10.6015	7.1543
10.473	7.4199
10.3476	7.6706
10.2251	7.9504
10.1056	8.1948
9.9887	8.4504
9.8746	8.7483
9.763	9.49
9.6539	8.4595
9.5472	9.417
9.4429	10.2051
9.3408	11.3188
9.2409	13.396
9.1431	16.1804
9.0474	18.3933
8.9536	20.2502
8.8618	21.392
8.7718	21.1845
8.6837	19.6606
8.5973	16.6086
8.5126	15.5188
8.4295	11.5454
8.3481	9.5906
8.2682	8.9084
8.1898	9.0842
8.1129	10.3244
8.0374	11.8437
7.9634	12.0937
7.8906	9.9797
7.8192	6.3679
7.7491	3.4404
7.6802	2.1577
7.6126	2.0149
7.5461	2.2195
7.4807	2.4766
7.4165	2.7432
7.3534	2.9873
7.2914	3.1894
7.2303	3.3706
7.1703	3.5366
7.1113	3.6868
7.0533	3.8518
6.9962	3.9485
6.94	4.0205
6.8847	4.1294
6.8302	4.262
6.7767	4.3723
6.7239	4.4021
6.672	4.3931
6.6209	4.3625
6.5705	4.395
6.5209	4.5058
6.4721	4.6499
6.424	4.7734
6.3766	4.885
6.3299	4.9304
6.2838	4.9377
6.2385	4.9512
6.1937	4.904
6.1496	4.8281
6.1062	4.7766
6.0633	4.7783
6.0211	4.7893
5.9794	4.8379
5.9383	4.9084
5.8978	5.0622
5.8578	5.3293
5.8184	5.5569
5.7794	5.7707
5.741	5.9634
5.7031	6.1111
5.6657	6.25
5.6288	6.3804
5.5924	6.5124
5.5564	6.6035
5.5209	6.6992
5.4859	6.8025
5.4513	6.9682
5.4171	7.1587
5.3833	7.3113
5.35	7.4494
5.3171	7.5681
5.2846	7.6767
5.2524	7.7602
5.2207	7.8384
5.1893	7.9233
5.1584	7.9968
5.1277	8.0608
5.0975	8.1296
5.0676	8.1865
5.038	8.2451
5.0088	8.2868
4.98	8.3166
4.9514	8.3408
4.9232	8.3318
4.8953	8.2739
4.8678	8.1833
4.8405	8.1172
4.8135	7.6824
4.7868	7.9302
4.7605	7.728
4.7344	6.9558
4.7086	6.4692
4.6831	5.7793
4.6578	5.6665
4.6328	5.7781
4.6081	5.4324
4.5837	5.4944
4.5595	5.396
4.5356	5.3039
4.5119	5.2703
4.4884	5.3025
4.4652	5.3323
4.4423	5.4409
4.4196	5.5544
4.3971	5.5632
4.3748	5.7226
4.3528	5.8013
4.331	5.6213
4.3094	5.7329
4.288	5.9221
4.2668	6.2817
4.2458	6.5495
4.2251	6.803
4.2045	7.0039
4.1841	7.0742
4.164	7.0791
4.144	7.0918
4.1242	7.0771
4.1046	7.0779
4.0852	7.0808
4.066	7.0735
4.047	7.071
4.0281	7.0476
4.0094	7.0593
3.9909	7.0635
3.9725	7.0847
3.9544	7.1103
3.9363	7.1347
3.9185	7.1701
3.9008	7.0796
3.8833	7.2317
3.8659	7.2832
3.8487	7.2976
3.8316	7.3044
3.8147	7.3083
3.7979	7.323
3.7813	7.3056
3.7648	7.2778
3.7485	7.2268
3.7323	7.1965
3.7162	7.1401
3.7003	7.0752
3.6845	6.9953
3.6689	6.9094
3.6534	6.8205
3.638	6.7312
3.6227	6.6404
3.6076	6.5437
3.5926	6.4453
3.5777	6.3401
3.563	6.2532
3.5484	6.1533
3.5338	6.0659
3.5195	5.9783
3.5052	5.8784
3.491	5.8159
3.477	5.728
3.463	5.645
3.4492	5.5715
3.4355	5.5017
3.4219	5.4309
3.4084	5.3596
3.395	5.2893
3.3817	5.2309
3.3685	5.1794
3.3554	5.1228
3.3425	5.0495
3.3296	5.0159
3.3168	4.9751
3.3041	4.9282
3.2915	4.8931
3.279	4.8498
3.2666	4.8135
3.2543	4.7886
3.2421	4.7673
3.23	4.7461
3.218	4.7251
3.206	4.7097
3.1942	4.6843
3.1824	4.6767
3.1707	4.615
3.1591	4.552
3.1476	4.5598
3.1362	4.4585
3.1249	4.3464
3.1136	4.396
3.1024	4.428
3.0913	4.4289
3.0803	4.4575
3.0694	4.5115
3.0585	4.469
3.0477	4.4309
3.037	4.3816
3.0264	4.3557
3.0158	4.1384
3.0053	4.0166
2.9949	3.9639
2.9845	3.8679
2.9743	3.7427
2.9641	3.7519
2.9539	3.8638
2.9439	3.8071
2.9339	3.831
2.9239	3.9619
2.9141	4.1106
2.9043	5.0442
2.8946	7.6814
2.8849	6.7817
2.8753	2.7297
2.8658	3.323
2.8563	2.5737
2.8469	1.6184
2.8375	1.7588
2.8282	2.0093
2.819	2.3352
2.8098	2.6763
2.8007	2.8345
2.7917	3.1999
2.7827	3.7961
2.7738	4.324
2.7649	4.8586
2.7561	5.7568
2.7473	6.667
2.7386	7.5263
2.7299	8.5488
2.7213	9.3066
2.7128	9.906
2.7043	10.6604
2.6959	11.6484
2.6875	12.1801
2.6791	12.4282
2.6709	13.7636
2.6626	14.4824
2.6545	14.5241
2.6463	14.7885
2.6382	14.9055
2.6302	14.7385
2.6222	14.531
2.6143	14.4223
2.6064	13.6704
2.5986	12.9714
2.5908	13.3066
2.583	13.4546
2.5753	13.1748
2.5677	13.1709
2.5601	13.2568
2.5525	13.2485
2.545	13.0888
2.5375	12.1723
2.5301	11.1186
2.5227	11.2622
2.5154	12.5732
2.5081	12.8208
2.5008	12.7544
2.4936	13.1972
2.4864	13.0581
2.4793	13.0486
2.4722	13.3598
2.4651	13.4326
2.4581	13.2046
2.4511	12.6699
2.4442	12.7749
2.4373	13.438
2.4305	14.4824
2.4236	15.2929
2.4169	15.4365
2.4101	15.3637
2.4034	15.4211
2.3967	15.4619
2.3901	15.8862
2.3835	16.7783
2.377	17.6347
2.3704	18.1435
2.364	18.4313
2.3575	18.4487
2.3511	18.3859
2.3447	17.935
2.3384	17.4956
2.3321	17.0168
2.3258	16.7426
2.3195	16.9838
2.3133	17.9316
2.3071	18.8303
2.301	19.2978
2.2949	19.5988
2.2888	19.7309
2.2828	19.8574
2.2767	19.9426
2.2708	20.0397
2.2648	20.0976
2.2589	20.0725
2.253	20.0605
2.2471	19.9804
2.2413	19.7426
2.2355	18.8042
2.2297	18.4841
2.224	17.4946
2.2183	16.5285
2.2126	17.6564
2.207	18.1015
2.2013	17.2597
2.1957	16.9751
2.1902	16.0031
2.1846	15.9699
2.1791	15.633
2.1736	15.375
2.1682	15.4494
2.1628	15.6108
2.1574	15.7714
2.152	16.1757
2.1466	16.6709
2.1413	17.1054
2.136	17.6621
2.1308	18.1772
2.1255	18.4931
2.1203	18.7492
2.1151	18.8408
2.11	18.915
2.1048	18.9104
2.0997	19.0061
2.0946	19.1066
2.0895	19.1337
2.0845	19.2324
2.0795	19.2504
