Name: Sepiolite Mg_4Si_6O_15(OH)_2.6H_2O
Type: Mineral
Class: Silicate
Subclass: Phyllosilicate
Particle Size: Medium
Sample No.: PS-5A
Owner: JPL
Wavelength Range: VSWIR
Origin: USA, Nevada, Two Crows
Description: Particle size was 45-125um.Collected by Clay Mineral Society Original ASTER Spectral Library name was jpl.beckman.mineral.silicate.phyllosilicate.medium.ps05a.spectrum.txt
Measurement: Hemispherical reflectance
X Units: Wavelength (micrometers)
Y Units: Reflectance (percent)
wavelength	value
0.4	75.55
0.403	75.61
0.406	75.73
0.409	75.88
0.412	76.07
0.415	75.97
0.418	76.3
0.421	76.44
0.424	76.39
0.427	76.58
0.43	76.74
0.433	76.87
0.436	77
0.439	77.31
0.442	77.4
0.445	77.42
0.448	77.64
0.451	77.75
0.454	77.76
0.457	77.91
0.46	78.18
0.463	78.2
0.466	78.37
0.469	78.65
0.472	78.61
0.475	78.97
0.478	78.93
0.481	78.99
0.484	79.13
0.487	79.35
0.49	79.48
0.493	79.6
0.496	79.67
0.499	79.79
0.502	79.89
0.505	79.92
0.508	80.27
0.511	80.35
0.514	80.42
0.517	80.75
0.52	80.77
0.523	80.83
0.526	80.95
0.529	81.13
0.532	81.28
0.535	81.34
0.538	81.52
0.541	81.5
0.544	81.56
0.547	81.74
0.55	81.86
0.553	81.97
0.556	81.91
0.559	82.25
0.562	82.77
0.565	82.86
0.568	82.97
0.571	82.88
0.574	82.77
0.577	83.08
0.58	82.97
0.583	83.16
0.586	83.16
0.589	83.32
0.592	83.38
0.595	83.37
0.598	83.62
0.601	83.73
0.604	83.9
0.607	84.02
0.61	84.06
0.613	83.98
0.616	83.96
0.619	84
0.622	84.19
0.625	84.2
0.628	84.36
0.631	84.29
0.634	84.36
0.637	84.43
0.64	84.69
0.643	84.52
0.646	84.76
0.649	84.95
0.652	84.81
0.655	84.87
0.658	84.99
0.661	84.97
0.664	85.09
0.667	85.16
0.67	85.22
0.673	85.23
0.676	85.2
0.679	85.28
0.682	85.28
0.685	85.4
0.688	85.47
0.691	85.57
0.694	85.5
0.697	85.49
0.7	85.55
0.703	85.51
0.706	85.74
0.709	85.65
0.712	85.8
0.715	85.64
0.718	85.84
0.721	85.82
0.724	85.65
0.727	85.86
0.73	85.87
0.733	85.98
0.736	85.86
0.739	86.09
0.742	85.99
0.745	86
0.748	86.09
0.751	86.11
0.754	86.05
0.757	86.25
0.76	85.99
0.763	86
0.766	86.15
0.769	86.23
0.772	86.23
0.775	86.22
0.778	86.4
0.781	86.24
0.784	86.23
0.787	86.41
0.79	86.47
0.793	86.5
0.796	86.47
0.799	86.6
0.808	86.55
0.82	86.52
0.832	86.58
0.844	86.74
0.856	86.84
0.868	86.9
0.88	86.89
0.892	86.89
0.904	86.83
0.916	86.81
0.928	86.65
0.94	85.87
0.952	85.92
0.964	85.52
0.976	85.76
0.988	86.04
1	86.4
1.012	86.62
1.024	86.87
1.036	86.98
1.048	87
1.06	87.09
1.072	87.04
1.084	86.97
1.096	87
1.108	86.92
1.12	86.64
1.132	86
1.144	84.12
1.156	83.51
1.168	84.21
1.18	84.76
1.192	84.81
1.204	85.16
1.216	85.06
1.228	85.06
1.24	85.1
1.252	85.08
1.264	84.87
1.276	84.72
1.288	84.53
1.3	83.92
1.312	83.02
1.324	81.86
1.336	80.14
1.348	78.84
1.36	77.65
1.372	73.48
1.384	61.1
1.396	61.44
1.408	54.99
1.42	55.86
1.432	56.89
1.444	57.89
1.456	59.35
1.468	60.42
1.48	63.35
1.492	65.82
1.504	67.64
1.516	68.85
1.528	70
1.54	70.96
1.552	71.79
1.564	72.54
1.576	73.08
1.588	73.53
1.6	73.95
1.612	74.06
1.624	74.31
1.636	74.58
1.648	74.79
1.66	74.83
1.672	74.91
1.684	74.84
1.696	74.59
1.708	74.16
1.72	73.65
1.732	73.24
1.744	72.72
1.756	71.72
1.768	70.96
1.78	69.95
1.792	69.66
1.804	69.59
1.816	69.51
1.828	69.12
1.84	67.84
1.852	65.73
1.864	60.41
1.876	50.12
1.888	37.93
1.9	27.6
1.912	25.81
1.924	31.36
1.936	37.7
1.948	40.33
1.96	40.99
1.972	41.79
1.984	43.46
1.996	45.65
2.008	48.14
2.02	50.55
2.032	52.36
2.044	53.62
2.056	54.43
2.068	55.13
2.08	55.87
2.092	56.77
2.104	57.81
2.116	58.54
2.128	58.97
2.14	59
2.152	58.89
2.164	58.84
2.176	58.5
2.188	58.1
2.2	57.81
2.212	57
2.224	56.43
2.236	55.87
2.248	55.12
2.26	53.52
2.272	50.78
2.284	47.13
2.296	43.27
2.308	41.54
2.32	42.71
2.332	44.3
2.344	43.43
2.356	41.12
2.368	38.16
2.38	35.5
2.392	34.16
2.404	33.56
2.416	33.05
2.428	32.37
2.44	31.58
2.452	30.76
2.464	29.65
2.476	28.23
2.488	26.96
2.5	25.94
