Name: Grossular Ca3Al2(Si04)3
Type: Mineral
Class: Silicate
Subclass: Nesosilicate
Particle Size: Solid
Sample No.: grossul_2
Owner: JHU
Wavelength Range: TIR
Origin: Sample from Pear Gillis Farm, Beach Glen, Buncombe Co.,North Carolina via the Smithsonian (sample no. NMNH 155371).
Description: The sample was a spherical cluster of small crystals about 1.5 cm in diameter.  Green interstitial material, probably diopside, occurred between many small brown euhedral crystals of grossular, which were hand-picked from the crushed sample.  Under the petrographic microscope, a very small amount of alteration of grossular crystals was seen. Sample had fracture surface. (Isolated Tetrahedra); Garnet Group Original ASTER Spectral Library name was jhu.nicolet.mineral.silicate.nesosilicate.solid.grossu2.spectrum.txt
Measurement: Bidirectional reflectance
X Units: Wavelength (micrometers)
Y Units: Reflectance (percent)
wavelength	value
25.0442	22.8203
24.3388	27.5165
23.6719	37.371
23.0407	50.4784
22.4422	53.9071
21.8741	51.4823
21.334	52.0741
20.8199	56.3661
20.33	53.9837
19.8627	50.4208
19.4163	42.588
18.9896	19.7766
18.5812	34.9591
18.19	46.827
17.815	43.1974
17.4551	31.9159
17.1094	14.2055
16.7772	6.8244
16.4576	10.6753
16.15	13.5634
15.8537	6.6133
15.568	8.3379
15.2925	9.9524
15.0265	10.927
14.7697	11.9765
14.5214	12.6074
14.2814	13.3076
14.0492	14.1399
13.8244	14.7085
13.6067	15.4423
13.3957	16.4799
13.1912	17.166
12.9929	18.1782
12.8004	19.3642
12.6135	21.0659
12.432	23.4772
12.2557	27.3491
12.0843	34.415
11.9176	40.9789
11.7555	38.4101
11.5977	46.2367
11.444	38.9374
11.2944	20.9706
11.1487	22.3359
11.0067	39.3927
10.8682	52.7455
10.7332	56.4398
10.6015	57.6068
10.473	58.097
10.3476	57.2147
10.2251	54.7655
10.1056	51.8236
9.9887	48.0966
9.8746	45.5817
9.763	40.402
9.6539	32.7682
9.5472	23.4907
9.4429	11.3767
9.3408	2.3306
9.2409	2.3574
9.1431	3.3889
9.0474	4.3174
8.9536	4.9949
8.8618	5.4634
8.7718	5.9287
8.6837	6.3718
8.5973	6.7549
8.5126	7.0898
8.4295	7.3581
8.3481	7.6418
8.2682	7.8806
8.1898	8.1328
8.1129	8.3257
8.0374	8.5759
7.9634	8.7842
7.8906	8.9863
7.8192	9.2112
7.7491	9.4043
7.6802	9.6025
7.6126	9.7698
7.5461	9.9502
7.4807	10.0107
7.4165	10.1648
7.3534	10.239
7.2914	10.3545
7.2303	10.4963
7.1703	10.519
7.1113	10.6582
7.0533	10.6137
6.9962	10.7571
6.94	10.8938
6.8847	10.9358
6.8302	10.9384
6.7767	11.1098
6.7239	11.0676
6.672	11.2622
6.6209	11.4214
6.5705	11.3293
6.5209	11.4087
6.4721	11.6059
6.424	11.5559
6.3766	11.6487
6.3299	11.8227
6.2838	11.8247
6.2385	11.8654
6.1937	11.8564
6.1496	11.9812
6.1062	12.0595
6.0633	12.0905
6.0211	11.9231
5.9794	11.9804
5.9383	11.6848
5.8978	11.7324
5.8578	11.9277
5.8184	11.8969
5.7794	11.7964
5.741	11.8828
5.7031	11.9956
5.6657	12.0205
5.6288	12.0481
5.5924	12.0705
5.5564	12.07
5.5209	12.144
5.4859	12.1533
5.4513	12.2392
5.4171	12.2871
5.3833	12.2976
5.35	12.2873
5.3171	12.3574
5.2846	12.3879
5.2524	12.4101
5.2207	12.4167
5.1893	12.4912
5.1584	12.5058
5.1277	12.5227
5.0975	12.5539
5.0676	12.5737
5.038	12.5927
5.0088	12.6181
4.98	12.6157
4.9514	12.6623
4.9232	12.6616
4.8953	12.6831
4.8678	12.6972
4.8405	12.6999
4.8135	12.7246
4.7868	12.7226
4.7605	12.748
4.7344	12.7641
4.7086	12.7722
4.6831	12.7905
4.6578	12.8112
4.6328	12.8386
4.6081	12.8584
4.5837	12.8774
4.5595	12.8935
4.5356	12.8991
4.5119	12.9062
4.4884	12.9157
4.4652	12.9336
4.4423	12.947
4.4196	12.9467
4.3971	12.9572
4.3748	12.9555
4.3528	12.893
4.331	12.7729
4.3094	12.6176
4.288	12.5393
4.2668	12.5141
4.2458	12.3847
4.2251	12.498
4.2045	12.8486
4.1841	12.9795
4.164	12.9978
4.144	13.0017
4.1242	12.9992
4.1046	13.0254
4.0852	13.0112
4.066	13.0354
4.047	13.0254
4.0281	13.0307
4.0094	13.0442
3.9909	13.0461
3.9725	13.0549
3.9544	13.0525
3.9363	13.0683
3.9185	13.07
3.9008	13.0605
3.8833	13.073
3.8659	13.0493
3.8487	13.0547
3.8316	13.0464
3.8147	13.0478
3.7979	13.0483
3.7813	13.0459
3.7648	13.0459
3.7485	13.0478
3.7323	13.0254
3.7162	13.0319
3.7003	13.0307
3.6845	13.02
3.6689	12.9941
3.6534	13.0185
3.638	13.0044
3.6227	13.0039
3.6076	13.0017
3.5926	13.0009
3.5777	12.9873
3.563	12.9853
3.5484	12.9863
3.5338	12.9839
3.5195	12.9843
3.5052	12.9848
3.491	12.9592
3.477	12.9699
3.463	12.959
3.4492	12.9555
3.4355	12.9536
3.4219	12.948
3.4084	12.9331
3.395	12.8852
3.3817	12.8882
3.3685	12.8798
3.3554	12.8593
3.3425	12.8418
3.3296	12.8383
3.3168	12.8208
3.3041	12.8105
3.2915	12.8276
3.279	12.789
3.2666	12.7837
3.2543	12.7783
3.2421	12.7683
3.23	12.7578
3.218	12.739
3.206	12.7199
3.1942	12.7129
3.1824	12.7016
3.1707	12.6855
3.1591	12.6618
3.1476	12.6694
3.1362	12.6709
3.1249	12.6757
3.1136	12.6499
3.1024	12.6394
3.0913	12.6174
3.0803	12.6145
3.0694	12.602
3.0585	12.602
3.0477	12.5852
3.037	12.5551
3.0264	12.5617
3.0158	12.5175
3.0053	12.5236
2.9949	12.5205
2.9845	12.4736
2.9743	12.4758
2.9641	12.4541
2.9539	12.4292
2.9439	12.4062
2.9339	12.3921
2.9239	12.3442
2.9141	12.3252
2.9043	12.3359
2.8946	12.2961
2.8849	12.2602
2.8753	12.257
2.8658	12.2483
2.8563	12.1816
2.8469	12.1811
2.8375	12.1289
2.8282	12.1045
2.819	12.1118
2.8098	12.0508
2.8007	12.1596
2.7917	12.008
2.7827	11.9892
2.7738	12.0188
2.7649	12.0429
2.7561	11.8208
2.7473	11.9279
2.7386	12.122
2.7299	11.9189
2.7213	11.8535
2.7128	11.8779
2.7043	11.9253
2.6959	11.8794
2.6875	12.0205
2.6791	11.9341
2.6709	11.9355
2.6626	12.1308
2.6545	12.1084
2.6463	12.0376
2.6382	12.0737
2.6302	12.0957
2.6222	12.0097
2.6143	12.1274
2.6064	12.0097
2.5986	11.9824
2.5908	12.0332
2.583	12.0332
2.5753	12.0532
2.5677	12.0224
2.5601	12.0332
2.5525	11.8925
2.545	11.9111
2.5375	11.873
2.5301	11.8799
2.5227	11.8681
2.5154	11.8642
2.5081	11.8501
2.5008	11.8154
2.4936	11.8208
2.4864	11.8203
2.4793	11.7705
2.4722	11.7988
2.4651	11.7968
2.4581	11.7646
2.4511	11.7485
2.4442	11.7304
2.4373	11.6899
2.4305	11.748
2.4236	11.6552
2.4169	11.6626
2.4101	11.6523
2.4034	11.643
2.3967	11.645
2.3901	11.5766
2.3835	11.5429
2.377	11.5224
2.3704	11.5102
2.364	11.5141
2.3575	11.5049
2.3511	11.4868
2.3447	11.4458
2.3384	11.4648
2.3321	11.4165
2.3258	11.4731
2.3195	11.459
2.3133	11.4258
2.3071	11.4023
2.301	11.373
2.2949	11.3828
2.2888	11.3584
2.2828	11.373
2.2767	11.3012
2.2708	11.3437
2.2648	11.3066
2.2589	11.2407
2.253	11.2778
2.2471	11.249
2.2413	11.2412
2.2355	11.2734
2.2297	11.1689
2.224	11.25
2.2183	11.1933
2.2126	11.2285
2.207	11.2373
2.2013	11.164
2.1957	11.1631
2.1902	11.1425
2.1846	11.2412
2.1791	11.1875
2.1736	11.1826
2.1682	11.1758
2.1628	11.1357
2.1574	11.0771
2.152	11.1728
2.1466	11.1191
2.1413	11.1269
2.136	11.1728
2.1308	11.1728
2.1255	11.1377
2.1203	11.1455
2.1151	11.1172
2.11	11.1572
2.1048	11.1064
2.0997	11.1523
2.0946	11.1816
2.0895	11.1562
2.0845	11.2656
2.0795	11.165
