Name: Calcite CaCO3
Type: Mineral
Class: Carbonate
Subclass: None
Particle Size: Fine
Sample No.: calcite_1
Owner: JHU
Wavelength Range: TIR
Origin: Hunt and Salisbury Collection #194B (purchased from Ward'sNatural Science Establishment); Sample from Mexico.
Description: The sample consisted of transparent euhedral crystals.  The largest was about 2 cm x 2 cm.  This was obviously pure optical quality calcite. Particle size was less than 2 Micrometers. Original ASTER Spectral Library name was jhu.nicolet.mineral.carbonate.none.powder.calcit1.spectrum.txt
Measurement: Transmission
X Units: Wavelength (micrometers)
Y Units: Transmittance (percent)
wavelength	value
25.0442	87.1287
24.3388	90.2185
23.6719	91.0877
23.0407	93.1189
22.4422	94.0154
21.8741	94.8611
21.334	96.0623
20.8199	96.3914
20.33	97.3445
19.8627	97.4539
19.4163	97.9958
18.9896	98.324
18.5812	98.6384
18.19	99.1374
17.815	99.1335
17.4551	99.4607
17.1094	99.4499
16.7772	99.5779
16.4576	99.6199
16.15	99.572
15.8537	99.926
15.568	99.9455
15.2925	99.9138
15.0265	100.05
14.7697	99.9412
14.5214	99.6453
14.2814	98.1604
14.0492	76.5154
13.8244	99.6799
13.6067	100.16
13.3957	100.418
13.1912	100.304
12.9929	99.9006
12.8004	99.8738
12.6135	100.042
12.432	99.9519
12.2557	99.6604
12.0843	98.8264
11.9176	97.8074
11.7555	95.3845
11.5977	89.4763
11.444	45.4301
11.2944	78.4085
11.1487	95.6414
11.0067	97.051
10.8682	97.3674
10.7332	97.0608
10.6015	96.8899
10.473	96.9687
10.3476	96.6794
10.2251	96.2998
10.1056	96.0029
9.9887	95.5674
9.8746	95.293
9.763	95.0789
9.6539	94.709
9.5472	94.407
9.4429	94.0242
9.3408	93.5183
9.2409	92.8191
9.1431	92.5457
9.0474	92.407
8.9536	92.217
8.8618	91.4099
8.7718	90.6453
8.6837	89.9746
8.5973	89.249
8.5126	88.3992
8.4295	87.7715
8.3481	87.0996
8.2682	86.2334
8.1898	85.1436
8.1129	83.8372
8.0374	82.3897
7.9634	80.9336
7.8906	79.1062
7.8192	76.8953
7.7491	74.5076
7.6802	71.5359
7.6126	68.3184
7.5461	64.7921
7.4807	60.4842
7.4165	55.2084
7.3534	48.8368
7.2914	40.9931
7.2303	32.1606
7.1703	22.1899
7.1113	15.5029
7.0533	10.1469
6.9962	10.1655
6.94	11.9961
6.8847	14.4409
6.8302	17.5869
6.7767	21.6398
6.7239	27.5256
6.672	34.7001
6.6209	42.2719
6.5705	49.1234
6.5209	55.5643
6.4721	62.0011
6.424	67.7169
6.3766	71.8416
6.3299	74.7845
6.2838	77.2991
6.2385	80.0186
6.1937	82.0137
6.1496	83.3875
6.1062	84.6375
6.0633	86.0117
6.0211	87.8067
5.9794	89.4841
5.9383	89.7803
5.8978	90.4024
5.8578	91.1663
5.8184	91.8552
5.7794	92.5017
5.741	93.0713
5.7031	93.7551
5.6657	94.4033
5.6288	94.9451
5.5924	93.8213
5.5564	88.5027
5.5209	94.5107
5.4859	95.7571
5.4513	96.4958
5.4171	96.9744
5.3833	97.3232
5.35	97.7327
5.3171	98.0456
5.2846	98.3357
5.2524	98.5859
5.2207	98.8508
5.1893	99.0705
5.1584	99.3147
5.1277	99.4541
5.0975	99.6006
5.0676	99.7712
5.038	99.9753
5.0088	100.108
4.98	100.224
4.9514	100.393
4.9232	100.475
4.8953	100.642
4.8678	100.696
4.8405	100.79
4.8135	100.927
4.7868	101.053
4.7605	101.092
4.7344	101.192
4.7086	101.12
4.6831	101.094
4.6578	101.168
4.6328	101.394
4.6081	101.652
4.5837	101.592
4.5595	101.632
4.5356	101.684
4.5119	101.742
4.4884	101.796
4.4652	101.888
4.4423	101.912
4.4196	101.956
4.3971	101.968
4.3748	102.082
4.3528	102.094
4.331	102.138
4.3094	102.17
4.288	102.184
4.2668	102.222
4.2458	102.231
4.2251	102.251
4.2045	102.236
4.1841	102.265
4.164	102.221
4.144	102.281
4.1242	102.266
4.1046	102.209
4.0852	102.145
4.066	102.02
4.047	101.767
4.0281	101.157
4.0094	99.6418
3.9909	96.2898
3.9725	95.7097
3.9544	97.7585
3.9363	100.009
3.9185	100.449
3.9008	100.607
3.8833	100.726
3.8659	100.801
3.8487	100.956
3.8316	101.407
3.8147	101.898
3.7979	102.197
3.7813	102.553
3.7648	102.541
3.7485	102.622
3.7323	102.611
3.7162	102.65
3.7003	102.623
3.6845	102.635
3.6689	102.663
3.6534	102.624
3.638	102.646
3.6227	102.604
3.6076	102.598
3.5926	102.613
3.5777	102.564
3.563	102.489
3.5484	102.414
3.5338	102.152
3.5195	101.31
3.5052	100.539
3.491	99.8596
3.477	99.3718
3.463	100.862
3.4492	101.143
3.4355	101.162
3.4219	101.083
3.4084	100.921
3.395	101.025
3.3817	100.952
3.3685	101.01
3.3554	100.621
3.3425	101.382
3.3296	102.061
3.3168	102.187
3.3041	102.361
3.2915	102.404
3.279	102.361
3.2666	102.315
3.2543	102.29
3.2421	102.374
3.23	102.324
3.218	102.324
3.206	102.285
3.1942	102.22
3.1824	102.23
3.1707	102.029
3.1591	101.97
3.1476	102.011
3.1362	101.945
3.1249	101.951
3.1136	101.855
3.1024	101.642
3.0913	101.345
3.0803	101.407
3.0694	101.336
3.0585	101.138
3.0477	101.049
3.037	100.996
3.0264	101.079
3.0158	100.824
3.0053	100.662
2.9949	100.553
2.9845	100.273
2.9743	99.865
2.9641	99.6833
2.9539	99.2732
2.9439	99.2976
2.9339	99.0417
2.9239	98.9607
2.9141	98.8767
2.9043	98.9499
2.8946	98.866
2.8849	98.8669
2.8753	98.6501
2.8658	98.7322
2.8563	98.7859
2.8469	98.9431
2.8375	99.1003
2.8282	99.321
2.819	99.4314
2.8098	99.6736
2.8007	99.8454
2.7917	100.051
2.7827	100.203
2.7738	100.39
2.7649	100.513
2.7561	100.773
2.7473	101.027
2.7386	100.974
2.7299	101.05
2.7213	101.054
2.7128	100.931
2.7043	100.999
2.6959	101.191
2.6875	101.184
2.6791	101.173
2.6709	101.164
2.6626	101.154
2.6545	101.051
2.6463	101.136
2.6382	101.118
2.6302	101.038
2.6222	101.159
2.6143	101.094
2.6064	100.977
2.5986	101.165
2.5908	101.097
2.583	100.99
2.5753	100.93
2.5677	100.785
2.5601	101.021
2.5525	100.86
2.545	100.659
2.5375	100.856
2.5301	100.782
2.5227	100.464
2.5154	100.684
2.5081	100.731
2.5008	100.672
2.4936	100.672
2.4864	100.629
2.4793	100.585
2.4722	100.73
2.4651	100.602
2.4581	100.8
2.4511	100.645
2.4442	100.478
2.4373	100.624
2.4305	100.415
2.4236	100.486
2.4169	100.449
2.4101	100.556
2.4034	100.366
2.3967	100.427
2.3901	100.361
2.3835	100.3
2.377	100.495
2.3704	100.423
2.364	100.613
2.3575	100.32
2.3511	100.648
2.3447	99.9997
2.3384	100.116
2.3321	100.355
2.3258	100.339
2.3195	100.589
2.3133	100.337
2.3071	100.292
2.301	100.314
2.2949	100.4
2.2888	100.413
2.2828	100.171
2.2767	100.339
2.2708	100.019
2.2648	100.556
2.2589	99.9997
2.253	100.269
2.2471	100.163
2.2413	100.406
2.2355	100.4
2.2297	100.327
2.224	100.212
2.2183	100.226
2.2126	100.296
2.207	100.142
2.2013	100.22
2.1957	100.148
2.1902	100.259
2.1846	100.175
2.1791	100.132
2.1736	100.292
2.1682	100.241
2.1628	100.261
2.1574	100.179
2.152	99.8064
2.1466	100.072
2.1413	99.7126
2.136	100.165
2.1308	100.343
2.1255	100.048
2.1203	100.134
2.1151	100.327
2.11	100.087
2.1048	100.048
2.0997	100.493
2.0946	100.564
2.0895	99.9607
2.0845	100.142
2.0795	100.306
