Name: Hornblende Ca2(Fe+2,Mg)4Al(Si7Al)O22(OH,F)2
Type: Mineral
Class: Silicate
Subclass: Inosilicate
Particle Size: Fine
Sample No.: hornblen_3
Owner: JHU
Wavelength Range: TIR
Origin: Calumet Island, Ottowa River, Canada via the Smithsaonian(sample no. NMNH 78662)
Description: Sample was a cluster of several large, deep green crystals. A small amount of contamination was found in thin veins along cleavage planes. Microscopic examination revealed newr purity with less than 1% impurities of low index veins. An index of refraction of <1.64 and pleochroism (green to greenish brown) indicated that this is probably magnesian hornblende. Particle size was Less than 2 micrometers. (Amphibole Group) Original ASTER Spectral Library name was jhu.nicolet.mineral.silicate.inosilicate.powder.hornbl3.spectrum.txt
Measurement: transmission
X Units: Wavelength (micrometers)
Y Units: transmittance (percent)
wavelength	value
25.044	58.785
24.339	55.203
23.672	50.939
23.041	43.254
22.442	35.166
21.874	31.473
21.334	34.137
20.82	43.074
20.33	53.398
19.863	44.637
19.416	45.961
18.99	51.773
18.581	54.801
18.19	60.824
17.815	70.43
17.455	76.044
17.109	80.145
16.777	83.324
16.458	85.6
16.15	87.084
15.854	86.685
15.568	81.221
15.292	80.674
15.027	79.929
14.77	78.658
14.521	74.299
14.281	82.403
14.049	85.211
13.824	82.748
13.607	81.246
13.396	74.857
13.191	68.076
12.993	83.185
12.8	88.803
12.614	90.204
12.432	89.02
12.256	85.953
12.084	82.26
11.918	77.985
11.755	74.047
11.598	70.045
11.444	65.473
11.294	60.205
11.149	54.268
11.007	46.58
10.868	39.893
10.733	45.261
10.602	36.741
10.473	34.813
10.348	39.515
10.225	39.935
10.106	35.14
9.9887	36.654
9.8746	41.479
9.763	48.359
9.6539	50.466
9.5472	48.507
9.4429	47.544
9.3408	49.675
9.2409	51.52
9.1431	47.757
9.0474	46.049
8.9536	51.202
8.8618	56.857
8.7718	62.376
8.6837	66.902
8.5973	70.18
8.5126	72.29
8.4295	74.126
8.3481	75.897
8.2682	77.549
8.1898	78.935
8.1129	80.083
8.0374	81.16
7.9634	82.402
7.8906	83.42
7.8192	84.156
7.7491	84.96
7.6802	85.626
7.6126	86.306
7.5461	87.026
7.4807	87.496
7.4165	88.035
7.3534	88.413
7.2914	88.911
7.2303	89.111
7.1703	90.136
7.1113	90.616
7.0533	90.785
6.9962	91.226
6.94	91.826
6.8847	92.188
6.8302	92.432
6.7767	92.751
6.7239	93.128
6.672	93.584
6.6209	93.994
6.5705	94.373
6.5209	94.633
6.4721	94.817
6.424	94.946
6.3766	94.972
6.3299	94.94
6.2838	94.796
6.2385	94.498
6.1937	93.985
6.1496	93.571
6.1062	93.812
6.0633	94.44
6.0211	95.917
5.9794	96.874
5.9383	96.541
5.8978	96.553
5.8578	96.802
5.8184	97.089
5.7794	97.357
5.741	97.621
5.7031	97.776
5.6657	97.785
5.6288	97.937
5.5924	98.082
5.5564	98.175
5.5209	98.359
5.4859	98.451
5.4513	98.491
5.4171	98.651
5.3833	98.738
5.35	98.745
5.3171	98.805
5.2846	98.874
5.2524	98.953
5.2207	99.111
5.1893	99.224
5.1584	99.141
5.1277	99.094
5.0975	99.198
5.0676	99.181
5.038	99.326
5.0088	99.376
4.98	99.459
4.9514	99.451
4.9232	99.544
4.8953	99.582
4.8678	99.613
4.8405	99.678
4.8135	99.654
4.7868	99.73
4.7605	99.803
4.7344	99.829
4.7086	99.865
4.6831	99.938
4.6578	99.962
4.6328	100.02
4.6081	100.17
4.5837	100.09
4.5595	100.12
4.5356	100.11
4.5119	100.07
4.4884	100.1
4.4652	100.08
4.4423	100.05
4.4196	100.07
4.3971	100.04
4.3748	100.01
4.3528	99.98
4.331	99.96
4.3094	100.01
4.288	99.991
4.2668	99.95
4.2458	99.957
4.2251	99.901
4.2045	99.878
4.1841	99.848
4.164	99.87
4.144	99.816
4.1242	99.796
4.1046	99.782
4.0852	99.733
4.066	99.727
4.047	99.685
4.0281	99.675
4.0094	99.635
3.9909	99.547
3.9725	99.447
3.9544	99.441
3.9363	99.545
3.9185	99.548
3.9008	99.5
3.8833	99.395
3.8659	99.302
3.8487	99.365
3.8316	99.315
3.8147	99.25
3.7979	99.215
3.7813	99.3
3.7648	99.169
3.7485	99.095
3.7323	99.084
3.7162	99.078
3.7003	98.872
3.6845	98.895
3.6689	98.826
3.6534	98.814
3.638	98.713
3.6227	98.695
3.6076	98.671
3.5926	98.637
3.5777	98.575
3.563	98.49
3.5484	98.373
3.5338	98.382
3.5195	98.27
3.5052	98.145
3.491	98.039
3.477	97.999
3.463	97.936
3.4492	97.893
3.4355	97.816
3.4219	97.653
3.4084	97.517
3.395	97.536
3.3817	97.578
3.3685	97.679
3.3554	97.502
3.3425	97.475
3.3296	97.473
3.3168	97.373
3.3041	97.414
3.2915	97.377
3.279	97.248
3.2666	97.172
3.2543	97.061
3.2421	97.104
3.23	97.061
3.218	96.914
3.206	96.828
3.1942	96.758
3.1824	96.623
3.1707	96.432
3.1591	96.303
3.1476	96.078
3.1362	95.879
3.1249	95.84
3.1136	95.569
3.1024	95.207
3.0913	94.963
3.0803	94.783
3.0694	94.599
3.0585	94.252
3.0477	93.996
3.037	93.823
3.0264	93.634
3.0158	93.217
3.0053	92.725
2.9949	92.209
2.9845	91.584
2.9743	90.782
2.9641	90.087
2.9539	89.306
2.9439	88.758
2.9339	88.531
2.9239	88.091
2.9141	87.924
2.9043	88.008
2.8946	88.24
2.8849	88.453
2.8753	88.476
2.8658	88.688
2.8563	89.15
2.8469	89.43
2.8375	89.912
2.8282	90.427
2.819	90.914
2.8098	91.266
2.8007	91.57
2.7917	92.075
2.7827	92.5
2.7738	92.884
2.7649	93.05
2.7561	93.349
2.7473	93.291
2.7386	93.271
2.7299	90.853
2.7213	85.895
2.7128	95.183
2.7043	95.236
2.6959	95.441
2.6875	95.556
2.6791	95.52
2.6709	95.641
2.6626	95.387
2.6545	95.386
2.6463	95.563
2.6382	95.594
2.6302	95.402
2.6222	95.356
2.6143	95.372
2.6064	95.183
2.5986	95.175
2.5908	95.258
2.583	95.227
2.5753	95.086
2.5677	95.079
2.5601	95.18
2.5525	95.005
2.545	94.898
2.5375	95.024
2.5301	94.925
2.5227	94.759
2.5154	94.873
2.5081	94.91
2.5008	94.724
2.4936	94.681
2.4864	94.738
2.4793	94.666
2.4722	94.771
2.4651	94.703
2.4581	94.683
2.4511	94.59
2.4442	94.568
2.4373	94.595
2.4305	94.644
2.4236	94.345
2.4169	94.433
2.4101	94.593
2.4034	94.55
2.3967	94.314
2.3901	94.267
2.3835	94.111
2.377	94.355
2.3704	94.242
2.364	94.314
2.3575	94.449
2.3511	94.41
2.3447	93.963
2.3384	94.039
2.3321	93.98
2.3258	93.89
2.3195	94.367
2.3133	94.111
2.3071	93.666
2.301	93.922
2.2949	94.191
2.2888	93.978
2.2828	94.218
2.2767	94.113
2.2708	94.134
2.2648	93.996
2.2589	94.275
2.253	94.371
2.2471	93.957
2.2413	94.283
2.2355	93.91
2.2297	94.025
2.224	93.845
2.2183	93.884
2.2126	93.914
2.207	93.744
2.2013	93.97
2.1957	93.89
2.1902	93.791
2.1846	93.728
2.1791	93.906
2.1736	93.939
2.1682	93.713
2.1628	94
2.1574	93.97
2.152	93.666
2.1466	93.752
2.1413	93.621
2.136	93.98
2.1308	94.34
2.1255	94.394
2.1203	93.605
2.1151	93.711
2.11	93.73
2.1048	93.867
2.0997	94.066
2.0946	94.222
2.0895	94.199
2.0845	94
2.0795	93.961
