Name: Chalcocite Cu_2S
Type: Mineral
Class: Sulfide
Subclass: None
Particle Size: Medium
Sample No.: S-8A
Owner: JPL
Wavelength Range: TIR
Origin: USA, Alaska, Kennecott
Description: Particle size was 45-125um.Collected by Burmico Original ASTER Spectral Library name was jpl.nicolet.mineral.sulfide.none.medium.s08a.spectrum.txt
Measurement: Hemispherical reflectance
X Units: Wavelength (micrometers)
Y Units: Reflectance (percent)
wavelength	value
15.3853	10.0065
15.1161	9.9793
14.8563	9.9391
14.6052	9.5555
14.3624	9.6538
14.1276	9.9954
13.9004	9.8888
13.6803	9.9914
13.4671	9.7045
13.2604	9.7827
13.06	9.8563
12.8656	9.9741
12.6769	9.9413
12.4936	9.8892
12.3155	9.7703
12.1425	9.836
11.9742	9.6764
11.8106	9.9214
11.6513	9.7711
11.4963	9.5992
11.3454	9.9058
11.1983	9.8792
11.0551	9.9465
10.9154	9.7589
10.7793	9.895
10.6465	9.7415
10.5169	9.9166
10.3904	9.8765
10.267	10.1478
10.1464	10.3428
10.0287	10.1772
9.9136	10.3585
9.8012	10.4997
9.6913	10.5466
9.5838	10.8312
9.4787	10.6708
9.3758	10.8737
9.2752	11.129
9.1767	11.1947
9.0803	11.3651
8.9858	11.0661
8.8934	11.0072
8.8028	10.8996
8.714	10.6104
8.627	10.3241
8.5417	10.5145
8.4581	10.468
8.3761	10.3459
8.2957	10.5887
8.2169	10.2787
8.1395	10.1445
8.0635	10.043
7.989	9.9451
7.9158	9.7797
7.8439	9.6989
7.7734	9.7749
7.7041	9.7465
7.636	9.6352
7.5691	9.6498
7.5034	9.5369
7.4388	9.5764
7.3753	9.6429
7.3129	9.7396
7.2515	9.6525
7.1912	9.5682
7.1318	9.6558
7.0734	9.6599
7.016	9.6918
6.9595	9.7795
6.9039	9.718
6.8492	9.6932
6.7953	9.7371
6.7423	9.6245
6.6901	9.7073
6.6387	9.7599
6.5881	9.6009
6.5382	9.526
6.4892	9.8305
6.4408	9.631
6.3931	9.5996
6.3462	9.6902
6.2999	9.6087
6.2543	9.5498
6.2094	9.4483
6.1651	9.5844
6.1214	9.5471
6.0784	9.6632
6.0359	9.5238
5.994	9.613
5.9527	9.5566
5.912	9.4486
5.8718	9.5509
5.8322	9.484
5.7931	9.4817
5.7545	9.4503
5.7165	9.5747
5.6789	9.4523
5.6418	9.4634
5.6052	9.3706
5.5691	9.3682
5.5334	9.2463
5.4982	9.2975
5.4635	9.3835
5.4291	9.1737
5.3952	9.3528
5.3618	9.2326
5.3287	9.2786
5.2961	9.1966
5.2638	9.2705
5.2319	9.3051
5.2004	9.3252
5.1693	9.3269
5.1386	9.353
5.1082	9.3882
5.0782	9.1076
5.0485	9.276
5.0192	9.2003
4.9902	9.2815
4.9616	9.2703
4.9332	9.3126
4.9052	9.3056
4.8776	9.2707
4.8502	9.3202
4.8231	9.3043
4.7963	9.2067
4.7699	9.3878
4.7437	9.2955
4.7178	9.3116
4.6922	9.3263
4.6668	9.2792
4.6418	9.3158
4.617	9.2362
4.5924	9.3372
4.5681	9.2437
4.5441	9.3081
4.5203	9.2421
4.4968	9.3033
4.4735	9.2178
4.4505	9.3003
4.4277	9.246
4.4051	9.2544
4.3828	9.1954
4.3607	9.257
4.3388	9.1921
4.3171	9.327
4.2956	9.1964
4.2744	9.245
4.2534	9.2173
4.2325	9.2361
4.2119	9.392
4.1915	9.0716
4.1712	9.2086
4.1512	9.1559
4.1313	9.234
4.1117	9.1484
4.0922	9.1408
4.0729	9.1386
4.0538	9.1157
4.0349	9.0785
4.0161	9.1458
3.9976	9.1124
3.9792	9.1543
3.9609	9.0625
3.9428	9.0882
3.9249	9.066
3.9072	9.0977
3.8896	9.0048
3.8722	8.9867
3.8549	9.0873
3.8378	9.1014
3.8208	9.0761
3.804	8.9908
3.7873	9.026
3.7708	9.0565
3.7544	9.0218
3.7382	9.0107
3.7221	9.1063
3.7061	9.0756
3.6903	8.9087
3.6746	8.9967
3.659	8.9873
3.6436	8.9798
3.6283	9.0645
3.6131	8.859
3.5981	8.99
3.5832	8.948
3.5684	8.9733
3.5537	8.9076
3.5391	8.9786
3.5247	8.9628
3.5104	9.1205
3.4962	9.0248
3.4821	8.9985
3.4681	8.9753
3.4543	8.9528
3.4405	8.9853
3.4269	8.9661
3.4133	9.0731
3.3999	8.9649
3.3866	8.8926
3.3733	8.9094
3.3602	9.0132
3.3472	8.8167
3.3343	8.8831
3.3215	8.8919
3.3088	8.8985
3.2961	8.8446
3.2836	8.746
3.2712	8.8475
3.2588	8.9541
3.2466	8.809
3.2345	8.8528
3.2224	8.8216
3.2104	8.738
3.1985	8.8303
3.1867	8.7501
3.175	8.7589
3.1634	8.7328
3.1519	8.6611
3.1404	8.7639
3.129	8.8126
3.1178	8.6525
3.1065	8.6279
3.0954	8.751
3.0844	8.6939
3.0734	8.7366
3.0625	8.7976
3.0517	8.6246
3.041	8.6002
3.0303	8.7967
3.0197	8.7417
3.0092	8.7219
2.9987	8.6642
2.9884	8.6267
2.9781	8.7013
2.9678	8.6936
2.9577	8.821
2.9476	8.7065
2.9376	8.7091
2.9276	8.846
2.9177	8.7492
2.9079	8.7165
2.8982	8.7634
2.8885	8.7067
2.8789	8.9241
2.8693	8.7122
2.8598	8.5902
2.8504	8.6237
2.841	8.6277
2.8317	8.7841
2.8224	8.6562
2.8133	8.4955
2.8041	8.5178
2.7951	8.3661
2.786	8.4281
2.7771	8.2521
2.7682	8.1945
2.7594	7.9964
2.7506	8.2988
2.7418	8.1241
2.7332	8.3734
2.7246	8.5904
2.716	8.3352
2.7075	8.4468
2.699	8.5589
2.6906	8.366
2.6823	8.5721
2.674	8.6006
2.6657	8.7467
2.6575	8.4042
2.6494	8.43
2.6413	8.5205
2.6332	8.5783
2.6252	8.5068
2.6173	8.6457
2.6094	8.4852
2.6015	8.519
2.5937	8.5285
2.5859	8.4478
2.5782	8.4172
2.5706	8.4878
2.5629	8.5288
2.5554	8.3468
2.5478	8.5025
2.5403	8.2998
2.5329	8.5578
2.5255	8.4412
2.5181	8.3766
2.5108	8.3953
2.5035	8.4691
2.4963	8.3906
2.4891	8.3866
2.482	8.3773
2.4749	8.5793
2.4678	8.2705
2.4608	8.3277
2.4538	8.3808
2.4468	8.3908
2.4399	8.4956
2.4331	8.4015
2.4262	8.2934
2.4194	8.3993
2.4127	8.3446
2.4059	8.2873
2.3993	8.2863
2.3926	8.1643
2.386	8.3519
2.3795	8.3615
2.3729	8.3457
2.3664	8.309
2.36	8.2482
2.3535	8.3789
2.3471	8.059
2.3408	8.5783
2.3345	8.3168
2.3282	8.5081
2.3219	8.2513
2.3157	8.3875
2.3095	8.3307
2.3034	8.3833
2.2972	8.2983
2.2911	8.0843
2.2851	8.1514
2.279	8.3146
2.2731	8.4918
2.2671	8.2104
2.2612	8.4441
2.2553	8.148
2.2494	8.1273
2.2435	8.1538
2.2377	8.3035
2.232	8.3761
2.2262	8.2241
2.2205	8.2909
2.2148	8.314
2.2091	8.1212
2.2035	8.0729
2.1979	8.1182
2.1923	8.2681
2.1868	8.1874
2.1812	8.2359
2.1758	8.3539
2.1703	8.238
2.1649	8.2057
2.1595	8.2433
2.1541	8.1273
2.1487	8.0517
2.1434	8.051
2.1381	8.1051
2.1328	8.3147
2.1275	8.1129
2.1223	8.194
2.1171	8.3318
2.112	8.0781
2.1068	7.8974
2.1017	8.3208
2.0966	7.8743
2.0915	7.7774
2.0865	8.0409
2.0814	8.2455
2.0764	8.0286
2.0715	8.0156
2.0665	7.5591
2.0616	8.3492
2.0567	8.0661
2.0518	8.1807
2.0469	8.1324
2.0421	8.2453
2.0373	8.1897
2.0325	8.3179
2.0277	8.1086
2.0229	8.2781
2.0182	7.9822
2.0135	8.4891
2.0088	8.0039
2.0042	8.1878
