Name: Zircon ZrSiO_4
Type: Mineral
Class: Silicate
Subclass: Nesosilicate
Particle Size: Coarse
Sample No.: NS-9A
Owner: JPL
Wavelength Range: VSWIR
Origin: Malawi, Southern Malawi, Blantyre-Limbe District
Description: Particle size was 125-500um.Collected by Burminco Original ASTER Spectral Library name was jpl.beckman.mineral.silicate.nesosilicate.coarse.ns09a.spectrum.txt
Measurement: Hemispherical reflectance
X Units: Wavelength (micrometers)
Y Units: Reflectance (percent)
wavelength	value
0.4	12.19
0.403	12.57
0.406	12.78
0.409	13.06
0.412	13.33
0.415	13.51
0.418	13.66
0.421	13.85
0.424	14.23
0.427	14.58
0.43	14.81
0.433	15.17
0.436	15.63
0.439	16.07
0.442	16.45
0.445	16.63
0.448	17.04
0.451	17.34
0.454	17.4
0.457	17.53
0.46	17.72
0.463	17.83
0.466	17.94
0.469	18.05
0.472	18.07
0.475	18.07
0.478	18.13
0.481	18.24
0.484	18.56
0.487	18.76
0.49	19.07
0.493	19.25
0.496	19.27
0.499	19.36
0.502	19.47
0.505	19.43
0.508	19.44
0.511	19.49
0.514	19.71
0.517	20.08
0.52	20.32
0.523	20.54
0.526	20.96
0.529	21.17
0.532	21.26
0.535	21.2
0.538	21.52
0.541	21.95
0.544	22.23
0.547	22.52
0.55	22.95
0.553	23.27
0.556	23.42
0.559	23.59
0.562	24.13
0.565	24.54
0.568	24.68
0.571	25.04
0.574	25.01
0.577	25.11
0.58	25.39
0.583	25.29
0.586	25.27
0.589	25.66
0.592	26.33
0.595	26.99
0.598	27.37
0.601	27.74
0.604	28.17
0.607	28.49
0.61	28.54
0.613	28.63
0.616	28.9
0.619	29.29
0.622	29.82
0.625	30.37
0.628	30.76
0.631	31.14
0.634	31.3
0.637	31.36
0.64	31.34
0.643	31.13
0.646	30.22
0.649	28.45
0.652	27.17
0.655	29.67
0.658	31.16
0.661	33.07
0.664	35.03
0.667	36.61
0.67	37.44
0.673	38.08
0.676	38.61
0.679	38.82
0.682	38.72
0.685	38.48
0.688	37.77
0.691	40.13
0.694	41.36
0.697	42.21
0.7	42.72
0.703	43.55
0.706	43.98
0.709	44.35
0.712	44.84
0.715	45.21
0.718	45.5
0.721	45.78
0.724	46.26
0.727	46.49
0.73	46.7
0.733	46.98
0.736	47.21
0.739	47.35
0.742	47.63
0.745	47.86
0.748	48.06
0.751	48.03
0.754	48.23
0.757	48.46
0.76	48.54
0.763	48.66
0.766	48.91
0.769	48.99
0.772	49.13
0.775	49.05
0.778	49.16
0.781	49.13
0.784	49.19
0.787	49.07
0.79	49.1
0.793	48.99
0.796	48.74
0.799	48.55
0.808	48.86
0.82	48.27
0.832	47.74
0.844	47.23
0.856	47.18
0.868	47.06
0.88	46.49
0.892	45.96
0.904	45.65
0.916	45.83
0.928	47.15
0.94	47.21
0.952	46.76
0.964	46.16
0.976	45.4
0.988	45.66
1	45.08
1.012	44.2
1.024	43.54
1.036	41.98
1.048	40.06
1.06	39.7
1.072	40.01
1.084	38.85
1.096	36.83
1.108	33.11
1.12	35.17
1.132	39.14
1.144	42.22
1.156	46.14
1.168	49.76
1.18	52.42
1.192	53.95
1.204	54.77
1.216	54.95
1.228	54.97
1.24	54.81
1.252	54.46
1.264	53.89
1.276	53.53
1.288	52.94
1.3	52.52
1.312	51.69
1.324	51.03
1.336	51.13
1.348	51.76
1.36	53.44
1.372	54.69
1.384	55.45
1.396	55.76
1.408	55.82
1.42	55.75
1.432	55.12
1.444	54.25
1.456	52.6
1.468	49.91
1.48	47.16
1.492	41.29
1.504	40.95
1.516	49.58
1.528	51.58
1.54	53.42
1.552	56.24
1.564	57.66
1.576	58.68
1.588	59.36
1.6	59.62
1.612	59.61
1.624	59.6
1.636	59.38
1.648	58.71
1.66	58.32
1.672	59.08
1.684	59.58
1.696	59.76
1.708	60.04
1.72	60.51
1.732	60.79
1.744	61.03
1.756	61.4
1.768	61.67
1.78	61.76
1.792	61.91
1.804	62.04
1.816	62.02
1.828	62.04
1.84	62
1.852	61.91
1.864	61.81
1.876	61.44
1.888	60.91
1.9	60.34
1.912	59.73
1.924	59.51
1.936	59.37
1.948	59.47
1.96	59.36
1.972	59.46
1.984	59.39
1.996	59.19
2.008	58.8
2.02	58.2
2.032	57.4
2.044	56.26
2.056	54.79
2.068	54.18
2.08	54.72
2.092	56.04
2.104	57.13
2.116	57.84
2.128	58.29
2.14	58.37
2.152	58.21
2.164	58.24
2.176	58.13
2.188	58.06
2.2	58.11
2.212	58.23
2.224	58.42
2.236	58.37
2.248	58.31
2.26	58.36
2.272	58.58
2.284	58.61
2.296	58.81
2.308	58.84
2.32	59
2.332	58.89
2.344	58.77
2.356	58.52
2.368	58.36
2.38	58.32
2.392	58.39
2.404	58.45
2.416	58.43
2.428	58.31
2.44	58.04
2.452	57.63
2.464	57.2
2.476	56.73
2.488	56.52
2.5	56.29
