Name: Trona Na3(CO)(HCO3) * 2H2O
Type: Mineral
Class: Carbonate
Subclass: None
Particle Size: Coarse
Sample No.: Traonac
Owner: USGS
Wavelength Range: All
Origin: Green River Formation, Wyoming
Description: Trona, from the Green River Formation, WyomingSample was Unsieved coarse powder. Original ASTER Spectral Library name was usgs.perknic.mineral.carbonate.none.coarse.tronac.spectrum.txt
Measurement: Directional Hemispherical Reflectance
X Units: Wavelength (micrometers)
Y Units: Reflectance (percent)
wavelength	value
13.9	1.277
13.644	1.318
13.398	1.658
13.16	1.802
12.93	2.009
12.708	2.101
12.494	2.153
12.287	2.111
12.086	2.276
11.892	2.699
11.704	6.891
11.522	2.833
11.346	2.184
11.175	2.081
11.009	2.039
10.848	2.039
10.691	2.081
10.539	2.06
10.391	2.194
10.247	2.153
10.108	2.142
9.972	2.132
9.839	2.235
9.71	2.153
9.585	2.029
9.462	2.225
9.343	2.338
9.226	2.266
9.113	2.297
9.002	2.225
8.894	2.256
8.789	2.184
8.686	2.245
8.585	2.153
8.487	2.297
8.391	2.307
8.297	2.287
8.205	2.225
8.115	2.111
8.027	2.009
7.941	1.813
7.857	1.772
7.774	1.679
7.694	1.576
7.614	1.545
7.537	1.524
7.461	1.463
7.387	1.442
7.314	1.37
7.242	1.36
7.172	1.329
7.103	1.267
7.036	1.36
6.97	1.38
6.905	1.617
6.841	1.957
6.778	2.317
6.717	2.173
6.657	1.555
6.597	1.102
6.539	0.886
6.482	0.875
6.426	0.772
6.37	0.762
6.316	0.772
6.263	0.834
6.21	0.855
6.159	0.906
6.108	1.04
6.058	1.02
6.009	1.092
5.96	1.174
5.913	1.267
5.866	1.267
5.82	1.308
5.775	1.154
5.73	1.123
5.686	0.999
5.643	0.989
5.6	0.927
5.558	0.896
5.517	0.886
5.476	0.896
5.436	0.896
5.396	0.927
5.357	0.937
5.319	0.948
5.281	0.948
5.243	1.009
5.206	1.03
5.17	1.009
5.134	1.051
5.099	1.081
5.064	1.092
5.03	1.102
4.996	1.123
4.962	1.195
4.929	1.205
4.897	1.246
4.865	1.215
4.833	1.267
4.802	1.329
4.771	1.318
4.74	1.37
4.71	1.37
4.68	1.442
4.651	1.421
4.622	1.483
4.593	1.494
4.565	1.524
4.537	1.535
4.509	1.566
4.482	1.452
4.455	1.473
4.428	1.421
4.402	1.421
4.376	1.483
4.35	1.421
4.325	1.411
4.3	1.555
4.275	1.597
4.251	1.586
4.226	1.638
4.202	1.586
4.179	1.658
4.155	1.679
4.132	1.669
4.109	1.638
4.086	1.566
4.064	1.669
4.042	1.73
4.02	1.72
3.998	1.73
3.977	1.689
3.956	1.689
3.935	1.71
3.914	1.679
3.893	1.772
3.873	1.875
3.853	1.844
3.833	1.792
3.813	1.844
3.794	1.895
3.774	1.895
3.755	1.844
3.736	1.916
3.717	1.844
3.699	1.772
3.68	1.792
3.662	1.802
3.644	1.782
3.626	1.751
3.609	1.658
3.591	1.627
3.574	1.586
3.557	1.658
3.54	1.617
3.523	1.514
3.506	1.473
3.49	1.483
3.473	1.401
3.457	1.442
3.441	1.391
3.425	1.318
3.409	1.257
3.394	1.36
3.378	1.36
3.363	1.277
3.348	1.236
3.333	1.185
3.318	1.226
3.303	1.164
3.288	1.071
3.274	1.133
3.259	1.112
3.245	1.04
3.231	1.092
3.217	1.03
3.203	1.051
3.189	1.04
3.176	1.071
3.162	1.061
3.149	0.968
3.135	1.04
3.122	1.061
3.109	1.092
3.096	0.999
3.083	1.061
3.07	0.937
3.058	1.061
3.045	1.143
3.033	1.226
3.02	1.051
3.008	1.226
2.996	1.164
2.984	1.205
2.972	1.02
2.96	1.102
2.948	1.246
2.937	1.143
2.925	1.236
2.913	1.411
2.902	1.37
2.891	1.494
2.879	1.576
2.868	1.391
2.857	1.267
2.846	1.452
2.835	1.308
2.825	1.463
2.814	1.483
2.803	1.432
2.793	1.607
2.782	1.761
2.772	2.101
2.761	2.482
2.751	2.884
2.741	3.337
2.731	3.893
2.721	4.614
2.711	5.511
2.701	6.355
2.691	6.685
2.681	7.076
2.672	7.395
2.662	7.725
2.653	8.261
2.643	8.456
2.634	8.961
2.624	8.951
2.615	9.414
2.606	9.826
2.597	10.115
2.588	10.413
2.579	10.403
2.57	10.578
2.561	11.031
2.552	10.97
2.543	11.32
2.535	11.526
2.526	11.423
2.517	11.845
2.509	11.886
2.5	11.989
2.486	12.091
2.472	12.215
2.458	13.527
2.444	13.486
2.43	13.889
2.416	14.036
2.402	15.028
2.388	15.676
2.374	16.4
2.36	17.104
2.346	17.614
2.332	18.017
2.318	18.523
2.304	18.972
2.29	19.002
2.276	18.716
2.262	17.902
2.248	17.485
2.234	17.6
2.22	17.278
2.206	16.715
2.192	15.935
2.178	15.422
2.164	15.543
2.15	16.273
2.136	16.241
2.122	15.892
2.108	16.694
2.094	16.996
2.08	17.48
2.066	17.503
2.052	17.59
2.038	17.379
2.024	17.348
2.01	16.773
1.996	15.769
1.982	14.757
1.968	13.887
1.954	13.173
1.94	14.82
1.926	17.265
1.912	20.324
1.898	23.335
1.884	25.985
1.87	28.328
1.856	29.567
1.842	30.183
1.828	30.681
1.814	30.587
1.8	30.385
1.786	29.974
1.772	29.968
1.758	30.005
1.744	30.657
1.73	30.769
1.716	31.237
1.702	31.178
1.688	31.259
1.674	31.62
1.66	31.837
1.646	32.232
1.632	32.901
1.618	33.472
1.604	33.925
1.59	34.615
1.576	34.391
1.562	34.511
1.548	33.687
1.534	33.113
1.52	32.45
1.506	31.334
1.492	30.355
1.478	29.289
1.464	29.39
1.45	30.499
1.436	28.768
1.422	34.883
1.408	46.615
1.394	57.081
1.38	64.15
1.366	67.483
1.352	69.117
1.338	72.811
1.324	78.65
1.31	83.247
1.296	86.195
1.282	86.703
1.268	86.659
1.254	85.544
1.24	85.585
1.226	86.171
1.212	87.243
1.198	88.683
1.184	92.153
1.17	98.748
1.156	103.965
1.142	107.148
1.128	108.508
1.114	109.351
1.1	110.133
1.086	110.312
1.072	110.547
1.058	109.658
1.044	108.616
1.03	107
1.016	104.922
1.002	103.692
0.988	101.26
0.974	102.128
0.96	108.608
0.946	111.243
0.932	112.323
0.918	113.323
0.904	113.382
0.89	114.312
0.876	114.793
0.862	114.892
0.848	113.738
0.834	113.944
0.82	114.053
0.806	114.142
0.792	114.064
0.778	113.913
0.764	113.912
0.75	113.905
0.736	114.49
0.722	114.777
0.708	114.89
0.694	115.057
0.68	115.148
0.666	115.309
0.652	115.385
0.638	115.443
0.624	115.484
0.61	115.595
0.596	115.747
0.582	115.809
0.568	115.808
0.554	115.807
0.54	115.82
0.526	115.786
0.512	115.849
0.498	116.008
0.484	115.714
0.47	115.626
0.456	115.746
0.442	115.589
0.428	115.565
0.414	115.524
0.4	115.516
