Name: Orthoclase (Feldspar) (K,Na)AlSi_3O_8
Type: Mineral
Class: Silicate
Subclass: Tectosilicate
Particle Size: Fine
Sample No.: TS-12A
Owner: JPL
Wavelength Range: TIR
Origin: India
Description: Particle size was 0-45um.Collected by Burminco Original ASTER Spectral Library name was jpl.nicolet.mineral.silicate.tectosilicate.fine.ts12a.spectrum.txt
Measurement: Hemispherical reflectance
X Units: Wavelength (micrometers)
Y Units: Reflectance (percent)
wavelength	value
15.3853	2.134
15.1161	2.5221
14.8563	3.3003
14.6052	4.1169
14.3624	4.0895
14.1276	3.0584
13.9004	2.4334
13.6803	2.1107
13.4671	1.9809
13.2604	2.2739
13.06	2.0625
12.8656	2.1315
12.6769	2.1283
12.4936	3.3351
12.3155	7.9925
12.1425	13.284
11.9742	15.4673
11.8106	15.9103
11.6513	15.782
11.4963	15.3076
11.3454	14.4789
11.1983	13.4332
11.0551	11.9582
10.9154	10.0583
10.7793	7.9906
10.6465	6.605
10.5169	5.8001
10.3904	5.2896
10.267	5.2781
10.1464	5.5257
10.0287	5.863
9.9136	6.1845
9.8012	6.4561
9.6913	6.6579
9.5838	7.2175
9.4787	6.8866
9.3758	5.8116
9.2752	4.8165
9.1767	4.7586
9.0803	4.4702
8.9858	4.6156
8.8934	4.7838
8.8028	5.4049
8.714	5.821
8.627	6.1323
8.5417	6.5292
8.4581	6.4727
8.3761	6.1291
8.2957	5.2397
8.2169	3.426
8.1395	2.1288
8.0635	1.2982
7.989	0.9654
7.9158	0.357
7.8439	0.5175
7.7734	0.4272
7.7041	0.7335
7.636	1.0477
7.5691	1.4417
7.5034	2.0627
7.4388	2.8082
7.3753	3.6524
7.3129	4.3853
7.2515	5.3049
7.1912	6.4395
7.1318	7.631
7.0734	8.6803
7.016	9.6249
6.9595	10.7753
6.9039	11.1777
6.8492	11.9002
6.7953	12.6708
6.7423	12.8356
6.6901	13.9109
6.6387	15.5266
6.5881	15.413
6.5382	15.6253
6.4892	16.8383
6.4408	15.918
6.3931	15.6382
6.3462	15.6893
6.2999	14.8539
6.2543	14.9804
6.2094	15.3837
6.1651	16.152
6.1214	16.7912
6.0784	17.6717
6.0359	18.2453
5.994	19.1412
5.9527	19.3371
5.912	19.2061
5.8718	19.558
5.8322	19.2512
5.7931	18.5764
5.7545	18.1983
5.7165	18.0578
5.6789	17.502
5.6418	18.0619
5.6052	17.9496
5.5691	18.7901
5.5334	20.3685
5.4982	22.1505
5.4635	24.0025
5.4291	25.2775
5.3952	26.4927
5.3618	27.7038
5.3287	28.5183
5.2961	29.7035
5.2638	30.9705
5.2319	32.8312
5.2004	35.1009
5.1693	37.3233
5.1386	39.7886
5.1082	42.3055
5.0782	44.8223
5.0485	46.7921
5.0192	48.3384
4.9902	49.0096
4.9616	49.5922
4.9332	49.1768
4.9052	48.7084
4.8776	48.7221
4.8502	48.9756
4.8231	49.2433
4.7963	49.1434
4.7699	49.2455
4.7437	49.7111
4.7178	49.8749
4.6922	50.2435
4.6668	50.7204
4.6418	51.5424
4.617	52.6179
4.5924	53.9991
4.5681	55.4963
4.5441	57.1415
4.5203	58.8736
4.4968	60.2865
4.4735	61.8625
4.4505	63.2281
4.4277	64.6124
4.4051	65.9034
4.3828	67.1404
4.3607	68.4171
4.3388	69.7613
4.3171	71.2629
4.2956	72.7382
4.2744	73.8374
4.2534	74.3745
4.2325	75.7619
4.2119	75.677
4.1915	75.7291
4.1712	76.101
4.1512	76.3382
4.1313	76.6221
4.1117	76.7729
4.0922	76.9493
4.0729	77.0483
4.0538	77.0318
4.0349	77.0237
4.0161	76.7839
3.9976	76.6025
3.9792	76.3375
3.9609	76.5155
3.9428	76.8543
3.9249	77.1676
3.9072	77.2779
3.8896	77.505
3.8722	77.5155
3.8549	77.5737
3.8378	77.8543
3.8208	77.8547
3.804	77.9664
3.7873	78.1907
3.7708	78.2011
3.7544	78.1165
3.7382	78.133
3.7221	78.0704
3.7061	78.0007
3.6903	77.9845
3.6746	77.8873
3.659	77.7331
3.6436	77.6403
3.6283	77.4828
3.6131	77.2455
3.5981	77.0825
3.5832	76.9204
3.5684	76.7032
3.5537	76.2909
3.5391	75.9392
3.5247	75.381
3.5104	74.1897
3.4962	73.3577
3.4821	73.486
3.4681	73.4554
3.4543	73.1139
3.4405	72.462
3.4269	71.3466
3.4133	70.4054
3.3999	71.0363
3.3866	71.3052
3.3733	71.1724
3.3602	71.4792
3.3472	71.5402
3.3343	71.6246
3.3215	71.4216
3.3088	71.1423
3.2961	70.9092
3.2836	70.4503
3.2712	70.0847
3.2588	69.7821
3.2466	69.3321
3.2345	69.0258
3.2224	68.717
3.2104	68.348
3.1985	68.3136
3.1867	67.7623
3.175	67.4972
3.1634	67.1111
3.1519	66.9018
3.1404	66.4744
3.129	66.2177
3.1178	65.8269
3.1065	65.6088
3.0954	65.3434
3.0844	65.0374
3.0734	64.9029
3.0625	64.8059
3.0517	64.47
3.041	64.4227
3.0303	64.2251
3.0197	64.1324
3.0092	63.7621
2.9987	63.7075
2.9884	63.4934
2.9781	63.3113
2.9678	63.1638
2.9577	63.1558
2.9476	63.0734
2.9376	63.0702
2.9276	63.211
2.9177	63.1748
2.9079	63.2119
2.8982	63.1845
2.8885	63.3373
2.8789	63.437
2.8693	63.9191
2.8598	64.0059
2.8504	64.4692
2.841	64.752
2.8317	64.9714
2.8224	65.4844
2.8133	65.8777
2.8041	67.0101
2.7951	66.6625
2.786	67.7537
2.7771	67.8812
2.7682	69.128
2.7594	69.5563
2.7506	71.6822
2.7418	74.8441
2.7332	75.1713
2.7246	78.5766
2.716	77.7348
2.7075	78.3209
2.699	79.6686
2.6906	81.4536
2.6823	82.435
2.674	83.6248
2.6657	87.2997
2.6575	84.3837
2.6494	84.4531
2.6413	84.7796
2.6332	85.2952
2.6252	85.1627
2.6173	87.0289
2.6094	85.6852
2.6015	85.3894
2.5937	87.6159
2.5859	85.6966
2.5782	85.2749
2.5706	85.5746
2.5629	86.282
2.5554	84.7614
2.5478	85.2653
2.5403	84.7621
2.5329	85.1345
2.5255	84.7826
2.5181	84.9288
2.5108	84.8176
2.5035	84.9707
2.4963	84.8441
2.4891	84.9682
2.482	85.1362
2.4749	85.0467
2.4678	85.0049
2.4608	84.9736
2.4538	84.9812
2.4468	85.1829
2.4399	85.1604
2.4331	85.1831
2.4262	85.1607
2.4194	85.3514
2.4127	85.2494
2.4059	85.501
2.3993	85.3551
2.3926	85.2452
2.386	85.5299
2.3795	85.3399
2.3729	85.6269
2.3664	85.458
2.36	85.4616
2.3535	85.494
2.3471	85.5377
2.3408	85.4464
2.3345	85.4489
2.3282	85.557
2.3219	85.5047
2.3157	85.327
2.3095	85.4738
2.3034	85.5193
2.2972	85.2596
2.2911	85.5356
2.2851	85.4239
2.279	85.3544
2.2731	85.385
2.2671	85.3861
2.2612	85.4162
2.2553	85.4017
2.2494	85.3969
2.2435	85.3762
2.2377	85.585
2.232	85.6232
2.2262	85.1877
2.2205	85.5358
2.2148	85.5759
2.2091	85.6484
2.2035	85.4631
2.1979	85.6307
2.1923	85.5656
2.1868	85.6149
2.1812	85.6787
2.1758	85.7483
2.1703	85.6374
2.1649	85.6216
2.1595	85.9179
2.1541	85.772
2.1487	85.6697
2.1434	85.6057
2.1381	85.9297
2.1328	86.0078
2.1275	86.0176
2.1223	85.835
2.1171	85.9062
2.112	85.9443
2.1068	85.8822
2.1017	85.9319
2.0966	85.8537
2.0915	85.6635
2.0865	85.7376
2.0814	85.8605
2.0764	85.9475
2.0715	85.7227
2.0665	85.7452
2.0616	86.0657
2.0567	85.547
2.0518	86.1635
2.0469	85.8616
2.0421	85.9265
2.0373	85.9233
2.0325	85.9575
2.0277	85.9569
2.0229	85.9336
2.0182	86.0018
2.0135	85.8236
2.0088	86.0674
2.0042	85.7373
