Name: Anorthite (Feldspar) (NaSi,CaAl)AlSi_2O_8
Type: Mineral
Class: Silicate
Subclass: Tectosilicate
Particle Size: Coarse
Sample No.: TS-5A
Owner: JPL
Wavelength Range: VSWIR
Origin: Unknown.
Description: Particle size was 125-500um. Collected by:  JPL Original ASTER Spectral Library name was jpl.perkin.mineral.silicate.tectosilicate.coarse.ts05a.spectrum.txt
Measurement: Hemispherical reflectance
X Units: Wavelength (micrometers)
Y Units: Reflectance (percent)
wavelength	value
2.5	36.8523
2.494	36.8194
2.488	36.886
2.482	36.7554
2.476	36.5528
2.47	36.4257
2.464	36.393
2.458	36.683
2.452	37.2381
2.446	37.7473
2.44	38.3132
2.434	38.608
2.428	39.0604
2.422	39.4002
2.416	39.6658
2.41	39.75
2.404	39.7326
2.398	39.6427
2.392	39.3393
2.386	38.8641
2.38	38.4035
2.374	37.5999
2.368	36.567
2.362	35.586
2.356	34.9711
2.35	34.9685
2.344	35.3263
2.338	35.8537
2.332	36.5633
2.326	37.6382
2.32	39.0541
2.314	40.4387
2.308	41.4599
2.302	42.1154
2.296	42.5047
2.29	42.819
2.284	43.4593
2.278	43.9682
2.272	44.2295
2.266	44.2166
2.26	44.0803
2.254	44.2246
2.248	44.7421
2.242	45.47
2.236	46.3631
2.23	47.1422
2.224	48.0377
2.218	48.4981
2.212	48.6838
2.206	48.4512
2.2	48.2258
2.194	48.2369
2.188	48.5386
2.182	49.1501
2.176	49.8845
2.17	50.7011
2.164	51.4942
2.158	52.0827
2.152	52.5043
2.146	52.7783
2.14	52.9704
2.134	52.9692
2.128	53.0249
2.122	52.8873
2.116	52.753
2.11	52.5844
2.104	52.4967
2.098	52.4553
2.092	52.5454
2.086	52.5389
2.08	52.5369
2.074	52.4623
2.068	52.4197
2.062	52.4375
2.056	52.306
2.05	52.1539
2.044	52.0058
2.038	51.8827
2.032	51.722
2.026	51.4023
2.02	51.2163
2.014	50.8813
2.008	50.6365
2.002	50.3609
1.996	50.0726
1.99	49.7924
1.984	49.5308
1.978	49.1892
1.972	49.0161
1.966	48.8457
1.96	48.5905
1.954	48.4843
1.948	48.2434
1.942	47.9464
1.936	47.7105
1.93	47.2389
1.924	46.7846
1.918	46.3656
1.912	46.3088
1.906	46.9777
1.9	48.4857
1.894	50.0937
1.888	51.4053
1.882	52.1997
1.876	52.8143
1.87	53.0807
1.864	53.4361
1.858	53.5893
1.852	53.7231
1.846	53.6848
1.84	53.7416
1.834	53.8881
1.828	53.9906
1.822	54.0437
1.816	54.144
1.81	54.1527
1.804	54.0653
1.798	54.0677
1.792	54.034
1.786	53.9357
1.78	53.9665
1.774	53.9369
1.768	53.8576
1.762	53.7438
1.756	53.7646
1.75	53.7423
1.744	53.7004
1.738	53.5891
1.732	53.6449
1.726	53.5822
1.72	53.4759
1.714	53.4093
1.708	53.2644
1.702	53.1287
1.696	53.1135
1.69	53.0129
1.684	52.9699
1.678	52.9222
1.672	52.8198
1.666	52.7137
1.66	52.7246
1.654	52.6686
1.648	52.685
1.642	52.7249
1.636	52.6243
1.63	52.7005
1.624	52.7212
1.618	52.6448
1.612	52.6665
1.606	52.6308
1.6	52.5078
1.594	52.5201
1.588	52.4543
1.582	52.3643
1.576	52.258
1.57	52.1189
1.564	52.0974
1.558	52.1228
1.552	52.0755
1.546	52.0273
1.54	51.9004
1.534	51.8358
1.528	51.7285
1.522	51.5195
1.516	51.3194
1.51	51.182
1.504	50.9672
1.498	50.7232
1.492	50.4821
1.486	49.887
1.48	49.3002
1.474	49.1723
1.468	49.3311
1.462	49.1486
1.456	48.9766
1.45	48.8222
1.444	48.5424
1.438	48.3173
1.432	47.9353
1.426	47.6547
1.42	47.0763
1.414	45.7675
1.408	44.8415
1.402	45.2614
1.396	46.206
1.39	47.273
1.384	48.2071
1.378	48.2866
1.372	48.3415
1.366	48.185
1.36	48.0007
1.354	47.8174
1.348	47.6917
1.342	47.5117
1.336	47.3575
1.33	47.2654
1.324	47.0932
1.318	46.9378
1.312	46.7582
1.306	46.6017
1.3	46.4881
1.294	46.3801
1.288	46.2239
1.282	46.1108
1.276	45.9531
1.27	45.8994
1.264	45.7975
1.258	45.6177
1.252	45.537
1.246	45.4314
1.24	45.2889
1.234	45.1675
1.228	45.134
1.222	45.1287
1.216	44.9869
1.21	44.9253
1.204	44.7466
1.198	44.7528
1.192	44.7162
1.186	44.6935
1.18	44.571
1.174	44.6128
1.168	44.5976
1.162	44.5235
1.156	44.549
1.15	44.5744
1.144	44.6047
1.138	44.7411
1.132	44.7062
1.126	44.756
1.12	44.7557
1.114	44.7397
1.108	44.8821
1.102	45.0105
1.096	45.1306
1.09	45.2373
1.084	45.3281
1.078	45.4828
1.072	45.5807
1.066	45.7893
1.06	45.8997
1.054	46.1541
1.048	46.2534
1.042	46.4507
1.036	46.6216
1.03	46.7566
1.024	46.9703
1.018	47.1165
1.012	47.3085
1.006	47.4925
1	47.7088
0.994	47.8177
0.988	47.9561
0.982	48.0403
0.976	48.2589
0.97	48.2609
0.964	48.33
0.958	48.4111
0.952	48.4597
0.946	48.4821
0.94	48.5111
0.934	48.4741
0.928	48.4154
0.922	48.3423
0.916	48.3089
0.91	48.2122
0.904	48.2359
0.898	48.1268
0.892	48.0647
0.886	47.9767
0.88	47.9936
0.874	48.0102
0.868	48.0119
0.862	48.0766
0.856	47.9274
0.85	48.0866
0.844	48.2199
0.838	48.3901
0.832	48.5676
0.826	48.6931
0.82	48.8585
0.814	49.0736
0.808	49.2506
0.802	49.4476
0.796	49.6353
0.79	49.8277
0.784	50.053
0.778	50.1743
0.772	50.3331
0.766	50.5115
0.76	50.6443
0.754	50.7691
0.748	50.8991
0.742	51.0121
0.736	51.1218
0.73	51.2282
0.724	51.3023
0.718	51.3827
0.712	51.4323
0.706	51.4815
0.7	51.5107
0.694	51.5559
0.688	51.5603
0.682	51.5878
0.676	51.578
0.67	51.5691
0.664	51.5432
0.658	51.5387
0.652	51.5049
0.646	51.4865
0.64	51.4476
0.634	51.4037
0.628	51.3731
0.622	51.333
0.616	51.2987
0.61	51.276
0.604	51.2188
0.598	51.2013
0.592	51.1877
0.586	51.1399
0.58	51.0777
0.574	51.0052
0.568	50.9398
0.562	50.8717
0.556	50.6983
0.55	50.5466
0.544	50.3629
0.538	50.1259
0.532	49.8624
0.526	49.5697
0.52	49.2263
0.514	48.798
0.508	48.268
0.502	47.7011
0.496	47.0664
0.49	46.4455
0.484	45.8417
0.478	45.4281
0.472	44.9819
0.466	44.4358
0.46	43.7221
0.454	42.8886
0.448	42.1343
0.442	41.4614
0.436	40.6642
0.43	39.5584
0.424	38.3706
0.418	37.554
0.412	37.1198
0.406	36.4467
0.4	35.431
