Name: Beryl Be3Al2Si6O18
Type: Mineral
Class: Silicate
Subclass: Cyclosilicate
Particle Size: Fine
Sample No.: beryl_2
Owner: JHU
Wavelength Range: TIR
Origin: Smithsonian NMNH 134700Sample from Palermo Mine, NorthGroton, New Hampshire.
Description: Hand sample was pale green to white in color and appeared pure on the inside, with a small amount of surface discoloration.  The sample was roughly cubical, 2 cm on a side.  Microscopic examination indicated it to be pure with a very small amount (much less than 1%) of alteration. Particle size was less than 2 Micrometers.(Ring Silicates) Original ASTER Spectral Library name was jhu.nicolet.mineral.silicate.cyclosilicate.powder.beryl2.spectrum.txt
Measurement: Transmission
X Units: Wavelength (micrometers)
Y Units: Transmittance (percent)
wavelength	value
25.0442	82.5545
24.3388	80.0154
23.6719	73.8123
23.0407	55.9061
22.4422	44.5429
21.8741	60.1971
21.334	71.9842
20.8199	68.5272
20.33	50.0897
19.8627	51.076
19.4163	47.5194
18.9896	31.9257
18.5812	39.1913
18.19	56.3788
17.815	71.2147
17.4551	71.6834
17.1094	66.4891
16.7772	49.1776
16.4576	70.492
16.15	76.699
15.8537	78.1268
15.568	76.8396
15.2925	68.5086
15.0265	67.6434
14.7697	46.5985
14.5214	46.579
14.2814	62.3504
14.0492	69.6932
13.8244	69.1566
13.6067	59.6913
13.3957	50.9901
13.1912	61.1444
12.9929	71.0042
12.8004	71.7693
12.6135	66.8924
12.432	54.9842
12.2557	52.0643
12.0843	61.2811
11.9176	70.4671
11.7555	75.3636
11.5977	76.5643
11.444	75.2244
11.2944	71.9529
11.1487	67.9515
11.0067	62.7127
10.8682	53.6078
10.7332	40.5043
10.6015	27.4745
10.473	17.1738
10.3476	15.0688
10.2251	20.8227
10.1056	26.3642
9.9887	31.9574
9.8746	31.7021
9.763	31.9316
9.6539	36.5185
9.5472	41.7069
9.4429	43.9325
9.3408	46.0917
9.2409	50.1468
9.1431	54.3675
9.0474	56.7948
8.9536	57.8924
8.8618	56.4989
8.7718	52.4554
8.6837	50.4779
8.5973	48.9759
8.5126	41.7147
8.4295	34.8358
8.3481	25.7287
8.2682	26.7382
8.1898	34.2792
8.1129	45.3202
8.0374	58.3758
7.9634	69.0938
7.8906	77.1082
7.8192	83.4297
7.7491	87.2686
7.6802	89.1494
7.6126	90.3079
7.5461	91.1065
7.4807	91.8213
7.4165	92.4417
7.3534	92.8584
7.2914	93.1082
7.2303	93.1096
7.1703	92.6387
7.1113	92.8242
7.0533	93.9316
6.9962	94.2998
6.94	94.4426
6.8847	94.5908
6.8302	94.8674
6.7767	95.2568
6.7239	95.7139
6.672	95.9902
6.6209	96.1494
6.5705	96.335
6.5209	96.3174
6.4721	95.5801
6.424	95.8699
6.3766	95.8318
6.3299	95.4475
6.2838	94.8709
6.2385	93.3142
6.1937	92.6492
6.1496	90.5789
6.1062	90.6228
6.0633	92.7559
6.0211	94.1338
5.9794	94.9851
5.9383	96.0967
5.8978	96.8066
5.8578	97.0828
5.8184	97.3953
5.7794	97.5144
5.741	97.8088
5.7031	98.0041
5.6657	98.0759
5.6288	98.1738
5.5924	98.165
5.5564	98.2888
5.5209	98.3086
5.4859	98.3425
5.4513	98.532
5.4171	98.6335
5.3833	98.6335
5.35	98.7117
5.3171	98.8008
5.2846	98.7732
5.2524	98.7068
5.2207	98.6619
5.1893	98.4892
5.1584	98.5215
5.1277	98.572
5.0975	98.6501
5.0676	98.8249
5.038	98.9133
5.0088	98.9768
4.98	99.0642
4.9514	99.2297
4.9232	99.2185
4.8953	99.322
4.8678	99.3953
4.8405	99.4402
4.8135	99.5515
4.7868	99.5173
4.7605	99.6033
4.7344	99.7273
4.7086	99.6863
4.6831	99.7322
4.6578	99.7883
4.6328	99.8064
4.6081	99.8386
4.5837	99.8977
4.5595	99.8674
4.5356	99.9236
4.5119	99.8967
4.4884	100
4.4652	99.9123
4.4423	99.9587
4.4196	100.028
4.3971	100.037
4.3748	100.156
4.3528	100.097
4.331	100.164
4.3094	100.151
4.288	100.183
4.2668	100.212
4.2458	100.224
4.2251	100.308
4.2045	100.307
4.1841	100.283
4.164	100.347
4.144	100.405
4.1242	100.33
4.1046	100.41
4.0852	100.395
4.066	100.359
4.047	100.424
4.0281	100.408
4.0094	100.379
3.9909	100.341
3.9725	100.415
3.9544	100.374
3.9363	100.362
3.9185	100.494
3.9008	100.406
3.8833	100.369
3.8659	100.347
3.8487	100.415
3.8316	100.411
3.8147	100.398
3.7979	100.387
3.7813	100.449
3.7648	100.353
3.7485	100.399
3.7323	100.252
3.7162	100.236
3.7003	100.142
3.6845	100.205
3.6689	100.071
3.6534	100.044
3.638	100.014
3.6227	99.9123
3.6076	99.7458
3.5926	99.7991
3.5777	99.7073
3.563	99.6462
3.5484	99.5329
3.5338	99.3757
3.5195	99.2287
3.5052	98.8943
3.491	98.9358
3.477	98.7209
3.463	98.6467
3.4492	98.512
3.4355	98.1853
3.4219	97.8982
3.4084	97.8181
3.395	97.8103
3.3817	97.6072
3.3685	97.6623
3.3554	97.5081
3.3425	97.3357
3.3296	97.1189
3.3168	96.9734
3.3041	96.7737
3.2915	96.6604
3.279	96.5232
3.2666	96.24
3.2543	95.9207
3.2421	95.6433
3.23	95.1755
3.218	94.9011
3.206	94.5847
3.1942	94.3298
3.1824	94.1003
3.1707	93.9041
3.1591	93.6101
3.1476	93.2888
3.1362	93.1277
3.1249	92.8543
3.1136	92.5906
3.1024	92.4802
3.0913	92.1062
3.0803	92.0427
3.0694	91.8826
3.0585	91.5994
3.0477	91.572
3.037	91.197
3.0264	90.8797
3.0158	90.4334
3.0053	89.7908
2.9949	89.0672
2.9845	88.3845
2.9743	87.2771
2.9641	86.0408
2.9539	85.2156
2.9439	84.5017
2.9339	84.242
2.9239	83.8172
2.9141	83.7469
2.9043	84.1072
2.8946	84.6111
2.8849	85.3826
2.8753	86.2302
2.8658	87.0398
2.8563	87.9412
2.8469	88.6287
2.8375	89.1336
2.8282	89.9304
2.819	90.447
2.8098	91.1531
2.8007	92.0984
2.7917	92.8904
2.7827	92.113
2.7738	94.6404
2.7649	96.5085
2.7561	97.3249
2.7473	98.1921
2.7386	98.6335
2.7299	99.2898
2.7213	100.351
2.7128	100.731
2.7043	98.2078
2.6959	101.124
2.6875	101.864
2.6791	102.156
2.6709	102.512
2.6626	102.531
2.6545	102.616
2.6463	102.749
2.6382	102.824
2.6302	102.859
2.6222	103.005
2.6143	102.988
2.6064	102.95
2.5986	102.986
2.5908	103.273
2.583	103.273
2.5753	103.079
2.5677	103.07
2.5601	103.259
2.5525	103.259
2.545	103.308
2.5375	103.556
2.5301	103.267
2.5227	103.353
2.5154	103.374
2.5081	103.687
2.5008	103.769
2.4936	103.611
2.4864	103.726
2.4793	103.861
2.4722	103.64
2.4651	103.868
2.4581	104.103
2.4511	104.058
2.4442	104.009
2.4373	104.257
2.4305	104.054
2.4236	103.995
2.4169	104.034
2.4101	104.259
2.4034	104.202
2.3967	104.218
2.3901	104.142
2.3835	104.343
2.377	104.689
2.3704	104.423
2.364	104.491
2.3575	104.462
2.3511	104.509
2.3447	104.507
2.3384	104.72
2.3321	104.837
2.3258	104.687
2.3195	104.82
2.3133	104.781
2.3071	104.9
2.301	104.884
2.2949	105.015
2.2888	105.29
2.2828	104.882
2.2767	105.181
2.2708	104.995
2.2648	105.097
2.2589	105.202
2.253	105.218
2.2471	105.128
2.2413	105.394
2.2355	105.456
2.2297	105.257
2.224	105.488
2.2183	105.507
2.2126	105.488
2.207	105.648
2.2013	105.863
2.1957	105.917
2.1902	105.784
2.1846	105.706
2.1791	105.609
2.1736	105.695
2.1682	105.917
2.1628	106.206
2.1574	105.948
2.152	106.156
2.1466	106.195
2.1413	106.159
2.136	106.472
2.1308	106.198
2.1255	106.523
2.1203	106.491
2.1151	106.613
2.11	106.366
2.1048	106.632
2.0997	106.659
2.0946	106.523
2.0895	106.753
2.0845	106.859
2.0795	106.679
