Name: Kaolinite Al_2Si_2O_5(OH)_4
Type: Mineral
Class: Silicate
Subclass: Phyllosilicate
Particle Size: Fine
Sample No.: PS-1B
Owner: JPL
Wavelength Range: TIR
Origin: USA, Georgia, Warren County
Description: Disordered kaolinite.Particle size was 0-45um.Collected by Clay Mineral Society Original ASTER Spectral Library name was jpl.nicolet.mineral.silicate.phyllosilicate.fine.ps01b.spectrum.txt
Measurement: Hemispherical reflectance
X Units: Wavelength (micrometers)
Y Units: Reflectance (percent)
wavelength	value
15.3853	0.3732
15.1161	0.2354
14.8563	0.2037
14.6052	0.4148
14.3624	0.1456
14.1276	0.0036
13.9004	0.196
13.6803	0.2468
13.4671	0.4394
13.2604	0.4913
13.06	0.607
12.8656	0.6087
12.6769	0.4556
12.4936	0.3448
12.3155	0.7246
12.1425	1.4973
11.9742	1.8089
11.8106	2.2775
11.6513	2.5836
11.4963	2.28
11.3454	1.9943
11.1983	1.6315
11.0551	1.2475
10.9154	0.696
10.7793	0.5068
10.6465	0.4051
10.5169	0.2533
10.3904	0.9002
10.267	1.4157
10.1464	1.7613
10.0287	1.5665
9.9136	1.2319
9.8012	0.8152
9.6913	1.486
9.5838	1.7769
9.4787	1.7727
9.3758	1.9164
9.2752	1.6504
9.1767	1.2853
9.0803	0.5449
8.9858	0.5424
8.8934	1.2824
8.8028	1.4038
8.714	1.3402
8.627	0.9428
8.5417	0.6507
8.4581	0.4179
8.3761	0.179
8.2957	0.2013
8.2169	0.2468
8.1395	0.1867
8.0635	0.3537
7.989	0.5049
7.9158	0.5133
7.8439	0.8037
7.7734	0.9967
7.7041	1.2459
7.636	1.5404
7.5691	1.7286
7.5034	2.1224
7.4388	2.3555
7.3753	2.5391
7.3129	2.9743
7.2515	3.5011
7.1912	3.7029
7.1318	4.3489
7.0734	4.7126
7.016	5.3532
6.9595	5.9505
6.9039	6.289
6.8492	6.2564
6.7953	6.6391
6.7423	7.112
6.6901	7.6179
6.6387	8.2817
6.5881	8.8423
6.5382	9.1814
6.4892	9.684
6.4408	9.7227
6.3931	10.0878
6.3462	10.4982
6.2999	10.2872
6.2543	10.6446
6.2094	10.75
6.1651	9.9672
6.1214	9.5367
6.0784	9.8183
6.0359	10.0819
5.994	10.7979
5.9527	11.0184
5.912	11.3786
5.8718	11.4244
5.8322	11.1761
5.7931	10.9966
5.7545	11.3894
5.7165	11.667
5.6789	11.7859
5.6418	12.6517
5.6052	13.0463
5.5691	12.5808
5.5334	10.8422
5.4982	8.782
5.4635	9.0146
5.4291	10.4607
5.3952	11.4207
5.3618	12.7786
5.3287	13.8032
5.2961	14.1914
5.2638	13.8434
5.2319	13.0628
5.2004	12.5974
5.1693	12.6401
5.1386	13.5278
5.1082	15.0792
5.0782	17.3145
5.0485	19.9081
5.0192	22.2772
4.9902	24.0892
4.9616	25.7299
4.9332	26.96
4.9052	27.8264
4.8776	28.8994
4.8502	30.2777
4.8231	31.603
4.7963	32.9546
4.7699	34.0269
4.7437	34.5236
4.7178	34.6591
4.6922	34.6572
4.6668	35.0723
4.6418	36.46
4.617	38.5469
4.5924	40.4024
4.5681	41.7075
4.5441	42.702
4.5203	42.9865
4.4968	43.2113
4.4735	43.9969
4.4505	44.8192
4.4277	45.1175
4.4051	45.466
4.3828	45.7523
4.3607	45.9756
4.3388	46.4152
4.3171	46.7432
4.2956	47.0544
4.2744	46.168
4.2534	46.6295
4.2325	47.691
4.2119	47.644
4.1915	47.5116
4.1712	47.6203
4.1512	47.6472
4.1313	47.855
4.1117	47.9181
4.0922	48.059
4.0729	48.1462
4.0538	48.2285
4.0349	48.4096
4.0161	48.5962
3.9976	48.6461
3.9792	48.7495
3.9609	48.6725
3.9428	48.7234
3.9249	48.6158
3.9072	48.616
3.8896	48.4731
3.8722	48.3512
3.8549	48.0901
3.8378	47.8732
3.8208	47.5565
3.804	47.2118
3.7873	46.7926
3.7708	46.2681
3.7544	45.8467
3.7382	44.7794
3.7221	44.1834
3.7061	42.3874
3.6903	41.9352
3.6746	42.3999
3.659	42.4075
3.6436	42.1191
3.6283	41.6109
3.6131	41.1169
3.5981	40.4517
3.5832	39.5062
3.5684	38.6813
3.5537	38.6458
3.5391	38.2717
3.5247	37.5183
3.5104	36.6652
3.4962	36.117
3.4821	35.6182
3.4681	35.054
3.4543	34.4305
3.4405	33.6981
3.4269	32.8611
3.4133	32.0811
3.3999	31.8568
3.3866	31.4083
3.3733	31.0168
3.3602	30.5271
3.3472	30.0224
3.3343	29.5756
3.3215	28.9959
3.3088	28.565
3.2961	28.1105
3.2836	27.552
3.2712	27.1864
3.2588	26.6732
3.2466	26.3908
3.2345	25.7975
3.2224	25.532
3.2104	24.9983
3.1985	24.5609
3.1867	24.1495
3.175	23.7889
3.1634	23.4522
3.1519	23.1274
3.1404	22.561
3.129	22.415
3.1178	21.8958
3.1065	21.503
3.0954	21.413
3.0844	21.0374
3.0734	20.887
3.0625	20.5093
3.0517	20.1942
3.041	19.799
3.0303	19.4333
3.0197	19.1603
3.0092	18.6715
2.9987	18.1795
2.9884	17.7582
2.9781	17.2863
2.9678	16.8516
2.9577	16.6198
2.9476	16.3401
2.9376	15.8598
2.9276	14.9456
2.9177	13.219
2.9079	12.3464
2.8982	13.4799
2.8885	13.4164
2.8789	12.9509
2.8693	12.8055
2.8598	12.4452
2.8504	12.1115
2.841	11.7457
2.8317	11.0017
2.8224	10.5067
2.8133	10.3101
2.8041	9.393
2.7951	8.33
2.786	7.2418
2.7771	5.2823
2.7682	2.9888
2.7594	0.9404
2.7506	2.0002
2.7418	1.3808
2.7332	1.093
2.7246	1.3493
2.716	1.6061
2.7075	0.8541
2.699	1.1554
2.6906	4.1715
2.6823	9.4548
2.674	14.784
2.6657	20.0323
2.6575	22.8755
2.6494	25.5136
2.6413	27.635
2.6332	29.6914
2.6252	31.5005
2.6173	33.0481
2.6094	33.3378
2.6015	34.0199
2.5937	35.3435
2.5859	35.0221
2.5782	35.5536
2.5706	36.3505
2.5629	37.6711
2.5554	38.1267
2.5478	38.5388
2.5403	38.7408
2.5329	39.3196
2.5255	39.708
2.5181	40.477
2.5108	40.7994
2.5035	41.4716
2.4963	41.8183
2.4891	42.1721
2.482	43.2334
2.4749	44.3298
2.4678	44.9538
2.4608	45.4484
2.4538	45.8666
2.4468	46.3309
2.4399	47.052
2.4331	48.8897
2.4262	50.499
2.4194	51.5214
2.4127	52.1695
2.4059	52.4571
2.3993	51.7495
2.3926	50.6308
2.386	49.2894
2.3795	49.9492
2.3729	51.8099
2.3664	52.7981
2.36	52.4584
2.3535	52.9374
2.3471	54.5235
2.3408	56.2417
2.3345	56.3781
2.3282	55.7381
2.3219	56.051
2.3157	56.3354
2.3095	57.3395
2.3034	58.7493
2.2972	59.8866
2.2911	60.6906
2.2851	61.5596
2.279	62.5753
2.2731	63.5432
2.2671	64.1956
2.2612	64.6622
2.2553	65.0139
2.2494	65.4455
2.2435	64.7629
2.2377	64.3344
2.232	64.8674
2.2262	64.1714
2.2205	60.9081
2.2148	52.4412
2.2091	39.5419
2.2035	47.4169
2.1979	51.7035
2.1923	52.5014
2.1868	53.9629
2.1812	54.1372
2.1758	54.2726
2.1703	54.3271
2.1649	54.1752
2.1595	54.7009
2.1541	57.4108
2.1487	61.6019
2.1434	65.8999
2.1381	69.2033
2.1328	71.271
2.1275	72.5101
2.1223	73.3936
2.1171	73.4424
2.112	73.6905
2.1068	75.3867
2.1017	76.2119
2.0966	76.668
2.0915	76.706
2.0865	77.2845
2.0814	77.9119
2.0764	78.8864
2.0715	79.0298
2.0665	79.9001
2.0616	80.2607
2.0567	80.4813
2.0518	80.8394
2.0469	81.1221
2.0421	81.4488
2.0373	81.7046
2.0325	82.3081
2.0277	82.0281
2.0229	82.2843
2.0182	82.2923
2.0135	82.5602
2.0088	82.6973
2.0042	82.4746
