Name: Andradite Ca3Fe2+3 (SiO4)3
Type: Mineral
Class: Silicate
Subclass: Nesosilicate
Particle Size: Coarse
Sample No.: andradite_1
Owner: JHU
Wavelength Range: TIR
Origin: Sample from Rimpfischwange, Zermatt, Valais, Switzerland,via the Smithsonian (sample no. NMNH 113829).
Description: A cluster of subhedral green crystals, some coated with a soft, white contaminant which did not dissolve when treated with HCl. Sample was lightly crushed to free individual 3mm crystals, then hand-picked to assemble only clean, bright green crystals. Under the petrographic microscope, the sample appeared pure, clean and unaltered. A few grains had a light brownish tinge on some edges. Particle size was 75-250 Micrometers. (Isolated tetrahedra) (Garnet Group) Original ASTER Spectral Library name was jhu.nicolet.mineral.silicate.nesosilicate.coarse.andrad1.spectrum.txt
Measurement: Bidirectional Reflectance
X Units: Wavelength (micrometers)
Y Units: Reflectance (percent)
wavelength	value
25.0442	9.5014
24.3388	7.5158
23.6719	1.499
23.0407	6.4487
22.4422	7.845
21.8741	4.0173
21.334	1.4062
20.8199	3.7446
20.33	1.4812
19.8627	3.5071
19.4163	6.4143
18.9896	5.8545
18.5812	1.7441
18.19	0.477
17.815	0.8188
17.4551	1.0059
17.1094	1.2485
16.7772	1.1111
16.4576	1.3325
16.15	1.4963
15.8537	1.6079
15.568	1.7231
15.2925	1.8208
15.0265	1.9026
14.7697	1.9902
14.5214	2.0908
14.2814	2.1785
14.0492	2.2646
13.8244	2.3945
13.6067	2.499
13.3957	2.678
13.1912	2.8779
12.9929	3.1687
12.8004	3.6321
12.6135	4.407
12.432	6.0098
12.2557	6.5259
12.0843	6.8391
11.9176	7.831
11.7555	6.2102
11.5977	2.1174
11.444	3.8581
11.2944	8.0696
11.1487	9.3489
11.0067	9.5093
10.8682	9.8034
10.7332	10.1364
10.6015	10.301
10.473	10.3005
10.3476	10.0788
10.2251	9.0696
10.1056	7.344
9.9887	5.4863
9.8746	3.7302
9.763	1.7075
9.6539	0.2139
9.5472	0.0806
9.4429	0.2305
9.3408	0.3545
9.2409	0.4634
9.1431	0.5898
9.0474	0.7012
8.9536	0.8142
8.8618	0.8357
8.7718	0.8755
8.6837	0.8999
8.5973	0.9609
8.5126	1.0432
8.4295	1.1162
8.3481	1.2114
8.2682	1.2944
8.1898	1.4558
8.1129	1.5701
8.0374	1.6252
7.9634	1.6267
7.8906	1.6555
7.8192	1.6628
7.7491	1.6262
7.6802	1.7034
7.6126	1.7908
7.5461	1.8086
7.4807	1.8804
7.4165	1.8638
7.3534	1.7468
7.2914	1.7751
7.2303	2.0227
7.1703	2.0366
7.1113	2.1804
7.0533	2.5752
6.9962	2.9895
6.94	3.2502
6.8847	3.4634
6.8302	3.5989
6.7767	3.7297
6.7239	3.9475
6.672	4.0889
6.6209	4.154
6.5705	4.1028
6.5209	4.0576
6.4721	3.9868
6.424	3.9421
6.3766	3.8926
6.3299	3.6389
6.2838	3.2454
6.2385	2.614
6.1937	1.8904
6.1496	1.625
6.1062	1.4602
6.0633	1.335
6.0211	1.2353
5.9794	1.271
5.9383	1.3469
5.8978	1.4158
5.8578	1.522
5.8184	1.6343
5.7794	1.7805
5.741	1.9043
5.7031	2.0586
5.6657	2.0505
5.6288	2.0767
5.5924	1.989
5.5564	1.7507
5.5209	1.97
5.4859	2.4441
5.4513	2.5876
5.4171	2.7373
5.3833	3.1826
5.35	3.8035
5.3171	4.2204
5.2846	4.4402
5.2524	4.573
5.2207	4.6389
5.1893	4.7173
5.1584	4.8017
5.1277	4.8235
5.0975	4.8877
5.0676	5.0542
5.038	5.1926
5.0088	5.2764
4.98	5.3332
4.9514	5.3745
4.9232	5.4263
4.8953	5.4809
4.8678	5.5495
4.8405	5.6196
4.8135	5.6843
4.7868	5.7346
4.7605	5.7778
4.7344	5.8059
4.7086	5.8401
4.6831	5.8555
4.6578	5.8584
4.6328	5.8691
4.6081	5.8899
4.5837	5.904
4.5595	5.8945
4.5356	5.9006
4.5119	5.8996
4.4884	5.8872
4.4652	5.8967
4.4423	5.9094
4.4196	5.9014
4.3971	5.8874
4.3748	5.8684
4.3528	5.8479
4.331	5.822
4.3094	5.7937
4.288	5.7541
4.2668	5.7234
4.2458	5.6965
4.2251	5.6811
4.2045	5.6875
4.1841	5.6579
4.164	5.6181
4.144	5.5439
4.1242	5.4543
4.1046	5.3616
4.0852	5.2864
4.066	5.2412
4.047	5.2292
4.0281	5.2388
4.0094	5.261
3.9909	5.2908
3.9725	5.344
3.9544	5.4006
3.9363	5.4648
3.9185	5.5315
3.9008	5.6086
3.8833	5.6765
3.8659	5.7329
3.8487	5.8013
3.8316	5.8838
3.8147	5.9929
3.7979	6.1213
3.7813	6.2659
3.7648	6.4248
3.7485	6.573
3.7323	6.688
3.7162	6.7685
3.7003	6.7656
3.6845	6.7012
3.6689	6.6028
3.6534	6.499
3.638	6.4006
3.6227	6.3198
3.6076	6.261
3.5926	6.2068
3.5777	6.1655
3.563	6.1369
3.5484	6.1179
3.5338	6.1033
3.5195	6.0869
3.5052	6.0578
3.491	6.0788
3.477	6.0891
3.463	6.105
3.4492	6.1299
3.4355	6.1592
3.4219	6.1753
3.4084	6.2517
3.395	6.3367
3.3817	6.4084
3.3685	6.4997
3.3554	6.5752
3.3425	6.6528
3.3296	6.7268
3.3168	6.8
3.3041	6.8506
3.2915	6.9299
3.279	6.9907
3.2666	7.051
3.2543	7.0962
3.2421	7.1477
3.23	7.1919
3.218	7.2273
3.206	7.2627
3.1942	7.2768
3.1824	7.3103
3.1707	7.3249
3.1591	7.3523
3.1476	7.3528
3.1362	7.3594
3.1249	7.3586
3.1136	7.3601
3.1024	7.3559
3.0913	7.3769
3.0803	7.3891
3.0694	7.3669
3.0585	7.3432
3.0477	7.3066
3.037	7.2624
3.0264	7.2097
3.0158	7.1557
3.0053	7.0896
2.9949	7.0176
2.9845	6.927
2.9743	6.8315
2.9641	6.7859
2.9539	6.7771
2.9439	6.791
2.9339	6.8274
2.9239	6.8474
2.9141	6.8513
2.9043	6.7971
2.8946	6.675
2.8849	6.4741
2.8753	6.2141
2.8658	5.9004
2.8563	5.4641
2.8469	4.8254
2.8375	4.0256
2.8282	3.1926
2.819	2.4792
2.8098	1.9277
2.8007	2.1477
2.7917	3.366
2.7827	3.9421
2.7738	3.1348
2.7649	4.2629
2.7561	5.0964
2.7473	5.9819
2.7386	6.1709
2.7299	6.3691
2.7213	6.7561
2.7128	6.8808
2.7043	7.2158
2.6959	7.6802
2.6875	7.8882
2.6791	8.0073
2.6709	8.0515
2.6626	8.1767
2.6545	8.2353
2.6463	8.2646
2.6382	8.3257
2.6302	8.3086
2.6222	8.4043
2.6143	8.3996
2.6064	8.393
2.5986	8.4463
2.5908	8.4577
2.583	8.4455
2.5753	8.4814
2.5677	8.4851
2.5601	8.4719
2.5525	8.4621
2.545	8.4472
2.5375	8.4504
2.5301	8.4614
2.5227	8.5014
2.5154	8.5053
2.5081	8.5417
2.5008	8.5427
2.4936	8.6015
2.4864	8.6335
2.4793	8.6577
2.4722	8.6679
2.4651	8.6679
2.4581	8.6828
2.4511	8.6853
2.4442	8.676
2.4373	8.6562
2.4305	8.6101
2.4236	8.6216
2.4169	8.6042
2.4101	8.6135
2.4034	8.5996
2.3967	8.6316
2.3901	8.6953
2.3835	8.7473
2.377	8.8032
2.3704	8.8276
2.364	8.8813
2.3575	8.9004
2.3511	8.9179
2.3447	8.9219
2.3384	8.9277
2.3321	8.9104
2.3258	8.8994
2.3195	8.9223
2.3133	8.9145
2.3071	8.9116
2.301	8.9089
2.2949	8.8911
2.2888	8.8982
2.2828	8.9267
2.2767	8.8921
2.2708	8.8989
2.2648	8.9233
2.2589	8.9409
2.253	8.9438
2.2471	8.9641
2.2413	8.9917
2.2355	9.0024
2.2297	9.0088
2.224	9.0381
2.2183	9.0483
2.2126	9.103
2.207	9.1382
2.2013	9.1367
2.1957	9.1665
2.1902	9.1889
2.1846	9.2026
2.1791	9.2011
2.1736	9.2065
2.1682	9.249
2.1628	9.2622
2.1574	9.2978
2.152	9.2915
2.1466	9.2815
2.1413	9.2993
2.136	9.3249
2.1308	9.3257
2.1255	9.3396
2.1203	9.3279
2.1151	9.3677
2.11	9.3928
2.1048	9.3813
2.0997	9.3884
2.0946	9.4175
2.0895	9.4468
2.0845	9.4321
2.0795	9.4267
