Name: Magnetite Fe^2+Fe_2^3+O_4
Type: Mineral
Class: Oxide
Subclass: None
Particle Size: Medium
Sample No.: O-4A
Owner: JPL
Wavelength Range: VSWIR
Origin: Canada, Ontario, Haliburton County, Wilberforce.collected by:  Ward's
Description: Particle size was 45-125um. Original ASTER Spectral Library name was jpl.perkin.mineral.oxide.none.medium.o04a.spectrum.txt
Measurement: Hemispherical reflectance
X Units: Wavelength (micrometers)
Y Units: Reflectance (percent)
wavelength	value
2.5	10.0416
2.494	9.9397
2.488	10.109
2.482	9.9603
2.476	9.9769
2.47	10.0475
2.464	9.9762
2.458	10.0478
2.452	9.961
2.446	9.9312
2.44	9.8737
2.434	9.9
2.428	9.8989
2.422	9.9836
2.416	9.8342
2.41	9.9016
2.404	9.889
2.398	9.857
2.392	9.8794
2.386	9.8255
2.38	9.7916
2.374	9.8146
2.368	9.852
2.362	9.7585
2.356	9.83
2.35	9.8545
2.344	9.7908
2.338	9.7821
2.332	9.7531
2.326	9.7865
2.32	9.7613
2.314	9.6933
2.308	9.725
2.302	9.6169
2.296	9.6491
2.29	9.6975
2.284	9.678
2.278	9.6819
2.272	9.6601
2.266	9.6215
2.26	9.6703
2.254	9.491
2.248	9.5476
2.242	9.641
2.236	9.56
2.23	9.5889
2.224	9.5046
2.218	9.5348
2.212	9.5947
2.206	9.591
2.2	9.4966
2.194	9.5715
2.188	9.5143
2.182	9.5457
2.176	9.5239
2.17	9.4987
2.164	9.5164
2.158	9.5506
2.152	9.5602
2.146	9.5664
2.14	9.5297
2.134	9.4853
2.128	9.5066
2.122	9.453
2.116	9.3894
2.11	9.3515
2.104	9.305
2.098	9.2576
2.092	9.2964
2.086	9.274
2.08	9.2401
2.074	9.266
2.068	9.2574
2.062	9.2166
2.056	9.2283
2.05	9.2463
2.044	9.1927
2.038	9.1776
2.032	9.1495
2.026	9.1692
2.02	9.1966
2.014	9.1494
2.008	9.0895
2.002	9.1266
1.996	9.0826
1.99	9.0573
1.984	9.0656
1.978	9.0045
1.972	8.9867
1.966	8.9872
1.96	8.995
1.954	9.0066
1.948	8.8789
1.942	8.8824
1.936	8.8428
1.93	8.8615
1.924	8.7553
1.918	8.8163
1.912	8.8641
1.906	8.8005
1.9	8.7685
1.894	8.7672
1.888	8.7572
1.882	8.732
1.876	8.6432
1.87	8.6422
1.864	8.6806
1.858	8.5812
1.852	8.6326
1.846	8.5774
1.84	8.5844
1.834	8.4924
1.828	8.5443
1.822	8.497
1.816	8.4209
1.81	8.4241
1.804	8.3931
1.798	8.4006
1.792	8.2952
1.786	8.2702
1.78	8.2399
1.774	8.2479
1.768	8.2056
1.762	8.1541
1.756	8.143
1.75	8.1123
1.744	8.0605
1.738	8.1167
1.732	7.9742
1.726	8.0159
1.72	7.9581
1.714	7.9331
1.708	7.9328
1.702	7.9094
1.696	7.8935
1.69	7.8311
1.684	7.7102
1.678	7.7583
1.672	7.7105
1.666	7.6414
1.66	7.7013
1.654	7.5831
1.648	7.5864
1.642	7.6036
1.636	7.5166
1.63	7.4205
1.624	7.4128
1.618	7.4211
1.612	7.3939
1.606	7.3496
1.6	7.2846
1.594	7.2653
1.588	7.2479
1.582	7.2429
1.576	7.2071
1.57	7.1357
1.564	7.1469
1.558	7.1322
1.552	7.1105
1.546	7.0497
1.54	7.0012
1.534	7.0097
1.528	6.9709
1.522	6.9602
1.516	6.9415
1.51	6.8773
1.504	6.8385
1.498	6.7435
1.492	6.7528
1.486	6.7232
1.48	6.7194
1.474	6.7104
1.468	6.6616
1.462	6.6565
1.456	6.5782
1.45	6.4815
1.444	6.491
1.438	6.5009
1.432	6.4369
1.426	6.4901
1.42	6.4413
1.414	6.3624
1.408	6.3162
1.402	6.3172
1.396	6.3418
1.39	6.315
1.384	6.2578
1.378	6.2411
1.372	6.1246
1.366	6.1495
1.36	6.175
1.354	6.0959
1.348	6.0581
1.342	5.9124
1.336	5.9405
1.33	5.878
1.324	5.8059
1.318	5.8024
1.312	5.7697
1.306	5.7024
1.3	5.8059
1.294	5.7533
1.288	5.6256
1.282	5.6667
1.276	5.5684
1.27	5.5319
1.264	5.5235
1.258	5.4872
1.252	5.4647
1.246	5.4291
1.24	5.4288
1.234	5.3574
1.228	5.3301
1.222	5.3113
1.216	5.3331
1.21	5.3017
1.204	5.3089
1.198	5.1818
1.192	5.1832
1.186	5.172
1.18	5.0939
1.174	5.1573
1.168	5.1044
1.162	5.0163
1.156	4.9694
1.15	4.9899
1.144	4.9796
1.138	4.9854
1.132	5.0154
1.126	4.915
1.12	4.913
1.114	4.9475
1.108	4.896
1.102	4.8686
1.096	4.8912
1.09	4.8668
1.084	4.8395
1.078	4.8736
1.072	4.8651
1.066	4.8176
1.06	4.8692
1.054	4.7026
1.048	4.8364
1.042	4.7574
1.036	4.7916
1.03	4.8093
1.024	4.8109
1.018	4.8564
1.012	4.7655
1.006	4.7832
1	4.835
0.994	4.7542
0.988	4.8387
0.982	4.8814
0.976	4.8761
0.97	4.875
0.964	4.8702
0.958	4.908
0.952	4.885
0.946	4.9799
0.94	4.8929
0.934	4.9212
0.928	5.0042
0.922	5.0388
0.916	5.054
0.91	5.073
0.904	5.0894
0.898	5.1228
0.892	5.1104
0.886	5.1097
0.88	5.2031
0.874	5.19
0.868	5.2036
0.862	5.251
0.856	5.456
0.85	5.5013
0.844	5.5224
0.838	5.5504
0.832	5.586
0.826	5.6071
0.82	5.6263
0.814	5.6664
0.808	5.6953
0.802	5.731
0.796	5.7542
0.79	5.7909
0.784	5.8187
0.778	5.8544
0.772	5.889
0.766	5.9139
0.76	5.9387
0.754	5.9707
0.748	6.0059
0.742	6.0315
0.736	6.0674
0.73	6.0947
0.724	6.1222
0.718	6.1534
0.712	6.1764
0.706	6.202
0.7	6.2247
0.694	6.2488
0.688	6.268
0.682	6.2931
0.676	6.3111
0.67	6.3255
0.664	6.3415
0.658	6.3555
0.652	6.3683
0.646	6.3764
0.64	6.3841
0.634	6.3879
0.628	6.3914
0.622	6.3892
0.616	6.389
0.61	6.3882
0.604	6.3867
0.598	6.388
0.592	6.3887
0.586	6.3864
0.58	6.3826
0.574	6.3806
0.568	6.3737
0.562	6.3692
0.556	6.3626
0.55	6.3586
0.544	6.3533
0.538	6.3454
0.532	6.3447
0.526	6.3443
0.52	6.349
0.514	6.3593
0.508	6.3714
0.502	6.3863
0.496	6.4037
0.49	6.4225
0.484	6.4372
0.478	6.439
0.472	6.4505
0.466	6.4674
0.46	6.4875
0.454	6.5191
0.448	6.5654
0.442	6.6162
0.436	6.6717
0.43	6.7235
0.424	6.7709
0.418	6.8184
0.412	6.8665
0.406	6.9102
0.4	6.9658
