Name: Apatite Ca_5(PO_4)_3F
Type: Mineral
Class: Phosphate
Subclass: None
Particle Size: Fine
Sample No.: P-1A
Owner: JPL
Wavelength Range: VSWIR
Origin: Canada, Ontario, Lanark County, Perth
Description: Particle size was 0-45um.Collected by Ward's Original ASTER Spectral Library name was jpl.beckman.mineral.phosphate.none.fine.p01a.spectrum.txt
Measurement: Hemispherical reflectance
X Units: Wavelength (micrometers)
Y Units: Reflectance (percent)
wavelength	value
0.4	64.96
0.403	65.74
0.406	66.41
0.409	67.08
0.412	67.78
0.415	68.15
0.418	68.64
0.421	69.18
0.424	69.83
0.427	70.33
0.43	70.73
0.433	71.3
0.436	71.59
0.439	72.08
0.442	72.59
0.445	72.67
0.448	72.99
0.451	73.2
0.454	73.58
0.457	73.91
0.46	73.89
0.463	73.96
0.466	74.34
0.469	74.5
0.472	74.68
0.475	74.76
0.478	74.99
0.481	75.22
0.484	75.4
0.487	75.48
0.49	75.7
0.493	75.9
0.496	75.94
0.499	76.17
0.502	76.26
0.505	76.39
0.508	76.61
0.511	76.75
0.514	76.83
0.517	77.02
0.52	77.09
0.523	77.16
0.526	77.33
0.529	77.3
0.532	77.39
0.535	77.37
0.538	77.59
0.541	77.64
0.544	77.6
0.547	77.68
0.55	77.65
0.553	77.83
0.556	77.86
0.559	77.84
0.562	78.1
0.565	78.23
0.568	78.11
0.571	77.9
0.574	77.62
0.577	77.69
0.58	77.77
0.583	77.66
0.586	77.65
0.589	77.73
0.592	77.99
0.595	77.92
0.598	77.99
0.601	77.97
0.604	78.09
0.607	78.17
0.61	78.12
0.613	78.09
0.616	78.03
0.619	78.04
0.622	78.04
0.625	78
0.628	78.07
0.631	77.83
0.634	77.88
0.637	78.08
0.64	77.85
0.643	78.02
0.646	77.87
0.649	77.93
0.652	78.04
0.655	77.98
0.658	77.92
0.661	77.85
0.664	77.99
0.667	78.1
0.67	77.97
0.673	78.04
0.676	77.93
0.679	78.02
0.682	78.02
0.685	77.98
0.688	78.05
0.691	77.99
0.694	78.06
0.697	78.13
0.7	78.02
0.703	78.13
0.706	78.26
0.709	78.29
0.712	78.23
0.715	78.29
0.718	78.34
0.721	78.35
0.724	78.41
0.727	78.35
0.73	78.35
0.733	78.21
0.736	78.33
0.739	78.27
0.742	78.21
0.745	78.22
0.748	78.37
0.751	78.44
0.754	78.45
0.757	78.55
0.76	78.69
0.763	78.72
0.766	78.88
0.769	78.92
0.772	78.84
0.775	78.96
0.778	78.97
0.781	79.14
0.784	79.22
0.787	79.1
0.79	79.16
0.793	79.02
0.796	79.03
0.799	79
0.808	79.49
0.82	79.75
0.832	80.02
0.844	80.27
0.856	80.46
0.868	80.74
0.88	80.93
0.892	81.23
0.904	81.41
0.916	81.62
0.928	81.81
0.94	82.06
0.952	82.17
0.964	82.43
0.976	82.54
0.988	82.59
1	82.72
1.012	83.03
1.024	83.11
1.036	83.29
1.048	83.33
1.06	83.45
1.072	83.53
1.084	83.54
1.096	83.7
1.108	83.78
1.12	83.93
1.132	83.98
1.144	83.99
1.156	83.94
1.168	83.86
1.18	84.03
1.192	84.14
1.204	84.31
1.216	84.33
1.228	84.39
1.24	84.54
1.252	84.59
1.264	84.66
1.276	84.68
1.288	84.78
1.3	84.82
1.312	84.78
1.324	84.8
1.336	84.78
1.348	84.8
1.36	84.78
1.372	84.73
1.384	83.73
1.396	84.22
1.408	84.17
1.42	84.16
1.432	84.24
1.444	84.33
1.456	84.41
1.468	84.47
1.48	84.51
1.492	84.72
1.504	84.75
1.516	84.82
1.528	84.87
1.54	84.91
1.552	84.97
1.564	85.02
1.576	85.07
1.588	85
1.6	85.04
1.612	85.12
1.624	85.13
1.636	85.21
1.648	85.26
1.66	85.33
1.672	85.35
1.684	85.37
1.696	85.3
1.708	85.37
1.72	85.34
1.732	85.27
1.744	85.18
1.756	85.12
1.768	85.03
1.78	84.9
1.792	85.01
1.804	84.98
1.816	85
1.828	84.93
1.84	84.86
1.852	84.7
1.864	84.5
1.876	84.04
1.888	83.11
1.9	81.91
1.912	81.6
1.924	81.91
1.936	82.14
1.948	82.2
1.96	82.42
1.972	82.46
1.984	82.44
1.996	82.48
2.008	83.03
2.02	83.64
2.032	84.07
2.044	84.27
2.056	84.36
2.068	84.53
2.08	84.7
2.092	84.73
2.104	84.88
2.116	85.05
2.128	84.98
2.14	84.72
2.152	84.48
2.164	84.49
2.176	84.43
2.188	84.4
2.2	84.35
2.212	84.14
2.224	84.13
2.236	84.09
2.248	83.9
2.26	83.68
2.272	83.25
2.284	82.45
2.296	81.66
2.308	81.38
2.32	81.7
2.332	82.28
2.344	82.64
2.356	82.97
2.368	82.81
2.38	82.63
2.392	82.46
2.404	82.54
2.416	82.41
2.428	82.17
2.44	81.82
2.452	81.58
2.464	81.11
2.476	80.78
2.488	80.7
2.5	80.6
