Name: Cassiterite SnO_2
Type: Mineral
Class: Oxide
Subclass: None
Particle Size: Coarse
Sample No.: O-3A
Owner: JPL
Wavelength Range: TIR
Origin: USA, South Dakota, Lawrence County, Tinton
Description: Particle size was 125-500um.Collected by Burminco Original ASTER Spectral Library name was jpl.nicolet.mineral.oxide.none.coarse.o03a.spectrum.txt
Measurement: Hemispherical reflectance
X Units: Wavelength (micrometers)
Y Units: Reflectance (percent)
wavelength	value
15.3853	31.7863
15.1161	30.6132
14.8563	29.3534
14.6052	28.7365
14.3624	28.8912
14.1276	28.3316
13.9004	27.161
13.6803	25.7465
13.4671	24.2233
13.2604	22.5597
13.06	20.9404
12.8656	20.1943
12.6769	19.6697
12.4936	19.7517
12.3155	18.4888
12.1425	18.0805
11.9742	17.7125
11.8106	17.3837
11.6513	17.3693
11.4963	16.64
11.3454	15.9415
11.1983	15.6539
11.0551	15.5389
10.9154	15.2857
10.7793	15.3062
10.6465	15.1527
10.5169	15.2189
10.3904	15.0043
10.267	15.0428
10.1464	15.2738
10.0287	15.2594
9.9136	15.3844
9.8012	15.3804
9.6913	15.626
9.5838	15.6245
9.4787	15.5423
9.3758	15.5911
9.2752	15.6223
9.1767	15.3002
9.0803	15.3357
8.9858	15.096
8.8934	15.0378
8.8028	14.8868
8.714	14.4764
8.627	14.1698
8.5417	14.3753
8.4581	14.2218
8.3761	13.8195
8.2957	13.7957
8.2169	13.7253
8.1395	13.3797
8.0635	13.3268
7.989	13.0888
7.9158	12.9947
7.8439	12.8071
7.7734	12.624
7.7041	12.584
7.636	12.5493
7.5691	12.4406
7.5034	12.3912
7.4388	12.1931
7.3753	12.2979
7.3129	12.1873
7.2515	12.1005
7.1912	11.952
7.1318	12.0395
7.0734	11.924
7.016	11.8514
6.9595	11.7994
6.9039	11.6898
6.8492	11.5809
6.7953	11.4774
6.7423	11.2869
6.6901	11.3489
6.6387	11.339
6.5881	11.1284
6.5382	11.0127
6.4892	11.0838
6.4408	10.8334
6.3931	10.8021
6.3462	10.799
6.2999	10.6537
6.2543	10.5632
6.2094	10.5867
6.1651	10.4597
6.1214	10.368
6.0784	10.2864
6.0359	10.1007
5.994	10.0286
5.9527	9.826
5.912	9.722
5.8718	9.5329
5.8322	9.6143
5.7931	9.4723
5.7545	9.579
5.7165	9.5148
5.6789	9.6694
5.6418	9.7175
5.6052	9.8818
5.5691	9.9198
5.5334	9.8074
5.4982	9.7478
5.4635	9.6922
5.4291	9.6671
5.3952	9.5333
5.3618	9.4147
5.3287	9.3703
5.2961	9.2409
5.2638	9.1902
5.2319	9.2225
5.2004	9.1248
5.1693	9.0212
5.1386	8.8962
5.1082	8.7418
5.0782	8.6603
5.0485	8.5596
5.0192	8.529
4.9902	8.448
4.9616	8.3517
4.9332	8.4159
4.9052	8.2531
4.8776	8.2006
4.8502	8.1701
4.8231	7.9577
4.7963	7.9145
4.7699	7.9629
4.7437	7.7748
4.7178	7.8218
4.6922	7.5936
4.6668	7.5643
4.6418	7.4872
4.617	7.3438
4.5924	7.2905
4.5681	7.3206
4.5441	7.2723
4.5203	7.1607
4.4968	7.1522
4.4735	7.1043
4.4505	7.0316
4.4277	6.8113
4.4051	6.9719
4.3828	6.9306
4.3607	6.6377
4.3388	6.7235
4.3171	6.6875
4.2956	6.4988
4.2744	6.4187
4.2534	6.4158
4.2325	6.335
4.2119	6.3825
4.1915	6.3012
4.1712	6.2006
4.1512	6.1729
4.1313	6.1626
4.1117	6.032
4.0922	6.1182
4.0729	5.9655
4.0538	5.862
4.0349	5.9128
4.0161	5.8552
3.9976	5.7444
3.9792	5.7507
3.9609	5.6498
3.9428	5.5316
3.9249	5.5615
3.9072	5.4763
3.8896	5.5741
3.8722	5.4227
3.8549	5.3903
3.8378	5.3269
3.8208	5.3638
3.804	5.2143
3.7873	5.4423
3.7708	5.1353
3.7544	5.2441
3.7382	5.1213
3.7221	5.0764
3.7061	5.103
3.6903	5.0751
3.6746	5.0189
3.659	4.9561
3.6436	5.0034
3.6283	4.9498
3.6131	4.9672
3.5981	5.0552
3.5832	4.862
3.5684	4.7584
3.5537	4.8208
3.5391	4.8217
3.5247	4.8192
3.5104	4.7184
3.4962	4.7789
3.4821	4.6098
3.4681	4.7524
3.4543	4.5506
3.4405	4.4971
3.4269	4.4719
3.4133	4.4554
3.3999	4.4016
3.3866	4.5346
3.3733	4.4536
3.3602	4.2136
3.3472	4.3591
3.3343	4.3383
3.3215	4.1706
3.3088	4.2676
3.2961	4.2952
3.2836	4.0862
3.2712	4.0979
3.2588	4.2306
3.2466	4.151
3.2345	4.0481
3.2224	4.1322
3.2104	4.2179
3.1985	4.0502
3.1867	4.1235
3.175	3.9968
3.1634	3.838
3.1519	3.9393
3.1404	3.8711
3.129	3.8722
3.1178	3.9191
3.1065	3.7397
3.0954	3.7489
3.0844	3.77
3.0734	3.9139
3.0625	3.8306
3.0517	3.8423
3.041	3.6889
3.0303	3.7668
3.0197	3.7169
3.0092	3.8272
2.9987	3.6248
2.9884	3.6968
2.9781	3.6033
2.9678	3.867
2.9577	3.5864
2.9476	3.6486
2.9376	3.6606
2.9276	3.5646
2.9177	3.7658
2.9079	3.6492
2.8982	3.6097
2.8885	3.7062
2.8789	3.6407
2.8693	3.6657
2.8598	3.8302
2.8504	3.903
2.841	3.9639
2.8317	4.0092
2.8224	4.1101
2.8133	4.107
2.8041	4.1032
2.7951	4.2524
2.786	4.2794
2.7771	4.3097
2.7682	4.4296
2.7594	4.4313
2.7506	4.4255
2.7418	4.361
2.7332	4.4108
2.7246	4.7648
2.716	4.7249
2.7075	4.7018
2.699	4.8288
2.6906	4.8674
2.6823	4.9374
2.674	4.933
2.6657	4.9659
2.6575	4.9291
2.6494	4.9589
2.6413	5.004
2.6332	4.9772
2.6252	5.074
2.6173	4.9408
2.6094	4.897
2.6015	5.1443
2.5937	5.0615
2.5859	5.0885
2.5782	5.3368
2.5706	4.9727
2.5629	5.1307
2.5554	4.9652
2.5478	4.9812
2.5403	5.1879
2.5329	5.1729
2.5255	5.2073
2.5181	5.0751
2.5108	5.118
2.5035	5.0738
2.4963	5.1094
2.4891	5.3038
2.482	4.9885
2.4749	5.0682
2.4678	5.1755
2.4608	5.1461
2.4538	5.0758
2.4468	5.0768
2.4399	5.1786
2.4331	5.0709
2.4262	5.0817
2.4194	5.3308
2.4127	5.4987
2.4059	5.028
2.3993	5.0339
2.3926	5.1075
2.386	5.205
2.3795	5.2827
2.3729	5.201
2.3664	5.1611
2.36	5.1194
2.3535	5.1194
2.3471	5.3036
2.3408	5.1282
2.3345	5.1835
2.3282	5.1253
2.3219	5.2139
2.3157	5.1494
2.3095	5.2467
2.3034	4.9593
2.2972	5.1381
2.2911	5.0518
2.2851	5.3267
2.279	5.1241
2.2731	5.1019
2.2671	5.2705
2.2612	5.085
2.2553	5.3565
2.2494	5.368
2.2435	5.3744
2.2377	5.281
2.232	5.1659
2.2262	5.2909
2.2205	5.1216
2.2148	5.4239
2.2091	5.172
2.2035	5.099
2.1979	5.3706
2.1923	5.4078
2.1868	5.296
2.1812	5.2858
2.1758	5.4055
2.1703	5.3519
2.1649	5.4625
2.1595	5.2893
2.1541	5.2354
2.1487	5.2257
2.1434	5.3964
2.1381	5.2549
2.1328	5.001
2.1275	5.2478
2.1223	5.0975
2.1171	5.235
2.112	5.1132
2.1068	5.2559
2.1017	5.098
2.0966	5.3654
2.0915	5.0132
2.0865	5.1065
2.0814	5.616
2.0764	5.4255
2.0715	5.2698
2.0665	4.6011
2.0616	5.0085
2.0567	5.387
2.0518	5.0953
2.0469	5.3149
2.0421	5.4694
2.0373	5.1466
2.0325	5.2772
2.0277	5.5592
2.0229	5.3849
2.0182	5.1834
2.0135	5.3292
2.0088	5.3685
2.0042	5.4809
