Name: Epidote Ca_2(Al,Fe^3+)_3O.SiO_4.Si_2O_7.OH
Type: Mineral
Class: Silicate
Subclass: Sorosilicate
Particle Size: Fine
Sample No.: SS-1A
Owner: JPL
Wavelength Range: TIR
Origin: Mexico, Baja California Norte, Valle De La Trinidad
Description: Particle size was 0-45um.Collected by Burminco Original ASTER Spectral Library name was jpl.nicolet.mineral.silicate.sorosilicate.fine.ss01a.spectrum.txt
Measurement: Hemispherical reflectance
X Units: Wavelength (micrometers)
Y Units: Reflectance (percent)
wavelength	value
15.3853	7.0632
15.1161	6.0043
14.8563	5.0793
14.6052	4.6144
14.3624	4.3716
14.1276	3.5957
13.9004	3.2128
13.6803	3.2652
13.4671	5.2017
13.2604	6.9042
13.06	7.8413
12.8656	8.4895
12.6769	8.8907
12.4936	8.2009
12.3155	7.4399
12.1425	6.8794
11.9742	6.264
11.8106	6.009
11.6513	6.3977
11.4963	6.325
11.3454	8.8831
11.1983	8.9242
11.0551	7.5714
10.9154	6.4267
10.7793	6.0807
10.6465	8.5242
10.5169	11.7643
10.3904	12.5533
10.267	11.4159
10.1464	10.0696
10.0287	7.5194
9.9136	3.0387
9.8012	2.3326
9.6913	3.9533
9.5838	6.2903
9.4787	7.5174
9.3758	7.0274
9.2752	6.1319
9.1767	6.1922
9.0803	5.9597
8.9858	6.1272
8.8934	5.8322
8.8028	5.2842
8.714	4.0477
8.627	2.4318
8.5417	2.1635
8.4581	2.3529
8.3761	2.8944
8.2957	3.884
8.2169	4.9335
8.1395	5.9998
8.0635	6.9281
7.989	8.0594
7.9158	8.9697
7.8439	10.2201
7.7734	11.4784
7.7041	13.1879
7.636	14.5741
7.5691	16.2874
7.5034	17.541
7.4388	18.533
7.3753	19.5252
7.3129	20.3719
7.2515	21.1671
7.1912	21.6348
7.1318	21.865
7.0734	22.336
7.016	23.2601
6.9595	24.5945
6.9039	24.6662
6.8492	25.3313
6.7953	26.2801
6.7423	26.2384
6.6901	26.9905
6.6387	28.614
6.5881	27.7937
6.5382	27.7306
6.4892	29.9809
6.4408	29.1021
6.3931	29.6233
6.3462	30.9958
6.2999	29.6872
6.2543	29.4043
6.2094	29.2579
6.1651	29.1558
6.1214	28.2274
6.0784	27.5536
6.0359	25.9985
5.994	24.8194
5.9527	22.4948
5.912	21.8262
5.8718	22.8974
5.8322	23.7141
5.7931	23.7772
5.7545	24.1373
5.7165	24.5975
5.6789	24.6626
5.6418	25.7207
5.6052	25.8715
5.5691	27.3235
5.5334	29.3553
5.4982	31.0194
5.4635	32.9012
5.4291	33.6812
5.3952	33.9915
5.3618	34.1644
5.3287	33.9451
5.2961	34.0457
5.2638	33.5455
5.2319	32.8191
5.2004	32.8531
5.1693	34.1201
5.1386	35.4424
5.1082	35.5356
5.0782	35.1914
5.0485	34.8638
5.0192	34.5755
4.9902	33.0477
4.9616	30.0716
4.9332	29.2573
4.9052	29.7812
4.8776	30.0458
4.8502	32.751
4.8231	34.5971
4.7963	35.9355
4.7699	38.6642
4.7437	41.4224
4.7178	42.7153
4.6922	43.1592
4.6668	43.6671
4.6418	43.8062
4.617	43.4776
4.5924	44.0422
4.5681	45.9483
4.5441	47.7368
4.5203	49.0535
4.4968	50.1544
4.4735	51.0013
4.4505	51.6336
4.4277	52.0323
4.4051	52.3393
4.3828	52.6683
4.3607	52.8761
4.3388	53.0786
4.3171	53.2506
4.2956	53.5646
4.2744	53.6983
4.2534	53.7577
4.2325	54.0679
4.2119	53.9147
4.1915	53.8391
4.1712	54.0473
4.1512	54.1425
4.1313	54.1599
4.1117	54.2224
4.0922	54.3359
4.0729	54.1916
4.0538	54.2314
4.0349	54.201
4.0161	53.8597
3.9976	53.4332
3.9792	53.7845
3.9609	53.9698
3.9428	54.0845
3.9249	54.2888
3.9072	54.418
3.8896	54.4261
3.8722	54.4963
3.8549	54.3896
3.8378	54.4188
3.8208	54.4226
3.804	54.4759
3.7873	54.3314
3.7708	54.2603
3.7544	54.2488
3.7382	54.0046
3.7221	53.898
3.7061	53.6787
3.6903	53.6526
3.6746	53.6942
3.659	53.6389
3.6436	53.6132
3.6283	53.5327
3.6131	53.2282
3.5981	53.0892
3.5832	52.9062
3.5684	52.7909
3.5537	52.6284
3.5391	52.3823
3.5247	51.9324
3.5104	51.1989
3.4962	50.7886
3.4821	50.6045
3.4681	50.2379
3.4543	49.7914
3.4405	49.2863
3.4269	48.67
3.4133	48.2228
3.3999	48.2881
3.3866	48.4416
3.3733	47.9775
3.3602	47.6661
3.3472	47.4594
3.3343	47.011
3.3215	46.5304
3.3088	45.7194
3.2961	44.8628
3.2836	43.8698
3.2712	42.8885
3.2588	42.2104
3.2466	41.7554
3.2345	40.9273
3.2224	39.9816
3.2104	38.6825
3.1985	37.2643
3.1867	35.714
3.175	34.5238
3.1634	33.5736
3.1519	32.5722
3.1404	31.0269
3.129	29.0178
3.1178	26.6674
3.1065	24.4531
3.0954	22.4543
3.0844	20.87
3.0734	19.8028
3.0625	18.7362
3.0517	18.1132
3.041	17.5605
3.0303	16.8589
3.0197	15.4034
3.0092	13.2684
2.9987	10.5966
2.9884	8.6444
2.9781	7.4146
2.9678	6.8664
2.9577	6.8403
2.9476	7.4478
2.9376	9.1638
2.9276	11.4801
2.9177	13.8796
2.9079	15.3788
2.8982	16.3273
2.8885	17.0486
2.8789	18.1545
2.8693	20.1581
2.8598	22.2932
2.8504	24.6534
2.841	27.0395
2.8317	29.48
2.8224	31.555
2.8133	32.9294
2.8041	34.3356
2.7951	35.1281
2.786	36.735
2.7771	38.0724
2.7682	40.0006
2.7594	39.9575
2.7506	41.9958
2.7418	44.6096
2.7332	44.7617
2.7246	47.4504
2.716	47.6654
2.7075	48.6864
2.699	49.7359
2.6906	52.8596
2.6823	54.7505
2.674	55.9827
2.6657	58.6024
2.6575	56.3804
2.6494	56.4386
2.6413	56.8254
2.6332	57.4124
2.6252	57.273
2.6173	58.5215
2.6094	57.7854
2.6015	57.8192
2.5937	59.9302
2.5859	58.1127
2.5782	57.8245
2.5706	57.9714
2.5629	58.7326
2.5554	57.4929
2.5478	57.7661
2.5403	57.5212
2.5329	57.8256
2.5255	57.6311
2.5181	57.6289
2.5108	57.7799
2.5035	57.8198
2.4963	58.1093
2.4891	58.005
2.482	58.1823
2.4749	58.1144
2.4678	58.4073
2.4608	58.4331
2.4538	58.4069
2.4468	58.5635
2.4399	58.5863
2.4331	58.7187
2.4262	58.5872
2.4194	58.6677
2.4127	58.6426
2.4059	58.3819
2.3993	58.3634
2.3926	58.2592
2.386	58.0223
2.3795	57.5343
2.3729	56.9286
2.3664	55.6218
2.36	53.349
2.3535	50.4512
2.3471	47.8304
2.3408	46.8233
2.3345	47.0773
2.3282	48.6827
2.3219	50.415
2.3157	52.0043
2.3095	53.8311
2.3034	55.1744
2.2972	56.0895
2.2911	56.4994
2.2851	56.9389
2.279	57.2565
2.2731	57.2838
2.2671	57.2429
2.2612	56.6867
2.2553	56.0368
2.2494	56.4951
2.2435	57.4675
2.2377	58.1608
2.232	58.6299
2.2262	58.8967
2.2205	58.9756
2.2148	59.1884
2.2091	59.3029
2.2035	59.3398
2.1979	59.2077
2.1923	59.4614
2.1868	59.658
2.1812	59.4782
2.1758	59.6763
2.1703	59.6561
2.1649	59.6517
2.1595	59.8687
2.1541	59.6597
2.1487	59.7598
2.1434	59.6774
2.1381	59.7502
2.1328	59.6721
2.1275	59.7308
2.1223	59.9329
2.1171	59.6697
2.112	59.5921
2.1068	59.8088
2.1017	59.8386
2.0966	60.004
2.0915	59.7875
2.0865	59.902
2.0814	59.9207
2.0764	59.9755
2.0715	60
2.0665	59.9928
2.0616	59.8576
2.0567	60.1084
2.0518	59.7837
2.0469	59.483
2.0421	59.5892
2.0373	59.842
2.0325	59.572
2.0277	59.9179
2.0229	59.8163
2.0182	60.0145
2.0135	59.8427
2.0088	59.847
2.0042	59.7298
