Name: Anhydrite CaSO_4
Type: Mineral
Class: Sulfate
Subclass: None
Particle Size: Coarse
Sample No.: SO-1A
Owner: JPL
Wavelength Range: TIR
Origin: Canada, Nova Scotia
Description: Particle size was 125-500um.Collected by Ward's Original ASTER Spectral Library name was jpl.nicolet.mineral.sulfate.none.coarse.so01a.spectrum.txt
Measurement: Hemispherical reflectance
X Units: Wavelength (micrometers)
Y Units: Reflectance (percent)
wavelength	value
15.3853	3.7173
15.1161	4.9093
14.8563	10.9753
14.6052	15.1799
14.3624	10.4461
14.1276	2.1225
13.9004	1.8194
13.6803	2.2798
13.4671	2.5079
13.2604	2.7514
13.06	3.4911
12.8656	4.2364
12.6769	4.873
12.4936	5.4599
12.3155	5.758
12.1425	5.1061
11.9742	4.8555
11.8106	4.6988
11.6513	5.0191
11.4963	5.0216
11.3454	4.4823
11.1983	4.1236
11.0551	4.3301
10.9154	4.6305
10.7793	4.8669
10.6465	4.6863
10.5169	4.723
10.3904	4.4323
10.267	4.4946
10.1464	4.6126
10.0287	4.6037
9.9136	4.6284
9.8012	4.7243
9.6913	5.2081
9.5838	5.6148
9.4787	6.1912
9.3758	6.8903
9.2752	7.9664
9.1767	9.9853
9.0803	14.127
8.9858	17.7531
8.8934	23.7951
8.8028	30.7244
8.714	38.1406
8.627	40.6792
8.5417	38.9811
8.4581	38.7685
8.3761	41.0003
8.2957	39.0608
8.2169	26.1281
8.1395	20.6683
8.0635	13.7897
7.989	5.0834
7.9158	1.7665
7.8439	0.6957
7.7734	0.4366
7.7041	0.3659
7.636	0.4736
7.5691	0.3851
7.5034	0.5421
7.4388	0.6819
7.3753	0.8097
7.3129	1.0402
7.2515	1.1917
7.1912	1.4132
7.1318	1.6743
7.0734	2.0528
7.016	2.2396
6.9595	2.2884
6.9039	1.5355
6.8492	2.6678
6.7953	4.0959
6.7423	4.7807
6.6901	6.327
6.6387	10.3905
6.5881	10.8313
6.5382	8.9025
6.4892	6.9053
6.4408	7.1772
6.3931	9.613
6.3462	10.1051
6.2999	10.3062
6.2543	8.4827
6.2094	5.463
6.1651	2.4832
6.1214	3.1785
6.0784	5.3786
6.0359	6.2624
5.994	7.2237
5.9527	8.5776
5.912	8.1906
5.8718	11.787
5.8322	16.3934
5.7931	14.7412
5.7545	17.5989
5.7165	19.1346
5.6789	22.0332
5.6418	26.0961
5.6052	24.4882
5.5691	22.2194
5.5334	23.2389
5.4982	25.1069
5.4635	27.6641
5.4291	30.6791
5.3952	33.4515
5.3618	34.6565
5.3287	35.2506
5.2961	36.0843
5.2638	36.5653
5.2319	37.647
5.2004	38.7868
5.1693	39.1777
5.1386	38.9352
5.1082	37.5548
5.0782	36.3026
5.0485	35.7123
5.0192	34.6717
4.9902	33.7966
4.9616	32.1557
4.9332	26.0073
4.9052	29.8679
4.8776	30.3358
4.8502	29.0788
4.8231	26.8956
4.7963	23.6055
4.7699	17.7749
4.7437	10.984
4.7178	3.3625
4.6922	1.8746
4.6668	1.8064
4.6418	2.0939
4.617	2.6511
4.5924	3.385
4.5681	4.5212
4.5441	3.975
4.5203	3.4828
4.4968	3.062
4.4735	2.5115
4.4505	2.7252
4.4277	3.5544
4.4051	4.758
4.3828	4.6979
4.3607	4.5639
4.3388	4.8011
4.3171	5.7865
4.2956	5.9444
4.2744	6.0853
4.2534	8.4368
4.2325	12.3017
4.2119	12.5571
4.1915	12.9992
4.1712	18.4832
4.1512	27.421
4.1313	31.0203
4.1117	33.6037
4.0922	35.414
4.0729	36.9675
4.0538	38.4135
4.0349	39.2187
4.0161	39.5003
3.9976	38.7771
3.9792	35.3958
3.9609	37.5167
3.9428	39.3547
3.9249	40.4413
3.9072	42.5361
3.8896	44.453
3.8722	45.5677
3.8549	47.4929
3.8378	48.589
3.8208	48.2917
3.804	46.3857
3.7873	47.1585
3.7708	50.0506
3.7544	51.9006
3.7382	52.6628
3.7221	52.8562
3.7061	52.4802
3.6903	51.4631
3.6746	51.7504
3.659	51.0679
3.6436	50.1976
3.6283	49.8242
3.6131	49.3524
3.5981	48.6199
3.5832	47.8247
3.5684	46.7739
3.5537	45.5027
3.5391	44.2711
3.5247	42.3605
3.5104	40.0748
3.4962	38.1774
3.4821	36.5531
3.4681	35.3271
3.4543	34.0953
3.4405	34.0095
3.4269	33.5406
3.4133	32.6538
3.3999	31.6992
3.3866	30.5342
3.3733	29.5167
3.3602	28.1768
3.3472	26.9185
3.3343	26.1959
3.3215	24.9844
3.3088	23.6324
3.2961	22.6411
3.2836	21.4718
3.2712	20.4125
3.2588	19.2197
3.2466	17.8353
3.2345	16.8718
3.2224	15.687
3.2104	14.6079
3.1985	13.5261
3.1867	12.1566
3.175	11.3714
3.1634	10.7253
3.1519	10.0808
3.1404	9.4514
3.129	8.8786
3.1178	8.4188
3.1065	7.6033
3.0954	7.384
3.0844	6.883
3.0734	6.7836
3.0625	6.5141
3.0517	6.3191
3.041	6.2569
3.0303	5.9912
3.0197	5.8519
3.0092	5.4315
2.9987	5.2931
2.9884	5.0805
2.9781	5.034
2.9678	4.6899
2.9577	4.742
2.9476	4.7245
2.9376	4.4925
2.9276	4.3276
2.9177	4.271
2.9079	3.9906
2.8982	3.8834
2.8885	3.6244
2.8789	3.7937
2.8693	3.8966
2.8598	4.0539
2.8504	4.4505
2.841	4.7504
2.8317	4.9237
2.8224	5.5378
2.8133	5.9078
2.8041	6.4938
2.7951	6.1497
2.786	7.6369
2.7771	8.439
2.7682	9.7712
2.7594	11.3822
2.7506	14.0299
2.7418	17.708
2.7332	21.4463
2.7246	26.6303
2.716	30.6597
2.7075	35.0799
2.699	38.6474
2.6906	41.5495
2.6823	43.7099
2.674	45.581
2.6657	48.3337
2.6575	48.171
2.6494	49.1744
2.6413	50.2964
2.6332	51.2173
2.6252	51.6697
2.6173	52.8606
2.6094	52.8058
2.6015	53.0376
2.5937	54.2415
2.5859	53.2947
2.5782	53.174
2.5706	53.4533
2.5629	53.7214
2.5554	53.1415
2.5478	53.4161
2.5403	53.1295
2.5329	53.2594
2.5255	53.439
2.5181	53.3575
2.5108	53.3756
2.5035	53.1814
2.4963	53.0362
2.4891	53.2456
2.482	53.2243
2.4749	53.4003
2.4678	53.836
2.4608	53.6428
2.4538	54.303
2.4468	54.6961
2.4399	55.3193
2.4331	55.5939
2.4262	56.1887
2.4194	56.786
2.4127	57.4216
2.4059	58.3112
2.3993	59.4393
2.3926	60.6892
2.386	61.6505
2.3795	62.5215
2.3729	63.5982
2.3664	64.1518
2.36	64.9087
2.3535	65.0993
2.3471	65.7548
2.3408	66.6634
2.3345	67.0015
2.3282	67.5712
2.3219	68.0463
2.3157	68.1993
2.3095	68.3236
2.3034	68.4555
2.2972	68.516
2.2911	68.6278
2.2851	68.472
2.279	68.4413
2.2731	68.0892
2.2671	68.2621
2.2612	68.3769
2.2553	68.4806
2.2494	68.6163
2.2435	68.3847
2.2377	68.4004
2.232	68.2386
2.2262	67.7721
2.2205	66.8329
2.2148	67.1887
2.2091	67.4176
2.2035	67.7073
2.1979	67.8429
2.1923	67.7406
2.1868	68.1186
2.1812	68.0035
2.1758	68.2158
2.1703	68.4124
2.1649	68.318
2.1595	68.5018
2.1541	68.6321
2.1487	68.834
2.1434	68.8602
2.1381	69.1986
2.1328	69.3033
2.1275	69.4169
2.1223	69.6506
2.1171	69.5931
2.112	69.7242
2.1068	69.6752
2.1017	70.1427
2.0966	69.8458
2.0915	69.9262
2.0865	69.9549
2.0814	69.8467
2.0764	70.2125
2.0715	69.6556
2.0665	69.7381
2.0616	69.7735
2.0567	69.4934
2.0518	69.4565
2.0469	69.2183
2.0421	68.7661
2.0373	68.466
2.0325	67.9789
2.0277	67.7673
2.0229	67.0842
2.0182	66.5839
2.0135	65.8514
2.0088	64.9581
2.0042	63.7223
