Name: Zoisite (var. tanzanite) Ca2Al3(SiO4)3(OH)
Type: Mineral
Class: Silicate
Subclass: None
Particle Size: Coarse
Sample No.: zoisite_1
Owner: JHU
Wavelength Range: TIR
Origin: Arusha, Tanzania via the Smithsonian (sample no. NMNH126029)
Description: The sample consisted of five euhedral, violet-blue crystals, with some clay material and mica adhering to a few surfaces.  Each crystal was about 7 mm x 10 mm, with a total weight of 5.9 g.  After removal of the coating material and crushing, microscopic examination showed about 1% brown alteration material, but otherwise the sample appeared pure. Particle size was 75 - 250 Micrometers. Original ASTER Spectral Library name was jhu.nicolet.mineral.silicate.sorosilicate.coarse.zoisit1.spectrum.txt
Measurement: Bidirectional reflectance
X Units: Wavelength (micrometers)
Y Units: Reflectance (percent)
wavelength	value
25.0442	8.3296
24.3388	9.0381
23.6719	5.041
23.0407	4.9966
22.4422	7.1887
21.8741	8.3962
21.334	7.3823
20.8199	6.0163
20.33	4.3533
19.8627	4.6243
19.4163	5.9087
18.9896	4.2334
18.5812	4.0823
18.19	5.7912
17.815	7.4875
17.4551	10.0097
17.1094	10.3073
16.7772	6.7134
16.4576	5.7959
16.15	6.0598
15.8537	6.885
15.568	4.7168
15.2925	5.3613
15.0265	5.4724
14.7697	6.5522
14.5214	5.6321
14.2814	4.834
14.0492	3.4563
13.8244	3.7678
13.6067	2.0664
13.3957	2.0432
13.1912	2.5308
12.9929	2.1435
12.8004	2.2908
12.6135	2.1028
12.432	2.396
12.2557	2.7261
12.0843	3.0471
11.9176	3.3735
11.7555	3.8242
11.5977	4.7392
11.444	4.6904
11.2944	5.6396
11.1487	7.5202
11.0067	6.9485
10.8682	5.6973
10.7332	6.2817
10.6015	8.167
10.473	8.3852
10.3476	8.9841
10.2251	9.488
10.1056	8.8496
9.9887	8.3335
9.8746	6.6152
9.763	4.9624
9.6539	3.2893
9.5472	2.2407
9.4429	1.8059
9.3408	1.9805
9.2409	2.4341
9.1431	3.3381
9.0474	6.323
8.9536	7.6186
8.8618	8.5783
8.7718	8.5786
8.6837	7.5378
8.5973	6.9848
8.5126	5.2229
8.4295	2.3999
8.3481	0.9197
8.2682	0.4731
8.1898	0.5337
8.1129	0.6663
8.0374	0.7849
7.9634	0.906
7.8906	1.0088
7.8192	1.1162
7.7491	1.2219
7.6802	1.3225
7.6126	1.3957
7.5461	1.4954
7.4807	1.5498
7.4165	1.6201
7.3534	1.6758
7.2914	1.7041
7.2303	1.7434
7.1703	1.7881
7.1113	1.8362
7.0533	1.8689
6.9962	1.8806
6.94	1.9021
6.8847	1.9351
6.8302	1.9829
6.7767	2.0317
6.7239	2.0791
6.672	2.1143
6.6209	2.1221
6.5705	2.0959
6.5209	2.135
6.4721	2.1882
6.424	2.2854
6.3766	2.3931
6.3299	2.5259
6.2838	2.6013
6.2385	2.6645
6.1937	2.7043
6.1496	2.7585
6.1062	2.8057
6.0633	2.7978
6.0211	2.6794
5.9794	2.5391
5.9383	2.3643
5.8978	2.3315
5.8578	2.46
5.8184	2.5027
5.7794	2.4612
5.741	2.4285
5.7031	2.3762
5.6657	2.2903
5.6288	2.2156
5.5924	2.2053
5.5564	2.2712
5.5209	2.3508
5.4859	2.4426
5.4513	2.5195
5.4171	2.5581
5.3833	2.6414
5.35	2.7222
5.3171	2.8572
5.2846	3.0456
5.2524	3.0337
5.2207	3.1216
5.1893	3.3613
5.1584	3.7549
5.1277	4.0637
5.0975	4.2014
5.0676	4.2475
5.038	4.0759
5.0088	3.8689
4.98	4.06
4.9514	4.3225
4.9232	4.404
4.8953	4.3669
4.8678	4.3999
4.8405	4.4453
4.8135	4.4634
4.7868	4.3784
4.7605	4.1946
4.7344	3.8999
4.7086	3.5022
4.6831	2.8569
4.6578	2.8809
4.6328	2.7715
4.6081	2.6089
4.5837	2.7371
4.5595	3.0559
4.5356	3.3508
4.5119	3.5691
4.4884	3.7996
4.4652	4.1443
4.4423	4.4692
4.4196	4.6687
4.3971	4.8125
4.3748	5.0144
4.3528	5.2541
4.331	5.4726
4.3094	5.645
4.288	5.7641
4.2668	5.862
4.2458	5.9639
4.2251	6
4.2045	5.9148
4.1841	5.9004
4.164	5.9104
4.144	5.9731
4.1242	6.0659
4.1046	6.1675
4.0852	6.2229
4.066	6.1682
4.047	6.0627
4.0281	5.9646
4.0094	5.9328
3.9909	5.9958
3.9725	6.0613
3.9544	6.0591
3.9363	6.0044
3.9185	5.9282
3.9008	5.7881
3.8833	5.6365
3.8659	5.5032
3.8487	5.3669
3.8316	5.2429
3.8147	5.1492
3.7979	5.0334
3.7813	4.9057
3.7648	4.7724
3.7485	4.6677
3.7323	4.6064
3.7162	4.5652
3.7003	4.5432
3.6845	4.4905
3.6689	4.4653
3.6534	4.4104
3.638	4.3738
3.6227	4.3562
3.6076	4.3332
3.5926	4.2937
3.5777	4.227
3.563	4.1299
3.5484	4.0229
3.5338	3.9011
3.5195	3.8237
3.5052	3.7756
3.491	3.739
3.477	3.6916
3.463	3.6235
3.4492	3.5569
3.4355	3.4973
3.4219	3.4551
3.4084	3.4131
3.395	3.3721
3.3817	3.3538
3.3685	3.3103
3.3554	3.2549
3.3425	3.2085
3.3296	3.1404
3.3168	3.0566
3.3041	2.9585
3.2915	2.8555
3.279	2.7903
3.2666	2.7305
3.2543	2.7458
3.2421	2.7778
3.23	2.7798
3.218	2.7454
3.206	2.6894
3.1942	2.6103
3.1824	2.5122
3.1707	2.3784
3.1591	2.0862
3.1476	1.8935
3.1362	1.9119
3.1249	2.0222
3.1136	2.1333
3.1024	2.2007
3.0913	2.2292
3.0803	2.2312
3.0694	2.2202
3.0585	2.249
3.0477	2.3054
3.037	2.3747
3.0264	2.4473
3.0158	2.5181
3.0053	2.5869
2.9949	2.6514
2.9845	2.7163
2.9743	2.7952
2.9641	2.8437
2.9539	2.8835
2.9439	2.9448
2.9339	3.0063
2.9239	3.0854
2.9141	3.1453
2.9043	3.2226
2.8946	3.2671
2.8849	3.3152
2.8753	3.3967
2.8658	3.4817
2.8563	3.5852
2.8469	3.7073
2.8375	3.834
2.8282	3.9397
2.819	3.9438
2.8098	4.0535
2.8007	4.2392
2.7917	4.362
2.7827	4.457
2.7738	4.5349
2.7649	4.592
2.7561	4.5952
2.7473	4.685
2.7386	4.7849
2.7299	4.8931
2.7213	5.0408
2.7128	5.2495
2.7043	5.5359
2.6959	5.8725
2.6875	6.2256
2.6791	6.6177
2.6709	7.0586
2.6626	7.4768
2.6545	7.8369
2.6463	8.1567
2.6382	8.3652
2.6302	8.3293
2.6222	8.1428
2.6143	8.0923
2.6064	8.4065
2.5986	8.7947
2.5908	8.9216
2.583	8.9841
2.5753	9.1838
2.5677	9.5849
2.5601	10.0569
2.5525	10.4306
2.545	10.7253
2.5375	10.8752
2.5301	10.9336
2.5227	10.9209
2.5154	10.7046
2.5081	10.289
2.5008	9.6467
2.4936	8.7419
2.4864	7.4992
2.4793	6.1221
2.4722	5.7185
2.4651	6.5744
2.4581	7.8523
2.4511	8.7497
2.4442	9.2507
2.4373	9.5569
2.4305	9.8208
2.4236	10.1721
2.4169	10.5925
2.4101	11.0659
2.4034	11.5009
2.3967	11.9101
2.3901	12.2412
2.3835	12.426
2.377	12.5459
2.3704	12.5625
2.364	12.5639
2.3575	12.592
2.3511	12.5747
2.3447	12.5232
2.3384	12.5605
2.3321	12.6162
2.3258	12.5793
2.3195	12.3413
2.3133	11.832
2.3071	10.7993
2.301	9.7226
2.2949	10.3733
2.2888	11.6325
2.2828	12.4155
2.2767	12.8642
2.2708	13.1142
2.2648	13.2397
2.2589	13.3049
2.253	13.3354
2.2471	13.3874
2.2413	13.4792
2.2355	13.5254
2.2297	13.5185
2.224	13.5468
2.2183	13.6079
2.2126	13.5381
2.207	13.5131
2.2013	13.4975
2.1957	13.5551
2.1902	13.5554
2.1846	13.5874
2.1791	13.5849
2.1736	13.6416
2.1682	13.6396
2.1628	13.7021
2.1574	13.7163
2.152	13.5813
2.1466	13.5737
2.1413	13.5957
2.136	13.6037
2.1308	13.5818
2.1255	13.561
2.1203	13.6023
2.1151	13.5913
2.11	13.5639
2.1048	13.5102
2.0997	13.5766
2.0946	13.5698
2.0895	13.5683
2.0845	13.5156
2.0795	13.4848
