Name: Rhodochrosite MnCO_3
Type: Mineral
Class: Carbonate
Subclass: None
Particle Size: Coarse
Sample No.: C-8A
Owner: JPL
Wavelength Range: VSWIR
Origin: USA, Montana, Silver Bow County, Butte.
Description: Particle size was 125-500um.Collected by:  Ward's Original ASTER Spectral Library name was jpl.perkin.mineral.carbonate.none.coarse.c08a.spectrum.txt
Measurement: Hemispherical reflectance
X Units: Wavelength (micrometers)
Y Units: Reflectance (percent)
wavelength	value
2.5	33.463
2.494	34.4629
2.488	36.0258
2.482	38.145
2.476	40.4051
2.47	42.9321
2.464	45.0872
2.458	47.2435
2.452	49.0848
2.446	50.6789
2.44	52.185
2.434	54.097
2.428	54.8417
2.422	55.635
2.416	56.6891
2.41	57.6714
2.404	58.2298
2.398	58.0909
2.392	56.6528
2.386	53.3977
2.38	48.8367
2.374	44.1668
2.368	40.792
2.362	39.2136
2.356	39.0582
2.35	39.6098
2.344	40.5885
2.338	41.6306
2.332	42.4772
2.326	43.2596
2.32	44.0614
2.314	45.044
2.308	46.1644
2.302	47.5355
2.296	49.1259
2.29	50.9972
2.284	52.748
2.278	54.4104
2.272	55.8646
2.266	57.106
2.26	58.4048
2.254	59.468
2.248	60.4949
2.242	61.3812
2.236	62.3008
2.23	63.0574
2.224	63.7895
2.218	64.3043
2.212	64.864
2.206	65.1792
2.2	65.4946
2.194	65.7402
2.188	65.8299
2.182	65.6896
2.176	65.5149
2.17	65.3745
2.164	65.5261
2.158	65.8972
2.152	66.5641
2.146	67.2315
2.14	67.899
2.134	68.0959
2.128	68.2093
2.122	68.1893
2.116	68.12
2.11	68.0226
2.104	67.9314
2.098	67.8638
2.092	67.9757
2.086	68.086
2.08	68.1123
2.074	68.0043
2.068	67.9155
2.062	67.9149
2.056	67.6872
2.05	67.5555
2.044	67.2704
2.038	66.8678
2.032	66.3811
2.026	65.6027
2.02	64.5673
2.014	63.2787
2.008	62.7137
2.002	62.8211
1.996	62.9911
1.99	63.0546
1.984	62.8862
1.978	62.6641
1.972	62.4385
1.966	62.2307
1.96	62.0544
1.954	61.9682
1.948	61.8107
1.942	61.6291
1.936	61.5497
1.93	61.5628
1.924	61.6699
1.918	62.0649
1.912	62.4492
1.906	62.8519
1.9	63.072
1.894	63.3707
1.888	64.4917
1.882	66.2466
1.876	67.6242
1.87	68.7119
1.864	69.4484
1.858	69.987
1.852	70.4086
1.846	70.798
1.84	71.1535
1.834	71.4198
1.828	71.6417
1.822	71.806
1.816	71.9212
1.81	72.1267
1.804	72.1997
1.798	72.2989
1.792	72.3068
1.786	72.2201
1.78	72.0172
1.774	71.9207
1.768	71.9199
1.762	71.8927
1.756	71.9842
1.75	72.0298
1.744	72.0951
1.738	72.2402
1.732	72.317
1.726	72.421
1.72	72.4653
1.714	72.5528
1.708	72.6724
1.702	72.6547
1.696	72.7215
1.69	72.7894
1.684	72.8419
1.678	72.7829
1.672	72.8376
1.666	72.7474
1.66	72.7127
1.654	72.7278
1.648	72.7931
1.642	72.8432
1.636	72.733
1.63	72.7626
1.624	72.8771
1.618	72.7616
1.612	72.7756
1.606	72.6447
1.6	72.6356
1.594	72.5601
1.588	72.4593
1.582	72.2837
1.576	72.211
1.57	72.1033
1.564	72.1316
1.558	71.9582
1.552	71.9137
1.546	71.8403
1.54	71.6756
1.534	71.5328
1.528	71.3725
1.522	71.2072
1.516	71.0184
1.51	70.7788
1.504	70.6385
1.498	70.4077
1.492	70.2298
1.486	69.9813
1.48	69.8249
1.474	69.5668
1.468	69.3549
1.462	69.2593
1.456	69.2239
1.45	69.0949
1.444	69.0135
1.438	69.0704
1.432	69.0139
1.426	69.0296
1.42	69.0458
1.414	69.1174
1.408	69.3727
1.402	69.726
1.396	70.1145
1.39	70.4041
1.384	70.5236
1.378	70.7039
1.372	70.7039
1.366	70.7203
1.36	70.5279
1.354	70.5952
1.348	70.4761
1.342	70.3639
1.336	70.365
1.33	70.3631
1.324	70.2895
1.318	70.2885
1.312	70.3161
1.306	70.2287
1.3	70.1373
1.294	70.1958
1.288	70.1335
1.282	70.1611
1.276	70.0887
1.27	70.1113
1.264	70.0466
1.258	70.0677
1.252	70.0403
1.246	70.0019
1.24	69.9964
1.234	69.9771
1.228	69.9778
1.222	69.9118
1.216	69.9571
1.21	69.9041
1.204	69.8721
1.198	69.8411
1.192	69.8835
1.186	69.827
1.18	69.7457
1.174	69.8266
1.168	69.8149
1.162	69.7549
1.156	69.7879
1.15	69.6922
1.144	69.6687
1.138	69.5877
1.132	69.6399
1.126	69.5658
1.12	69.489
1.114	69.4891
1.108	69.4633
1.102	69.436
1.096	69.3889
1.09	69.2895
1.084	69.2946
1.078	69.2961
1.072	69.3066
1.066	69.2248
1.06	69.3085
1.054	69.2819
1.048	69.3092
1.042	69.2798
1.036	69.3553
1.03	69.3754
1.024	69.4601
1.018	69.5412
1.012	69.6085
1.006	69.6405
1	69.7777
0.994	69.8486
0.988	69.8752
0.982	70.0426
0.976	70.1296
0.97	70.2599
0.964	70.3777
0.958	70.4483
0.952	70.6053
0.946	70.7526
0.94	70.8068
0.934	70.9547
0.928	70.9862
0.922	71.018
0.916	71.1117
0.91	71.1988
0.904	71.2193
0.898	71.3077
0.892	71.3599
0.886	71.4133
0.88	71.4849
0.874	71.4472
0.868	71.4446
0.862	71.4413
0.856	71.761
0.85	71.7654
0.844	71.855
0.838	71.8039
0.832	71.7949
0.826	71.7848
0.82	71.7444
0.814	71.7816
0.808	71.6909
0.802	71.7046
0.796	71.564
0.79	71.5072
0.784	71.4821
0.778	71.3494
0.772	71.2662
0.766	71.1743
0.76	71.1075
0.754	71.0496
0.748	70.9151
0.742	70.8707
0.736	70.7595
0.73	70.6331
0.724	70.5422
0.718	70.4348
0.712	70.2989
0.706	70.1606
0.7	70.0676
0.694	69.9336
0.688	69.783
0.682	69.6217
0.676	69.4558
0.67	69.2458
0.664	69.0613
0.658	68.8172
0.652	68.5614
0.646	68.2935
0.64	67.9896
0.634	67.6394
0.628	67.2195
0.622	66.6919
0.616	65.9793
0.61	65.0315
0.604	63.7133
0.598	62.0372
0.592	59.9403
0.586	57.4846
0.58	54.8513
0.574	52.2494
0.568	49.9178
0.562	48.0027
0.556	46.7005
0.55	46.0769
0.544	46.1683
0.538	46.913
0.532	48.1711
0.526	49.7359
0.52	51.3144
0.514	52.6666
0.508	53.6328
0.502	54.1454
0.496	54.2413
0.49	53.8286
0.484	52.8638
0.478	51.2691
0.472	48.8807
0.466	46.0732
0.46	43.4557
0.454	41.3627
0.448	39.8902
0.442	39.2769
0.436	39.6917
0.43	40.89
0.424	42.0054
0.418	41.5757
0.412	31.7253
0.406	18.8759
0.4	33.5145
