Name: Microcline (Feldspar) (K,Na)AlSi_3O_8
Type: Mineral
Class: Silicate
Subclass: Tectosilicate
Particle Size: Coarse
Sample No.: TS-17A
Owner: JPL
Wavelength Range: TIR
Description: Particle size was 125-500um.Collected by JPL Original ASTER Spectral Library name was jpl.nicolet.mineral.silicate.tectosilicate.coarse.ts17a.spectrum.txt
Measurement: Hemispherical reflectance
X Units: Wavelength (micrometers)
Y Units: Reflectance (percent)
wavelength	value
15.3853	4.4252
15.1161	2.1012
14.8563	2.0957
14.6052	2.4675
14.3624	2.8298
14.1276	3.3075
13.9004	3.9944
13.6803	3.6789
13.4671	2.8351
13.2604	3.2197
13.06	4.3782
12.8656	3.3685
12.6769	2.3787
12.4936	2.6964
12.3155	2.521
12.1425	3.2927
11.9742	3.6028
11.8106	3.9686
11.6513	4.0777
11.4963	4.5336
11.3454	4.6225
11.1983	5.0587
11.0551	5.3551
10.9154	5.772
10.7793	6.0858
10.6465	6.8879
10.5169	7.6785
10.3904	8.9066
10.267	11.0701
10.1464	14.3022
10.0287	18.6217
9.9136	22.0982
9.8012	23.1819
9.6913	21.5619
9.5838	21.8194
9.4787	23.321
9.3758	19.3649
9.2752	20.7308
9.1767	21.0346
9.0803	16.9941
8.9858	14.573
8.8934	16.505
8.8028	18.4653
8.714	19.6179
8.627	19.1336
8.5417	18.5035
8.4581	16.3546
8.3761	13.7742
8.2957	9.4095
8.2169	5.8203
8.1395	3.3994
8.0635	1.7191
7.989	1.0737
7.9158	0.552
7.8439	0.4649
7.7734	0.4669
7.7041	0.3355
7.636	0.531
7.5691	0.4905
7.5034	0.5986
7.4388	0.6309
7.3753	0.6705
7.3129	0.7476
7.2515	0.9045
7.1912	1.0158
7.1318	1.22
7.0734	1.4075
7.016	1.5893
6.9595	1.7123
6.9039	1.7203
6.8492	1.8836
6.7953	1.9266
6.7423	2.0301
6.6901	2.1468
6.6387	2.3468
6.5881	2.4785
6.5382	2.5109
6.4892	2.6014
6.4408	2.3615
6.3931	2.1609
6.3462	2.0823
6.2999	2.0021
6.2543	1.8539
6.2094	1.8926
6.1651	2.0176
6.1214	2.0382
6.0784	2.2739
6.0359	2.1597
5.994	2.3509
5.9527	2.3366
5.912	2.3289
5.8718	2.2958
5.8322	2.3338
5.7931	2.2656
5.7545	2.2243
5.7165	2.268
5.6789	2.1718
5.6418	2.1586
5.6052	2.2124
5.5691	2.3082
5.5334	2.4995
5.4982	2.8761
5.4635	3.2266
5.4291	3.3246
5.3952	3.5788
5.3618	3.8202
5.3287	4.0822
5.2961	4.4776
5.2638	4.6306
5.2319	4.9641
5.2004	5.9687
5.1693	7.137
5.1386	8.2353
5.1082	9.744
5.0782	11.404
5.0485	11.7591
5.0192	12.8052
4.9902	13.6018
4.9616	13.6973
4.9332	13.0722
4.9052	13.2765
4.8776	14.4055
4.8502	15.1014
4.8231	14.9667
4.7963	14.5072
4.7699	14.3689
4.7437	15.0953
4.7178	14.8402
4.6922	14.3715
4.6668	14.4435
4.6418	15.4288
4.617	16.5658
4.5924	17.8817
4.5681	19.2682
4.5441	21.3503
4.5203	23.0944
4.4968	24.8091
4.4735	26.7169
4.4505	28.891
4.4277	30.6277
4.4051	32.3746
4.3828	34.4215
4.3607	36.5714
4.3388	38.21
4.3171	39.6579
4.2956	40.0439
4.2744	39.8374
4.2534	42.07
4.2325	45.3044
4.2119	48.5736
4.1915	50.5634
4.1712	51.5922
4.1512	52.2003
4.1313	52.7147
4.1117	53.0233
4.0922	53.1815
4.0729	52.8878
4.0538	52.3883
4.0349	50.7253
4.0161	49.4506
3.9976	47.8675
3.9792	47.1535
3.9609	47.8607
3.9428	49.2938
3.9249	50.2388
3.9072	50.8974
3.8896	51.1331
3.8722	51.3131
3.8549	51.9282
3.8378	52.9406
3.8208	54.4248
3.804	55.9466
3.7873	57.8199
3.7708	58.7084
3.7544	59.1673
3.7382	59.4921
3.7221	59.6232
3.7061	59.8277
3.6903	59.943
3.6746	60.058
3.659	60.0378
3.6436	59.9242
3.6283	59.587
3.6131	59.2624
3.5981	58.5706
3.5832	57.6921
3.5684	56.5241
3.5537	55.5007
3.5391	54.1421
3.5247	51.5387
3.5104	48.2077
3.4962	46.8335
3.4821	46.4087
3.4681	46.3073
3.4543	46.4731
3.4405	45.4031
3.4269	43.8615
3.4133	42.4903
3.3999	42.5247
3.3866	41.8502
3.3733	40.9491
3.3602	40.3207
3.3472	39.595
3.3343	39.9664
3.3215	39.2364
3.3088	38.2551
3.2961	37.1917
3.2836	36.0579
3.2712	34.6329
3.2588	33.4399
3.2466	32.1399
3.2345	31.0273
3.2224	29.7411
3.2104	28.4046
3.1985	27.3195
3.1867	26.0389
3.175	24.7852
3.1634	23.5846
3.1519	22.3479
3.1404	21.2874
3.129	20.1558
3.1178	19.4064
3.1065	18.4975
3.0954	17.9812
3.0844	17.1719
3.0734	16.7226
3.0625	16.1486
3.0517	15.865
3.041	15.4316
3.0303	14.9139
3.0197	14.5486
3.0092	14.0977
2.9987	13.4938
2.9884	13.0545
2.9781	12.7069
2.9678	12.4437
2.9577	12.2576
2.9476	11.9125
2.9376	11.8649
2.9276	11.8654
2.9177	11.9688
2.9079	11.9859
2.8982	11.9904
2.8885	12.2771
2.8789	12.5008
2.8693	13.0258
2.8598	13.2927
2.8504	13.8602
2.841	14.3863
2.8317	14.6209
2.8224	15.2544
2.8133	15.4127
2.8041	15.7291
2.7951	15.4688
2.786	15.0317
2.7771	14.1844
2.7682	13.8863
2.7594	13.8205
2.7506	15.2883
2.7418	16.8841
2.7332	18.7681
2.7246	22.2835
2.716	28.0123
2.7075	31.5328
2.699	39.574
2.6906	49.4814
2.6823	54.525
2.674	57.6383
2.6657	61.2751
2.6575	62.0088
2.6494	63.1409
2.6413	64.1561
2.6332	64.7677
2.6252	64.9706
2.6173	65.5008
2.6094	65.4265
2.6015	65.9973
2.5937	67.3187
2.5859	67.1845
2.5782	67.258
2.5706	67.7069
2.5629	67.9858
2.5554	67.588
2.5478	67.5039
2.5403	67.1744
2.5329	67.3191
2.5255	67.3112
2.5181	67.2422
2.5108	67.1157
2.5035	66.8565
2.4963	66.8233
2.4891	66.7427
2.482	66.8904
2.4749	66.9792
2.4678	66.9938
2.4608	66.8125
2.4538	66.6665
2.4468	66.5694
2.4399	66.5468
2.4331	66.7581
2.4262	67.658
2.4194	68.5005
2.4127	69.5304
2.4059	70.2938
2.3993	71.0992
2.3926	71.3217
2.386	71.3944
2.3795	71.4513
2.3729	71.6258
2.3664	71.6265
2.36	71.0658
2.3535	70.2464
2.3471	70.0981
2.3408	70.2865
2.3345	71.1892
2.3282	72.2062
2.3219	73.432
2.3157	74.4831
2.3095	75.4606
2.3034	76.3777
2.2972	77.1138
2.2911	77.7368
2.2851	78.196
2.279	78.5411
2.2731	78.4776
2.2671	78.4506
2.2612	78.1472
2.2553	77.9016
2.2494	77.7162
2.2435	77.4091
2.2377	77.0702
2.232	76.6302
2.2262	76.0788
2.2205	74.8536
2.2148	72.7902
2.2091	70.2181
2.2035	68.8097
2.1979	68.0675
2.1923	68.7087
2.1868	71.0394
2.1812	73.3973
2.1758	75.9006
2.1703	77.3516
2.1649	78.4789
2.1595	79.2597
2.1541	79.9078
2.1487	80.4909
2.1434	80.7271
2.1381	81.1965
2.1328	81.0988
2.1275	81.0871
2.1223	80.9853
2.1171	81.1108
2.112	81.2689
2.1068	81.3477
2.1017	81.4354
2.0966	81.6488
2.0915	81.9918
2.0865	82.1989
2.0814	82.1069
2.0764	81.9986
2.0715	81.9224
2.0665	81.9593
2.0616	81.714
2.0567	81.9994
2.0518	81.794
2.0469	81.4834
2.0421	81.2947
2.0373	81.2966
2.0325	81.1697
2.0277	80.8815
2.0229	80.493
2.0182	80.32
2.0135	80.3226
2.0088	79.7034
2.0042	79.4883
