Name: Triphylite Li(Mn,Fe)PO_4
Type: Mineral
Class: Phosphate
Subclass: None
Particle Size: Fine
Sample No.: P-4A
Owner: JPL
Wavelength Range: TIR
Origin: USA, New Hampshire, North Graton, Palermo Mine
Description: Particle size was 0-45um.Collected by Burminco Original ASTER Spectral Library name was jpl.nicolet.mineral.phosphate.none.fine.p04a.spectrum.txt
Measurement: Hemispherical reflectance
X Units: Wavelength (micrometers)
Y Units: Reflectance (percent)
wavelength	value
15.3853	6.1562
15.1161	2.782
14.8563	3.6668
14.6052	6.2063
14.3624	8.308
14.1276	10.5131
13.9004	12.2032
13.6803	13.5508
13.4671	14.7387
13.2604	15.5917
13.06	16.3252
12.8656	16.6074
12.6769	16.8653
12.4936	16.8058
12.3155	17.9181
12.1425	17.451
11.9742	17.06
11.8106	16.5882
11.6513	15.4779
11.4963	14.7243
11.3454	13.4785
11.1983	11.9662
11.0551	10.4217
10.9154	9.2207
10.7793	8.7657
10.6465	8.99
10.5169	8.7785
10.3904	9.7968
10.267	9.991
10.1464	10.0078
10.0287	11.0521
9.9136	11.8877
9.8012	12.1529
9.6913	12.7753
9.5838	13.5405
9.4787	13.6021
9.3758	12.9049
9.2752	11.5072
9.1767	6.352
9.0803	10.4996
8.9858	10.8129
8.8934	8.2853
8.8028	8.1598
8.714	8.7505
8.627	10.1178
8.5417	7.7284
8.4581	3.2361
8.3761	1.5972
8.2957	1.2238
8.2169	1.3216
8.1395	1.9241
8.0635	2.7443
7.989	3.7545
7.9158	4.7243
7.8439	5.7878
7.7734	7.2251
7.7041	8.4709
7.636	9.9178
7.5691	11.0979
7.5034	12.2362
7.4388	12.7983
7.3753	13.7866
7.3129	14.2904
7.2515	14.6083
7.1912	14.9602
7.1318	15.1882
7.0734	15.2034
7.016	15.4348
6.9595	16.1937
6.9039	16.1857
6.8492	16.5383
6.7953	17.0105
6.7423	16.6823
6.6901	16.6156
6.6387	17.6522
6.5881	17.12
6.5382	16.5656
6.4892	18.2005
6.4408	18.2617
6.3931	18.27
6.3462	18.3447
6.2999	17.5575
6.2543	17.5705
6.2094	17.5189
6.1651	17.7232
6.1214	17.8392
6.0784	18.2444
6.0359	17.8327
5.994	17.967
5.9527	17.6979
5.912	17.763
5.8718	18.2872
5.8322	18.4331
5.7931	17.8846
5.7545	18.1982
5.7165	18.6115
5.6789	18.5883
5.6418	19.1824
5.6052	18.6672
5.5691	18.6349
5.5334	18.7506
5.4982	18.9201
5.4635	19.1221
5.4291	19.108
5.3952	18.9234
5.3618	18.7671
5.3287	17.9056
5.2961	16.0617
5.2638	16.3736
5.2319	16.0911
5.2004	15.1283
5.1693	14.7381
5.1386	15.6624
5.1082	15.6242
5.0782	16.1494
5.0485	16.4105
5.0192	17.0561
4.9902	17.4945
4.9616	17.6444
4.9332	17.904
4.9052	17.6529
4.8776	17.5517
4.8502	18.8204
4.8231	19.2476
4.7963	19.6149
4.7699	21.0723
4.7437	22.5614
4.7178	23.3681
4.6922	22.9572
4.6668	22.5277
4.6418	23.4696
4.617	24.5238
4.5924	25.4031
4.5681	26.2545
4.5441	26.5523
4.5203	26.7832
4.4968	26.7028
4.4735	27.0469
4.4505	28.3423
4.4277	30.3031
4.4051	31.9806
4.3828	32.9757
4.3607	33.6708
4.3388	34.2979
4.3171	34.6793
4.2956	34.9506
4.2744	34.983
4.2534	36.005
4.2325	36.3306
4.2119	37.5676
4.1915	38.3549
4.1712	38.8647
4.1512	39.5303
4.1313	40.0039
4.1117	40.5101
4.0922	41.121
4.0729	41.615
4.0538	42.0948
4.0349	42.595
4.0161	43.0338
3.9976	43.6769
3.9792	44.1172
3.9609	44.5636
3.9428	45.1342
3.9249	45.7079
3.9072	46.088
3.8896	46.5856
3.8722	47.0958
3.8549	47.4827
3.8378	48.1081
3.8208	48.4883
3.804	48.9778
3.7873	49.3905
3.7708	49.7429
3.7544	50.2323
3.7382	50.6219
3.7221	51.0195
3.7061	51.3051
3.6903	51.816
3.6746	52.2747
3.659	52.5615
3.6436	52.8939
3.6283	53.2401
3.6131	53.5882
3.5981	53.7088
3.5832	54.0725
3.5684	54.4549
3.5537	54.4809
3.5391	54.6237
3.5247	54.8194
3.5104	55.0603
3.4962	55.0543
3.4821	55.4509
3.4681	55.7123
3.4543	55.9849
3.4405	56.2617
3.4269	56.511
3.4133	56.6267
3.3999	56.8662
3.3866	56.853
3.3733	57.2102
3.3602	57.2637
3.3472	57.3058
3.3343	57.5274
3.3215	57.6501
3.3088	57.6941
3.2961	57.8467
3.2836	57.7935
3.2712	57.7554
3.2588	57.8024
3.2466	57.6362
3.2345	57.5858
3.2224	57.3408
3.2104	57.265
3.1985	57.0392
3.1867	56.7775
3.175	56.6128
3.1634	56.3489
3.1519	56.105
3.1404	56.1466
3.129	55.8895
3.1178	55.6621
3.1065	55.5263
3.0954	55.3714
3.0844	55.054
3.0734	55.0615
3.0625	55.1297
3.0517	54.9313
3.041	55.0704
3.0303	55.0021
3.0197	54.8596
3.0092	54.7487
2.9987	54.7461
2.9884	54.8498
2.9781	54.7286
2.9678	54.8493
2.9577	55.1252
2.9476	55.2514
2.9376	55.3332
2.9276	55.6552
2.9177	55.6535
2.9079	56.2076
2.8982	56.7049
2.8885	57.2149
2.8789	57.8636
2.8693	58.3137
2.8598	58.9351
2.8504	59.8308
2.841	60.671
2.8317	61.5057
2.8224	62.5971
2.8133	63.7587
2.8041	65.7612
2.7951	66.3856
2.786	68.9908
2.7771	69.9541
2.7682	71.8988
2.7594	72.4133
2.7506	73.7643
2.7418	76.514
2.7332	76.5079
2.7246	79.8116
2.716	78.7002
2.7075	79.4843
2.699	80.1055
2.6906	81.2557
2.6823	82.2545
2.674	82.8918
2.6657	85.9241
2.6575	82.9956
2.6494	82.9094
2.6413	83.364
2.6332	83.9094
2.6252	84.0482
2.6173	85.7244
2.6094	84.5617
2.6015	84.5283
2.5937	86.9274
2.5859	84.9509
2.5782	84.6299
2.5706	84.9507
2.5629	85.9136
2.5554	84.332
2.5478	84.7509
2.5403	84.4921
2.5329	84.8167
2.5255	84.7504
2.5181	84.7625
2.5108	84.9083
2.5035	84.9383
2.4963	85.1261
2.4891	85.2365
2.482	85.3045
2.4749	85.3323
2.4678	85.2435
2.4608	85.3667
2.4538	85.5482
2.4468	85.6196
2.4399	85.6694
2.4331	85.6622
2.4262	85.8558
2.4194	85.897
2.4127	85.8063
2.4059	85.9089
2.3993	85.9372
2.3926	85.9662
2.386	86.1555
2.3795	86.1811
2.3729	86.2267
2.3664	86.2014
2.36	86.2643
2.3535	86.3102
2.3471	86.461
2.3408	86.2994
2.3345	86.285
2.3282	86.402
2.3219	86.4414
2.3157	86.5422
2.3095	86.5461
2.3034	86.6118
2.2972	86.4753
2.2911	86.458
2.2851	86.3126
2.279	86.4549
2.2731	86.405
2.2671	86.3481
2.2612	86.6722
2.2553	86.4121
2.2494	86.5631
2.2435	86.3555
2.2377	86.4694
2.232	86.3961
2.2262	86.4502
2.2205	86.2167
2.2148	86.5941
2.2091	86.353
2.2035	86.5046
2.1979	86.4324
2.1923	86.4479
2.1868	86.4826
2.1812	86.1435
2.1758	86.0955
2.1703	86.0696
2.1649	86.3006
2.1595	86.186
2.1541	86.1359
2.1487	85.9289
2.1434	85.9419
2.1381	86.0235
2.1328	85.6533
2.1275	85.8266
2.1223	85.6776
2.1171	85.6431
2.112	85.7155
2.1068	85.4213
2.1017	85.4984
2.0966	85.4729
2.0915	85.5387
2.0865	84.9041
2.0814	85.2619
2.0764	84.7761
2.0715	84.9708
2.0665	84.9195
2.0616	84.6038
2.0567	84.6898
2.0518	84.5551
2.0469	84.367
2.0421	84.276
2.0373	84.1982
2.0325	84.2799
2.0277	83.7387
2.0229	83.8246
2.0182	83.4714
2.0135	83.4845
2.0088	83.2491
2.0042	83.3823
