Name: Bustamite (Mn,Ca)3Si3O9
Type: Mineral
Class: Silicate
Subclass: Inosilicate
Particle Size: Solid
Sample No.: bustamite_1
Owner: JHU
Wavelength Range: TIR
Origin: Smithsonian NMNH R3099 Sample from Franklin, New Jersey.
Description: The sample was a prismatic piece about 3 cm in length and 1-2 cm wide. It appeared pure except for a few grains of calcite that were removed. Under the petrographic microscope about 2% of grains show some light alteration.  The portion chosen for probe analysis was comprised of clean, homogeneous grains.  The sample was treated with acetic acid to remove any remaining calcite. (Chain Silicates) (Pyroxenoid Group) Original ASTER Spectral Library name was jhu.nicolet.mineral.silicate.inosilicate.solid.bustam1.spectrum.txt
Measurement: Bidirectional reflectance
X Units: Wavelength (micrometers)
Y Units: Reflectance (percent)
wavelength	value
25.0442	22.7783
24.3388	23.6801
23.6719	23.9755
23.0407	30.8671
22.4422	31.9806
21.8741	37.6505
21.334	46.171
20.8199	48.5402
20.33	37.9965
19.8627	30.0934
19.4163	28.9797
18.9896	32.4721
18.5812	33.7509
18.19	33.6234
17.815	33.745
17.4551	26.2665
17.1094	12.6201
16.7772	7.3388
16.4576	7.5195
16.15	8.2729
15.8537	9.1064
15.568	10.0556
15.2925	11.7329
15.0265	8.7612
14.7697	9.6699
14.5214	11.8786
14.2814	9.8933
14.0492	8.3713
13.8244	9.2986
13.6067	9.7512
13.3957	10.3213
13.1912	10.7497
12.9929	11.103
12.8004	11.5139
12.6135	11.8838
12.432	12.2898
12.2557	12.7819
12.0843	13.258
11.9176	13.8552
11.7555	14.656
11.5977	15.8498
11.444	17.6259
11.2944	20.2832
11.1487	26.3896
11.0067	33.9291
10.8682	30.059
10.7332	23.7116
10.6015	26.3305
10.473	31.2187
10.3476	31.6513
10.2251	27.5029
10.1056	26.9672
9.9887	21.7597
9.8746	19.8112
9.763	21.5812
9.6539	18.0197
9.5472	13.5012
9.4429	19.446
9.3408	25.8644
9.2409	29.3525
9.1431	34.3241
9.0474	32.2594
8.9536	28.9643
8.8618	29.422
8.7718	27.4626
8.6837	17.1562
8.5973	9.855
8.5126	4.4744
8.4295	2.446
8.3481	2.9136
8.2682	3.4375
8.1898	3.876
8.1129	4.2473
8.0374	4.5181
7.9634	4.761
7.8906	5.0012
7.8192	5.241
7.7491	5.458
7.6802	5.6448
7.6126	5.7998
7.5461	5.9341
7.4807	6.0522
7.4165	6.1841
7.3534	6.3093
7.2914	6.4309
7.2303	6.522
7.1703	6.6138
7.1113	6.6894
7.0533	6.748
6.9962	6.8017
6.94	6.8476
6.8847	6.8887
6.8302	6.9485
6.7767	7.0014
6.7239	7.0598
6.672	7.0825
6.6209	7.1233
6.5705	7.1435
6.5209	7.1711
6.4721	7.1821
6.424	7.1611
6.3766	7.1577
6.3299	7.1645
6.2838	7.1899
6.2385	7.2173
6.1937	7.227
6.1496	7.2348
6.1062	7.2453
6.0633	7.259
6.0211	7.2546
5.9794	7.2558
5.9383	7.2656
5.8978	7.2856
5.8578	7.303
5.8184	7.3039
5.7794	7.3681
5.741	7.4397
5.7031	7.4541
5.6657	7.448
5.6288	7.4595
5.5924	7.4912
5.5564	7.5173
5.5209	7.5459
5.4859	7.5808
5.4513	7.6206
5.4171	7.6352
5.3833	7.6636
5.35	7.6682
5.3171	7.6362
5.2846	7.5874
5.2524	7.5617
5.2207	7.5593
5.1893	7.6096
5.1584	7.6526
5.1277	7.7136
5.0975	7.7431
5.0676	7.739
5.038	7.7241
5.0088	7.7353
4.98	7.7441
4.9514	7.7588
4.9232	7.7856
4.8953	7.7991
4.8678	7.8301
4.8405	7.8572
4.8135	7.9223
4.7868	8.0012
4.7605	8.0627
4.7344	8.1489
4.7086	8.2199
4.6831	8.2827
4.6578	8.3745
4.6328	8.5373
4.6081	8.6511
4.5837	8.708
4.5595	8.7512
4.5356	8.8581
4.5119	8.9326
4.4884	9
4.4652	9.018
4.4423	9.0573
4.4196	9.0791
4.3971	9.0903
4.3748	9.1174
4.3528	9.1421
4.331	9.1584
4.3094	9.1782
4.288	9.228
4.2668	9.2497
4.2458	9.251
4.2251	9.2693
4.2045	9.2925
4.1841	9.3166
4.164	9.3305
4.144	9.3606
4.1242	9.383
4.1046	9.4092
4.0852	9.4311
4.066	9.4323
4.047	9.4482
4.0281	9.4443
4.0094	9.426
3.9909	9.3974
3.9725	9.4182
3.9544	9.4497
3.9363	9.4966
3.9185	9.5007
3.9008	9.5195
3.8833	9.5359
3.8659	9.5371
3.8487	9.5307
3.8316	9.5454
3.8147	9.5561
3.7979	9.5676
3.7813	9.5617
3.7648	9.563
3.7485	9.5676
3.7323	9.5678
3.7162	9.5642
3.7003	9.5451
3.6845	9.5349
3.6689	9.5127
3.6534	9.5195
3.638	9.5154
3.6227	9.4873
3.6076	9.4812
3.5926	9.4695
3.5777	9.4494
3.563	9.4136
3.5484	9.386
3.5338	9.3369
3.5195	9.1963
3.5052	8.8894
3.491	9.0642
3.477	9.1252
3.463	9.1347
3.4492	9.042
3.4355	8.9055
3.4219	8.6662
3.4084	8.7649
3.395	8.98
3.3817	8.9831
3.3685	9.1064
3.3554	9.145
3.3425	9.1711
3.3296	9.1633
3.3168	9.1389
3.3041	9.1035
3.2915	9.0476
3.279	9.011
3.2666	8.9533
3.2543	8.9179
3.2421	8.8689
3.23	8.8161
3.218	8.7639
3.206	8.7204
3.1942	8.6535
3.1824	8.592
3.1707	8.5361
3.1591	8.4634
3.1476	8.4072
3.1362	8.3559
3.1249	8.3032
3.1136	8.248
3.1024	8.2173
3.0913	8.1736
3.0803	8.1152
3.0694	8.0874
3.0585	8.0288
3.0477	8.0056
3.037	7.9858
3.0264	7.9692
3.0158	7.9355
3.0053	7.9065
2.9949	7.8911
2.9845	7.875
2.9743	7.8442
2.9641	7.8371
2.9539	7.8266
2.9439	7.8115
2.9339	7.8193
2.9239	7.8242
2.9141	7.8103
2.9043	7.8188
2.8946	7.8569
2.8849	7.8872
2.8753	7.8823
2.8658	7.9087
2.8563	7.9438
2.8469	7.9697
2.8375	7.9804
2.8282	8.0034
2.819	8.0346
2.8098	8.0722
2.8007	8.1074
2.7917	8.1548
2.7827	8.1845
2.7738	8.2207
2.7649	8.2871
2.7561	8.3369
2.7473	8.4731
2.7386	8.6123
2.7299	8.8061
2.7213	9.0156
2.7128	9.2014
2.7043	9.3918
2.6959	9.4616
2.6875	9.5527
2.6791	9.5632
2.6709	9.5654
2.6626	9.5927
2.6545	9.5937
2.6463	9.5989
2.6382	9.601
2.6302	9.6062
2.6222	9.5881
2.6143	9.5906
2.6064	9.5681
2.5986	9.56
2.5908	9.5808
2.583	9.5774
2.5753	9.5725
2.5677	9.5654
2.5601	9.561
2.5525	9.5483
2.545	9.5395
2.5375	9.5542
2.5301	9.5678
2.5227	9.5422
2.5154	9.5195
2.5081	9.5136
2.5008	9.5041
2.4936	9.4975
2.4864	9.5049
2.4793	9.5119
2.4722	9.5185
2.4651	9.456
2.4581	9.499
2.4511	9.5012
2.4442	9.508
2.4373	9.51
2.4305	9.4927
2.4236	9.5158
2.4169	9.5107
2.4101	9.5256
2.4034	9.5019
2.3967	9.4892
2.3901	9.4768
2.3835	9.5185
2.377	9.5481
2.3704	9.5244
2.364	9.5244
2.3575	9.4953
2.3511	9.4719
2.3447	9.5302
2.3384	9.4756
2.3321	9.4494
2.3258	9.5
2.3195	9.5293
2.3133	9.52
2.3071	9.4756
2.301	9.5141
2.2949	9.5127
2.2888	9.52
2.2828	9.5356
2.2767	9.5346
2.2708	9.5639
2.2648	9.5742
2.2589	9.5498
2.253	9.5527
2.2471	9.5615
2.2413	9.5683
2.2355	9.5771
2.2297	9.5722
2.224	9.5639
2.2183	9.581
2.2126	9.5976
2.207	9.5752
2.2013	9.5669
2.1957	9.5957
2.1902	9.6059
2.1846	9.6094
2.1791	9.5747
2.1736	9.6079
2.1682	9.6025
2.1628	9.6216
2.1574	9.6396
2.152	9.6157
2.1466	9.5791
2.1413	9.6255
2.136	9.6704
2.1308	9.6391
2.1255	9.6699
2.1203	9.6748
2.1151	9.6142
2.11	9.6738
2.1048	9.643
2.0997	9.6992
2.0946	9.6592
2.0895	9.7099
2.0845	9.7187
2.0795	9.6958
