Name: Anorthite CaAl2Si2O8
Type: Mineral
Class: Silicate
Subclass: Tectosilicate
Particle Size: Fine
Sample No.: anorthite_1
Owner: JHU
Wavelength Range: TIR
Origin: Sample from Bruce Hemingway, USGS; synthesized by JamesWoodhead, Princeton University.
Description: The sample was a coarse white powder.  The sample appears pure under the microscope, with very fine (cryptocrystalline) texture. Particle size was less than 2 Micrometers.(Synthetic)(Framework silicates) (Feldspar Group) Original ASTER Spectral Library name was jhu.nicolet.mineral.silicate.tectosilicate.powder.anorth1.spectrum.txt
Measurement: Transmission
X Units: Wavelength (micrometers)
Y Units: Transmittance (percent)
wavelength	value
25.0442	58.992
24.3388	62.0233
23.6719	66.4295
23.0407	71.1639
22.4422	77.5389
21.8741	77.9939
21.334	74.8689
20.8199	75.1326
20.33	78.5115
19.8627	79.4412
19.4163	72.907
18.9896	64.2147
18.5812	49.496
18.19	53.1444
17.815	46.3134
17.4551	43.4296
17.1094	43.5907
16.7772	48.2479
16.4576	49.0096
16.15	45.5233
15.8537	54.1366
15.568	70.2694
15.2925	75.5779
15.0265	67.1873
14.7697	66.8514
14.5214	70.1053
14.2814	72.8104
14.0492	73.4969
13.8244	68.678
13.6067	68.6195
13.3957	70.2088
13.1912	66.6019
12.9929	72.7264
12.8004	79.5623
12.6135	82.6228
12.432	81.0486
12.2557	76.6932
12.0843	70.6175
11.9176	64.4744
11.7555	60.2542
11.5977	56.3265
11.444	49.2093
11.2944	40.1835
11.1487	31.3183
11.0067	26.3515
10.8682	22.1782
10.7332	21.0888
10.6015	22.7934
10.473	25.7021
10.3476	29.9667
10.2251	34.8847
10.1056	35.7094
9.9887	36.3524
9.8746	35.9086
9.763	35.2733
9.6539	38.0019
9.5472	42.6386
9.4429	45.5336
9.3408	44.4008
9.2409	40.9809
9.1431	39.6156
9.0474	41.3129
8.9536	42.9852
8.8618	41.3056
8.7718	38.9159
8.6837	39.037
8.5973	44.1635
8.5126	51.2235
8.4295	58.6561
8.3481	65.2664
8.2682	70.7881
8.1898	74.9109
8.1129	77.6941
8.0374	79.9278
7.9634	81.6023
7.8906	82.9619
7.8192	84.114
7.7491	85.198
7.6802	85.9619
7.6126	86.6033
7.5461	87.1653
7.4807	87.5479
7.4165	87.7383
7.3534	87.7696
7.2914	87.5066
7.2303	86.9158
7.1703	85.5584
7.1113	84.1553
7.0533	82.8963
6.9962	82.8711
6.94	83.1155
6.8847	83.9822
6.8302	85.2429
6.7767	86.4695
6.7239	87.7634
6.672	88.9011
6.6209	89.8972
6.5705	90.7988
6.5209	91.6531
6.4721	92.4368
6.424	93.0618
6.3766	93.4736
6.3299	93.676
6.2838	93.7891
6.2385	93.8135
6.1937	93.8916
6.1496	94.0752
6.1062	94.4753
6.0633	95.0928
6.0211	95.4124
5.9794	95.5195
5.9383	96.3855
5.8978	96.9499
5.8578	97.3611
5.8184	97.6804
5.7794	97.8154
5.741	98.1589
5.7031	98.459
5.6657	98.6592
5.6288	98.8027
5.5924	98.8371
5.5564	98.8594
5.5209	99.1533
5.4859	99.2693
5.4513	99.4343
5.4171	99.6006
5.3833	99.6531
5.35	99.8015
5.3171	99.9646
5.2846	100.09
5.2524	100.189
5.2207	100.332
5.1893	100.491
5.1584	100.646
5.1277	100.753
5.0975	100.85
5.0676	100.945
5.038	101.018
5.0088	101.138
4.98	101.256
4.9514	101.381
4.9232	101.409
4.8953	101.52
4.8678	101.631
4.8405	101.728
4.8135	101.785
4.7868	101.876
4.7605	101.99
4.7344	102.036
4.7086	102.088
4.6831	102.155
4.6578	102.166
4.6328	102.345
4.6081	102.401
4.5837	102.549
4.5595	102.561
4.5356	102.621
4.5119	102.678
4.4884	102.749
4.4652	102.845
4.4423	102.886
4.4196	102.979
4.3971	103.044
4.3748	103.22
4.3528	103.228
4.331	103.343
4.3094	103.398
4.288	103.472
4.2668	103.57
4.2458	103.658
4.2251	103.707
4.2045	103.71
4.1841	103.779
4.164	103.861
4.144	103.882
4.1242	103.961
4.1046	104.011
4.0852	104.045
4.066	104.092
4.047	104.162
4.0281	104.217
4.0094	104.224
3.9909	104.168
3.9725	104.151
3.9544	104.322
3.9363	104.462
3.9185	104.602
3.9008	104.63
3.8833	104.623
3.8659	104.646
3.8487	104.756
3.8316	104.761
3.8147	104.806
3.7979	104.89
3.7813	105.031
3.7648	105.026
3.7485	105.075
3.7323	105.133
3.7162	105.195
3.7003	105.177
3.6845	105.242
3.6689	105.293
3.6534	105.426
3.638	105.425
3.6227	105.483
3.6076	105.435
3.5926	105.543
3.5777	105.556
3.563	105.65
3.5484	105.677
3.5338	105.703
3.5195	105.834
3.5052	105.982
3.491	105.95
3.477	105.844
3.463	105.936
3.4492	106.109
3.4355	106.216
3.4219	106.536
3.4084	106.379
3.395	106.222
3.3817	106.168
3.3685	106.169
3.3554	106.091
3.3425	106.06
3.3296	106.105
3.3168	106.129
3.3041	106.105
3.2915	106.175
3.279	106.232
3.2666	106.224
3.2543	106.203
3.2421	106.31
3.23	106.236
3.218	106.217
3.206	106.232
3.1942	106.228
3.1824	106.197
3.1707	106.254
3.1591	106.224
3.1476	106.12
3.1362	106.051
3.1249	106.058
3.1136	106.126
3.1024	106.12
3.0913	106.215
3.0803	106.322
3.0694	106.392
3.0585	106.293
3.0477	106.486
3.037	106.372
3.0264	106.407
3.0158	106.267
3.0053	106.259
2.9949	106.289
2.9845	106.265
2.9743	106.185
2.9641	105.882
2.9539	105.797
2.9439	105.804
2.9339	105.758
2.9239	105.773
2.9141	105.741
2.9043	105.917
2.8946	106.249
2.8849	106.546
2.8753	106.913
2.8658	107.293
2.8563	107.812
2.8469	108.193
2.8375	108.417
2.8282	108.598
2.819	108.831
2.8098	108.89
2.8007	109.198
2.7917	109.609
2.7827	109.977
2.7738	110.173
2.7649	110.441
2.7561	110.886
2.7473	111.456
2.7386	111.82
2.7299	112.063
2.7213	112.222
2.7128	112.449
2.7043	112.625
2.6959	112.961
2.6875	113.179
2.6791	113.335
2.6709	113.632
2.6626	113.75
2.6545	113.726
2.6463	113.797
2.6382	114.046
2.6302	114.085
2.6222	114.333
2.6143	114.359
2.6064	114.484
2.5986	114.599
2.5908	114.816
2.583	114.956
2.5753	114.956
2.5677	115.027
2.5601	115.218
2.5525	115.197
2.545	115.433
2.5375	115.589
2.5301	115.491
2.5227	115.566
2.5154	115.87
2.5081	115.98
2.5008	116.001
2.4936	116.097
2.4864	116.355
2.4793	116.585
2.4722	116.611
2.4651	116.751
2.4581	116.738
2.4511	116.89
2.4442	116.847
2.4373	117.339
2.4305	117.28
2.4236	117.159
2.4169	117.421
2.4101	117.814
2.4034	117.665
2.3967	117.626
2.3901	117.671
2.3835	118.171
2.377	118.243
2.3704	118.366
2.364	118.398
2.3575	118.28
2.3511	118.4
2.3447	118.718
2.3384	118.798
2.3321	118.907
2.3258	118.734
2.3195	119.07
2.3133	119.212
2.3071	119.423
2.301	119.236
2.2949	119.476
2.2888	119.648
2.2828	119.525
2.2767	119.548
2.2708	119.55
2.2648	119.816
2.2589	119.886
2.253	119.921
2.2471	119.952
2.2413	120.07
2.2355	120.316
2.2297	120.062
2.224	120.101
2.2183	120.245
2.2126	120.171
2.207	120.472
2.2013	120.605
2.1957	120.53
2.1902	120.78
2.1846	120.503
2.1791	120.55
2.1736	120.859
2.1682	120.878
2.1628	120.972
2.1574	120.859
2.152	121.054
2.1466	120.905
2.1413	120.98
2.136	120.921
2.1308	120.726
2.1255	120.445
2.1203	121.175
2.1151	121.191
2.11	120.929
2.1048	120.874
2.0997	121.155
2.0946	120.894
2.0895	121.097
2.0845	121.452
2.0795	120.726
