Name: Olivine (Fo60) (Fe+2,Mg)2SiO4
Type: Mineral
Class: Silicate
Subclass: Nesosilicate
Particle Size: Coarse
Sample No.: olivine_6
Owner: JHU
Wavelength Range: TIR
Origin: Kiglapait Intrusion, Labrador via Trude King #KI3189(obtained from S.A. Morse, Univ. of Mass.)
Description: Initially, the specimen was contaminated with pyroxene, spinel, and ilmenite.  Heavy liquid separation, followed by magnetic separation and hand picking, allowed olivines of different iron content to be obtained.  Sample ground to <60 micrometers and wet sieved.  Sample preparation by Trude King, USGS, Denver. Particle size was 0-60 micrometers, but Packed powder simulates coarse.(Isolated tetrahedra); (Olivine Group) Original ASTER Spectral Library name was jhu.nicolet.mineral.silicate.nesosilicate.packed.olivin6.spectrum.txt
Measurement: Bidirectional reflectance
X Units: Wavelength (micrometers)
Y Units: Reflectance (percent)
wavelength	value
25.0442	7.2514
24.3388	7.373
23.6719	6.166
23.0407	4.5674
22.4422	4.0015
21.8741	3.9294
21.334	3.9538
20.8199	4.9612
20.33	5.7615
19.8627	5.4082
19.4163	6.2395
18.9896	6.7385
18.5812	7.0381
18.19	6.5205
17.815	4.5852
17.4551	3.3118
17.1094	3.2183
16.7772	3.5649
16.4576	3.9172
16.15	3.9922
15.8537	3.2976
15.568	2.3074
15.2925	2.178
15.0265	2.3298
14.7697	2.5188
14.5214	2.7395
14.2814	2.9111
14.0492	3.0933
13.8244	3.2078
13.6067	3.3682
13.3957	3.4419
13.1912	3.542
12.9929	3.5657
12.8004	3.5928
12.6135	3.5796
12.432	3.6047
12.2557	3.6489
12.0843	3.791
11.9176	3.6533
11.7555	3.991
11.5977	4.6404
11.444	5.6951
11.2944	6.5588
11.1487	7.0813
11.0067	7.5984
10.8682	8.1965
10.7332	8.6255
10.6015	7.477
10.473	5.7685
10.3476	7.0237
10.2251	6.8467
10.1056	6.281
9.9887	5.9277
9.8746	5.5827
9.763	5.477
9.6539	5.5078
9.5472	5.47
9.4429	4.9519
9.3408	3.9243
9.2409	2.7664
9.1431	2.0166
9.0474	1.8472
8.9536	1.8684
8.8618	2.196
8.7718	2.4739
8.6837	2.6821
8.5973	2.8259
8.5126	3.0205
8.4295	3.1821
8.3481	3.3433
8.2682	3.5393
8.1898	3.7344
8.1129	3.885
8.0374	3.9795
7.9634	4.0361
7.8906	4.0657
7.8192	4.1055
7.7491	4.1086
7.6802	4.0869
7.6126	4.1037
7.5461	4.1855
7.4807	4.2905
7.4165	4.3818
7.3534	4.4521
7.2914	4.5144
7.2303	4.5849
7.1703	4.6306
7.1113	4.6811
7.0533	4.7502
6.9962	4.8183
6.94	4.8237
6.8847	4.8105
6.8302	4.886
6.7767	4.9587
6.7239	4.9905
6.672	4.9963
6.6209	5.0066
6.5705	4.988
6.5209	4.9863
6.4721	4.9709
6.424	4.9407
6.3766	4.9297
6.3299	4.8926
6.2838	4.8694
6.2385	4.8298
6.1937	4.8027
6.1496	4.7036
6.1062	4.5039
6.0633	4.227
6.0211	4.136
5.9794	4.1975
5.9383	4.2197
5.8978	4.2585
5.8578	4.3105
5.8184	4.345
5.7794	4.3154
5.741	4.1699
5.7031	4.0022
5.6657	3.9565
5.6288	4.0393
5.5924	4.1611
5.5564	4.219
5.5209	4.2405
5.4859	4.2805
5.4513	4.363
5.4171	4.4407
5.3833	4.4892
5.35	4.5317
5.3171	4.5583
5.2846	4.6155
5.2524	4.6897
5.2207	4.7678
5.1893	4.8379
5.1584	4.8996
5.1277	4.9316
5.0975	4.9626
5.0676	4.9866
5.038	4.9917
5.0088	5.0412
4.98	5.1448
4.9514	5.291
4.9232	5.425
4.8953	5.5166
4.8678	5.5774
4.8405	5.6391
4.8135	5.6824
4.7868	5.7317
4.7605	5.7578
4.7344	5.8
4.7086	5.8276
4.6831	5.866
4.6578	5.9067
4.6328	5.9397
4.6081	5.99
4.5837	6.0312
4.5595	6.0696
4.5356	6.1057
4.5119	6.1528
4.4884	6.2004
4.4652	6.2353
4.4423	6.279
4.4196	6.331
4.3971	6.3772
4.3748	6.4248
4.3528	6.4614
4.331	6.5071
4.3094	6.5498
4.288	6.5847
4.2668	6.6382
4.2458	6.6907
4.2251	6.7324
4.2045	6.7763
4.1841	6.8164
4.164	6.8598
4.144	6.8962
4.1242	6.9289
4.1046	6.966
4.0852	7.0095
4.066	7.0478
4.047	7.0805
4.0281	7.1199
4.0094	7.1548
3.9909	7.2034
3.9725	7.2361
3.9544	7.2732
3.9363	7.3049
3.9185	7.3462
3.9008	7.3877
3.8833	7.4197
3.8659	7.4414
3.8487	7.4668
3.8316	7.5002
3.8147	7.5351
3.7979	7.5593
3.7813	7.5945
3.7648	7.6203
3.7485	7.6596
3.7323	7.6831
3.7162	7.7117
3.7003	7.7295
3.6845	7.751
3.6689	7.7788
3.6534	7.8125
3.638	7.8218
3.6227	7.8415
3.6076	7.862
3.5926	7.8769
3.5777	7.8813
3.563	7.8806
3.5484	7.8784
3.5338	7.8503
3.5195	7.7497
3.5052	7.5593
3.491	7.6658
3.477	7.706
3.463	7.7053
3.4492	7.6396
3.4355	7.5303
3.4219	7.3445
3.4084	7.3979
3.395	7.594
3.3817	7.6299
3.3685	7.6958
3.3554	7.8139
3.3425	7.8474
3.3296	7.8459
3.3168	7.8369
3.3041	7.7749
3.2915	7.8081
3.279	7.7868
3.2666	7.7436
3.2543	7.7392
3.2421	7.7153
3.23	7.7014
3.218	7.6711
3.206	7.6545
3.1942	7.6233
3.1824	7.5788
3.1707	7.5459
3.1591	7.5061
3.1476	7.4707
3.1362	7.4172
3.1249	7.3696
3.1136	7.3332
3.1024	7.279
3.0913	7.2309
3.0803	7.196
3.0694	7.1467
3.0585	7.0876
3.0477	7.0447
3.037	6.9888
3.0264	6.9504
3.0158	6.8938
3.0053	6.854
2.9949	6.8388
2.9845	6.8257
2.9743	6.8215
2.9641	6.8235
2.9539	6.8269
2.9439	6.8244
2.9339	6.841
2.9239	6.8305
2.9141	6.7964
2.9043	6.7666
2.8946	6.7219
2.8849	6.6565
2.8753	6.6189
2.8658	6.5478
2.8563	6.4953
2.8469	6.4697
2.8375	6.4387
2.8282	6.4521
2.819	6.4531
2.8098	6.466
2.8007	6.4482
2.7917	6.4326
2.7827	6.4128
2.7738	6.428
2.7649	6.447
2.7561	6.4814
2.7473	6.5432
2.7386	6.6015
2.7299	6.7363
2.7213	6.8862
2.7128	7.0801
2.7043	7.696
2.6959	8.3518
2.6875	8.6968
2.6791	8.844
2.6709	8.9136
2.6626	8.9436
2.6545	8.9499
2.6463	8.9568
2.6382	8.9468
2.6302	8.9284
2.6222	8.9468
2.6143	8.9324
2.6064	8.9377
2.5986	8.9494
2.5908	8.9409
2.583	8.9228
2.5753	8.9077
2.5677	8.9045
2.5601	8.8974
2.5525	8.8757
2.545	8.8879
2.5375	8.8686
2.5301	8.833
2.5227	8.8515
2.5154	8.8454
2.5081	8.842
2.5008	8.8127
2.4936	8.7986
2.4864	8.82
2.4793	8.7898
2.4722	8.7602
2.4651	8.7571
2.4581	8.7497
2.4511	8.7688
2.4442	8.7329
2.4373	8.748
2.4305	8.7334
2.4236	8.7248
2.4169	8.747
2.4101	8.7458
2.4034	8.751
2.3967	8.7182
2.3901	8.7063
2.3835	8.7112
2.377	8.686
2.3704	8.6714
2.364	8.6694
2.3575	8.6665
2.3511	8.6968
2.3447	8.6787
2.3384	8.6531
2.3321	8.6601
2.3258	8.6352
2.3195	8.6513
2.3133	8.6523
2.3071	8.6675
2.301	8.6587
2.2949	8.6496
2.2888	8.6645
2.2828	8.7046
2.2767	8.6885
2.2708	8.7043
2.2648	8.7236
2.2589	8.7112
2.253	8.7282
2.2471	8.7261
2.2413	8.7339
2.2355	8.7529
2.2297	8.718
2.224	8.6972
2.2183	8.7326
2.2126	8.7134
2.207	8.7011
2.2013	8.7007
2.1957	8.729
2.1902	8.7378
2.1846	8.7153
2.1791	8.6911
2.1736	8.7344
2.1682	8.7178
2.1628	8.7602
2.1574	8.7339
2.152	8.7136
2.1466	8.7285
2.1413	8.7446
2.136	8.7837
2.1308	8.8183
2.1255	8.8393
2.1203	8.8574
2.1151	8.853
2.11	8.8054
2.1048	8.831
2.0997	8.8491
2.0946	8.855
2.0895	8.9167
2.0845	8.9121
2.0795	8.8628
