Name: Bustamite (Mn,Ca)3Si3O9
Type: Mineral
Class: Silicate
Subclass: Inosilicate
Particle Size: Fine
Sample No.: bustamite_1
Owner: JHU
Wavelength Range: TIR
Origin: Smithsonian NMNH R3099 Sample from Franklin, New Jersey.
Description: The sample was a prismatic piece about 3 cm in length and 1-2 cm wide. It appeared pure except for a few grains of calcite that were removed. Under the petrographic microscope about 2% of grains show some light alteration.  The portion chosen for probe analysis was comprised of clean, homogeneous grains.  The sample was treated with acetic acid to remove any remaining calcite. Particle size was less than 2 Micrometers. (Chain Silicates) (Pyroxenoid Group) Original ASTER Spectral Library name was jhu.nicolet.mineral.silicate.inosilicate.powder.bustam1.spectrum.txt
Measurement: Transmission
X Units: Wavelength (micrometers)
Y Units: Transmittance (percent)
wavelength	value
25.0442	75.9764
24.3388	71.1912
23.6719	71.242
23.0407	54.1112
22.4422	46.2577
21.8741	40.1894
21.334	40.244
20.8199	43.3983
20.33	56.4334
19.8627	59.4061
19.4163	55.8251
18.9896	61.578
18.5812	72.6297
18.19	73.2166
17.815	63.119
17.4551	73.533
17.1094	81.6775
16.7772	84.5603
16.4576	85.2439
16.15	85.3445
15.8537	84.9412
15.568	80.7244
15.2925	71.4608
15.0265	82.0506
14.7697	84.0652
14.5214	78.4285
14.2814	82.4353
14.0492	87.1404
13.8244	88.0506
13.6067	88.8845
13.3957	89.4744
13.1912	89.7678
12.9929	89.9802
12.8004	89.5252
12.6135	89.1004
12.432	87.721
12.2557	84.4495
12.0843	82.1057
11.9176	78.4236
11.7555	77.0916
11.5977	73.9417
11.444	65.1644
11.2944	51.3749
11.1487	38.0121
11.0067	27.3202
10.8682	34.5839
10.7332	35.1151
10.6015	26.8578
10.473	28.9281
10.3476	36.5614
10.2251	52.0277
10.1056	54.6473
9.9887	47.8724
9.8746	39.3231
9.763	31.12
9.6539	30.9203
9.5472	32.7641
9.4429	36.9467
9.3408	35.7411
9.2409	29.5707
9.1431	30.8432
9.0474	42.5336
8.9536	57.0135
8.8618	68.0833
8.7718	75.7977
8.6837	80.618
8.5973	83.9095
8.5126	86.2117
8.4295	88.1541
8.3481	89.8723
8.2682	91.1921
8.1898	92.1604
8.1129	92.9675
8.0374	93.5283
7.9634	94.155
7.8906	94.5732
7.8192	94.9592
7.7491	95.156
7.6802	95.3506
7.6126	95.6707
7.5461	95.8848
7.4807	96.0139
7.4165	96.0749
7.3534	96.0466
7.2914	96.22
7.2303	96.1982
7.1703	96.249
7.1113	95.8633
7.0533	95.1777
6.9962	95.0303
6.94	95.3311
6.8847	95.3416
6.8302	95.4531
6.7767	95.6736
6.7239	95.8899
6.672	96.2344
6.6209	96.5154
6.5705	96.8518
6.5209	96.8115
6.4721	96.8621
6.424	96.9277
6.3766	96.5889
6.3299	96.2888
6.2838	96.0889
6.2385	95.8564
6.1937	95.3582
6.1496	94.552
6.1062	94.4287
6.0633	94.949
6.0211	96.344
5.9794	97.75
5.9383	97.8203
5.8978	97.7461
5.8578	97.8113
5.8184	98.1103
5.7794	98.0762
5.741	98.1601
5.7031	98.1326
5.6657	98.1435
5.6288	98.1521
5.5924	98.166
5.5564	98.248
5.5209	98.2744
5.4859	98.2949
5.4513	98.3262
5.4171	98.4451
5.3833	98.333
5.35	98.3904
5.3171	98.3362
5.2846	98.293
5.2524	98.2207
5.2207	98.2529
5.1893	98.363
5.1584	98.4094
5.1277	98.4568
5.0975	98.4902
5.0676	98.4919
5.038	98.5373
5.0088	98.5447
4.98	98.5735
4.9514	98.5691
4.9232	98.5998
4.8953	98.6404
4.8678	98.633
4.8405	98.6545
4.8135	98.717
4.7868	98.7742
4.7605	98.781
4.7344	98.8142
4.7086	98.7873
4.6831	98.8669
4.6578	98.8992
4.6328	98.9382
4.6081	99.0754
4.5837	98.9704
4.5595	98.9612
4.5356	98.9441
4.5119	98.9177
4.4884	98.927
4.4652	98.8987
4.4423	98.8772
4.4196	98.8845
4.3971	98.8611
4.3748	98.9358
4.3528	98.8581
4.331	98.8464
4.3094	98.8352
4.288	98.9221
4.2668	98.8894
4.2458	98.9128
4.2251	98.9285
4.2045	98.8445
4.1841	98.904
4.164	98.9138
4.144	98.8533
4.1242	98.9099
4.1046	98.9455
4.0852	98.9031
4.066	98.9021
4.047	98.8767
4.0281	98.9182
4.0094	98.906
3.9909	98.8049
3.9725	98.7937
3.9544	98.8259
3.9363	98.8518
3.9185	98.8533
3.9008	98.8103
3.8833	98.7971
3.8659	98.6765
3.8487	98.7268
3.8316	98.7205
3.8147	98.7341
3.7979	98.6404
3.7813	98.6819
3.7648	98.614
3.7485	98.5886
3.7323	98.531
3.7162	98.5159
3.7003	98.4065
3.6845	98.3874
3.6689	98.4001
3.6534	98.3669
3.638	98.3928
3.6227	98.2268
3.6076	98.1799
3.5926	98.2385
3.5777	98.1643
3.563	98.0974
3.5484	97.9617
3.5338	97.9431
3.5195	97.719
3.5052	97.4539
3.491	97.5017
3.477	97.4924
3.463	97.4612
3.4492	97.363
3.4355	97.0466
3.4219	96.6409
3.4084	96.7405
3.395	97.0076
3.3817	97.0139
3.3685	97.2986
3.3554	97.3455
3.3425	97.3162
3.3296	97.262
3.3168	97.1838
3.3041	97.2029
3.2915	97.1208
3.279	97.0056
3.2666	96.9724
3.2543	96.8518
3.2421	96.9314
3.23	96.7585
3.218	96.7615
3.206	96.6697
3.1942	96.532
3.1824	96.3874
3.1707	96.1716
3.1591	96.0291
3.1476	95.8611
3.1362	95.5662
3.1249	95.4099
3.1136	95.1218
3.1024	94.6189
3.0913	94.2283
3.0803	93.9861
3.0694	93.6921
3.0585	93.3523
3.0477	93.1931
3.037	92.8679
3.0264	92.5095
3.0158	91.9431
3.0053	91.3601
2.9949	90.7429
2.9845	89.9744
2.9743	88.9295
2.9641	88.1326
2.9539	87.2791
2.9439	86.5642
2.9339	86.0779
2.9239	85.8084
2.9141	85.7166
2.9043	85.781
2.8946	85.99
2.8849	86.3914
2.8753	86.5398
2.8658	86.9343
2.8563	87.5271
2.8469	88.0779
2.8375	88.7517
2.8282	89.4138
2.819	90.408
2.8098	91.1248
2.8007	92.0662
2.7917	92.9187
2.7827	93.9548
2.7738	95.1052
2.7649	96.0154
2.7561	97.1482
2.7473	97.9138
2.7386	98.5349
2.7299	98.864
2.7213	98.9529
2.7128	99.1677
2.7043	99.3904
2.6959	99.446
2.6875	99.699
2.6791	99.6374
2.6709	99.8718
2.6626	99.7146
2.6545	99.5281
2.6463	99.6638
2.6382	99.6326
2.6302	99.739
2.6222	99.6013
2.6143	99.7458
2.6064	99.7654
2.5986	99.6853
2.5908	99.6658
2.583	99.7322
2.5753	99.5329
2.5677	99.7322
2.5601	99.7302
2.5525	99.5408
2.545	99.6306
2.5375	99.6892
2.5301	99.6658
2.5227	99.4177
2.5154	99.4568
2.5081	99.7087
2.5008	99.6716
2.4936	99.5466
2.4864	99.488
2.4793	99.6208
2.4722	99.572
2.4651	99.656
2.4581	99.6267
2.4511	99.7673
2.4442	99.3923
2.4373	99.7224
2.4305	99.6013
2.4236	99.4333
2.4169	99.8279
2.4101	99.8122
2.4034	99.6326
2.3967	99.5251
2.3901	99.3826
2.3835	99.6111
2.377	99.6443
2.3704	99.7439
2.364	99.6345
2.3575	99.6814
2.3511	99.824
2.3447	99.8044
2.3384	99.4783
2.3321	99.6443
2.3258	99.4841
2.3195	99.9372
2.3133	99.8533
2.3071	99.6814
2.301	99.6287
2.2949	99.8454
2.2888	99.7419
2.2828	99.7966
2.2767	99.7283
2.2708	99.5779
2.2648	100.046
2.2589	99.7732
2.253	99.7341
2.2471	100.085
2.2413	99.7497
2.2355	99.9333
2.2297	100.277
2.224	99.7927
2.2183	99.8982
2.2126	100.031
2.207	100.07
2.2013	99.8357
2.1957	99.9685
2.1902	100.019
2.1846	100.113
2.1791	99.906
2.1736	100.343
2.1682	100.445
2.1628	100.191
2.1574	100.499
2.152	100.288
2.1466	100.163
2.1413	100.003
2.136	100.163
2.1308	100.515
2.1255	100.441
2.1203	100.722
2.1151	100.394
2.11	100.288
2.1048	100.476
2.0997	100.281
2.0946	100.773
2.0895	100.366
2.0845	100.781
2.0795	100.398
