Name: Analcime NaAlSi2O6.H2O
Type: Mineral
Class: Silicate
Subclass: Tectosilicate
Particle Size: Coarse
Sample No.: analcime_1
Owner: JHU
Wavelength Range: TIR
Origin: Sample from Mt. St. Hilaire, Quebec; donated by W. J. Ehmann(originally purchased from Ward's Natural Science Establishment).
Description: The sample was only available to us as a fine (<60 micrometers) powder.  It appeared to be free of contaminants in hand sample and under the microscope. Particle size was 0-60 micrometers, but packed powder simulate coarse.(Framework silicates) (Zeolite Group) Original ASTER Spectral Library name was jhu.nicolet.mineral.silicate.tectosilicate.packed.analci1.spectrum.txt
Measurement: Bidirectional reflectance
X Units: Wavelength (micrometers)
Y Units: Reflectance (percent)
wavelength	value
25.0442	7.8061
24.3388	7.9006
23.6719	8.1357
23.0407	8.9951
22.4422	10.7573
21.8741	12.3735
21.334	11.3405
20.8199	8.7468
20.33	5.9385
19.8627	4.1284
19.4163	3.2842
18.9896	3.1741
18.5812	3.1352
18.19	3.2119
17.815	3.2839
17.4551	3.3977
17.1094	3.4888
16.7772	3.5954
16.4576	3.645
16.15	3.5801
15.8537	3.5342
15.568	3.6189
15.2925	3.8039
15.0265	3.8982
14.7697	4.0652
14.5214	4.1518
14.2814	4.1528
14.0492	4.21
13.8244	4.3454
13.6067	4.3606
13.3957	4.1453
13.1912	3.7568
12.9929	3.4509
12.8004	2.6797
12.6135	3.102
12.432	3.759
12.2557	4.3183
12.0843	4.7117
11.9176	5.0437
11.7555	5.2534
11.5977	5.4148
11.444	5.564
11.2944	5.6313
11.1487	5.6689
11.0067	5.6462
10.8682	5.6057
10.7332	5.5696
10.6015	5.5317
10.473	5.5686
10.3476	5.6907
10.2251	6.1306
10.1056	6.5918
9.9887	7.1645
9.8746	7.8393
9.763	8.5493
9.6539	9.3083
9.5472	10.3156
9.4429	10.9563
9.3408	10.7085
9.2409	9.4609
9.1431	8.4949
9.0474	8.393
8.9536	8.7727
8.8618	9.3874
8.7718	9.7077
8.6837	9.7058
8.5973	9.8081
8.5126	10.1113
8.4295	9.4856
8.3481	7.9673
8.2682	5.9155
8.1898	3.5449
8.1129	1.3906
8.0374	0.4302
7.9634	0.4451
7.8906	0.6582
7.8192	0.906
7.7491	1.1855
7.6802	1.4636
7.6126	1.7471
7.5461	2.0154
7.4807	2.2681
7.4165	2.5122
7.3534	2.7234
7.2914	2.9031
7.2303	3.0674
7.1703	3.2114
7.1113	3.3455
7.0533	3.4553
6.9962	3.561
6.94	3.6523
6.8847	3.6963
6.8302	3.7087
6.7767	3.7598
6.7239	3.8535
6.672	4.0193
6.6209	4.1958
6.5705	4.3088
6.5209	4.3879
6.4721	4.3181
6.424	4.0976
6.3766	3.8843
6.3299	3.7297
6.2838	3.6079
6.2385	3.3652
6.1937	2.8188
6.1496	2.0632
6.1062	1.6116
6.0633	1.9507
6.0211	2.5583
5.9794	3.261
5.9383	3.7209
5.8978	4.0522
5.8578	4.3142
5.8184	4.4531
5.7794	4.5925
5.741	4.7134
5.7031	4.8491
5.6657	5.0183
5.6288	5.1846
5.5924	5.3469
5.5564	5.4973
5.5209	5.6806
5.4859	5.9106
5.4513	6.1409
5.4171	6.3296
5.3833	6.5093
5.35	6.6477
5.3171	6.8125
5.2846	6.9809
5.2524	7.1184
5.2207	7.2187
5.1893	7.28
5.1584	7.3542
5.1277	7.4607
5.0975	7.5774
5.0676	7.6799
5.038	7.7488
5.0088	7.7463
4.98	7.7158
4.9514	7.6472
4.9232	7.5805
4.8953	7.5842
4.8678	7.6758
4.8405	7.8191
4.8135	7.9563
4.7868	8.0432
4.7605	8.102
4.7344	8.1435
4.7086	8.2016
4.6831	8.3137
4.6578	8.4807
4.6328	8.6855
4.6081	8.9214
4.5837	9.1728
4.5595	9.4363
4.5356	9.6909
4.5119	9.9304
4.4884	10.1574
4.4652	10.3908
4.4423	10.6447
4.4196	10.9458
4.3971	11.2536
4.3748	11.5342
4.3528	11.8083
4.331	12.0508
4.3094	12.2793
4.288	12.4743
4.2668	12.6609
4.2458	12.833
4.2251	12.999
4.2045	13.1501
4.1841	13.2881
4.164	13.4091
4.144	13.5195
4.1242	13.6123
4.1046	13.7024
4.0852	13.7929
4.066	13.8757
4.047	13.9524
4.0281	14.0293
4.0094	14.0832
3.9909	14.1208
3.9725	14.1728
3.9544	14.2041
3.9363	14.2553
3.9185	14.2863
3.9008	14.3139
3.8833	14.3237
3.8659	14.323
3.8487	14.3276
3.8316	14.3142
3.8147	14.2917
3.7979	14.2754
3.7813	14.2566
3.7648	14.3039
3.7485	14.3156
3.7323	14.281
3.7162	14.2522
3.7003	14.2251
3.6845	14.1853
3.6689	14.1369
3.6534	14.0769
3.638	14.0273
3.6227	13.9538
3.6076	13.8886
3.5926	13.8203
3.5777	13.7588
3.563	13.6699
3.5484	13.5808
3.5338	13.4983
3.5195	13.3881
3.5052	13.2397
3.491	13.1638
3.477	13.0747
3.463	12.9619
3.4492	12.8298
3.4355	12.6833
3.4219	12.497
3.4084	12.3896
3.395	12.2973
3.3817	12.154
3.3685	12.0163
3.3554	11.8799
3.3425	11.7258
3.3296	11.5612
3.3168	11.385
3.3041	11.2129
3.2915	11.0205
3.279	10.8398
3.2666	10.6626
3.2543	10.4514
3.2421	10.2597
3.23	10.0359
3.218	9.8237
3.206	9.605
3.1942	9.3816
3.1824	9.1577
3.1707	8.894
3.1591	8.6245
3.1476	8.3672
3.1362	8.083
3.1249	7.7915
3.1136	7.4123
3.1024	6.9968
3.0913	6.5596
3.0803	6.187
3.0694	5.9009
3.0585	5.7202
3.0477	5.6616
3.037	5.6094
3.0264	5.5618
3.0158	5.4541
3.0053	5.324
2.9949	5.1626
2.9845	4.9853
2.9743	4.7805
2.9641	4.5828
2.9539	4.3708
2.9439	4.1453
2.9339	3.9321
2.9239	3.7112
2.9141	3.522
2.9043	3.3413
2.8946	3.1743
2.8849	3.0161
2.8753	2.9014
2.8658	2.7837
2.8563	2.6736
2.8469	2.5674
2.8375	2.4568
2.8282	2.3318
2.819	2.2078
2.8098	2.1924
2.8007	2.2637
2.7917	2.2244
2.7827	2.1106
2.7738	1.9629
2.7649	1.8533
2.7561	1.9419
2.7473	2.3176
2.7386	3.1912
2.7299	4.0571
2.7213	4.6567
2.7128	5.2746
2.7043	5.9665
2.6959	6.6484
2.6875	7.2309
2.6791	7.6675
2.6709	8.0119
2.6626	8.3955
2.6545	8.7395
2.6463	9.0407
2.6382	9.2903
2.6302	9.4084
2.6222	9.5766
2.6143	9.6247
2.6064	9.6015
2.5986	9.5615
2.5908	9.4348
2.583	9.2295
2.5753	8.9978
2.5677	8.7007
2.5601	8.3694
2.5525	8.0906
2.545	7.9089
2.5375	7.8496
2.5301	7.9411
2.5227	8.0356
2.5154	8.1836
2.5081	8.2937
2.5008	8.355
2.4936	8.4678
2.4864	8.6438
2.4793	8.8745
2.4722	9.1799
2.4651	9.539
2.4581	9.9487
2.4511	10.3808
2.4442	10.8779
2.4373	11.393
2.4305	11.9541
2.4236	12.4807
2.4169	12.9707
2.4101	13.3894
2.4034	13.6609
2.3967	13.9289
2.3901	14.1709
2.3835	14.3794
2.377	14.5498
2.3704	14.7011
2.364	14.8464
2.3575	14.9736
2.3511	15.0586
2.3447	15.1733
2.3384	15.2314
2.3321	15.2878
2.3258	15.3642
2.3195	15.4702
2.3133	15.5327
2.3071	15.5842
2.301	15.6245
2.2949	15.7192
2.2888	15.7751
2.2828	15.8134
2.2767	15.8979
2.2708	15.9497
2.2648	16.0297
2.2589	16.0493
2.253	16.0871
2.2471	16.0986
2.2413	16.1023
2.2355	16.1923
2.2297	16.1767
2.224	16.2075
2.2183	16.25
2.2126	16.2216
2.207	16.2631
2.2013	16.2915
2.1957	16.2675
2.1902	16.3232
2.1846	16.3024
2.1791	16.278
2.1736	16.2463
2.1682	16.2819
2.1628	16.2937
2.1574	16.2011
2.152	16.1301
2.1466	16.1189
2.1413	16.1289
2.136	16.1474
2.1308	16.1367
2.1255	16.2094
2.1203	16.2558
2.1151	16.309
2.11	16.4038
2.1048	16.457
2.0997	16.4973
2.0946	16.5805
2.0895	16.6279
2.0845	16.6533
2.0795	16.5969
