Name: Alunite (potassium alunite) KAl3(SO4)2(OH)6
Type: Mineral
Class: Sulfate
Subclass: None
Particle Size: Fine
Sample No.: alunite_2
Owner: JHU
Wavelength Range: TIR
Origin: Utah; Hunt and Salisbury Collection  sample #295 B(purchased from Ward's Natural Science Establishment).
Description: The sample is slightly pink in color, and appears pure under the microscope. Particle size was less than 2 Micrometers. Original ASTER Spectral Library name was jhu.nicolet.mineral.sulfate.none.powder.alunit2.spectrum.txt
Measurement: Transmission
X Units: Wavelength (micrometers)
Y Units: Transmittance (percent)
wavelength	value
25.0442	69.4451
24.3388	65.0467
23.6719	57.8397
23.0407	55.3592
22.4422	62.7909
21.8741	66.7518
21.334	66.8514
20.8199	65.91
20.33	64.3534
19.8627	63.118
19.4163	60.3758
18.9896	53.7518
18.5812	61.5155
18.19	60.1883
17.815	55.2508
17.4551	49.8524
17.1094	40.7626
16.7772	26.9062
16.4576	37.6308
16.15	35.5907
15.8537	32.3984
15.568	41.4745
15.2925	57.5877
15.0265	43.2909
14.7697	35.4648
14.5214	37.0556
14.2814	42.9315
14.0492	51.3299
13.8244	61.6331
13.6067	67.783
13.3957	72.2537
13.1912	75.7361
12.9929	78.5389
12.8004	80.6741
12.6135	82.9241
12.432	84.3172
12.2557	85.51
12.0843	86.3284
11.9176	86.7327
11.7555	86.8455
11.5977	86.2444
11.444	85.8655
11.2944	85.2053
11.1487	84.0823
11.0067	82.0974
10.8682	80.2342
10.7332	77.8772
10.6015	74.2435
10.473	69.8592
10.3476	65.0487
10.2251	60.0951
10.1056	56.2191
9.9887	53.4813
9.8746	50.3387
9.763	40.4364
9.6539	48.4515
9.5472	44.3646
9.4429	36.9667
9.3408	25.8486
9.2409	17.7959
9.1431	24.6201
9.0474	31.9706
8.9536	38.9745
8.8618	45.4867
8.7718	50.6317
8.6837	54.1039
8.5973	53.4999
8.5126	57.6229
8.4295	58.1729
8.3481	57.704
8.2682	55.3116
8.1898	52.8038
8.1129	52.6561
8.0374	54.1205
7.9634	58.1583
7.8906	64.3905
7.8192	69.3875
7.7491	72.8301
7.6802	75.0462
7.6126	76.7315
7.5461	78.1661
7.4807	79.2969
7.4165	80.3096
7.3534	81.1892
7.2914	81.8474
7.2303	82.1516
7.1703	83.1934
7.1113	83.6687
7.0533	83.6961
6.9962	84.0642
6.94	84.6287
6.8847	85.251
6.8302	85.5623
6.7767	85.8819
6.7239	86.1873
6.672	86.7598
6.6209	87.1551
6.5705	87.6768
6.5209	88.0459
6.4721	88.5369
6.424	89.0061
6.3766	89.1922
6.3299	89.3623
6.2838	89.5303
6.2385	89.6377
6.1937	89.4656
6.1496	88.8819
6.1062	88.6624
6.0633	89.0479
6.0211	89.9846
5.9794	91.0947
5.9383	91.1707
5.8978	91.3298
5.8578	91.9363
5.8184	92.5925
5.7794	92.9793
5.741	93.3857
5.7031	93.6543
5.6657	93.8767
5.6288	94.0723
5.5924	94.2656
5.5564	94.3965
5.5209	94.584
5.4859	94.7683
5.4513	95.0408
5.4171	95.3408
5.3833	95.3611
5.35	95.5359
5.3171	95.7039
5.2846	95.7725
5.2524	95.9382
5.2207	96.0947
5.1893	96.2031
5.1584	96.3047
5.1277	96.4197
5.0975	96.498
5.0676	96.5518
5.038	96.6843
5.0088	96.7659
4.98	96.8728
4.9514	96.9109
4.9232	96.9416
4.8953	96.9089
4.8678	96.8689
4.8405	96.7527
4.8135	96.9382
4.7868	96.8069
4.7605	95.8611
4.7344	94.3787
4.7086	94.3982
4.6831	94.74
4.6578	95.0046
4.6328	94.3455
4.6081	93.696
4.5837	93.1189
4.5595	93.8669
4.5356	94.0584
4.5119	94.074
4.4884	94.0808
4.4652	94.5007
4.4423	94.6213
4.4196	94.8596
4.3971	94.9573
4.3748	94.7312
4.3528	94.7468
4.331	95.1687
4.3094	95.7068
4.288	95.9924
4.2668	96.0144
4.2458	96.2151
4.2251	96.3752
4.2045	96.4768
4.1841	96.5124
4.164	96.5115
4.144	96.4968
4.1242	96.5115
4.1046	96.573
4.0852	96.6218
4.066	96.6404
4.047	96.6501
4.0281	96.6384
4.0094	96.6858
3.9909	96.635
3.9725	96.5745
3.9544	96.6931
3.9363	96.6448
3.9185	96.6956
3.9008	96.6624
3.8833	96.5554
3.8659	96.4148
3.8487	96.5544
3.8316	96.5212
3.8147	96.4109
3.7979	96.3538
3.7813	96.283
3.7648	96.1589
3.7485	96.0041
3.7323	95.9841
3.7162	95.8083
3.7003	95.5666
3.6845	95.4802
3.6689	95.282
3.6534	95.1877
3.638	95.0334
3.6227	94.8108
3.6076	94.6277
3.5926	94.3909
3.5777	94.2483
3.563	94.0408
3.5484	93.8225
3.5338	93.5139
3.5195	93.2888
3.5052	92.9802
3.491	92.7224
3.477	92.4861
3.463	92.2952
3.4492	92.0725
3.4355	91.7639
3.4219	91.3342
3.4084	91.0857
3.395	90.9666
3.3817	90.7893
3.3685	90.7537
3.3554	90.344
3.3425	90.157
3.3296	89.8928
3.3168	89.6331
3.3041	89.5134
3.2915	89.2595
3.279	88.9656
3.2666	88.7556
3.2543	88.5159
3.2421	88.3772
3.23	88.1638
3.218	87.9885
3.206	87.7171
3.1942	87.5193
3.1824	87.2361
3.1707	86.9314
3.1591	86.5808
3.1476	86.3064
3.1362	85.8201
3.1249	85.575
3.1136	85.3494
3.1024	84.7703
3.0913	83.9812
3.0803	83.6883
3.0694	83.3221
3.0585	82.9002
3.0477	82.7049
3.037	82.1736
3.0264	81.5349
3.0158	80.6463
3.0053	80.0017
2.9949	78.8865
2.9845	77.365
2.9743	75.8338
2.9641	74.4139
2.9539	72.6619
2.9439	71.0193
2.9339	69.743
2.9239	67.6922
2.9141	64.2342
2.9043	61.3202
2.8946	54.9003
2.8849	45.8876
2.8753	31.9491
2.8658	26.6386
2.8563	39.5722
2.8469	37.4823
2.8375	48.8837
2.8282	59.7831
2.819	65.9539
2.8098	70.0135
2.8007	72.9422
2.7917	75.3865
2.7827	77.6678
2.7738	79.3211
2.7649	81.3172
2.7561	83.1619
2.7473	84.1804
2.7386	84.9998
2.7299	85.1482
2.7213	84.3562
2.7128	85.6804
2.7043	88.2429
2.6959	90.4695
2.6875	91.5046
2.6791	92.0046
2.6709	92.4841
2.6626	92.5945
2.6545	92.7898
2.6463	92.8679
2.6382	93.1414
2.6302	93.2625
2.6222	93.1189
2.6143	93.2898
2.6064	93.4929
2.5986	93.3357
2.5908	93.2576
2.583	93.5632
2.5753	93.406
2.5677	93.2322
2.5601	93.4236
2.5525	93.4431
2.545	93.2361
2.5375	93.4216
2.5301	93.1502
2.5227	92.9314
2.5154	92.7322
2.5081	92.6189
2.5008	93.0662
2.4936	93.0115
2.4864	93.1853
2.4793	93.1951
2.4722	92.988
2.4651	92.8962
2.4581	93.0447
2.4511	92.9568
2.4442	92.9294
2.4373	92.9138
2.4305	92.8142
2.4236	92.8084
2.4169	93.0154
2.4101	93.0584
2.4034	92.906
2.3967	92.863
2.3901	92.9529
2.3835	93.1052
2.377	92.8787
2.3704	92.9607
2.364	92.9861
2.3575	92.9314
2.3511	92.7498
2.3447	92.9548
2.3384	92.5974
2.3321	92.5408
2.3258	92.4627
2.3195	92.6345
2.3133	92.6326
2.3071	92.5095
2.301	92.6423
2.2949	92.7986
2.2888	92.6873
2.2828	92.9841
2.2767	92.6658
2.2708	92.6658
2.2648	92.7127
2.2589	92.8591
2.253	93.156
2.2471	92.6482
2.2413	92.4998
2.2355	92.7263
2.2297	92.7732
2.224	92.2341
2.2183	92.9216
2.2126	92.8669
2.207	92.3298
2.2013	92.3826
2.1957	92.7517
2.1902	92.4373
2.1846	92.781
2.1791	92.0466
2.1736	92.6951
2.1682	92.5818
2.1628	92.5545
2.1574	92.2263
2.152	92.656
2.1466	92.7029
2.1413	92.488
2.136	92.8318
2.1308	93.3435
2.1255	92.906
2.1203	92.8357
2.1151	92.9373
2.11	93.3318
2.1048	92.9998
2.0997	93.4685
2.0946	93.7263
2.0895	93.4021
2.0845	93.6638
2.0795	93.5037
