Name: Triphylite Li(Mn,Fe)PO_4
Type: Mineral
Class: Phosphate
Subclass: None
Particle Size: Medium
Sample No.: P-4A
Owner: JPL
Wavelength Range: TIR
Origin: USA, New Hampshire, North Graton, Palermo Mine
Description: Particle size was 45-125um.Collected by Burminco Original ASTER Spectral Library name was jpl.nicolet.mineral.phosphate.none.medium.p04a.spectrum.txt
Measurement: Hemispherical reflectance
X Units: Wavelength (micrometers)
Y Units: Reflectance (percent)
wavelength	value
15.3853	12.6161
15.1161	1.8685
14.8563	1.3608
14.6052	1.9501
14.3624	2.8376
14.1276	3.5827
13.9004	4.1393
13.6803	4.4415
13.4671	4.7642
13.2604	5.367
13.06	5.5017
12.8656	5.7568
12.6769	5.9809
12.4936	5.9119
12.3155	6.5705
12.1425	6.4026
11.9742	6.6159
11.8106	6.765
11.6513	6.8265
11.4963	6.9963
11.3454	7.1304
11.1983	7.4084
11.0551	8.0978
10.9154	8.8031
10.7793	10.8826
10.6465	13.3135
10.5169	13.8393
10.3904	16.0045
10.267	17.0233
10.1464	17.5515
10.0287	19.9311
9.9136	21.9385
9.8012	23.8074
9.6913	27.8584
9.5838	31.4729
9.4787	33.0028
9.3758	29.9986
9.2752	24.7529
9.1767	12.2348
9.0803	22.584
8.9858	21.4811
8.8934	14.5529
8.8028	15.5799
8.714	13.1613
8.627	13.0955
8.5417	8.0265
8.4581	2.184
8.3761	0.7325
8.2957	0.5393
8.2169	0.4554
8.1395	0.667
8.0635	0.8102
7.989	1.0514
7.9158	1.3761
7.8439	1.5961
7.7734	2.1186
7.7041	2.3135
7.636	2.8941
7.5691	3.2433
7.5034	3.5106
7.4388	3.7231
7.3753	4.1681
7.3129	4.0081
7.2515	4.1648
7.1912	4.2327
7.1318	4.2343
7.0734	4.2615
7.016	4.2242
6.9595	4.5229
6.9039	4.4428
6.8492	4.6076
6.7953	4.7311
6.7423	4.4901
6.6901	4.548
6.6387	4.738
6.5881	4.4701
6.5382	4.3574
6.4892	4.8405
6.4408	4.9694
6.3931	4.8574
6.3462	4.9185
6.2999	4.6854
6.2543	4.6047
6.2094	4.6679
6.1651	4.6074
6.1214	4.6007
6.0784	4.7647
6.0359	4.5971
5.994	4.5835
5.9527	4.5638
5.912	4.5797
5.8718	4.6897
5.8322	4.7647
5.7931	4.5153
5.7545	4.6071
5.7165	4.7984
5.6789	4.7342
5.6418	4.9325
5.6052	4.7109
5.5691	4.9267
5.5334	4.736
5.4982	4.761
5.4635	4.9401
5.4291	4.8938
5.3952	4.8208
5.3618	4.7481
5.3287	4.4688
5.2961	3.9566
5.2638	4.1329
5.2319	4.0047
5.2004	3.7779
5.1693	3.5718
5.1386	3.8116
5.1082	3.9238
5.0782	3.7918
5.0485	3.9523
5.0192	4.1768
4.9902	4.2446
4.9616	4.2547
4.9332	4.3673
4.9052	4.3581
4.8776	4.3046
4.8502	4.7224
4.8231	4.7823
4.7963	4.8114
4.7699	5.383
4.7437	5.9118
4.7178	6.2697
4.6922	6.0189
4.6668	5.9984
4.6418	6.1766
4.617	6.6734
4.5924	7.0612
4.5681	7.4637
4.5441	7.6302
4.5203	7.6923
4.4968	7.7128
4.4735	7.8139
4.4505	8.3865
4.4277	9.4301
4.4051	10.2866
4.3828	10.7286
4.3607	11.146
4.3388	11.4302
4.3171	11.7056
4.2956	11.6408
4.2744	11.5333
4.2534	12.2426
4.2325	12.6659
4.2119	13.5896
4.1915	14.1037
4.1712	14.6581
4.1512	14.9768
4.1313	15.3701
4.1117	15.8476
4.0922	16.2013
4.0729	16.5682
4.0538	16.9699
4.0349	17.3714
4.0161	17.7269
3.9976	18.3098
3.9792	18.6087
3.9609	19.1152
3.9428	19.6799
3.9249	20.0332
3.9072	20.4513
3.8896	21.1465
3.8722	21.5644
3.8549	21.8741
3.8378	22.4591
3.8208	22.9709
3.804	23.3687
3.7873	23.8721
3.7708	24.3668
3.7544	24.9376
3.7382	25.2202
3.7221	25.7649
3.7061	26.308
3.6903	26.891
3.6746	27.3824
3.659	27.8573
3.6436	28.3454
3.6283	28.7931
3.6131	29.1885
3.5981	29.7888
3.5832	30.1443
3.5684	30.549
3.5537	30.7226
3.5391	30.9424
3.5247	31.3659
3.5104	31.8106
3.4962	32.0751
3.4821	32.5668
3.4681	33.0113
3.4543	33.4552
3.4405	33.8561
3.4269	34.1564
3.4133	34.6198
3.3999	34.8596
3.3866	35.0196
3.3733	35.4543
3.3602	35.5618
3.3472	35.6867
3.3343	36.052
3.3215	36.2165
3.3088	36.2762
3.2961	36.4532
3.2836	36.4386
3.2712	36.5079
3.2588	36.2771
3.2466	36.2479
3.2345	36.1928
3.2224	35.9423
3.2104	35.6093
3.1985	35.2206
3.1867	34.9432
3.175	34.5381
3.1634	34.2739
3.1519	33.8413
3.1404	33.4931
3.129	33.2069
3.1178	32.6903
3.1065	32.511
3.0954	32.1511
3.0844	31.8724
3.0734	31.857
3.0625	31.451
3.0517	31.3013
3.041	31.3149
3.0303	31.2118
3.0197	31.0923
3.0092	31.1265
2.9987	30.9657
2.9884	30.8813
2.9781	30.7629
2.9678	30.8115
2.9577	30.7616
2.9476	30.6163
2.9376	30.9184
2.9276	31.1183
2.9177	31.3246
2.9079	31.9642
2.8982	32.3481
2.8885	33.1409
2.8789	33.6548
2.8693	34.2683
2.8598	35.0714
2.8504	35.9046
2.841	36.9776
2.8317	37.6992
2.8224	39.0965
2.8133	40.2236
2.8041	42.1318
2.7951	42.9587
2.786	45.4077
2.7771	46.746
2.7682	48.8054
2.7594	50.0374
2.7506	52.1123
2.7418	55.5716
2.7332	57.3815
2.7246	62.5005
2.716	63.466
2.7075	66.0377
2.699	67.4241
2.6906	69.1757
2.6823	70.5769
2.674	71.8325
2.6657	75.1578
2.6575	72.5966
2.6494	72.8745
2.6413	73.5875
2.6332	74.3753
2.6252	74.877
2.6173	76.6311
2.6094	75.7959
2.6015	75.7729
2.5937	78.441
2.5859	76.4588
2.5782	76.5033
2.5706	76.8494
2.5629	77.8273
2.5554	76.5235
2.5478	76.9906
2.5403	76.7509
2.5329	77.1759
2.5255	77.1845
2.5181	77.4025
2.5108	77.5418
2.5035	77.7855
2.4963	77.9798
2.4891	78.1486
2.482	78.5166
2.4749	78.6598
2.4678	78.8406
2.4608	78.8459
2.4538	79.2202
2.4468	79.391
2.4399	79.5823
2.4331	79.7073
2.4262	79.9153
2.4194	80.0626
2.4127	80.1592
2.4059	80.201
2.3993	80.4884
2.3926	80.4751
2.386	80.7282
2.3795	80.7179
2.3729	80.9172
2.3664	80.9914
2.36	81.1025
2.3535	81.1048
2.3471	81.398
2.3408	81.3185
2.3345	81.2191
2.3282	81.4152
2.3219	81.6255
2.3157	81.5292
2.3095	81.6224
2.3034	81.7566
2.2972	81.7946
2.2911	81.682
2.2851	81.6768
2.279	81.6948
2.2731	81.5888
2.2671	81.5698
2.2612	81.8601
2.2553	81.6221
2.2494	81.6244
2.2435	81.5421
2.2377	81.5713
2.232	81.4081
2.2262	81.4191
2.2205	81.3702
2.2148	81.373
2.2091	81.3381
2.2035	81.2451
2.1979	81.1808
2.1923	81.0002
2.1868	81.0032
2.1812	80.8626
2.1758	80.7868
2.1703	80.4837
2.1649	80.6728
2.1595	80.3228
2.1541	80.3451
2.1487	80.0127
2.1434	80.0035
2.1381	79.8235
2.1328	79.5821
2.1275	79.3991
2.1223	79.0101
2.1171	79.0563
2.112	78.6902
2.1068	78.6512
2.1017	78.3567
2.0966	78.2799
2.0915	78.173
2.0865	77.2435
2.0814	77.6415
2.0764	76.5778
2.0715	76.9174
2.0665	76.5461
2.0616	76.2946
2.0567	75.8163
2.0518	75.7813
2.0469	75.313
2.0421	75.1572
2.0373	74.8618
2.0325	74.319
2.0277	73.6938
2.0229	73.3941
2.0182	73.1628
2.0135	72.7391
2.0088	72.3567
2.0042	71.9681
