Name: Pyrite FeS_2
Type: Mineral
Class: Sulfide
Subclass: None
Particle Size: Fine
Sample No.: S-2A
Owner: JPL
Wavelength Range: VSWIR
Origin: Italy, Tuscany, Elba, Rio Marina Isle.
Description: Particle size was 0-45um.Collected by:  Ward's Original ASTER Spectral Library name was jpl.perkin.mineral.sulfide.none.fine.s02a.spectrum.txt
Measurement: Hemispherical reflectance
X Units: Wavelength (micrometers)
Y Units: Reflectance (percent)
wavelength	value
2.5	6.7198
2.494	6.5343
2.488	6.6063
2.482	6.5866
2.476	6.6919
2.47	6.6622
2.464	6.7629
2.458	6.7169
2.452	6.7962
2.446	6.9239
2.44	6.83
2.434	7.0242
2.428	6.972
2.422	7.0007
2.416	7.1457
2.41	7.1584
2.404	7.198
2.398	7.2821
2.392	7.2974
2.386	7.4059
2.38	7.4964
2.374	7.5173
2.368	7.6865
2.362	7.6747
2.356	7.8239
2.35	7.8269
2.344	7.8787
2.338	7.8909
2.332	7.9111
2.326	8.0136
2.32	8.041
2.314	8.0119
2.308	8.0654
2.302	8.0508
2.296	8.0301
2.29	8.0485
2.284	8.107
2.278	8.0689
2.272	8.0548
2.266	8.0312
2.26	8.1214
2.254	7.962
2.248	8.0024
2.242	7.9244
2.236	7.9877
2.23	7.9456
2.224	7.9909
2.218	7.9237
2.212	7.9311
2.206	7.9334
2.2	7.933
2.194	7.9142
2.188	7.9147
2.182	7.8019
2.176	7.8704
2.17	7.8874
2.164	7.8568
2.158	7.8631
2.152	7.8639
2.146	7.8506
2.14	7.8254
2.134	7.8201
2.128	7.7411
2.122	7.653
2.116	7.6749
2.11	7.5302
2.104	7.5059
2.098	7.4872
2.092	7.5048
2.086	7.4442
2.08	7.4337
2.074	7.3886
2.068	7.3247
2.062	7.3697
2.056	7.3566
2.05	7.3537
2.044	7.3279
2.038	7.2237
2.032	7.2327
2.026	7.1853
2.02	7.1348
2.014	7.0645
2.008	7.1479
2.002	7.0867
1.996	7.1923
1.99	7.2281
1.984	7.2881
1.978	7.201
1.972	7.3037
1.966	7.2867
1.96	7.3502
1.954	7.28
1.948	7.2892
1.942	7.3413
1.936	7.3128
1.93	7.4506
1.924	7.5825
1.918	7.7548
1.912	7.8805
1.906	8.1328
1.9	8.2868
1.894	8.4396
1.888	8.4482
1.882	8.6007
1.876	8.6349
1.87	8.6217
1.864	8.7742
1.858	8.8443
1.852	8.8686
1.846	8.8225
1.84	8.8951
1.834	8.9378
1.828	8.9615
1.822	8.9823
1.816	9.0311
1.81	9.0169
1.804	9.0893
1.798	9.1119
1.792	9.1983
1.786	9.2013
1.78	9.1812
1.774	9.2548
1.768	9.2549
1.762	9.3003
1.756	9.422
1.75	9.3819
1.744	9.4768
1.738	9.5309
1.732	9.5872
1.726	9.6149
1.72	9.6189
1.714	9.68
1.708	9.7206
1.702	9.7969
1.696	9.7619
1.69	9.8707
1.684	9.908
1.678	9.9372
1.672	10.0097
1.666	10.004
1.66	9.9803
1.654	10.1389
1.648	10.2258
1.642	10.2949
1.636	10.2092
1.63	10.2383
1.624	10.2686
1.618	10.2465
1.612	10.3244
1.606	10.2984
1.6	10.3363
1.594	10.406
1.588	10.4128
1.582	10.4806
1.576	10.4096
1.57	10.4555
1.564	10.4676
1.558	10.4826
1.552	10.4559
1.546	10.4575
1.54	10.4301
1.534	10.4879
1.528	10.4803
1.522	10.4232
1.516	10.4539
1.51	10.4309
1.504	10.3703
1.498	10.4249
1.492	10.353
1.486	10.3096
1.48	10.2464
1.474	10.1526
1.468	10.1196
1.462	10.1172
1.456	10.0667
1.45	9.9217
1.444	9.8687
1.438	9.7984
1.432	9.813
1.426	9.6847
1.42	9.6304
1.414	9.5104
1.408	9.5943
1.402	9.4519
1.396	9.5104
1.39	9.4227
1.384	9.284
1.378	9.1572
1.372	9.123
1.366	9.0524
1.36	8.9419
1.354	8.9058
1.348	8.8787
1.342	8.8471
1.336	8.7257
1.33	8.6543
1.324	8.6242
1.318	8.5469
1.312	8.4811
1.306	8.5805
1.3	8.4145
1.294	8.387
1.288	8.4794
1.282	8.3598
1.276	8.2299
1.27	8.1932
1.264	8.1696
1.258	8.1756
1.252	8.1363
1.246	8.0312
1.24	8.1256
1.234	8.0656
1.228	8.0321
1.222	8.0182
1.216	7.9843
1.21	7.9835
1.204	7.9488
1.198	7.935
1.192	7.917
1.186	7.9244
1.18	7.8778
1.174	7.8715
1.168	7.9233
1.162	7.9073
1.156	7.8484
1.15	7.8349
1.144	7.8346
1.138	7.8075
1.132	7.8326
1.126	7.8294
1.12	7.8629
1.114	7.8629
1.108	7.8049
1.102	7.8928
1.096	7.8647
1.09	7.8683
1.084	7.9041
1.078	7.8693
1.072	7.8784
1.066	7.8965
1.06	7.9279
1.054	7.9063
1.048	7.8782
1.042	7.8918
1.036	7.924
1.03	7.9496
1.024	7.8696
1.018	7.9706
1.012	7.9715
1.006	7.9959
1	8.0133
0.994	8.0245
0.988	8.0488
0.982	8.0472
0.976	8.0767
0.97	8.1292
0.964	8.0833
0.958	8.1097
0.952	8.13
0.946	8.2361
0.94	8.2391
0.934	8.1931
0.928	8.2518
0.922	8.259
0.916	8.3474
0.91	8.3512
0.904	8.3795
0.898	8.3695
0.892	8.4529
0.886	8.4868
0.88	8.4957
0.874	8.6388
0.868	8.615
0.862	8.68
0.856	8.9821
0.85	9.0535
0.844	9.1093
0.838	9.1616
0.832	9.2059
0.826	9.259
0.82	9.3087
0.814	9.3609
0.808	9.4004
0.802	9.4502
0.796	9.4988
0.79	9.54
0.784	9.5923
0.778	9.6336
0.772	9.6596
0.766	9.6962
0.76	9.7499
0.754	9.7833
0.748	9.818
0.742	9.866
0.736	9.8976
0.73	9.9407
0.724	9.9721
0.718	9.9899
0.712	10.0112
0.706	10.0138
0.7	10.0125
0.694	10.0109
0.688	9.9948
0.682	9.9733
0.676	9.953
0.67	9.9283
0.664	9.8929
0.658	9.855
0.652	9.8186
0.646	9.7816
0.64	9.7489
0.634	9.7174
0.628	9.6936
0.622	9.6704
0.616	9.6511
0.61	9.6353
0.604	9.6173
0.598	9.6044
0.592	9.5904
0.586	9.5578
0.58	9.5251
0.574	9.4819
0.568	9.4346
0.562	9.3865
0.556	9.3188
0.55	9.2617
0.544	9.2008
0.538	9.1412
0.532	9.0849
0.526	9.0321
0.52	8.9771
0.514	8.9166
0.508	8.8467
0.502	8.7662
0.496	8.6819
0.49	8.568
0.484	8.438
0.478	8.317
0.472	8.1963
0.466	8.065
0.46	7.9403
0.454	7.8132
0.448	7.6844
0.442	7.5512
0.436	7.3877
0.43	7.096
0.424	6.8712
0.418	6.6918
0.412	6.4939
0.406	6.1971
0.4	5.7499
