Name: Microcline KAlSi3O8
Type: Mineral
Class: Silicate
Subclass: Tectosilicate
Particle Size: Solid
Sample No.: micro_1
Owner: JHU
Wavelength Range: TIR
Origin: Park County, Colorado via the Smithsonian (sample no. NMNH135231)
Description: Sample was a 19.5 g fragment, light green in color. A slight amount of surface contamination was removed by brushing and ultrasonic cleaning. White material filled one thin (0.5 mm) vein cutting across one corner and was removed by hand-picking the crushed sample. Sample was not obviously perthitic.  Under the microscope it appeared pure, displaying little perthite or alteration. (Framework Silicates); (Feldspar Group) Original ASTER Spectral Library name was jhu.nicolet.mineral.silicate.tectosilicate.solid.micro1.spectrum.txt
Measurement: Bidirectional reflectance
X Units: Wavelength (micrometers)
Y Units: Reflectance (percent)
wavelength	value
25.0442	17.9082
24.3388	21.3007
23.6719	29.8788
23.0407	31.3886
22.4422	32.3422
21.8741	26.2133
21.334	15.8886
20.8199	11.6889
20.33	9.2661
19.8627	10.5588
19.4163	11.5403
18.9896	13.063
18.5812	16.4399
18.19	13.0246
17.815	13.8203
17.4551	15.5539
17.1094	18.9729
16.7772	21.7197
16.4576	21.9511
16.15	15.2805
15.8537	8.9324
15.568	9.8398
15.2925	11.0429
15.0265	7.7785
14.7697	8.5737
14.5214	9.2268
14.2814	9.9499
14.0492	10.594
13.8244	11.2007
13.6067	10.1269
13.3957	9.7451
13.1912	10.5825
12.9929	12.4614
12.8004	9.2939
12.6135	8.5615
12.432	9.0371
12.2557	9.7539
12.0843	10.3154
11.9176	10.6777
11.7555	11.0009
11.5977	11.2309
11.444	11.5073
11.2944	11.7229
11.1487	12.0446
11.0067	12.4592
10.8682	12.8737
10.7332	13.4641
10.6015	14.2165
10.473	15.269
10.3476	16.8498
10.2251	19.2583
10.1056	24.0119
9.9887	29.0556
9.8746	32.5453
9.763	31.8901
9.6539	28.4867
9.5472	28.3747
9.4429	31.2528
9.3408	25.6567
9.2409	26.6015
9.1431	27.725
9.0474	25.8068
8.9536	27.5532
8.8618	31.446
8.7718	32.2841
8.6837	32.8871
8.5973	32.9093
8.5126	33.216
8.4295	33.456
8.3481	31.9496
8.2682	27.7507
8.1898	22.4084
8.1129	17.4843
8.0374	12.2915
7.9634	7.2805
7.8906	3.5195
7.8192	2.0251
7.7491	2.042
7.6802	2.4141
7.6126	2.7864
7.5461	3.1274
7.4807	3.4267
7.4165	3.708
7.3534	3.9485
7.2914	4.165
7.2303	4.3999
7.1703	4.6291
7.1113	4.8618
7.0533	5.04
6.9962	5.1841
6.94	5.2859
6.8847	5.3835
6.8302	5.4455
6.7767	5.5154
6.7239	5.6433
6.672	5.7685
6.6209	5.8852
6.5705	5.9702
6.5209	6.042
6.4721	6.072
6.424	6.0696
6.3766	6.1147
6.3299	6.1123
6.2838	6.1074
6.2385	6.1347
6.1937	6.1885
6.1496	6.269
6.1062	6.3213
6.0633	6.4263
6.0211	6.5058
5.9794	6.5173
5.9383	6.4077
5.8978	6.353
5.8578	6.3525
5.8184	6.2903
5.7794	6.2986
5.741	6.3308
5.7031	6.3493
5.6657	6.2991
5.6288	6.322
5.5924	6.5044
5.5564	6.5566
5.5209	6.7707
5.4859	7.0725
5.4513	7.1677
5.4171	7.1921
5.3833	7.1907
5.35	7.1772
5.3171	7.2976
5.2846	7.3869
5.2524	7.4375
5.2207	7.5466
5.1893	7.8691
5.1584	8.1921
5.1277	8.5405
5.0975	8.9404
5.0676	9.1394
5.038	9.1721
5.0088	9.5019
4.98	9.6169
4.9514	9.4577
4.9232	9.4319
4.8953	9.626
4.8678	9.8159
4.8405	9.8489
4.8135	9.8203
4.7868	9.7907
4.7605	9.7881
4.7344	9.7778
4.7086	9.6274
4.6831	9.5632
4.6578	9.5632
4.6328	9.6377
4.6081	9.761
4.5837	9.8552
4.5595	10.0151
4.5356	10.2346
4.5119	10.4409
4.4884	10.6252
4.4652	10.8091
4.4423	10.948
4.4196	11.0722
4.3971	11.1828
4.3748	11.3069
4.3528	11.4223
4.331	11.5317
4.3094	11.6064
4.288	11.6494
4.2668	11.5078
4.2458	11.8398
4.2251	11.9448
4.2045	12.071
4.1841	12.1469
4.164	12.1821
4.144	12.219
4.1242	12.229
4.1046	12.2509
4.0852	12.2695
4.066	12.2793
4.047	12.289
4.0281	12.2968
4.0094	12.3025
3.9909	12.302
3.9725	12.2961
3.9544	12.3061
3.9363	12.3144
3.9185	12.3264
3.9008	12.3454
3.8833	12.3193
3.8659	12.3327
3.8487	12.3586
3.8316	12.3772
3.8147	12.3762
3.7979	12.3852
3.7813	12.3694
3.7648	12.3823
3.7485	12.3818
3.7323	12.3828
3.7162	12.3686
3.7003	12.3486
3.6845	12.3225
3.6689	12.3195
3.6534	12.3225
3.638	12.2966
3.6227	12.2802
3.6076	12.2397
3.5926	12.2192
3.5777	12.1972
3.563	12.1548
3.5484	12.1162
3.5338	12.0844
3.5195	12.0388
3.5052	11.9697
3.491	11.9277
3.477	11.8911
3.463	11.8579
3.4492	11.7758
3.4355	11.729
3.4219	11.6372
3.4084	11.5757
3.395	11.5429
3.3817	11.4594
3.3685	11.4082
3.3554	11.3462
3.3425	11.2636
3.3296	11.1914
3.3168	11.1084
3.3041	11.0439
3.2915	10.9707
3.279	10.8916
3.2666	10.7947
3.2543	10.7192
3.2421	10.6306
3.23	10.5542
3.218	10.4704
3.206	10.3869
3.1942	10.3017
3.1824	10.2138
3.1707	10.1487
3.1591	10.0652
3.1476	9.9785
3.1362	9.9157
3.1249	9.8398
3.1136	9.7654
3.1024	9.6933
3.0913	9.6623
3.0803	9.5962
3.0694	9.5595
3.0585	9.5049
3.0477	9.4731
3.037	9.4336
3.0264	9.3996
3.0158	9.3452
3.0053	9.3108
2.9949	9.2551
2.9845	9.2219
2.9743	9.186
2.9641	9.1465
2.9539	9.1113
2.9439	9.0928
2.9339	9.0725
2.9239	9.0654
2.9141	9.0696
2.9043	9.091
2.8946	9.1125
2.8849	9.1184
2.8753	9.136
2.8658	9.1792
2.8563	9.2314
2.8469	9.2553
2.8375	9.2817
2.8282	9.3271
2.819	9.3645
2.8098	9.4092
2.8007	9.4653
2.7917	9.56
2.7827	9.6545
2.7738	9.7619
2.7649	9.884
2.7561	9.9922
2.7473	10.2317
2.7386	10.3762
2.7299	10.678
2.7213	10.8681
2.7128	11.1196
2.7043	11.2834
2.6959	11.4355
2.6875	11.5224
2.6791	11.5742
2.6709	11.5566
2.6626	11.6758
2.6545	11.6723
2.6463	11.6821
2.6382	11.6611
2.6302	11.6133
2.6222	11.6396
2.6143	11.6508
2.6064	11.5971
2.5986	11.624
2.5908	11.622
2.583	11.582
2.5753	11.5918
2.5677	11.5595
2.5601	11.5512
2.5525	11.5009
2.545	11.5009
2.5375	11.4873
2.5301	11.4419
2.5227	11.4306
2.5154	11.4321
2.5081	11.4101
2.5008	11.4267
2.4936	11.3886
2.4864	11.3711
2.4793	11.3535
2.4722	11.3247
2.4651	11.3008
2.4581	11.2939
2.4511	11.2802
2.4442	11.2622
2.4373	11.2519
2.4305	11.2099
2.4236	11.2304
2.4169	11.2519
2.4101	11.2505
2.4034	11.2226
2.3967	11.1894
2.3901	11.1982
2.3835	11.1758
2.377	11.1509
2.3704	11.1738
2.364	11.1777
2.3575	11.1509
2.3511	11.1489
2.3447	11.143
2.3384	11.1172
2.3321	11.1015
2.3258	11.0449
2.3195	11.1216
2.3133	11.0957
2.3071	11.0869
2.301	11.0947
2.2949	11.0957
2.2888	11.0996
2.2828	11.039
2.2767	11.0967
2.2708	11.0322
2.2648	11.0722
2.2589	11.0547
2.253	11.081
2.2471	11.0947
2.2413	11.0957
2.2355	11.0791
2.2297	11.0732
2.224	11.04
2.2183	11.0605
2.2126	11.082
2.207	11.1015
2.2013	11.0478
2.1957	11.0547
2.1902	11.1289
2.1846	11.0254
2.1791	11.0761
2.1736	11.1025
2.1682	11.1259
2.1628	11.1142
2.1574	11.1299
2.152	11.1142
2.1466	11.083
2.1413	11.1425
2.136	11.1425
2.1308	11.1836
2.1255	11.1259
2.1203	11.1699
2.1151	11.1484
2.11	11.1074
2.1048	11.1689
2.0997	11.1992
2.0946	11.1914
2.0895	11.2168
2.0845	11.1914
2.0795	11.208
