Name: Barite BaSO_4
Type: Mineral
Class: Sulfate
Subclass: None
Particle Size: Fine
Sample No.: SO-3A
Owner: JPL
Wavelength Range: VSWIR
Origin: USA, South Carolina, Cherokee County, Kings Creek
Description: Particle size was 0-45um.Collected by Ward's Original ASTER Spectral Library name was jpl.beckman.mineral.sulfate.none.fine.so03a.spectrum.txt
Measurement: Hemispherical reflectance
X Units: Wavelength (micrometers)
Y Units: Reflectance (percent)
wavelength	value
0.4	88.9
0.403	89.2
0.406	89.38
0.409	89.44
0.412	89.69
0.415	89.69
0.418	89.98
0.421	89.82
0.424	89.99
0.427	90.11
0.43	90.29
0.433	90.11
0.436	90.23
0.439	90.47
0.442	90.52
0.445	90.6
0.448	90.71
0.451	90.83
0.454	90.73
0.457	90.77
0.46	91
0.463	90.92
0.466	90.93
0.469	91.11
0.472	91.17
0.475	91.18
0.478	91.25
0.481	91.26
0.484	91.1
0.487	91.28
0.49	91.47
0.493	91.37
0.496	91.44
0.499	91.52
0.502	91.46
0.505	91.53
0.508	91.71
0.511	91.78
0.514	91.66
0.517	91.78
0.52	91.94
0.523	91.9
0.526	91.89
0.529	92.06
0.532	91.94
0.535	91.96
0.538	92.02
0.541	92.08
0.544	92.02
0.547	92.15
0.55	92.28
0.553	92.46
0.556	92.4
0.559	92.44
0.562	92.82
0.565	92.53
0.568	92.47
0.571	92.47
0.574	92.34
0.577	92.31
0.58	92.24
0.583	92.3
0.586	92.3
0.589	92.36
0.592	92.42
0.595	92.36
0.598	92.43
0.601	92.51
0.604	92.47
0.607	92.48
0.61	92.47
0.613	92.59
0.616	92.48
0.619	92.53
0.622	92.42
0.625	92.42
0.628	92.42
0.631	92.48
0.634	92.65
0.637	92.53
0.64	92.6
0.643	92.48
0.646	92.54
0.649	92.42
0.652	92.48
0.655	92.59
0.658	92.59
0.661	92.53
0.664	92.54
0.667	92.59
0.67	92.65
0.673	92.65
0.676	92.82
0.679	92.71
0.682	92.77
0.685	92.71
0.688	92.71
0.691	92.65
0.694	92.89
0.697	92.99
0.7	92.75
0.703	92.71
0.706	92.88
0.709	92.94
0.712	92.89
0.715	92.88
0.718	92.88
0.721	92.89
0.724	92.89
0.727	93.11
0.73	93.12
0.733	93
0.736	93.06
0.739	93.06
0.742	93.18
0.745	93.18
0.748	93
0.751	93.12
0.754	93.12
0.757	93.06
0.76	93.12
0.763	93.06
0.766	93.18
0.769	93
0.772	93.12
0.775	93.24
0.778	93.18
0.781	93.06
0.784	93.18
0.787	93.35
0.79	93.12
0.793	93.35
0.796	93.41
0.799	93.29
0.808	93.51
0.82	93.62
0.832	93.62
0.844	93.73
0.856	93.73
0.868	93.85
0.88	93.67
0.892	93.73
0.904	93.73
0.916	93.67
0.928	93.79
0.94	93.67
0.952	93.79
0.964	93.85
0.976	93.67
0.988	93.73
1	93.8
1.012	93.79
1.024	93.85
1.036	93.85
1.048	93.85
1.06	93.91
1.072	93.86
1.084	93.8
1.096	93.92
1.108	93.86
1.12	94.09
1.132	94.03
1.144	93.97
1.156	93.9
1.168	93.93
1.18	93.8
1.192	93.84
1.204	93.88
1.216	93.76
1.228	93.83
1.24	93.83
1.252	93.83
1.264	93.8
1.276	93.78
1.288	93.81
1.3	93.73
1.312	93.82
1.324	93.63
1.336	93.84
1.348	93.64
1.36	93.75
1.372	93.58
1.384	93.64
1.396	93.52
1.408	93.54
1.42	93.56
1.432	93.41
1.444	93.55
1.456	93.5
1.468	93.5
1.48	93.62
1.492	93.56
1.504	93.67
1.516	93.62
1.528	93.67
1.54	93.62
1.552	93.79
1.564	93.73
1.576	93.79
1.588	93.73
1.6	93.79
1.612	93.77
1.624	93.8
1.636	93.78
1.648	93.75
1.66	93.97
1.672	93.83
1.684	93.92
1.696	93.9
1.708	93.94
1.72	93.89
1.732	93.83
1.744	93.71
1.756	93.71
1.768	93.71
1.78	93.71
1.792	93.71
1.804	93.74
1.816	93.65
1.828	93.68
1.84	93.7
1.852	93.56
1.864	93.42
1.876	93.23
1.888	92.86
1.9	92.67
1.912	92.36
1.924	92.09
1.936	92.13
1.948	92.22
1.96	92.28
1.972	92.57
1.984	92.79
1.996	93.06
2.008	93.16
2.02	93.43
2.032	93.5
2.044	93.57
2.056	93.73
2.068	93.85
2.08	93.78
2.092	94.01
2.104	94.13
2.116	94.37
2.128	94.31
2.14	94.23
2.152	94.1
2.164	93.94
2.176	93.9
2.188	93.66
2.2	93.66
2.212	93.58
2.224	93.7
2.236	93.65
2.248	93.78
2.26	93.74
2.272	93.83
2.284	93.78
2.296	93.75
2.308	93.68
2.32	93.85
2.332	93.9
2.344	93.87
2.356	93.9
2.368	93.74
2.38	93.71
2.392	93.67
2.404	93.49
2.416	93.53
2.428	93.43
2.44	93.36
2.452	93.28
2.464	93.09
2.476	93.07
2.488	93.59
2.5	94.14
