Name: Galena PbS
Type: Mineral
Class: Sulfide
Subclass: None
Particle Size: Coarse
Sample No.: S-7A
Owner: JPL
Wavelength Range: TIR
Origin: USA, Kansas, Cherokee County, Galena
Description: Particle size was 125-500um.Collected by Grieger's Inc. Original ASTER Spectral Library name was jpl.nicolet.mineral.sulfide.none.coarse.s07a.spectrum.txt
Measurement: Hemispherical reflectance
X Units: Wavelength (micrometers)
Y Units: Reflectance (percent)
wavelength	value
15.3853	11.9895
15.1161	11.904
14.8563	12.0581
14.6052	12.1934
14.3624	12.5615
14.1276	12.5059
13.9004	12.6386
13.6803	12.8589
13.4671	12.8597
13.2604	12.9296
13.06	13.1578
12.8656	13.4122
12.6769	13.2916
12.4936	13.4541
12.3155	13.4826
12.1425	13.5949
11.9742	13.6186
11.8106	13.46
11.6513	13.7029
11.4963	13.7924
11.3454	13.8155
11.1983	13.9697
11.0551	13.9052
10.9154	14.0128
10.7793	14.0797
10.6465	14.1324
10.5169	14.1467
10.3904	14.1944
10.267	14.3545
10.1464	14.4304
10.0287	14.362
9.9136	14.6258
9.8012	14.6252
9.6913	14.7135
9.5838	14.6041
9.4787	14.7522
9.3758	14.8831
9.2752	14.7912
9.1767	14.9121
9.0803	15.0069
8.9858	15.0218
8.8934	14.967
8.8028	15.1394
8.714	14.9818
8.627	15.023
8.5417	14.9463
8.4581	15.1393
8.3761	15.1621
8.2957	15.3992
8.2169	15.2899
8.1395	15.3497
8.0635	15.4259
7.989	15.4372
7.9158	15.5333
7.8439	15.3893
7.7734	15.5266
7.7041	15.6892
7.636	15.6436
7.5691	15.7662
7.5034	15.7597
7.4388	15.7947
7.3753	15.9088
7.3129	15.8971
7.2515	15.9805
7.1912	16.0865
7.1318	16.0842
7.0734	16.1148
7.016	16.2678
6.9595	16.6297
6.9039	16.3291
6.8492	16.3769
6.7953	16.6753
6.7423	16.2829
6.6901	16.5017
6.6387	17.5023
6.5881	16.884
6.5382	16.5186
6.4892	17.6403
6.4408	16.7437
6.3931	16.8179
6.3462	17.3817
6.2999	16.7503
6.2543	16.6119
6.2094	16.6688
6.1651	16.9375
6.1214	17.2003
6.0784	17.3024
6.0359	17.0585
5.994	17.2505
5.9527	16.905
5.912	16.91
5.8718	17.2624
5.8322	17.3914
5.7931	16.9721
5.7545	17.1591
5.7165	17.3579
5.6789	17.1883
5.6418	17.5716
5.6052	17.1984
5.5691	17.1549
5.5334	17.1605
5.4982	17.1078
5.4635	17.4997
5.4291	17.3038
5.3952	17.3622
5.3618	17.4146
5.3287	17.4487
5.2961	17.5456
5.2638	17.5902
5.2319	17.5454
5.2004	17.6469
5.1693	17.6379
5.1386	17.702
5.1082	17.748
5.0782	17.7181
5.0485	17.8185
5.0192	17.8528
4.9902	17.7493
4.9616	17.9333
4.9332	17.9397
4.9052	18.0563
4.8776	18.0347
4.8502	17.9684
4.8231	18.0671
4.7963	18.1493
4.7699	18.1272
4.7437	18.1567
4.7178	18.2852
4.6922	18.2329
4.6668	18.2457
4.6418	18.3001
4.617	18.2393
4.5924	18.2727
4.5681	18.4301
4.5441	18.4322
4.5203	18.5102
4.4968	18.5105
4.4735	18.6234
4.4505	18.6263
4.4277	18.6122
4.4051	18.7371
4.3828	18.7406
4.3607	18.7419
4.3388	18.7857
4.3171	18.7243
4.2956	18.5464
4.2744	18.4743
4.2534	18.7985
4.2325	18.369
4.2119	18.8696
4.1915	19.047
4.1712	19.087
4.1512	19.0324
4.1313	19.0243
4.1117	19.0932
4.0922	19.2252
4.0729	19.2698
4.0538	19.2289
4.0349	19.2189
4.0161	19.3111
3.9976	19.1678
3.9792	19.3277
3.9609	19.2447
3.9428	19.4347
3.9249	19.3776
3.9072	19.5495
3.8896	19.5027
3.8722	19.5251
3.8549	19.5916
3.8378	19.6295
3.8208	19.6164
3.804	19.6791
3.7873	19.5978
3.7708	19.7353
3.7544	19.7202
3.7382	19.8061
3.7221	19.8829
3.7061	19.7382
3.6903	20.0025
3.6746	20.002
3.659	19.9225
3.6436	20.0618
3.6283	20.0541
3.6131	20.0616
3.5981	20.1798
3.5832	20.0669
3.5684	20.0972
3.5537	20.0747
3.5391	20.1542
3.5247	20.0992
3.5104	20.0695
3.4962	20.0821
3.4821	20.2353
3.4681	19.955
3.4543	20.0351
3.4405	20.0797
3.4269	20.159
3.4133	20.0651
3.3999	19.9589
3.3866	20.1022
3.3733	19.9431
3.3602	19.7813
3.3472	19.7792
3.3343	19.6714
3.3215	19.695
3.3088	19.5343
3.2961	19.4911
3.2836	19.385
3.2712	19.3193
3.2588	19.2767
3.2466	18.9802
3.2345	18.7937
3.2224	18.7688
3.2104	18.4703
3.1985	18.5371
3.1867	18.2228
3.175	18.1471
3.1634	17.9447
3.1519	17.7525
3.1404	17.6639
3.129	17.4662
3.1178	17.4102
3.1065	17.1653
3.0954	17.0919
3.0844	17.0841
3.0734	16.9382
3.0625	16.9518
3.0517	16.8855
3.041	16.8088
3.0303	16.8197
3.0197	16.8659
3.0092	16.6674
2.9987	16.6695
2.9884	16.7581
2.9781	16.7264
2.9678	16.6059
2.9577	16.6083
2.9476	16.6978
2.9376	16.5802
2.9276	16.6819
2.9177	16.6015
2.9079	16.599
2.8982	16.5123
2.8885	16.7323
2.8789	16.6529
2.8693	16.4929
2.8598	16.5163
2.8504	16.5445
2.841	16.5906
2.8317	16.4421
2.8224	16.4612
2.8133	16.5725
2.8041	16.7251
2.7951	16.406
2.786	16.7197
2.7771	16.5158
2.7682	16.6464
2.7594	16.566
2.7506	16.2516
2.7418	16.8476
2.7332	16.4492
2.7246	16.9512
2.716	16.1852
2.7075	16.3849
2.699	16.1776
2.6906	16.3115
2.6823	16.3989
2.674	16.2211
2.6657	17.1516
2.6575	16.2912
2.6494	16.251
2.6413	16.2503
2.6332	16.4536
2.6252	16.3898
2.6173	16.6111
2.6094	16.2483
2.6015	16.4397
2.5937	17.0026
2.5859	16.3134
2.5782	16.2539
2.5706	16.4191
2.5629	16.5191
2.5554	16.1663
2.5478	16.282
2.5403	15.9748
2.5329	16.141
2.5255	16.0194
2.5181	16.2389
2.5108	15.9227
2.5035	16.073
2.4963	16.0687
2.4891	16.0963
2.482	16.0792
2.4749	16.0606
2.4678	16.0447
2.4608	16.0314
2.4538	15.8984
2.4468	15.9446
2.4399	15.8009
2.4331	16.0216
2.4262	16.0455
2.4194	16.0255
2.4127	15.8023
2.4059	15.9623
2.3993	15.8705
2.3926	15.8544
2.386	15.8864
2.3795	15.8132
2.3729	15.9658
2.3664	15.896
2.36	15.8812
2.3535	15.7916
2.3471	15.8632
2.3408	15.7966
2.3345	15.8527
2.3282	16.0059
2.3219	16.0791
2.3157	15.7249
2.3095	16.0134
2.3034	15.8828
2.2972	15.9042
2.2911	15.8976
2.2851	15.8393
2.279	15.9384
2.2731	16.0135
2.2671	15.8413
2.2612	15.6673
2.2553	15.9196
2.2494	15.7746
2.2435	15.9129
2.2377	15.9886
2.232	16.0048
2.2262	15.6689
2.2205	16.0449
2.2148	15.8194
2.2091	15.7066
2.2035	15.8215
2.1979	15.7747
2.1923	15.8789
2.1868	15.8934
2.1812	15.5692
2.1758	15.8287
2.1703	15.8904
2.1649	15.5925
2.1595	16.0006
2.1541	15.7926
2.1487	16.0004
2.1434	15.6049
2.1381	15.6814
2.1328	16.2128
2.1275	15.784
2.1223	15.7692
2.1171	15.8454
2.112	15.6501
2.1068	15.7514
2.1017	15.918
2.0966	15.887
2.0915	15.5339
2.0865	15.8142
2.0814	15.6712
2.0764	16.2435
2.0715	15.5839
2.0665	15.673
2.0616	15.6827
2.0567	15.8014
2.0518	15.6918
2.0469	15.7873
2.0421	15.7687
2.0373	16.0356
2.0325	16.0215
2.0277	15.2101
2.0229	15.5996
2.0182	16.0135
2.0135	15.8809
2.0088	15.9753
2.0042	15.5659
