Name: Anorthite (Feldspar) (NaSi,CaAl)AlSi_2O_8
Type: Mineral
Class: Silicate
Subclass: Tectosilicate
Particle Size: Medium
Sample No.: TS-5A
Owner: JPL
Wavelength Range: TIR
Description: Particle size was 45-125um.Collected by JPL Original ASTER Spectral Library name was jpl.nicolet.mineral.silicate.tectosilicate.medium.ts05a.spectrum.txt
Measurement: Hemispherical reflectance
X Units: Wavelength (micrometers)
Y Units: Reflectance (percent)
wavelength	value
15.3853	3.2206
15.1161	2.6099
14.8563	2.5076
14.6052	2.1658
14.3624	2.121
14.1276	2.0434
13.9004	2.5949
13.6803	2.3616
13.4671	2.2262
13.2604	2.9872
13.06	2.4542
12.8656	2.1693
12.6769	2.2006
12.4936	2.7549
12.3155	3.525
12.1425	3.4719
11.9742	4.0469
11.8106	4.41
11.6513	4.9905
11.4963	5.4472
11.3454	6.5953
11.1983	8.6648
11.0551	10.253
10.9154	11.0918
10.7793	12.2201
10.6465	12.5364
10.5169	12.4256
10.3904	10.8747
10.267	8.827
10.1464	8.4491
10.0287	7.7777
9.9136	7.1208
9.8012	7.9297
9.6913	7.9634
9.5838	6.6659
9.4787	4.5389
9.3758	3.7214
9.2752	3.9402
9.1767	4.3296
9.0803	5.6251
8.9858	6.1222
8.8934	6.3879
8.8028	6.8066
8.714	7.2172
8.627	6.6729
8.5417	5.4204
8.4581	4.0404
8.3761	2.375
8.2957	1.029
8.2169	0.3609
8.1395	0.3084
8.0635	0.3706
7.989	0.2505
7.9158	0.4575
7.8439	0.7004
7.7734	0.7447
7.7041	1.0418
7.636	1.2772
7.5691	1.5359
7.5034	1.9182
7.4388	2.2068
7.3753	2.3079
7.3129	2.6646
7.2515	2.86
7.1912	3.2202
7.1318	3.4685
7.0734	3.6325
7.016	3.8211
6.9595	4.0957
6.9039	4.2008
6.8492	4.2464
6.7953	4.3842
6.7423	4.5748
6.6901	4.5295
6.6387	4.6473
6.5881	4.6539
6.5382	4.8591
6.4892	5.0447
6.4408	4.9475
6.3931	4.9908
6.3462	4.9483
6.2999	4.9238
6.2543	4.7999
6.2094	4.8649
6.1651	4.6983
6.1214	4.7831
6.0784	4.6951
6.0359	4.7533
5.994	5.0353
5.9527	5.5249
5.912	6.2834
5.8718	7.0239
5.8322	7.8592
5.7931	8.5094
5.7545	9.2386
5.7165	9.855
5.6789	9.9932
5.6418	10.3922
5.6052	10.6845
5.5691	10.7862
5.5334	10.558
5.4982	10.2838
5.4635	10.2563
5.4291	10.4195
5.3952	11.151
5.3618	12.1238
5.3287	12.8631
5.2961	13.5451
5.2638	14.3638
5.2319	15.2038
5.2004	15.9054
5.1693	16.7721
5.1386	17.6499
5.1082	18.733
5.0782	19.438
5.0485	20.1214
5.0192	21.0056
4.9902	22.24
4.9616	23.0148
4.9332	23.5463
4.9052	23.9451
4.8776	24.7716
4.8502	25.3736
4.8231	25.7372
4.7963	26.513
4.7699	26.9301
4.7437	27.8398
4.7178	28.8171
4.6922	28.8667
4.6668	28.4987
4.6418	28.5106
4.617	29.7941
4.5924	32.0224
4.5681	34.7449
4.5441	36.7016
4.5203	38.0956
4.4968	38.9297
4.4735	39.8465
4.4505	40.8097
4.4277	41.868
4.4051	42.9472
4.3828	44.1269
4.3607	45.351
4.3388	46.515
4.3171	47.4013
4.2956	48.3254
4.2744	49.7417
4.2534	51.515
4.2325	51.1958
4.2119	52.6816
4.1915	53.6796
4.1712	53.9538
4.1512	54.4132
4.1313	54.8004
4.1117	55.0506
4.0922	55.1898
4.0729	55.2413
4.0538	55.1975
4.0349	55.0303
4.0161	55.2151
3.9976	55.1106
3.9792	55.0996
3.9609	55.1104
3.9428	55.186
3.9249	55.0484
3.9072	54.7059
3.8896	54.4045
3.8722	54.168
3.8549	53.8558
3.8378	53.4637
3.8208	53.0896
3.804	52.5751
3.7873	52.0647
3.7708	51.5905
3.7544	50.8714
3.7382	50.4555
3.7221	49.9836
3.7061	49.5263
3.6903	49.0335
3.6746	48.534
3.659	47.9018
3.6436	47.5904
3.6283	46.9559
3.6131	46.3729
3.5981	45.7953
3.5832	45.2488
3.5684	44.4703
3.5537	43.6651
3.5391	42.8446
3.5247	41.9796
3.5104	40.953
3.4962	40.1361
3.4821	39.5919
3.4681	38.9322
3.4543	38.3313
3.4405	37.5395
3.4269	36.4972
3.4133	35.4623
3.3999	34.9988
3.3866	34.3139
3.3733	33.5508
3.3602	32.8038
3.3472	32.2169
3.3343	31.6044
3.3215	30.8589
3.3088	30.2166
3.2961	29.4964
3.2836	28.9149
3.2712	28.1923
3.2588	27.3914
3.2466	26.7678
3.2345	26.1323
3.2224	25.6574
3.2104	25.1428
3.1985	24.3934
3.1867	23.8889
3.175	23.2532
3.1634	22.7051
3.1519	22.3279
3.1404	21.919
3.129	21.6167
3.1178	21.3094
3.1065	21.1581
3.0954	20.8004
3.0844	20.6157
3.0734	20.1634
3.0625	19.7353
3.0517	19.4313
3.041	18.9458
3.0303	18.36
3.0197	17.999
3.0092	17.5501
2.9987	17.2677
2.9884	16.9445
2.9781	16.8168
2.9678	16.4354
2.9577	16.0331
2.9476	15.9081
2.9376	15.7471
2.9276	15.6028
2.9177	15.7706
2.9079	15.6885
2.8982	15.564
2.8885	15.3496
2.8789	15.1003
2.8693	14.8806
2.8598	15.0808
2.8504	15.3777
2.841	15.9501
2.8317	15.9781
2.8224	16.2785
2.8133	16.355
2.8041	16.3089
2.7951	16.6167
2.786	16.918
2.7771	17.3448
2.7682	16.6241
2.7594	16.2451
2.7506	16.6806
2.7418	17.8672
2.7332	20.005
2.7246	23.3887
2.716	28.7966
2.7075	37.5411
2.699	45.725
2.6906	51.1943
2.6823	54.8874
2.674	57.335
2.6657	59.3222
2.6575	60.2249
2.6494	60.958
2.6413	61.6963
2.6332	62.2804
2.6252	62.2846
2.6173	62.6869
2.6094	62.593
2.6015	62.8833
2.5937	63.598
2.5859	63.4897
2.5782	63.6721
2.5706	63.7432
2.5629	64.1594
2.5554	64.2592
2.5478	64.4875
2.5403	64.9599
2.5329	64.924
2.5255	65.2307
2.5181	65.6664
2.5108	65.6787
2.5035	65.7556
2.4963	65.4979
2.4891	65.5567
2.482	65.0904
2.4749	64.2865
2.4678	63.9957
2.4608	64.4213
2.4538	65.2045
2.4468	65.7593
2.4399	66.3818
2.4331	66.8663
2.4262	67.0941
2.4194	67.4273
2.4127	67.2627
2.4059	67.3008
2.3993	66.7777
2.3926	66.2213
2.386	65.7656
2.3795	65.1314
2.3729	63.8495
2.3664	62.0608
2.36	60.4626
2.3535	60.6508
2.3471	61.7277
2.3408	62.2567
2.3345	62.7002
2.3282	63.8288
2.3219	65.2971
2.3157	66.7561
2.3095	67.5236
2.3034	68.1099
2.2972	68.0127
2.2911	68.5445
2.2851	69.1785
2.279	69.9921
2.2731	69.897
2.2671	69.8547
2.2612	69.5958
2.2553	69.6101
2.2494	70.3239
2.2435	70.955
2.2377	71.6525
2.232	72.2918
2.2262	72.9434
2.2205	73.5641
2.2148	73.5485
2.2091	73.6735
2.2035	73.5391
2.1979	73.4548
2.1923	73.3702
2.1868	73.7223
2.1812	74.1036
2.1758	74.5988
2.1703	75.0169
2.1649	75.1588
2.1595	75.7207
2.1541	76.0603
2.1487	75.9452
2.1434	76.0794
2.1381	76.1906
2.1328	76.3966
2.1275	75.9937
2.1223	76.293
2.1171	76.4559
2.112	76.6067
2.1068	76.5235
2.1017	76.5381
2.0966	76.4169
2.0915	77.2236
2.0865	76.7414
2.0814	76.3818
2.0764	76.246
2.0715	76.6417
2.0665	76.5682
2.0616	76.3508
2.0567	76.4496
2.0518	76.4308
2.0469	76.1606
2.0421	76.0425
2.0373	76.1924
2.0325	76.0344
2.0277	75.9333
2.0229	75.8489
2.0182	75.4307
2.0135	75.6437
2.0088	75.5345
2.0042	75.3623
