Name: Quartz SiO2
Type: Mineral
Class: Silicate
Subclass: Tectosilicate
Particle Size: Fine
Sample No.: quartz_1
Owner: JHU
Wavelength Range: TIR
Origin: Brazil, via Bruce Hemingway, USGS
Description: The hand sample appeared entirely pure, being a clear and transparent fragment of a single crystal.  This purity was confirmed under the microscope and by XRD analysis, as well as within the limits of microprobe error. Particle size was Less than 2  Micrometers.(Silica Group) Original ASTER Spectral Library name was jhu.nicolet.mineral.silicate.tectosilicate.powder.quartz1.spectrum.txt
Measurement: Transmission
X Units: Wavelength (micrometers)
Y Units: Transmittance (percent)
wavelength	value
25.0442	50.5936
24.3388	74.2029
23.6719	71.6483
23.0407	67.1971
22.4422	57.66
21.8741	35.2108
21.334	23.8242
20.8199	33.164
20.33	51.2538
19.8627	53.6219
19.4163	41.8602
18.9896	55.6366
18.5812	73.3572
18.19	79.5633
17.815	81.4265
17.4551	82.5135
17.1094	81.8533
16.7772	80.4734
16.4576	82.3201
16.15	82.7517
15.8537	83.0838
15.568	83.3523
15.2925	82.7517
15.0265	82.9392
14.7697	81.1014
14.5214	78.3055
14.2814	77.617
14.0492	82.24
13.8244	82.9842
13.6067	82.3924
13.3957	80.9236
13.1912	80.0135
12.9929	73.8162
12.8004	50.0961
12.6135	53.8617
12.432	49.3207
12.2557	74.3514
12.0843	79.9612
11.9176	81.951
11.7555	83.0369
11.5977	82.5193
11.444	81.1892
11.2944	80.1463
11.1487	78.7381
11.0067	78.1375
10.8682	76.8123
10.7332	74.7952
10.6015	72.3494
10.473	68.2943
10.3476	65.3367
10.2251	63.7044
10.1056	60.2166
9.9887	55.659
9.8746	49.9169
9.763	43.4745
9.6539	36.1869
9.5472	27.9648
9.4429	17.2778
9.3408	9.0898
9.2409	3.1636
9.1431	1.9228
9.0474	2.9434
8.9536	5.5381
8.8618	9.3647
8.7718	12.5796
8.6837	15.3003
8.5973	17.2924
8.5126	18.5253
8.4295	26.6425
8.3481	36.495
8.2682	46.1769
8.1898	56.086
8.1129	64.0399
8.0374	70.1231
7.9634	75.2474
7.8906	78.7071
7.8192	81.1368
7.7491	83.4881
7.6802	85.2146
7.6126	86.4363
7.5461	87.4939
7.4807	88.0779
7.4165	88.655
7.3534	89.0361
7.2914	89.3486
7.2303	89.6311
7.1703	89.7383
7.1113	89.9461
7.0533	90.3399
6.9962	90.8118
6.94	91.2673
6.8847	91.2937
6.8302	90.9785
6.7767	91.0147
6.7239	91.2852
6.672	91.5847
6.6209	91.6006
6.5705	91.6126
6.5209	91.791
6.4721	92.1777
6.424	92.2576
6.3766	91.8789
6.3299	91.4483
6.2838	90.6289
6.2385	89.5508
6.1937	88.2034
6.1496	87.7715
6.1062	87.7649
6.0633	88.6199
6.0211	90.5271
5.9794	91.6299
5.9383	91.5527
5.8978	91.9031
5.8578	92.3484
5.8184	92.822
5.7794	93.21
5.741	93.4627
5.7031	93.679
5.6657	93.6072
5.6288	93.3965
5.5924	93.2249
5.5564	93.2861
5.5209	93.4685
5.4859	93.5625
5.4513	93.76
5.4171	93.5647
5.3833	92.9109
5.35	92.4802
5.3171	92.5869
5.2846	92.8796
5.2524	93.3689
5.2207	93.7693
5.1893	93.9348
5.1584	93.926
5.1277	93.9275
5.0975	93.9168
5.0676	93.7666
5.038	93.7451
5.0088	93.7439
4.98	93.8621
4.9514	94.1052
4.9232	94.2354
4.8953	94.45
4.8678	94.5505
4.8405	94.6248
4.8135	94.7683
4.7868	94.8225
4.7605	94.8459
4.7344	94.8806
4.7086	94.8787
4.6831	94.9172
4.6578	94.9602
4.6328	95.0559
4.6081	95.2083
4.5837	95.1589
4.5595	95.0974
4.5356	95.0872
4.5119	95.093
4.4884	95.0393
4.4652	95.0217
4.4423	95.0242
4.4196	95.0837
4.3971	95.0901
4.3748	95.1492
4.3528	95.1179
4.331	95.1506
4.3094	95.135
4.288	95.1467
4.2668	95.0984
4.2458	95.2141
4.2251	95.1658
4.2045	95.1921
4.1841	95.2034
4.164	95.1638
4.144	95.2302
4.1242	95.1736
4.1046	95.072
4.0852	95.0867
4.066	95.1375
4.047	95.1292
4.0281	95.0251
4.0094	95.075
3.9909	94.9573
3.9725	94.8914
3.9544	94.9827
3.9363	94.9832
3.9185	94.9885
3.9008	94.9959
3.8833	94.9392
3.8659	94.9397
3.8487	94.9104
3.8316	94.9128
3.8147	94.8709
3.7979	94.8772
3.7813	94.8484
3.7648	94.7625
3.7485	94.7195
3.7323	94.7341
3.7162	94.738
3.7003	94.5955
3.6845	94.5627
3.6689	94.4783
3.6534	94.4285
3.638	94.342
3.6227	94.2761
3.6076	94.1638
3.5926	94.1389
3.5777	94.1013
3.563	93.9827
3.5484	93.8054
3.5338	93.655
3.5195	93.3191
3.5052	92.697
3.491	92.7605
3.477	92.7293
3.463	92.6702
3.4492	92.3928
3.4355	91.9509
3.4219	91.1775
3.4084	91.1521
3.395	91.5994
3.3817	91.4705
3.3685	91.5906
3.3554	91.5588
3.3425	91.551
3.3296	91.3494
3.3168	91.1541
3.3041	91.1604
3.2915	90.8923
3.279	90.4905
3.2666	90.2341
3.2543	89.9924
3.2421	89.6799
3.23	89.3435
3.218	89.0213
3.206	88.6746
3.1942	88.2581
3.1824	87.9549
3.1707	87.7166
3.1591	87.2737
3.1476	86.9256
3.1362	86.4822
3.1249	86.0984
3.1136	85.7869
3.1024	85.2801
3.0913	84.8269
3.0803	84.4431
3.0694	84.074
3.0585	83.7195
3.0477	83.3445
3.037	83.0291
3.0264	82.5769
3.0158	81.9998
3.0053	81.3621
2.9949	80.5623
2.9845	79.6209
2.9743	78.49
2.9641	77.2596
2.9539	76.2908
2.9439	75.6033
2.9339	75.2664
2.9239	74.8787
2.9141	74.8367
2.9043	75.0525
2.8946	75.657
2.8849	76.2898
2.8753	76.9041
2.8658	77.6922
2.8563	78.6228
2.8469	79.3025
2.8375	80.1141
2.8282	80.9851
2.819	81.9383
2.8098	82.7849
2.8007	83.6267
2.7917	84.822
2.7827	85.7986
2.7738	86.99
2.7649	88.1892
2.7561	89.1609
2.7473	90.2302
2.7386	91.2664
2.7299	92.0701
2.7213	92.824
2.7128	93.239
2.7043	93.6521
2.6959	94.2625
2.6875	94.4617
2.6791	94.6755
2.6709	94.6882
2.6626	94.7195
2.6545	94.7351
2.6463	94.8093
2.6382	94.9783
2.6302	94.8123
2.6222	94.8845
2.6143	94.8826
2.6064	94.8709
2.5986	94.9421
2.5908	94.8406
2.583	94.9851
2.5753	94.658
2.5677	94.8669
2.5601	94.9021
2.5525	94.8162
2.545	94.7302
2.5375	95.0095
2.5301	94.9919
2.5227	94.6736
2.5154	94.9509
2.5081	94.9802
2.5008	94.9861
2.4936	94.8552
2.4864	94.99
2.4793	95.0466
2.4722	94.906
2.4651	94.9724
2.4581	95.1345
2.4511	94.9841
2.4442	94.8318
2.4373	95.033
2.4305	94.8591
2.4236	95.0505
2.4169	95.0662
2.4101	95.0388
2.4034	94.9705
2.3967	95.0662
2.3901	95.0251
2.3835	94.9021
2.377	95.0642
2.3704	95.031
2.364	94.9216
2.3575	94.7126
2.3511	94.9626
2.3447	94.9939
2.3384	94.7185
2.3321	94.9001
2.3258	94.9841
2.3195	94.9392
2.3133	94.947
2.3071	94.7576
2.301	95.0251
2.2949	94.738
2.2888	95.0115
2.2828	94.7966
2.2767	94.9236
2.2708	94.7048
2.2648	94.8376
2.2589	94.7068
2.253	95.0408
2.2471	94.6599
2.2413	94.7068
2.2355	94.533
2.2297	95.0623
2.224	94.4334
2.2183	94.9138
2.2126	94.6169
2.207	94.8923
2.2013	94.5642
2.1957	94.5017
2.1902	94.6033
2.1846	94.5251
2.1791	94.3376
2.1736	94.7771
2.1682	94.6345
2.1628	94.6169
2.1574	94.3748
2.152	94.5798
2.1466	94.1404
2.1413	94.4607
2.136	94.2302
2.1308	94.6091
2.1255	94.3044
2.1203	94.3748
2.1151	94.5388
2.11	94.2693
2.1048	94.4998
2.0997	94.3826
2.0946	94.5505
2.0895	94.2771
2.0845	94.3865
2.0795	94.5154
