Name: Quartz SiO2
Type: Mineral
Class: Silicate
Subclass: Tectosilicate
Particle Size: Solid
Sample No.: quartz_1
Owner: JHU
Wavelength Range: TIR
Origin: Brazil, via Bruce Hemingway, USGS
Description: The hand sample appeared entirely pure, being a clear and transparent fragment of a single crystal.  This purity was confirmed under the microscope and by XRD analysis, as well as within the limits of microprobe error. Sample had fracture surface.(Silica Group) Original ASTER Spectral Library name was jhu.nicolet.mineral.silicate.tectosilicate.solid.quartz1.spectrum.txt
Measurement: Bidirectional reflectance
X Units: Wavelength (micrometers)
Y Units: Reflectance (percent)
wavelength	value
25.0442	27.9062
24.3388	16.8603
23.6719	19.9853
23.0407	23.4384
22.4422	29.7333
21.8741	39.9501
21.334	45.5258
20.8199	64.4451
20.33	75.3514
19.8627	73.7508
19.4163	43.3358
18.9896	27.1469
18.5812	34.7704
18.19	38.1166
17.815	18.3398
17.4551	10.1614
17.1094	11.176
16.7772	12.0859
16.4576	12.874
16.15	13.5166
15.8537	14.1933
15.568	14.6152
15.2925	15.0178
15.0265	15.6828
14.7697	16.3598
14.5214	17.6835
14.2814	14.9553
14.0492	16.0966
13.8244	16.9692
13.6067	17.748
13.3957	18.6474
13.1912	19.9218
12.9929	22.5849
12.8004	33.4179
12.6135	30.1327
12.432	30.2507
12.2557	9.9543
12.0843	13.2265
11.9176	15.0141
11.7555	16.0761
11.5977	16.8537
11.444	17.4614
11.2944	18.0161
11.1487	18.4848
11.0067	18.9809
10.8682	19.5239
10.7332	20.0581
10.6015	20.6389
10.473	21.2914
10.3476	22.0454
10.2251	22.8774
10.1056	23.83
9.9887	24.944
9.8746	26.4052
9.763	28.3979
9.6539	31.2509
9.5472	35.1908
9.4429	43.5289
9.3408	63.0369
9.2409	74.8084
9.1431	78.1685
9.0474	79.9695
8.9536	80.6311
8.8618	80.7439
8.7718	79.2024
8.6837	75.1546
8.5973	68.6563
8.5126	79.4085
8.4295	79.1453
8.3481	77.8165
8.2682	77.0481
8.1898	76.2842
8.1129	73.3309
8.0374	70.4744
7.9634	67.9788
7.8906	62.0938
7.8192	56.4117
7.7491	53.1803
7.6802	46.5895
7.6126	36.0927
7.5461	24.8141
7.4807	10.9521
7.4165	1.7761
7.3534	0.7261
7.2914	1.6831
7.2303	2.6772
7.1703	3.5254
7.1113	4.3223
7.0533	4.8896
6.9962	5.5224
6.94	6.0806
6.8847	6.5403
6.8302	6.9104
6.7767	7.3325
6.7239	7.561
6.672	7.9004
6.6209	8.1553
6.5705	8.2688
6.5209	8.4355
6.4721	8.7988
6.424	8.9707
6.3766	9.3039
6.3299	9.5952
6.2838	9.7055
6.2385	9.7705
6.1937	9.7282
6.1496	9.8066
6.1062	9.9885
6.0633	10.1445
6.0211	10.1975
5.9794	10.3506
5.9383	10.1506
5.8978	10.3071
5.8578	10.5361
5.8184	10.5996
5.7794	10.7155
5.741	10.8891
5.7031	11.0591
5.6657	11.1924
5.6288	11.2568
5.5924	11.2988
5.5564	11.3022
5.5209	11.3738
5.4859	11.4719
5.4513	11.6164
5.4171	11.7466
5.3833	11.8261
5.35	11.707
5.3171	11.727
5.2846	11.7236
5.2524	11.7253
5.2207	11.7795
5.1893	11.9008
5.1584	11.9355
5.1277	11.9697
5.0975	12.0175
5.0676	12.0244
5.038	12.0486
5.0088	12.0424
4.98	12.0312
4.9514	12.0578
4.9232	12.0993
4.8953	12.1335
4.8678	12.1889
4.8405	12.2282
4.8135	12.2768
4.7868	12.3127
4.7605	12.3618
4.7344	12.396
4.7086	12.4514
4.6831	12.4682
4.6578	12.5127
4.6328	12.55
4.6081	12.5859
4.5837	12.6096
4.5595	12.6645
4.5356	12.6865
4.5119	12.7092
4.4884	12.739
4.4652	12.7544
4.4423	12.7602
4.4196	12.7802
4.3971	12.7758
4.3748	12.8257
4.3528	12.7483
4.331	12.6357
4.3094	12.5058
4.288	12.3818
4.2668	12.3716
4.2458	12.2031
4.2251	12.2773
4.2045	12.75
4.1841	12.9482
4.164	12.9817
4.144	13.0044
4.1242	13.0366
4.1046	13.031
4.0852	13.0673
4.066	13.0927
4.047	13.1108
4.0281	13.1162
4.0094	13.1425
3.9909	13.1572
3.9725	13.186
3.9544	13.2065
3.9363	13.2387
3.9185	13.2627
3.9008	13.2558
3.8833	13.2783
3.8659	13.2846
3.8487	13.2905
3.8316	13.2881
3.8147	13.2959
3.7979	13.3188
3.7813	13.3198
3.7648	13.3203
3.7485	13.3276
3.7323	13.31
3.7162	13.3501
3.7003	13.3613
3.6845	13.3515
3.6689	13.3672
3.6534	13.3706
3.638	13.3896
3.6227	13.3891
3.6076	13.3965
3.5926	13.414
3.5777	13.4253
3.563	13.4316
3.5484	13.4294
3.5338	13.4587
3.5195	13.4714
3.5052	13.5058
3.491	13.4963
3.477	13.4851
3.463	13.5202
3.4492	13.52
3.4355	13.5378
3.4219	13.5774
3.4084	13.5556
3.395	13.5344
3.3817	13.519
3.3685	13.5151
3.3554	13.5293
3.3425	13.5136
3.3296	13.4985
3.3168	13.5083
3.3041	13.4953
3.2915	13.5048
3.279	13.4878
3.2666	13.4597
3.2543	13.4868
3.2421	13.4826
3.23	13.4934
3.218	13.4902
3.206	13.4699
3.1942	13.4858
3.1824	13.4997
3.1707	13.4865
3.1591	13.4873
3.1476	13.4839
3.1362	13.4775
3.1249	13.5068
3.1136	13.4892
3.1024	13.5088
3.0913	13.4973
3.0803	13.5068
3.0694	13.4865
3.0585	13.4663
3.0477	13.4641
3.037	13.4436
3.0264	13.456
3.0158	13.4404
3.0053	13.4406
2.9949	13.4477
2.9845	13.4101
2.9743	13.4223
2.9641	13.4077
2.9539	13.4016
2.9439	13.4043
2.9339	13.3881
2.9239	13.3564
2.9141	13.3554
2.9043	13.3662
2.8946	13.3657
2.8849	13.344
2.8753	13.3254
2.8658	13.3398
2.8563	13.259
2.8469	13.2763
2.8375	13.2461
2.8282	13.2404
2.819	13.2861
2.8098	13.248
2.8007	13.3139
2.7917	13.1826
2.7827	13.1279
2.7738	13.1548
2.7649	13.1391
2.7561	12.9726
2.7473	13.1352
2.7386	13.2939
2.7299	13.1714
2.7213	12.9658
2.7128	13.0669
2.7043	13.102
2.6959	12.9902
2.6875	13.0317
2.6791	12.9365
2.6709	12.8437
2.6626	13.082
2.6545	13.083
2.6463	12.9887
2.6382	13.0747
2.6302	13
2.6222	13.0322
2.6143	13.1469
2.6064	13.0127
2.5986	12.9228
2.5908	12.9756
2.583	13.0332
2.5753	13.0903
2.5677	13.0586
2.5601	13.0547
2.5525	12.9282
2.545	12.9555
2.5375	12.9248
2.5301	12.9692
2.5227	12.9277
2.5154	12.8779
2.5081	12.9638
2.5008	12.895
2.4936	12.9062
2.4864	12.8906
2.4793	12.8266
2.4722	12.854
2.4651	12.8715
2.4581	12.8281
2.4511	12.7832
2.4442	12.832
2.4373	12.8066
2.4305	12.7993
2.4236	12.7881
2.4169	12.7793
2.4101	12.8105
2.4034	12.7851
2.3967	12.8115
2.3901	12.7856
2.3835	12.7148
2.377	12.7798
2.3704	12.709
2.364	12.7343
2.3575	12.727
2.3511	12.7407
2.3447	12.7187
2.3384	12.7207
2.3321	12.6845
2.3258	12.7197
2.3195	12.7558
2.3133	12.6855
2.3071	12.6757
2.301	12.7031
2.2949	12.6513
2.2888	12.7002
2.2828	12.6347
2.2767	12.7177
2.2708	12.6933
2.2648	12.6836
2.2589	12.6767
2.253	12.7109
2.2471	12.7627
2.2413	12.7304
2.2355	12.709
2.2297	12.6601
2.224	12.7353
2.2183	12.6318
2.2126	12.7793
2.207	12.6816
2.2013	12.6582
2.1957	12.6836
2.1902	12.7158
2.1846	12.7773
2.1791	12.79
2.1736	12.7509
2.1682	12.7392
2.1628	12.7988
2.1574	12.7168
2.152	12.7949
2.1466	12.7402
2.1413	12.8134
2.136	12.8359
2.1308	12.7734
2.1255	12.7236
2.1203	12.7783
2.1151	12.7822
2.11	12.8554
2.1048	12.8457
2.0997	12.8408
2.0946	12.8291
2.0895	12.8457
2.0845	12.8593
2.0795	12.9033
