Name: Magnesite MgCO_3
Type: Mineral
Class: Carbonate
Subclass: None
Particle Size: Fine
Sample No.: C-6A
Owner: JPL
Wavelength Range: TIR
Origin: USA, California, Riverside County
Description: Particle size was 0-45um.Collected by Ward's Original ASTER Spectral Library name was jpl.nicolet.mineral.carbonate.none.fine.c06a.spectrum.txt
Measurement: Hemispherical reflectance
X Units: Wavelength (micrometers)
Y Units: Reflectance (percent)
wavelength	value
15.3853	2.0062
15.1161	2.4669
14.8563	3.4097
14.6052	3.3446
14.3624	3.3967
14.1276	4.5686
13.9004	4.8295
13.6803	4.5154
13.4671	2.9072
13.2604	0.9339
13.06	4.8442
12.8656	6.6953
12.6769	7.6774
12.4936	8.8846
12.3155	10.3966
12.1425	11.3447
11.9742	11.9858
11.8106	12.4196
11.6513	9.7439
11.4963	10.9392
11.3454	4.3687
11.1983	3.5896
11.0551	10.9408
10.9154	12.7507
10.7793	11.1091
10.6465	9.4032
10.5169	7.8004
10.3904	5.6907
10.267	4.7111
10.1464	4.0985
10.0287	4.271
9.9136	3.794
9.8012	3.8429
9.6913	4.1072
9.5838	4.9409
9.4787	5.9023
9.3758	6.3846
9.2752	6.3644
9.1767	7.043
9.0803	8.2389
8.9858	9.8898
8.8934	12.088
8.8028	13.6865
8.714	15.7007
8.627	17.1653
8.5417	17.9328
8.4581	17.2299
8.3761	17.2752
8.2957	17.4934
8.2169	17.9862
8.1395	17.9133
8.0635	18.6361
7.989	19.9162
7.9158	23.3941
7.8439	26.1527
7.7734	27.0965
7.7041	27.0366
7.636	26.4659
7.5691	25.7352
7.5034	24.9577
7.4388	23.0836
7.3753	21.2292
7.3129	19.4297
7.2515	16.8884
7.1912	12.1013
7.1318	8.6104
7.0734	6.1491
7.016	6.8768
6.9595	6.719
6.9039	5.6846
6.8492	5.2393
6.7953	5.0031
6.7423	4.8931
6.6901	5.2373
6.6387	5.4274
6.5881	5.798
6.5382	6.405
6.4892	7.6189
6.4408	8.7366
6.3931	9.8723
6.3462	11.6201
6.2999	14.8658
6.2543	16.3041
6.2094	10.7732
6.1651	8.3076
6.1214	8.169
6.0784	7.8241
6.0359	7.0191
5.994	7.05
5.9527	6.8552
5.912	6.9216
5.8718	7.4374
5.8322	8.5618
5.7931	9.6124
5.7545	10.6322
5.7165	11.9627
5.6789	12.6866
5.6418	12.6301
5.6052	12.4662
5.5691	11.2223
5.5334	8.737
5.4982	6.5479
5.4635	6.0613
5.4291	7.9699
5.3952	13.7622
5.3618	21.3871
5.3287	26.9309
5.2961	30.8005
5.2638	32.3496
5.2319	33.8528
5.2004	37.8419
5.1693	41.2933
5.1386	43.9057
5.1082	45.3036
5.0782	45.1589
5.0485	44.6348
5.0192	48.189
4.9902	49.7985
4.9616	50.5661
4.9332	51.0202
4.9052	51.4367
4.8776	51.6893
4.8502	51.9327
4.8231	52.0407
4.7963	52.0577
4.7699	52.02
4.7437	51.7419
4.7178	51.5001
4.6922	50.8321
4.6668	49.7624
4.6418	47.7602
4.617	44.9724
4.5924	42.9648
4.5681	42.9669
4.5441	44.0927
4.5203	45.871
4.4968	46.8898
4.4735	47.6268
4.4505	48.0152
4.4277	48.2394
4.4051	48.4743
4.3828	48.9976
4.3607	49.5575
4.3388	50.2118
4.3171	50.311
4.2956	50.6258
4.2744	50.9035
4.2534	51.2114
4.2325	52.0122
4.2119	52.441
4.1915	52.5211
4.1712	52.7481
4.1512	52.9125
4.1313	52.9686
4.1117	52.9695
4.0922	52.928
4.0729	52.4367
4.0538	51.4877
4.0349	49.3294
4.0161	45.0167
3.9976	37.4975
3.9792	27.6645
3.9609	17.4486
3.9428	14.8819
3.9249	15.6498
3.9072	17.1539
3.8896	20.3326
3.8722	24.6704
3.8549	25.9637
3.8378	27.1449
3.8208	28.2893
3.804	29.0345
3.7873	29.9286
3.7708	33.1259
3.7544	37.4333
3.7382	42.1422
3.7221	47.3967
3.7061	50.3567
3.6903	50.7541
3.6746	50.4487
3.659	50.0925
3.6436	49.5559
3.6283	48.9193
3.6131	48.1354
3.5981	47.5702
3.5832	46.7666
3.5684	46.0121
3.5537	44.9397
3.5391	43.5613
3.5247	41.6317
3.5104	40.3692
3.4962	36.9511
3.4821	31.2777
3.4681	28.0561
3.4543	25.5996
3.4405	23.1757
3.4269	21.7811
3.4133	21.9542
3.3999	24.5141
3.3866	25.2657
3.3733	25.1092
3.3602	25.0382
3.3472	24.4545
3.3343	23.7657
3.3215	22.9312
3.3088	22.5032
3.2961	21.9701
3.2836	20.8461
3.2712	19.8255
3.2588	21.6781
3.2466	22.7032
3.2345	21.8898
3.2224	21.1497
3.2104	20.8223
3.1985	20.4278
3.1867	20.5145
3.175	20.4737
3.1634	20.4959
3.1519	20.2766
3.1404	19.9736
3.129	19.7357
3.1178	19.6972
3.1065	19.799
3.0954	19.846
3.0844	19.9752
3.0734	20.0593
3.0625	20.1395
3.0517	20.3527
3.041	20.1883
3.0303	19.81
3.0197	19.3182
3.0092	18.6983
2.9987	18.1945
2.9884	17.8497
2.9781	17.9382
2.9678	18.3225
2.9577	18.9292
2.9476	20.0592
2.9376	20.9688
2.9276	22.2652
2.9177	23.1728
2.9079	24.2489
2.8982	25.2927
2.8885	26.4279
2.8789	27.536
2.8693	28.4672
2.8598	29.3259
2.8504	30.2899
2.841	30.8903
2.8317	31.4774
2.8224	31.9209
2.8133	32.2549
2.8041	33.7657
2.7951	35.1001
2.786	36.5029
2.7771	37.7973
2.7682	39.0373
2.7594	40.6888
2.7506	43.1743
2.7418	47.3928
2.7332	51.5363
2.7246	53.5784
2.716	46.8165
2.7075	59.4602
2.699	65.3516
2.6906	65.3107
2.6823	72.22
2.674	74.4922
2.6657	76.8865
2.6575	77.0313
2.6494	77.8181
2.6413	78.6144
2.6332	79.3592
2.6252	79.7567
2.6173	80.6702
2.6094	80.7048
2.6015	80.6981
2.5937	81.9046
2.5859	81.3723
2.5782	81.3943
2.5706	81.334
2.5629	81.6245
2.5554	80.8639
2.5478	80.7425
2.5403	80.3742
2.5329	79.345
2.5255	77.961
2.5181	76.748
2.5108	75.892
2.5035	75.5947
2.4963	75.6568
2.4891	75.8796
2.482	76.52
2.4749	76.724
2.4678	77.162
2.4608	77.3557
2.4538	78.074
2.4468	78.5659
2.4399	79.4191
2.4331	80.0475
2.4262	80.7573
2.4194	81.466
2.4127	82.0027
2.4059	82.2352
2.3993	82.7659
2.3926	83.0988
2.386	83.4769
2.3795	84.3865
2.3729	84.7205
2.3664	85.0116
2.36	85.3929
2.3535	85.722
2.3471	85.878
2.3408	85.8936
2.3345	85.6804
2.3282	85.1223
2.3219	84.508
2.3157	83.2934
2.3095	82.7617
2.3034	83.5889
2.2972	83.7434
2.2911	84.034
2.2851	84.5653
2.279	84.9961
2.2731	85.0356
2.2671	85.3543
2.2612	85.9629
2.2553	86.1812
2.2494	86.4587
2.2435	86.9048
2.2377	87.6147
2.232	87.7674
2.2262	88.0718
2.2205	88.3391
2.2148	88.7814
2.2091	88.885
2.2035	88.927
2.1979	88.9139
2.1923	88.8888
2.1868	88.7399
2.1812	89.037
2.1758	89.078
2.1703	88.9703
2.1649	89.1494
2.1595	88.9937
2.1541	88.8258
2.1487	88.4654
2.1434	88.5043
2.1381	88.234
2.1328	88.1158
2.1275	88.3546
2.1223	87.9459
2.1171	87.9306
2.112	87.8096
2.1068	87.8526
2.1017	87.6914
2.0966	87.5994
2.0915	87.4707
2.0865	87.3699
2.0814	87.5813
2.0764	87.4948
2.0715	86.9322
2.0665	87.2014
2.0616	87.2466
2.0567	86.9416
2.0518	87.1388
2.0469	86.2586
2.0421	87.0206
2.0373	86.8591
2.0325	86.9099
2.0277	86.6485
2.0229	86.9005
2.0182	86.9291
2.0135	86.8609
2.0088	87.4308
2.0042	86.5051
