Name: Epidote Ca_2(Al,Fe^3+)_3O.SiO_4.Si_2O_7.OH
Type: Mineral
Class: Silicate
Subclass: Sorosilicate
Particle Size: Fine
Sample No.: SS-1A
Owner: JPL
Wavelength Range: VSWIR
Origin: Mexico, Baja California Norte, Valle De La Trinidad
Description: Particle size was 0-45um.Collected by Burminco Original ASTER Spectral Library name was jpl.beckman.mineral.silicate.sorosilicate.fine.ss01a.spectrum.txt
Measurement: Hemispherical reflectance
X Units: Wavelength (micrometers)
Y Units: Reflectance (percent)
wavelength	value
0.4	19.79
0.403	20.26
0.406	20.63
0.409	21.28
0.412	22.34
0.415	23.36
0.418	24.41
0.421	25.68
0.424	26.75
0.427	27.95
0.43	29.06
0.433	30.17
0.436	31.07
0.439	31.81
0.442	31.96
0.445	32.16
0.448	31.85
0.451	31.11
0.454	30.68
0.457	31.35
0.46	31.86
0.463	31.99
0.466	31.68
0.469	31.3
0.472	31.5
0.475	32.06
0.478	33.06
0.481	34.16
0.484	35.15
0.487	35.93
0.49	36.86
0.493	37.58
0.496	38.24
0.499	38.77
0.502	39.05
0.505	39.43
0.508	39.92
0.511	40.35
0.514	40.59
0.517	40.94
0.52	41.05
0.523	41.26
0.526	41.5
0.529	41.7
0.532	41.74
0.535	41.98
0.538	41.94
0.541	42.22
0.544	42.21
0.547	42.32
0.55	42.26
0.553	42.6
0.556	42.4
0.559	42.54
0.562	42.7
0.565	42.9
0.568	42.79
0.571	42.78
0.574	42.85
0.577	42.82
0.58	42.84
0.583	42.8
0.586	42.74
0.589	42.77
0.592	43.05
0.595	42.98
0.598	43.03
0.601	43.1
0.604	43.17
0.607	43.16
0.61	43.36
0.613	43.36
0.616	43.41
0.619	43.41
0.622	43.45
0.625	43.42
0.628	43.67
0.631	43.79
0.634	43.82
0.637	44.02
0.64	44.07
0.643	44.04
0.646	44.34
0.649	44.39
0.652	44.5
0.655	44.67
0.658	44.62
0.661	44.86
0.664	44.94
0.667	45.08
0.67	45.21
0.673	45.32
0.676	45.38
0.679	45.4
0.682	45.57
0.685	45.71
0.688	45.83
0.691	45.97
0.694	45.97
0.697	46.09
0.7	46.19
0.703	46.23
0.706	46.55
0.709	46.55
0.712	46.67
0.715	46.64
0.718	46.67
0.721	46.69
0.724	46.81
0.727	46.87
0.73	47.04
0.733	46.98
0.736	47.13
0.739	47.07
0.742	47.22
0.745	47.23
0.748	47.21
0.751	47.23
0.754	47.35
0.757	47.35
0.76	47.35
0.763	47.38
0.766	47.43
0.769	47.41
0.772	47.46
0.775	47.64
0.778	47.44
0.781	47.61
0.784	47.52
0.787	47.58
0.79	47.52
0.793	47.61
0.796	47.69
0.799	47.75
0.808	48.19
0.82	48.28
0.832	48.28
0.844	48.62
0.856	48.82
0.868	49.18
0.88	49.27
0.892	49.57
0.904	49.63
0.916	49.75
0.928	49.74
0.94	49.9
0.952	49.84
0.964	49.87
0.976	49.84
0.988	49.83
1	49.75
1.012	49.71
1.024	49.7
1.036	49.63
1.048	49.72
1.06	49.68
1.072	49.81
1.084	49.89
1.096	50.02
1.108	50.27
1.12	50.39
1.132	50.73
1.144	50.79
1.156	51.11
1.168	51.25
1.18	51.55
1.192	51.78
1.204	51.92
1.216	52.08
1.228	52.25
1.24	52.31
1.252	52.57
1.264	52.59
1.276	52.65
1.288	52.81
1.3	52.83
1.312	52.76
1.324	52.94
1.336	52.87
1.348	52.92
1.36	53.08
1.372	52.93
1.384	53.13
1.396	53.04
1.408	52.95
1.42	53.12
1.432	53.11
1.444	53.2
1.456	53.35
1.468	53.14
1.48	53.16
1.492	53.13
1.504	53.12
1.516	53.05
1.528	52.95
1.54	52.66
1.552	52.84
1.564	52.98
1.576	53.05
1.588	53.18
1.6	53.15
1.612	53.26
1.624	53.34
1.636	53.27
1.648	53.46
1.66	53.39
1.672	53.53
1.684	53.56
1.696	53.49
1.708	53.67
1.72	53.61
1.732	53.69
1.744	53.53
1.756	53.59
1.768	53.65
1.78	53.68
1.792	53.72
1.804	53.74
1.816	53.63
1.828	53.74
1.84	53.69
1.852	53.83
1.864	53.7
1.876	53.79
1.888	53.8
1.9	53.7
1.912	53.73
1.924	53.71
1.936	53.72
1.948	53.71
1.96	53.86
1.972	54.02
1.984	54.02
1.996	54.15
2.008	54.24
2.02	54.34
2.032	54.44
2.044	54.38
2.056	54.56
2.068	54.54
2.08	54.54
2.092	54.69
2.104	54.7
2.116	54.81
2.128	54.82
2.14	54.74
2.152	54.64
2.164	54.42
2.176	54.32
2.188	54.22
2.2	54.14
2.212	53.92
2.224	53.55
2.236	52.57
2.248	51.91
2.26	51.79
2.272	51.96
2.284	51.58
2.296	50.14
2.308	47.49
2.32	45.01
2.332	43.44
2.344	44.79
2.356	48.38
2.368	51.32
2.38	52.88
2.392	53.49
2.404	53.82
2.416	53.96
2.428	53.96
2.44	53.84
2.452	53.77
2.464	53.73
2.476	53.52
2.488	53.68
2.5	53.86
