Name: Pyrophyllite Al2Si4010(OH)2
Type: Mineral
Class: Silicate
Subclass: Phyllosilicate
Particle Size: Solid
Sample No.: pyroph_1
Owner: JHU
Wavelength Range: TIR
Origin: Stanley, North Carolina, USA via Bruce Hemingway, USGS
Description: The sample consisted of clusters of white radiating acicular crystals which appeared pure in hand sample and under the petrographic microscope.  Acicular crystals could not be effectively sifted and the coarse fraction was separated from the fine fraction by elutriation in acetone. (Sheet Silicates); Talk/Pyrophyllite Group Original ASTER Spectral Library name was jhu.nicolet.mineral.silicate.phyllosilicate.solid.pyroph1.spectrum.txt
Measurement: Bidirectional reflectance
X Units: Wavelength (micrometers)
Y Units: Reflectance (percent)
wavelength	value
25.0442	12.914
24.3388	14.2295
23.6719	13.6777
23.0407	13.9931
22.4422	16.2304
21.8741	19.8281
21.334	23.829
20.8199	27.2033
20.33	23.6835
19.8627	18.9047
19.4163	17.59
18.9896	22.5021
18.5812	29.9604
18.19	36.4652
17.815	37.4989
17.4551	34.1444
17.1094	25.1562
16.7772	29.0351
16.4576	33.4399
16.15	23.184
15.8537	22.5549
15.568	13.2382
15.2925	9.4575
15.0265	8.4707
14.7697	8.6294
14.5214	9.1142
14.2814	9.5908
14.0492	9.9555
13.8244	10.2451
13.6067	10.1338
13.3957	10.4936
13.1912	10.9455
12.9929	11.299
12.8004	11.6526
12.6135	11.8647
12.432	11.7375
12.2557	11.8122
12.0843	12.1953
11.9176	10.5051
11.7555	11.04
11.5977	9.9963
11.444	11.2075
11.2944	12.0207
11.1487	12.3591
11.0067	12.4736
10.8682	13.2378
10.7332	14.042
10.6015	15.9477
10.473	19.4399
10.3476	10.5801
10.2251	9.5366
10.1056	11.4995
9.9887	12.7922
9.8746	13.7072
9.763	14.736
9.6539	16.0649
9.5472	19.7001
9.4429	22.9726
9.3408	27.0888
9.2409	29.3693
9.1431	31.0558
9.0474	29.8739
8.9536	23.987
8.8618	34.89
8.7718	38.5993
8.6837	41.6034
8.5973	42.402
8.5126	40.2919
8.4295	35.8236
8.3481	33.2638
8.2682	31.7182
8.1898	30.1017
8.1129	28.3998
8.0374	26.3034
7.9634	23.1672
7.8906	19.1416
7.8192	14.6709
7.7491	9.9734
7.6802	5.9824
7.6126	3.5185
7.5461	3.2666
7.4807	3.6877
7.4165	4.3115
7.3534	4.9241
7.2914	5.4563
7.2303	5.9902
7.1703	6.4394
7.1113	6.9538
7.0533	7.4682
6.9962	8.0351
6.94	8.3037
6.8847	8.6462
6.8302	8.9109
6.7767	9.3694
6.7239	9.8889
6.672	10.3051
6.6209	10.3904
6.5705	10.3474
6.5209	10.5591
6.4721	10.7439
6.424	11.0981
6.3766	11.2932
6.3299	11.6064
6.2838	12.1052
6.2385	12.4074
6.1937	12.4538
6.1496	12.3786
6.1062	12.3445
6.0633	12.572
6.0211	13.135
5.9794	13.0363
5.9383	12.5049
5.8978	12.3952
5.8578	12.2824
5.8184	11.4594
5.7794	11.1418
5.741	11.062
5.7031	11.3825
5.6657	11.9316
5.6288	12.3972
5.5924	12.571
5.5564	12.4868
5.5209	12.5293
5.4859	12.3501
5.4513	12.1814
5.4171	12.0774
5.3833	11.8867
5.35	11.3025
5.3171	10.8808
5.2846	10.6845
5.2524	11.5053
5.2207	12.2102
5.1893	12.511
5.1584	13.165
5.1277	13.6574
5.0975	13.5844
5.0676	13.5161
5.038	13.3935
5.0088	13.4067
4.98	13.6948
4.9514	14.6198
4.9232	15.4406
4.8953	16.3535
4.8678	17.458
4.8405	18.196
4.8135	18.4353
4.7868	18.6347
4.7605	19.0141
4.7344	19.3288
4.7086	19.5251
4.6831	19.9011
4.6578	20.3249
4.6328	20.7185
4.6081	20.9951
4.5837	20.8178
4.5595	20.8613
4.5356	21.144
4.5119	21.3937
4.4884	21.7272
4.4652	22.07
4.4423	22.7138
4.4196	23.0056
4.3971	23.018
4.3748	23.2319
4.3528	23.1601
4.331	22.8422
4.3094	22.2646
4.288	21.6779
4.2668	21.7519
4.2458	21.7983
4.2251	21.9435
4.2045	23.9111
4.1841	24.8727
4.164	24.9335
4.144	24.9843
4.1242	25.0085
4.1046	25.0327
4.0852	25.0732
4.066	25.0788
4.047	25.1108
4.0281	25.1613
4.0094	25.1684
3.9909	25.205
3.9725	25.2336
3.9544	25.2411
3.9363	25.2556
3.9185	25.2863
3.9008	25.278
3.8833	25.2961
3.8659	25.2978
3.8487	25.2997
3.8316	25.2651
3.8147	25.2084
3.7979	25.1784
3.7813	25.1642
3.7648	25.1552
3.7485	25.1479
3.7323	25.1179
3.7162	24.9943
3.7003	24.6215
3.6845	23.5524
3.6689	23.4609
3.6534	24.1613
3.638	24.956
3.6227	25.3268
3.6076	25.4235
3.5926	25.3456
3.5777	25.3488
3.563	25.4279
3.5484	25.4518
3.5338	25.3964
3.5195	25.11
3.5052	24.0766
3.491	24.8032
3.477	25.0729
3.463	25.0944
3.4492	24.7944
3.4355	24.2731
3.4219	23.1733
3.4084	23.7316
3.395	24.5827
3.3817	24.6891
3.3685	25.0248
3.3554	25.3559
3.3425	25.4904
3.3296	25.498
3.3168	25.5151
3.3041	25.5055
3.2915	25.4203
3.279	25.4743
3.2666	25.5956
3.2543	25.5693
3.2421	25.4472
3.23	25.4243
3.218	25.4086
3.206	25.3198
3.1942	25.2607
3.1824	25.0849
3.1707	24.7617
3.1591	24.7116
3.1476	24.83
3.1362	24.7831
3.1249	24.6725
3.1136	24.3925
3.1024	24.0546
3.0913	23.9387
3.0803	23.7285
3.0694	23.5161
3.0585	23.3276
3.0477	23.1996
3.037	22.9374
3.0264	22.7192
3.0158	22.2773
3.0053	21.7302
2.9949	21.58
2.9845	21.2446
2.9743	20.9726
2.9641	21.3481
2.9539	21.8066
2.9439	22.1501
2.9339	21.9057
2.9239	21.1061
2.9141	21.3671
2.9043	21.4247
2.8946	20.9892
2.8849	20.8437
2.8753	20.186
2.8658	19.8876
2.8563	19.9707
2.8469	20.1005
2.8375	20.5773
2.8282	20.9135
2.819	20.788
2.8098	20.2678
2.8007	20.0922
2.7917	19.8293
2.7827	18.8645
2.7738	19.364
2.7649	18.2602
2.7561	17.9785
2.7473	16.3137
2.7386	15.0879
2.7299	14.2937
2.7213	14.1894
2.7128	15.0097
2.7043	15.8176
2.6959	17.2824
2.6875	18.6254
2.6791	19.2941
2.6709	19.6928
2.6626	20.2167
2.6545	20.4755
2.6463	20.5795
2.6382	20.4702
2.6302	20.4287
2.6222	20.3596
2.6143	19.7729
2.6064	19.3823
2.5986	19.228
2.5908	19.8012
2.583	20.2485
2.5753	20.5009
2.5677	20.3254
2.5601	20.51
2.5525	20.4086
2.545	20.4326
2.5375	20.9221
2.5301	20.8105
2.5227	20.5683
2.5154	20.2324
2.5081	20.052
2.5008	20.0891
2.4936	20.0361
2.4864	20.1767
2.4793	20.3964
2.4722	20.7646
2.4651	20.8586
2.4581	20.8466
2.4511	20.8032
2.4442	20.7434
2.4373	20.6193
2.4305	20.5695
2.4236	20.6518
2.4169	20.8703
2.4101	20.8456
2.4034	20.6943
2.3967	20.666
2.3901	20.4113
2.3835	20.7998
2.377	21.454
2.3704	21.4728
2.364	21.2629
2.3575	21.1132
2.3511	20.9667
2.3447	20.9663
2.3384	21.4599
2.3321	21.184
2.3258	20.436
2.3195	20.041
2.3133	20.3583
2.3071	20.8759
2.301	21.1171
2.2949	21.3081
2.2888	21.5488
2.2828	21.7724
2.2767	22.27
2.2708	22.6591
2.2648	22.8256
2.2589	22.9653
2.253	23.143
2.2471	23.2763
2.2413	23.3212
2.2355	23.4101
2.2297	23.4399
2.224	23.0312
2.2183	22.7597
2.2126	23.039
2.207	23.1059
2.2013	22.6586
2.1957	23.0058
2.1902	22.7431
2.1846	22.1425
2.1791	20.6762
2.1736	18.0317
2.1682	15.3637
2.1628	16.3281
2.1574	19.4511
2.152	21.124
2.1466	22.3398
2.1413	22.975
2.136	23.2739
2.1308	23.5449
2.1255	23.8364
2.1203	24.1664
2.1151	24.4316
2.11	24.6703
2.1048	24.748
2.0997	24.7031
2.0946	24.7211
2.0895	24.5761
2.0845	24.3173
2.0795	24.2446
