Name: Calcite CaCO_3
Type: Mineral
Class: Carbonate
Subclass: None
Particle Size: Medium
Sample No.: C-3D
Owner: JPL
Wavelength Range: TIR
Origin: United Kingdom, England
Description: Particle size was 45-125um.Collected by Ward's Original ASTER Spectral Library name was jpl.nicolet.mineral.carbonate.none.medium.c03d.spectrum.txt
Measurement: Hemispherical reflectance
X Units: Wavelength (micrometers)
Y Units: Reflectance (percent)
wavelength	value
15.3853	17.6451
15.1161	19.4862
14.8563	20.5255
14.6052	20.7295
14.3624	16.9667
14.1276	4.6764
13.9004	4.4271
13.6803	19.4726
13.4671	24.2478
13.2604	24.7308
13.06	22.655
12.8656	20.4805
12.6769	21.2785
12.4936	22.0707
12.3155	23.7483
12.1425	24.7008
11.9742	23.4573
11.8106	10.4658
11.6513	13.8502
11.4963	4.4472
11.3454	5.2337
11.1983	19.9683
11.0551	23.7827
10.9154	23.5481
10.7793	21.9926
10.6465	20.3702
10.5169	20.3808
10.3904	20.7307
10.267	18.3851
10.1464	15.4452
10.0287	13
9.9136	11.1179
9.8012	10.6369
9.6913	10.794
9.5838	11.3837
9.4787	12.1223
9.3758	12.2403
9.2752	12.5902
9.1767	12.9654
9.0803	14.9725
8.9858	16.2985
8.8934	16.9262
8.8028	17.34
8.714	15.7619
8.627	12.8529
8.5417	12.1078
8.4581	12.2357
8.3761	14.4353
8.2957	16.4076
8.2169	17.3783
8.1395	16.8004
8.0635	15.5837
7.989	16.2816
7.9158	14.9244
7.8439	14.5316
7.7734	13.5642
7.7041	12.6512
7.636	10.288
7.5691	9.4992
7.5034	9.1915
7.4388	8.3488
7.3753	7.6693
7.3129	6.4773
7.2515	5.9361
7.1912	5.9241
7.1318	6.4675
7.0734	7.5152
7.016	7.2715
6.9595	7.6015
6.9039	8.065
6.8492	8.7613
6.7953	9.4588
6.7423	10.4871
6.6901	12.0396
6.6387	13.8525
6.5881	15.1227
6.5382	15.2392
6.4892	15.3251
6.4408	14.5862
6.3931	10.6361
6.3462	7.6574
6.2999	4.7133
6.2543	4.7989
6.2094	4.2149
6.1651	3.8919
6.1214	3.738
6.0784	3.8885
6.0359	4.3234
5.994	5.0992
5.9527	5.4628
5.912	6.2342
5.8718	7.1452
5.8322	7.1644
5.7931	6.9613
5.7545	6.6568
5.7165	8.0024
5.6789	9.5854
5.6418	12.0572
5.6052	7.082
5.5691	0.993
5.5334	7.3423
5.4982	18.7021
5.4635	26.0094
5.4291	32.2314
5.3952	37.5619
5.3618	42.3162
5.3287	46.0126
5.2961	49.6337
5.2638	51.9432
5.2319	54.1667
5.2004	55.7917
5.1693	56.8737
5.1386	57.8729
5.1082	52.3069
5.0782	58.5847
5.0485	59.9481
5.0192	59.9241
4.9902	59.5464
4.9616	59.3216
4.9332	59.1333
4.9052	59.2631
4.8776	59.5651
4.8502	59.6451
4.8231	59.6937
4.7963	59.5034
4.7699	58.6697
4.7437	55.9402
4.7178	48.9047
4.6922	38.0997
4.6668	35.6559
4.6418	41.7371
4.617	49.0684
4.5924	51.3292
4.5681	51.9943
4.5441	52.3299
4.5203	52.5855
4.4968	53.4066
4.4735	55.8518
4.4505	57.9053
4.4277	59.9751
4.4051	60.9709
4.3828	61.6394
4.3607	60.8903
4.3388	59.7706
4.3171	59.6273
4.2956	60.1614
4.2744	58.1939
4.2534	59.2978
4.2325	59.2088
4.2119	58.7758
4.1915	57.856
4.1712	56.4646
4.1512	54.5753
4.1313	51.611
4.1117	48.226
4.0922	44.4492
4.0729	39.4763
4.0538	32.8781
4.0349	20.9003
4.0161	12.6969
3.9976	5.3039
3.9792	3.3539
3.9609	4.2362
3.9428	8.608
3.9249	11.475
3.9072	12.8456
3.8896	13.6329
3.8722	14.0164
3.8549	14.7101
3.8378	16.8052
3.8208	23.3148
3.804	33.0145
3.7873	46.7192
3.7708	51.8946
3.7544	53.8686
3.7382	55.2643
3.7221	56.4308
3.7061	56.8005
3.6903	56.8506
3.6746	56.3607
3.659	55.7809
3.6436	54.911
3.6283	53.7728
3.6131	52.2582
3.5981	49.9875
3.5832	45.8055
3.5684	41.7765
3.5537	40.4221
3.5391	34.632
3.5247	23.1294
3.5104	14.4236
3.4962	11.2698
3.4821	8.7941
3.4681	11.5659
3.4543	16.5724
3.4405	17.1687
3.4269	17.2529
3.4133	17.04
3.3999	16.5616
3.3866	15.7525
3.3733	15.1052
3.3602	13.5073
3.3472	13.022
3.3343	27.1751
3.3215	33.8891
3.3088	36.294
3.2961	37.3865
3.2836	38.103
3.2712	38.4211
3.2588	38.3507
3.2466	38.2597
3.2345	37.9891
3.2224	37.6998
3.2104	37.3696
3.1985	36.8218
3.1867	36.4518
3.175	35.7043
3.1634	34.6264
3.1519	33.7579
3.1404	33.3809
3.129	33.2008
3.1178	32.425
3.1065	31.9164
3.0954	32.122
3.0844	32.0964
3.0734	32.1989
3.0625	31.9083
3.0517	31.9909
3.041	31.9054
3.0303	31.8508
3.0197	31.7215
3.0092	31.7773
2.9987	31.5113
2.9884	31.51
2.9781	31.4432
2.9678	31.2811
2.9577	31.259
2.9476	31.2246
2.9376	31.523
2.9276	31.7071
2.9177	31.7473
2.9079	32.2897
2.8982	32.4823
2.8885	32.9954
2.8789	33.6742
2.8693	34.1944
2.8598	34.7037
2.8504	35.6335
2.841	36.263
2.8317	36.8737
2.8224	37.6003
2.8133	38.2555
2.8041	39.0934
2.7951	38.6294
2.786	38.8313
2.7771	40.6917
2.7682	42.9198
2.7594	44.0908
2.7506	46.4965
2.7418	50.5613
2.7332	54.5512
2.7246	60.1266
2.716	64.6315
2.7075	69.4681
2.699	73.5191
2.6906	77.3494
2.6823	79.9112
2.674	81.4051
2.6657	83.5081
2.6575	82.9335
2.6494	83.5506
2.6413	84.0156
2.6332	84.5326
2.6252	84.8098
2.6173	85.4803
2.6094	85.0681
2.6015	84.685
2.5937	85.2039
2.5859	83.5594
2.5782	82.8163
2.5706	81.9275
2.5629	79.8969
2.5554	75.0292
2.5478	69.351
2.5403	64.9334
2.5329	64.9945
2.5255	67.6376
2.5181	70.3219
2.5108	71.5681
2.5035	72.2424
2.4963	72.7109
2.4891	73.3659
2.482	74.6489
2.4749	76.595
2.4678	78.6773
2.4608	80.665
2.4538	82.1146
2.4468	83.1906
2.4399	84.2701
2.4331	85.1364
2.4262	86.0292
2.4194	86.5841
2.4127	87.0372
2.4059	87.2282
2.3993	87.2594
2.3926	87.5894
2.386	87.7522
2.3795	87.339
2.3729	86.7523
2.3664	85.4894
2.36	82.7102
2.3535	79.4009
2.3471	76.9523
2.3408	75.9991
2.3345	76.4557
2.3282	78.0727
2.3219	79.7209
2.3157	80.7302
2.3095	81.2572
2.3034	81.7239
2.2972	82.2743
2.2911	82.8021
2.2851	84.0476
2.279	85.1365
2.2731	86.2728
2.2671	87.1986
2.2612	87.8011
2.2553	88.3727
2.2494	88.7136
2.2435	89.3192
2.2377	89.6038
2.232	89.9097
2.2262	90.0291
2.2205	90.4466
2.2148	90.5617
2.2091	90.5886
2.2035	90.9615
2.1979	90.8827
2.1923	90.9541
2.1868	91.2406
2.1812	90.9534
2.1758	90.9941
2.1703	90.8016
2.1649	90.5537
2.1595	90.6297
2.1541	90.4999
2.1487	90.6362
2.1434	90.8845
2.1381	90.9036
2.1328	91.105
2.1275	91.117
2.1223	91.5297
2.1171	91.3396
2.112	91.2557
2.1068	91.2744
2.1017	91.5992
2.0966	91.3003
2.0915	91.3884
2.0865	91.2074
2.0814	91.4473
2.0764	91.0997
2.0715	91.3055
2.0665	91.422
2.0616	91.2055
2.0567	91.3978
2.0518	91.1559
2.0469	90.8895
2.0421	91.0987
2.0373	90.8108
2.0325	90.6948
2.0277	90.9369
2.0229	90.5666
2.0182	90.5954
2.0135	90.1129
2.0088	89.9343
2.0042	89.7474
