Name: Quartz SiO_2
Type: Mineral
Class: Silicate
Subclass: Tectosilicate
Particle Size: Coarse
Sample No.: TS-1A
Owner: JPL
Wavelength Range: TIR
Origin: USA, Arkansas, Montgomery County, Mount Ida
Description: Rock crystal.Particle size as 125-500um.Collected by Burminco Original ASTER Spectral Library name was jpl.nicolet.mineral.silicate.tectosilicate.coarse.ts01a.spectrum.txt
Measurement: Hemispherical reflectance
X Units: Wavelength (micrometers)
Y Units: Reflectance (percent)
wavelength	value
15.3853	3.9461
15.1161	4.2585
14.8563	4.234
14.6052	4.6501
14.3624	4.7261
14.1276	4.0092
13.9004	4.5731
13.6803	5.0509
13.4671	5.7192
13.2604	6.1877
13.06	7.8315
12.8656	13.687
12.6769	10.5742
12.4936	13.258
12.3155	1.5376
12.1425	1.8498
11.9742	3.0089
11.8106	3.6633
11.6513	4.1856
11.4963	4.6961
11.3454	4.9782
11.1983	5.4061
11.0551	5.821
10.9154	6.3049
10.7793	6.6102
10.6465	6.9779
10.5169	7.5221
10.3904	8.0118
10.267	8.7827
10.1464	9.5588
10.0287	10.454
9.9136	11.6202
9.8012	13.4041
9.6913	15.7817
9.5838	19.1377
9.4787	25.7211
9.3758	41.9816
9.2752	57.059
9.1767	60.215
9.0803	61.7754
8.9858	62.6817
8.8934	62.5136
8.8028	59.9296
8.714	55.2116
8.627	35.2368
8.5417	56.1453
8.4581	57.5118
8.3761	55.083
8.2957	52.9276
8.2169	50.2314
8.1395	39.8432
8.0635	24.8565
7.989	15.2783
7.9158	8.328
7.8439	4.309
7.7734	2.6102
7.7041	1.343
7.636	0.6589
7.5691	0.2314
7.5034	0.1646
7.4388	0.0636
7.3753	0.0256
7.3129	0.056
7.2515	0.0466
7.1912	0.1348
7.1318	0.1607
7.0734	0.2393
7.016	0.3377
6.9595	0.4788
6.9039	0.4126
6.8492	0.5564
6.7953	0.6453
6.7423	0.5803
6.6901	0.6289
6.6387	0.7257
6.5881	0.6931
6.5382	0.73
6.4892	1.0693
6.4408	1.2352
6.3931	1.1431
6.3462	1.0058
6.2999	1.0384
6.2543	0.992
6.2094	0.8688
6.1651	0.9824
6.1214	1.082
6.0784	1.3897
6.0359	1.4639
5.994	1.2808
5.9527	1.2236
5.912	1.2291
5.8718	1.4875
5.8322	1.912
5.7931	2.1643
5.7545	2.5651
5.7165	2.8451
5.6789	2.5157
5.6418	1.7148
5.6052	1.6335
5.5691	1.5911
5.5334	1.6158
5.4982	1.7857
5.4635	2.1071
5.4291	1.8608
5.3952	1.5438
5.3618	1.3756
5.3287	1.5157
5.2961	1.4623
5.2638	1.4864
5.2319	1.6758
5.2004	2.0987
5.1693	1.9568
5.1386	2.1305
5.1082	2.0267
5.0782	1.8267
5.0485	1.8298
5.0192	1.7771
4.9902	1.852
4.9616	2.2645
4.9332	2.7124
4.9052	4.1979
4.8776	8.4333
4.8502	12.8422
4.8231	16.4615
4.7963	19.3437
4.7699	22.0646
4.7437	24.1205
4.7178	24.4646
4.6922	20.1831
4.6668	21.0689
4.6418	26.8668
4.617	31.536
4.5924	33.5322
4.5681	33.3675
4.5441	29.6018
4.5203	22.9189
4.4968	16.5933
4.4735	14.9284
4.4505	16.0885
4.4277	17.9998
4.4051	20.636
4.3828	24.6258
4.3607	29.3486
4.3388	32.7017
4.3171	33.4942
4.2956	32.6852
4.2744	33.7982
4.2534	35.7477
4.2325	35.155
4.2119	35.3633
4.1915	35.4527
4.1712	37.2981
4.1512	38.8585
4.1313	40.6196
4.1117	42.9379
4.0922	45.2484
4.0729	47.1995
4.0538	47.8344
4.0349	47.4398
4.0161	46.9787
3.9976	47.3137
3.9792	48.4733
3.9609	50.2534
3.9428	52.019
3.9249	53.2557
3.9072	53.1207
3.8896	51.9663
3.8722	50.5706
3.8549	50.0309
3.8378	50.3361
3.8208	51.3006
3.804	52.0427
3.7873	51.7026
3.7708	50.621
3.7544	49.4663
3.7382	49.3311
3.7221	50.3613
3.7061	52.4806
3.6903	55.166
3.6746	58.153
3.659	60.2542
3.6436	61.5405
3.6283	61.8304
3.6131	62.1522
3.5981	62.8614
3.5832	63.7113
3.5684	64.9492
3.5537	66.3529
3.5391	67.8522
3.5247	69.3462
3.5104	70.3156
3.4962	71.0792
3.4821	72.6569
3.4681	73.6202
3.4543	74.0378
3.4405	73.9936
3.4269	73.0486
3.4133	72.2625
3.3999	73.1146
3.3866	73.4203
3.3733	73.4755
3.3602	74.6317
3.3472	75.0986
3.3343	75.18
3.3215	74.989
3.3088	74.4651
3.2961	74.0532
3.2836	73.6496
3.2712	73.454
3.2588	73.365
3.2466	73.1256
3.2345	73.003
3.2224	72.737
3.2104	72.3191
3.1985	71.9299
3.1867	71.3836
3.175	71.0269
3.1634	70.4569
3.1519	69.4515
3.1404	67.362
3.129	66.1814
3.1178	66.3217
3.1065	67.1058
3.0954	67.6297
3.0844	67.2481
3.0734	66.6573
3.0625	65.5521
3.0517	63.7952
3.041	61.5176
3.0303	59.8746
3.0197	59.1342
3.0092	59.7608
2.9987	61.338
2.9884	61.7633
2.9781	59.5293
2.9678	52.6376
2.9577	49.1282
2.9476	54.5443
2.9376	57.4699
2.9276	58.584
2.9177	58.1571
2.9079	59.0194
2.8982	62.3555
2.8885	64.7671
2.8789	65.0241
2.8693	63.0392
2.8598	67.2294
2.8504	67.7371
2.841	69.1089
2.8317	70.8622
2.8224	71.9809
2.8133	72.9216
2.8041	74.0487
2.7951	74.4048
2.786	75.0582
2.7771	75.5288
2.7682	76.8291
2.7594	77.0857
2.7506	78.553
2.7418	79.7036
2.7332	80.4219
2.7246	82.0147
2.716	82.567
2.7075	82.9355
2.699	83.65
2.6906	84.6859
2.6823	85.0549
2.674	85.5173
2.6657	86.2151
2.6575	85.6128
2.6494	85.7233
2.6413	85.8127
2.6332	85.9945
2.6252	85.8351
2.6173	86.2826
2.6094	85.8864
2.6015	85.9868
2.5937	86.2519
2.5859	85.9978
2.5782	85.6601
2.5706	85.8409
2.5629	85.9781
2.5554	85.7465
2.5478	85.9828
2.5403	86.0077
2.5329	86.1644
2.5255	86.2372
2.5181	86.3046
2.5108	86.1091
2.5035	86.1212
2.4963	86.3464
2.4891	86.2328
2.482	86.3648
2.4749	86.3061
2.4678	86.4641
2.4608	86.4444
2.4538	86.589
2.4468	86.5581
2.4399	86.6631
2.4331	86.6687
2.4262	86.608
2.4194	86.7937
2.4127	86.6565
2.4059	86.7976
2.3993	86.6076
2.3926	86.7789
2.386	86.6775
2.3795	86.8299
2.3729	86.8692
2.3664	86.9959
2.36	86.8469
2.3535	86.9413
2.3471	86.9722
2.3408	86.9825
2.3345	87.0154
2.3282	87.0021
2.3219	86.8861
2.3157	86.977
2.3095	86.9063
2.3034	87.0155
2.2972	86.7904
2.2911	87.0521
2.2851	87.0502
2.279	87.0677
2.2731	86.936
2.2671	86.9725
2.2612	87.1863
2.2553	87.0396
2.2494	87.0005
2.2435	86.9105
2.2377	87.0158
2.232	86.8943
2.2262	86.9168
2.2205	86.9477
2.2148	86.7977
2.2091	86.7846
2.2035	86.8066
2.1979	86.8816
2.1923	86.6313
2.1868	86.9511
2.1812	86.8911
2.1758	86.9067
2.1703	86.9863
2.1649	87.0928
2.1595	86.7972
2.1541	86.9777
2.1487	87.1532
2.1434	87.1148
2.1381	87.0612
2.1328	86.9891
2.1275	87.0889
2.1223	87.1899
2.1171	87.0383
2.112	86.9161
2.1068	87.0899
2.1017	87.0358
2.0966	86.836
2.0915	87.1487
2.0865	86.6944
2.0814	87.0155
2.0764	87.0897
2.0715	87.0935
2.0665	86.9241
2.0616	86.8576
2.0567	86.821
2.0518	86.8262
2.0469	86.7811
2.0421	86.8086
2.0373	86.8204
2.0325	86.9338
2.0277	87.1885
2.0229	87.1448
2.0182	86.6894
2.0135	86.746
2.0088	86.9095
2.0042	86.8396
