Name: Rutile TiO_2
Type: Mineral
Class: Oxide
Subclass: None
Particle Size: Medium
Sample No.: O-2A
Owner: JPL
Wavelength Range: VSWIR
Description: Particle size was 45-125um.Collected by JPL Original ASTER Spectral Library name was jpl.beckman.mineral.oxide.none.medium.o02a.spectrum.txt
Measurement: Hemispherical reflectance
X Units: Wavelength (micrometers)
Y Units: Reflectance (percent)
wavelength	value
0.4	9.73
0.403	9.65
0.406	9.59
0.409	9.52
0.412	9.42
0.415	9.53
0.418	9.47
0.421	9.39
0.424	9.53
0.427	9.45
0.43	9.39
0.433	9.3
0.436	9.44
0.439	9.33
0.442	9.33
0.445	9.35
0.448	9.23
0.451	9.33
0.454	9.36
0.457	9.33
0.46	9.33
0.463	9.31
0.466	9.26
0.469	9.32
0.472	9.38
0.475	9.37
0.478	9.32
0.481	9.35
0.484	9.38
0.487	9.53
0.49	9.39
0.493	9.39
0.496	9.63
0.499	9.72
0.502	9.64
0.505	9.63
0.508	9.75
0.511	9.88
0.514	9.83
0.517	9.81
0.52	9.66
0.523	9.94
0.526	9.97
0.529	9.99
0.532	10.06
0.535	10.12
0.538	10.25
0.541	10.3
0.544	10.34
0.547	10.34
0.55	10.57
0.553	10.55
0.556	10.55
0.559	10.64
0.562	10.94
0.565	11.02
0.568	11.03
0.571	11.14
0.574	11.19
0.577	11.3
0.58	11.39
0.583	11.43
0.586	11.71
0.589	11.79
0.592	11.96
0.595	12.01
0.598	12.08
0.601	12.16
0.604	12.39
0.607	12.48
0.61	12.54
0.613	12.71
0.616	12.77
0.619	12.9
0.622	13.05
0.625	13.31
0.628	13.38
0.631	13.52
0.634	13.63
0.637	13.57
0.64	13.76
0.643	13.9
0.646	13.9
0.649	14.13
0.652	14.25
0.655	14.3
0.658	14.5
0.661	14.7
0.664	14.7
0.667	14.96
0.67	15.04
0.673	15.15
0.676	15.37
0.679	15.46
0.682	15.62
0.685	15.64
0.688	15.86
0.691	15.9
0.694	16.06
0.697	16.07
0.7	16.2
0.703	16.38
0.706	16.61
0.709	16.66
0.712	16.75
0.715	16.88
0.718	16.96
0.721	17.15
0.724	17.25
0.727	17.42
0.73	17.59
0.733	17.78
0.736	17.81
0.739	17.92
0.742	18.06
0.745	18.11
0.748	18.35
0.751	18.43
0.754	18.62
0.757	18.71
0.76	18.86
0.763	19
0.766	19.15
0.769	19.22
0.772	19.5
0.775	19.71
0.778	19.72
0.781	19.88
0.784	20.13
0.787	20.14
0.79	20.42
0.793	20.48
0.796	20.58
0.799	20.7
0.808	21.43
0.82	21.89
0.832	22.46
0.844	22.92
0.856	23.31
0.868	23.72
0.88	24.25
0.892	24.67
0.904	24.97
0.916	25.27
0.928	25.66
0.94	25.99
0.952	26.18
0.964	26.33
0.976	26.4
0.988	26.6
1	26.66
1.012	26.82
1.024	26.84
1.036	26.76
1.048	26.76
1.06	26.76
1.072	26.8
1.084	26.86
1.096	26.79
1.108	26.67
1.12	26.58
1.132	26.56
1.144	26.54
1.156	26.48
1.168	26.31
1.18	26.19
1.192	26.18
1.204	26.21
1.216	26.09
1.228	25.97
1.24	26.08
1.252	26.12
1.264	26.07
1.276	25.99
1.288	26.07
1.3	26.14
1.312	26.15
1.324	26.1
1.336	26.08
1.348	26.21
1.36	26.29
1.372	26.35
1.384	26.2
1.396	26.21
1.408	26.43
1.42	26.53
1.432	26.49
1.444	26.53
1.456	26.61
1.468	26.67
1.48	26.74
1.492	26.7
1.504	26.76
1.516	26.76
1.528	26.88
1.54	27.02
1.552	26.94
1.564	26.99
1.576	27.07
1.588	27.13
1.6	27.31
1.612	27.3
1.624	27.3
1.636	27.48
1.648	27.57
1.66	27.62
1.672	27.73
1.684	27.8
1.696	27.85
1.708	28.01
1.72	28.12
1.732	28.25
1.744	28.34
1.756	28.47
1.768	28.49
1.78	28.59
1.792	28.72
1.804	28.91
1.816	28.99
1.828	29.13
1.84	29.15
1.852	29.29
1.864	29.41
1.876	29.53
1.888	29.62
1.9	29.73
1.912	29.7
1.924	29.85
1.936	29.98
1.948	30.16
1.96	30.23
1.972	30.35
1.984	30.48
1.996	30.56
2.008	30.85
2.02	31.03
2.032	31.04
2.044	31.14
2.056	31.23
2.068	31.38
2.08	31.5
2.092	31.58
2.104	31.72
2.116	31.94
2.128	31.98
2.14	32.01
2.152	32.06
2.164	32.16
2.176	32.28
2.188	32.26
2.2	32.26
2.212	32.39
2.224	32.49
2.236	32.65
2.248	32.58
2.26	32.66
2.272	32.66
2.284	32.45
2.296	32.23
2.308	32.58
2.32	32.97
2.332	33.26
2.344	33.51
2.356	33.66
2.368	33.68
2.38	33.67
2.392	33.66
2.404	33.96
2.416	34.01
2.428	34
2.44	34.1
2.452	34.18
2.464	34.1
2.476	34.15
2.488	34.4
2.5	34.85
