Name: Jadeite Na(Al,Fe+3)Si2O6
Type: Mineral
Class: Silicate
Subclass: Inosilicate
Particle Size: Solid
Sample No.: jadeite_1
Owner: JHU
Wavelength Range: TIR
Origin: Tibet, China via the Smithsonian (sample no. NMNH B18463).
Description: The sample was a single 1 cm x 4 cm piece weighing 11.5 g. No impurities were apparent, but one edge was weathered and coated with a light tan material which was easily removed by grinding.  Under the microscope the sample appeared pure. sample had fracture surface.(Chain Silicates); (Pyroxene Group) Original ASTER Spectral Library name was jhu.nicolet.mineral.silicate.inosilicate.solid.jadeit1.spectrum.txt
Measurement: Bidirectional reflectance
X Units: Wavelength (micrometers)
Y Units: Reflectance (percent)
wavelength	value
25.0442	6.2666
24.3388	5.1631
23.6719	6.1352
23.0407	7.2846
22.4422	6.5603
21.8741	8.0845
21.334	9.2114
20.8199	9.1887
20.33	7.7549
19.8627	8.2881
19.4163	9.0444
18.9896	9.7229
18.5812	10.1435
18.19	8.1047
17.815	7.9306
17.4551	9.3003
17.1094	10.6032
16.7772	10.393
16.4576	9.2112
16.15	7.5176
15.8537	5.8996
15.568	3.0911
15.2925	1.7539
15.0265	2.1494
14.7697	1.79
14.5214	1.2778
14.2814	1.4324
14.0492	1.679
13.8244	1.8713
13.6067	2.0373
13.3957	2.1804
13.1912	2.0017
12.9929	2.2087
12.8004	2.3088
12.6135	2.4062
12.432	2.5149
12.2557	2.6482
12.0843	2.8205
11.9176	3.0508
11.7555	3.4067
11.5977	3.2195
11.444	3.1643
11.2944	3.5737
11.1487	4.0063
11.0067	4.4043
10.8682	4.8191
10.7332	5.1775
10.6015	5.4465
10.473	5.7231
10.3476	5.987
10.2251	5.866
10.1056	5.9504
9.9887	6.3508
9.8746	6.8764
9.763	7.469
9.6539	8.1538
9.5472	9.372
9.4429	9.5105
9.3408	10.9614
9.2409	11.2395
9.1431	11.4101
9.0474	11.2715
8.9536	9.8562
8.8618	8.8872
8.7718	8.4265
8.6837	8.2138
8.5973	8.0671
8.5126	8.0427
8.4295	7.1799
8.3481	5.4597
8.2682	3.7842
8.1898	2.4741
8.1129	1.5059
8.0374	0.8298
7.9634	0.511
7.8906	0.5071
7.8192	0.573
7.7491	0.6436
7.6802	0.7283
7.6126	0.801
7.5461	0.8564
7.4807	0.9182
7.4165	0.9885
7.3534	1.0398
7.2914	1.0896
7.2303	1.1206
7.1703	1.1519
7.1113	1.1811
7.0533	1.2073
6.9962	1.27
6.94	1.332
6.8847	1.4243
6.8302	1.5002
6.7767	1.5803
6.7239	1.6152
6.672	1.6355
6.6209	1.6313
6.5705	1.6103
6.5209	1.636
6.4721	1.6687
6.424	1.6743
6.3766	1.6943
6.3299	1.7363
6.2838	1.7815
6.2385	1.8093
6.1937	1.7698
6.1496	1.6245
6.1062	1.5969
6.0633	1.6499
6.0211	1.6377
5.9794	1.6948
5.9383	1.7725
5.8978	1.8364
5.8578	1.8389
5.8184	1.7676
5.7794	1.6553
5.741	1.5505
5.7031	1.5442
5.6657	1.5676
5.6288	1.5915
5.5924	1.6013
5.5564	1.6619
5.5209	1.6902
5.4859	1.6916
5.4513	1.7627
5.4171	1.9709
5.3833	2.2768
5.35	2.5383
5.3171	2.7395
5.2846	2.7913
5.2524	2.8047
5.2207	2.8264
5.1893	2.8647
5.1584	2.9119
5.1277	2.8843
5.0975	2.8733
5.0676	2.9314
5.038	2.9538
5.0088	2.9768
4.98	3.0037
4.9514	3.0476
4.9232	3.103
4.8953	3.259
4.8678	3.5137
4.8405	3.6938
4.8135	3.7505
4.7868	3.7939
4.7605	3.9907
4.7344	4.2395
4.7086	4.3528
4.6831	4.3701
4.6578	4.3572
4.6328	4.3833
4.6081	4.5549
4.5837	4.8227
4.5595	5.2388
4.5356	5.6589
4.5119	6.0251
4.4884	6.3103
4.4652	6.4682
4.4423	6.5959
4.4196	6.7163
4.3971	6.8218
4.3748	6.8894
4.3528	6.9475
4.331	6.9851
4.3094	7.0202
4.288	7.05
4.2668	7.0979
4.2458	7.1264
4.2251	7.1306
4.2045	7.1592
4.1841	7.1846
4.164	7.2073
4.144	7.2168
4.1242	7.2419
4.1046	7.2522
4.0852	7.2756
4.066	7.2978
4.047	7.3037
4.0281	7.3193
4.0094	7.3244
3.9909	7.3305
3.9725	7.3657
3.9544	7.407
3.9363	7.4504
3.9185	7.4953
3.9008	7.5198
3.8833	7.5412
3.8659	7.5779
3.8487	7.5928
3.8316	7.6304
3.8147	7.6633
3.7979	7.6931
3.7813	7.7178
3.7648	7.7383
3.7485	7.7451
3.7323	7.7627
3.7162	7.7815
3.7003	7.7829
3.6845	7.7961
3.6689	7.8071
3.6534	7.8193
3.638	7.841
3.6227	7.8481
3.6076	7.8657
3.5926	7.8764
3.5777	7.895
3.563	7.8999
3.5484	7.8996
3.5338	7.8984
3.5195	7.8921
3.5052	7.896
3.491	7.9018
3.477	7.9219
3.463	7.9346
3.4492	7.9311
3.4355	7.9194
3.4219	7.9026
3.4084	7.8908
3.395	7.9089
3.3817	7.9277
3.3685	7.9355
3.3554	7.9414
3.3425	7.9604
3.3296	7.9626
3.3168	7.9682
3.3041	7.9643
3.2915	7.9538
3.279	7.9504
3.2666	7.9472
3.2543	7.9348
3.2421	7.9277
3.23	7.9287
3.218	7.9011
3.206	7.8911
3.1942	7.8625
3.1824	7.8647
3.1707	7.8388
3.1591	7.813
3.1476	7.7668
3.1362	7.7312
3.1249	7.7114
3.1136	7.6523
3.1024	7.5871
3.0913	7.5202
3.0803	7.4292
3.0694	7.3581
3.0585	7.3017
3.0477	7.2685
3.037	7.2319
3.0264	7.2041
3.0158	7.166
3.0053	7.1094
2.9949	7.0703
2.9845	6.9714
2.9743	6.8664
2.9641	6.7434
2.9539	6.6179
2.9439	6.459
2.9339	6.2993
2.9239	6.1311
2.9141	5.9448
2.9043	5.74
2.8946	5.5439
2.8849	5.3874
2.8753	5.2468
2.8658	5.1269
2.8563	5.0351
2.8469	4.9319
2.8375	4.7432
2.8282	4.5342
2.819	4.3315
2.8098	4.3835
2.8007	4.5791
2.7917	4.6191
2.7827	4.4888
2.7738	4.2776
2.7649	4.1216
2.7561	4.521
2.7473	5.5244
2.7386	6.6372
2.7299	7.3567
2.7213	7.6814
2.7128	8.0657
2.7043	8.3821
2.6959	8.5696
2.6875	8.7109
2.6791	8.7795
2.6709	8.8164
2.6626	8.9641
2.6545	9.011
2.6463	9.0556
2.6382	9.1032
2.6302	9.061
2.6222	9.1328
2.6143	9.1404
2.6064	9.1023
2.5986	9.1592
2.5908	9.1552
2.583	9.1089
2.5753	9.1301
2.5677	9.1194
2.5601	9.0818
2.5525	9.0307
2.545	9.0503
2.5375	9.0796
2.5301	9.0644
2.5227	9.0952
2.5154	9.1252
2.5081	9.1418
2.5008	9.1616
2.4936	9.1413
2.4864	9.1772
2.4793	9.1753
2.4722	9.2036
2.4651	9.2231
2.4581	9.2929
2.4511	9.3523
2.4442	9.3464
2.4373	9.4082
2.4305	9.4026
2.4236	9.4406
2.4169	9.4389
2.4101	9.4599
2.4034	9.4421
2.3967	9.4455
2.3901	9.4438
2.3835	9.4385
2.377	9.4739
2.3704	9.4656
2.364	9.4568
2.3575	9.4648
2.3511	9.4585
2.3447	9.4585
2.3384	9.4824
2.3321	9.4314
2.3258	9.438
2.3195	9.4533
2.3133	9.4321
2.3071	9.4089
2.301	9.4565
2.2949	9.4265
2.2888	9.4497
2.2828	9.4319
2.2767	9.4321
2.2708	9.4175
2.2648	9.4419
2.2589	9.4333
2.253	9.3996
2.2471	9.4155
2.2413	9.4219
2.2355	9.4524
2.2297	9.4179
2.224	9.4087
2.2183	9.4128
2.2126	9.4265
2.207	9.4016
2.2013	9.4179
2.1957	9.4021
2.1902	9.3862
2.1846	9.4035
2.1791	9.3945
2.1736	9.4009
2.1682	9.4243
2.1628	9.4106
2.1574	9.3711
2.152	9.3413
2.1466	9.3215
2.1413	9.3865
2.136	9.3833
2.1308	9.3557
2.1255	9.372
2.1203	9.3628
2.1151	9.3572
2.11	9.3833
2.1048	9.3784
2.0997	9.4433
2.0946	9.4082
2.0895	9.4316
2.0845	9.3843
2.0795	9.3752
