Name: Gypsum CaSO_4.2H_2O
Type: Mineral
Class: Sulfate
Subclass: None
Particle Size: Medium
Sample No.: SO-2B
Owner: JPL
Wavelength Range: TIR
Origin: USA, Utah
Description: Particle size was 45-125um.Collected by Ward's Original ASTER Spectral Library name was jpl.nicolet.mineral.sulfate.none.medium.so02b.spectrum.txt
Measurement: Hemispherical reflectance
X Units: Wavelength (micrometers)
Y Units: Reflectance (percent)
wavelength	value
15.3853	2.2131
15.1161	3.709
14.8563	8.2022
14.6052	6.2463
14.3624	1.898
14.1276	1.4078
13.9004	1.4936
13.6803	1.6216
13.4671	2.0705
13.2604	2.1256
13.06	2.3923
12.8656	2.4007
12.6769	2.2484
12.4936	2.6613
12.3155	2.8022
12.1425	2.6361
11.9742	2.888
11.8106	2.988
11.6513	2.7917
11.4963	2.9514
11.3454	2.9507
11.1983	3.0607
11.0551	2.9605
10.9154	3.2976
10.7793	3.0922
10.6465	3.1746
10.5169	3.1105
10.3904	3.1882
10.267	3.1941
10.1464	3.3271
10.0287	3.2244
9.9136	3.4881
9.8012	3.5783
9.6913	3.9357
9.5838	4.171
9.4787	4.407
9.3758	5.1163
9.2752	5.843
9.1767	7.2506
9.0803	9.9456
8.9858	15.1896
8.8934	19.0454
8.8028	22.455
8.714	24.89
8.627	24.1092
8.5417	21.7627
8.4581	16.8212
8.3761	12.8579
8.2957	8.7082
8.2169	3.6424
8.1395	1.4183
8.0635	0.5629
7.989	0.331
7.9158	0.3364
7.8439	0.4252
7.7734	0.5184
7.7041	0.683
7.636	0.9027
7.5691	1.0558
7.5034	1.3598
7.4388	1.7484
7.3753	2.2547
7.3129	2.7489
7.2515	3.2232
7.1912	3.8048
7.1318	4.2028
7.0734	4.8218
7.016	5.3043
6.9595	5.7526
6.9039	6.081
6.8492	6.3473
6.7953	6.587
6.7423	6.5247
6.6901	6.7684
6.6387	6.6413
6.5881	5.9825
6.5382	5.5145
6.4892	5.437
6.4408	5.3509
6.3931	4.9277
6.3462	4.5265
6.2999	3.7886
6.2543	3.0978
6.2094	3.025
6.1651	3.8618
6.1214	1.5858
6.0784	2.1009
6.0359	2.6039
5.994	2.8183
5.9527	2.3502
5.912	2.4118
5.8718	3.9711
5.8322	5.2023
5.7931	6.2138
5.7545	7.5156
5.7165	8.7515
5.6789	9.8315
5.6418	10.8997
5.6052	11.746
5.5691	12.5414
5.5334	13.5869
5.4982	15.2617
5.4635	16.5179
5.4291	17.1481
5.3952	17.637
5.3618	18.0536
5.3287	18.4738
5.2961	18.9619
5.2638	19.3742
5.2319	19.8291
5.2004	19.7434
5.1693	19.2916
5.1386	18.7311
5.1082	18.3764
5.0782	18.021
5.0485	17.823
5.0192	17.7404
4.9902	17.3416
4.9616	17.1264
4.9332	17.0611
4.9052	16.2808
4.8776	15.2317
4.8502	14.2924
4.8231	12.8106
4.7963	10.8581
4.7699	7.8322
4.7437	4.8304
4.7178	4.3622
4.6922	4.5831
4.6668	4.759
4.6418	5.232
4.617	4.9786
4.5924	4.4
4.5681	3.7646
4.5441	3.233
4.5203	3.1728
4.4968	3.0267
4.4735	3.1603
4.4505	3.3112
4.4277	3.4456
4.4051	4.0683
4.3828	4.4847
4.3607	4.9977
4.3388	5.564
4.3171	6.7186
4.2956	8.2514
4.2744	10.0514
4.2534	11.7586
4.2325	13.4926
4.2119	15.2499
4.1915	16.9492
4.1712	18.6652
4.1512	20.2009
4.1313	21.7684
4.1117	23.3763
4.0922	25.0451
4.0729	26.6195
4.0538	28.2464
4.0349	29.849
4.0161	31.2259
3.9976	32.2212
3.9792	31.6668
3.9609	33.5015
3.9428	35.7756
3.9249	37.14
3.9072	37.7525
3.8896	38.0788
3.8722	36.3178
3.8549	38.8921
3.8378	39.61
3.8208	39.891
3.804	39.8335
3.7873	39.7507
3.7708	39.809
3.7544	39.5867
3.7382	39.3716
3.7221	39.1914
3.7061	39.1666
3.6903	38.8483
3.6746	38.1465
3.659	37.5333
3.6436	36.6343
3.6283	35.7681
3.6131	34.7379
3.5981	33.6307
3.5832	32.568
3.5684	31.7451
3.5537	30.9491
3.5391	30.455
3.5247	29.8244
3.5104	29.2547
3.4962	28.4792
3.4821	27.6648
3.4681	26.855
3.4543	25.9888
3.4405	25.0792
3.4269	24.1723
3.4133	23.2321
3.3999	22.311
3.3866	21.1756
3.3733	19.7561
3.3602	18.5688
3.3472	17.4422
3.3343	16.4258
3.3215	15.3103
3.3088	14.0195
3.2961	12.6781
3.2836	11.7013
3.2712	10.6969
3.2588	9.8044
3.2466	9.0364
3.2345	8.2747
3.2224	7.7588
3.2104	7.1762
3.1985	6.6
3.1867	6.0249
3.175	5.5359
3.1634	5.0136
3.1519	4.6358
3.1404	4.1771
3.129	3.9154
3.1178	3.9131
3.1065	3.6121
3.0954	3.5238
3.0844	3.29
3.0734	3.1919
3.0625	3.2544
3.0517	3.097
3.041	3.1612
3.0303	3.2145
3.0197	2.7992
3.0092	2.9498
2.9987	3.0806
2.9884	2.8885
2.9781	3.2247
2.9678	3.547
2.9577	3.927
2.9476	4.2349
2.9376	4.7052
2.9276	4.5676
2.9177	3.3645
2.9079	2.3386
2.8982	1.6252
2.8885	1.6643
2.8789	1.4468
2.8693	1.2804
2.8598	1.2991
2.8504	1.2493
2.841	1.542
2.8317	1.5816
2.8224	1.8026
2.8133	1.6232
2.8041	1.5656
2.7951	1.5373
2.786	1.6116
2.7771	1.7786
2.7682	1.8413
2.7594	2.1688
2.7506	2.6384
2.7418	3.4279
2.7332	4.1165
2.7246	4.9806
2.716	5.7784
2.7075	6.9693
2.699	8.1705
2.6906	9.3698
2.6823	10.1794
2.674	11.2945
2.6657	12.7578
2.6575	13.6703
2.6494	14.8144
2.6413	15.6755
2.6332	16.1716
2.6252	16.5126
2.6173	17.1873
2.6094	17.2105
2.6015	17.4148
2.5937	18.017
2.5859	17.5722
2.5782	17.7701
2.5706	17.7951
2.5629	18.4187
2.5554	18.3207
2.5478	18.9451
2.5403	19.0931
2.5329	19.2317
2.5255	19.2885
2.5181	18.7823
2.5108	18.4762
2.5035	17.7884
2.4963	17.7734
2.4891	17.3786
2.482	17.4794
2.4749	17.5995
2.4678	18.406
2.4608	18.8678
2.4538	19.5044
2.4468	19.6585
2.4399	20.1959
2.4331	20.4643
2.4262	21.3435
2.4194	21.9392
2.4127	23.026
2.4059	25.0182
2.3993	27.696
2.3926	30.6354
2.386	33.5018
2.3795	36.0648
2.3729	38.3091
2.3664	40.4389
2.36	41.9077
2.3535	43.5901
2.3471	44.6255
2.3408	45.6667
2.3345	46.4771
2.3282	47.0057
2.3219	47.4317
2.3157	47.506
2.3095	47.5786
2.3034	47.2805
2.2972	47.0896
2.2911	46.7534
2.2851	46.074
2.279	44.8868
2.2731	43.2772
2.2671	42.8309
2.2612	43.7001
2.2553	44.5552
2.2494	44.592
2.2435	44.6196
2.2377	44.3404
2.232	43.3211
2.2262	41.6781
2.2205	40.1287
2.2148	40.2308
2.2091	41.3244
2.2035	42.1887
2.1979	43.1063
2.1923	43.8397
2.1868	44.0351
2.1812	44.1122
2.1758	44.5952
2.1703	45.2068
2.1649	45.8587
2.1595	46.5893
2.1541	47.4524
2.1487	48.3776
2.1434	49.1254
2.1381	49.4836
2.1328	50.0314
2.1275	50.9395
2.1223	51.5425
2.1171	52.3393
2.112	53.2557
2.1068	54.3316
2.1017	55.0529
2.0966	56.0487
2.0915	56.4838
2.0865	57.0776
2.0814	57.6393
2.0764	57.8453
2.0715	58.2827
2.0665	56.7286
2.0616	57.6935
2.0567	58.006
2.0518	57.8556
2.0469	57.566
2.0421	57.0187
2.0373	56.1822
2.0325	55.0402
2.0277	54.4257
2.0229	52.9732
2.0182	51.1457
2.0135	49.0092
2.0088	46.2673
2.0042	42.6216
