Name: Chalcopyrite CuFeS_2
Type: Mineral
Class: Sulfide
Subclass: None
Particle Size: Coarse
Sample No.: S-4A
Owner: JPL
Wavelength Range: TIR
Origin: Canada, Quebec, Rouyn District
Description: Particle size was 125-500um.Collected by JPL Original ASTER Spectral Library name was jpl.nicolet.mineral.sulfide.none.coarse.04a.spectrum.txt
Measurement: Hemispherical reflectance
X Units: Wavelength (micrometers)
Y Units: Reflectance (percent)
wavelength	value
15.3853	11.1878
15.1161	12.0479
14.8563	12.5725
14.6052	13.0467
14.3624	13.1693
14.1276	13.4522
13.9004	13.6131
13.6803	14.0174
13.4671	14.1294
13.2604	14.4905
13.06	15.0004
12.8656	15.9612
12.6769	16.7957
12.4936	17.4934
12.3155	16.7664
12.1425	17.1477
11.9742	18.1127
11.8106	18.8663
11.6513	19.5409
11.4963	20.478
11.3454	20.8037
11.1983	20.7235
11.0551	21.9286
10.9154	22.2452
10.7793	22.2347
10.6465	22.2271
10.5169	21.7802
10.3904	22.0045
10.267	22.4773
10.1464	23.226
10.0287	23.5746
9.9136	23.487
9.8012	23.2142
9.6913	23.2424
9.5838	23.627
9.4787	24.4579
9.3758	26.6492
9.2752	28.5297
9.1767	28.8163
9.0803	28.8633
8.9858	28.661
8.8934	28.7651
8.8028	28.5433
8.714	28.2
8.627	27.0562
8.5417	29.2082
8.4581	30.1885
8.3761	31.2328
8.2957	32.4489
8.2169	33.5019
8.1395	33.6088
8.0635	32.9587
7.989	31.557
7.9158	31.9887
7.8439	31.4518
7.7734	31.0947
7.7041	30.8739
7.636	30.7338
7.5691	30.89
7.5034	30.7244
7.4388	30.7881
7.3753	30.8859
7.3129	30.8242
7.2515	31.0003
7.1912	31.4666
7.1318	31.6976
7.0734	31.5106
7.016	31.6844
6.9595	32.4085
6.9039	31.6823
6.8492	31.4438
6.7953	31.9288
6.7423	31.1545
6.6901	31.4214
6.6387	33.3567
6.5881	31.6624
6.5382	30.8978
6.4892	33.0226
6.4408	31.2049
6.3931	30.3568
6.3462	30.0991
6.2999	27.829
6.2543	26.4433
6.2094	25.117
6.1651	24.1917
6.1214	23.7819
6.0784	23.923
6.0359	23.9598
5.994	24.8943
5.9527	25.6375
5.912	26.8416
5.8718	28.8101
5.8322	30.6188
5.7931	31.667
5.7545	33.4891
5.7165	34.7579
5.6789	34.851
5.6418	35.1032
5.6052	34.3191
5.5691	34.6636
5.5334	34.967
5.4982	35.5789
5.4635	36.5601
5.4291	36.1517
5.3952	35.5187
5.3618	35.3448
5.3287	35.4904
5.2961	35.7837
5.2638	35.971
5.2319	36.6561
5.2004	37.3252
5.1693	37.1306
5.1386	37.0677
5.1082	36.9277
5.0782	36.6317
5.0485	36.4879
5.0192	36.4238
4.9902	36.3892
4.9616	36.7636
4.9332	37.1198
4.9052	38.1111
4.8776	39.9785
4.8502	41.2797
4.8231	41.8521
4.7963	42.3557
4.7699	42.7512
4.7437	42.827
4.7178	42.8377
4.6922	42.2629
4.6668	42.4202
4.6418	43.2966
4.617	43.8794
4.5924	44.2249
4.5681	44.3883
4.5441	44.0833
4.5203	43.3146
4.4968	42.2898
4.4735	42.1258
4.4505	42.484
4.4277	42.9572
4.4051	43.5216
4.3828	44.1399
4.3607	45.0038
4.3388	45.198
4.3171	44.5683
4.2956	42.3278
4.2744	35.257
4.2534	39.8756
4.2325	43.973
4.2119	45.7902
4.1915	46.7036
4.1712	47.1038
4.1512	47.507
4.1313	47.8693
4.1117	48.0804
4.0922	48.5994
4.0729	48.8842
4.0538	48.8735
4.0349	48.9764
4.0161	49.1028
3.9976	49.1457
3.9792	49.3902
3.9609	49.7392
3.9428	49.9956
3.9249	50.2272
3.9072	50.2524
3.8896	50.2084
3.8722	50.1801
3.8549	50.2569
3.8378	50.1392
3.8208	50.1563
3.804	50.1296
3.7873	49.8427
3.7708	49.6469
3.7544	49.3555
3.7382	49.1134
3.7221	48.9209
3.7061	48.7421
3.6903	48.6468
3.6746	48.2961
3.659	47.9014
3.6436	47.5648
3.6283	47.2481
3.6131	46.7505
3.5981	46.304
3.5832	45.7103
3.5684	45.2287
3.5537	44.7245
3.5391	44.0623
3.5247	43.1634
3.5104	41.7109
3.4962	40.9591
3.4821	40.8563
3.4681	40.361
3.4543	39.5563
3.4405	38.5394
3.4269	36.9638
3.4133	35.9454
3.3999	36.4708
3.3866	35.9532
3.3733	35.2642
3.3602	35.2813
3.3472	34.6722
3.3343	34.1812
3.3215	33.3953
3.3088	32.7078
3.2961	32.0142
3.2836	31.2447
3.2712	30.512
3.2588	29.8339
3.2466	28.9819
3.2345	28.4048
3.2224	27.6839
3.2104	27.1524
3.1985	26.423
3.1867	25.775
3.175	25.2554
3.1634	24.7011
3.1519	24.3189
3.1404	23.8707
3.129	23.4019
3.1178	22.9153
3.1065	22.7187
3.0954	22.439
3.0844	22.1363
3.0734	21.9841
3.0625	21.8455
3.0517	21.7186
3.041	21.6926
3.0303	21.5246
3.0197	21.4451
3.0092	21.4654
2.9987	21.1543
2.9884	21.0581
2.9781	21.2495
2.9678	21.0869
2.9577	20.8231
2.9476	21.1608
2.9376	21.2359
2.9276	21.3632
2.9177	21.5093
2.9079	21.7049
2.8982	22.1508
2.8885	22.3484
2.8789	22.4572
2.8693	23.0415
2.8598	23.4778
2.8504	23.7395
2.841	24.4502
2.8317	25.0456
2.8224	25.5228
2.8133	26.2551
2.8041	27.4114
2.7951	27.7827
2.786	28.9867
2.7771	29.9863
2.7682	31.5644
2.7594	32.3773
2.7506	34.1724
2.7418	36.9963
2.7332	39.3183
2.7246	44.5955
2.716	47.6374
2.7075	51.9465
2.699	55.7694
2.6906	59.888
2.6823	63.0253
2.674	65.1515
2.6657	68.895
2.6575	67.3534
2.6494	68.0606
2.6413	69.1454
2.6332	70.1507
2.6252	70.7384
2.6173	72.4736
2.6094	71.7301
2.6015	71.9921
2.5937	74.3451
2.5859	72.6098
2.5782	72.2815
2.5706	72.618
2.5629	73.5754
2.5554	72.205
2.5478	72.6705
2.5403	72.5579
2.5329	72.912
2.5255	72.8516
2.5181	72.9596
2.5108	73.0838
2.5035	73.2854
2.4963	73.4712
2.4891	73.8554
2.482	74.2053
2.4749	74.4354
2.4678	74.9818
2.4608	75.1605
2.4538	75.7982
2.4468	76.0039
2.4399	76.2828
2.4331	76.8121
2.4262	77.2345
2.4194	77.114
2.4127	77.5058
2.4059	77.9174
2.3993	78.1328
2.3926	78.3345
2.386	78.6368
2.3795	78.8321
2.3729	79.041
2.3664	79.2588
2.36	79.5159
2.3535	79.3989
2.3471	79.51
2.3408	79.8172
2.3345	79.9346
2.3282	80.0089
2.3219	79.9565
2.3157	80.0021
2.3095	79.9375
2.3034	80.0933
2.2972	80.2664
2.2911	80.4986
2.2851	80.3096
2.279	80.4453
2.2731	80.4087
2.2671	80.4078
2.2612	80.4653
2.2553	80.6579
2.2494	80.8362
2.2435	80.8571
2.2377	80.9697
2.232	80.9092
2.2262	81.0179
2.2205	80.8857
2.2148	80.9321
2.2091	80.9036
2.2035	80.9418
2.1979	80.7968
2.1923	80.7906
2.1868	81.1542
2.1812	81.1143
2.1758	81.2506
2.1703	81.3394
2.1649	81.5334
2.1595	81.2106
2.1541	81.4826
2.1487	81.2712
2.1434	81.2491
2.1381	81.3371
2.1328	81.2585
2.1275	81.1683
2.1223	81.2119
2.1171	81.1096
2.112	80.9748
2.1068	81.0623
2.1017	81.0274
2.0966	80.8925
2.0915	80.7688
2.0865	80.4303
2.0814	80.4493
2.0764	80.5746
2.0715	80.1321
2.0665	79.9458
2.0616	80.3188
2.0567	79.8343
2.0518	79.8973
2.0469	79.4122
2.0421	79.4715
2.0373	79.5557
2.0325	79.1316
2.0277	78.8632
2.0229	78.6175
2.0182	78.2776
2.0135	78.0874
2.0088	77.9306
2.0042	77.4156
