Name: Chalcocite Cu_2S
Type: Mineral
Class: Sulfide
Subclass: None
Particle Size: Fine
Sample No.: S-8A
Owner: JPL
Wavelength Range: TIR
Origin: USA, Alaska, Kennecott
Description: Particle size was 0-45um.Collected by Burmico Original ASTER Spectral Library name was jpl.nicolet.mineral.sulfide.none.fine.s08a.spectrum.txt
Measurement: Hemispherical reflectance
X Units: Wavelength (micrometers)
Y Units: Reflectance (percent)
wavelength	value
15.3853	12.6889
15.1161	12.7052
14.8563	12.7695
14.6052	12.559
14.3624	12.2882
14.1276	12.6793
13.9004	12.7501
13.6803	12.5054
13.4671	12.2176
13.2604	12.409
13.06	12.326
12.8656	12.456
12.6769	12.3434
12.4936	12.6374
12.3155	12.3348
12.1425	12.2075
11.9742	12.3951
11.8106	12.3992
11.6513	12.2702
11.4963	12.3566
11.3454	12.3565
11.1983	12.103
11.0551	11.9381
10.9154	11.8076
10.7793	11.8542
10.6465	11.8194
10.5169	11.9166
10.3904	12.1232
10.267	11.9638
10.1464	11.9663
10.0287	12.1364
9.9136	12.2636
9.8012	12.3352
9.6913	12.6179
9.5838	12.833
9.4787	12.4166
9.3758	12.5193
9.2752	12.6933
9.1767	12.9022
9.0803	12.8393
8.9858	12.6818
8.8934	12.9817
8.8028	12.7854
8.714	12.6167
8.627	12.4134
8.5417	12.5745
8.4581	12.2157
8.3761	12.4524
8.2957	12.4983
8.2169	12.4738
8.1395	12.402
8.0635	12.4508
7.989	12.5047
7.9158	12.1924
7.8439	12.2409
7.7734	12.2394
7.7041	12.0871
7.636	12.1551
7.5691	12.1367
7.5034	12.059
7.4388	12.0919
7.3753	12.1505
7.3129	12.1192
7.2515	12.0612
7.1912	12.1155
7.1318	11.9643
7.0734	11.9494
7.016	12.1874
6.9595	12.1088
6.9039	11.9525
6.8492	12.0589
6.7953	12.0849
6.7423	11.828
6.6901	11.9128
6.6387	12.1239
6.5881	12.0108
6.5382	11.8047
6.4892	12.0969
6.4408	11.93
6.3931	11.9089
6.3462	11.9683
6.2999	11.9396
6.2543	11.7827
6.2094	11.9043
6.1651	11.7855
6.1214	11.799
6.0784	11.835
6.0359	11.7563
5.994	11.7424
5.9527	11.6746
5.912	11.5195
5.8718	11.633
5.8322	11.5956
5.7931	11.4946
5.7545	11.467
5.7165	11.4971
5.6789	11.4437
5.6418	11.5643
5.6052	11.2902
5.5691	11.3004
5.5334	11.2345
5.4982	11.1357
5.4635	11.3008
5.4291	11.2657
5.3952	11.1444
5.3618	11.0871
5.3287	11.1337
5.2961	11.1259
5.2638	11.0205
5.2319	11.1019
5.2004	11.0471
5.1693	11.069
5.1386	10.9628
5.1082	11.0813
5.0782	11.0668
5.0485	10.9992
5.0192	11.0165
4.9902	10.9904
4.9616	10.958
4.9332	10.8622
4.9052	10.9417
4.8776	10.9051
4.8502	10.882
4.8231	10.8759
4.7963	10.8069
4.7699	10.8343
4.7437	10.8129
4.7178	10.7496
4.6922	10.6779
4.6668	10.7107
4.6418	10.7102
4.617	10.6686
4.5924	10.6526
4.5681	10.6597
4.5441	10.5948
4.5203	10.6361
4.4968	10.6614
4.4735	10.4716
4.4505	10.5736
4.4277	10.4761
4.4051	10.4665
4.3828	10.4901
4.3607	10.449
4.3388	10.3821
4.3171	10.3399
4.2956	10.3486
4.2744	10.3188
4.2534	10.3427
4.2325	10.2757
4.2119	10.3143
4.1915	10.1453
4.1712	10.3228
4.1512	10.1819
4.1313	10.136
4.1117	10.1509
4.0922	10.0869
4.0729	10.0699
4.0538	10.0517
4.0349	10.0114
4.0161	9.9327
3.9976	9.992
3.9792	9.9549
3.9609	9.856
3.9428	9.8756
3.9249	9.9247
3.9072	9.8434
3.8896	9.8103
3.8722	9.7206
3.8549	9.811
3.8378	9.7271
3.8208	9.627
3.804	9.698
3.7873	9.6502
3.7708	9.6272
3.7544	9.6492
3.7382	9.5549
3.7221	9.4658
3.7061	9.4287
3.6903	9.533
3.6746	9.3892
3.659	9.4523
3.6436	9.3582
3.6283	9.3215
3.6131	9.3086
3.5981	9.3293
3.5832	9.1926
3.5684	9.2388
3.5537	9.3241
3.5391	9.13
3.5247	9.2702
3.5104	9.1364
3.4962	9.2024
3.4821	9.1322
3.4681	9.0153
3.4543	9.026
3.4405	9.136
3.4269	8.9997
3.4133	9.0046
3.3999	8.9853
3.3866	8.8845
3.3733	8.8883
3.3602	8.8992
3.3472	8.8487
3.3343	8.7653
3.3215	8.8503
3.3088	8.663
3.2961	8.7632
3.2836	8.6674
3.2712	8.6425
3.2588	8.5421
3.2466	8.6323
3.2345	8.5822
3.2224	8.4883
3.2104	8.4311
3.1985	8.5164
3.1867	8.4021
3.175	8.2778
3.1634	8.3332
3.1519	8.2876
3.1404	8.3192
3.129	8.2973
3.1178	8.271
3.1065	8.2074
3.0954	8.265
3.0844	8.2404
3.0734	8.0632
3.0625	8.0741
3.0517	8.2089
3.041	8.0554
3.0303	7.9284
3.0197	8.0067
3.0092	7.8518
2.9987	7.9657
2.9884	7.8587
2.9781	7.858
2.9678	7.8815
2.9577	7.833
2.9476	7.7868
2.9376	7.8662
2.9276	7.8826
2.9177	7.8703
2.9079	7.8325
2.8982	7.8079
2.8885	7.6928
2.8789	7.7105
2.8693	7.8091
2.8598	7.7717
2.8504	7.8067
2.841	7.8267
2.8317	7.716
2.8224	7.7996
2.8133	7.6236
2.8041	7.6005
2.7951	7.5896
2.786	7.1946
2.7771	7.0892
2.7682	6.7242
2.7594	6.6857
2.7506	6.82
2.7418	6.7129
2.7332	6.6693
2.7246	6.9048
2.716	7.0241
2.7075	7.3216
2.699	7.2838
2.6906	7.2726
2.6823	7.198
2.674	7.3305
2.6657	7.3254
2.6575	7.2175
2.6494	7.0623
2.6413	7.0702
2.6332	7.0553
2.6252	6.9375
2.6173	6.9034
2.6094	6.9155
2.6015	6.9362
2.5937	7.1346
2.5859	6.8416
2.5782	6.9702
2.5706	6.8367
2.5629	6.8501
2.5554	6.7491
2.5478	6.7925
2.5403	6.6143
2.5329	6.7693
2.5255	6.6656
2.5181	6.5589
2.5108	6.6363
2.5035	6.5295
2.4963	6.472
2.4891	6.5656
2.482	6.6015
2.4749	6.6188
2.4678	6.6031
2.4608	6.4821
2.4538	6.5801
2.4468	6.4489
2.4399	6.2946
2.4331	6.3649
2.4262	6.3927
2.4194	6.4327
2.4127	6.3761
2.4059	6.1892
2.3993	6.1023
2.3926	6.1432
2.386	6.1516
2.3795	6.2288
2.3729	6.2249
2.3664	5.8701
2.36	6.0913
2.3535	6.1619
2.3471	6.0577
2.3408	6.0254
2.3345	6.048
2.3282	6.1014
2.3219	6.1439
2.3157	5.9422
2.3095	5.955
2.3034	5.9168
2.2972	6.0234
2.2911	5.9161
2.2851	5.7446
2.279	5.8383
2.2731	5.8227
2.2671	5.7041
2.2612	5.9594
2.2553	5.7777
2.2494	5.6894
2.2435	5.7303
2.2377	5.8025
2.232	5.796
2.2262	5.5129
2.2205	5.544
2.2148	5.5512
2.2091	5.6515
2.2035	5.4193
2.1979	5.66
2.1923	5.3374
2.1868	5.7288
2.1812	5.4134
2.1758	5.2167
2.1703	5.5305
2.1649	5.387
2.1595	5.5186
2.1541	5.2043
2.1487	5.4111
2.1434	5.4598
2.1381	5.3109
2.1328	5.4856
2.1275	5.4541
2.1223	5.2793
2.1171	5.3531
2.112	5.1846
2.1068	5.0374
2.1017	5.3241
2.0966	5.5232
2.0915	5.2164
2.0865	5.0911
2.0814	5.5244
2.0764	5.2455
2.0715	5.434
2.0665	5.3693
2.0616	5.1309
2.0567	4.9695
2.0518	4.9186
2.0469	4.8869
2.0421	4.8272
2.0373	4.9518
2.0325	4.8142
2.0277	4.8876
2.0229	4.7873
2.0182	4.758
2.0135	4.7741
2.0088	4.8762
2.0042	4.9206
