Name: Halite NaCl
Type: Mineral
Class: Halide
Subclass: None
Particle Size: Medium
Sample No.: H-3A
Owner: JPL
Wavelength Range: VSWIR
Origin: USA, Michigan, Wayne County, Detroit.
Description: Particle size was 45-125um.Collected by:  Ward's Original ASTER Spectral Library name was jpl.perkin.mineral.halide.none.medium.h03a.spectrum.txt
Measurement: Hemispherical reflectance
X Units: Wavelength (micrometers)
Y Units: Reflectance (percent)
wavelength	value
2.5	84.7417
2.494	84.5766
2.488	84.5403
2.482	84.7582
2.476	84.9648
2.47	84.9044
2.464	85.2365
2.458	85.142
2.452	85.3913
2.446	85.3233
2.44	85.5097
2.434	85.5141
2.428	85.6796
2.422	85.8888
2.416	85.8816
2.41	85.9233
2.404	86.0416
2.398	86.1143
2.392	86.2149
2.386	86.4621
2.38	86.524
2.374	86.5919
2.368	86.7601
2.362	86.861
2.356	86.8583
2.35	86.989
2.344	87.1004
2.338	87.08
2.332	87.0829
2.326	87.0555
2.32	86.9957
2.314	87.0012
2.308	87.0711
2.302	86.995
2.296	87.0649
2.29	86.9526
2.284	86.975
2.278	86.9116
2.272	86.9343
2.266	86.9162
2.26	86.9566
2.254	86.9744
2.248	86.9605
2.242	86.9174
2.236	87.0084
2.23	87.0423
2.224	87.0372
2.218	87.1008
2.212	87.1866
2.206	87.3509
2.2	87.5181
2.194	87.5531
2.188	87.6332
2.182	87.6943
2.176	87.7684
2.17	87.9856
2.164	88.1467
2.158	88.2104
2.152	88.3454
2.146	88.4401
2.14	88.4114
2.134	88.3179
2.128	88.122
2.122	87.7948
2.116	87.5321
2.11	87.2193
2.104	86.9607
2.098	86.7639
2.092	86.9068
2.086	86.9546
2.08	86.9393
2.074	87.0152
2.068	87.0805
2.062	87.1199
2.056	87.1395
2.05	87.1975
2.044	87.2604
2.038	87.1777
2.032	87.2287
2.026	87.1544
2.02	87.1257
2.014	87.0446
2.008	86.9965
2.002	86.8765
1.996	86.7557
1.99	86.5427
1.984	86.3598
1.978	86.3525
1.972	86.1601
1.966	86.1032
1.96	85.9834
1.954	86.001
1.948	85.9432
1.942	85.9918
1.936	86.0369
1.93	86.137
1.924	86.302
1.918	86.503
1.912	86.7581
1.906	86.9858
1.9	87.2414
1.894	87.5492
1.888	87.7508
1.882	88.0282
1.876	88.0175
1.87	88.0594
1.864	88.1365
1.858	88.1659
1.852	88.2627
1.846	88.2645
1.84	88.2926
1.834	88.2984
1.828	88.2938
1.822	88.2844
1.816	88.299
1.81	88.3129
1.804	88.3284
1.798	88.3384
1.792	88.2926
1.786	88.3167
1.78	88.279
1.774	88.2487
1.768	88.311
1.762	88.25
1.756	88.3553
1.75	88.2788
1.744	88.3613
1.738	88.3972
1.732	88.4234
1.726	88.3076
1.72	88.4268
1.714	88.4124
1.708	88.4381
1.702	88.3526
1.696	88.3182
1.69	88.2947
1.684	88.3612
1.678	88.2823
1.672	88.3678
1.666	88.291
1.66	88.3217
1.654	88.3299
1.648	88.1826
1.642	88.2868
1.636	88.2191
1.63	88.2349
1.624	88.2859
1.618	88.2345
1.612	88.2841
1.606	88.2515
1.6	88.3331
1.594	88.3777
1.588	88.209
1.582	88.3738
1.576	88.1956
1.57	88.2405
1.564	88.1902
1.558	88.2279
1.552	88.1836
1.546	88.1971
1.54	88.1662
1.534	88.1045
1.528	88.1418
1.522	88.0201
1.516	88.0904
1.51	88.0085
1.504	87.9758
1.498	87.9796
1.492	87.973
1.486	87.8666
1.48	87.8078
1.474	87.822
1.468	87.8076
1.462	87.7919
1.456	87.8003
1.45	87.8199
1.444	87.8257
1.438	87.8127
1.432	87.8162
1.426	87.8183
1.42	87.865
1.414	87.9398
1.408	88.0163
1.402	88.0048
1.396	88.1143
1.39	88.1575
1.384	88.1575
1.378	88.1611
1.372	88.2085
1.366	88.2156
1.36	88.1325
1.354	88.1052
1.348	88.1019
1.342	88.1374
1.336	88.1825
1.33	88.0986
1.324	88.0412
1.318	88.1381
1.312	88.0824
1.306	88.0585
1.3	88.1135
1.294	87.9996
1.288	88.0203
1.282	87.9683
1.276	88.058
1.27	88.0178
1.264	87.9662
1.258	88.0088
1.252	87.984
1.246	87.9736
1.24	87.9678
1.234	87.9291
1.228	87.9497
1.222	87.9696
1.216	87.931
1.21	87.8629
1.204	87.9044
1.198	87.9825
1.192	87.9532
1.186	87.9167
1.18	87.9217
1.174	87.9154
1.168	87.936
1.162	87.9133
1.156	87.8761
1.15	87.8882
1.144	87.9824
1.138	87.9374
1.132	87.9012
1.126	87.9143
1.12	87.9856
1.114	87.8942
1.108	87.9083
1.102	87.8723
1.096	87.8983
1.09	87.968
1.084	87.9798
1.078	87.9594
1.072	87.9917
1.066	87.9538
1.06	87.9313
1.054	87.8763
1.048	87.9268
1.042	87.9229
1.036	87.9499
1.03	87.9345
1.024	87.8913
1.018	87.9063
1.012	87.8598
1.006	87.8913
1	87.9107
0.994	87.8717
0.988	87.8381
0.982	87.9083
0.976	87.9342
0.97	87.858
0.964	87.87
0.958	87.8045
0.952	87.8762
0.946	87.846
0.94	87.8676
0.934	87.8589
0.928	87.8863
0.922	87.8121
0.916	87.8194
0.91	87.8202
0.904	87.8414
0.898	87.7921
0.892	87.8159
0.886	87.793
0.88	87.8357
0.874	87.773
0.868	87.7226
0.862	87.7726
0.856	88.1348
0.85	88.0646
0.844	88.0026
0.838	87.9756
0.832	88.0945
0.826	88.0278
0.82	88.0264
0.814	88.0872
0.808	88.0642
0.802	88.0507
0.796	87.9768
0.79	87.9751
0.784	88.0027
0.778	87.9491
0.772	87.9117
0.766	87.9523
0.76	87.9477
0.754	87.9092
0.748	87.9053
0.742	87.9057
0.736	87.8756
0.73	87.8909
0.724	87.8552
0.718	87.8598
0.712	87.8253
0.706	87.8393
0.7	87.8067
0.694	87.8125
0.688	87.7849
0.682	87.7722
0.676	87.7591
0.67	87.7739
0.664	87.7264
0.658	87.6996
0.652	87.6922
0.646	87.6775
0.64	87.6721
0.634	87.627
0.628	87.6125
0.622	87.5887
0.616	87.5602
0.61	87.537
0.604	87.4882
0.598	87.487
0.592	87.4804
0.586	87.4258
0.58	87.3474
0.574	87.2325
0.568	87.1501
0.562	86.963
0.556	86.8628
0.55	86.7209
0.544	86.5857
0.538	86.4416
0.532	86.3442
0.526	86.2051
0.52	86.0828
0.514	85.9551
0.508	85.8178
0.502	85.7058
0.496	85.5403
0.49	85.3703
0.484	85.2361
0.478	85.0374
0.472	84.8692
0.466	84.697
0.46	84.497
0.454	84.283
0.448	84.0448
0.442	83.8237
0.436	83.6138
0.43	83.3593
0.424	83.1307
0.418	82.9112
0.412	82.7353
0.406	82.5284
0.4	82.3287
