Name: Malachite Cu_2(CO_3)(OH)_2
Type: Mineral
Class: Carbonate
Subclass: None
Particle Size: Medium
Sample No.: C-7A
Owner: JPL
Wavelength Range: TIR
Origin: USA, California, San Bernadino County, Near Valley Wells
Description: Particle size was 45-125um.Collected by Burminco Original ASTER Spectral Library name was jpl.nicolet.mineral.carbonate.none.medium.c07a.spectrum.txt
Measurement: Hemispherical reflectance
X Units: Wavelength (micrometers)
Y Units: Reflectance (percent)
wavelength	value
15.3853	1.2173
15.1161	1.3428
14.8563	1.8151
14.6052	1.701
14.3624	1.5201
14.1276	1.8152
13.9004	1.5952
13.6803	1.6247
13.4671	1.6407
13.2604	1.7171
13.06	1.1964
12.8656	1.3992
12.6769	1.619
12.4936	1.453
12.3155	1.6743
12.1425	2.1844
11.9742	1.6406
11.8106	1.5996
11.6513	1.6594
11.4963	1.8365
11.3454	1.8397
11.1983	1.4186
11.0551	1.715
10.9154	1.409
10.7793	1.6851
10.6465	1.7623
10.5169	2.107
10.3904	2.4009
10.267	2.8722
10.1464	3.5549
10.0287	4.4486
9.9136	4.9838
9.8012	5.6574
9.6913	5.8047
9.5838	5.5209
9.4787	4.4408
9.3758	2.4405
9.2752	1.5331
9.1767	1.1535
9.0803	0.7577
8.9858	0.6961
8.8934	0.6368
8.8028	0.7471
8.714	0.7859
8.627	0.8748
8.5417	0.9915
8.4581	1.2333
8.3761	1.2064
8.2957	1.4937
8.2169	1.7354
8.1395	1.9152
8.0635	1.9061
7.989	2.3861
7.9158	2.2737
7.8439	2.3979
7.7734	2.3766
7.7041	2.414
7.636	2.4346
7.5691	2.2091
7.5034	2.3103
7.4388	2.2067
7.3753	2.2087
7.3129	2.2489
7.2515	2.5586
7.1912	2.8212
7.1318	2.8775
7.0734	2.3967
7.016	1.6326
6.9595	1.2222
6.9039	1.0995
6.8492	1.3001
6.7953	1.2878
6.7423	1.5344
6.6901	1.6728
6.6387	1.641
6.5881	1.6664
6.5382	1.555
6.4892	1.1015
6.4408	1.0201
6.3931	1.0361
6.3462	0.8317
6.2999	1.0182
6.2543	0.8758
6.2094	0.9571
6.1651	0.887
6.1214	0.7835
6.0784	0.7563
6.0359	0.8277
5.994	0.9014
5.9527	0.9364
5.912	1.0525
5.8718	1.2231
5.8322	1.4289
5.7931	1.8265
5.7545	2.0992
5.7165	2.5283
5.6789	2.7068
5.6418	2.7455
5.6052	3.0384
5.5691	3.0181
5.5334	2.9527
5.4982	3.4896
5.4635	3.6846
5.4291	3.9329
5.3952	4.3842
5.3618	4.5593
5.3287	4.8837
5.2961	4.9641
5.2638	5.0667
5.2319	5.0812
5.2004	4.9761
5.1693	5.2111
5.1386	5.3041
5.1082	5.279
5.0782	5.356
5.0485	5.3037
5.0192	5.4703
4.9902	5.4292
4.9616	5.3157
4.9332	5.3032
4.9052	5.1536
4.8776	4.9119
4.8502	4.5117
4.8231	4.252
4.7963	4.205
4.7699	4.455
4.7437	4.5683
4.7178	4.5645
4.6922	4.6527
4.6668	4.6788
4.6418	4.6291
4.617	4.7738
4.5924	4.9228
4.5681	5.0325
4.5441	5.0757
4.5203	5.2831
4.4968	5.4841
4.4735	5.6478
4.4505	5.7996
4.4277	5.9727
4.4051	6.1459
4.3828	6.3218
4.3607	6.4922
4.3388	6.6649
4.3171	6.9597
4.2956	7.0625
4.2744	7.1977
4.2534	7.2195
4.2325	7.3854
4.2119	7.0271
4.1915	6.7549
4.1712	6.614
4.1512	6.4826
4.1313	6.4646
4.1117	6.5752
4.0922	6.8105
4.0729	7.2469
4.0538	7.5129
4.0349	7.7119
4.0161	7.8907
3.9976	7.7312
3.9792	7.3946
3.9609	7.2943
3.9428	7.1989
3.9249	7.2294
3.9072	7.3926
3.8896	7.6744
3.8722	7.898
3.8549	8.1682
3.8378	8.4136
3.8208	8.3986
3.804	8.2543
3.7873	8.2844
3.7708	8.0857
3.7544	7.7693
3.7382	7.4855
3.7221	7.3747
3.7061	6.9953
3.6903	6.7255
3.6746	6.43
3.659	6.2434
3.6436	5.8344
3.6283	5.4518
3.6131	5.1386
3.5981	4.9523
3.5832	4.5318
3.5684	4.2393
3.5537	4.0051
3.5391	3.7077
3.5247	3.5834
3.5104	3.5243
3.4962	3.1541
3.4821	3.1408
3.4681	2.8673
3.4543	2.6279
3.4405	2.5617
3.4269	2.4153
3.4133	2.3222
3.3999	2.2586
3.3866	2.2165
3.3733	2.1817
3.3602	1.957
3.3472	2.1919
3.3343	1.8655
3.3215	1.8854
3.3088	1.8326
3.2961	1.7218
3.2836	1.8105
3.2712	1.7145
3.2588	1.7085
3.2466	1.7151
3.2345	1.6599
3.2224	1.6548
3.2104	1.5409
3.1985	1.6847
3.1867	1.3585
3.175	1.5278
3.1634	1.5272
3.1519	1.5016
3.1404	1.4688
3.129	1.535
3.1178	1.3746
3.1065	1.2581
3.0954	1.3195
3.0844	1.4492
3.0734	1.3873
3.0625	1.3826
3.0517	1.3195
3.041	1.4033
3.0303	1.402
3.0197	1.5073
3.0092	1.354
2.9987	1.2498
2.9884	1.1551
2.9781	1.1137
2.9678	1.0872
2.9577	1.0893
2.9476	1.1786
2.9376	1.3022
2.9276	1.0579
2.9177	1.0198
2.9079	0.9234
2.8982	0.9645
2.8885	1.1063
2.8789	0.9761
2.8693	0.8571
2.8598	0.8866
2.8504	1.1545
2.841	1.0112
2.8317	1.1897
2.8224	1.0718
2.8133	1.0264
2.8041	1.1884
2.7951	1.162
2.786	1.2005
2.7771	1.121
2.7682	1.343
2.7594	1.1519
2.7506	1.3777
2.7418	1.3321
2.7332	1.765
2.7246	2.1591
2.716	2.8876
2.7075	3.6995
2.699	4.9426
2.6906	6.6425
2.6823	8.3882
2.674	10.1872
2.6657	11.0936
2.6575	13.0237
2.6494	14.3774
2.6413	15.3522
2.6332	15.9218
2.6252	16.9117
2.6173	16.8043
2.6094	17.941
2.6015	18.4618
2.5937	18.1294
2.5859	18.9911
2.5782	19.3463
2.5706	19.4926
2.5629	19.3702
2.5554	20.2809
2.5478	20.4448
2.5403	20.6106
2.5329	20.8689
2.5255	21.162
2.5181	21.3586
2.5108	21.4958
2.5035	21.936
2.4963	22.1309
2.4891	22.6824
2.482	23.0602
2.4749	23.3061
2.4678	23.5174
2.4608	23.766
2.4538	23.9314
2.4468	23.9989
2.4399	24.0352
2.4331	24.0154
2.4262	24.4279
2.4194	24.5637
2.4127	24.6555
2.4059	25.2046
2.3993	25.3959
2.3926	26.0046
2.386	26.5524
2.3795	26.9252
2.3729	27.6124
2.3664	27.794
2.36	27.8713
2.3535	28.3793
2.3471	29.6868
2.3408	31.3467
2.3345	32.6532
2.3282	33.5744
2.3219	34.2278
2.3157	34.2619
2.3095	33.9139
2.3034	33.2886
2.2972	32.3919
2.2911	31.3908
2.2851	30.1052
2.279	29.1275
2.2731	28.4164
2.2671	28.4815
2.2612	29.2309
2.2553	30.9177
2.2494	32.271
2.2435	33.7793
2.2377	35.1289
2.232	36.2471
2.2262	36.8936
2.2205	37.013
2.2148	37.4747
2.2091	38.4498
2.2035	39.7718
2.1979	41.3587
2.1923	42.3352
2.1868	43.3538
2.1812	44.0371
2.1758	44.6466
2.1703	44.9767
2.1649	45.27
2.1595	45.6062
2.1541	45.7582
2.1487	45.9096
2.1434	45.92
2.1381	45.9808
2.1328	45.9375
2.1275	45.642
2.1223	45.3718
2.1171	44.9533
2.112	44.4003
2.1068	44.1218
2.1017	43.7892
2.0966	43.7911
2.0915	43.3274
2.0865	42.9304
2.0814	42.8132
2.0764	42.2967
2.0715	41.8223
2.0665	41.3977
2.0616	41.1332
2.0567	40.2291
2.0518	39.9231
2.0469	39.6185
2.0421	38.871
2.0373	38.3016
2.0325	37.7263
2.0277	37.3181
2.0229	36.3281
2.0182	35.7831
2.0135	35.2772
2.0088	34.606
2.0042	34.1187
