Name: Dolomite CaMg(CO3)2
Type: Mineral
Class: Carbonate
Subclass: None
Particle Size: Solid
Sample No.: dolomite_1
Owner: JHU
Wavelength Range: TIR
Origin: Sample from Oberdorf, Styria, Austria via the Smithsonian(sample no. NMNH R12596).
Description: The sample was a single white crystal, 3 cm x 2 cm x 2 cm and 29 g, showing good cleavage.  No impurities or alteration were visible in hand sample.  Under the microscope it appears very pure and unaltered. Sample measured had cleavage face. Original ASTER Spectral Library name was jhu.nicolet.mineral.carbonate.none.solid.dolomi1.spectrum.txt
Measurement: Bidirectional reflectance
X Units: Wavelength (micrometers)
Y Units: Reflectance (percent)
wavelength	value
25.0442	62.9334
24.3388	61.1912
23.6719	56.7303
23.0407	49.7626
22.4422	40.6132
21.8741	30.1698
21.334	19.1992
20.8199	10.2011
20.33	6.6855
19.8627	5.8125
19.4163	5.9477
18.9896	6.4067
18.5812	7.2344
18.19	7.79
17.815	8.3271
17.4551	8.8594
17.1094	9.311
16.7772	9.665
16.4576	10.0244
16.15	10.3711
15.8537	10.6865
15.568	10.9629
15.2925	11.205
15.0265	11.4414
14.7697	11.623
14.5214	11.8291
14.2814	12.0908
14.0492	12.4956
13.8244	13.56
13.6067	10.0442
13.3957	11.4218
13.1912	11.9443
12.9929	12.2356
12.8004	12.5097
12.6135	12.7588
12.432	12.9914
12.2557	13.2636
12.0843	13.6582
11.9176	14.0263
11.7555	14.8359
11.5977	15.5908
11.444	17.9824
11.2944	34.1203
11.1487	39.4091
11.0067	20.3896
10.8682	11.2453
10.7332	10.8655
10.6015	11.3791
10.473	11.7395
10.3476	12.0039
10.2251	12.2202
10.1056	12.3559
9.9887	12.5031
9.8746	12.6201
9.763	12.7549
9.6539	12.8325
9.5472	13.0293
9.4429	13.1298
9.3408	13.2512
9.2409	13.3674
9.1431	13.5014
9.0474	13.6211
8.9536	13.8725
8.8618	13.8767
8.7718	13.9194
8.6837	14.0493
8.5973	14.187
8.5126	14.3227
8.4295	14.4458
8.3481	14.5566
8.2682	14.7177
8.1898	14.9184
8.1129	15.0603
8.0374	15.2275
7.9634	15.435
7.8906	15.7104
7.8192	16.0393
7.7491	16.3696
7.6802	16.6855
7.6126	17.0717
7.5461	17.5234
7.4807	18.0517
7.4165	18.6684
7.3534	19.4843
7.2914	20.4619
7.2303	21.7939
7.1703	23.7216
7.1113	27.3852
7.0533	32.5434
6.9962	42.7426
6.94	44.496
6.8847	45.6229
6.8302	47.1703
6.7767	48.3573
6.7239	49.6893
6.672	52.0956
6.6209	59.7953
6.5705	67.1927
6.5209	72.7108
6.4721	74.5936
6.424	73.2483
6.3766	69.3509
6.3299	51.1976
6.2838	40.975
6.2385	34.2265
6.1937	30.0986
6.1496	24.7797
6.1062	17.5742
6.0633	10.1955
6.0211	4.3017
5.9794	4.5957
5.9383	5.2234
5.8978	5.7407
5.8578	6.1948
5.8184	6.5122
5.7794	6.8764
5.741	7.2671
5.7031	7.541
5.6657	7.7871
5.6288	7.9819
5.5924	8.1733
5.5564	8.4116
5.5209	8.5317
5.4859	8.3481
5.4513	8.2798
5.4171	8.501
5.3833	8.6762
5.35	8.8052
5.3171	8.9411
5.2846	9.0283
5.2524	9.1343
5.2207	9.2346
5.1893	9.3227
5.1584	9.428
5.1277	9.5034
5.0975	9.562
5.0676	9.5791
5.038	9.677
5.0088	9.7744
4.98	9.8083
4.9514	9.8576
4.9232	9.9148
4.8953	9.9499
4.8678	9.9995
4.8405	10.0364
4.8135	10.0661
4.7868	10.1196
4.7605	10.124
4.7344	10.1782
4.7086	10.1789
4.6831	10.1609
4.6578	10.1364
4.6328	10.1701
4.6081	10.1941
4.5837	10.2329
4.5595	10.2705
4.5356	10.31
4.5119	10.3501
4.4884	10.4331
4.4652	10.424
4.4423	10.4006
4.4196	10.4292
4.3971	10.4924
4.3748	10.5561
4.3528	10.6079
4.331	10.5637
4.3094	10.5454
4.288	10.5566
4.2668	10.5859
4.2458	10.6328
4.2251	10.6411
4.2045	10.6816
4.1841	10.7099
4.164	10.7326
4.144	10.7153
4.1242	10.7356
4.1046	10.7453
4.0852	10.7756
4.066	10.759
4.047	10.7622
4.0281	10.7922
4.0094	10.8081
3.9909	10.8449
3.9725	10.8987
3.9544	10.7588
3.9363	10.687
3.9185	10.6487
3.9008	10.6211
3.8833	10.6592
3.8659	10.6592
3.8487	10.6594
3.8316	10.7221
3.8147	10.7441
3.7979	10.7182
3.7813	10.7246
3.7648	10.7304
3.7485	10.7822
3.7323	10.8359
3.7162	10.8916
3.7003	10.9306
3.6845	10.9804
3.6689	11.0031
3.6534	11.0107
3.638	11.039
3.6227	11.0566
3.6076	11.0561
3.5926	11.0539
3.5777	11.0542
3.563	11.0197
3.5484	10.9424
3.5338	10.9553
3.5195	10.9126
3.5052	10.9116
3.491	10.9582
3.477	10.959
3.463	10.9358
3.4492	10.8906
3.4355	10.8537
3.4219	10.9045
3.4084	10.9709
3.395	10.9902
3.3817	11.0041
3.3685	11.0937
3.3554	11.0608
3.3425	11.0302
3.3296	11.018
3.3168	11.0034
3.3041	10.9223
3.2915	10.9272
3.279	10.9497
3.2666	10.9751
3.2543	10.9892
3.2421	11.0239
3.23	11.0483
3.218	11.0649
3.206	11.0947
3.1942	11.1157
3.1824	11.1528
3.1707	11.1855
3.1591	11.205
3.1476	11.2021
3.1362	11.1899
3.1249	11.1855
3.1136	11.2207
3.1024	11.2168
3.0913	11.2197
3.0803	11.2251
3.0694	11.2353
3.0585	11.2558
3.0477	11.2627
3.037	11.2759
3.0264	11.2998
3.0158	11.2978
3.0053	11.3213
2.9949	11.3496
2.9845	11.3554
2.9743	11.3579
2.9641	11.3989
2.9539	11.415
2.9439	11.4218
2.9339	11.4394
2.9239	11.4287
2.9141	11.4438
2.9043	11.4785
2.8946	11.4853
2.8849	11.5068
2.8753	11.5122
2.8658	11.5644
2.8563	11.6152
2.8469	11.623
2.8375	11.6587
2.8282	11.6552
2.819	11.664
2.8098	11.6977
2.8007	11.6801
2.7917	11.6552
2.7827	11.6308
2.7738	11.5957
2.7649	11.5942
2.7561	11.6255
2.7473	11.7114
2.7386	11.7739
2.7299	11.8852
2.7213	11.9101
2.7128	11.9609
2.7043	12.0371
2.6959	12.0215
2.6875	12.0517
2.6791	12.1211
2.6709	12.1015
2.6626	12.1845
2.6545	12.2041
2.6463	12.1982
2.6382	12.2207
2.6302	12.2109
2.6222	12.2119
2.6143	12.2549
2.6064	12.2168
2.5986	12.2353
2.5908	12.2588
2.583	12.2392
2.5753	12.2275
2.5677	12.1963
2.5601	12.1963
2.5525	12.2041
2.545	12.0976
2.5375	11.9736
2.5301	11.8447
2.5227	11.8525
2.5154	11.8203
2.5081	11.8369
2.5008	11.9277
2.4936	11.9316
2.4864	11.9658
2.4793	12.0244
2.4722	12.0634
2.4651	12.0644
2.4581	12.1025
2.4511	12.1445
2.4442	12.1963
2.4373	12.2539
2.4305	12.3408
2.4236	12.3955
2.4169	12.4384
2.4101	12.5156
2.4034	12.5009
2.3967	12.5175
2.3901	12.5586
2.3835	12.6103
2.377	12.6289
2.3704	12.6523
2.364	12.665
2.3575	12.7158
2.3511	12.6494
2.3447	12.6416
2.3384	12.5478
2.3321	12.4697
2.3258	12.4619
2.3195	12.457
2.3133	12.4961
2.3071	12.5664
2.301	12.6015
2.2949	12.6113
2.2888	12.7109
2.2828	12.7031
2.2767	12.7168
2.2708	12.7343
2.2648	12.8105
2.2589	12.875
2.253	12.9218
2.2471	12.9375
2.2413	12.9785
2.2355	13.0625
2.2297	13.1054
2.224	13.1211
2.2183	13.1914
2.2126	13.1757
2.207	13.1679
2.2013	13.2422
2.1957	13.2519
2.1902	13.3086
2.1846	13.3203
2.1791	13.3164
2.1736	13.2812
2.1682	13.3125
2.1628	13.3925
2.1574	13.3632
2.152	13.3828
2.1466	13.3632
2.1413	13.3711
2.136	13.4472
2.1308	13.3828
2.1255	13.4238
2.1203	13.4531
2.1151	13.5117
2.11	13.5507
2.1048	13.5039
2.0997	13.5097
2.0946	13.5625
2.0895	13.541
2.0845	13.5507
2.0795	13.5722
