Name: Sulphur S
Type: Mineral
Class: Element
Subclass: None
Particle Size: Medium
Sample No.: E-2A
Owner: JPL
Wavelength Range: TIR
Origin: N/A
Description: Particle size was 45-125um.Collected by JPL Original ASTER Spectral Library name was jpl.nicolet.mineral.element.none.medium.e02a.spectrum.txt
Measurement: Hemispherical reflectance
X Units: Wavelength (micrometers)
Y Units: Reflectance (percent)
wavelength	value
15.3853	39.0665
15.1161	36.4265
14.8563	47.3177
14.6052	46.5429
14.3624	62.1587
14.1276	52.8977
13.9004	58.5949
13.6803	71.0707
13.4671	73.9999
13.2604	77.1481
13.06	78.5615
12.8656	77.3894
12.6769	72.3217
12.4936	65.7899
12.3155	55.4743
12.1425	37.9113
11.9742	23.9746
11.8106	18.1109
11.6513	36.2179
11.4963	40.9731
11.3454	50.4454
11.1983	60.5854
11.0551	57.2209
10.9154	69.727
10.7793	61.1932
10.6465	52.2091
10.5169	72.5518
10.3904	78.6649
10.267	79.996
10.1464	79.548
10.0287	81.5403
9.9136	82.7317
9.8012	82.6642
9.6913	82.7923
9.5838	81.8039
9.4787	81.2199
9.3758	83.0377
9.2752	83.2415
9.1767	82.8236
9.0803	83.4
8.9858	82.7635
8.8934	82.1923
8.8028	82.7431
8.714	83.9862
8.627	85.6232
8.5417	86.2743
8.4581	86.7878
8.3761	87.9278
8.2957	88.386
8.2169	88.6879
8.1395	88.1937
8.0635	86.5044
7.989	83.0227
7.9158	77.6425
7.8439	69.747
7.7734	63.3584
7.7041	60.6234
7.636	61.4782
7.5691	68.5709
7.5034	73.6041
7.4388	77.3747
7.3753	80.3582
7.3129	80.3063
7.2515	83.7191
7.1912	85.9636
7.1318	84.3275
7.0734	83.9103
7.016	82.2626
6.9595	80.986
6.9039	79.4632
6.8492	80.0725
6.7953	81.6649
6.7423	81.3809
6.6901	83.4857
6.6387	88.0503
6.5881	87.386
6.5382	88.3431
6.4892	93.4644
6.4408	91.2651
6.3931	91.2568
6.3462	93.3596
6.2999	91.1821
6.2543	91.138
6.2094	91.415
6.1651	92.0633
6.1214	92.6754
6.0784	93.0009
6.0359	91.8575
5.994	92.5615
5.9527	91.7746
5.912	91.3705
5.8718	92.318
5.8322	92.3826
5.7931	91.1573
5.7545	91.7249
5.7165	92.6785
5.6789	92.3673
5.6418	93.5995
5.6052	92.3369
5.5691	92.3636
5.5334	92.3854
5.4982	92.9197
5.4635	94.2227
5.4291	94.2789
5.3952	94.3464
5.3618	94.5561
5.3287	94.5394
5.2961	94.9024
5.2638	94.7359
5.2319	94.7715
5.2004	94.9591
5.1693	94.8304
5.1386	94.9156
5.1082	94.8572
5.0782	94.8473
5.0485	94.8324
5.0192	95.0197
4.9902	94.8453
4.9616	94.876
4.9332	94.8764
4.9052	94.8312
4.8776	94.9107
4.8502	94.9093
4.8231	94.8103
4.7963	94.8509
4.7699	94.7974
4.7437	94.7921
4.7178	94.7452
4.6922	94.6973
4.6668	94.5989
4.6418	94.6807
4.617	94.6428
4.5924	94.6625
4.5681	94.7154
4.5441	94.696
4.5203	94.7987
4.4968	94.7873
4.4735	94.7533
4.4505	94.7969
4.4277	94.7457
4.4051	94.8796
4.3828	94.7931
4.3607	94.8336
4.3388	94.7216
4.3171	94.5159
4.2956	94.2068
4.2744	93.9774
4.2534	94.4564
4.2325	93.7874
4.2119	94.3394
4.1915	94.7483
4.1712	94.751
4.1512	94.6096
4.1313	94.5904
4.1117	94.6095
4.0922	94.5117
4.0729	94.1345
4.0538	93.9163
4.0349	93.4878
4.0161	93.0978
3.9976	93.5085
3.9792	94.0704
3.9609	93.7593
3.9428	93.7783
3.9249	93.7288
3.9072	93.6812
3.8896	93.7109
3.8722	93.7144
3.8549	93.7754
3.8378	93.889
3.8208	93.9765
3.804	93.9554
3.7873	94.0929
3.7708	94.1631
3.7544	94.1153
3.7382	94.1496
3.7221	94.1946
3.7061	94.1736
3.6903	94.1862
3.6746	94.1022
3.659	94.1027
3.6436	94.17
3.6283	94.2347
3.6131	94.1361
3.5981	94.0588
3.5832	93.9385
3.5684	93.8447
3.5537	93.7146
3.5391	93.5302
3.5247	92.7995
3.5104	90.5121
3.4962	90.5664
3.4821	91.1702
3.4681	91.3637
3.4543	90.6733
3.4405	89.6971
3.4269	87.1622
3.4133	86.901
3.3999	89.694
3.3866	89.7531
3.3733	89.6338
3.3602	91.7415
3.3472	93.0938
3.3343	93.4338
3.3215	93.6247
3.3088	93.7215
3.2961	93.8264
3.2836	93.8096
3.2712	93.9293
3.2588	93.7336
3.2466	93.7509
3.2345	93.7435
3.2224	93.746
3.2104	93.6535
3.1985	93.6079
3.1867	93.4892
3.175	93.5082
3.1634	93.4275
3.1519	93.2761
3.1404	93.1311
3.129	93.1204
3.1178	92.958
3.1065	92.9178
3.0954	92.8972
3.0844	92.7914
3.0734	92.7894
3.0625	92.7281
3.0517	92.5515
3.041	92.4312
3.0303	92.3757
3.0197	92.3675
3.0092	92.3292
2.9987	92.1784
2.9884	92.1306
2.9781	92.243
2.9678	92.2446
2.9577	92.2512
2.9476	92.3699
2.9376	92.347
2.9276	92.4985
2.9177	92.5926
2.9079	92.6621
2.8982	92.7166
2.8885	92.8457
2.8789	92.6811
2.8693	92.9387
2.8598	93.0093
2.8504	93.1131
2.841	93.1337
2.8317	93.3258
2.8224	93.4802
2.8133	93.5437
2.8041	94.5386
2.7951	93.8111
2.786	94.5287
2.7771	94.1986
2.7682	94.8824
2.7594	94.1214
2.7506	94.4245
2.7418	95.8508
2.7332	94.7203
2.7246	96.5334
2.716	94.5483
2.7075	94.9459
2.699	94.7481
2.6906	94.9107
2.6823	95.1244
2.674	95.1957
2.6657	97.8167
2.6575	94.8489
2.6494	94.752
2.6413	94.8252
2.6332	95.2804
2.6252	95.2157
2.6173	96.6733
2.6094	95.6129
2.6015	95.4368
2.5937	97.6424
2.5859	95.5754
2.5782	95.0424
2.5706	95.4664
2.5629	96.1759
2.5554	94.7374
2.5478	94.9204
2.5403	94.8893
2.5329	94.8896
2.5255	94.8152
2.5181	94.8545
2.5108	94.7594
2.5035	94.7236
2.4963	94.6711
2.4891	94.682
2.482	94.6917
2.4749	94.6795
2.4678	94.7301
2.4608	94.808
2.4538	94.6833
2.4468	94.775
2.4399	94.7004
2.4331	94.725
2.4262	94.6216
2.4194	94.8038
2.4127	94.7914
2.4059	94.7672
2.3993	94.7513
2.3926	94.7535
2.386	94.6582
2.3795	94.8367
2.3729	94.6198
2.3664	94.6841
2.36	94.6598
2.3535	94.7285
2.3471	94.6914
2.3408	94.678
2.3345	94.8309
2.3282	94.7921
2.3219	94.7384
2.3157	94.6327
2.3095	94.6495
2.3034	94.6877
2.2972	94.6264
2.2911	94.6983
2.2851	94.6671
2.279	94.7389
2.2731	94.713
2.2671	94.9567
2.2612	94.7689
2.2553	94.8316
2.2494	94.8371
2.2435	94.8062
2.2377	94.783
2.232	94.7046
2.2262	94.8077
2.2205	94.7612
2.2148	94.8725
2.2091	94.8712
2.2035	94.6842
2.1979	94.7951
2.1923	94.7148
2.1868	95.0327
2.1812	94.6992
2.1758	94.8497
2.1703	94.8974
2.1649	94.7974
2.1595	94.9179
2.1541	94.736
2.1487	94.7531
2.1434	94.9476
2.1381	94.7078
2.1328	94.717
2.1275	94.8075
2.1223	94.7521
2.1171	94.5896
2.112	94.9891
2.1068	94.7832
2.1017	94.8396
2.0966	94.8878
2.0915	94.7908
2.0865	94.7587
2.0814	94.723
2.0764	94.7167
2.0715	94.9356
2.0665	94.9305
2.0616	94.4487
2.0567	94.6961
2.0518	94.8526
2.0469	94.8319
2.0421	94.886
2.0373	94.5412
2.0325	94.6497
2.0277	94.8773
2.0229	94.8707
2.0182	94.8952
2.0135	94.7637
2.0088	94.7241
2.0042	94.594
