Name: Columbite Fe^2+Nb_2O_6
Type: Mineral
Class: Oxide
Subclass: None
Particle Size: Fine
Sample No.: O-7A
Owner: JPL
Wavelength Range: TIR
Origin: USA, South Dakota, Pennington County, Keystone
Description: Particle size was 0-45um.Collected by Burminco Original ASTER Spectral Library name was jpl.nicolet.mineral.oxide.none.fine.o07a.spectrum.txt
Measurement: Hemispherical reflectance
X Units: Wavelength (micrometers)
Y Units: Reflectance (percent)
wavelength	value
15.3853	7.7803
15.1161	8.1692
14.8563	8.5269
14.6052	8.7695
14.3624	8.9639
14.1276	9.574
13.9004	9.2279
13.6803	8.328
13.4671	7.5015
13.2604	6.5694
13.06	5.9913
12.8656	5.6038
12.6769	4.9949
12.4936	4.9906
12.3155	4.5661
12.1425	4.0316
11.9742	3.9126
11.8106	3.824
11.6513	3.2976
11.4963	2.1069
11.3454	1.329
11.1983	0.7581
11.0551	1.095
10.9154	1.2688
10.7793	1.9015
10.6465	2.7394
10.5169	3.8518
10.3904	4.7988
10.267	5.7584
10.1464	6.4911
10.0287	7.0672
9.9136	7.6491
9.8012	7.9024
9.6913	8.9091
9.5838	9.383
9.4787	10.1826
9.3758	11.2739
9.2752	12.2252
9.1767	12.9023
9.0803	13.906
8.9858	14.8246
8.8934	15.9855
8.8028	16.8438
8.714	18.0804
8.627	18.6752
8.5417	19.5805
8.4581	20.4266
8.3761	21.3201
8.2957	22.0419
8.2169	22.8689
8.1395	23.6142
8.0635	24.1033
7.989	24.7849
7.9158	25.4387
7.8439	25.8402
7.7734	26.6087
7.7041	27.1742
7.636	27.8322
7.5691	28.4778
7.5034	29.0248
7.4388	29.6948
7.3753	30.0997
7.3129	30.5447
7.2515	30.7209
7.1912	30.9578
7.1318	31.0297
7.0734	30.9536
7.016	31.2426
6.9595	31.7214
6.9039	31.9876
6.8492	32.3421
6.7953	33.0042
6.7423	33.1591
6.6901	33.5094
6.6387	34.1956
6.5881	33.4857
6.5382	33.3156
6.4892	34.017
6.4408	33.4994
6.3931	33.5527
6.3462	34.0764
6.2999	33.8218
6.2543	33.7601
6.2094	33.4797
6.1651	33.2304
6.1214	33.1435
6.0784	33.0861
6.0359	32.8052
5.994	32.4986
5.9527	31.9483
5.912	32.1179
5.8718	33.0539
5.8322	34.1972
5.7931	35.3144
5.7545	37.0787
5.7165	39.2885
5.6789	41.2848
5.6418	43.1574
5.6052	43.7992
5.5691	44.4208
5.5334	44.8799
5.4982	45.3631
5.4635	45.9648
5.4291	46.1383
5.3952	46.222
5.3618	46.4249
5.3287	46.7136
5.2961	46.8219
5.2638	47.044
5.2319	47.2791
5.2004	47.4941
5.1693	47.542
5.1386	47.5397
5.1082	47.6712
5.0782	47.7474
5.0485	47.7808
5.0192	47.9271
4.9902	47.8588
4.9616	47.9875
4.9332	48.1333
4.9052	48.3038
4.8776	48.3822
4.8502	48.5348
4.8231	48.5534
4.7963	48.7392
4.7699	48.7317
4.7437	48.8276
4.7178	48.9509
4.6922	49.1293
4.6668	49.2517
4.6418	49.2537
4.617	49.3497
4.5924	49.5239
4.5681	49.5377
4.5441	49.7166
4.5203	49.9323
4.4968	49.8952
4.4735	50.0159
4.4505	50.1276
4.4277	50.1802
4.4051	50.2553
4.3828	50.3648
4.3607	50.4717
4.3388	50.3974
4.3171	50.3246
4.2956	50.2416
4.2744	50.1831
4.2534	50.4641
4.2325	50.0878
4.2119	50.5578
4.1915	50.7935
4.1712	50.9724
4.1512	50.8753
4.1313	50.9633
4.1117	51.04
4.0922	51.0248
4.0729	51.0262
4.0538	50.9577
4.0349	50.9908
4.0161	50.9647
3.9976	50.8639
3.9792	50.8901
3.9609	50.8271
3.9428	50.7766
3.9249	50.8046
3.9072	50.5441
3.8896	50.5586
3.8722	50.5594
3.8549	50.3178
3.8378	50.2646
3.8208	50.1424
3.804	50.0154
3.7873	49.9085
3.7708	49.701
3.7544	49.5568
3.7382	49.4218
3.7221	49.2294
3.7061	49.0733
3.6903	48.8561
3.6746	48.621
3.659	48.4912
3.6436	48.2634
3.6283	47.9553
3.6131	47.7566
3.5981	47.4589
3.5832	47.1939
3.5684	46.9779
3.5537	46.6671
3.5391	46.4026
3.5247	45.9422
3.5104	45.388
3.4962	44.9526
3.4821	44.9689
3.4681	44.6438
3.4543	44.3039
3.4405	43.8466
3.4269	43.2262
3.4133	42.7478
3.3999	42.8018
3.3866	42.4158
3.3733	42.0461
3.3602	41.9248
3.3472	41.7332
3.3343	41.2752
3.3215	40.8348
3.3088	40.5847
3.2961	40.0446
3.2836	39.8412
3.2712	39.2952
3.2588	38.8541
3.2466	38.3821
3.2345	38.0365
3.2224	37.5915
3.2104	37.1206
3.1985	36.6372
3.1867	36.0524
3.175	35.6466
3.1634	35.1147
3.1519	34.4874
3.1404	34.1582
3.129	33.7082
3.1178	33.0466
3.1065	32.6449
3.0954	32.1225
3.0844	31.6741
3.0734	31.2267
3.0625	30.7161
3.0517	30.1201
3.041	29.7872
3.0303	29.0773
3.0197	28.8262
3.0092	28.2698
2.9987	27.8754
2.9884	27.3435
2.9781	26.9989
2.9678	26.6062
2.9577	26.4262
2.9476	26.4045
2.9376	26.691
2.9276	27.1583
2.9177	27.6221
2.9079	28.5017
2.8982	29.3318
2.8885	30.3982
2.8789	31.5704
2.8693	32.5681
2.8598	33.5729
2.8504	34.5142
2.841	35.3976
2.8317	36.1322
2.8224	37.1633
2.8133	38.0828
2.8041	39.4678
2.7951	40.4626
2.786	41.537
2.7771	42.182
2.7682	42.7503
2.7594	42.8776
2.7506	43.9504
2.7418	45.1845
2.7332	45.4273
2.7246	46.3187
2.716	45.9958
2.7075	45.6852
2.699	46.1132
2.6906	47.5455
2.6823	48.2521
2.674	48.3452
2.6657	49.2491
2.6575	48.412
2.6494	48.4732
2.6413	48.4897
2.6332	48.5664
2.6252	48.5681
2.6173	48.7789
2.6094	48.5651
2.6015	48.4772
2.5937	48.9338
2.5859	48.2476
2.5782	48.2233
2.5706	48.1685
2.5629	48.2811
2.5554	47.9262
2.5478	47.8929
2.5403	47.6845
2.5329	47.739
2.5255	47.6662
2.5181	47.4727
2.5108	47.5959
2.5035	47.3998
2.4963	47.3294
2.4891	47.1777
2.482	47.1254
2.4749	46.9598
2.4678	46.9774
2.4608	46.8609
2.4538	46.9014
2.4468	46.7064
2.4399	46.6532
2.4331	46.5232
2.4262	46.4788
2.4194	46.172
2.4127	46.2153
2.4059	46.1471
2.3993	46.0162
2.3926	45.8424
2.386	45.7844
2.3795	45.7856
2.3729	45.6084
2.3664	45.5599
2.36	45.3721
2.3535	45.1602
2.3471	45.0646
2.3408	44.8693
2.3345	44.9841
2.3282	44.9423
2.3219	44.73
2.3157	44.5551
2.3095	44.3937
2.3034	44.4303
2.2972	44.2985
2.2911	44.0292
2.2851	44.1017
2.279	43.8696
2.2731	43.8508
2.2671	43.517
2.2612	43.4233
2.2553	43.3114
2.2494	43.0961
2.2435	43.0529
2.2377	42.856
2.232	42.9172
2.2262	42.625
2.2205	42.6383
2.2148	42.398
2.2091	42.2619
2.2035	42.249
2.1979	42.0322
2.1923	41.8786
2.1868	41.6238
2.1812	41.4971
2.1758	41.5876
2.1703	41.1401
2.1649	40.9162
2.1595	41.0637
2.1541	40.896
2.1487	40.7021
2.1434	40.2955
2.1381	40.2247
2.1328	40.2929
2.1275	39.8662
2.1223	39.7394
2.1171	39.6665
2.112	39.3969
2.1068	39.3202
2.1017	39.1816
2.0966	38.7294
2.0915	39.0058
2.0865	38.6613
2.0814	38.5845
2.0764	37.9752
2.0715	38.1359
2.0665	38.0539
2.0616	37.8017
2.0567	37.4012
2.0518	37.1808
2.0469	37.0974
2.0421	37.1117
2.0373	36.7439
2.0325	36.6847
2.0277	36.4217
2.0229	36.3439
2.0182	36.2921
2.0135	35.7734
2.0088	35.6863
2.0042	35.3405
