Name: Arsenopyrite FeAsS
Type: Mineral
Class: Sulfide
Subclass: None
Particle Size: Medium
Sample No.: S-5A
Owner: JPL
Wavelength Range: VSWIR
Origin: USA, Nevada, Lander County, Austin.
Description: Particle size was 45-125um. Collected by:  Burminco Original ASTER Spectral Library name was jpl.perkin.mineral.sulfide.none.medium.s05a.spectrum.txt
Measurement: Hemispherical reflectance
X Units: Wavelength (micrometers)
Y Units: Reflectance (percent)
wavelength	value
2.5	8.9218
2.494	8.9562
2.488	9.0516
2.482	8.763
2.476	8.7726
2.47	8.9486
2.464	8.8873
2.458	8.8492
2.452	8.677
2.446	8.8346
2.44	8.7791
2.434	8.7999
2.428	8.8519
2.422	8.7931
2.416	8.7816
2.41	8.8019
2.404	8.8569
2.398	8.817
2.392	8.832
2.386	8.7155
2.38	8.7999
2.374	8.8233
2.368	8.816
2.362	8.8631
2.356	8.7734
2.35	8.7716
2.344	8.7952
2.338	8.779
2.332	8.8064
2.326	8.718
2.32	8.691
2.314	8.7492
2.308	8.7241
2.302	8.7484
2.296	8.709
2.29	8.6791
2.284	8.6926
2.278	8.6724
2.272	8.6995
2.266	8.6465
2.26	8.6009
2.254	8.605
2.248	8.6116
2.242	8.6511
2.236	8.6326
2.23	8.5075
2.224	8.5625
2.218	8.539
2.212	8.685
2.206	8.602
2.2	8.627
2.194	8.5783
2.188	8.6035
2.182	8.6075
2.176	8.6562
2.17	8.6292
2.164	8.6623
2.158	8.6394
2.152	8.7237
2.146	8.6039
2.14	8.6678
2.134	8.6257
2.128	8.5786
2.122	8.5607
2.116	8.5316
2.11	8.5424
2.104	8.5237
2.098	8.4804
2.092	8.4705
2.086	8.4824
2.08	8.5361
2.074	8.4878
2.068	8.4844
2.062	8.4581
2.056	8.4667
2.05	8.4894
2.044	8.4032
2.038	8.4325
2.032	8.4625
2.026	8.406
2.02	8.4067
2.014	8.3716
2.008	8.3702
2.002	8.3986
1.996	8.3785
1.99	8.3983
1.984	8.4245
1.978	8.339
1.972	8.4003
1.966	8.4119
1.96	8.3278
1.954	8.3055
1.948	8.3711
1.942	8.2625
1.936	8.367
1.93	8.3788
1.924	8.4149
1.918	8.2897
1.912	8.4229
1.906	8.3634
1.9	8.4195
1.894	8.3673
1.888	8.353
1.882	8.4157
1.876	8.4013
1.87	8.3595
1.864	8.374
1.858	8.3527
1.852	8.339
1.846	8.2707
1.84	8.3331
1.834	8.3734
1.828	8.3795
1.822	8.3143
1.816	8.3573
1.81	8.2849
1.804	8.2675
1.798	8.2491
1.792	8.3047
1.786	8.2557
1.78	8.2424
1.774	8.2783
1.768	8.2856
1.762	8.2507
1.756	8.2194
1.75	8.2107
1.744	8.225
1.738	8.2264
1.732	8.2033
1.726	8.2154
1.72	8.2081
1.714	8.2243
1.708	8.19
1.702	8.1751
1.696	8.2705
1.69	8.2459
1.684	8.1634
1.678	8.1726
1.672	8.2322
1.666	8.2394
1.66	8.2302
1.654	8.1805
1.648	8.1375
1.642	8.2873
1.636	8.1406
1.63	8.1673
1.624	8.2043
1.618	8.1789
1.612	8.173
1.606	8.1949
1.6	8.1467
1.594	8.1477
1.588	8.1269
1.582	8.2217
1.576	8.148
1.57	8.1422
1.564	8.1445
1.558	8.1166
1.552	8.195
1.546	8.1677
1.54	8.1381
1.534	8.1689
1.528	8.2197
1.522	8.1619
1.516	8.1304
1.51	8.225
1.504	8.1208
1.498	8.1738
1.492	8.1196
1.486	8.1062
1.48	8.1717
1.474	8.1128
1.468	8.1811
1.462	8.1004
1.456	8.1284
1.45	8.175
1.444	8.0944
1.438	8.1435
1.432	8.1905
1.426	8.2315
1.42	8.1716
1.414	8.1192
1.408	8.1484
1.402	8.2247
1.396	8.279
1.39	8.2613
1.384	8.1105
1.378	8.1906
1.372	8.2164
1.366	8.1905
1.36	8.2922
1.354	8.2679
1.348	8.1677
1.342	8.1964
1.336	8.1858
1.33	8.1831
1.324	8.2245
1.318	8.2177
1.312	8.2409
1.306	8.2508
1.3	8.161
1.294	8.2045
1.288	8.2252
1.282	8.2718
1.276	8.2362
1.27	8.2307
1.264	8.2544
1.258	8.2356
1.252	8.2972
1.246	8.2497
1.24	8.2389
1.234	8.2998
1.228	8.2914
1.222	8.2644
1.216	8.3059
1.21	8.3099
1.204	8.2785
1.198	8.3397
1.192	8.3629
1.186	8.3303
1.18	8.3773
1.174	8.3932
1.168	8.362
1.162	8.4076
1.156	8.5036
1.15	8.404
1.144	8.4353
1.138	8.3788
1.132	8.5826
1.126	8.4466
1.12	8.4627
1.114	8.5538
1.108	8.5222
1.102	8.4772
1.096	8.4989
1.09	8.6209
1.084	8.5792
1.078	8.595
1.072	8.52
1.066	8.6855
1.06	8.6676
1.054	8.7511
1.048	8.7113
1.042	8.7118
1.036	8.7471
1.03	8.7941
1.024	8.8031
1.018	8.831
1.012	8.8316
1.006	8.7527
1	8.8493
0.994	8.861
0.988	8.9033
0.982	8.8744
0.976	8.9267
0.97	8.9999
0.964	9.0156
0.958	8.998
0.952	9.0077
0.946	8.9969
0.94	9.0496
0.934	9.1247
0.928	9.0744
0.922	9.1801
0.916	9.2049
0.91	9.2218
0.904	9.2394
0.898	9.2888
0.892	9.236
0.886	9.3038
0.88	9.3092
0.874	9.393
0.868	9.3209
0.862	9.4128
0.856	9.603
0.85	9.6367
0.844	9.6624
0.838	9.6936
0.832	9.7354
0.826	9.7445
0.82	9.75
0.814	9.7683
0.808	9.7921
0.802	9.8216
0.796	9.8094
0.79	9.8247
0.784	9.8413
0.778	9.8469
0.772	9.8698
0.766	9.8872
0.76	9.9021
0.754	9.9132
0.748	9.9176
0.742	9.9376
0.736	9.951
0.73	9.9661
0.724	9.982
0.718	9.9891
0.712	10.0049
0.706	10.0134
0.7	10.0185
0.694	10.0299
0.688	10.0385
0.682	10.0417
0.676	10.0514
0.67	10.0593
0.664	10.0612
0.658	10.0708
0.652	10.0738
0.646	10.0771
0.64	10.0802
0.634	10.0782
0.628	10.0809
0.622	10.08
0.616	10.0773
0.61	10.0757
0.604	10.0743
0.598	10.0712
0.592	10.0699
0.586	10.0628
0.58	10.0564
0.574	10.044
0.568	10.0334
0.562	10.0175
0.556	10.0058
0.55	9.9907
0.544	9.9715
0.538	9.948
0.532	9.9243
0.526	9.8999
0.52	9.8678
0.514	9.8359
0.508	9.8034
0.502	9.772
0.496	9.7304
0.49	9.6953
0.484	9.6411
0.478	9.5757
0.472	9.5131
0.466	9.448
0.46	9.3837
0.454	9.3034
0.448	9.2288
0.442	9.1446
0.436	9.0651
0.43	9.0005
0.424	8.9092
0.418	8.807
0.412	8.6862
0.406	8.5568
0.4	8.4155
