Name: Olivine (Fo11) (Fe+2,Mg)2SiO4
Type: Mineral
Class: Silicate
Subclass: Nesosilicate
Particle Size: Coarse
Sample No.: olivine_10
Owner: JHU
Wavelength Range: TIR
Origin: Twin Sisters Peak, Washington via Trude King #TSD
Description: Olivine from the Twin Sisters intrusive was optically examined using a petrographic icroscope prior to spectral measurements to insure purity of the olivine.  The sample was >98% pure olivine.  It was hand ground and wet sieved into <60 µm size range.  Particle size was 0-60 micrometers, but packed powder simulates coarse. Sample preparation was by Trude King, USGS, Denver.(Isolated tetrahedra); (Olivine Group) Original ASTER Spectral Library name was jhu.nicolet.mineral.silicate.nesosilicate.packed.olivi10.spectrum.txt
Measurement: Bidirectional reflectance
X Units: Wavelength (micrometers)
Y Units: Reflectance (percent)
wavelength	value
25.0442	9.4131
24.3388	10.4057
23.6719	12.3344
23.0407	12.3159
22.4422	11.2829
21.8741	8.2114
21.334	7.7261
20.8199	6.7483
20.33	6.6904
19.8627	9.1396
19.4163	9.9013
18.9896	11.6787
18.5812	11.4453
18.19	11.5249
17.815	10.5263
17.4551	8.3174
17.1094	5.6184
16.7772	4.7849
16.4576	5.3982
16.15	6.1848
15.8537	6.4433
15.568	5.6777
15.2925	4.4221
15.0265	3.7727
14.7697	3.8291
14.5214	4.041
14.2814	4.3882
14.0492	4.7007
13.8244	4.9709
13.6067	5.2324
13.3957	5.397
13.1912	5.5642
12.9929	5.6628
12.8004	5.699
12.6135	5.6487
12.432	5.5049
12.2557	5.3411
12.0843	5.1836
11.9176	5.2043
11.7555	5.0752
11.5977	5.6921
11.444	7.0212
11.2944	7.979
11.1487	8.5779
11.0067	9.1433
10.8682	9.7617
10.7332	10.3772
10.6015	11.0156
10.473	11.4416
10.3476	9.2829
10.2251	8.3852
10.1056	10.3664
9.9887	9.9692
9.8746	10.1582
9.763	10.3125
9.6539	10.4316
9.5472	10.4731
9.4429	10.2954
9.3408	10.0324
9.2409	8.8598
9.1431	7.2058
9.0474	5.7803
8.9536	4.564
8.8618	4.02
8.7718	4.0571
8.6837	4.3611
8.5973	4.6997
8.5126	5.0615
8.4295	5.3249
8.3481	5.676
8.2682	5.9558
8.1898	6.2151
8.1129	6.5998
8.0374	6.8865
7.9634	7.1308
7.8906	7.2568
7.8192	7.3083
7.7491	7.3772
7.6802	7.4614
7.6126	7.426
7.5461	7.3491
7.4807	7.4026
7.4165	7.5144
7.3534	7.6387
7.2914	7.8198
7.2303	7.8757
7.1703	7.9707
7.1113	8.0945
7.0533	8.1555
6.9962	8.3232
6.94	8.57
6.8847	8.7563
6.8302	8.8076
6.7767	8.9038
6.7239	9.0947
6.672	9.2927
6.6209	9.4118
6.5705	9.4817
6.5209	9.424
6.4721	9.4438
6.424	9.4223
6.3766	9.3447
6.3299	9.2934
6.2838	9.2204
6.2385	9.2527
6.1937	9.3423
6.1496	9.3603
6.1062	9.2937
6.0633	8.8948
6.0211	7.9946
5.9794	7.8076
5.9383	8.0984
5.8978	8.1831
5.8578	8.2029
5.8184	8.3637
5.7794	8.4333
5.741	8.4094
5.7031	8.05
5.6657	7.5207
5.6288	7.1865
5.5924	7.4277
5.5564	8.0891
5.5209	8.3142
5.4859	8.2929
5.4513	8.247
5.4171	8.3874
5.3833	8.6091
5.35	8.8183
5.3171	8.9546
5.2846	9.0129
5.2524	8.9863
5.2207	8.9597
5.1893	9.1067
5.1584	9.3183
5.1277	9.5093
5.0975	9.6611
5.0676	9.7632
5.038	9.7903
5.0088	9.7351
4.98	9.5954
4.9514	9.4048
4.9232	9.5359
4.8953	9.9758
4.8678	10.5608
4.8405	10.9428
4.8135	11.0962
4.7868	11.1889
4.7605	11.2524
4.7344	11.2934
4.7086	11.323
4.6831	11.3591
4.6578	11.3904
4.6328	11.4065
4.6081	11.4343
4.5837	11.4458
4.5595	11.4751
4.5356	11.4895
4.5119	11.5097
4.4884	11.5378
4.4652	11.5561
4.4423	11.5813
4.4196	11.6086
4.3971	11.6272
4.3748	11.6462
4.3528	11.6648
4.331	11.6701
4.3094	11.6814
4.288	11.7104
4.2668	11.7363
4.2458	11.7487
4.2251	11.7668
4.2045	11.7722
4.1841	11.759
4.164	11.7619
4.144	11.7656
4.1242	11.7541
4.1046	11.761
4.0852	11.7536
4.066	11.748
4.047	11.7419
4.0281	11.7014
4.0094	11.6606
3.9909	11.6501
3.9725	11.6491
3.9544	11.6477
3.9363	11.6557
3.9185	11.6474
3.9008	11.6457
3.8833	11.6245
3.8659	11.5781
3.8487	11.5591
3.8316	11.5398
3.8147	11.528
3.7979	11.5049
3.7813	11.4883
3.7648	11.4807
3.7485	11.4536
3.7323	11.4211
3.7162	11.4021
3.7003	11.3745
3.6845	11.332
3.6689	11.3261
3.6534	11.2976
3.638	11.2683
3.6227	11.2343
3.6076	11.1936
3.5926	11.1643
3.5777	11.1157
3.563	11.0691
3.5484	11.0215
3.5338	10.9599
3.5195	10.8486
3.5052	10.6562
3.491	10.6836
3.477	10.6916
3.463	10.6758
3.4492	10.5866
3.4355	10.4673
3.4219	10.258
3.4084	10.271
3.395	10.3811
3.3817	10.3584
3.3685	10.3982
3.3554	10.4406
3.3425	10.4428
3.3296	10.4218
3.3168	10.3877
3.3041	10.3672
3.2915	10.3215
3.279	10.3039
3.2666	10.2575
3.2543	10.2187
3.2421	10.1804
3.23	10.1443
3.218	10.1155
3.206	10.0661
3.1942	10.0295
3.1824	9.9768
3.1707	9.9358
3.1591	9.9089
3.1476	9.8552
3.1362	9.7912
3.1249	9.7612
3.1136	9.7041
3.1024	9.6477
3.0913	9.6062
3.0803	9.5749
3.0694	9.529
3.0585	9.4856
3.0477	9.4499
3.037	9.4096
3.0264	9.3657
3.0158	9.3025
3.0053	9.2524
2.9949	9.2087
2.9845	9.165
2.9743	9.0928
2.9641	9.0617
2.9539	8.9953
2.9439	8.928
2.9339	8.8994
2.9239	8.8464
2.9141	8.7998
2.9043	8.7744
2.8946	8.7514
2.8849	8.7126
2.8753	8.6682
2.8658	8.6306
2.8563	8.6333
2.8469	8.6018
2.8375	8.5742
2.8282	8.5688
2.819	8.5351
2.8098	8.4873
2.8007	8.4656
2.7917	8.4167
2.7827	8.4241
2.7738	8.3867
2.7649	8.3454
2.7561	8.2893
2.7473	8.0447
2.7386	7.914
2.7299	7.7829
2.7213	7.5107
2.7128	7.0766
2.7043	7.4682
2.6959	8.9858
2.6875	9.9262
2.6791	10.6091
2.6709	10.9961
2.6626	11.0256
2.6545	11.032
2.6463	11.0083
2.6382	11.0366
2.6302	11.0886
2.6222	11.0061
2.6143	11.0185
2.6064	11.0146
2.5986	11.0044
2.5908	10.9685
2.583	11.0071
2.5753	10.9377
2.5677	10.8735
2.5601	10.8969
2.5525	10.8442
2.545	10.823
2.5375	10.8247
2.5301	10.7868
2.5227	10.7717
2.5154	10.726
2.5081	10.7248
2.5008	10.7143
2.4936	10.7226
2.4864	10.7058
2.4793	10.716
2.4722	10.685
2.4651	10.6792
2.4581	10.6621
2.4511	10.6706
2.4442	10.646
2.4373	10.646
2.4305	10.6294
2.4236	10.5976
2.4169	10.5998
2.4101	10.6045
2.4034	10.5984
2.3967	10.5859
2.3901	10.5525
2.3835	10.5483
2.377	10.5456
2.3704	10.5298
2.364	10.5119
2.3575	10.5295
2.3511	10.5078
2.3447	10.4646
2.3384	10.4194
2.3321	10.4233
2.3258	10.4336
2.3195	10.4155
2.3133	10.459
2.3071	10.4951
2.301	10.4638
2.2949	10.487
2.2888	10.478
2.2828	10.4468
2.2767	10.4765
2.2708	10.4643
2.2648	10.4995
2.2589	10.4905
2.253	10.5093
2.2471	10.5088
2.2413	10.4746
2.2355	10.518
2.2297	10.5063
2.224	10.4975
2.2183	10.5337
2.2126	10.4922
2.207	10.5298
2.2013	10.4853
2.1957	10.5454
2.1902	10.5473
2.1846	10.5627
2.1791	10.5771
2.1736	10.5188
2.1682	10.5488
2.1628	10.5581
2.1574	10.5595
2.152	10.5449
2.1466	10.5871
2.1413	10.5478
2.136	10.6037
2.1308	10.5864
2.1255	10.5903
2.1203	10.6418
2.1151	10.6162
2.11	10.625
2.1048	10.6465
2.0997	10.6408
2.0946	10.6738
2.0895	10.7387
2.0845	10.7153
2.0795	10.7177
