Name: Titanite (Sphene) CaTiSiO_5
Type: Mineral
Class: Silicate
Subclass: Nesosilicate
Particle Size: Medium
Sample No.: NS-7A
Owner: JPL
Wavelength Range: TIR
Origin: Brazil, Minas Gerais, Capelinha
Description: Particle size was 45-125um.Collected by JPL Original ASTER Spectral Library name was jpl.nicolet.mineral.silicate.nesosilicate.medium.ns07a.spectrum.txt
Measurement: Hemispherical reflectance
X Units: Wavelength (micrometers)
Y Units: Reflectance (percent)
wavelength	value
15.3853	10.0436
15.1161	10.1801
14.8563	10.6821
14.6052	11.1485
14.3624	11.7093
14.1276	11.7453
13.9004	11.8541
13.6803	11.8949
13.4671	11.9184
13.2604	11.4947
13.06	10.144
12.8656	8.7209
12.6769	7.9754
12.4936	7.9989
12.3155	8.9757
12.1425	11.4163
11.9742	15.2119
11.8106	20.07
11.6513	25.0842
11.4963	30.6515
11.3454	30.3623
11.1983	31.7204
11.0551	35.6783
10.9154	35.0309
10.7793	38.2074
10.6465	38.8786
10.5169	40.2275
10.3904	39.9716
10.267	37.8621
10.1464	33.4428
10.0287	26.2392
9.9136	20.2508
9.8012	11.5519
9.6913	4.4779
9.5838	1.283
9.4787	0.4876
9.3758	0.3049
9.2752	0.2413
9.1767	0.2814
9.0803	0.2208
8.9858	0.6267
8.8934	0.5333
8.8028	0.8785
8.714	1.3625
8.627	1.4688
8.5417	1.9282
8.4581	2.0586
8.3761	2.4089
8.2957	2.6688
8.2169	2.7776
8.1395	2.9514
8.0635	3.2715
7.989	3.734
7.9158	4.226
7.8439	4.8603
7.7734	5.492
7.7041	5.7559
7.636	5.9393
7.5691	6.1071
7.5034	6.289
7.4388	6.7704
7.3753	7.1928
7.3129	7.7052
7.2515	7.989
7.1912	8.1495
7.1318	8.2683
7.0734	8.4191
7.016	8.8407
6.9595	9.6386
6.9039	9.8275
6.8492	10.6501
6.7953	11.9185
6.7423	12.7342
6.6901	14.1492
6.6387	16.3017
6.5881	16.6654
6.5382	17.0552
6.4892	18.6303
6.4408	17.5834
6.3931	17.0403
6.3462	17.0161
6.2999	16.7011
6.2543	17.4793
6.2094	17.6734
6.1651	17.5636
6.1214	17.3228
6.0784	16.6238
6.0359	15.3006
5.994	14.5947
5.9527	13.3406
5.912	11.941
5.8718	10.4263
5.8322	9.0392
5.7931	7.7082
5.7545	7.6707
5.7165	8.3314
5.6789	8.9601
5.6418	9.9865
5.6052	10.6542
5.5691	11.6858
5.5334	12.6303
5.4982	12.9613
5.4635	13.0745
5.4291	12.8263
5.3952	12.7704
5.3618	13.7377
5.3287	15.7807
5.2961	17.8817
5.2638	21.2131
5.2319	25.5845
5.2004	29.7809
5.1693	33.8164
5.1386	36.0367
5.1082	36.5117
5.0782	35.7369
5.0485	34.4845
5.0192	35.8227
4.9902	39.5256
4.9616	43.7732
4.9332	47.7757
4.9052	51.4247
4.8776	54.3842
4.8502	56.4588
4.8231	58.4235
4.7963	59.8068
4.7699	61.0181
4.7437	62.2013
4.7178	63.044
4.6922	62.9574
4.6668	62.9773
4.6418	63.9644
4.617	65.3707
4.5924	66.4772
4.5681	67.7588
4.5441	68.8332
4.5203	69.563
4.4968	70.1404
4.4735	70.5477
4.4505	70.8608
4.4277	71.2012
4.4051	71.6687
4.3828	72.0981
4.3607	72.5341
4.3388	72.9761
4.3171	73.3082
4.2956	73.6971
4.2744	74.0863
4.2534	74.4412
4.2325	74.5766
4.2119	74.9216
4.1915	75.0314
4.1712	75.0277
4.1512	75.066
4.1313	75.1182
4.1117	75.1588
4.0922	75.2005
4.0729	75.2335
4.0538	75.0248
4.0349	74.7441
4.0161	74.3084
3.9976	73.7885
3.9792	73.1683
3.9609	72.5925
3.9428	72.0727
3.9249	71.537
3.9072	71.2927
3.8896	71.0083
3.8722	70.9886
3.8549	71.4807
3.8378	71.9351
3.8208	72.6461
3.804	73.2696
3.7873	73.942
3.7708	74.5489
3.7544	74.998
3.7382	75.1255
3.7221	75.1777
3.7061	75.1215
3.6903	74.9224
3.6746	74.7387
3.659	74.7329
3.6436	74.7214
3.6283	74.6044
3.6131	74.2197
3.5981	73.7098
3.5832	73.6151
3.5684	73.9658
3.5537	74.7222
3.5391	75.4031
3.5247	75.4677
3.5104	75.1817
3.4962	74.9515
3.4821	74.9656
3.4681	74.8972
3.4543	74.6569
3.4405	74.2797
3.4269	73.5884
3.4133	72.955
3.3999	72.9805
3.3866	72.8468
3.3733	72.5467
3.3602	72.8421
3.3472	72.759
3.3343	72.8235
3.3215	72.4333
3.3088	72.2251
3.2961	71.8265
3.2836	71.3818
3.2712	70.8228
3.2588	69.9927
3.2466	69.2369
3.2345	68.3984
3.2224	67.5685
3.2104	67.1334
3.1985	66.5038
3.1867	65.8539
3.175	65.0045
3.1634	64.5398
3.1519	63.8594
3.1404	62.9897
3.129	62.2357
3.1178	61.2263
3.1065	60.4922
3.0954	59.7929
3.0844	58.9456
3.0734	58.0167
3.0625	56.907
3.0517	55.8212
3.041	55.249
3.0303	54.5796
3.0197	53.6328
3.0092	52.9524
2.9987	51.7781
2.9884	50.7965
2.9781	49.7707
2.9678	48.7978
2.9577	47.3371
2.9476	44.8955
2.9376	42.3775
2.9276	40.0878
2.9177	37.6428
2.9079	33.1032
2.8982	25.4409
2.8885	17.0268
2.8789	9.6451
2.8693	7.5675
2.8598	9.6617
2.8504	17.3379
2.841	30.5292
2.8317	38.9205
2.8224	43.1072
2.8133	44.6215
2.8041	46.33
2.7951	47.9811
2.786	50.7033
2.7771	51.9668
2.7682	53.8344
2.7594	54.3884
2.7506	55.3782
2.7418	57.3738
2.7332	56.8054
2.7246	58.5027
2.716	57.517
2.7075	58.4242
2.699	59.3513
2.6906	60.5595
2.6823	61.5633
2.674	62.1111
2.6657	64.878
2.6575	62.803
2.6494	63.1813
2.6413	63.8486
2.6332	64.6381
2.6252	64.4558
2.6173	65.0642
2.6094	63.9553
2.6015	63.8832
2.5937	65.7
2.5859	63.9885
2.5782	64.7394
2.5706	66.8158
2.5629	68.6787
2.5554	67.9199
2.5478	67.5435
2.5403	66.7238
2.5329	66.6871
2.5255	67.1119
2.5181	67.4054
2.5108	67.3472
2.5035	67.0905
2.4963	66.7368
2.4891	66.4729
2.482	67.3502
2.4749	68.6859
2.4678	69.5494
2.4608	70.1906
2.4538	70.8068
2.4468	71.5727
2.4399	71.3878
2.4331	69.4983
2.4262	66.2785
2.4194	61.9108
2.4127	57.4648
2.4059	54.7444
2.3993	53.7886
2.3926	56.6208
2.386	62.554
2.3795	68.6862
2.3729	72.838
2.3664	75.3631
2.36	76.3914
2.3535	76.8384
2.3471	76.95
2.3408	76.9725
2.3345	76.3928
2.3282	75.8667
2.3219	74.6847
2.3157	73.1432
2.3095	71.744
2.3034	71.0029
2.2972	70.8545
2.2911	71.4143
2.2851	71.3654
2.279	70.1258
2.2731	67.2977
2.2671	63.5808
2.2612	62.6592
2.2553	65.9209
2.2494	67.8017
2.2435	68.428
2.2377	68.1138
2.232	67.566
2.2262	66.639
2.2205	66.4051
2.2148	67.2954
2.2091	65.411
2.2035	59.5389
2.1979	58.4643
2.1923	65.2101
2.1868	70.9032
2.1812	74.4275
2.1758	76.7645
2.1703	78.549
2.1649	78.912
2.1595	79.4598
2.1541	79.7813
2.1487	80.1195
2.1434	80.3124
2.1381	80.5619
2.1328	80.6171
2.1275	80.5703
2.1223	80.451
2.1171	80.6089
2.112	80.8611
2.1068	80.3999
2.1017	80.4906
2.0966	80.6551
2.0915	80.1837
2.0865	80.7662
2.0814	80.4788
2.0764	80.5683
2.0715	80.5827
2.0665	80.3034
2.0616	80.1066
2.0567	80.102
2.0518	80.141
2.0469	79.9595
2.0421	79.9627
2.0373	79.7335
2.0325	80.043
2.0277	79.8762
2.0229	79.9246
2.0182	79.8753
2.0135	80.2986
2.0088	79.7928
2.0042	79.7635
