Name: Vermiculite (Mg,Fe^2+,Al)_3(Al,Si)_4O_10(OH)_2.4H_2O
Type: Mineral
Class: Silicate
Subclass: Phyllosilicate
Particle Size: Coarse
Sample No.: PS-18B
Owner: JPL
Wavelength Range: VSWIR
Origin: USA, Montana, Lincoln County, Libby.
Description: Particle size was 125-500um. Collected by:  Ward's Original ASTER Spectral Library name was jpl.perkin.mineral.silicate.phyllosilicate.coarse.ps18c.spectrum.txt
Measurement: Hemispherical reflectance
X Units: Wavelength (micrometers)
Y Units: Reflectance (percent)
wavelength	value
2.5	22.6489
2.494	22.4798
2.488	22.8916
2.482	23.0575
2.476	23.2546
2.47	23.5673
2.464	23.8211
2.458	24.1736
2.452	24.4545
2.446	24.7711
2.44	24.9495
2.434	25.1301
2.428	25.4794
2.422	25.797
2.416	25.9656
2.41	26.125
2.404	26.2349
2.398	26.3871
2.392	26.491
2.386	26.6445
2.38	27.0997
2.374	27.6716
2.368	28.3483
2.362	28.9168
2.356	29.3419
2.35	29.5847
2.344	29.6697
2.338	29.2021
2.332	28.7118
2.326	28.1256
2.32	27.9895
2.314	28.0602
2.308	28.39
2.302	28.8347
2.296	29.4004
2.29	30.6663
2.284	32.625
2.278	34.647
2.272	36.6741
2.266	38.3169
2.26	39.5497
2.254	40.419
2.248	41.0181
2.242	41.6012
2.236	42.0467
2.23	42.3467
2.224	42.5138
2.218	42.6824
2.212	42.8428
2.206	42.8018
2.2	42.9168
2.194	42.9275
2.188	42.8583
2.182	42.8587
2.176	42.7875
2.17	42.7665
2.164	42.7085
2.158	42.6774
2.152	42.4978
2.146	42.3373
2.14	42.1402
2.134	41.8364
2.128	41.5142
2.122	41.1
2.116	40.7297
2.11	40.2456
2.104	39.894
2.098	39.4558
2.092	39.1456
2.086	38.8218
2.08	38.5225
2.074	38.2423
2.068	37.9024
2.062	37.5794
2.056	37.1326
2.05	36.7533
2.044	36.3094
2.038	35.9318
2.032	35.3513
2.026	34.851
2.02	34.2263
2.014	33.5424
2.008	32.8788
2.002	32.1601
1.996	31.3846
1.99	30.6468
1.984	29.9624
1.978	29.2869
1.972	28.6776
1.966	28.1281
1.96	27.5863
1.954	27.2397
1.948	26.7218
1.942	26.225
1.936	25.7267
1.93	25.2177
1.924	24.6204
1.918	24.3902
1.912	24.7895
1.906	26.1151
1.9	29.068
1.894	32.6581
1.888	36.081
1.882	38.568
1.876	40.4755
1.87	41.9621
1.864	42.8746
1.858	43.3798
1.852	43.6984
1.846	43.8532
1.84	43.8883
1.834	43.8342
1.828	43.7834
1.822	43.6459
1.816	43.434
1.81	43.3321
1.804	43.1793
1.798	43.0298
1.792	42.9032
1.786	42.757
1.78	42.7032
1.774	42.5576
1.768	42.5164
1.762	42.4192
1.756	42.335
1.75	42.3504
1.744	42.2652
1.738	42.1796
1.732	42.107
1.726	42.0081
1.72	41.8573
1.714	41.7457
1.708	41.5339
1.702	41.4424
1.696	41.2563
1.69	41.1345
1.684	40.9289
1.678	40.6846
1.672	40.4653
1.666	40.293
1.66	40.0931
1.654	39.8669
1.648	39.6795
1.642	39.554
1.636	39.2522
1.63	39.1043
1.624	38.8872
1.618	38.5502
1.612	38.4472
1.606	38.2481
1.6	37.9795
1.594	37.7924
1.588	37.5283
1.582	37.2921
1.576	36.9924
1.57	36.7968
1.564	36.5564
1.558	36.2593
1.552	36.0239
1.546	35.7212
1.54	35.4492
1.534	35.1206
1.528	34.8282
1.522	34.4643
1.516	34.1254
1.51	33.7419
1.504	33.3749
1.498	32.985
1.492	32.583
1.486	32.1679
1.48	31.7715
1.474	31.3394
1.468	30.9575
1.462	30.6355
1.456	30.3845
1.45	30.0875
1.444	29.76
1.438	29.4922
1.432	29.2305
1.426	28.9678
1.42	28.6529
1.414	28.5494
1.408	28.9817
1.402	29.4451
1.396	28.669
1.39	29.0645
1.384	30.1449
1.378	29.53
1.372	30.0301
1.366	30.6887
1.36	30.5537
1.354	30.3462
1.348	30.1639
1.342	29.9077
1.336	29.7225
1.33	29.5002
1.324	29.4101
1.318	29.158
1.312	28.9077
1.306	28.7706
1.3	28.4621
1.294	28.2834
1.288	28.0546
1.282	27.7888
1.276	27.5687
1.27	27.4131
1.264	27.1831
1.258	26.9932
1.252	26.7536
1.246	26.5765
1.24	26.4595
1.234	26.2411
1.228	26.0544
1.222	25.8365
1.216	25.73
1.21	25.5002
1.204	25.3761
1.198	25.2479
1.192	25.0995
1.186	24.9714
1.18	24.7766
1.174	24.6397
1.168	24.5957
1.162	24.3969
1.156	24.3145
1.15	24.2565
1.144	24.1957
1.138	24.1101
1.132	24.0979
1.126	23.9904
1.12	23.9289
1.114	23.8251
1.108	23.7756
1.102	23.7275
1.096	23.6509
1.09	23.6279
1.084	23.6864
1.078	23.5727
1.072	23.6125
1.066	23.5567
1.06	23.4925
1.054	23.529
1.048	23.5485
1.042	23.5668
1.036	23.5087
1.03	23.4405
1.024	23.3924
1.018	23.4626
1.012	23.4684
1.006	23.4486
1	23.4069
0.994	23.3375
0.988	23.3712
0.982	23.278
0.976	23.2335
0.97	23.1724
0.964	23.1938
0.958	23.1402
0.952	23.097
0.946	23.1001
0.94	23.0493
0.934	23.0454
0.928	23.0449
0.922	23.1061
0.916	23.0908
0.91	23.161
0.904	23.237
0.898	23.3104
0.892	23.3201
0.886	23.4722
0.88	23.5212
0.874	23.5713
0.868	23.6966
0.862	23.7223
0.856	24.2796
0.85	24.3685
0.844	24.3589
0.838	24.3666
0.832	24.3545
0.826	24.3482
0.82	24.3175
0.814	24.2656
0.808	24.1602
0.802	24.0703
0.796	23.92
0.79	23.7637
0.784	23.5864
0.778	23.4028
0.772	23.1831
0.766	22.9841
0.76	22.8117
0.754	22.6474
0.748	22.4886
0.742	22.3558
0.736	22.2256
0.73	22.125
0.724	22.037
0.718	21.967
0.712	21.9001
0.706	21.8572
0.7	21.8445
0.694	21.8388
0.688	21.8443
0.682	21.8812
0.676	21.876
0.67	21.8344
0.664	21.7829
0.658	21.7259
0.652	21.6521
0.646	21.5749
0.64	21.4637
0.634	21.3371
0.628	21.1977
0.622	21.05
0.616	20.8953
0.61	20.7296
0.604	20.5627
0.598	20.3963
0.592	20.2276
0.586	20.0585
0.58	19.8837
0.574	19.7131
0.568	19.5258
0.562	19.3173
0.556	19.0867
0.55	18.8425
0.544	18.5686
0.538	18.2496
0.532	17.8614
0.526	17.423
0.52	16.926
0.514	16.3325
0.508	15.698
0.502	15.0586
0.496	14.4337
0.49	13.9172
0.484	13.491
0.478	13.1816
0.472	12.9808
0.466	12.8598
0.46	12.7398
0.454	12.5317
0.448	12.181
0.442	11.7355
0.436	11.2418
0.43	10.7317
0.424	10.2709
0.418	9.928
0.412	9.6781
0.406	9.4655
0.4	9.2756
