Name: Labradorite (Feldspar) (NaSi,CaAl)AlSi_2O_8
Type: Mineral
Class: Silicate
Subclass: Tectosilicate
Particle Size: Coarse
Sample No.: TS-2A
Owner: JPL
Wavelength Range: VSWIR
Origin: Mexico, Sonora, Pinacate
Description: Particle size was 125-500um.Collected by Burminco Original ASTER Spectral Library name was jpl.beckman.mineral.silicate.tectosilicate.coarse.ts02a.spectrum.txt
Measurement: Hemispherical reflectance
X Units: Wavelength (micrometers)
Y Units: Reflectance (percent)
wavelength	value
0.4	59.75
0.403	61.22
0.406	61.91
0.409	62.09
0.412	61.83
0.415	61.36
0.418	61.14
0.421	61.12
0.424	61.62
0.427	61.99
0.43	62.43
0.433	62.69
0.436	63.01
0.439	63.36
0.442	63.48
0.445	63.68
0.448	63.8
0.451	64.3
0.454	64.96
0.457	65.74
0.46	65.92
0.463	66.98
0.466	67.45
0.469	67.8
0.472	68.23
0.475	68.62
0.478	68.9
0.481	69.08
0.484	69.17
0.487	69.53
0.49	69.65
0.493	69.86
0.496	69.98
0.499	70.2
0.502	70.41
0.505	70.77
0.508	71
0.511	71.12
0.514	71.31
0.517	71.6
0.52	71.97
0.523	72.27
0.526	72.53
0.529	72.64
0.532	72.84
0.535	73.06
0.538	73.45
0.541	73.53
0.544	73.69
0.547	73.85
0.55	74.2
0.553	74.52
0.556	74.57
0.559	74.56
0.562	75.03
0.565	75.13
0.568	75.23
0.571	75.3
0.574	75.07
0.577	75.15
0.58	75.14
0.583	75.18
0.586	75.33
0.589	75.49
0.592	75.61
0.595	75.71
0.598	75.88
0.601	76.22
0.604	76.2
0.607	76.2
0.61	76.27
0.613	76.47
0.616	76.41
0.619	76.56
0.622	76.54
0.625	76.53
0.628	76.58
0.631	76.7
0.634	76.89
0.637	76.77
0.64	76.7
0.643	76.89
0.646	77.09
0.649	77.17
0.652	77.25
0.655	77.13
0.658	77.19
0.661	77.45
0.664	77.69
0.667	77.64
0.67	77.65
0.673	77.83
0.676	78.06
0.679	78.24
0.682	78.12
0.685	78.2
0.688	78.19
0.691	78.52
0.694	78.46
0.697	78.39
0.7	78.39
0.703	78.33
0.706	78.48
0.709	78.45
0.712	78.56
0.715	78.69
0.718	78.7
0.721	78.57
0.724	78.72
0.727	78.74
0.73	78.84
0.733	78.7
0.736	78.66
0.739	78.69
0.742	78.9
0.745	78.67
0.748	78.67
0.751	78.73
0.754	78.68
0.757	78.6
0.76	78.73
0.763	78.68
0.766	78.79
0.769	78.81
0.772	78.73
0.775	78.74
0.778	78.49
0.781	78.77
0.784	78.67
0.787	78.63
0.79	78.49
0.793	78.71
0.796	78.65
0.799	78.64
0.808	78.16
0.82	77.84
0.832	77.56
0.844	77.26
0.856	76.8
0.868	76.22
0.88	75.53
0.892	74.88
0.904	74.06
0.916	73.22
0.928	72.32
0.94	71.35
0.952	70.48
0.964	69.58
0.976	68.49
0.988	67.44
1	66.52
1.012	65.39
1.024	64.41
1.036	63.51
1.048	62.53
1.06	61.61
1.072	60.74
1.084	59.82
1.096	59.14
1.108	58.39
1.12	57.81
1.132	57.08
1.144	56.43
1.156	55.95
1.168	55.41
1.18	55
1.192	54.62
1.204	54.3
1.216	53.99
1.228	53.83
1.24	53.66
1.252	53.63
1.264	53.58
1.276	53.52
1.288	53.65
1.3	53.63
1.312	53.72
1.324	53.86
1.336	54.05
1.348	54.32
1.36	54.64
1.372	54.9
1.384	55.29
1.396	55.73
1.408	56.05
1.42	56.48
1.432	56.91
1.444	57.47
1.456	57.94
1.468	58.27
1.48	58.78
1.492	59.16
1.504	59.76
1.516	60.23
1.528	60.55
1.54	60.88
1.552	61.19
1.564	61.53
1.576	61.74
1.588	62.07
1.6	62.28
1.612	62.47
1.624	62.72
1.636	62.96
1.648	63.09
1.66	63.17
1.672	63.41
1.684	63.66
1.696	63.67
1.708	63.95
1.72	63.97
1.732	64.13
1.744	64.23
1.756	64.43
1.768	64.5
1.78	64.7
1.792	64.85
1.804	64.94
1.816	65.06
1.828	65.26
1.84	65.36
1.852	65.47
1.864	65.58
1.876	65.69
1.888	65.69
1.9	65.82
1.912	65.84
1.924	65.87
1.936	65.93
1.948	65.96
1.96	66.04
1.972	66.03
1.984	66.27
1.996	66.47
2.008	66.53
2.02	66.57
2.032	66.62
2.044	66.65
2.056	66.74
2.068	66.82
2.08	66.94
2.092	67.05
2.104	67.14
2.116	67.26
2.128	67.26
2.14	67.22
2.152	67.12
2.164	67.11
2.176	67.02
2.188	66.96
2.2	66.96
2.212	66.91
2.224	67
2.236	67.1
2.248	67.19
2.26	67.3
2.272	67.39
2.284	67.44
2.296	67.6
2.308	67.75
2.32	67.98
2.332	68.19
2.344	68.35
2.356	68.42
2.368	68.42
2.38	68.48
2.392	68.5
2.404	68.54
2.416	68.69
2.428	68.86
2.44	68.68
2.452	68.64
2.464	68.52
2.476	68.51
2.488	68.83
2.5	68.92
