Name: Muscovite KAl2(Si3Al)O10(OH,F)2
Type: Mineral
Class: Silicate
Subclass: Phyllosilicate
Particle Size: Coarse
Sample No.: muscov_1
Owner: JHU
Wavelength Range: TIR
Origin: Methuen Township, Ontario via Bruce Hemingway, USGS
Description: The sample consisted of clear, transparent "books" of muscovite, which appear pure in hand sample.  Microscopic examination showed a possible trace (<1%) of quartz present.  (However, no quartz bands are apparent in the infrared spectrum.).Particle size was 75-250  Micrometers. Original ASTER Spectral Library name was jhu.nicolet.mineral.silicate.phyllosilicate.coarse.muscov1.spectrum.txt
Measurement: Bidirectional reflectance
X Units: Wavelength (micrometers)
Y Units: Reflectance (percent)
wavelength	value
25.0442	11.4092
24.3388	11.0859
23.6719	10.6367
23.0407	10.4394
22.4422	10.5337
21.8741	11.4883
21.334	12.8352
20.8199	14.1596
20.33	14.5664
19.8627	13.2592
19.4163	11.9809
18.9896	12.6528
18.5812	15.2263
18.19	16.5527
17.815	16.3823
17.4551	15.3476
17.1094	16.2673
16.7772	16.7609
16.4576	13.4421
16.15	9.9323
15.8537	7.6992
15.568	5.5129
15.2925	4.5278
15.0265	5.0159
14.7697	5.3181
14.5214	5.3877
14.2814	5.468
14.0492	5.7505
13.8244	5.7287
13.6067	5.8474
13.3957	5.9997
13.1912	5.5952
12.9929	5.1455
12.8004	5.6455
12.6135	5.75
12.432	5.657
12.2557	5.8948
12.0843	6.2705
11.9176	6.7502
11.7555	6.8816
11.5977	6.841
11.444	6.5359
11.2944	6.4646
11.1487	6.5544
11.0067	6.6452
10.8682	6.6164
10.7332	6.5598
10.6015	6.4958
10.473	6.8594
10.3476	7.3672
10.2251	7.8852
10.1056	8.5266
9.9887	8.8979
9.8746	9.5862
9.763	10.6433
9.6539	12.8823
9.5472	13.6464
9.4429	11.4692
9.3408	12.6579
9.2409	14.7234
9.1431	16.4257
9.0474	17.3864
8.9536	18.5876
8.8618	19.3752
8.7718	19.1591
8.6837	15.9514
8.5973	13.7111
8.5126	11.237
8.4295	8.176
8.3481	5.1438
8.2682	3.1413
8.1898	3.1304
8.1129	3.8198
8.0374	4.4866
7.9634	5.0647
7.8906	5.6045
7.8192	6.0825
7.7491	6.5337
7.6802	7.022
7.6126	7.4919
7.5461	7.7912
7.4807	7.9197
7.4165	8.0093
7.3534	8.156
7.2914	8.3972
7.2303	8.822
7.1703	9.282
7.1113	9.604
7.0533	9.791
6.9962	9.8747
6.94	9.9912
6.8847	10.2011
6.8302	10.5864
6.7767	11.1706
6.7239	11.7956
6.672	12.3269
6.6209	12.7087
6.5705	12.9287
6.5209	13.0422
6.4721	12.9826
6.424	12.8403
6.3766	12.7634
6.3299	12.8015
6.2838	12.9104
6.2385	13.0151
6.1937	12.9665
6.1496	12.7805
6.1062	12.5495
6.0633	12.2993
6.0211	11.9963
5.9794	11.6738
5.9383	11.3752
5.8978	11.1801
5.8578	11.0805
5.8184	11.0285
5.7794	10.9443
5.741	10.8642
5.7031	10.9236
5.6657	11.0166
5.6288	11.0739
5.5924	11.0798
5.5564	11.07
5.5209	11.0598
5.4859	11.0493
5.4513	11.1028
5.4171	11.2068
5.3833	11.3742
5.35	11.676
5.3171	12.1745
5.2846	12.8322
5.2524	13.5446
5.2207	14.217
5.1893	14.9025
5.1584	15.5337
5.1277	16.0778
5.0975	16.4152
5.0676	16.5376
5.038	16.5305
5.0088	16.4072
4.98	16.2431
4.9514	16.0822
4.9232	16.0222
4.8953	16.0905
4.8678	16.2524
4.8405	16.396
4.8135	16.5398
4.7868	16.7043
4.7605	16.9433
4.7344	17.1447
4.7086	17.3115
4.6831	17.468
4.6578	17.6582
4.6328	17.8879
4.6081	18.0949
4.5837	18.2607
4.5595	18.4209
4.5356	18.5949
4.5119	18.8112
4.4884	19.0524
4.4652	19.2771
4.4423	19.4931
4.4196	19.6835
4.3971	19.8005
4.3748	19.8454
4.3528	19.833
4.331	19.8122
4.3094	19.7675
4.288	19.7351
4.2668	19.7204
4.2458	19.707
4.2251	19.7204
4.2045	19.7482
4.1841	19.7731
4.164	19.8032
4.144	19.832
4.1242	19.8698
4.1046	19.8696
4.0852	19.8715
4.066	19.8449
4.047	19.8061
4.0281	19.7768
4.0094	19.7353
3.9909	19.705
3.9725	19.6997
3.9544	19.7185
3.9363	19.7316
3.9185	19.7678
3.9008	19.8112
3.8833	19.8408
3.8659	19.8518
3.8487	19.8786
3.8316	19.8935
3.8147	19.8996
3.7979	19.8923
3.7813	19.8417
3.7648	19.7617
3.7485	19.6616
3.7323	19.5202
3.7162	19.4499
3.7003	19.4355
3.6845	19.4653
3.6689	19.4885
3.6534	19.5461
3.638	19.6086
3.6227	19.6633
3.6076	19.7294
3.5926	19.7502
3.5777	19.7468
3.563	19.7304
3.5484	19.6752
3.5338	19.6372
3.5195	19.5563
3.5052	19.4628
3.491	19.4323
3.477	19.4255
3.463	19.4282
3.4492	19.4011
3.4355	19.3811
3.4219	19.3173
3.4084	19.2897
3.395	19.3312
3.3817	19.2976
3.3685	19.2609
3.3554	19.2221
3.3425	19.1804
3.3296	19.1237
3.3168	19.08
3.3041	19.0266
3.2915	18.9665
3.279	18.9318
3.2666	18.8581
3.2543	18.8107
3.2421	18.7688
3.23	18.6987
3.218	18.6152
3.206	18.569
3.1942	18.4714
3.1824	18.4067
3.1707	18.3315
3.1591	18.2448
3.1476	18.1794
3.1362	18.0617
3.1249	17.9697
3.1136	17.9018
3.1024	17.8361
3.0913	17.7897
3.0803	17.7509
3.0694	17.7053
3.0585	17.6257
3.0477	17.6064
3.037	17.5532
3.0264	17.5
3.0158	17.4462
3.0053	17.3894
2.9949	17.3378
2.9845	17.246
2.9743	17.1313
2.9641	17.0236
2.9539	16.9108
2.9439	16.79
2.9339	16.5918
2.9239	16.3718
2.9141	16.1386
2.9043	15.978
2.8946	15.9206
2.8849	15.8957
2.8753	15.9145
2.8658	15.9506
2.8563	15.8986
2.8469	15.6611
2.8375	15.3003
2.8282	14.9582
2.819	14.3105
2.8098	12.7739
2.8007	10.3257
2.7917	7.6157
2.7827	5.782
2.7738	4.9258
2.7649	4.2056
2.7561	3.7163
2.7473	3.751
2.7386	3.8328
2.7299	4.1948
2.7213	6.0566
2.7128	11.2431
2.7043	14.7168
2.6959	15.8169
2.6875	16.3203
2.6791	16.5849
2.6709	16.7924
2.6626	17.104
2.6545	17.3295
2.6463	17.4677
2.6382	17.5544
2.6302	17.5283
2.6222	17.5654
2.6143	17.5659
2.6064	17.5185
2.5986	17.6413
2.5908	17.7216
2.583	17.7334
2.5753	17.6897
2.5677	17.7504
2.5601	17.8347
2.5525	17.8652
2.545	17.9262
2.5375	17.9245
2.5301	17.875
2.5227	17.7602
2.5154	17.6413
2.5081	17.5556
2.5008	17.4177
2.4936	17.3671
2.4864	17.2924
2.4793	17.2436
2.4722	17.1035
2.4651	16.9741
2.4581	16.8276
2.4511	16.6948
2.4442	16.5888
2.4373	16.5249
2.4305	16.592
2.4236	16.7236
2.4169	16.873
2.4101	17.0473
2.4034	17.0949
2.3967	17.1174
2.3901	17.0588
2.3835	17.0334
2.377	17.0454
2.3704	17.0795
2.364	17.0549
2.3575	16.9721
2.3511	16.8967
2.3447	16.8645
2.3384	16.9052
2.3321	17.0637
2.3258	17.2851
2.3195	17.5588
2.3133	17.7414
2.3071	17.9213
2.301	18.0097
2.2949	18.0966
2.2888	18.1752
2.2828	18.1543
2.2767	18.2121
2.2708	18.1936
2.2648	18.1621
2.2589	18.1203
2.253	18.0986
2.2471	17.9951
2.2413	17.9006
2.2355	17.7675
2.2297	17.5939
2.224	17.5
2.2183	17.3154
2.2126	16.853
2.207	16.2275
2.2013	15.792
2.1957	15.7382
2.1902	16.2031
2.1846	16.8086
2.1791	17.4155
2.1736	17.9003
2.1682	18.165
2.1628	18.3159
2.1574	18.4335
2.152	18.4858
2.1466	18.4868
2.1413	18.6196
2.136	18.6699
2.1308	18.6591
2.1255	18.7138
2.1203	18.7456
2.1151	18.7778
2.11	18.8056
2.1048	18.8867
2.0997	18.9882
2.0946	19.1181
2.0895	19.1958
2.0845	19.1401
2.0795	19.1918
