Name: Triphylite Li(Mn,Fe)PO_4
Type: Mineral
Class: Phosphate
Subclass: None
Particle Size: Coarse
Sample No.: P-4A
Owner: JPL
Wavelength Range: VSWIR
Origin: USA, New Hampshire, North Graton, Palermo Mine
Description: Particle size was 125-500um.Collected by Burminco Original ASTER Spectral Library name was jpl.beckman.mineral.phosphate.none.coarse.p04a.spectrum.txt
Measurement: Hemispherical reflectance
X Units: Wavelength (micrometers)
Y Units: Reflectance (percent)
wavelength	value
0.4	25.8
0.403	23.21
0.406	20.15
0.409	22.97
0.412	27.31
0.415	30.08
0.418	31
0.421	31
0.424	31.34
0.427	30.65
0.43	31.46
0.433	30.53
0.436	30.19
0.439	28.57
0.442	27.82
0.445	26.9
0.448	26.04
0.451	25.22
0.454	24.19
0.457	24.3
0.46	23.96
0.463	24.83
0.466	22.98
0.469	21.37
0.472	22.75
0.475	29.22
0.478	32.29
0.481	34.08
0.484	33.22
0.487	31.95
0.49	29.69
0.493	28.08
0.496	27.32
0.499	28.08
0.502	31.37
0.505	33.23
0.508	34.79
0.511	34.9
0.514	35.48
0.517	35.08
0.52	36.17
0.523	35.71
0.526	36.34
0.529	36.29
0.532	36.52
0.535	35.94
0.538	35.76
0.541	35.08
0.544	34.26
0.547	33.86
0.55	33.23
0.553	33.05
0.556	31.84
0.559	32.19
0.562	31.26
0.565	31.55
0.568	30.97
0.571	31.43
0.574	30.97
0.577	31.2
0.58	31.03
0.583	30.22
0.586	30.45
0.589	29.35
0.592	29.41
0.595	28.55
0.598	28.37
0.601	28.08
0.604	28.02
0.607	28.89
0.61	29
0.613	30.4
0.616	31.32
0.619	33.46
0.622	35.08
0.625	37.22
0.628	39
0.631	40.97
0.634	42.53
0.637	43.57
0.64	44.84
0.643	44.61
0.646	45.36
0.649	44.9
0.652	45.19
0.655	44.32
0.658	44.32
0.661	43.69
0.664	43.05
0.667	42.87
0.67	41.84
0.673	41.72
0.676	40.73
0.679	40.97
0.682	39.99
0.685	40.05
0.688	39.46
0.691	39.06
0.694	38.78
0.697	38.6
0.7	38.43
0.703	37.96
0.706	37.79
0.709	37.67
0.712	37.5
0.715	37.73
0.718	37.56
0.721	37.79
0.724	37.9
0.727	38.02
0.73	38.25
0.733	38.6
0.736	38.66
0.739	39.41
0.742	39.06
0.745	39.93
0.748	39.81
0.751	40.79
0.754	40.39
0.757	41.31
0.76	41.31
0.763	41.95
0.766	41.9
0.769	42.01
0.772	41.84
0.775	41.9
0.778	41.9
0.781	41.55
0.784	41.26
0.787	40.62
0.79	40.79
0.793	39.41
0.796	39.06
0.799	37.79
0.808	35.54
0.82	31.49
0.832	27.38
0.844	23.34
0.856	19.29
0.868	16.17
0.88	13.52
0.892	11.26
0.904	9.59
0.916	8.43
0.928	7.28
0.94	6.29
0.952	5.72
0.964	5.31
0.976	4.91
0.988	4.56
1	4.27
1.012	4.27
1.024	3.99
1.036	3.81
1.048	3.87
1.06	3.75
1.072	3.81
1.084	3.87
1.096	3.99
1.108	4.04
1.12	4.1
1.132	4.21
1.144	4.38
1.156	4.56
1.168	4.67
1.18	4.67
1.192	4.79
1.204	4.85
1.216	4.85
1.228	5.01
1.24	4.91
1.252	4.91
1.264	4.84
1.276	4.78
1.288	4.55
1.3	4.61
1.312	4.49
1.324	4.49
1.336	4.32
1.348	4.32
1.36	4.2
1.372	4.32
1.384	4.32
1.396	4.49
1.408	4.32
1.42	4.37
1.432	4.37
1.444	4.61
1.456	4.78
1.468	4.72
1.48	4.96
1.492	5.25
1.504	5.3
1.516	5.54
1.528	5.7
1.54	5.88
1.552	6.28
1.564	6.69
1.576	6.91
1.588	7.32
1.6	7.9
1.612	8.3
1.624	8.81
1.636	9.51
1.648	10.31
1.66	10.94
1.672	11.75
1.684	12.43
1.696	13.35
1.708	14.44
1.72	15.59
1.732	16.63
1.744	18.01
1.756	19.22
1.768	20.66
1.78	21.93
1.792	23.59
1.804	24.97
1.816	26.44
1.828	28.19
1.84	29.77
1.852	31.35
1.864	33.06
1.876	34.78
1.888	36.08
1.9	37.27
1.912	38.81
1.924	40.3
1.936	41.88
1.948	43.53
1.96	45.17
1.972	46.96
1.984	48.58
1.996	50.26
2.008	51.81
2.02	53.33
2.032	54.68
2.044	55.96
2.056	57.43
2.068	58.5
2.08	59.61
2.092	60.6
2.104	61.6
2.116	62.64
2.128	63.35
2.14	64.16
2.152	64.77
2.164	65.12
2.176	65.48
2.188	65.95
2.2	66.11
2.212	66.19
2.224	66.63
2.236	66.77
2.248	66.8
2.26	66.9
2.272	67
2.284	67.02
2.296	67.18
2.308	67.3
2.32	67.16
2.332	66.72
2.344	66.64
2.356	66.27
2.368	65.57
2.38	65.05
2.392	64.82
2.404	64.53
2.416	64.07
2.428	63.55
2.44	63.04
2.452	62.35
2.464	61.6
2.476	61.03
2.488	60.34
2.5	59.71
