Name: Tincalconite Na_2B_4O_5(OH)_4.3H_2O
Type: Mineral
Class: Borate
Subclass: None
Particle Size: Fine
Sample No.: B-4A
Owner: JPL
Wavelength Range: VSWIR
Origin: USA, California, Kern County, Boron.
Description: Particle size was 0-45um.Collected by:  Burminco Original ASTER Spectral Library name was jpl.perkin.mineral.borate.none.fine.b04a.spectrum.txt
Measurement: Hemispherical reflectance
X Units: Wavelength (micrometers)
Y Units: Reflectance (percent)
wavelength	value
2.5	23.4544
2.494	24.2239
2.488	25.0462
2.482	25.6774
2.476	26.2926
2.47	27.0702
2.464	27.521
2.458	28.0331
2.452	28.3781
2.446	28.6079
2.44	28.8531
2.434	29.2002
2.428	29.5724
2.422	30.1938
2.416	30.9211
2.41	31.6133
2.404	32.4663
2.398	33.2899
2.392	34.0215
2.386	34.9729
2.38	35.8039
2.374	36.5669
2.368	37.1704
2.362	37.6994
2.356	38.1235
2.35	38.4643
2.344	38.6863
2.338	38.9086
2.332	38.9625
2.326	39.0249
2.32	39.0457
2.314	39.0981
2.308	39.1126
2.302	39.1092
2.296	39.0381
2.29	39.1409
2.284	39.07
2.278	39.1043
2.272	39.0412
2.266	39.0721
2.26	39.0511
2.254	39.1274
2.248	39.2314
2.242	39.3096
2.236	39.4135
2.23	39.4561
2.224	39.6486
2.218	40.0143
2.212	40.2724
2.206	40.5055
2.2	40.8425
2.194	40.894
2.188	40.8499
2.182	40.6116
2.176	40.2044
2.17	39.6097
2.164	38.9676
2.158	38.3967
2.152	38.3237
2.146	38.6975
2.14	39.4707
2.134	40.1307
2.128	40.4545
2.122	40.4571
2.116	40.1685
2.11	39.8528
2.104	39.6244
2.098	39.4578
2.092	39.4352
2.086	39.5032
2.08	39.56
2.074	39.4211
2.068	39.405
2.062	39.1681
2.056	39.0142
2.05	38.8184
2.044	38.647
2.038	38.4482
2.032	38.3048
2.026	38.0625
2.02	37.8288
2.014	37.5218
2.008	37.2249
2.002	36.9985
1.996	36.6697
1.99	36.374
1.984	36.1836
1.978	35.9371
1.972	35.6467
1.966	35.2492
1.96	34.8289
1.954	34.1607
1.948	33.5025
1.942	32.7605
1.936	32.0548
1.93	31.8284
1.924	31.925
1.918	32.4147
1.912	33.0832
1.906	34.8723
1.9	38.398
1.894	42.1883
1.888	45.2857
1.882	47.6875
1.876	49.2478
1.87	50.5463
1.864	51.5333
1.858	52.1498
1.852	52.5395
1.846	52.9003
1.84	53.138
1.834	53.4337
1.828	53.6475
1.822	53.9228
1.816	54.2069
1.81	54.429
1.804	54.7101
1.798	54.9843
1.792	55.2899
1.786	55.6157
1.78	55.8397
1.774	56.2616
1.768	56.5524
1.762	56.9293
1.756	57.2122
1.75	57.4127
1.744	57.5223
1.738	57.5813
1.732	57.5196
1.726	57.5122
1.72	57.4779
1.714	57.4974
1.708	57.4633
1.702	57.5945
1.696	57.6333
1.69	57.8205
1.684	57.9805
1.678	58.203
1.672	58.4507
1.666	58.7108
1.66	58.9697
1.654	59.2936
1.648	59.652
1.642	60.0887
1.636	60.3927
1.63	60.6768
1.624	60.9962
1.618	61.3067
1.612	61.5317
1.606	61.7549
1.6	61.9676
1.594	62.0804
1.588	62.2109
1.582	62.1448
1.576	62.0602
1.57	61.9664
1.564	61.8443
1.558	61.8625
1.552	61.9871
1.546	62.2376
1.54	62.6802
1.534	63.1818
1.528	63.5357
1.522	63.9145
1.516	64.0404
1.51	63.9246
1.504	63.3438
1.498	62.4127
1.492	61.3428
1.486	60.5024
1.48	60.2241
1.474	60.6288
1.468	61.1379
1.462	61.9312
1.456	63.057
1.45	63.8378
1.444	64.5012
1.438	65.0306
1.432	64.5922
1.426	63.8464
1.42	65.3782
1.414	68.7221
1.408	71.8297
1.402	74.29
1.396	76.2699
1.39	77.9128
1.384	79.0969
1.378	79.8149
1.372	80.4756
1.366	81.0434
1.36	81.5369
1.354	82.1658
1.348	82.773
1.342	83.398
1.336	84.0032
1.33	84.4621
1.324	84.8778
1.318	85.2008
1.312	85.3484
1.306	85.3915
1.3	85.4072
1.294	85.2283
1.288	85.0116
1.282	84.9092
1.276	85.0321
1.27	85.1694
1.264	85.3063
1.258	85.342
1.252	85.3347
1.246	85.4323
1.24	85.5301
1.234	85.6423
1.228	85.6805
1.222	85.7404
1.216	85.8412
1.21	85.9017
1.204	85.9463
1.198	85.9839
1.192	85.8633
1.186	86.0146
1.18	86.0081
1.174	86.0397
1.168	85.9964
1.162	85.6846
1.156	86.2029
1.15	87.3638
1.144	88.1033
1.138	88.4873
1.132	88.661
1.126	88.8231
1.12	88.8809
1.114	89.0284
1.108	89.1022
1.102	89.2186
1.096	89.3873
1.09	89.4175
1.084	89.4721
1.078	89.4892
1.072	89.4754
1.066	89.478
1.06	89.5197
1.054	89.3854
1.048	89.3649
1.042	89.3066
1.036	89.1954
1.03	89.2304
1.024	89.0846
1.018	88.9996
1.012	88.9321
1.006	88.8426
1	88.8664
0.994	88.8074
0.988	88.7909
0.982	88.7174
0.976	88.6815
0.97	88.6838
0.964	89.2242
0.958	89.5552
0.952	89.7625
0.946	89.8647
0.94	89.9812
0.934	90.0321
0.928	90.0846
0.922	90.153
0.916	90.1897
0.91	90.1949
0.904	90.2361
0.898	90.2609
0.892	90.3238
0.886	90.3621
0.88	90.2318
0.874	90.2785
0.868	90.3465
0.862	90.382
0.856	90.1593
0.85	90.2737
0.844	90.3177
0.838	90.3621
0.832	90.4341
0.826	90.4894
0.82	90.5444
0.814	90.4739
0.808	90.5116
0.802	90.4744
0.796	90.4559
0.79	90.3724
0.784	90.3542
0.778	90.3198
0.772	90.3049
0.766	90.2562
0.76	90.2586
0.754	90.2395
0.748	90.2432
0.742	90.2563
0.736	90.2489
0.73	90.2453
0.724	90.212
0.718	90.1939
0.712	90.1868
0.706	90.1726
0.7	90.1388
0.694	90.1071
0.688	90.0742
0.682	90.0665
0.676	90.0187
0.67	90.0216
0.664	89.9831
0.658	89.95
0.652	89.9075
0.646	89.8894
0.64	89.845
0.634	89.8114
0.628	89.8123
0.622	89.7776
0.616	89.7573
0.61	89.7062
0.604	89.6486
0.598	89.6524
0.592	89.6316
0.586	89.5528
0.58	89.5088
0.574	89.4358
0.568	89.3632
0.562	89.2444
0.556	89.1567
0.55	89.0734
0.544	88.9602
0.538	88.8512
0.532	88.7274
0.526	88.5869
0.52	88.4508
0.514	88.288
0.508	88.128
0.502	87.9407
0.496	87.7483
0.49	87.5527
0.484	87.318
0.478	87.1585
0.472	86.9596
0.466	86.7613
0.46	86.5756
0.454	86.3378
0.448	86.1125
0.442	85.8824
0.436	85.6097
0.43	85.4077
0.424	85.1211
0.418	84.8708
0.412	84.619
0.406	84.3541
0.4	84.1016
