Name: Labradorite (Na,Ca)Al(Al,Si)Si2O8
Type: Mineral
Class: Silicate
Subclass: Tectosilicate
Particle Size: Coarse
Sample No.: labrador_1
Owner: JHU
Wavelength Range: TIR
Origin: Lake County, Oregon, acquired from the Smithsonian (sampleno. NMNH 115500) via Dave Stewart, USGS
Description: The sample consisted of a 2 cm x 1 cm x 0.2 cm, 0.536 g portion, of a single transparent crystal.  The fragment seemed to have been sawn on one side.  A very, very small amount of iron oxide stain could be seen on the surface of the fragment and still less on the inside.  No impurities were detected under the microscope. Particle size was 75-250 micrometers.(Framework Silicates); (Feldspar Group) Original ASTER Spectral Library name was jhu.nicolet.mineral.silicate.tectosilicate.coarse.labrad1.spectrum.txt
Measurement: Bidirectional reflectance
X Units: Wavelength (micrometers)
Y Units: Reflectance (percent)
wavelength	value
25.0442	6.7139
24.3388	5.8545
23.6719	5.8799
23.0407	5.2558
22.4422	4.4556
21.8741	4.1858
21.334	4.4802
20.8199	4.2097
20.33	3.6855
19.8627	4.0513
19.4163	4.5283
18.9896	4.9939
18.5812	6.1875
18.19	5.938
17.815	6.0234
17.4551	7.0522
17.1094	7.1421
16.7772	7.3435
16.4576	7.0871
16.15	6.3992
15.8537	6.5608
15.568	5.7085
15.2925	3.4175
15.0265	2.3403
14.7697	2.4692
14.5214	2.5532
14.2814	2.6719
14.0492	2.8274
13.8244	3.0564
13.6067	3.1096
13.3957	3.1611
13.1912	3.178
12.9929	3.072
12.8004	2.8652
12.6135	2.7126
12.432	2.9189
12.2557	3.28
12.0843	3.5901
11.9176	3.8367
11.7555	4.0434
11.5977	4.2849
11.444	4.6323
11.2944	5.1897
11.1487	5.9028
11.0067	6.5124
10.8682	7.0596
10.7332	7.4504
10.6015	7.7095
10.473	7.852
10.3476	7.7695
10.2251	7.7573
10.1056	7.9319
9.9887	8.0034
9.8746	7.8899
9.763	7.6518
9.6539	7.3054
9.5472	6.8601
9.4429	6.384
9.3408	6.0061
9.2409	5.7305
9.1431	5.8213
9.0474	6.1833
8.9536	6.5835
8.8618	7.0234
8.7718	7.3928
8.6837	7.6936
8.5973	7.8718
8.5126	7.8796
8.4295	7.7453
8.3481	7.3537
8.2682	6.0159
8.1898	3.9382
8.1129	2.1277
8.0374	0.8745
7.9634	0.3923
7.8906	0.4321
7.8192	0.5679
7.7491	0.7166
7.6802	0.8755
7.6126	1.0051
7.5461	1.1226
7.4807	1.2224
7.4165	1.324
7.3534	1.426
7.2914	1.5188
7.2303	1.6003
7.1703	1.6702
7.1113	1.7458
7.0533	1.8096
6.9962	1.8735
6.94	1.9214
6.8847	1.9607
6.8302	1.9839
6.7767	2.022
6.7239	2.0527
6.672	2.0693
6.6209	2.1001
6.5705	2.1265
6.5209	2.1536
6.4721	2.1667
6.424	2.1692
6.3766	2.1782
6.3299	2.1931
6.2838	2.1999
6.2385	2.2153
6.1937	2.2241
6.1496	2.2383
6.1062	2.2634
6.0633	2.2729
6.0211	2.2952
5.9794	2.3384
5.9383	2.3733
5.8978	2.4456
5.8578	2.5273
5.8184	2.6077
5.7794	2.687
5.741	2.7624
5.7031	2.8315
5.6657	2.9043
5.6288	2.9824
5.5924	3.0659
5.5564	3.1592
5.5209	3.2222
5.4859	3.2934
5.4513	3.3728
5.4171	3.4773
5.3833	3.6057
5.35	3.7427
5.3171	3.8894
5.2846	4.0391
5.2524	4.1953
5.2207	4.3823
5.1893	4.595
5.1584	4.8276
5.1277	5.0903
5.0975	5.3559
5.0676	5.6245
5.038	5.8679
5.0088	6.0962
4.98	6.3166
4.9514	6.4895
4.9232	6.6474
4.8953	6.7851
4.8678	6.9319
4.8405	7.081
4.8135	7.2363
4.7868	7.3735
4.7605	7.5478
4.7344	7.7344
4.7086	7.9446
4.6831	8.1997
4.6578	8.4822
4.6328	8.7702
4.6081	9.0869
4.5837	9.4065
4.5595	9.7146
4.5356	10.0271
4.5119	10.3132
4.4884	10.592
4.4652	10.8359
4.4423	11.0586
4.4196	11.2942
4.3971	11.4951
4.3748	11.7185
4.3528	11.9526
4.331	12.1674
4.3094	12.417
4.288	12.6748
4.2668	12.9109
4.2458	13.1433
4.2251	13.3259
4.2045	13.4712
4.1841	13.6045
4.164	13.7014
4.144	13.7663
4.1242	13.8274
4.1046	13.883
4.0852	13.9231
4.066	13.9616
4.047	14.0051
4.0281	14.0505
4.0094	14.0727
3.9909	14.0925
3.9725	14.1237
3.9544	14.165
3.9363	14.2131
3.9185	14.2622
3.9008	14.3095
3.8833	14.3413
3.8659	14.3776
3.8487	14.4023
3.8316	14.4355
3.8147	14.4663
3.7979	14.4941
3.7813	14.5258
3.7648	14.5481
3.7485	14.56
3.7323	14.5715
3.7162	14.5769
3.7003	14.573
3.6845	14.5839
3.6689	14.5859
3.6534	14.5925
3.638	14.594
3.6227	14.5966
3.6076	14.6084
3.5926	14.6115
3.5777	14.6042
3.563	14.5966
3.5484	14.5747
3.5338	14.5402
3.5195	14.445
3.5052	14.0737
3.491	14.2832
3.477	14.3488
3.463	14.3513
3.4492	14.2585
3.4355	14.0925
3.4219	13.7197
3.4084	13.8928
3.395	14.1733
3.3817	14.2153
3.3685	14.331
3.3554	14.4741
3.3425	14.5559
3.3296	14.5854
3.3168	14.5996
3.3041	14.6157
3.2915	14.6147
3.279	14.5952
3.2666	14.5839
3.2543	14.5808
3.2421	14.5744
3.23	14.561
3.218	14.5529
3.206	14.5568
3.1942	14.5642
3.1824	14.5578
3.1707	14.5412
3.1591	14.5097
3.1476	14.5073
3.1362	14.4795
3.1249	14.4558
3.1136	14.4533
3.1024	14.4509
3.0913	14.4275
3.0803	14.4145
3.0694	14.3962
3.0585	14.3769
3.0477	14.3588
3.037	14.3513
3.0264	14.3562
3.0158	14.3432
3.0053	14.3161
2.9949	14.3029
2.9845	14.3339
2.9743	14.3342
2.9641	14.3452
2.9539	14.3698
2.9439	14.4057
2.9339	14.4238
2.9239	14.4401
2.9141	14.4511
2.9043	14.5048
2.8946	14.5505
2.8849	14.5808
2.8753	14.5764
2.8658	14.653
2.8563	14.7085
2.8469	14.7451
2.8375	14.7705
2.8282	14.8005
2.819	14.8254
2.8098	14.8606
2.8007	14.8735
2.7917	14.8947
2.7827	14.9174
2.7738	14.8979
2.7649	14.924
2.7561	14.9348
2.7473	15.0219
2.7386	15.0593
2.7299	15.0979
2.7213	15.113
2.7128	15.143
2.7043	15.1557
2.6959	15.2277
2.6875	15.3537
2.6791	15.3857
2.6709	15.3967
2.6626	15.4226
2.6545	15.3884
2.6463	15.3857
2.6382	15.4238
2.6302	15.4292
2.6222	15.4277
2.6143	15.4199
2.6064	15.3984
2.5986	15.4592
2.5908	15.4736
2.583	15.4729
2.5753	15.4926
2.5677	15.4814
2.5601	15.4619
2.5525	15.4741
2.545	15.4799
2.5375	15.4865
2.5301	15.4633
2.5227	15.4331
2.5154	15.448
2.5081	15.4575
2.5008	15.4582
2.4936	15.4462
2.4864	15.4238
2.4793	15.413
2.4722	15.395
2.4651	15.3715
2.4581	15.3886
2.4511	15.3828
2.4442	15.3745
2.4373	15.3608
2.4305	15.3325
2.4236	15.3403
2.4169	15.3671
2.4101	15.3593
2.4034	15.3493
2.3967	15.3137
2.3901	15.2822
2.3835	15.3017
2.377	15.3029
2.3704	15.3149
2.364	15.2863
2.3575	15.2492
2.3511	15.2749
2.3447	15.2473
2.3384	15.2255
2.3321	15.2326
2.3258	15.229
2.3195	15.1333
2.3133	15.1523
2.3071	15.1308
2.301	15.123
2.2949	15.0813
2.2888	15.0988
2.2828	15.0832
2.2767	15.0981
2.2708	15.0217
2.2648	15.0649
2.2589	15.0703
2.253	15.0214
2.2471	14.9912
2.2413	14.9992
2.2355	15.0112
2.2297	14.9682
2.224	14.9599
2.2183	14.9875
2.2126	14.9677
2.207	14.8955
2.2013	14.913
2.1957	14.966
2.1902	14.9289
2.1846	14.9279
2.1791	14.893
2.1736	14.9133
2.1682	14.853
2.1628	14.9065
2.1574	14.8759
2.152	14.8818
2.1466	14.7963
2.1413	14.873
2.136	14.8198
2.1308	14.8261
2.1255	14.7375
2.1203	14.8086
2.1151	14.8164
2.11	14.8098
2.1048	14.802
2.0997	14.7685
2.0946	14.843
2.0895	14.8691
2.0845	14.7961
2.0795	14.7959
