Name: Montebrasite LiAlPO_4(OH)
Type: Mineral
Class: Phosphate
Subclass: None
Particle Size: Medium
Sample No.: P-2A
Owner: JPL
Wavelength Range: VSWIR
Origin: USA, Couth Dakota, Custer County, Custer.
Description: Particle size was 45-125um.Collected by:  Burminco Original ASTER Spectral Library name was jpl.perkin.mineral.phosphate.none.medium.p02a.spectrum.txt
Measurement: Hemispherical reflectance
X Units: Wavelength (micrometers)
Y Units: Reflectance (percent)
wavelength	value
2.5	32.8927
2.494	33.3692
2.488	34.2268
2.482	35.3668
2.476	36.9725
2.47	38.7205
2.464	40.5337
2.458	42.639
2.452	44.5494
2.446	46.575
2.44	48.1239
2.434	49.2912
2.428	50.0097
2.422	50.1316
2.416	49.7719
2.41	48.4909
2.404	46.2816
2.398	42.6545
2.392	37.487
2.386	31.3574
2.38	25.8417
2.374	23.1959
2.368	24.777
2.362	30.4987
2.356	38.3973
2.35	46.1264
2.344	51.9169
2.338	55.3939
2.332	57.093
2.326	57.804
2.32	57.8578
2.314	57.551
2.308	56.7897
2.302	55.7475
2.296	54.3679
2.29	52.5647
2.284	50.7424
2.278	49.239
2.272	48.3929
2.266	47.8159
2.26	46.979
2.254	45.7368
2.248	44.2607
2.242	42.6117
2.236	40.9784
2.23	39.1709
2.224	37.3032
2.218	35.5311
2.212	33.4647
2.206	30.5549
2.2	27.2228
2.194	24.168
2.188	21.7444
2.182	19.9592
2.176	18.7504
2.17	19.7542
2.164	25.6743
2.158	35.4574
2.152	44.8984
2.146	50.8829
2.14	53.9654
2.134	55.5773
2.128	56.3989
2.122	56.868
2.116	57.1324
2.11	57.4927
2.104	57.9832
2.098	58.5286
2.092	59.0126
2.086	59.0547
2.08	58.7233
2.074	58.3322
2.068	58.1817
2.062	58.3022
2.056	58.632
2.05	59.2783
2.044	60.0445
2.038	60.8077
2.032	61.479
2.026	61.6194
2.02	60.876
2.014	58.9126
2.008	54.8113
2.002	49.0685
1.996	46.1345
1.99	49.012
1.984	54.5108
1.978	59.2306
1.972	62.0116
1.966	63.5329
1.96	64.2529
1.954	64.5367
1.948	64.7412
1.942	64.896
1.936	64.8041
1.93	64.8118
1.924	64.7102
1.918	64.5608
1.912	64.6326
1.906	64.8245
1.9	65.0511
1.894	65.2285
1.888	65.3985
1.882	65.5649
1.876	65.5575
1.87	65.3216
1.864	64.2038
1.858	62.805
1.852	61.8134
1.846	62.0924
1.84	64.3116
1.834	67.6736
1.828	69.4708
1.822	70.0239
1.816	70.3056
1.81	70.3145
1.804	70.2963
1.798	70.1521
1.792	69.8056
1.786	69.3167
1.78	68.9142
1.774	68.6882
1.768	68.6028
1.762	68.6789
1.756	68.9013
1.75	69.0418
1.744	69.0741
1.738	68.9267
1.732	69.0972
1.726	69.618
1.72	70.3069
1.714	70.8513
1.708	71.2236
1.702	71.2433
1.696	71.2877
1.69	71.3385
1.684	71.3305
1.678	71.3481
1.672	71.3637
1.666	71.24
1.66	71.1341
1.654	71.0344
1.648	70.9263
1.642	70.9886
1.636	70.8905
1.63	70.7308
1.624	70.489
1.618	70.249
1.612	69.9198
1.606	69.8828
1.6	69.8326
1.594	69.5902
1.588	69.3226
1.582	68.9547
1.576	68.5241
1.57	67.9121
1.564	67.2272
1.558	66.109
1.552	64.5421
1.546	62.7734
1.54	61.5781
1.534	62.1608
1.528	63.8151
1.522	65.0449
1.516	66.1212
1.51	67.3814
1.504	68.5133
1.498	69.2942
1.492	69.8881
1.486	70.0877
1.48	69.9405
1.474	70.4227
1.468	71.1465
1.462	71.5118
1.456	71.9082
1.45	71.0613
1.444	71.2137
1.438	72.8731
1.432	73.1932
1.426	73.3676
1.42	72.6812
1.414	72.9111
1.408	74.0639
1.402	74.4634
1.396	74.7675
1.39	74.9696
1.384	75.0631
1.378	75.1701
1.372	75.1125
1.366	74.9449
1.36	74.6216
1.354	74.4924
1.348	74.7914
1.342	74.9874
1.336	75.1787
1.33	75.2164
1.324	75.2988
1.318	75.282
1.312	75.2767
1.306	75.2384
1.3	75.077
1.294	74.9495
1.288	74.8281
1.282	75.166
1.276	75.373
1.27	75.4946
1.264	75.4395
1.258	75.4457
1.252	75.539
1.246	75.5821
1.24	75.6394
1.234	75.6838
1.228	75.671
1.222	75.6558
1.216	75.6781
1.21	75.7083
1.204	75.7091
1.198	75.6953
1.192	75.7214
1.186	75.7177
1.18	75.6752
1.174	75.6795
1.168	75.7312
1.162	75.7671
1.156	75.7835
1.15	75.7436
1.144	75.7293
1.138	75.7704
1.132	75.7907
1.126	75.755
1.12	75.8216
1.114	75.7053
1.108	75.6911
1.102	75.7499
1.096	75.765
1.09	75.8217
1.084	75.8555
1.078	75.7301
1.072	75.8246
1.066	75.7426
1.06	75.731
1.054	75.8239
1.048	75.8273
1.042	75.8819
1.036	75.8261
1.03	75.7482
1.024	75.8257
1.018	75.7974
1.012	75.7916
1.006	75.7805
1	75.8589
0.994	75.8904
0.988	75.7394
0.982	75.8911
0.976	75.8653
0.97	75.9147
0.964	75.9185
0.958	75.8806
0.952	75.9587
0.946	75.9503
0.94	75.9503
0.934	75.9272
0.928	75.9125
0.922	75.9825
0.916	75.9896
0.91	75.9721
0.904	75.9945
0.898	76.0046
0.892	76.0244
0.886	76.0223
0.88	75.8955
0.874	75.9869
0.868	75.9924
0.862	76.0414
0.856	76.1915
0.85	76.2236
0.844	76.2269
0.838	76.2551
0.832	76.2759
0.826	76.2502
0.82	76.2817
0.814	76.252
0.808	76.2393
0.802	76.2378
0.796	76.164
0.79	76.1466
0.784	76.1504
0.778	76.15
0.772	76.1291
0.766	76.0986
0.76	76.0853
0.754	76.0596
0.748	76.0518
0.742	76.0659
0.736	76.0549
0.73	76.0448
0.724	76.0191
0.718	76.0229
0.712	76.0137
0.706	75.9815
0.7	75.9584
0.694	75.9613
0.688	75.9481
0.682	75.9299
0.676	75.899
0.67	75.8741
0.664	75.8604
0.658	75.8386
0.652	75.8151
0.646	75.7859
0.64	75.7711
0.634	75.7311
0.628	75.7149
0.622	75.6814
0.616	75.6485
0.61	75.6225
0.604	75.593
0.598	75.597
0.592	75.5998
0.586	75.5527
0.58	75.5267
0.574	75.4757
0.568	75.4344
0.562	75.3848
0.556	75.3093
0.55	75.2704
0.544	75.1893
0.538	75.1163
0.532	75.0604
0.526	74.9754
0.52	74.8654
0.514	74.7808
0.508	74.6886
0.502	74.5397
0.496	74.412
0.49	74.2665
0.484	74.1134
0.478	73.9675
0.472	73.8273
0.466	73.6812
0.46	73.5159
0.454	73.3111
0.448	73.1092
0.442	72.85
0.436	72.5952
0.43	72.3174
0.424	72.014
0.418	71.6937
0.412	71.3474
0.406	70.9952
0.4	70.5954
