Name: Chlorite
Type: Mineral
Class: Silicate
Subclass: Phyllosilicate
Particle Size: Fine
Sample No.: PS-12F
Owner: JPL
Wavelength Range: TIR
Origin: USA, New Mexico
Description: Particle size was 0-45um.Collected by Ward's Original ASTER Spectral Library name was jpl.nicolet.mineral.silicate.phyllosilicate.fine.ps12f.spectrum.txt
Measurement: Hemispherical reflectance
X Units: Wavelength (micrometers)
Y Units: Reflectance (percent)
wavelength	value
15.3853	3.1086
15.1161	3.1084
14.8563	2.3525
14.6052	2.0812
14.3624	2.0611
14.1276	2.2543
13.9004	2.3002
13.6803	2.8955
13.4671	2.7981
13.2604	2.6129
13.06	2.3964
12.8656	2.239
12.6769	2.0097
12.4936	2.3757
12.3155	2.1898
12.1425	2.1662
11.9742	2.03
11.8106	2.7722
11.6513	3.1316
11.4963	3.6396
11.3454	3.7502
11.1983	3.8671
11.0551	4.1278
10.9154	4.4275
10.7793	4.6852
10.6465	4.8615
10.5169	5.1798
10.3904	5.8174
10.267	6.5187
10.1464	7.1308
10.0287	8.2949
9.9136	8.6587
9.8012	8.991
9.6913	8.6866
9.5838	8.1463
9.4787	7.9608
9.3758	7.0725
9.2752	5.1967
9.1767	3.9511
9.0803	3.1062
8.9858	2.4402
8.8934	2.2691
8.8028	2.344
8.714	2.7103
8.627	2.647
8.5417	3.6172
8.4581	4.3464
8.3761	5.5202
8.2957	6.2731
8.2169	7.3739
8.1395	8.1515
8.0635	8.7305
7.989	9.2853
7.9158	9.9995
7.8439	10.6778
7.7734	11.2922
7.7041	11.9102
7.636	12.4922
7.5691	13.1605
7.5034	13.8373
7.4388	14.4058
7.3753	14.9252
7.3129	15.5768
7.2515	16.177
7.1912	16.7047
7.1318	17.2452
7.0734	17.5694
7.016	17.8248
6.9595	18.3572
6.9039	18.2374
6.8492	18.2785
6.7953	18.3812
6.7423	17.9753
6.6901	17.7914
6.6387	17.8825
6.5881	17.2802
6.5382	16.7788
6.4892	16.7472
6.4408	16.1875
6.3931	15.674
6.3462	15.4774
6.2999	15.0168
6.2543	14.8532
6.2094	14.9165
6.1651	15.0424
6.1214	15.4281
6.0784	15.8246
6.0359	16.005
5.994	16.479
5.9527	16.7675
5.912	17.2799
5.8718	17.978
5.8322	18.6379
5.7931	19.2997
5.7545	19.949
5.7165	20.62
5.6789	20.7022
5.6418	21.0935
5.6052	21.0187
5.5691	21.4376
5.5334	21.8078
5.4982	22.2618
5.4635	22.6539
5.4291	22.7889
5.3952	22.5565
5.3618	22.3144
5.3287	22.3509
5.2961	22.4902
5.2638	22.7391
5.2319	23.1591
5.2004	23.4426
5.1693	23.5946
5.1386	23.9545
5.1082	24.1352
5.0782	24.4466
5.0485	24.5707
5.0192	24.7989
4.9902	25.2246
4.9616	25.9148
4.9332	26.888
4.9052	27.8094
4.8776	28.7021
4.8502	29.4308
4.8231	30.2728
4.7963	31.1164
4.7699	32.1258
4.7437	33.3132
4.7178	34.4799
4.6922	35.3353
4.6668	36.3002
4.6418	37.1676
4.617	38.1433
4.5924	39.3422
4.5681	40.3492
4.5441	41.49
4.5203	42.2904
4.4968	43.0492
4.4735	43.7485
4.4505	44.413
4.4277	45.0096
4.4051	45.5637
4.3828	45.9952
4.3607	46.5893
4.3388	47.0629
4.3171	47.6358
4.2956	48.0895
4.2744	48.4475
4.2534	48.6305
4.2325	49.2048
4.2119	49.3616
4.1915	49.5486
4.1712	49.699
4.1512	50.0274
4.1313	50.1439
4.1117	50.3152
4.0922	50.4189
4.0729	50.6438
4.0538	50.7534
4.0349	50.573
4.0161	50.6887
3.9976	50.5811
3.9792	50.5897
3.9609	50.5499
3.9428	50.4956
3.9249	50.3659
3.9072	50.2619
3.8896	49.9586
3.8722	49.8458
3.8549	49.6104
3.8378	49.2125
3.8208	49.0057
3.804	48.6096
3.7873	48.3844
3.7708	48.1053
3.7544	47.663
3.7382	47.3025
3.7221	46.8549
3.7061	46.4872
3.6903	46.0359
3.6746	45.6068
3.659	45.0956
3.6436	44.7131
3.6283	44.1233
3.6131	43.5004
3.5981	42.8283
3.5832	42.1889
3.5684	41.4192
3.5537	40.9066
3.5391	40.3586
3.5247	39.6766
3.5104	39.1019
3.4962	38.5274
3.4821	37.972
3.4681	37.3899
3.4543	36.8135
3.4405	36.2724
3.4269	35.6974
3.4133	35.0027
3.3999	34.4279
3.3866	33.7194
3.3733	33.1005
3.3602	32.412
3.3472	31.7721
3.3343	30.9515
3.3215	30.2474
3.3088	29.2514
3.2961	28.5112
3.2836	27.5356
3.2712	26.7287
3.2588	25.7958
3.2466	24.8198
3.2345	23.7713
3.2224	22.6373
3.2104	21.6167
3.1985	20.4706
3.1867	19.5123
3.175	18.4231
3.1634	17.2835
3.1519	16.223
3.1404	15.2638
3.129	14.3029
3.1178	13.2484
3.1065	12.3849
3.0954	11.4328
3.0844	10.5849
3.0734	9.8409
3.0625	9.1579
3.0517	8.5709
3.041	7.9868
3.0303	7.6218
3.0197	6.9407
3.0092	6.5152
2.9987	6.0726
2.9884	5.8221
2.9781	5.4692
2.9678	5.2942
2.9577	5.0437
2.9476	4.8684
2.9376	4.9139
2.9276	4.7932
2.9177	4.8494
2.9079	4.9114
2.8982	5.415
2.8885	5.6931
2.8789	5.7392
2.8693	5.96
2.8598	5.7599
2.8504	5.5848
2.841	5.4957
2.8317	5.2664
2.8224	5.2335
2.8133	5.4999
2.8041	6.0811
2.7951	6.8545
2.786	8.8713
2.7771	10.9527
2.7682	11.676
2.7594	10.7902
2.7506	12.8855
2.7418	16.3563
2.7332	23.3105
2.7246	31.2717
2.716	37.5894
2.7075	40.1797
2.699	41.3395
2.6906	47.2809
2.6823	50.0186
2.674	51.5074
2.6657	53.0662
2.6575	53.184
2.6494	53.9132
2.6413	54.7437
2.6332	55.4293
2.6252	55.6835
2.6173	56.3296
2.6094	56.2076
2.6015	56.4305
2.5937	57.2031
2.5859	56.7032
2.5782	56.8957
2.5706	57.334
2.5629	57.5333
2.5554	57.3755
2.5478	57.9029
2.5403	58.1315
2.5329	58.3898
2.5255	58.3929
2.5181	58.6395
2.5108	58.9675
2.5035	59.1597
2.4963	59.6685
2.4891	60.2268
2.482	60.6133
2.4749	61.1263
2.4678	61.8234
2.4608	62.2973
2.4538	62.6197
2.4468	62.773
2.4399	62.6722
2.4331	62.9965
2.4262	62.7866
2.4194	62.6531
2.4127	62.6991
2.4059	62.5055
2.3993	62.294
2.3926	61.47
2.386	60.5642
2.3795	58.9772
2.3729	57.6873
2.3664	56.772
2.36	56.2974
2.3535	56.4198
2.3471	56.8687
2.3408	57.7189
2.3345	58.603
2.3282	59.3404
2.3219	59.8988
2.3157	60.7407
2.3095	61.0819
2.3034	61.6643
2.2972	62.1253
2.2911	62.3787
2.2851	62.1985
2.279	61.6175
2.2731	60.4008
2.2671	58.9371
2.2612	57.8623
2.2553	58.6572
2.2494	60.9988
2.2435	63.5311
2.2377	65.5935
2.232	66.6324
2.2262	67.7834
2.2205	68.4005
2.2148	68.5809
2.2091	68.9043
2.2035	69.3163
2.1979	69.4487
2.1923	69.5728
2.1868	69.8938
2.1812	69.6084
2.1758	69.6487
2.1703	69.8174
2.1649	69.9321
2.1595	69.9415
2.1541	69.8494
2.1487	69.8205
2.1434	69.8256
2.1381	69.615
2.1328	69.8563
2.1275	69.506
2.1223	69.5697
2.1171	69.8112
2.112	69.8588
2.1068	69.6757
2.1017	69.808
2.0966	69.6595
2.0915	69.4868
2.0865	69.7247
2.0814	69.1717
2.0764	69.4933
2.0715	69.0426
2.0665	68.9923
2.0616	68.699
2.0567	68.4014
2.0518	68.1533
2.0469	67.8072
2.0421	67.551
2.0373	67.2392
2.0325	66.9666
2.0277	66.6799
2.0229	66.1527
2.0182	66.1103
2.0135	65.7276
2.0088	65.8398
2.0042	65.6133
