Name: Heulandite (Na,Ca)2-3Al3(Al,Si)2Si13O36.12H2O
Type: Mineral
Class: Silicate
Subclass: Tectosilicate
Particle Size: Solid
Sample No.: heulan_2
Owner: JHU
Wavelength Range: TIR
Origin: Gobel, Oregon via Joe Taggart, USGS, Denver, Colorado.
Description: The sample is composed of 1 cm diameter, pearly, translucent crystals in a white, fine-grained groundmass. Crystals were separated by hand and appear to be pure heulandite. Sample had cleavage face.(Zeolite Group) Original ASTER Spectral Library name was jhu.nicolet.mineral.silicate.tectosilicate.solid.heulan2.spectrum.txt
Measurement: Bidirectional reflectance
X Units: Wavelength (micrometers)
Y Units: Reflectance (percent)
wavelength	value
25.0442	20.9826
24.3388	21.5747
23.6719	21.236
23.0407	23.0663
22.4422	28.0014
21.8741	33.1498
21.334	38.776
20.8199	38.7921
20.33	30.5553
19.8627	21.5004
19.4163	16.7924
18.9896	15.6435
18.5812	11.4424
18.19	8.9057
17.815	8.7085
17.4551	9.0361
17.1094	9.4389
16.7772	9.8589
16.4576	9.7461
16.15	8.9355
15.8537	8.6257
15.568	8.7068
15.2925	8.9626
15.0265	9.2947
14.7697	9.4668
14.5214	9.6767
14.2814	10.0681
14.0492	10.3115
13.8244	10.1484
13.6067	9.6682
13.3957	9.1762
13.1912	9.0075
12.9929	9.0427
12.8004	9.1098
12.6135	9.1518
12.432	9.4531
12.2557	10.2307
12.0843	11.0486
11.9176	11.7358
11.7555	12.4279
11.5977	13.1318
11.444	13.8103
11.2944	14.4553
11.1487	14.9953
11.0067	15.5749
10.8682	16.237
10.7332	17.1965
10.6015	18.5571
10.473	20.1801
10.3476	22.0529
10.2251	24.0339
10.1056	26.0724
9.9887	28.2184
9.8746	29.9303
9.763	30.7883
9.6539	31.6088
9.5472	33.175
9.4429	35.4853
9.3408	37.7187
9.2409	37.1725
9.1431	34.9377
9.0474	32.7565
8.9536	30.893
8.8618	29.446
8.7718	28.256
8.6837	26.9035
8.5973	25.5051
8.5126	24.7211
8.4295	24.2453
8.3481	22.822
8.2682	20.2199
8.1898	16.7622
8.1129	11.4968
8.0374	6.5044
7.9634	3.1392
7.8906	1.645
7.8192	1.7869
7.7491	2.3584
7.6802	2.9224
7.6126	3.4407
7.5461	3.9119
7.4807	4.3266
7.4165	4.7126
7.3534	5.0686
7.2914	5.3855
7.2303	5.6926
7.1703	5.958
7.1113	6.2226
7.0533	6.4221
6.9962	6.6404
6.94	6.8052
6.8847	6.9414
6.8302	7.0969
6.7767	7.2751
6.7239	7.4978
6.672	7.594
6.6209	7.6655
6.5705	7.7453
6.5209	7.8467
6.4721	7.8764
6.424	7.8655
6.3766	7.9817
6.3299	7.9475
6.2838	7.8843
6.2385	7.7356
6.1937	7.4263
6.1496	6.9316
6.1062	6.302
6.0633	6.0017
6.0211	6.24
5.9794	6.5671
5.9383	6.9863
5.8978	7.4807
5.8578	8.0705
5.8184	8.5266
5.7794	8.9573
5.741	9.2693
5.7031	9.5285
5.6657	9.7461
5.6288	9.9209
5.5924	10.0971
5.5564	10.2688
5.5209	10.4726
5.4859	10.6828
5.4513	10.9265
5.4171	11.1404
5.3833	11.383
5.35	11.5249
5.3171	11.6848
5.2846	11.7829
5.2524	11.8979
5.2207	12.0046
5.1893	12.1523
5.1584	12.3122
5.1277	12.4985
5.0975	12.6853
5.0676	12.8635
5.038	13.0249
5.0088	13.1635
4.98	13.2749
4.9514	13.3535
4.9232	13.4297
4.8953	13.4799
4.8678	13.519
4.8405	13.5517
4.8135	13.5927
4.7868	13.6338
4.7605	13.6694
4.7344	13.6958
4.7086	13.7107
4.6831	13.7133
4.6578	13.7129
4.6328	13.7202
4.6081	13.7353
4.5837	13.7588
4.5595	13.7942
4.5356	13.8525
4.5119	13.9255
4.4884	14.0197
4.4652	14.1401
4.4423	14.2966
4.4196	14.4836
4.3971	14.685
4.3748	14.8991
4.3528	15.1237
4.331	15.354
4.3094	15.5944
4.288	15.8413
4.2668	16.0317
4.2458	16.2595
4.2251	16.4892
4.2045	16.6106
4.1841	16.7802
4.164	16.9577
4.144	17.1181
4.1242	17.2793
4.1046	17.447
4.0852	17.6013
4.066	17.7307
4.047	17.8391
4.0281	17.9375
4.0094	18.029
3.9909	18.114
3.9725	18.2004
3.9544	18.2922
3.9363	18.3747
3.9185	18.4301
3.9008	18.467
3.8833	18.4877
3.8659	18.4863
3.8487	18.4699
3.8316	18.4462
3.8147	18.4126
3.7979	18.361
3.7813	18.3005
3.7648	18.2282
3.7485	18.1464
3.7323	18.0559
3.7162	17.9565
3.7003	17.8471
3.6845	17.7294
3.6689	17.5998
3.6534	17.4558
3.638	17.3015
3.6227	17.1228
3.6076	16.926
3.5926	16.7085
3.5777	16.4804
3.563	16.2443
3.5484	15.9924
3.5338	15.7202
3.5195	15.3942
3.5052	15.0651
3.491	14.8515
3.477	14.5937
3.463	14.3032
3.4492	14.0019
3.4355	13.6916
3.4219	13.3908
3.4084	13.1272
3.395	12.8889
3.3817	12.635
3.3685	12.4228
3.3554	12.2082
3.3425	11.9555
3.3296	11.7302
3.3168	11.53
3.3041	11.3144
3.2915	11.1191
3.279	10.9314
3.2666	10.7495
3.2543	10.5805
3.2421	10.425
3.23	10.282
3.218	10.1513
3.206	10.0302
3.1942	9.9189
3.1824	9.8125
3.1707	9.7124
3.1591	9.6155
3.1476	9.5222
3.1362	9.4299
3.1249	9.3449
3.1136	9.2705
3.1024	9.2099
3.0913	9.1684
3.0803	9.1357
3.0694	9.112
3.0585	9.0866
3.0477	9.0586
3.037	9.0239
3.0264	8.9905
3.0158	8.9533
3.0053	8.914
2.9949	8.8667
2.9845	8.8164
2.9743	8.7641
2.9641	8.7153
2.9539	8.6689
2.9439	8.6225
2.9339	8.5837
2.9239	8.5481
2.9141	8.52
2.9043	8.4912
2.8946	8.4721
2.8849	8.4516
2.8753	8.4321
2.8658	8.4138
2.8563	8.394
2.8469	8.3762
2.8375	8.355
2.8282	8.3501
2.819	8.3418
2.8098	8.3554
2.8007	8.3533
2.7917	8.3613
2.7827	8.3376
2.7738	8.2993
2.7649	8.2358
2.7561	8.1794
2.7473	8.2805
2.7386	8.4375
2.7299	9.018
2.7213	9.6902
2.7128	10.592
2.7043	11.4453
2.6959	12.1059
2.6875	12.7636
2.6791	13.2131
2.6709	13.5588
2.6626	14.0334
2.6545	14.4336
2.6463	14.7265
2.6382	14.9765
2.6302	15.0344
2.6222	15.2224
2.6143	15.3564
2.6064	15.3664
2.5986	15.4472
2.5908	15.4924
2.583	15.5339
2.5753	15.581
2.5677	15.6137
2.5601	15.6201
2.5525	15.6816
2.545	15.7209
2.5375	15.7785
2.5301	15.8474
2.5227	15.9314
2.5154	16.0241
2.5081	16.135
2.5008	16.2563
2.4936	16.3801
2.4864	16.5056
2.4793	16.6264
2.4722	16.7385
2.4651	16.8542
2.4581	16.9755
2.4511	17.101
2.4442	17.2343
2.4373	17.3776
2.4305	17.5441
2.4236	17.7226
2.4169	17.9187
2.4101	18.1286
2.4034	18.3537
2.3967	18.5827
2.3901	18.8205
2.3835	19.06
2.377	19.3076
2.3704	19.5537
2.364	19.8049
2.3575	20.0458
2.3511	20.27
2.3447	20.5156
2.3384	20.7311
2.3321	20.9265
2.3258	21.1059
2.3195	21.2607
2.3133	21.3769
2.3071	21.5209
2.301	21.6542
2.2949	21.7778
2.2888	21.8862
2.2828	21.9814
2.2767	22.0688
2.2708	22.1513
2.2648	22.2289
2.2589	22.2946
2.253	22.3547
2.2471	22.4157
2.2413	22.4648
2.2355	22.4929
2.2297	22.5202
2.224	22.5378
2.2183	22.5458
2.2126	22.5505
2.207	22.5512
2.2013	22.5488
2.1957	22.5505
2.1902	22.5392
2.1846	22.5261
2.1791	22.5126
2.1736	22.4948
2.1682	22.478
2.1628	22.4599
2.1574	22.4416
2.152	22.4133
2.1466	22.3896
2.1413	22.3593
2.136	22.3298
2.1308	22.3046
2.1255	22.2712
2.1203	22.2551
2.1151	22.226
2.11	22.1938
2.1048	22.1652
2.0997	22.1393
2.0946	22.1044
2.0895	22.0729
2.0845	22.05
2.0795	22.0205
