Name: Pyrite FeS_2
Type: Mineral
Class: Sulfide
Subclass: None
Particle Size: Fine
Sample No.: S-2A
Owner: JPL
Wavelength Range: TIR
Origin: Italy, Tuscany, Elba, Rio Marina Isle
Description: Particle size was 0-45um.Collected by Ward's Original ASTER Spectral Library name was jpl.nicolet.mineral.sulfide.none.fine.s02a.spectrum.txt
Measurement: Hemispherical reflectance
X Units: Wavelength (micrometers)
Y Units: Reflectance (percent)
wavelength	value
15.3853	2.7662
15.1161	2.831
14.8563	2.9579
14.6052	2.9606
14.3624	2.6022
14.1276	2.8328
13.9004	2.7754
13.6803	2.8483
13.4671	3.0586
13.2604	2.8611
13.06	2.7631
12.8656	2.7828
12.6769	2.8369
12.4936	2.9245
12.3155	2.7453
12.1425	2.9864
11.9742	2.9966
11.8106	3.4347
11.6513	3.5216
11.4963	3.6306
11.3454	3.8077
11.1983	3.6799
11.0551	3.6524
10.9154	3.8161
10.7793	3.7635
10.6465	3.9008
10.5169	3.9182
10.3904	3.8735
10.267	3.9471
10.1464	3.9687
10.0287	4.345
9.9136	4.201
9.8012	4.5403
9.6913	5.3536
9.5838	6.592
9.4787	5.6444
9.3758	5.4184
9.2752	5.4603
9.1767	5.4797
9.0803	5.1117
8.9858	5.243
8.8934	5.238
8.8028	5.5523
8.714	5.4645
8.627	5.2491
8.5417	5.7235
8.4581	5.7097
8.3761	5.5667
8.2957	5.537
8.2169	5.5766
8.1395	5.4484
8.0635	5.1947
7.989	4.692
7.9158	4.4203
7.8439	4.2475
7.7734	4.2315
7.7041	4.1234
7.636	4.2363
7.5691	4.2155
7.5034	4.3384
7.4388	4.3773
7.3753	4.452
7.3129	4.3968
7.2515	4.539
7.1912	4.5438
7.1318	4.5527
7.0734	4.5373
7.016	4.4605
6.9595	4.4797
6.9039	4.4356
6.8492	4.4553
6.7953	4.2076
6.7423	3.9987
6.6901	3.962
6.6387	4.2698
6.5881	4.361
6.5382	4.511
6.4892	4.6463
6.4408	4.7592
6.3931	4.6464
6.3462	4.5998
6.2999	4.4533
6.2543	4.2573
6.2094	4.1956
6.1651	3.9657
6.1214	3.8709
6.0784	3.678
6.0359	3.6324
5.994	3.8115
5.9527	3.9804
5.912	4.0437
5.8718	4.1728
5.8322	4.385
5.7931	4.3906
5.7545	4.445
5.7165	4.7559
5.6789	4.786
5.6418	4.7854
5.6052	4.991
5.5691	5.1823
5.5334	5.2153
5.4982	5.4515
5.4635	5.3724
5.4291	5.6471
5.3952	5.6412
5.3618	5.7738
5.3287	5.8715
5.2961	5.8881
5.2638	5.9658
5.2319	6.0797
5.2004	6.1822
5.1693	6.2224
5.1386	6.185
5.1082	6.1984
5.0782	6.1775
5.0485	6.1927
5.0192	6.1927
4.9902	6.0821
4.9616	6.0394
4.9332	5.9721
4.9052	5.9619
4.8776	5.9525
4.8502	5.8361
4.8231	5.8858
4.7963	5.9046
4.7699	5.8513
4.7437	5.8569
4.7178	5.8101
4.6922	5.7464
4.6668	5.7685
4.6418	5.6644
4.617	5.6763
4.5924	5.6232
4.5681	5.5033
4.5441	5.5922
4.5203	5.6734
4.4968	5.5607
4.4735	5.6927
4.4505	5.6875
4.4277	5.6652
4.4051	5.7626
4.3828	5.7609
4.3607	5.8106
4.3388	5.826
4.3171	5.8056
4.2956	5.7952
4.2744	5.7882
4.2534	5.9732
4.2325	5.8774
4.2119	5.9591
4.1915	5.8875
4.1712	5.8317
4.1512	5.7936
4.1313	5.7628
4.1117	5.8426
4.0922	5.9383
4.0729	5.8798
4.0538	6.0592
4.0349	5.7286
4.0161	5.8071
3.9976	5.7796
3.9792	5.8108
3.9609	5.7351
3.9428	5.6842
3.9249	5.721
3.9072	5.611
3.8896	5.683
3.8722	5.6657
3.8549	5.7296
3.8378	5.6726
3.8208	5.6483
3.804	5.5716
3.7873	5.5582
3.7708	5.555
3.7544	5.4894
3.7382	5.5185
3.7221	5.2379
3.7061	5.3798
3.6903	5.247
3.6746	5.1764
3.659	5.2161
3.6436	5.1425
3.6283	5.1149
3.6131	5.115
3.5981	5.0705
3.5832	4.8601
3.5684	4.8111
3.5537	4.8645
3.5391	4.8909
3.5247	4.8005
3.5104	4.6005
3.4962	4.7844
3.4821	4.6814
3.4681	4.6628
3.4543	4.6066
3.4405	4.491
3.4269	4.3163
3.4133	4.4178
3.3999	4.2211
3.3866	4.3049
3.3733	4.1266
3.3602	4.1601
3.3472	4.0451
3.3343	3.954
3.3215	3.8704
3.3088	3.796
3.2961	3.8286
3.2836	3.6307
3.2712	3.6568
3.2588	3.5395
3.2466	3.5689
3.2345	3.4212
3.2224	3.5953
3.2104	3.5036
3.1985	3.3244
3.1867	3.2043
3.175	3.241
3.1634	3.1903
3.1519	3.2029
3.1404	3.1718
3.129	3.1202
3.1178	2.9911
3.1065	2.94
3.0954	2.8496
3.0844	2.7552
3.0734	2.8341
3.0625	2.6375
3.0517	2.7423
3.041	2.8765
3.0303	2.6304
3.0197	2.7821
3.0092	2.8189
2.9987	2.7989
2.9884	2.8904
2.9781	2.6741
2.9678	2.6602
2.9577	2.8145
2.9476	2.8451
2.9376	2.7925
2.9276	3.1422
2.9177	2.9
2.9079	3.175
2.8982	3.3722
2.8885	3.4708
2.8789	3.6482
2.8693	3.7845
2.8598	4.0287
2.8504	4.291
2.841	4.446
2.8317	4.8383
2.8224	4.8969
2.8133	5.3537
2.8041	5.5601
2.7951	5.7058
2.786	5.9807
2.7771	6.2761
2.7682	6.5376
2.7594	7.0704
2.7506	7.3237
2.7418	7.6655
2.7332	8.1495
2.7246	8.4347
2.716	8.5599
2.7075	8.9891
2.699	9.0255
2.6906	9.3258
2.6823	9.3578
2.674	9.389
2.6657	9.5967
2.6575	9.7455
2.6494	9.701
2.6413	9.7645
2.6332	9.8146
2.6252	9.5465
2.6173	9.7933
2.6094	9.7418
2.6015	9.7411
2.5937	9.811
2.5859	9.8465
2.5782	9.8352
2.5706	9.7875
2.5629	10.0126
2.5554	9.9867
2.5478	10.0828
2.5403	9.9127
2.5329	10.1808
2.5255	10.2208
2.5181	10.1201
2.5108	10.3065
2.5035	10.4145
2.4963	10.3187
2.4891	10.4629
2.482	10.4412
2.4749	10.6492
2.4678	10.6767
2.4608	10.6363
2.4538	10.7183
2.4468	10.6409
2.4399	10.7132
2.4331	10.7397
2.4262	10.9123
2.4194	10.7978
2.4127	10.8705
2.4059	11.0873
2.3993	10.9254
2.3926	11.0188
2.386	11.0381
2.3795	11.1498
2.3729	11.2525
2.3664	11.4004
2.36	11.219
2.3535	11.6062
2.3471	11.4923
2.3408	11.5382
2.3345	11.5559
2.3282	11.6706
2.3219	11.7262
2.3157	11.751
2.3095	11.8224
2.3034	11.6245
2.2972	11.8958
2.2911	11.8325
2.2851	11.6851
2.279	11.5188
2.2731	11.8855
2.2671	11.7677
2.2612	11.7623
2.2553	11.6026
2.2494	11.5391
2.2435	11.6595
2.2377	11.7233
2.232	11.6148
2.2262	11.7968
2.2205	11.5028
2.2148	11.8149
2.2091	11.729
2.2035	11.6633
2.1979	11.3762
2.1923	11.6035
2.1868	11.6188
2.1812	11.6114
2.1758	11.5959
2.1703	11.6496
2.1649	11.2825
2.1595	11.4936
2.1541	11.5071
2.1487	11.4026
2.1434	11.5484
2.1381	11.5077
2.1328	11.3228
2.1275	11.3459
2.1223	11.3175
2.1171	11.2206
2.112	11.2027
2.1068	11.3215
2.1017	11.4689
2.0966	11.2862
2.0915	11.2412
2.0865	11.0904
2.0814	11.0734
2.0764	11.3258
2.0715	11.3818
2.0665	11.2988
2.0616	10.9396
2.0567	11.1125
2.0518	10.9898
2.0469	10.8924
2.0421	10.8313
2.0373	10.871
2.0325	11.2066
2.0277	11.4656
2.0229	10.8726
2.0182	10.9732
2.0135	10.8357
2.0088	10.935
2.0042	10.6951
