Name: Orthoclase (Feldspar) (K,Na)AlSi_3O_8
Type: Mineral
Class: Silicate
Subclass: Tectosilicate
Particle Size: Medium
Sample No.: TS-12A
Owner: JPL
Wavelength Range: VSWIR
Origin: India.
Description: Particle size was  45-125um.Collected by:  Burminco Original ASTER Spectral Library name was jpl.perkin.mineral.silicate.tectosilicate.medium.ts12a.spectrum.txt
Measurement: Hemispherical reflectance
X Units: Wavelength (micrometers)
Y Units: Reflectance (percent)
wavelength	value
2.5	80.8501
2.494	80.8681
2.488	80.858
2.482	80.9048
2.476	81.0323
2.47	81.1004
2.464	81.194
2.458	81.3614
2.452	81.4575
2.446	81.4065
2.44	81.564
2.434	81.7485
2.428	81.8405
2.422	81.936
2.416	82.0896
2.41	82.0721
2.404	82.1715
2.398	82.2275
2.392	82.3894
2.386	82.5004
2.38	82.5759
2.374	82.6631
2.368	82.7547
2.362	82.8327
2.356	82.9952
2.35	82.9912
2.344	83.0632
2.338	83.0423
2.332	83.0245
2.326	83.059
2.32	82.9507
2.314	82.9678
2.308	82.9304
2.302	82.9036
2.296	82.9807
2.29	82.8611
2.284	82.8564
2.278	82.8213
2.272	82.8166
2.266	82.7873
2.26	82.8354
2.254	82.7805
2.248	82.7776
2.242	82.851
2.236	82.8303
2.23	82.9007
2.224	82.9039
2.218	83.0129
2.212	83.1068
2.206	83.1948
2.2	83.3792
2.194	83.3945
2.188	83.4331
2.182	83.6268
2.176	83.8203
2.17	83.9166
2.164	84.1615
2.158	84.2663
2.152	84.4167
2.146	84.3987
2.14	84.447
2.134	84.3586
2.128	84.2006
2.122	83.977
2.116	83.7192
2.11	83.4429
2.104	83.2219
2.098	83.0785
2.092	83.079
2.086	83.1009
2.08	83.1984
2.074	83.2837
2.068	83.2982
2.062	83.4015
2.056	83.454
2.05	83.4862
2.044	83.5391
2.038	83.514
2.032	83.5537
2.026	83.6276
2.02	83.5348
2.014	83.5552
2.008	83.5166
2.002	83.4541
1.996	83.414
1.99	83.3746
1.984	83.1727
1.978	83.213
1.972	83.0419
1.966	83.0637
1.96	82.9913
1.954	83.0075
1.948	82.942
1.942	82.8468
1.936	82.892
1.93	82.8198
1.924	82.918
1.918	82.8475
1.912	82.9939
1.906	83.0799
1.9	83.3178
1.894	83.5347
1.888	83.6465
1.882	83.7305
1.876	83.8104
1.87	83.8747
1.864	83.9345
1.858	84.0478
1.852	84.0532
1.846	83.9843
1.84	83.9752
1.834	84.0338
1.828	84.0305
1.822	83.998
1.816	84.0757
1.81	84.0087
1.804	84.0055
1.798	84.0918
1.792	83.9786
1.786	84.0602
1.78	83.9196
1.774	83.9682
1.768	83.969
1.762	83.9118
1.756	83.968
1.75	83.9322
1.744	83.9323
1.738	83.9535
1.732	84.0375
1.726	83.9941
1.72	84.0768
1.714	83.9082
1.708	83.9736
1.702	83.847
1.696	83.9277
1.69	83.7921
1.684	83.9303
1.678	83.8399
1.672	83.8599
1.666	83.8602
1.66	83.7571
1.654	83.8851
1.648	83.8231
1.642	83.8208
1.636	83.7725
1.63	83.8019
1.624	83.8901
1.618	83.835
1.612	83.8147
1.606	83.8901
1.6	83.8492
1.594	83.7953
1.588	83.7869
1.582	83.8026
1.576	83.7203
1.57	83.7432
1.564	83.727
1.558	83.7759
1.552	83.6935
1.546	83.6352
1.54	83.6535
1.534	83.7182
1.528	83.6916
1.522	83.6345
1.516	83.6501
1.51	83.5688
1.504	83.5414
1.498	83.5741
1.492	83.4957
1.486	83.5141
1.48	83.4393
1.474	83.4445
1.468	83.3852
1.462	83.3937
1.456	83.3664
1.45	83.2919
1.444	83.3059
1.438	83.2388
1.432	83.2231
1.426	83.208
1.42	83.2008
1.414	83.1712
1.408	83.2139
1.402	83.2278
1.396	83.3386
1.39	83.3557
1.384	83.3863
1.378	83.3181
1.372	83.321
1.366	83.2891
1.36	83.2315
1.354	83.2091
1.348	83.1935
1.342	83.1301
1.336	83.0896
1.33	83.2061
1.324	83.1739
1.318	83.0462
1.312	83.0706
1.306	83.0372
1.3	83.0444
1.294	82.9816
1.288	82.9701
1.282	82.9466
1.276	82.923
1.27	82.8751
1.264	82.8907
1.258	82.7612
1.252	82.8537
1.246	82.7986
1.24	82.7692
1.234	82.8141
1.228	82.76
1.222	82.7305
1.216	82.7483
1.21	82.6186
1.204	82.6594
1.198	82.6854
1.192	82.5896
1.186	82.623
1.18	82.6044
1.174	82.513
1.168	82.5883
1.162	82.5707
1.156	82.535
1.15	82.4921
1.144	82.4876
1.138	82.4709
1.132	82.4945
1.126	82.3917
1.12	82.4606
1.114	82.5514
1.108	82.4435
1.102	82.5173
1.096	82.5394
1.09	82.4788
1.084	82.5774
1.078	82.4935
1.072	82.5021
1.066	82.5998
1.06	82.559
1.054	82.5744
1.048	82.5154
1.042	82.5608
1.036	82.5922
1.03	82.6906
1.024	82.705
1.018	82.6572
1.012	82.618
1.006	82.6731
1	82.7073
0.994	82.7554
0.988	82.7572
0.982	82.7758
0.976	82.8069
0.97	82.8108
0.964	82.8655
0.958	82.8204
0.952	82.8551
0.946	82.8992
0.94	82.8826
0.934	82.8646
0.928	82.9151
0.922	82.8824
0.916	82.982
0.91	82.9739
0.904	82.9911
0.898	83.0317
0.892	82.9873
0.886	83.0061
0.88	83.0171
0.874	82.9851
0.868	82.9438
0.862	83.0058
0.856	82.9515
0.85	82.96
0.844	82.9713
0.838	82.9881
0.832	82.9988
0.826	83.0156
0.82	83.0023
0.814	82.967
0.808	83.0214
0.802	83.0057
0.796	82.9624
0.79	82.9132
0.784	82.9102
0.778	82.8956
0.772	82.8489
0.766	82.8453
0.76	82.8902
0.754	82.8684
0.748	82.8057
0.742	82.7796
0.736	82.7496
0.73	82.745
0.724	82.7089
0.718	82.7176
0.712	82.6659
0.706	82.6636
0.7	82.6343
0.694	82.5833
0.688	82.5793
0.682	82.5472
0.676	82.5337
0.67	82.5169
0.664	82.4841
0.658	82.4774
0.652	82.4108
0.646	82.4
0.64	82.3803
0.634	82.3542
0.628	82.3336
0.622	82.2838
0.616	82.277
0.61	82.2235
0.604	82.2063
0.598	82.1851
0.592	82.1744
0.586	82.1028
0.58	82.0148
0.574	81.8888
0.568	81.7506
0.562	81.6006
0.556	81.4125
0.55	81.2298
0.544	81.0295
0.538	80.8577
0.532	80.6625
0.526	80.474
0.52	80.257
0.514	80.0572
0.508	79.8071
0.502	79.5436
0.496	79.2768
0.49	78.9994
0.484	78.6784
0.478	78.4188
0.472	78.1233
0.466	77.8214
0.46	77.443
0.454	76.9993
0.448	76.4708
0.442	75.9605
0.436	75.439
0.43	74.8923
0.424	74.3312
0.418	73.8088
0.412	73.4226
0.406	73.0752
0.4	72.5814
