Name: Dolomite CaMg(CO_3)_2
Type: Mineral
Class: Carbonate
Subclass: None
Particle Size: Medium
Sample No.: C-5C
Owner: JPL
Wavelength Range: VSWIR
Origin: USA, California, Los Angeles County, Palos Verdes
Description: Particle size was 45-125um.Collected by Burminco Original ASTER Spectral Library name was jpl.beckman.mineral.carbonate.none.medium.c05c.spectrum.txt
Measurement: Hemispherical reflectance
X Units: Wavelength (micrometers)
Y Units: Reflectance (percent)
wavelength	value
0.4	70.87
0.403	71.15
0.406	71.84
0.409	72.18
0.412	72.58
0.415	73.21
0.418	73.21
0.421	73.84
0.424	73.96
0.427	74.47
0.43	74.7
0.433	74.81
0.436	75.33
0.439	75.16
0.442	75.73
0.445	75.79
0.448	76.01
0.451	76.41
0.454	76.31
0.457	76.83
0.46	76.83
0.463	76.89
0.466	77.41
0.469	77.19
0.472	77.64
0.475	77.54
0.478	77.89
0.481	77.89
0.484	78.12
0.487	78.3
0.49	78.13
0.493	78.6
0.496	78.55
0.499	78.84
0.502	78.89
0.505	78.89
0.508	79.35
0.511	79.12
0.514	79.47
0.517	79.7
0.52	79.58
0.523	79.99
0.526	79.76
0.529	80.1
0.532	79.87
0.535	79.87
0.538	80.22
0.541	80.28
0.544	80.5
0.547	80.16
0.55	80.73
0.553	80.5
0.556	80.9
0.559	80.73
0.562	81.13
0.565	80.9
0.568	81.24
0.571	81.01
0.574	80.9
0.577	81.07
0.58	80.84
0.583	81.3
0.586	81.13
0.589	81.42
0.592	81.36
0.595	81.42
0.598	81.71
0.601	81.36
0.604	81.82
0.607	81.71
0.61	81.76
0.613	81.94
0.616	81.71
0.619	81.99
0.622	81.99
0.625	82.1
0.628	82.33
0.631	81.99
0.634	82.33
0.637	82.33
0.64	82.33
0.643	82.67
0.646	82.33
0.649	82.67
0.652	82.5
0.655	82.73
0.658	82.79
0.661	82.62
0.664	82.96
0.667	82.79
0.67	83.08
0.673	83.02
0.676	83.08
0.679	83.14
0.682	83.08
0.685	83.54
0.688	83.19
0.691	83.42
0.694	83.42
0.697	83.37
0.7	83.08
0.703	83.54
0.706	83.19
0.709	83.6
0.712	83.54
0.715	83.54
0.718	83.82
0.721	83.65
0.724	83.99
0.727	83.76
0.73	83.7
0.733	83.99
0.736	83.82
0.739	84.16
0.742	83.93
0.745	84.16
0.748	84.05
0.751	84.22
0.754	84.16
0.757	83.99
0.76	84.39
0.763	84.1
0.766	84.34
0.769	84.16
0.772	84.39
0.775	84.45
0.778	84.28
0.781	84.45
0.784	84.28
0.787	84.74
0.79	84.57
0.793	84.74
0.796	84.68
0.799	84.85
0.808	84.8
0.82	84.91
0.832	85.03
0.844	85.03
0.856	85.08
0.868	84.97
0.88	85.08
0.892	85.14
0.904	85.03
0.916	85.08
0.928	85.03
0.94	85.14
0.952	85.08
0.964	85.08
0.976	85.08
0.988	85.03
1	85.08
1.012	85.14
1.024	85.08
1.036	85.26
1.048	85.2
1.06	85.08
1.072	85.14
1.084	85.26
1.096	85.36
1.108	85.26
1.12	85.36
1.132	85.26
1.144	85.42
1.156	85.3
1.168	85.27
1.18	85.25
1.192	85.3
1.204	85.45
1.216	85.34
1.228	85.28
1.24	85.22
1.252	85.28
1.264	85.31
1.276	85.36
1.288	85.33
1.3	85.31
1.312	85.4
1.324	85.32
1.336	85.25
1.348	85.23
1.36	85.34
1.372	85.23
1.384	85.17
1.396	85.05
1.408	85.02
1.42	84.85
1.432	84.76
1.444	84.67
1.456	84.74
1.468	84.74
1.48	84.91
1.492	85.02
1.504	84.96
1.516	85.08
1.528	84.96
1.54	84.91
1.552	85.02
1.564	85.08
1.576	85.19
1.588	85.19
1.6	85.08
1.612	84.89
1.624	84.98
1.636	84.85
1.648	84.88
1.66	84.98
1.672	84.68
1.684	84.48
1.696	84.35
1.708	84.17
1.72	84.05
1.732	84
1.744	83.94
1.756	84.34
1.768	84.34
1.78	84.17
1.792	83.94
1.804	83.46
1.816	82.58
1.828	81.93
1.84	81.11
1.852	80.13
1.864	80.62
1.876	82.02
1.888	82.12
1.9	81.7
1.912	81.12
1.924	80.35
1.936	79.49
1.948	79.01
1.96	78.4
1.972	77.89
1.984	78.45
1.996	79.69
2.008	80.61
2.02	81.23
2.032	81.33
2.044	81.26
2.056	81.33
2.068	81.06
2.08	80.73
2.092	80.35
2.104	79.87
2.116	79.1
2.128	78.43
2.14	78.3
2.152	78.57
2.164	78.8
2.176	78.37
2.188	77.41
2.2	75.85
2.212	74.01
2.224	71.93
2.236	69.07
2.248	66.01
2.26	62.9
2.272	60.48
2.284	58.5
2.296	56.54
2.308	55.78
2.32	57.33
2.332	61.14
2.344	66.8
2.356	71.21
2.368	72.9
2.38	72.33
2.392	70.81
2.404	68.54
2.416	65.53
2.428	61.91
2.44	57.91
2.452	54.3
2.464	51.24
2.476	48.29
2.488	46.18
2.5	44.96
