Name: Corundum Al_2O_3
Type: Mineral
Class: Oxide
Subclass: None
Particle Size: Medium
Sample No.: O-15A
Owner: JPL
Wavelength Range: VSWIR
Origin: Unknown.
Description: Synthetic corundum.Particle size was 45-125um.Collected by:  JPL Original ASTER Spectral Library name was jpl.perkin.mineral.oxide.none.medium.o15a.spectrum.txt
Measurement: Hemispherical reflectance
X Units: Wavelength (micrometers)
Y Units: Reflectance (percent)
wavelength	value
2.5	68.4263
2.494	68.7458
2.488	69.0019
2.482	69.0529
2.476	69.4497
2.47	69.6829
2.464	70.1866
2.458	70.3551
2.452	70.8758
2.446	71.0222
2.44	71.2336
2.434	71.3902
2.428	71.7214
2.422	71.9095
2.416	72.2395
2.41	72.3875
2.404	72.6207
2.398	72.8873
2.392	73.0464
2.386	73.3065
2.38	73.4943
2.374	73.579
2.368	73.6032
2.362	73.7333
2.356	73.7309
2.35	74.0012
2.344	74.2861
2.338	74.6449
2.332	74.8699
2.326	75.0306
2.32	75.2501
2.314	75.3984
2.308	75.3962
2.302	75.6603
2.296	75.8045
2.29	75.9134
2.284	75.9731
2.278	75.9263
2.272	75.9515
2.266	75.8991
2.26	75.8508
2.254	76.076
2.248	76.276
2.242	76.5422
2.236	76.8829
2.23	77.1237
2.224	77.5058
2.218	77.7646
2.212	78.1001
2.206	78.4052
2.2	78.7837
2.194	79.1162
2.188	79.4078
2.182	79.5615
2.176	79.9371
2.17	80.081
2.164	80.5102
2.158	80.7294
2.152	80.8644
2.146	81.0617
2.14	81.1593
2.134	81.0616
2.128	80.9601
2.122	80.7698
2.116	80.5354
2.11	80.3596
2.104	80.0979
2.098	79.9947
2.092	79.9335
2.086	79.9865
2.08	79.9683
2.074	79.9707
2.068	79.8822
2.062	79.8363
2.056	79.7648
2.05	79.7121
2.044	79.7303
2.038	79.7172
2.032	79.6553
2.026	79.6449
2.02	79.5017
2.014	79.5352
2.008	79.3807
2.002	79.2754
1.996	79.1592
1.99	78.9997
1.984	78.7972
1.978	78.5791
1.972	78.421
1.966	78.3577
1.96	78.2556
1.954	78.2842
1.948	78.3128
1.942	78.3441
1.936	78.4952
1.93	78.5783
1.924	78.8986
1.918	79.1357
1.912	79.4997
1.906	80.0098
1.9	80.3751
1.894	80.7492
1.888	80.9032
1.882	80.8938
1.876	81.9976
1.87	83.8168
1.864	84.9129
1.858	85.352
1.852	85.7226
1.846	85.919
1.84	86.1152
1.834	86.2919
1.828	86.402
1.822	86.4374
1.816	86.5773
1.81	86.5596
1.804	86.5736
1.798	86.6908
1.792	86.6802
1.786	86.8439
1.78	86.7575
1.774	86.8109
1.768	86.7085
1.762	86.7712
1.756	86.8663
1.75	86.8959
1.744	86.9943
1.738	87.1498
1.732	87.1366
1.726	87.2657
1.72	87.3135
1.714	87.3183
1.708	87.3447
1.702	87.3532
1.696	87.3805
1.69	87.3887
1.684	87.3914
1.678	87.5317
1.672	87.4614
1.666	87.4
1.66	87.5661
1.654	87.4849
1.648	87.5505
1.642	87.3807
1.636	87.6733
1.63	87.4852
1.624	87.4751
1.618	87.4753
1.612	87.4593
1.606	87.6916
1.6	87.6692
1.594	87.6767
1.588	87.7294
1.582	87.7806
1.576	87.829
1.57	87.7812
1.564	87.8754
1.558	87.8095
1.552	87.8755
1.546	87.8607
1.54	87.8487
1.534	87.8827
1.528	87.6796
1.522	87.7685
1.516	87.7122
1.51	87.5635
1.504	87.6233
1.498	87.4968
1.492	87.5749
1.486	87.5454
1.48	87.3614
1.474	87.3503
1.468	87.3182
1.462	87.2147
1.456	87.0695
1.45	86.9845
1.444	87.0456
1.438	87.0731
1.432	87.1762
1.426	87.2109
1.42	87.3085
1.414	87.2976
1.408	87.4339
1.402	87.5333
1.396	87.8022
1.39	87.8444
1.384	87.7877
1.378	88.9116
1.372	89.6918
1.366	90.0752
1.36	90.1762
1.354	90.3156
1.348	90.2858
1.342	90.4617
1.336	90.5075
1.33	90.4673
1.324	90.5391
1.318	90.5566
1.312	90.5502
1.306	90.6609
1.3	90.7074
1.294	90.7504
1.288	90.7336
1.282	90.666
1.276	90.8014
1.27	90.8151
1.264	90.935
1.258	90.7789
1.252	90.9147
1.246	90.8126
1.24	90.9104
1.234	90.8624
1.228	90.8967
1.222	90.8781
1.216	90.9511
1.21	90.8759
1.204	90.8783
1.198	90.9571
1.192	90.9808
1.186	90.9133
1.18	91.0357
1.174	91.09
1.168	91.058
1.162	91.061
1.156	91.0976
1.15	91.1477
1.144	91.1335
1.138	91.1682
1.132	91.1937
1.126	91.2487
1.12	91.3102
1.114	91.2679
1.108	91.3301
1.102	91.2854
1.096	91.3232
1.09	91.2945
1.084	91.4634
1.078	91.4514
1.072	91.2856
1.066	91.4
1.06	91.4529
1.054	91.495
1.048	91.4747
1.042	91.5223
1.036	91.5952
1.03	91.5355
1.024	91.6913
1.018	91.554
1.012	91.6519
1.006	91.6867
1	91.7288
0.994	91.7177
0.988	91.6966
0.982	91.7367
0.976	91.6402
0.97	91.7139
0.964	91.7718
0.958	91.7743
0.952	91.8144
0.946	91.7734
0.94	91.8277
0.934	91.9252
0.928	92.0145
0.922	91.934
0.916	91.9884
0.91	91.9497
0.904	91.9812
0.898	92.0487
0.892	92.0373
0.886	92.0606
0.88	92.0333
0.874	92.0708
0.868	92.0737
0.862	92.0906
0.856	92.3425
0.85	92.4444
0.844	92.4325
0.838	92.5653
0.832	92.5323
0.826	92.4714
0.82	92.5395
0.814	92.5073
0.808	92.535
0.802	92.5263
0.796	92.5083
0.79	92.5312
0.784	92.4806
0.778	92.4417
0.772	92.4237
0.766	92.4686
0.76	92.4871
0.754	92.4833
0.748	92.4947
0.742	92.467
0.736	92.4887
0.73	92.4936
0.724	92.4613
0.718	92.488
0.712	92.5085
0.706	92.5272
0.7	92.4928
0.694	92.506
0.688	92.5159
0.682	92.5482
0.676	92.5634
0.67	92.5518
0.664	92.547
0.658	92.5634
0.652	92.5565
0.646	92.5693
0.64	92.5477
0.634	92.5521
0.628	92.5362
0.622	92.538
0.616	92.5279
0.61	92.5272
0.604	92.5206
0.598	92.5598
0.592	92.6028
0.586	92.5812
0.58	92.5728
0.574	92.5662
0.568	92.5519
0.562	92.5232
0.556	92.5167
0.55	92.4711
0.544	92.4319
0.538	92.4066
0.532	92.3766
0.526	92.3406
0.52	92.3011
0.514	92.2559
0.508	92.1936
0.502	92.1361
0.496	92.1206
0.49	92.0777
0.484	92.021
0.478	91.9073
0.472	91.8253
0.466	91.7308
0.46	91.6238
0.454	91.5151
0.448	91.373
0.442	91.3286
0.436	91.2127
0.43	91.1385
0.424	91.0631
0.418	90.9675
0.412	90.8896
0.406	90.7235
0.4	90.6077
