Name: Ilmenite Fe+2TiO3
Type: Mineral
Class: Oxide
Subclass: None
Particle Size: Coarse
Sample No.: Ilmenite_1
Owner: JHU
Wavelength Range: TIR
Origin: Ilmen Mountains, Urals, USSR via the Smithsonian (sample no.NMNH 96189)
Description: The sample consisted of two large and several smaller fragments.  Each large piece was about 1 cm x 3 cm, with a total weight of 19 g. Many surfaces of this black mineral had a yellow-brown alteration coating, which was difficult to remove completely.  Under the microscope the sample appeared pure. Particle size was 74-250  micrometers.(Hematite Group) Original ASTER Spectral Library name was jhu.nicolet.mineral.oxide.none.coarse.ilmeni1.spectrum.txt
Measurement: Bidirectional reflectance
X Units: Wavelength (micrometers)
Y Units: Reflectance (percent)
wavelength	value
25.0442	10.1552
24.3388	11.4199
23.6719	12.1279
23.0407	12.7282
22.4422	12.7924
21.8741	12.469
21.334	12.1093
20.8199	12.4067
20.33	13.0312
19.8627	13.8173
19.4163	14.6342
18.9896	15.1001
18.5812	15.2439
18.19	15.1877
17.815	14.8903
17.4551	14.2834
17.1094	13.1606
16.7772	11.8315
16.4576	10.9092
16.15	10.583
15.8537	10.5852
15.568	10.7773
15.2925	11.0154
15.0265	11.3071
14.7697	11.4455
14.5214	11.2895
14.2814	10.7168
14.0492	9.966
13.8244	8.9455
13.6067	7.3821
13.3957	5.4131
13.1912	3.4871
12.9929	2.3069
12.8004	1.7873
12.6135	1.6599
12.432	1.741
12.2557	1.8816
12.0843	2.0222
11.9176	2.1663
11.7555	2.3005
11.5977	2.4487
11.444	2.5786
11.2944	2.6872
11.1487	2.78
11.0067	2.8691
10.8682	2.9365
10.7332	3.043
10.6015	3.1052
10.473	3.1638
10.3476	3.2327
10.2251	3.283
10.1056	3.3083
9.9887	3.3769
9.8746	3.4104
9.763	3.4443
9.6539	3.5029
9.5472	3.5166
9.4429	3.5906
9.3408	3.6196
9.2409	3.6467
9.1431	3.665
9.0474	3.7202
8.9536	3.7346
8.8618	3.7353
8.7718	3.7566
8.6837	3.7683
8.5973	3.8047
8.5126	3.8274
8.4295	3.834
8.3481	3.873
8.2682	3.8667
8.1898	3.9119
8.1129	3.9375
8.0374	3.9477
7.9634	3.9543
7.8906	3.9873
7.8192	3.9858
7.7491	4.0073
7.6802	4.022
7.6126	4.0305
7.5461	4.0354
7.4807	4.052
7.4165	4.0549
7.3534	4.0745
7.2914	4.0752
7.2303	4.0715
7.1703	4.073
7.1113	4.095
7.0533	4.093
6.9962	4.1081
6.94	4.1113
6.8847	4.1179
6.8302	4.1233
6.7767	4.1528
6.7239	4.1536
6.672	4.1543
6.6209	4.1623
6.5705	4.1633
6.5209	4.1748
6.4721	4.1885
6.424	4.1807
6.3766	4.2036
6.3299	4.2207
6.2838	4.24
6.2385	4.2322
6.1937	4.2385
6.1496	4.238
6.1062	4.2366
6.0633	4.2471
6.0211	4.2422
5.9794	4.2414
5.9383	4.2253
5.8978	4.2351
5.8578	4.2571
5.8184	4.2502
5.7794	4.2593
5.741	4.2563
5.7031	4.2583
5.6657	4.2532
5.6288	4.2632
5.5924	4.2685
5.5564	4.2712
5.5209	4.2861
5.4859	4.2776
5.4513	4.2937
5.4171	4.2888
5.3833	4.2886
5.35	4.2939
5.3171	4.3098
5.2846	4.3132
5.2524	4.3074
5.2207	4.3137
5.1893	4.3257
5.1584	4.3225
5.1277	4.3122
5.0975	4.3203
5.0676	4.3157
5.038	4.3147
5.0088	4.3113
4.98	4.3098
4.9514	4.3015
4.9232	4.3079
4.8953	4.3137
4.8678	4.3076
4.8405	4.3262
4.8135	4.3247
4.7868	4.3208
4.7605	4.3288
4.7344	4.3308
4.7086	4.3337
4.6831	4.3303
4.6578	4.3227
4.6328	4.3335
4.6081	4.3374
4.5837	4.3369
4.5595	4.3325
4.5356	4.3345
4.5119	4.3391
4.4884	4.3489
4.4652	4.3437
4.4423	4.3367
4.4196	4.3423
4.3971	4.3435
4.3748	4.3391
4.3528	4.3415
4.331	4.3486
4.3094	4.3472
4.288	4.343
4.2668	4.3557
4.2458	4.3425
4.2251	4.3528
4.2045	4.3452
4.1841	4.3594
4.164	4.3567
4.144	4.3523
4.1242	4.3625
4.1046	4.3606
4.0852	4.3721
4.066	4.365
4.047	4.3623
4.0281	4.375
4.0094	4.3625
3.9909	4.362
3.9725	4.3667
3.9544	4.3738
3.9363	4.3706
3.9185	4.3821
3.9008	4.3721
3.8833	4.3813
3.8659	4.3801
3.8487	4.3818
3.8316	4.3818
3.8147	4.3872
3.7979	4.3828
3.7813	4.3784
3.7648	4.3909
3.7485	4.3772
3.7323	4.3826
3.7162	4.3921
3.7003	4.3916
3.6845	4.3818
3.6689	4.3838
3.6534	4.3909
3.638	4.3821
3.6227	4.3899
3.6076	4.397
3.5926	4.383
3.5777	4.3896
3.563	4.3894
3.5484	4.396
3.5338	4.3935
3.5195	4.3938
3.5052	4.4067
3.491	4.4036
3.477	4.4177
3.463	4.4055
3.4492	4.4177
3.4355	4.415
3.4219	4.4275
3.4084	4.427
3.395	4.4119
3.3817	4.4143
3.3685	4.4177
3.3554	4.4099
3.3425	4.4021
3.3296	4.3994
3.3168	4.4097
3.3041	4.4023
3.2915	4.4036
3.279	4.4148
3.2666	4.4138
3.2543	4.3977
3.2421	4.4099
3.23	4.4158
3.218	4.4094
3.206	4.4233
3.1942	4.4224
3.1824	4.4202
3.1707	4.3972
3.1591	4.4282
3.1476	4.4104
3.1362	4.4055
3.1249	4.4172
3.1136	4.4199
3.1024	4.4153
3.0913	4.4324
3.0803	4.4319
3.0694	4.4199
3.0585	4.427
3.0477	4.4243
3.037	4.4292
3.0264	4.4502
3.0158	4.4424
3.0053	4.4311
2.9949	4.4421
2.9845	4.4497
2.9743	4.4534
2.9641	4.4348
2.9539	4.4243
2.9439	4.4365
2.9339	4.4409
2.9239	4.4321
2.9141	4.4365
2.9043	4.4302
2.8946	4.4302
2.8849	4.4202
2.8753	4.4409
2.8658	4.4226
2.8563	4.4336
2.8469	4.4282
2.8375	4.4221
2.8282	4.407
2.819	4.3933
2.8098	4.407
2.8007	4.3994
2.7917	4.415
2.7827	4.4128
2.7738	4.4097
2.7649	4.406
2.7561	4.4067
2.7473	4.3826
2.7386	4.3862
2.7299	4.397
2.7213	4.3911
2.7128	4.3728
2.7043	4.3679
2.6959	4.3533
2.6875	4.3657
2.6791	4.3708
2.6709	4.3618
2.6626	4.3677
2.6545	4.3579
2.6463	4.365
2.6382	4.3188
2.6302	4.3393
2.6222	4.3335
2.6143	4.3157
2.6064	4.3452
2.5986	4.3332
2.5908	4.3484
2.583	4.3293
2.5753	4.3147
2.5677	4.3105
2.5601	4.3352
2.5525	4.301
2.545	4.3154
2.5375	4.301
2.5301	4.3174
2.5227	4.3186
2.5154	4.312
2.5081	4.2827
2.5008	4.293
2.4936	4.2905
2.4864	4.2739
2.4793	4.2886
2.4722	4.2519
2.4651	4.2705
2.4581	4.2541
2.4511	4.218
2.4442	4.2602
2.4373	4.2475
2.4305	4.2475
2.4236	4.2251
2.4169	4.2463
2.4101	4.2241
2.4034	4.2317
2.3967	4.2058
2.3901	4.175
2.3835	4.2051
2.377	4.1887
2.3704	4.1963
2.364	4.2114
2.3575	4.1682
2.3511	4.1614
2.3447	4.1504
2.3384	4.1477
2.3321	4.1448
2.3258	4.1455
2.3195	4.1501
2.3133	4.1394
2.3071	4.1296
2.301	4.1304
2.2949	4.1404
2.2888	4.1477
2.2828	4.1255
2.2767	4.1277
2.2708	4.1267
2.2648	4.1064
2.2589	4.1601
2.253	4.0801
2.2471	4.1006
2.2413	4.0857
2.2355	4.1057
2.2297	4.0889
2.224	4.0723
2.2183	4.1225
2.2126	4.0857
2.207	4.0862
2.2013	4.0945
2.1957	4.0815
2.1902	4.115
2.1846	4.0933
2.1791	4.0391
2.1736	4.064
2.1682	4.06
2.1628	4.0869
2.1574	4.0781
2.152	4.0332
2.1466	4.0557
2.1413	4.1157
2.136	4.043
2.1308	4.0542
2.1255	4.0522
2.1203	4.0647
2.1151	4.0898
2.11	4.0705
2.1048	4.0742
2.0997	4.0923
2.0946	4.0913
2.0895	4.0664
2.0845	4.0913
2.0795	4.081
