Name: Strontianite SrCO_3
Type: Mineral
Class: Carbonate
Subclass: None
Particle Size: Medium
Sample No.: C-1A
Owner: JPL
Wavelength Range: TIR
Origin: Germany, Westphalia, Hamm
Description: Particle size was 45-125um.Collected by Ward's Original ASTER Spectral Library name was jpl.nicolet.mineral.carbonate.none.medium.c01a.spectrum.txt
Measurement: Hemispherical reflectance
X Units: Wavelength (micrometers)
Y Units: Reflectance (percent)
wavelength	value
15.3853	45.0309
15.1161	45.1938
14.8563	42.7144
14.6052	28.7177
14.3624	4.6164
14.1276	3.4019
13.9004	26.4844
13.6803	41.8484
13.4671	46.4505
13.2604	48.0203
13.06	46.6489
12.8656	40.824
12.6769	35.3194
12.4936	30.1057
12.3155	29.376
12.1425	27.9546
11.9742	18.4958
11.8106	9.77
11.6513	20.5573
11.4963	24.6733
11.3454	10.9304
11.1983	11.7359
11.0551	15.9996
10.9154	19.218
10.7793	20.5868
10.6465	20.1496
10.5169	22.3847
10.3904	22.9965
10.267	25.8768
10.1464	29.8946
10.0287	29.8801
9.9136	27.7855
9.8012	26.7845
9.6913	24.6814
9.5838	22.6456
9.4787	20.6489
9.3758	10.2183
9.2752	14.5862
9.1767	21.8976
9.0803	21.8894
8.9858	19.537
8.8934	16.3521
8.8028	12.5161
8.714	9.6856
8.627	8.5131
8.5417	9.7981
8.4581	10.2942
8.3761	9.3357
8.2957	10.9199
8.2169	11.0647
8.1395	10.3994
8.0635	9.1661
7.989	7.7069
7.9158	7.5282
7.8439	7.0147
7.7734	6.5306
7.7041	6.3004
7.636	6.1705
7.5691	5.929
7.5034	6.2097
7.4388	6.4555
7.3753	6.8107
7.3129	7.1273
7.2515	7.3307
7.1912	7.7574
7.1318	8.4156
7.0734	9.5636
7.016	11.921
6.9595	17.088
6.9039	24.8633
6.8492	27.5274
6.7953	29.5814
6.7423	30.9368
6.6901	32.2797
6.6387	33.0978
6.5881	31.5427
6.5382	28.4248
6.4892	24.0532
6.4408	15.5352
6.3931	8.7204
6.3462	3.3523
6.2999	1.3297
6.2543	0.7504
6.2094	0.6679
6.1651	0.6111
6.1214	0.652
6.0784	0.8379
6.0359	1.1505
5.994	1.3943
5.9527	1.4779
5.912	2.0427
5.8718	3.0316
5.8322	4.5549
5.7931	6.1453
5.7545	7.7543
5.7165	11.0139
5.6789	3.8184
5.6418	1.4788
5.6052	3.4461
5.5691	25.7205
5.5334	34.0508
5.4982	39.005
5.4635	42.846
5.4291	45.3782
5.3952	47.3191
5.3618	49.1223
5.3287	51.083
5.2961	53.3564
5.2638	55.1171
5.2319	56.2682
5.2004	56.1468
5.1693	56.5292
5.1386	57.5033
5.1082	59.1074
5.0782	62.2819
5.0485	64.1616
5.0192	65.2843
4.9902	65.8794
4.9616	66.7265
4.9332	66.9366
4.9052	67.9629
4.8776	69.9249
4.8502	70.4775
4.8231	69.3739
4.7963	63.0571
4.7699	48.8836
4.7437	36.1442
4.7178	29.7108
4.6922	25.164
4.6668	31.2387
4.6418	37.3615
4.617	43.0155
4.5924	47.5695
4.5681	51.0092
4.5441	53.818
4.5203	54.1446
4.4968	53.5474
4.4735	54.703
4.4505	58.3952
4.4277	60.7834
4.4051	61.4298
4.3828	58.6884
4.3607	49.2444
4.3388	44.0019
4.3171	41.9607
4.2956	45.1522
4.2744	48.871
4.2534	49.3131
4.2325	48.6034
4.2119	46.9721
4.1915	43.46
4.1712	41.4886
4.1512	42.8056
4.1313	42.3481
4.1117	38.6829
4.0922	27.9021
4.0729	14.2824
4.0538	5.3431
4.0349	3.5432
4.0161	2.9252
3.9976	3.1791
3.9792	3.6213
3.9609	4.4535
3.9428	6.4226
3.9249	7.6973
3.9072	9.4455
3.8896	10.1475
3.8722	9.6138
3.8549	9.352
3.8378	10.4982
3.8208	16.3308
3.804	29.1281
3.7873	40.3383
3.7708	44.7106
3.7544	46.694
3.7382	48.3408
3.7221	50.1723
3.7061	51.6118
3.6903	52.7945
3.6746	53.097
3.659	53.1621
3.6436	52.6248
3.6283	51.3852
3.6131	50.3954
3.5981	48.2003
3.5832	43.4468
3.5684	39.1811
3.5537	31.1124
3.5391	18.1861
3.5247	10.2909
3.5104	11.7692
3.4962	8.5873
3.4821	4.9241
3.4681	4.3518
3.4543	5.6673
3.4405	6.9709
3.4269	7.3856
3.4133	6.8618
3.3999	6.41
3.3866	7.2992
3.3733	10.8116
3.3602	16.4786
3.3472	22.937
3.3343	29.3667
3.3215	35.7999
3.3088	39.6461
3.2961	42.2215
3.2836	44.0075
3.2712	45.6288
3.2588	46.9813
3.2466	48.1503
3.2345	49.2878
3.2224	50.3099
3.2104	51.214
3.1985	52.1783
3.1867	52.2623
3.175	50.7656
3.1634	48.5661
3.1519	45.4909
3.1404	44.4816
3.129	44.9021
3.1178	48.2858
3.1065	50.5031
3.0954	52.4981
3.0844	53.4198
3.0734	54.3667
3.0625	54.8247
3.0517	55.0819
3.041	55.2029
3.0303	55.0884
3.0197	55.4487
3.0092	55.6755
2.9987	56.024
2.9884	56.0533
2.9781	56.1493
2.9678	56.0157
2.9577	56.0499
2.9476	56.1939
2.9376	56.3536
2.9276	56.5088
2.9177	56.6268
2.9079	56.7187
2.8982	57.244
2.8885	57.4496
2.8789	57.9326
2.8693	58.2774
2.8598	58.1267
2.8504	57.0741
2.841	53.8758
2.8317	48.791
2.8224	46.3987
2.8133	45.5244
2.8041	52.6037
2.7951	56.1996
2.786	60.2552
2.7771	62.8178
2.7682	64.7363
2.7594	65.8106
2.7506	67.0079
2.7418	68.978
2.7332	70.4009
2.7246	73.6525
2.716	77.0612
2.7075	80.5138
2.699	82.4561
2.6906	83.7272
2.6823	84.5074
2.674	85.0148
2.6657	86.2288
2.6575	85.5881
2.6494	85.5982
2.6413	85.5861
2.6332	85.6406
2.6252	85.3381
2.6173	85.1528
2.6094	83.9383
2.6015	80.9377
2.5937	78.4968
2.5859	72.4811
2.5782	66.5706
2.5706	60.4116
2.5629	54.7797
2.5554	51.4091
2.5478	52.3644
2.5403	54.0359
2.5329	57.4931
2.5255	60.6376
2.5181	63.2152
2.5108	65.0911
2.5035	66.1483
2.4963	66.7942
2.4891	67.781
2.482	69.6867
2.4749	72.5871
2.4678	75.5308
2.4608	78.1507
2.4538	80.2679
2.4468	81.4614
2.4399	82.7153
2.4331	83.3096
2.4262	83.8247
2.4194	84.1087
2.4127	84.676
2.4059	84.692
2.3993	84.4679
2.3926	83.4645
2.386	81.7681
2.3795	78.6236
2.3729	74.9249
2.3664	71.2501
2.36	68.4927
2.3535	65.9424
2.3471	64.4089
2.3408	65.525
2.3345	68.1074
2.3282	70.1489
2.3219	71.9609
2.3157	73.0587
2.3095	74.187
2.3034	75.1832
2.2972	76.0205
2.2911	76.796
2.2851	78.0726
2.279	79.1013
2.2731	80.3083
2.2671	81.4206
2.2612	82.5084
2.2553	83.4959
2.2494	84.2294
2.2435	85.1219
2.2377	85.8604
2.232	86.5954
2.2262	87.1706
2.2205	87.8837
2.2148	88.3218
2.2091	88.8581
2.2035	89.1369
2.1979	88.9068
2.1923	88.6393
2.1868	88.1201
2.1812	87.4903
2.1758	87.5163
2.1703	87.5291
2.1649	89.0085
2.1595	89.6666
2.1541	90.1634
2.1487	90.5694
2.1434	91.1743
2.1381	91.0511
2.1328	91.2642
2.1275	91.4625
2.1223	91.7664
2.1171	91.711
2.112	91.9179
2.1068	92.1727
2.1017	92.1178
2.0966	92.221
2.0915	92.5344
2.0865	92.199
2.0814	92.5883
2.0764	92.2534
2.0715	92.6381
2.0665	92.628
2.0616	92.245
2.0567	92.5688
2.0518	92.6368
2.0469	92.0233
2.0421	91.9182
2.0373	91.6925
2.0325	90.824
2.0277	90.3995
2.0229	89.3922
2.0182	88.2059
2.0135	88.0612
2.0088	88.6771
2.0042	89.3905
