Name: Serpentine (Mg,Fe^2+,Ni)Si_2O_5(OH)_4
Type: Mineral
Class: Silicate
Subclass: Phyllosilicate
Particle Size: Medium
Sample No.: PS-20A
Owner: JPL
Wavelength Range: VSWIR
Origin: USA, New York.
Description: Particle size was 45-125um. Collected by:  Ward's Original ASTER Spectral Library name was jpl.perkin.mineral.silicate.phyllosilicate.medium.ps20a.spectrum.txt
Measurement: Hemispherical reflectance
X Units: Wavelength (micrometers)
Y Units: Reflectance (percent)
wavelength	value
2.5	22.0096
2.494	23.2072
2.488	24.4628
2.482	25.4913
2.476	26.2886
2.47	27.8685
2.464	29.6522
2.458	30.7162
2.452	30.8701
2.446	29.9851
2.44	28.7962
2.434	27.9918
2.428	28.1483
2.422	28.9841
2.416	29.7829
2.41	30.1214
2.404	30.2578
2.398	30.5297
2.392	31.092
2.386	32.0784
2.38	32.9653
2.374	33.8328
2.368	34.9739
2.362	36.3822
2.356	36.6864
2.35	34.4263
2.344	29.9255
2.338	25.5202
2.332	23.0501
2.326	22.802
2.32	23.9316
2.314	26.2202
2.308	29.1424
2.302	32.1193
2.296	34.6292
2.29	36.1658
2.284	37.0409
2.278	36.9855
2.272	37.0022
2.266	38.6825
2.26	42.2287
2.254	44.6884
2.248	45.5225
2.242	46.4617
2.236	48.8513
2.23	52.73
2.224	56.3445
2.218	58.6645
2.212	60.1744
2.206	60.9358
2.2	61.4174
2.194	61.7614
2.188	62.0762
2.182	62.1454
2.176	62.0592
2.17	62.0093
2.164	61.7798
2.158	61.1753
2.152	60.0596
2.146	58.2844
2.14	56.2599
2.134	54.3252
2.128	53.9137
2.122	54.6816
2.116	54.4015
2.11	54.2751
2.104	54.8849
2.098	54.9962
2.092	55.7646
2.086	57.3842
2.08	59.1298
2.074	60.7263
2.068	61.3309
2.062	61.0792
2.056	60.0747
2.05	58.5852
2.044	57.1538
2.038	56.3244
2.032	55.8543
2.026	55.535
2.02	55.3724
2.014	54.9902
2.008	54.1944
2.002	53.0151
1.996	52.1166
1.99	51.438
1.984	51.0229
1.978	50.8932
1.972	51.0175
1.966	51.3724
1.96	51.6198
1.954	51.9546
1.948	52.1569
1.942	52.3381
1.936	52.3187
1.93	52.124
1.924	51.9546
1.918	52.1133
1.912	53.0482
1.906	54.8205
1.9	57.8061
1.894	60.8267
1.888	63.4128
1.882	65.3586
1.876	66.9407
1.87	68.5151
1.864	69.3358
1.858	69.6043
1.852	70.0527
1.846	70.6577
1.84	70.91
1.834	71.1757
1.828	71.1197
1.822	70.9882
1.816	70.7321
1.81	70.9858
1.804	71.5221
1.798	71.8567
1.792	72.0586
1.786	72.2099
1.78	72.1645
1.774	72.3603
1.768	72.5165
1.762	72.8248
1.756	73.0781
1.75	73.348
1.744	73.5246
1.738	73.8051
1.732	73.935
1.726	74.1295
1.72	74.3583
1.714	74.5545
1.708	74.6724
1.702	74.715
1.696	74.8676
1.69	74.9352
1.684	74.9672
1.678	75.0595
1.672	74.9872
1.666	75.153
1.66	75.1008
1.654	75.2457
1.648	75.177
1.642	75.1904
1.636	75.0644
1.63	75.0299
1.624	75.0948
1.618	75.0219
1.612	74.9706
1.606	74.8592
1.6	74.8117
1.594	74.7164
1.588	74.5746
1.582	74.5805
1.576	74.4306
1.57	74.2357
1.564	74.1218
1.558	73.9525
1.552	73.7833
1.546	73.6091
1.54	73.4037
1.534	73.195
1.528	72.8521
1.522	72.6823
1.516	72.5038
1.51	72.11
1.504	72.1029
1.498	71.7982
1.492	71.525
1.486	70.9719
1.48	70.7286
1.474	70.4369
1.468	70.04
1.462	69.8317
1.456	69.5606
1.45	69.2852
1.444	68.9366
1.438	68.4816
1.432	67.8547
1.426	67.0368
1.42	66.3225
1.414	64.8896
1.408	59.7001
1.402	53.3791
1.396	36.4836
1.39	37.1579
1.384	37.624
1.378	61.1869
1.372	68.0293
1.366	67.1625
1.36	63.4348
1.354	65.7346
1.348	71.4781
1.342	72.3311
1.336	72.4544
1.33	72.7179
1.324	72.6713
1.318	72.4473
1.312	72.1878
1.306	71.9173
1.3	71.9822
1.294	71.2185
1.288	69.0249
1.282	69.5709
1.276	70.0653
1.27	71
1.264	70.9153
1.258	71.2863
1.252	71.7574
1.246	71.8681
1.24	71.7345
1.234	71.6919
1.228	71.5854
1.222	71.4007
1.216	71.2188
1.21	71.2049
1.204	70.9735
1.198	70.9006
1.192	70.7887
1.186	70.6642
1.18	70.5356
1.174	70.4309
1.168	70.3599
1.162	70.222
1.156	70.244
1.15	70.168
1.144	70.1799
1.138	70.1496
1.132	70.1417
1.126	70.1146
1.12	70.0667
1.114	70.0096
1.108	69.9358
1.102	69.8938
1.096	69.8824
1.09	69.9062
1.084	69.7593
1.078	69.7793
1.072	69.8074
1.066	69.7527
1.06	69.7008
1.054	69.662
1.048	69.6087
1.042	69.6692
1.036	69.6348
1.03	69.5329
1.024	69.4248
1.018	69.4836
1.012	69.3577
1.006	69.3447
1	69.2632
0.994	69.1263
0.988	69.0598
0.982	68.917
0.976	68.7768
0.97	68.6047
0.964	68.3253
0.958	67.5995
0.952	66.085
0.946	66.2096
0.94	67.0531
0.934	68.0347
0.928	68.0925
0.922	67.9751
0.916	67.9452
0.91	67.8935
0.904	67.8547
0.898	67.8496
0.892	67.9116
0.886	68.0221
0.88	68.0139
0.874	68.1065
0.868	68.1125
0.862	68.2579
0.856	68.698
0.85	68.6956
0.844	68.8209
0.838	68.8406
0.832	68.9504
0.826	68.9349
0.82	68.9256
0.814	68.8858
0.808	68.8742
0.802	68.7988
0.796	68.6528
0.79	68.5291
0.784	68.4342
0.778	68.2821
0.772	68.1502
0.766	68.0753
0.76	68.0079
0.754	67.9702
0.748	67.89
0.742	67.8798
0.736	67.8732
0.73	67.8617
0.724	67.9085
0.718	68.0619
0.712	68.129
0.706	68.2212
0.7	68.2785
0.694	68.3579
0.688	68.4174
0.682	68.5166
0.676	68.5535
0.67	68.6319
0.664	68.7134
0.658	68.7696
0.652	68.8813
0.646	68.97
0.64	69.0738
0.634	69.1772
0.628	69.2664
0.622	69.3256
0.616	69.4101
0.61	69.4585
0.604	69.4692
0.598	69.5006
0.592	69.4909
0.586	69.4144
0.58	69.2714
0.574	69.0839
0.568	68.8761
0.562	68.6151
0.556	68.2992
0.55	67.9461
0.544	67.5108
0.538	67.0604
0.532	66.5556
0.526	66.0116
0.52	65.4381
0.514	64.8046
0.508	64.0913
0.502	63.2752
0.496	62.4044
0.49	61.6407
0.484	60.8148
0.478	59.5785
0.472	57.6187
0.466	55.0462
0.46	53.0764
0.454	52.2342
0.448	51.6205
0.442	50.8434
0.436	50.3459
0.43	50.4698
0.424	50.8251
0.418	50.9573
0.412	51.0847
0.406	51.4068
0.4	51.4218
