Name: Sepiolite Mg4Si6O15(OH)2.6H2)
Type: Mineral
Class: Silicate
Subclass: Phyllosilicate
Particle Size: Fine
Sample No.: sepiolite_1
Owner: JHU
Wavelength Range: TIR
Origin: Two Crows, Nev., USA via Hunt and Salisbury Collection #CMSSEPNEV-1 (purchased from the Clay Mineral Society Repository)
Description: White, earthy clay.  Sepiolite plus a small amount of dolomite.  The sample was treated with HCl to remove the dolomite. (Sheet silicates); Sepiolite GroupParticle size was Less than 2  Micrometers. Original ASTER Spectral Library name was jhu.nicolet.mineral.silicate.phyllosilicate.powder.sepiol1.spectrum.txt
Measurement: Transmission
X Units: Wavelength (micrometers)
Y Units: Transmittance (percent)
wavelength	value
25.0442	53.0077
24.3388	47.2362
23.6719	35.3944
23.0407	28.5585
22.4422	24.8984
21.8741	26.6659
21.334	16.7587
20.8199	16.4189
20.33	22.5654
19.8627	24.8242
19.4163	29.9902
18.9896	35.6469
18.5812	40.3344
18.19	49.5409
17.815	56.3377
17.4551	62.0203
17.1094	65.8719
16.7772	67.6092
16.4576	69.6932
16.15	70.702
15.8537	71.4017
15.568	69.1737
15.2925	61.6668
15.0265	66.6048
14.7697	68.6717
14.5214	66.265
14.2814	68.9124
14.0492	76.4158
13.8244	79.6514
13.6067	81.6426
13.3957	83.284
13.1912	83.7696
12.9929	82.2989
12.8004	79.9131
12.6135	80.9229
12.432	83.5525
12.2557	84.9073
12.0843	85.4873
11.9176	85.0252
11.7555	83.324
11.5977	80.6446
11.444	77.9144
11.2944	76.638
11.1487	75.7908
11.0067	73.5452
10.8682	69.7606
10.7332	64.0228
10.6015	55.3675
10.473	42.2931
10.3476	26.8229
10.2251	17.3769
10.1056	16.9174
9.9887	17.3195
9.8746	11.7072
9.763	7.093
9.6539	6.5415
9.5472	10.8352
9.4429	17.6506
9.3408	18.7412
9.2409	20.4406
9.1431	27.621
9.0474	28.7817
8.9536	32.9076
8.8618	38.7978
8.7718	43.837
8.6837	48.5233
8.5973	52.0082
8.5126	52.413
8.4295	53.2191
8.3481	54.7113
8.2682	59.806
8.1898	64.5369
8.1129	68.1385
8.0374	71.0733
7.9634	73.5589
7.8906	75.4246
7.8192	76.7181
7.7491	77.7361
7.6802	78.5115
7.6126	79.2254
7.5461	79.9812
7.4807	80.427
7.4165	80.8035
7.3534	81.0144
7.2914	81.2713
7.2303	80.6307
7.1703	81.4627
7.1113	81.5227
7.0533	82.0545
6.9962	82.554
6.94	83.1736
6.8847	83.481
6.8302	83.7122
6.7767	84.052
6.7239	84.4983
6.672	84.8557
6.6209	85.1428
6.5705	85.4002
6.5209	85.6004
6.4721	85.7434
6.424	85.9492
6.3766	85.897
6.3299	85.4956
6.2838	84.3792
6.2385	80.4695
6.1937	64.7767
6.1496	61.305
6.1062	69.1151
6.0633	73.3231
6.0211	77.367
5.9794	81.3328
5.9383	83.0823
5.8978	84.0467
5.8578	84.7503
5.8184	85.4705
5.7794	85.7483
5.741	86.055
5.7031	86.4138
5.6657	86.5979
5.6288	86.7478
5.5924	86.7517
5.5564	86.742
5.5209	86.907
5.4859	87.0642
5.4513	87.2193
5.4171	87.4441
5.3833	87.3601
5.35	87.5471
5.3171	87.53
5.2846	87.6804
5.2524	87.7024
5.2207	87.801
5.1893	87.8093
5.1584	87.8635
5.1277	87.8972
5.0975	87.97
5.0676	88.0178
5.038	88.138
5.0088	88.2141
4.98	88.2403
4.9514	88.284
4.9232	88.2534
4.8953	88.2903
4.8678	88.2627
4.8405	88.1321
4.8135	88.3172
4.7868	88.2857
4.7605	88.2818
4.7344	88.3067
4.7086	88.3111
4.6831	88.3308
4.6578	88.366
4.6328	88.4317
4.6081	88.521
4.5837	88.398
4.5595	88.4146
4.5356	88.4673
4.5119	88.4368
4.4884	88.4661
4.4652	88.3801
4.4423	88.419
4.4196	88.541
4.3971	88.481
4.3748	88.5662
4.3528	88.5191
4.331	88.5383
4.3094	88.4746
4.288	88.5432
4.2668	88.5318
4.2458	88.5654
4.2251	88.6035
4.2045	88.6309
4.1841	88.6477
4.164	88.6424
4.144	88.6289
4.1242	88.6253
4.1046	88.5823
4.0852	88.5999
4.066	88.5235
4.047	88.501
4.0281	88.4822
4.0094	88.4326
3.9909	88.2932
3.9725	88.2434
3.9544	88.2727
3.9363	88.3782
3.9185	88.3484
3.9008	88.3313
3.8833	88.2363
3.8659	88.1878
3.8487	88.1477
3.8316	88.1038
3.8147	88.1211
3.7979	88.1033
3.7813	87.9961
3.7648	87.9671
3.7485	87.9151
3.7323	87.8587
3.7162	87.8145
3.7003	87.5896
3.6845	87.572
3.6689	87.5098
3.6534	87.419
3.638	87.3425
3.6227	87.1482
3.6076	87.1463
3.5926	87.0371
3.5777	86.8865
3.563	86.6717
3.5484	86.5965
3.5338	86.4854
3.5195	86.2508
3.5052	85.9466
3.491	85.8418
3.477	85.6253
3.463	85.5271
3.4492	85.3721
3.4355	85.0935
3.4219	84.8526
3.4084	84.3916
3.395	84.4158
3.3817	84.1858
3.3685	84.1416
3.3554	83.8086
3.3425	83.626
3.3296	83.2654
3.3168	82.9649
3.3041	82.74
3.2915	82.3828
3.279	81.8797
3.2666	81.4092
3.2543	80.8308
3.2421	80.4617
3.23	79.7517
3.218	79.1602
3.206	78.4893
3.1942	77.7129
3.1824	77.1346
3.1707	76.2078
3.1591	75.3689
3.1476	74.3167
3.1362	73.1795
3.1249	72.2127
3.1136	71.0887
3.1024	70.324
3.0913	69.4578
3.0803	68.6224
3.0694	68.0023
3.0585	67.1395
3.0477	66.4788
3.037	65.5531
3.0264	64.575
3.0158	63.4285
3.0053	62.2879
2.9949	61.2679
2.9845	60.0072
2.9743	58.7479
2.9641	57.7176
2.9539	56.6761
2.9439	55.8211
2.9339	55.1542
2.9239	54.8348
2.9141	54.7079
2.9043	54.8597
2.8946	54.9881
2.8849	54.93
2.8753	54.5868
2.8658	53.9593
2.8563	53.1722
2.8469	52.3773
2.8375	51.9198
2.8282	52.0433
2.819	52.5174
2.8098	53.4046
2.8007	54.7875
2.7917	56.3221
2.7827	57.5116
2.7738	58.2694
2.7649	59.1175
2.7561	60.2323
2.7473	62.661
2.7386	66.5452
2.7299	69.6346
2.7213	69.0985
2.7128	68.8104
2.7043	73.4612
2.6959	74.5862
2.6875	74.6951
2.6791	75.8729
2.6709	76.389
2.6626	76.366
2.6545	76.5882
2.6463	76.6775
2.6382	76.6932
2.6302	76.8519
2.6222	76.7049
2.6143	76.9163
2.6064	76.7879
2.5986	76.7537
2.5908	76.6639
2.583	76.7952
2.5753	76.5628
2.5677	76.4168
2.5601	76.6463
2.5525	76.4695
2.545	76.1717
2.5375	76.2547
2.5301	76.2938
2.5227	75.993
2.5154	76.1639
2.5081	76.1541
2.5008	76.0027
2.4936	75.9373
2.4864	75.8162
2.4793	75.9109
2.4722	75.7811
2.4651	75.6844
2.4581	75.7039
2.4511	75.6229
2.4442	75.2869
2.4373	75.3299
2.4305	75.2772
2.4236	75.115
2.4169	75.1697
2.4101	75.3201
2.4034	74.9783
2.3967	75.0369
2.3901	74.9998
2.3835	75.0242
2.377	74.7273
2.3704	74.8826
2.364	74.91
2.3575	74.6639
2.3511	74.9295
2.3447	74.5154
2.3384	74.5877
2.3321	74.2313
2.3258	74.3514
2.3195	74.2772
2.3133	74.3904
2.3071	74.1795
2.301	74.0838
2.2949	74.1531
2.2888	74.2156
2.2828	74.0477
2.2767	74.3289
2.2708	73.8299
2.2648	74.4119
2.2589	73.7654
2.253	74.1102
2.2471	73.8484
2.2413	73.743
2.2355	73.8172
2.2297	73.9432
2.224	73.5047
2.2183	73.8133
2.2126	73.5516
2.207	73.8533
2.2013	73.5701
2.1957	73.5936
2.1902	73.9852
2.1846	73.5984
2.1791	73.3787
2.1736	73.8123
2.1682	73.7752
2.1628	73.494
2.1574	73.7166
2.152	73.6365
2.1466	72.9627
2.1413	73.3631
2.136	74.0115
2.1308	73.6561
2.1255	73.6424
2.1203	73.3768
2.1151	73.6404
2.11	73.5643
2.1048	73.4471
2.0997	73.7049
2.0946	73.8357
2.0895	73.2576
2.0845	73.9158
2.0795	73.6287
