Name: Jadeite Na(Al,Fe+3)Si2O6
Type: Mineral
Class: Silicate
Subclass: Inosilicate
Particle Size: Coarse
Sample No.: jadeite_1
Owner: JHU
Wavelength Range: TIR
Origin: Tibet, China via the Smithsonian (sample no. NMNH B18463).
Description: The sample was a single 1 cm x 4 cm piece weighing 11.5 g. No impurities were apparent, but one edge was weathered and coated with a light tan material which was easily removed by grinding.  Under the microscope the sample appeared pure. Particle size was 74-250  micrometers.(Chain Silicates; Pyroxene Group) Original ASTER Spectral Library name was jhu.nicolet.mineral.silicate.inosilicate.coarse.jadeit1.spectrum.txt
Measurement: Bidirectional reflectance
X Units: Wavelength (micrometers)
Y Units: Reflectance (percent)
wavelength	value
25.0442	5.7778
24.3388	4.1846
23.6719	5.1037
23.0407	6.1418
22.4422	5.2344
21.8741	6.7456
21.334	8.0014
20.8199	8.635
20.33	7.2229
19.8627	7.2231
19.4163	7.7436
18.9896	8.185
18.5812	8.5886
18.19	6.6907
17.815	6.7217
17.4551	8.0432
17.1094	9.5661
16.7772	9.4045
16.4576	8.3818
16.15	6.7944
15.8537	5.4744
15.568	3.0276
15.2925	1.6985
15.0265	2.0349
14.7697	1.7136
14.5214	1.124
14.2814	1.3511
14.0492	1.5464
13.8244	1.6909
13.6067	1.863
13.3957	1.9871
13.1912	1.8347
12.9929	2.0322
12.8004	2.1177
12.6135	2.2312
12.432	2.3308
12.2557	2.4006
12.0843	2.5518
11.9176	2.7302
11.7555	3.061
11.5977	2.9001
11.444	2.813
11.2944	3.2002
11.1487	3.5915
11.0067	3.9873
10.8682	4.3354
10.7332	4.7034
10.6015	4.9409
10.473	5.189
10.3476	5.394
10.2251	5.1767
10.1056	5.1518
9.9887	5.3059
9.8746	5.6868
9.763	6.1587
9.6539	6.7873
9.5472	7.956
9.4429	8.1528
9.3408	9.9807
9.2409	10.2497
9.1431	10.4065
9.0474	10.2505
8.9536	8.7033
8.8618	7.5364
8.7718	7.0705
8.6837	6.9414
8.5973	6.811
8.5126	6.7417
8.4295	6.0398
8.3481	4.8083
8.2682	3.614
8.1898	2.6199
8.1129	1.7571
8.0374	1.0188
7.9634	0.623
7.8906	0.6089
7.8192	0.7053
7.7491	0.8079
7.6802	0.9307
7.6126	1.0203
7.5461	1.0986
7.4807	1.1885
7.4165	1.2947
7.3534	1.4011
7.2914	1.4697
7.2303	1.5022
7.1703	1.5312
7.1113	1.5542
7.0533	1.5974
6.9962	1.709
6.94	1.8135
6.8847	2.0002
6.8302	2.1719
6.7767	2.2776
6.7239	2.3413
6.672	2.3303
6.6209	2.3049
6.5705	2.2339
6.5209	2.208
6.4721	2.2725
6.424	2.2844
6.3766	2.2861
6.3299	2.3845
6.2838	2.4988
6.2385	2.5764
6.1937	2.5789
6.1496	2.3777
6.1062	2.3547
6.0633	2.3337
6.0211	2.228
5.9794	2.2991
5.9383	2.4822
5.8978	2.5837
5.8578	2.5439
5.8184	2.3506
5.7794	2.0073
5.741	1.7375
5.7031	1.6865
5.6657	1.7229
5.6288	1.7803
5.5924	1.8035
5.5564	1.9272
5.5209	2.009
5.4859	2.0261
5.4513	2.1584
5.4171	2.55
5.3833	3.1028
5.35	3.5117
5.3171	3.8345
5.2846	3.8935
5.2524	3.9082
5.2207	3.978
5.1893	4.0786
5.1584	4.1841
5.1277	4.1057
5.0975	4.0449
5.0676	4.154
5.038	4.1706
5.0088	4.1872
4.98	4.1843
4.9514	4.2204
4.9232	4.281
4.8953	4.5542
4.8678	5.0774
4.8405	5.4619
4.8135	5.5596
4.7868	5.5959
4.7605	5.9609
4.7344	6.5268
4.7086	6.7226
4.6831	6.7314
4.6578	6.6387
4.6328	6.5998
4.6081	6.9509
4.5837	7.5256
4.5595	8.4436
4.5356	9.4419
4.5119	10.395
4.4884	11.1604
4.4652	11.6003
4.4423	11.9265
4.4196	12.2683
4.3971	12.5571
4.3748	12.7256
4.3528	12.8464
4.331	12.9467
4.3094	13.0153
4.288	13.0778
4.2668	13.1499
4.2458	13.198
4.2251	13.2212
4.2045	13.2402
4.1841	13.2732
4.164	13.2944
4.144	13.3039
4.1242	13.3086
4.1046	13.3208
4.0852	13.3498
4.066	13.3733
4.047	13.3825
4.0281	13.4067
4.0094	13.4096
3.9909	13.438
3.9725	13.5127
3.9544	13.6069
3.9363	13.7031
3.9185	13.7793
3.9008	13.8476
3.8833	13.8781
3.8659	13.9096
3.8487	13.9616
3.8316	14.0388
3.8147	14.114
3.7979	14.1755
3.7813	14.2226
3.7648	14.2536
3.7485	14.2722
3.7323	14.2758
3.7162	14.2605
3.7003	14.2353
3.6845	14.2487
3.6689	14.259
3.6534	14.279
3.638	14.2912
3.6227	14.2964
3.6076	14.3071
3.5926	14.3291
3.5777	14.3208
3.563	14.3283
3.5484	14.3171
3.5338	14.3005
3.5195	14.2861
3.5052	14.2434
3.491	14.218
3.477	14.2163
3.463	14.228
3.4492	14.1994
3.4355	14.1369
3.4219	14.0805
3.4084	14.0158
3.395	14.019
3.3817	14.0224
3.3685	14.0009
3.3554	13.9907
3.3425	13.9641
3.3296	13.9204
3.3168	13.8469
3.3041	13.811
3.2915	13.7617
3.279	13.7002
3.2666	13.6479
3.2543	13.6069
3.2421	13.54
3.23	13.5039
3.218	13.4389
3.206	13.3764
3.1942	13.2766
3.1824	13.1804
3.1707	13.0551
3.1591	12.9214
3.1476	12.8029
3.1362	12.7165
3.1249	12.6657
3.1136	12.5918
3.1024	12.4953
3.0913	12.4079
3.0803	12.3359
3.0694	12.2336
3.0585	12.1115
3.0477	11.9904
3.037	11.8042
3.0264	11.5649
3.0158	11.2475
3.0053	11.105
2.9949	11.2109
2.9845	11.289
2.9743	11.2661
2.9641	11.1762
2.9539	11.0049
2.9439	10.8513
2.9339	10.6653
2.9239	10.4868
2.9141	10.2585
2.9043	10.0337
2.8946	9.7785
2.8849	9.5263
2.8753	9.3161
2.8658	9.1499
2.8563	8.9812
2.8469	8.6968
2.8375	8.2217
2.8282	7.6802
2.819	7.4678
2.8098	7.707
2.8007	8.1853
2.7917	8.3948
2.7827	8.3525
2.7738	8.1242
2.7649	7.9221
2.7561	8.4978
2.7473	9.7727
2.7386	11.2505
2.7299	12.1794
2.7213	12.6438
2.7128	13.0949
2.7043	13.5078
2.6959	14.0805
2.6875	14.6352
2.6791	14.937
2.6709	15.0932
2.6626	15.2729
2.6545	15.3669
2.6463	15.4172
2.6382	15.4917
2.6302	15.4985
2.6222	15.5844
2.6143	15.603
2.6064	15.5622
2.5986	15.6181
2.5908	15.5986
2.583	15.551
2.5753	15.5698
2.5677	15.53
2.5601	15.4824
2.5525	15.4692
2.545	15.4284
2.5375	15.415
2.5301	15.4389
2.5227	15.4433
2.5154	15.4741
2.5081	15.4931
2.5008	15.4956
2.4936	15.4848
2.4864	15.5009
2.4793	15.5571
2.4722	15.5944
2.4651	15.5351
2.4581	15.6469
2.4511	15.7036
2.4442	15.7041
2.4373	15.7524
2.4305	15.7578
2.4236	15.7683
2.4169	15.8112
2.4101	15.8955
2.4034	15.832
2.3967	15.8332
2.3901	15.8357
2.3835	15.8593
2.377	15.8481
2.3704	15.8413
2.364	15.8808
2.3575	15.8535
2.3511	15.8178
2.3447	15.8144
2.3384	15.7778
2.3321	15.788
2.3258	15.7861
2.3195	15.8144
2.3133	15.7631
2.3071	15.7563
2.301	15.7651
2.2949	15.7426
2.2888	15.7941
2.2828	15.7426
2.2767	15.7668
2.2708	15.7109
2.2648	15.749
2.2589	15.7461
2.253	15.7407
2.2471	15.6787
2.2413	15.6958
2.2355	15.7275
2.2297	15.6909
2.224	15.6816
2.2183	15.7158
2.2126	15.6591
2.207	15.601
2.2013	15.604
2.1957	15.6477
2.1902	15.6113
2.1846	15.6562
2.1791	15.6721
2.1736	15.6953
2.1682	15.6982
2.1628	15.771
2.1574	15.7522
2.152	15.6691
2.1466	15.6447
2.1413	15.6933
2.136	15.7949
2.1308	15.7368
2.1255	15.7395
2.1203	15.802
2.1151	15.7395
2.11	15.7734
2.1048	15.789
2.0997	15.7461
2.0946	15.8554
2.0895	15.8466
2.0845	15.8566
2.0795	15.7805
