Name: Illite/smectite (K,H3O)(Al,Mg,Fe)2(Si,Al)4 O10 [(OH)2,H2O]
Type: Mineral
Class: Silicate
Subclass: Phyllosilicate
Particle Size: Fine
Sample No.: illsmec_1
Owner: JHU
Wavelength Range: TIR
Origin: Cameron, Arizona; from Hunt and Salisbury Collection #31(purchased from Ward's Natural Science Establishment);
Description: The sample was a light tan, earthy clay. Called "montmorillonite" by Ward's, the bulk sample and the less than 2 micrometers particle-size separate are pure illite/smectite, with 35% illite layers. Particle size was Less than 2  Micrometer.(Sheet Silicates) (Mica Group) Original ASTER Spectral Library name was jhu.nicolet.mineral.silicate.phyllosilicate.fine.illsme1t.spectrum.txt
Measurement: Transmission
X Units: Wavelength (micrometers)
Y Units: Transmittence (percent)
wavelength	value
25.0442	68.2186
24.3388	58.9413
23.6719	48.953
23.0407	51.5878
22.4422	50.8358
21.8741	42.8593
21.334	34.121
20.8199	42.5507
20.33	51.9784
19.8627	48.7928
19.4163	42.0116
18.9896	40.6366
18.5812	45.0165
18.19	50.8007
17.815	55.5204
17.4551	61.036
17.1094	66.6346
16.7772	71.6678
16.4576	75.4764
16.15	78.0467
15.8537	79.9998
15.568	82.2283
15.2925	83.1795
15.0265	83.1629
14.7697	83.3133
14.5214	83.2469
14.2814	83.6668
14.0492	85.0623
13.8244	85.8513
13.6067	86.1604
13.3957	85.3303
13.1912	84.826
12.9929	84.4475
12.8004	82.3811
12.6135	82.9729
12.432	81.3421
12.2557	82.7889
12.0843	82.7029
11.9176	82.7854
11.7555	82.0642
11.5977	78.2459
11.444	74.1468
11.2944	72.6722
11.1487	70.3494
11.0067	64.8856
10.8682	62.8226
10.7332	62.5824
10.6015	62.0897
10.473	59.1932
10.3476	52.1942
10.2251	41.9647
10.1056	32.0531
9.9887	24.9589
9.8746	21.0014
9.763	19.311
9.6539	19.4926
9.5472	22.309
9.4429	27.0766
9.3408	32.9609
9.2409	37.9306
9.1431	40.3358
9.0474	41.6522
8.9536	44.6893
8.8618	49.4188
8.7718	54.5555
8.6837	59.5301
8.5973	63.4618
8.5126	67.0711
8.4295	71.6209
8.3481	76.0713
8.2682	79.824
8.1898	82.7615
8.1129	84.7715
8.0374	86.2949
7.9634	87.3887
7.8906	88.2937
7.8192	89.0037
7.7491	89.7127
7.6802	90.2998
7.6126	90.822
7.5461	91.3731
7.4807	91.8984
7.4165	92.2019
7.3534	92.6111
7.2914	92.9971
7.2303	93.2891
7.1703	93.2344
7.1113	93.5017
7.0533	93.8884
6.9962	94.0222
6.94	94.1809
6.8847	94.3897
6.8302	94.5713
6.7767	94.6826
6.7239	94.8689
6.672	95.0625
6.6209	95.1873
6.5705	95.4343
6.5209	95.4766
6.4721	95.5862
6.424	95.6296
6.3766	95.4822
6.3299	95.2422
6.2838	94.9678
6.2385	94.5352
6.1937	93.5593
6.1496	92.5452
6.1062	92.8731
6.0633	93.5994
6.0211	94.1941
5.9794	94.7976
5.9383	95.4785
5.8978	95.8789
5.8578	96.1047
5.8184	96.3464
5.7794	96.4355
5.741	96.6709
5.7031	96.7568
5.6657	96.7737
5.6288	96.8757
5.5924	96.8269
5.5564	96.906
5.5209	96.8711
5.4859	96.9109
5.4513	97.0312
5.4171	97.123
5.3833	97.0867
5.35	97.2344
5.3171	97.3535
5.2846	97.4727
5.2524	97.6199
5.2207	97.7393
5.1893	97.8347
5.1584	97.9695
5.1277	98.0671
5.0975	98.1728
5.0676	98.2205
5.038	98.2776
5.0088	98.3772
4.98	98.4924
4.9514	98.5603
4.9232	98.5871
4.8953	98.6677
4.8678	98.6799
4.8405	98.7732
4.8135	98.7903
4.7868	98.8513
4.7605	98.8601
4.7344	98.9221
4.7086	98.9119
4.6831	98.9675
4.6578	99.0212
4.6328	99.092
4.6081	99.1033
4.5837	99.2043
4.5595	99.2361
4.5356	99.26
4.5119	99.2873
4.4884	99.364
4.4652	99.4158
4.4423	99.4294
4.4196	99.5178
4.3971	99.594
4.3748	99.7038
4.3528	99.7214
4.331	99.7302
4.3094	99.7756
4.288	99.8108
4.2668	99.865
4.2458	99.9763
4.2251	100.008
4.2045	99.9626
4.1841	100.032
4.164	100.113
4.144	100.115
4.1242	100.178
4.1046	100.222
4.0852	100.254
4.066	100.289
4.047	100.275
4.0281	100.358
4.0094	100.355
3.9909	100.346
3.9725	100.453
3.9544	100.559
3.9363	100.549
3.9185	100.642
3.9008	100.649
3.8833	100.623
3.8659	100.652
3.8487	100.746
3.8316	100.729
3.8147	100.775
3.7979	100.855
3.7813	100.886
3.7648	100.834
3.7485	100.901
3.7323	100.894
3.7162	100.886
3.7003	100.861
3.6845	100.903
3.6689	100.931
3.6534	100.943
3.638	100.926
3.6227	100.944
3.6076	100.904
3.5926	100.974
3.5777	100.928
3.563	100.924
3.5484	100.964
3.5338	100.982
3.5195	101.127
3.5052	101.435
3.491	101.312
3.477	101.189
3.463	101.106
3.4492	101.261
3.4355	101.379
3.4219	101.816
3.4084	101.428
3.395	101.087
3.3817	100.947
3.3685	100.709
3.3554	100.469
3.3425	100.337
3.3296	100.241
3.3168	100.14
3.3041	100.041
3.2915	99.9495
3.279	99.8962
3.2666	99.7859
3.2543	99.6052
3.2421	99.5163
3.23	99.3484
3.218	99.0935
3.206	98.9304
3.1942	98.6619
3.1824	98.4861
3.1707	98.2664
3.1591	98.0124
3.1476	97.7351
3.1362	97.4656
3.1249	97.2859
3.1136	97.0232
3.1024	96.6814
3.0913	96.5066
3.0803	96.3416
3.0694	96.3132
3.0585	96.0759
3.0477	95.9119
3.037	95.4939
3.0264	95.2712
3.0158	94.8923
3.0053	94.5603
2.9949	94.2781
2.9845	94.1609
2.9743	93.8728
2.9641	93.4841
2.9539	93.4109
2.9439	93.3757
2.9339	93.2185
2.9239	93.2039
2.9141	93.2742
2.9043	93.4617
2.8946	93.6091
2.8849	93.8552
2.8753	94.0671
2.8658	94.2146
2.8563	94.4822
2.8469	94.7498
2.8375	94.907
2.8282	94.7039
2.819	94.1013
2.8098	93.0857
2.8007	91.7498
2.7917	90.1677
2.7827	88.5955
2.7738	87.2976
2.7649	86.4021
2.7561	86.4217
2.7473	87.8523
2.7386	90.1716
2.7299	92.8484
2.7213	95.7224
2.7128	98.1287
2.7043	99.4148
2.6959	100.981
2.6875	102.339
2.6791	102.734
2.6709	103.091
2.6626	103.242
2.6545	103.313
2.6463	103.355
2.6382	103.49
2.6302	103.449
2.6222	103.552
2.6143	103.679
2.6064	103.753
2.5986	103.872
2.5908	104.167
2.583	104.218
2.5753	104.036
2.5677	104.132
2.5601	104.284
2.5525	104.191
2.545	104.267
2.5375	104.386
2.5301	104.298
2.5227	104.238
2.5154	104.511
2.5081	104.55
2.5008	104.587
2.4936	104.603
2.4864	104.683
2.4793	104.868
2.4722	104.814
2.4651	104.909
2.4581	104.97
2.4511	105.058
2.4442	104.923
2.4373	105.21
2.4305	105.181
2.4236	105.128
2.4169	105.179
2.4101	105.445
2.4034	105.421
2.3967	105.486
2.3901	105.495
2.3835	105.697
2.377	105.79
2.3704	105.939
2.364	105.954
2.3575	105.698
2.3511	105.968
2.3447	106.046
2.3384	106.251
2.3321	106.159
2.3258	106.259
2.3195	106.439
2.3133	106.501
2.3071	106.484
2.301	106.392
2.2949	106.751
2.2888	106.835
2.2828	106.749
2.2767	106.939
2.2708	107.167
2.2648	107.007
2.2589	107.027
2.253	107.378
2.2471	107.156
2.2413	107.281
2.2355	107.566
2.2297	107.284
2.224	107.206
2.2183	107.687
2.2126	107.577
2.207	107.816
2.2013	107.968
2.1957	107.839
2.1902	108.331
2.1846	108.331
2.1791	108.402
2.1736	108.585
2.1682	108.499
2.1628	108.734
2.1574	108.448
2.152	109.136
2.1466	108.902
2.1413	108.718
2.136	108.89
2.1308	109.3
2.1255	108.937
2.1203	109.265
2.1151	109.445
2.11	109.359
2.1048	109.531
2.0997	109.89
2.0946	109.851
2.0895	110.14
2.0845	110.253
2.0795	109.538
