Name: Oligoclase (Feldspar) (NaSi,CaAl)AlSi_2O_8
Type: Mineral
Class: Silicate
Subclass: Tectosilicate
Particle Size: Medium
Sample No.: TS-3A
Owner: JPL
Wavelength Range: TIR
Origin: N/A
Description: Oligoclase. Particle size was 45-125um.Collected by JPL Original ASTER Spectral Library name was jpl.nicolet.mineral.silicate.tectosilicate.medium.ts03a.spectrum.txt
Measurement: Hemispherical reflectance
X Units: Wavelength (micrometers)
Y Units: Reflectance (percent)
wavelength	value
15.3853	4.56
15.1161	1.9046
14.8563	1.4877
14.6052	1.7571
14.3624	2.1671
14.1276	2.5034
13.9004	3.0226
13.6803	2.9426
13.4671	3.0682
13.2604	3.151
13.06	2.4658
12.8656	2.6475
12.6769	2.4565
12.4936	2.054
12.3155	2.4681
12.1425	3.4775
11.9742	3.8707
11.8106	3.9981
11.6513	4.0496
11.4963	4.5055
11.3454	4.5354
11.1983	5.1004
11.0551	5.6603
10.9154	6.313
10.7793	7.29
10.6465	7.8455
10.5169	8.3506
10.3904	9.1676
10.267	10.8273
10.1464	12.5528
10.0287	14.0595
9.9136	15.3304
9.8012	15.2327
9.6913	15.1424
9.5838	13.6381
9.4787	10.5647
9.3758	8.5909
9.2752	8.2018
9.1767	8.5734
9.0803	8.9705
8.9858	9.6695
8.8934	10.5894
8.8028	11.4135
8.714	11.9138
8.627	11.7639
8.5417	11.7317
8.4581	11.6995
8.3761	11.4105
8.2957	9.5704
8.2169	5.6313
8.1395	2.3781
8.0635	1.0072
7.989	0.4501
7.9158	0.1356
7.8439	0.19
7.7734	0.1595
7.7041	0.1811
7.636	0.255
7.5691	0.4919
7.5034	0.5577
7.4388	0.7369
7.3753	0.9544
7.3129	0.9648
7.2515	1.355
7.1912	1.4348
7.1318	1.6819
7.0734	2.0521
7.016	2.2077
6.9595	2.4372
6.9039	2.6802
6.8492	2.7517
6.7953	3.0419
6.7423	3.1516
6.6901	3.2454
6.6387	3.3807
6.5881	3.4435
6.5382	3.6128
6.4892	3.8594
6.4408	3.8321
6.3931	3.8384
6.3462	3.7995
6.2999	3.736
6.2543	3.6309
6.2094	3.679
6.1651	3.7462
6.1214	3.9061
6.0784	4.0212
6.0359	4.0213
5.994	4.163
5.9527	4.2558
5.912	4.2275
5.8718	4.3752
5.8322	4.4605
5.7931	4.3235
5.7545	4.4193
5.7165	4.6143
5.6789	4.5351
5.6418	4.7387
5.6052	4.9076
5.5691	5.1582
5.5334	5.5834
5.4982	6.2679
5.4635	6.9868
5.4291	7.6958
5.3952	8.4694
5.3618	9.1681
5.3287	9.6692
5.2961	9.9565
5.2638	10.2938
5.2319	10.6248
5.2004	11.3836
5.1693	12.3725
5.1386	13.2354
5.1082	14.4015
5.0782	15.8098
5.0485	17.0802
5.0192	18.2033
4.9902	19.3012
4.9616	20.207
4.9332	20.869
4.9052	21.1044
4.8776	21.599
4.8502	22.3031
4.8231	22.615
4.7963	22.9532
4.7699	23.2531
4.7437	23.9247
4.7178	24.7733
4.6922	25.7114
4.6668	26.7877
4.6418	28.0046
4.617	29.5288
4.5924	31.3953
4.5681	33.1671
4.5441	35.0598
4.5203	36.9029
4.4968	38.8473
4.4735	40.7171
4.4505	42.5801
4.4277	44.3597
4.4051	45.9093
4.3828	47.6137
4.3607	49.5344
4.3388	51.3123
4.3171	53.3601
4.2956	55.2331
4.2744	56.9582
4.2534	58.4123
4.2325	60.1917
4.2119	61.3497
4.1915	62.3151
4.1712	63.2505
4.1512	64.0456
4.1313	64.7152
4.1117	65.1837
4.0922	65.6233
4.0729	65.9488
4.0538	66.2605
4.0349	66.2825
4.0161	66.4809
3.9976	66.7348
3.9792	66.9348
3.9609	67.219
3.9428	67.6089
3.9249	67.9971
3.9072	68.3587
3.8896	68.4748
3.8722	68.6609
3.8549	68.8787
3.8378	69.1146
3.8208	69.3697
3.804	69.6268
3.7873	69.7898
3.7708	69.9402
3.7544	69.9254
3.7382	70.0824
3.7221	70.008
3.7061	69.9695
3.6903	69.7959
3.6746	69.7375
3.659	69.5202
3.6436	69.3985
3.6283	68.9759
3.6131	68.6723
3.5981	68.272
3.5832	67.8134
3.5684	67.2844
3.5537	66.5436
3.5391	65.8426
3.5247	64.9879
3.5104	63.7574
3.4962	62.8728
3.4821	62.127
3.4681	61.3484
3.4543	60.6407
3.4405	59.59
3.4269	58.3208
3.4133	57.128
3.3999	56.1892
3.3866	55.4468
3.3733	54.3241
3.3602	53.4233
3.3472	52.3984
3.3343	51.4354
3.3215	50.2554
3.3088	49.0987
3.2961	47.8298
3.2836	46.6669
3.2712	45.2498
3.2588	43.9255
3.2466	42.5708
3.2345	41.1897
3.2224	39.7727
3.2104	38.1737
3.1985	36.6751
3.1867	35.0394
3.175	33.6711
3.1634	32.2329
3.1519	30.8794
3.1404	29.8251
3.129	28.7439
3.1178	27.7346
3.1065	26.7795
3.0954	25.9803
3.0844	25.2746
3.0734	24.7744
3.0625	24.2174
3.0517	23.8232
3.041	23.2284
3.0303	22.5263
3.0197	21.7496
3.0092	20.7629
2.9987	20.3396
2.9884	20.0977
2.9781	19.7784
2.9678	19.507
2.9577	19.4077
2.9476	19.2015
2.9376	19.1625
2.9276	19.1118
2.9177	19.3104
2.9079	19.5128
2.8982	19.6705
2.8885	20.2535
2.8789	20.4328
2.8693	20.9908
2.8598	21.5153
2.8504	22.2024
2.841	23.445
2.8317	24.5295
2.8224	25.5204
2.8133	26.6441
2.8041	27.9033
2.7951	29.2422
2.786	30.0968
2.7771	30.1489
2.7682	29.3417
2.7594	29.171
2.7506	30.695
2.7418	33.7897
2.7332	36.9774
2.7246	43.2212
2.716	51.7132
2.7075	59.568
2.699	64.4738
2.6906	68.5432
2.6823	71.2431
2.674	73.0291
2.6657	74.9835
2.6575	75.1259
2.6494	75.8658
2.6413	76.506
2.6332	76.9794
2.6252	77.1675
2.6173	77.7666
2.6094	77.8287
2.6015	78.0231
2.5937	78.7849
2.5859	78.5251
2.5782	78.4675
2.5706	78.7741
2.5629	79.1884
2.5554	78.7761
2.5478	79.1294
2.5403	79.0457
2.5329	79.1898
2.5255	79.1948
2.5181	79.2366
2.5108	79.1822
2.5035	79.3658
2.4963	79.376
2.4891	79.3035
2.482	79.3705
2.4749	79.2628
2.4678	79.3918
2.4608	79.6604
2.4538	79.8672
2.4468	79.8817
2.4399	79.9873
2.4331	80.0614
2.4262	80.53
2.4194	80.6836
2.4127	80.9724
2.4059	81.3635
2.3993	81.5037
2.3926	81.4497
2.386	81.5877
2.3795	81.3571
2.3729	81.038
2.3664	80.381
2.36	79.666
2.3535	79.6426
2.3471	80.1299
2.3408	80.5594
2.3345	81.0173
2.3282	81.7307
2.3219	82.3487
2.3157	82.8969
2.3095	83.3022
2.3034	83.5728
2.2972	83.797
2.2911	83.9538
2.2851	84.048
2.279	84.0729
2.2731	84.4067
2.2671	84.1436
2.2612	84.04
2.2553	84.1013
2.2494	84.2508
2.2435	84.4475
2.2377	84.6727
2.232	84.4581
2.2262	84.2728
2.2205	84.2527
2.2148	83.7925
2.2091	83.3524
2.2035	82.5765
2.1979	82.3485
2.1923	82.5781
2.1868	83.2588
2.1812	83.7574
2.1758	84.2911
2.1703	84.9224
2.1649	85.0791
2.1595	84.7836
2.1541	85.2637
2.1487	85.1919
2.1434	85.125
2.1381	85.4624
2.1328	85.2503
2.1275	85.4255
2.1223	85.1329
2.1171	85.3187
2.112	85.1623
2.1068	85.2257
2.1017	85.1703
2.0966	85.5104
2.0915	84.9097
2.0865	84.8732
2.0814	85.1479
2.0764	85.1269
2.0715	85.1638
2.0665	84.9672
2.0616	84.9326
2.0567	84.5507
2.0518	84.5959
2.0469	84.6518
2.0421	84.1684
2.0373	84.1829
2.0325	84.2594
2.0277	83.9196
2.0229	83.9655
2.0182	83.6192
2.0135	83.7353
2.0088	83.255
2.0042	83.041
