Name: Albite (Feldspar) (K,Na)AlSi_3O_8
Type: Mineral
Class: Silicate
Subclass: Tectosilicate
Particle Size: Coarse
Sample No.: TS-6A
Owner: JPL
Wavelength Range: VSWIR
Origin: Unknown.
Description: Particle size was 125-500um. Collected by:  JPL Original ASTER Spectral Library name was jpl.perkin.mineral.silicate.tectosilicate.coarse.ts06a.spectrum.txt
Measurement: Hemispherical reflectance
X Units: Wavelength (micrometers)
Y Units: Reflectance (percent)
wavelength	value
2.5	57.5609
2.494	57.4489
2.488	57.6907
2.482	57.8616
2.476	57.9193
2.47	57.879
2.464	58.1096
2.458	58.2655
2.452	58.3015
2.446	58.3314
2.44	58.6199
2.434	58.7944
2.428	59.2219
2.422	59.7697
2.416	60.3261
2.41	61.0377
2.404	61.5073
2.398	61.9034
2.392	62.2446
2.386	62.5304
2.38	62.74
2.374	62.9471
2.368	63.0018
2.362	63.0479
2.356	62.9089
2.35	62.8872
2.344	62.9684
2.338	63.3018
2.332	63.7646
2.326	64.3612
2.32	65.0093
2.314	65.5769
2.308	66.1936
2.302	66.739
2.296	67.2203
2.29	67.5747
2.284	67.8118
2.278	67.9851
2.272	68.0956
2.266	68.057
2.26	67.9179
2.254	67.7705
2.248	67.5679
2.242	67.6031
2.236	67.3691
2.23	67.0944
2.224	66.4987
2.218	65.6751
2.212	64.5763
2.206	63.397
2.2	62.7146
2.194	62.8646
2.188	63.8743
2.182	65.3791
2.176	66.8075
2.17	68.0409
2.164	69.0529
2.158	69.768
2.152	70.3677
2.146	70.6509
2.14	70.8291
2.134	70.7364
2.128	70.5141
2.122	70.2926
2.116	70.0597
2.11	69.8289
2.104	69.5763
2.098	69.5556
2.092	69.6349
2.086	69.7519
2.08	69.7709
2.074	69.7857
2.068	69.7538
2.062	69.7316
2.056	69.7306
2.05	69.5811
2.044	69.5343
2.038	69.2636
2.032	69.1787
2.026	68.97
2.02	68.7017
2.014	68.356
2.008	68.1126
2.002	67.7697
1.996	67.4503
1.99	66.9887
1.984	66.7135
1.978	66.3651
1.972	65.9375
1.966	65.6826
1.96	65.3712
1.954	65.1971
1.948	64.8378
1.942	64.4211
1.936	64.0699
1.93	63.6688
1.924	62.9916
1.918	62.4142
1.912	62.1049
1.906	62.6294
1.9	64.3692
1.894	66.4818
1.888	68.069
1.882	69.1485
1.876	69.7868
1.87	70.1967
1.864	70.4475
1.858	70.5455
1.852	70.5822
1.846	70.6034
1.84	70.6035
1.834	70.5797
1.828	70.5129
1.822	70.5584
1.816	70.5045
1.81	70.3843
1.804	70.4604
1.798	70.4504
1.792	70.3411
1.786	70.2781
1.78	70.289
1.774	70.1513
1.768	70.152
1.762	70.185
1.756	70.1449
1.75	70.0695
1.744	70.1013
1.738	70.1278
1.732	70.0472
1.726	70.0739
1.72	70.0318
1.714	69.9387
1.708	69.9143
1.702	69.7987
1.696	69.7797
1.69	69.7165
1.684	69.7075
1.678	69.682
1.672	69.4682
1.666	69.4523
1.66	69.3986
1.654	69.3734
1.648	69.1707
1.642	69.2232
1.636	68.9864
1.63	68.9455
1.624	68.8685
1.618	68.7478
1.612	68.6297
1.606	68.5229
1.6	68.3493
1.594	68.1565
1.588	67.9945
1.582	67.8378
1.576	67.7023
1.57	67.5207
1.564	67.293
1.558	67.0345
1.552	66.8246
1.546	66.6231
1.54	66.4856
1.534	66.185
1.528	65.9042
1.522	65.7234
1.516	65.4197
1.51	65.1531
1.504	64.8798
1.498	64.5598
1.492	64.3527
1.486	63.9757
1.48	63.7548
1.474	63.3254
1.468	63.0004
1.462	62.7256
1.456	62.6125
1.45	62.2696
1.444	61.9588
1.438	61.5769
1.432	61.1519
1.426	60.4591
1.42	59.3332
1.414	57.8787
1.408	57.8633
1.402	58.5086
1.396	59.5434
1.39	60.527
1.384	61.0156
1.378	60.954
1.372	60.8962
1.366	60.7724
1.36	60.7104
1.354	60.6275
1.348	60.486
1.342	60.364
1.336	60.2551
1.33	60.2209
1.324	60.1736
1.318	60.1088
1.312	59.9668
1.306	60.0104
1.3	59.9587
1.294	59.954
1.288	59.974
1.282	59.9705
1.276	59.9875
1.27	59.9654
1.264	60.0177
1.258	60.052
1.252	60.1613
1.246	60.2521
1.24	60.2654
1.234	60.3803
1.228	60.4269
1.222	60.5614
1.216	60.7361
1.21	60.8856
1.204	60.949
1.198	61.1714
1.192	61.2348
1.186	61.5523
1.18	61.7034
1.174	61.8828
1.168	62.0719
1.162	62.3131
1.156	62.4777
1.15	62.8186
1.144	63.0577
1.138	63.3143
1.132	63.6033
1.126	63.9134
1.12	64.1559
1.114	64.4638
1.108	64.7869
1.102	65.1142
1.096	65.376
1.09	65.6748
1.084	65.9234
1.078	66.2301
1.072	66.5077
1.066	66.7648
1.06	67.0499
1.054	67.4868
1.048	67.6653
1.042	67.9848
1.036	68.2228
1.03	68.3934
1.024	68.8199
1.018	68.9961
1.012	69.263
1.006	69.5017
1	69.6817
0.994	69.8999
0.988	70.0153
0.982	70.1885
0.976	70.2645
0.97	70.4147
0.964	70.5104
0.958	70.6364
0.952	70.7957
0.946	70.9134
0.94	70.9889
0.934	71.0307
0.928	71.035
0.922	71.1681
0.916	71.1642
0.91	71.1798
0.904	71.1835
0.898	71.2783
0.892	71.1997
0.886	71.2944
0.88	71.3268
0.874	71.3064
0.868	71.3732
0.862	71.4236
0.856	71.6098
0.85	71.7665
0.844	71.6536
0.838	71.6895
0.832	71.7348
0.826	71.8127
0.82	71.8121
0.814	71.816
0.808	71.8751
0.802	71.8568
0.796	71.8609
0.79	71.814
0.784	71.8293
0.778	71.6852
0.772	71.6626
0.766	71.6369
0.76	71.5738
0.754	71.5536
0.748	71.482
0.742	71.3845
0.736	71.3276
0.73	71.2691
0.724	71.2193
0.718	71.1637
0.712	71.1067
0.706	71.0744
0.7	71.0108
0.694	70.9903
0.688	70.914
0.682	70.8812
0.676	70.8402
0.67	70.7919
0.664	70.755
0.658	70.7346
0.652	70.6785
0.646	70.6128
0.64	70.6012
0.634	70.5449
0.628	70.4901
0.622	70.4543
0.616	70.3929
0.61	70.3104
0.604	70.2411
0.598	70.1917
0.592	70.149
0.586	70.0539
0.58	69.9662
0.574	69.8558
0.568	69.7438
0.562	69.627
0.556	69.44
0.55	69.2556
0.544	69.0311
0.538	68.7872
0.532	68.5013
0.526	68.1982
0.52	67.8455
0.514	67.4054
0.508	66.9376
0.502	66.432
0.496	65.8822
0.49	65.4088
0.484	64.8554
0.478	64.3813
0.472	63.9046
0.466	63.4335
0.46	62.9369
0.454	62.2518
0.448	61.4497
0.442	60.5615
0.436	59.5945
0.43	58.5608
0.424	57.5992
0.418	56.7949
0.412	56.1564
0.406	55.4116
0.4	54.5601
