Name: Gypsum CaSO_4.2H_2O
Type: Mineral
Class: Sulfate
Subclass: None
Particle Size: Fine
Sample No.: SO-2B
Owner: JPL
Wavelength Range: VSWIR
Origin: USA, Utah.
Description: Particle size was 0-45um. Collected by:  Ward's Original ASTER Spectral Library name was jpl.perkin.mineral.sulfate.none.fine.so02b.spectrum.txt
Measurement: Hemispherical reflectance
X Units: Wavelength (micrometers)
Y Units: Reflectance (percent)
wavelength	value
2.5	32.3668
2.494	31.8989
2.488	31.8111
2.482	31.7526
2.476	31.9678
2.47	32.4391
2.464	33.0257
2.458	33.6745
2.452	34.2649
2.446	34.691
2.44	35.0163
2.434	35.282
2.428	35.7226
2.422	36.3689
2.416	37.2752
2.41	38.6484
2.404	40.4439
2.398	42.663
2.392	45.0362
2.386	47.4914
2.38	49.755
2.374	51.7406
2.368	53.4038
2.362	54.9132
2.356	56.1461
2.35	57.1999
2.344	57.9663
2.338	58.768
2.332	59.3447
2.326	59.7519
2.32	59.9512
2.314	60.1128
2.308	60.1097
2.302	60.0334
2.296	59.8751
2.29	59.5536
2.284	58.8927
2.278	58.0702
2.272	57.2064
2.266	56.8644
2.26	57.1011
2.254	57.5568
2.248	57.8219
2.242	57.7585
2.236	57.3545
2.23	56.5342
2.224	55.4091
2.218	54.5454
2.212	54.7606
2.206	55.5955
2.2	56.4696
2.194	57.0984
2.188	57.7162
2.182	57.9006
2.176	58.2336
2.17	58.746
2.164	59.4921
2.158	60.3277
2.152	61.1064
2.146	61.7623
2.14	62.3996
2.134	62.8355
2.128	63.2525
2.122	63.7534
2.116	64.2089
2.11	64.7162
2.104	65.2783
2.098	65.8248
2.092	66.4511
2.086	66.9364
2.08	67.2313
2.074	67.3722
2.068	67.3523
2.062	67.4881
2.056	67.6903
2.05	67.6686
2.044	67.2823
2.038	66.7352
2.032	65.9114
2.026	64.818
2.02	63.4568
2.014	61.3968
2.008	58.5049
2.002	54.4181
1.996	49.0869
1.99	44.3996
1.984	41.8315
1.978	40.1443
1.972	38.8926
1.966	38.1594
1.96	36.1513
1.954	32.1095
1.948	29.3161
1.942	28.8859
1.936	30.4338
1.93	34.3516
1.924	39.5201
1.918	44.2863
1.912	48.451
1.906	52.443
1.9	56.4628
1.894	60.1078
1.888	63.6618
1.882	67.1094
1.876	70.1788
1.87	73.2519
1.864	75.6888
1.858	77.4196
1.852	78.5962
1.846	79.3813
1.84	79.6452
1.834	79.9881
1.828	80.0067
1.822	79.8723
1.816	79.5364
1.81	79.2152
1.804	78.7349
1.798	77.9586
1.792	76.8932
1.786	75.771
1.78	74.8752
1.774	74.389
1.768	74.1787
1.762	73.6793
1.756	72.782
1.75	72.3374
1.744	72.799
1.738	74.1365
1.732	75.9769
1.726	77.8868
1.72	79.675
1.714	81.5056
1.708	83.1332
1.702	84.3254
1.696	85.283
1.69	85.905
1.684	86.183
1.678	86.6614
1.672	86.6836
1.666	86.6681
1.66	86.6255
1.654	86.3704
1.648	86.0339
1.642	85.6816
1.636	85.1665
1.63	84.8372
1.624	84.3075
1.618	83.9301
1.612	83.4088
1.606	82.789
1.6	82.0954
1.594	81.3899
1.588	80.8025
1.582	80.0828
1.576	79.434
1.57	78.6531
1.564	77.6793
1.558	76.4538
1.552	74.9451
1.546	73.3509
1.54	72.3868
1.534	72.4499
1.528	73.0346
1.522	73.3995
1.516	73.4275
1.51	72.9946
1.504	71.6386
1.498	69.559
1.492	68.2744
1.486	68.9767
1.48	69.8466
1.474	69.6104
1.468	69.0437
1.462	68.2467
1.456	66.4922
1.45	63.1777
1.444	63.3
1.438	67.7739
1.432	71.1795
1.426	73.0358
1.42	75.3162
1.414	77.8373
1.408	79.7851
1.402	81.3328
1.396	82.3834
1.39	82.9375
1.384	83.1778
1.378	83.531
1.372	83.9348
1.366	84.5308
1.36	84.9255
1.354	85.5833
1.348	86.4084
1.342	87.2104
1.336	87.8002
1.33	88.3556
1.324	88.6849
1.318	89.1047
1.312	89.4738
1.306	89.6437
1.3	89.8573
1.294	89.8268
1.288	89.8912
1.282	89.9219
1.276	89.8731
1.27	89.7487
1.264	89.7258
1.258	89.6106
1.252	89.5246
1.246	89.2214
1.24	88.7445
1.234	88.3792
1.228	88.3653
1.222	88.2645
1.216	87.9378
1.21	87.4212
1.204	87.4194
1.198	87.5699
1.192	87.6826
1.186	87.6794
1.18	87.8165
1.174	88.2651
1.168	89.1048
1.162	90.1109
1.156	90.7417
1.15	91.3367
1.144	91.8031
1.138	91.933
1.132	92.1132
1.126	92.2407
1.12	92.314
1.114	92.4512
1.108	92.4872
1.102	92.7252
1.096	92.7355
1.09	92.7427
1.084	92.8387
1.078	92.919
1.072	92.8447
1.066	92.8005
1.06	92.8952
1.054	92.84
1.048	92.8745
1.042	92.7564
1.036	92.6446
1.03	92.4759
1.024	92.2759
1.018	92.1036
1.012	91.8511
1.006	91.6258
1	91.4274
0.994	91.386
0.988	91.5249
0.982	91.7033
0.976	92.0707
0.97	92.3483
0.964	92.4762
0.958	92.684
0.952	92.8643
0.946	92.9483
0.94	92.9948
0.934	93.138
0.928	93.1442
0.922	93.1999
0.916	93.1784
0.91	93.2346
0.904	93.2706
0.898	93.212
0.892	93.4405
0.886	93.3572
0.88	93.326
0.874	93.3958
0.868	93.4357
0.862	93.4566
0.856	93.3824
0.85	93.4853
0.844	93.5474
0.838	93.579
0.832	93.6993
0.826	93.7074
0.82	93.7073
0.814	93.7306
0.808	93.6886
0.802	93.6882
0.796	93.6153
0.79	93.6024
0.784	93.5456
0.778	93.5887
0.772	93.4844
0.766	93.4862
0.76	93.5109
0.754	93.5115
0.748	93.4984
0.742	93.5062
0.736	93.5218
0.73	93.5243
0.724	93.5102
0.718	93.5245
0.712	93.5114
0.706	93.5403
0.7	93.5539
0.694	93.5511
0.688	93.4976
0.682	93.5319
0.676	93.4809
0.67	93.4927
0.664	93.4642
0.658	93.4431
0.652	93.4307
0.646	93.4249
0.64	93.4264
0.634	93.3852
0.628	93.3532
0.622	93.3424
0.616	93.2913
0.61	93.298
0.604	93.2563
0.598	93.2475
0.592	93.2594
0.586	93.2009
0.58	93.1362
0.574	93.0233
0.568	92.92
0.562	92.8108
0.556	92.6969
0.55	92.5918
0.544	92.4447
0.538	92.3351
0.532	92.2222
0.526	92.1204
0.52	92.0023
0.514	91.9028
0.508	91.7649
0.502	91.6659
0.496	91.54
0.49	91.39
0.484	91.2433
0.478	91.0665
0.472	90.9221
0.466	90.7425
0.46	90.5396
0.454	90.3311
0.448	90.0996
0.442	89.8656
0.436	89.6472
0.43	89.4564
0.424	89.2639
0.418	89.1115
0.412	88.995
0.406	88.8444
0.4	88.7303
