Name: Chabazite CaAl_2Si_4O_12.6H_2O
Type: Mineral
Class: Silicate
Subclass: Tectosilicate
Particle Size: Fine
Sample No.: TS-15A
Owner: JPL
Wavelength Range: VSWIR
Origin: USA, Oregon, Grant County, Ritter Hot Springs.
Description: Particle size was 0-45um. Collected by:  Burminco Original ASTER Spectral Library name was jpl.perkin.mineral.silicate.tectosilicate.fine.ts15a.spectrum.txt
Measurement: Hemispherical reflectance
X Units: Wavelength (micrometers)
Y Units: Reflectance (percent)
wavelength	value
2.5	27.6195
2.494	27.4695
2.488	28.1889
2.482	28.6741
2.476	28.9142
2.47	29.5799
2.464	30.1017
2.458	30.7148
2.452	31.2067
2.446	31.7563
2.44	32.3949
2.434	33.0645
2.428	33.7897
2.422	34.5866
2.416	35.4221
2.41	36.3515
2.404	37.4457
2.398	38.5121
2.392	39.7341
2.386	41.0106
2.38	42.2611
2.374	43.608
2.368	44.8073
2.362	46.1513
2.356	47.3757
2.35	48.5429
2.344	49.6764
2.338	50.7026
2.332	51.6088
2.326	52.5235
2.32	53.4481
2.314	54.2443
2.308	55.0405
2.302	55.7088
2.296	56.3893
2.29	57.097
2.284	57.5411
2.278	58.0481
2.272	58.4989
2.266	58.809
2.26	59.1501
2.254	59.455
2.248	59.7588
2.242	59.7559
2.236	59.9551
2.23	60.1324
2.224	60.0938
2.218	60.2185
2.212	60.2758
2.206	60.344
2.2	60.3895
2.194	60.3864
2.188	60.2664
2.182	60.274
2.176	60.2748
2.17	60.2571
2.164	60.1506
2.158	60.1573
2.152	60.0062
2.146	59.8722
2.14	59.6978
2.134	59.3624
2.128	59.0753
2.122	58.6295
2.116	58.1198
2.11	57.7212
2.104	57.2247
2.098	56.7519
2.092	56.422
2.086	56.135
2.08	55.7241
2.074	55.3582
2.068	54.9528
2.062	54.513
2.056	53.9976
2.05	53.5767
2.044	53.019
2.038	52.3217
2.032	51.6113
2.026	50.7752
2.02	49.6891
2.014	48.5224
2.008	47.4603
2.002	46.23
1.996	44.8948
1.99	43.6158
1.984	42.3405
1.978	41.1684
1.972	40.098
1.966	39.0573
1.96	38.124
1.954	36.9778
1.948	35.7849
1.942	34.4306
1.936	33.0548
1.93	31.7861
1.924	30.9479
1.918	30.995
1.912	32.3
1.906	35.4007
1.9	40.6886
1.894	46.6536
1.888	52.358
1.882	57.0421
1.876	60.5072
1.87	63.5244
1.864	65.8014
1.858	67.2278
1.852	68.3284
1.846	69.0059
1.84	69.416
1.834	69.7272
1.828	69.8832
1.822	70.0839
1.816	70.1227
1.81	70.0978
1.804	70.1861
1.798	70.2953
1.792	70.4132
1.786	70.5511
1.78	70.7169
1.774	70.9342
1.768	71.2007
1.762	71.4609
1.756	71.7169
1.75	72.0925
1.744	72.4455
1.738	72.8633
1.732	73.2145
1.726	73.5917
1.72	73.9652
1.714	74.2778
1.708	74.6235
1.702	74.8565
1.696	75.0318
1.69	75.1296
1.684	75.154
1.678	75.1994
1.672	75.2306
1.666	75.1472
1.66	75.1522
1.654	75.0611
1.648	74.9681
1.642	74.8083
1.636	74.7048
1.63	74.5813
1.624	74.474
1.618	74.2646
1.612	74.0915
1.606	73.9932
1.6	73.8333
1.594	73.616
1.588	73.4134
1.582	73.2118
1.576	72.9273
1.57	72.6813
1.564	72.3228
1.558	72.0906
1.552	71.7317
1.546	71.319
1.54	70.8306
1.534	70.4476
1.528	69.8675
1.522	69.3501
1.516	68.6863
1.51	67.9371
1.504	67.0642
1.498	66.2248
1.492	65.1811
1.486	64.09
1.48	62.9595
1.474	61.9428
1.468	61.2335
1.462	60.8833
1.456	60.5148
1.45	59.7658
1.444	58.9121
1.438	58.3004
1.432	57.9289
1.426	58.2092
1.42	59.309
1.414	61.4475
1.408	64.3592
1.402	67.7001
1.396	70.941
1.39	73.736
1.384	75.6385
1.378	77.0691
1.372	77.8346
1.366	78.5217
1.36	79.1181
1.354	79.6053
1.348	80.2637
1.342	80.8302
1.336	81.4255
1.33	82.0718
1.324	82.6333
1.318	83.0346
1.312	83.4438
1.306	83.8356
1.3	84.0187
1.294	84.2275
1.288	84.3436
1.282	84.4274
1.276	84.5316
1.27	84.5697
1.264	84.4856
1.258	84.4286
1.252	84.3838
1.246	84.3398
1.24	84.1956
1.234	84.23
1.228	84.1879
1.222	84.1294
1.216	83.9242
1.21	83.9221
1.204	83.7353
1.198	83.6602
1.192	83.6306
1.186	83.5549
1.18	83.4135
1.174	83.0996
1.168	83.0706
1.162	83.1257
1.156	83.5301
1.15	84.4006
1.144	85.0405
1.138	85.5443
1.132	85.8442
1.126	85.9764
1.12	86.1356
1.114	86.2376
1.108	86.2738
1.102	86.2926
1.096	86.3181
1.09	86.3379
1.084	86.4759
1.078	86.4366
1.072	86.5094
1.066	86.4344
1.06	86.36
1.054	86.3679
1.048	86.3234
1.042	86.3492
1.036	86.2519
1.03	86.2167
1.024	86.136
1.018	86.0342
1.012	86.0311
1.006	85.7978
1	85.7197
0.994	85.4452
0.988	85.3217
0.982	85.2937
0.976	85.1588
0.97	85.3081
0.964	85.487
0.958	85.786
0.952	86.08
0.946	86.2992
0.94	86.485
0.934	86.5097
0.928	86.6437
0.922	86.7118
0.916	86.7733
0.91	86.8181
0.904	86.7351
0.898	86.7627
0.892	86.7625
0.886	86.7778
0.88	86.7848
0.874	86.8556
0.868	86.7972
0.862	86.789
0.856	86.8701
0.85	86.8566
0.844	86.7748
0.838	86.8727
0.832	86.9072
0.826	86.9569
0.82	86.913
0.814	86.9437
0.808	87.0123
0.802	86.949
0.796	86.8294
0.79	86.7985
0.784	86.7728
0.778	86.7351
0.772	86.6905
0.766	86.6631
0.76	86.6184
0.754	86.5952
0.748	86.5457
0.742	86.5479
0.736	86.5291
0.73	86.5072
0.724	86.4876
0.718	86.4179
0.712	86.4168
0.706	86.3226
0.7	86.2739
0.694	86.2343
0.688	86.1682
0.682	86.115
0.676	86.0213
0.67	85.9447
0.664	85.8578
0.658	85.8022
0.652	85.7269
0.646	85.6317
0.64	85.5514
0.634	85.4695
0.628	85.3846
0.622	85.2988
0.616	85.2072
0.61	85.0906
0.604	85.02
0.598	84.9088
0.592	84.8409
0.586	84.694
0.58	84.5594
0.574	84.3722
0.568	84.1938
0.562	83.9972
0.556	83.7775
0.55	83.5648
0.544	83.3431
0.538	83.1021
0.532	82.8819
0.526	82.5927
0.52	82.3162
0.514	82.0265
0.508	81.6889
0.502	81.3644
0.496	81.0443
0.49	80.7184
0.484	80.4251
0.478	80.2029
0.472	79.9968
0.466	79.7762
0.46	79.4664
0.454	79.0708
0.448	78.6604
0.442	78.1822
0.436	77.7249
0.43	77.2471
0.424	76.7992
0.418	76.4312
0.412	76.0544
0.406	75.6838
0.4	75.2684
