Name: Stilbite NaCa_2Al_5Si_3O_36.14H_2O
Type: Mineral
Class: Silicate
Subclass: Tectosilicate
Particle Size: Medium
Sample No.: TS-9A
Owner: JPL
Wavelength Range: VSWIR
Origin: India
Description: Particle size was 45-125um.Collected by Grieger's Inc. Original ASTER Spectral Library name was jpl.beckman.mineral.silicate.tectosilicate.medium.ts09a.spectrum.txt
Measurement: Hemispherical reflectance
X Units: Wavelength (micrometers)
Y Units: Reflectance (percent)
wavelength	value
0.4	79.62
0.403	79.8
0.406	79.94
0.409	80.12
0.412	80.28
0.415	80.53
0.418	80.55
0.421	80.72
0.424	80.92
0.427	80.93
0.43	81.17
0.433	81.48
0.436	81.53
0.439	81.67
0.442	81.89
0.445	82.06
0.448	82.24
0.451	82.47
0.454	82.45
0.457	82.67
0.46	82.85
0.463	82.86
0.466	82.97
0.469	83.17
0.472	83.09
0.475	83.4
0.478	83.52
0.481	83.58
0.484	83.61
0.487	83.7
0.49	83.72
0.493	83.85
0.496	84.05
0.499	84.04
0.502	84.24
0.505	84.42
0.508	84.54
0.511	84.52
0.514	84.61
0.517	84.87
0.52	84.94
0.523	84.88
0.526	85.04
0.529	85.17
0.532	85.13
0.535	85.09
0.538	85.41
0.541	85.5
0.544	85.57
0.547	85.74
0.55	85.96
0.553	86.14
0.556	86.31
0.559	86.43
0.562	86.88
0.565	87.02
0.568	87.03
0.571	86.9
0.574	86.92
0.577	87.04
0.58	87.08
0.583	86.93
0.586	87.14
0.589	87.13
0.592	87.19
0.595	87.32
0.598	87.48
0.601	87.45
0.604	87.49
0.607	87.58
0.61	87.68
0.613	87.55
0.616	87.6
0.619	87.56
0.622	87.51
0.625	87.55
0.628	87.73
0.631	87.68
0.634	87.57
0.637	87.71
0.64	87.73
0.643	87.62
0.646	87.56
0.649	87.66
0.652	87.77
0.655	87.72
0.658	87.73
0.661	87.79
0.664	87.77
0.667	87.8
0.67	87.85
0.673	87.84
0.676	87.76
0.679	87.84
0.682	87.96
0.685	88.03
0.688	88.01
0.691	88.03
0.694	88.02
0.697	88.02
0.7	88.01
0.703	87.86
0.706	88.02
0.709	87.95
0.712	87.74
0.715	87.97
0.718	87.95
0.721	87.81
0.724	88.09
0.727	87.92
0.73	87.86
0.733	87.8
0.736	87.76
0.739	87.67
0.742	87.75
0.745	87.77
0.748	87.57
0.751	87.65
0.754	87.7
0.757	87.69
0.76	87.76
0.763	87.76
0.766	87.7
0.769	87.94
0.772	87.89
0.775	87.87
0.778	87.99
0.781	88.06
0.784	88.04
0.787	88.01
0.79	88.06
0.793	88.05
0.796	88.34
0.799	88.17
0.808	87.98
0.82	87.98
0.832	87.81
0.844	87.79
0.856	87.97
0.868	88.07
0.88	88.18
0.892	88
0.904	87.82
0.916	87.54
0.928	86.87
0.94	85.78
0.952	83.41
0.964	81.5
0.976	82.17
0.988	83.93
1	85.49
1.012	86.7
1.024	87.4
1.036	87.81
1.048	88.06
1.06	88.21
1.072	88.22
1.084	88.06
1.096	87.68
1.108	87.11
1.12	86.37
1.132	83.99
1.144	78.59
1.156	74.79
1.168	76.66
1.18	78.78
1.192	79.51
1.204	80.53
1.216	81.24
1.228	81.58
1.24	82
1.252	82.22
1.264	82.08
1.276	81.8
1.288	80.98
1.3	79.43
1.312	77.09
1.324	74.21
1.336	71.64
1.348	69.01
1.36	65.78
1.372	61.9
1.384	55.28
1.396	45.7
1.408	36.55
1.42	34.32
1.432	37.43
1.444	41.78
1.456	43.85
1.468	45.24
1.48	49.76
1.492	53.59
1.504	56.19
1.516	58.05
1.528	59.33
1.54	60.22
1.552	60.76
1.564	61.16
1.576	61.42
1.588	61.63
1.6	62
1.612	62.28
1.624	62.62
1.636	63.01
1.648	63.41
1.66	63.84
1.672	64.01
1.684	63.9
1.696	63.41
1.708	62.35
1.72	60.67
1.732	59.03
1.744	57.77
1.756	57.18
1.768	56.74
1.78	56.28
1.792	55.86
1.804	55.34
1.816	54.75
1.828	53.79
1.84	51.91
1.852	48.66
1.864	43.14
1.876	34.25
1.888	23.36
1.9	13.79
1.912	10.36
1.924	11.96
1.936	15.08
1.948	17.77
1.96	19.83
1.972	21.81
1.984	24.2
1.996	27
2.008	30.12
2.02	32.98
2.032	35.4
2.044	37.29
2.056	38.62
2.068	39.51
2.08	40.28
2.092	41.06
2.104	41.89
2.116	42.64
2.128	43.26
2.14	43.67
2.152	43.94
2.164	44.12
2.176	44.16
2.188	44.2
2.2	44.2
2.212	44.06
2.224	43.79
2.236	43.43
2.248	42.94
2.26	42.29
2.272	41.34
2.284	40.2
2.296	38.55
2.308	36.53
2.32	34.51
2.332	32.36
2.344	29.69
2.356	26.83
2.368	23.64
2.38	20.61
2.392	17.97
2.404	15.79
2.416	14.12
2.428	12.83
2.44	12
2.452	11.24
2.464	10.67
2.476	10.15
2.488	9.68
2.5	9.16
