Name: Clinochlore (Mg,Fe+2)5Al(Si3Al)O10(OH)8
Type: Mineral
Class: Silicate
Subclass: Phyllosilicate
Particle Size: Fine
Sample No.: clinochlore_1
Owner: JHU
Wavelength Range: TIR
Origin: The Smithsonian (NMNH 83369), donated by Jim Crowley(USGS). Sample originally from Tilly Foster Mine, Brewster, New York.
Description: The sample was a green micaceous mass about 3 cm square.Particle size was less than 2  Micrometers.(sheet silicates) (Chlorite Group) Original ASTER Spectral Library name was jhu.nicolet.mineral.silicate.phyllosilicate.powder.clinoc1.spectrum.txt
Measurement: Transmission
X Units: Wavelength (micrometers)
Y Units: Transmittance (percent)
wavelength	value
25.044	48.672
24.339	41.988
23.672	35.988
23.041	28.494
22.442	25.008
21.874	24.017
21.334	30.695
20.82	41.478
20.33	46.783
19.863	50.966
19.416	53.243
18.99	54.92
18.581	62.426
18.19	65.835
17.815	68.876
17.455	74.28
17.109	76.161
16.777	75.066
16.458	70.17
16.15	64.149
15.854	57.313
15.568	49.89
15.292	46.259
15.027	46.287
14.77	49.219
14.521	53.852
14.281	58.033
14.049	61.429
13.824	61.929
13.607	63.485
13.396	64.743
13.191	65.899
12.993	68.251
12.8	70.925
12.614	73.439
12.432	74.996
12.256	74.488
12.084	74.658
11.918	78.119
11.755	78.473
11.598	77.136
11.444	76.295
11.294	73.896
11.149	70.277
11.007	64.73
10.868	57.215
10.733	46.635
10.602	35.329
10.473	28.721
10.348	28.649
10.225	29.515
10.106	28.812
9.9887	28.967
9.8746	31.658
9.763	36.815
9.6539	40.845
9.5472	42.331
9.4429	44.154
9.3408	48.419
9.2409	52.063
9.1431	55.669
9.0474	63.478
8.9536	68.723
8.8618	72.083
8.7718	74.765
8.6837	76.955
8.5973	78.841
8.5126	80.536
8.4295	82.019
8.3481	83.152
8.2682	84.214
8.1898	85.175
8.1129	86.012
8.0374	86.762
7.9634	87.411
7.8906	88.028
7.8192	88.617
7.7491	89.16
7.6802	89.655
7.6126	90.065
7.5461	90.489
7.4807	90.916
7.4165	91.34
7.3534	91.747
7.2914	92.127
7.2303	92.548
7.1703	92.871
7.1113	92.95
7.0533	92.906
6.9962	92.734
6.94	92.755
6.8847	92.843
6.8302	93.099
6.7767	93.406
6.7239	93.525
6.672	93.774
6.6209	93.956
6.5705	94.169
6.5209	94.225
6.4721	94.257
6.424	94.308
6.3766	94.239
6.3299	94.268
6.2838	94.318
6.2385	94.588
6.1937	95.153
6.1496	95.512
6.1062	95.27
6.0633	95.359
6.0211	94.99
5.9794	95.037
5.9383	95.119
5.8978	95.278
5.8578	95.372
5.8184	95.613
5.7794	95.729
5.741	95.88
5.7031	96.03
5.6657	96.132
5.6288	96.179
5.5924	96.208
5.5564	96.511
5.5209	96.404
5.4859	96.394
5.4513	96.499
5.4171	96.641
5.3833	96.7
5.35	96.855
5.3171	97.022
5.2846	97.114
5.2524	97.224
5.2207	97.271
5.1893	97.383
5.1584	97.455
5.1277	97.47
5.0975	97.512
5.0676	97.486
5.038	97.543
5.0088	97.614
4.98	97.661
4.9514	97.779
4.9232	97.872
4.8953	97.989
4.8678	98.05
4.8405	98.133
4.8135	98.249
4.7868	98.353
4.7605	98.346
4.7344	98.394
4.7086	98.413
4.6831	98.48
4.6578	98.551
4.6328	98.566
4.6081	98.691
4.5837	98.69
4.5595	98.695
4.5356	98.748
4.5119	98.754
4.4884	98.788
4.4652	98.765
4.4423	98.793
4.4196	98.758
4.3971	98.753
4.3748	98.769
4.3528	98.787
4.331	98.832
4.3094	98.867
4.288	98.863
4.2668	98.887
4.2458	98.874
4.2251	98.943
4.2045	98.894
4.1841	98.869
4.164	98.88
4.144	98.842
4.1242	98.905
4.1046	98.891
4.0852	98.88
4.066	98.866
4.047	98.858
4.0281	98.933
4.0094	98.966
3.9909	99.148
3.9725	99.127
3.9544	99.045
3.9363	98.951
3.9185	98.97
3.9008	98.949
3.8833	98.881
3.8659	98.829
3.8487	98.854
3.8316	98.827
3.8147	98.809
3.7979	98.755
3.7813	98.721
3.7648	98.728
3.7485	98.665
3.7323	98.636
3.7162	98.572
3.7003	98.579
3.6845	98.521
3.6689	98.433
3.6534	98.434
3.638	98.448
3.6227	98.326
3.6076	98.292
3.5926	98.279
3.5777	98.202
3.563	98.121
3.5484	98.063
3.5338	97.976
3.5195	97.916
3.5052	97.884
3.491	97.836
3.477	97.695
3.463	97.555
3.4492	97.468
3.4355	97.405
3.4219	97.284
3.4084	97.179
3.395	97.262
3.3817	97.223
3.3685	97.178
3.3554	97.143
3.3425	97.113
3.3296	97.01
3.3168	96.911
3.3041	96.868
3.2915	96.795
3.279	96.682
3.2666	96.552
3.2543	96.503
3.2421	96.41
3.23	96.157
3.218	96.011
3.206	95.854
3.1942	95.656
3.1824	95.435
3.1707	95.219
3.1591	94.999
3.1476	94.642
3.1362	94.311
3.1249	94.077
3.1136	93.711
3.1024	93.209
3.0913	92.67
3.0803	92.146
3.0694	91.679
3.0585	90.94
3.0477	90.135
3.037	89.275
3.0264	88.388
3.0158	87.395
3.0053	86.395
2.9949	85.494
2.9845	84.598
2.9743	83.711
2.9641	82.927
2.9539	82.16
2.9439	81.474
2.9339	80.693
2.9239	80.082
2.9141	79.53
2.9043	79.239
2.8946	79.28
2.8849	79.394
2.8753	79.626
2.8658	79.675
2.8563	79.474
2.8469	78.699
2.8375	77.337
2.8282	75.463
2.819	73.563
2.8098	71.751
2.8007	69.953
2.7917	68.568
2.7827	68.043
2.7738	68.407
2.7649	69.702
2.7561	71.8
2.7473	74.051
2.7386	76.316
2.7299	78.6
2.7213	79.392
2.7128	79.219
2.7043	85.855
2.6959	89.977
2.6875	91.792
2.6791	92.979
2.6709	93.715
2.6626	93.933
2.6545	94.28
2.6463	94.589
2.6382	94.773
2.6302	95.125
2.6222	95.266
2.6143	95.359
2.6064	95.455
2.5986	95.653
2.5908	95.816
2.583	95.871
2.5753	95.837
2.5677	95.812
2.5601	95.812
2.5525	95.779
2.545	95.971
2.5375	96.22
2.5301	96.075
2.5227	95.834
2.5154	95.826
2.5081	96.098
2.5008	96.086
2.4936	96.023
2.4864	96.025
2.4793	96.127
2.4722	96.119
2.4651	95.866
2.4581	95.986
2.4511	96.254
2.4442	96.086
2.4373	96.147
2.4305	96.119
2.4236	96.203
2.4169	96.29
2.4101	96.127
2.4034	96.214
2.3967	96.258
2.3901	95.976
2.3835	96.088
2.377	96.083
2.3704	95.947
2.364	95.881
2.3575	95.859
2.3511	96.047
2.3447	95.994
2.3384	95.903
2.3321	95.855
2.3258	95.804
2.3195	95.822
2.3133	95.879
2.3071	95.931
2.301	96.086
2.2949	95.829
2.2888	96.222
2.2828	96.129
2.2767	96.002
2.2708	95.91
2.2648	96.122
2.2589	96.377
2.253	96.32
2.2471	96.164
2.2413	96.183
2.2355	96.125
2.2297	96.278
2.224	96.244
2.2183	96.141
2.2126	96.258
2.207	96.197
2.2013	96.188
2.1957	96.145
2.1902	96.449
2.1846	96.562
2.1791	96.282
2.1736	96.666
2.1682	96.532
2.1628	96.688
2.1574	96.716
2.152	96.247
2.1466	96.466
2.1413	96.468
2.136	96.461
2.1308	96.504
2.1255	96.801
2.1203	96.598
2.1151	96.629
2.11	96.723
2.1048	96.637
2.0997	96.926
2.0946	96.943
2.0895	97.021
2.0845	96.898
2.0795	96.605
