Name: Zincite (Zn,Mn)O
Type: Mineral
Class: Oxide
Subclass: None
Particle Size: Fine
Sample No.: O-13A
Owner: JPL
Wavelength Range: VSWIR
Description: Synthetic zincite. Particle size was 0-45um.Collected by JPL Original ASTER Spectral Library name was jpl.beckman.mineral.oxide.none.fine.o13a.spectrum.txt
Measurement: Hemispherical reflectance
X Units: Wavelength (micrometers)
Y Units: Reflectance (percent)
wavelength	value
0.4	72.99
0.403	76.85
0.406	79.22
0.409	81.34
0.412	82.68
0.415	84.33
0.418	85.82
0.421	87.03
0.424	88.15
0.427	88.88
0.43	89.72
0.433	90.43
0.436	90.98
0.439	91.57
0.442	92.16
0.445	92.41
0.448	92.77
0.451	93.12
0.454	93.31
0.457	93.68
0.46	93.92
0.463	93.99
0.466	94.22
0.469	94.35
0.472	94.53
0.475	94.78
0.478	94.67
0.481	94.91
0.484	95.04
0.487	95.03
0.49	95.1
0.493	95.1
0.496	95.22
0.499	95.33
0.502	95.38
0.505	95.22
0.508	95.44
0.511	95.39
0.514	95.51
0.517	95.62
0.52	95.5
0.523	95.73
0.526	95.74
0.529	95.51
0.532	95.57
0.535	95.58
0.538	95.71
0.541	95.65
0.544	95.64
0.547	95.58
0.55	95.98
0.553	95.86
0.556	95.85
0.559	95.82
0.562	96.2
0.565	96.26
0.568	95.97
0.571	95.91
0.574	95.7
0.577	95.6
0.58	95.6
0.583	95.55
0.586	95.66
0.589	95.85
0.592	95.61
0.595	95.67
0.598	95.96
0.601	95.75
0.604	96.03
0.607	95.73
0.61	95.85
0.613	95.79
0.616	95.67
0.619	95.67
0.622	95.55
0.625	95.61
0.628	95.73
0.631	95.84
0.634	95.61
0.637	95.62
0.64	95.67
0.643	95.55
0.646	95.73
0.649	95.56
0.652	95.55
0.655	95.55
0.658	95.73
0.661	95.68
0.664	95.72
0.667	95.67
0.67	95.73
0.673	95.91
0.676	95.61
0.679	95.61
0.682	95.72
0.685	95.61
0.688	95.73
0.691	95.61
0.694	95.61
0.697	95.73
0.7	95.64
0.703	95.61
0.706	95.73
0.709	95.66
0.712	95.55
0.715	95.67
0.718	95.67
0.721	95.78
0.724	95.9
0.727	95.61
0.73	95.61
0.733	95.66
0.736	95.67
0.739	95.66
0.742	95.49
0.745	95.55
0.748	95.49
0.751	95.43
0.754	95.49
0.757	95.32
0.76	95.32
0.763	95.49
0.766	95.37
0.769	95.49
0.772	95.43
0.775	95.43
0.778	95.49
0.781	95.49
0.784	95.43
0.787	95.54
0.79	95.49
0.793	95.49
0.796	95.61
0.799	95.56
0.808	95.83
0.82	95.83
0.832	95.89
0.844	95.96
0.856	96.01
0.868	95.96
0.88	95.9
0.892	95.9
0.904	95.84
0.916	95.84
0.928	95.78
0.94	95.79
0.952	95.67
0.964	95.72
0.976	95.66
0.988	95.54
1	95.48
1.012	95.42
1.024	95.36
1.036	95.36
1.048	95.36
1.06	95.36
1.072	95.29
1.084	95.28
1.096	95.39
1.108	95.39
1.12	95.39
1.132	95.34
1.144	95.24
1.156	95.12
1.168	95.08
1.18	94.94
1.192	94.99
1.204	94.91
1.216	94.79
1.228	94.9
1.24	94.9
1.252	94.78
1.264	94.68
1.276	94.78
1.288	94.76
1.3	94.68
1.312	94.43
1.324	94.45
1.336	94.38
1.348	94.29
1.36	94.3
1.372	94.01
1.384	93.66
1.396	93.54
1.408	93.5
1.42	93.52
1.432	93.54
1.444	93.57
1.456	93.63
1.468	93.75
1.48	93.81
1.492	93.81
1.504	93.86
1.516	93.86
1.528	93.75
1.54	93.69
1.552	93.81
1.564	93.69
1.576	93.69
1.588	93.69
1.6	93.69
1.612	93.68
1.624	93.59
1.636	93.52
1.648	93.66
1.66	93.58
1.672	93.68
1.684	93.59
1.696	93.51
1.708	93.51
1.72	93.51
1.732	93.34
1.744	93.22
1.756	93.22
1.768	93.11
1.78	93.11
1.792	93.05
1.804	92.9
1.816	92.81
1.828	92.67
1.84	92.45
1.852	92.27
1.864	91.68
1.876	90.63
1.888	90.5
1.9	90.65
1.912	90.72
1.924	90.71
1.936	90.45
1.948	90.61
1.96	90.62
1.972	90.58
1.984	90.86
1.996	91.13
2.008	91.2
2.02	91.47
2.032	91.61
2.044	91.67
2.056	91.68
2.068	91.67
2.08	91.67
2.092	91.68
2.104	91.84
2.116	91.89
2.128	91.88
2.14	91.68
2.152	91.46
2.164	91.34
2.176	91.22
2.188	90.98
2.2	90.59
2.212	90.32
2.224	90.06
2.236	89.72
2.248	89.69
2.26	89.61
2.272	89.69
2.284	89.75
2.296	89.83
2.308	89.94
2.32	89.88
2.332	89.73
2.344	89.64
2.356	89.26
2.368	88.98
2.38	88.73
2.392	88.43
2.404	88.15
2.416	88.01
2.428	88
2.44	87.81
2.452	87.68
2.464	87.43
2.476	87.36
2.488	87.82
2.5	88.4
