Name: Hornblende Ca2(Fe2+,Mg)4Al(Si7,Al)O22(OH,F)2
Type: Mineral
Class: Silicate
Subclass: Inosilicate
Particle Size: Fine
Sample No.: hornblen_2
Owner: JHU
Wavelength Range: TIR
Origin: Kragero, Norway via the Smithsonian (sample no. NMNH117329).
Description: Sample was a fragment of a black crystal, contaminated on one end with a clay coating and surficial quartz crystals; this surficial contamination was scraped off. There appeared to be a small amount of internal contamination by a fibrous mineral. Very few grains showed mild alteration; there was about 1% contamination by a low refractive index mineral with low birefringence. Particle size was less than 2 micrometers.(Amphibole Group) Original ASTER Spectral Library name was jhu.nicolet.mineral.silicate.inosilicate.powder.hornbl2.spectrum.txt
Measurement: Transmission
X Units: Wavelength (micrometers)
Y Units: Transmittance (percent)
wavelength	value
25.0442	57.5311
24.3388	52.8358
23.6719	46.2831
23.0407	37.2421
22.4422	28.0566
21.8741	21.4433
21.334	21.4472
20.8199	29.2597
20.33	39.8397
19.8627	34.6767
19.4163	35.4628
18.9896	41.7245
18.5812	48.7577
18.19	55.4364
17.815	68.3289
17.4551	75.6463
17.1094	79.7273
16.7772	81.6101
16.4576	81.9539
16.15	81.7234
15.8537	80.9085
15.568	77.5726
15.2925	76.2034
15.0265	74.4119
14.7697	74.8421
14.5214	71.8694
14.2814	77.5706
14.0492	81.0721
13.8244	80.8592
13.6067	78.512
13.3957	73.8514
13.1912	70.0682
12.9929	76.4686
12.8004	81.7693
12.6135	83.596
12.432	83.7327
12.2557	82.7347
12.0843	80.51
11.9176	76.8006
11.7555	71.8358
11.5977	67.1702
11.444	61.7157
11.2944	54.2352
11.1487	46.8231
11.0067	38.1103
10.8682	30.6098
10.7332	30.7055
10.6015	24.3417
10.473	22.6874
10.3476	25.1672
10.2251	25.5158
10.1056	22.5361
9.9887	24.214
9.8746	28.7385
9.763	34.5275
9.6539	36.3
9.5472	33.005
9.4429	32.5346
9.3408	35.4657
9.2409	40.2694
9.1431	39.6
9.0474	38.5414
8.9536	45.0599
8.8618	53.8148
8.7718	62.2664
8.6837	69.4754
8.5973	73.7286
8.5126	76.334
8.4295	78.7205
8.3481	80.9139
8.2682	82.9392
8.1898	84.5232
8.1129	85.7107
8.0374	86.6533
7.9634	87.7171
7.8906	88.5506
7.8192	89.0794
7.7491	89.6243
7.6802	89.9795
7.6126	90.4502
7.5461	90.8753
7.4807	91.197
7.4165	91.4822
7.3534	91.718
7.2914	91.9314
7.2303	91.864
7.1703	92.634
7.1113	92.919
7.0533	92.9558
6.9962	93.2512
6.94	93.575
6.8847	93.637
6.8302	93.7432
6.7767	93.8262
6.7239	94
6.672	94.2383
6.6209	94.3408
6.5705	94.5911
6.5209	94.6209
6.4721	94.7197
6.424	94.6863
6.3766	94.5779
6.3299	94.3445
6.2838	94.0596
6.2385	93.6973
6.1937	92.8301
6.1496	92.0515
6.1062	92.1624
6.0633	92.8337
6.0211	94.4861
5.9794	95.5789
5.9383	95.4001
5.8978	95.3914
5.8578	95.4961
5.8184	95.748
5.7794	95.9365
5.741	96.0994
5.7031	96.167
5.6657	96.1582
5.6288	96.1619
5.5924	96.2031
5.5564	96.2598
5.5209	96.3699
5.4859	96.4375
5.4513	96.4944
5.4171	96.5354
5.3833	96.5095
5.35	96.5088
5.3171	96.53
5.2846	96.5583
5.2524	96.5891
5.2207	96.6641
5.1893	96.7891
5.1584	96.7117
5.1277	96.6648
5.0975	96.6777
5.0676	96.6201
5.038	96.6833
5.0088	96.6689
4.98	96.7097
4.9514	96.7568
4.9232	96.7727
4.8953	96.8564
4.8678	96.876
4.8405	96.9072
4.8135	96.9521
4.7868	96.9766
4.7605	97.0019
4.7344	97.0447
4.7086	97.0564
4.6831	97.0496
4.6578	97.0801
4.6328	97.1436
4.6081	97.2627
4.5837	97.1396
4.5595	97.1738
4.5356	97.1589
4.5119	97.0662
4.4884	97.083
4.4652	97.0281
4.4423	97.0251
4.4196	97.0359
4.3971	96.9988
4.3748	97.0041
4.3528	96.9465
4.331	96.9441
4.3094	96.948
4.288	96.9182
4.2668	96.8909
4.2458	96.9011
4.2251	96.8293
4.2045	96.779
4.1841	96.8137
4.164	96.7576
4.144	96.7161
4.1242	96.7346
4.1046	96.7126
4.0852	96.6912
4.066	96.6125
4.047	96.615
4.0281	96.6194
4.0094	96.5442
3.9909	96.4866
3.9725	96.321
3.9544	96.4182
3.9363	96.4558
3.9185	96.4421
3.9008	96.408
3.8833	96.3079
3.8659	96.2664
3.8487	96.2952
3.8316	96.2288
3.8147	96.2546
3.7979	96.137
3.7813	96.0989
3.7648	96.0808
3.7485	96.0251
3.7323	95.9646
3.7162	95.9553
3.7003	95.8127
3.6845	95.7664
3.6689	95.7234
3.6534	95.6863
3.638	95.7029
3.6227	95.5789
3.6076	95.5266
3.5926	95.4968
3.5777	95.4558
3.563	95.3513
3.5484	95.2253
3.5338	95.1643
3.5195	95.1155
3.5052	94.9978
3.491	94.8494
3.477	94.801
3.463	94.7283
3.4492	94.658
3.4355	94.5315
3.4219	94.4202
3.4084	94.1873
3.395	94.3064
3.3817	94.3191
3.3685	94.3381
3.3554	94.0642
3.3425	94.072
3.3296	94.0691
3.3168	93.9451
3.3041	94.0491
3.2915	93.9358
3.279	93.7678
3.2666	93.6433
3.2543	93.489
3.2421	93.5125
3.23	93.4334
3.218	93.3123
3.206	93.1111
3.1942	93.0173
3.1824	92.8474
3.1707	92.5711
3.1591	92.4021
3.1476	92.1336
3.1362	91.9534
3.1249	91.7796
3.1136	91.4588
3.1024	91.1292
3.0913	90.7463
3.0803	90.4788
3.0694	90.2752
3.0585	89.992
3.0477	89.6365
3.037	89.3533
3.0264	89.1228
3.0158	88.655
3.0053	88.0808
2.9949	87.4041
2.9845	86.7009
2.9743	85.7722
2.9641	84.782
2.9539	83.9275
2.9439	83.2439
2.9339	82.7752
2.9239	82.3806
2.9141	82.2693
2.9043	82.3465
2.8946	82.5808
2.8849	82.9666
2.8753	83.1814
2.8658	83.5428
2.8563	83.9256
2.8469	84.4842
2.8375	85.0955
2.8282	85.7693
2.819	86.3982
2.8098	86.8924
2.8007	87.3875
2.7917	88.0711
2.7827	88.7361
2.7738	89.2381
2.7649	89.7205
2.7561	90.1257
2.7473	90.3982
2.7386	90.2615
2.7299	89.2615
2.7213	86.5086
2.7128	91.5017
2.7043	91.5789
2.6959	91.8718
2.6875	92.325
2.6791	92.5681
2.6709	92.7937
2.6626	92.6765
2.6545	92.6462
2.6463	92.6912
2.6382	92.8132
2.6302	92.6257
2.6222	92.4646
2.6143	92.6209
2.6064	92.4666
2.5986	92.4539
2.5908	92.5271
2.583	92.3982
2.5753	92.4255
2.5677	92.3406
2.5601	92.4763
2.5525	92.2742
2.545	92.0632
2.5375	92.282
2.5301	92.1609
2.5227	91.9451
2.5154	91.9412
2.5081	92.1033
2.5008	92.0056
2.4936	91.9451
2.4864	92.0447
2.4793	92.0076
2.4722	92.0369
2.4651	91.9607
2.4581	91.9099
2.4511	91.8806
2.4442	91.6755
2.4373	91.7302
2.4305	91.6677
2.4236	91.5896
2.4169	91.5056
2.4101	91.7341
2.4034	91.5798
2.3967	91.5232
2.3901	91.5193
2.3835	91.449
2.377	91.5545
2.3704	91.449
2.364	91.5017
2.3575	91.3709
2.3511	91.533
2.3447	91.3084
2.3384	91.1189
2.3321	91.1209
2.3258	91.197
2.3195	91.3357
2.3133	91.1365
2.3071	91.1189
2.301	91.1404
2.2949	91.1658
2.2888	91.2888
2.2828	91.2029
2.2767	91.0095
2.2708	91.1423
2.2648	91.1326
2.2589	91.0896
2.253	90.9334
2.2471	91.0349
2.2413	90.9959
2.2355	90.9158
2.2297	90.9939
2.224	90.6248
2.2183	90.7205
2.2126	90.8435
2.207	90.8513
2.2013	90.783
2.1957	90.6638
2.1902	90.5466
2.1846	90.658
2.1791	90.4959
2.1736	90.8377
2.1682	90.533
2.1628	90.6658
2.1574	90.7498
2.152	90.3377
2.1466	90.3377
2.1413	90.4568
2.136	90.4724
2.1308	90.5505
2.1255	90.9802
2.1203	90.3123
2.1151	90.363
2.11	90.2654
2.1048	90.2146
2.0997	90.6404
2.0946	90.6326
2.0895	90.738
2.0845	90.3709
2.0795	90.3943
