Name: Vermiculite (Mg,Fe^2+,Al)_3(Al,Si)_4O_10(OH)_2.4H_2O
Type: Mineral
Class: Silicate
Subclass: Phyllosilicate
Particle Size: Coarse
Sample No.: PS-18A
Owner: JPL
Wavelength Range: VSWIR
Origin: USA, Texas, Llano County, Llano.
Description: Particle size was 125-500um.Collected by:  Clay Mineral Society. Original ASTER Spectral Library name was jpl.perkin.mineral.silicate.phyllosilicate.coarse.ps18a.spectrum.txt
Measurement: Hemispherical reflectance
X Units: Wavelength (micrometers)
Y Units: Reflectance (percent)
wavelength	value
2.5	22.476
2.494	22.9918
2.488	23.7537
2.482	24.444
2.476	25.2611
2.47	25.7799
2.464	26.2393
2.458	26.7946
2.452	27.3248
2.446	27.9475
2.44	28.9794
2.434	29.5769
2.428	30.5744
2.422	31.365
2.416	32.3982
2.41	33.1911
2.404	33.7456
2.398	34.2437
2.392	34.7072
2.386	35.3673
2.38	36.1573
2.374	37.2029
2.368	38.2698
2.362	39.0295
2.356	39.2237
2.35	38.3383
2.344	36.5955
2.338	34.3233
2.332	32.1774
2.326	30.7106
2.32	30.0584
2.314	30.2724
2.308	31.1766
2.302	32.4544
2.296	33.7752
2.29	35.1674
2.284	36.6524
2.278	38.0034
2.272	39.1793
2.266	40.3677
2.26	41.5759
2.254	42.5102
2.248	43.0224
2.242	44.2791
2.236	46.4582
2.23	48.6892
2.224	50.4484
2.218	51.4583
2.212	52.2691
2.206	52.9828
2.2	53.6556
2.194	54.0911
2.188	54.406
2.182	54.5608
2.176	54.6111
2.17	54.5146
2.164	54.365
2.158	54.1008
2.152	53.6315
2.146	53.0543
2.14	52.3563
2.134	51.7925
2.128	51.4757
2.122	51.3402
2.116	50.9085
2.11	50.4369
2.104	50.2164
2.098	50.0727
2.092	50.0636
2.086	50.194
2.08	50.4529
2.074	50.6249
2.068	50.6424
2.062	50.4895
2.056	50.1919
2.05	49.8197
2.044	49.3815
2.038	48.9239
2.032	48.4248
2.026	48.015
2.02	47.5803
2.014	47.0761
2.008	46.6155
2.002	46.0194
1.996	45.4256
1.99	44.7985
1.984	44.1603
1.978	43.698
1.972	43.3354
1.966	43.1111
1.96	43.0781
1.954	42.9244
1.948	42.6254
1.942	42.4407
1.936	42.1738
1.93	41.892
1.924	41.7718
1.918	42.0083
1.912	43.1034
1.906	45.1283
1.9	48.129
1.894	51.6515
1.888	54.7256
1.882	57.2278
1.876	59.2757
1.87	60.6953
1.864	61.6216
1.858	62.056
1.852	62.4426
1.846	62.8671
1.84	63.2593
1.834	63.51
1.828	63.7378
1.822	63.8372
1.816	63.9546
1.81	63.9979
1.804	64.1587
1.798	64.2906
1.792	64.2864
1.786	64.3298
1.78	64.3726
1.774	64.3842
1.768	64.4672
1.762	64.4726
1.756	64.5684
1.75	64.6795
1.744	64.7123
1.738	64.788
1.732	64.8953
1.726	64.9494
1.72	65.0229
1.714	65.0931
1.708	65.1175
1.702	65.2496
1.696	65.4448
1.69	65.5393
1.684	65.6623
1.678	65.8535
1.672	66.0065
1.666	66.1671
1.66	66.2643
1.654	66.4479
1.648	66.5849
1.642	66.8205
1.636	66.9279
1.63	66.9789
1.624	67.0532
1.618	67.1389
1.612	67.2362
1.606	67.3222
1.6	67.4125
1.594	67.3475
1.588	67.3286
1.582	67.3001
1.576	67.291
1.57	67.127
1.564	67.0141
1.558	66.7653
1.552	66.5477
1.546	66.3069
1.54	65.9863
1.534	65.7579
1.528	65.4079
1.522	65.0459
1.516	64.7067
1.51	64.3565
1.504	64.0044
1.498	63.6266
1.492	63.2564
1.486	62.8821
1.48	62.4928
1.474	62.1541
1.468	61.849
1.462	61.7473
1.456	61.5884
1.45	61.3194
1.444	60.8484
1.438	60.5258
1.432	60.2756
1.426	60.2077
1.42	60.5777
1.414	60.6618
1.408	58.7208
1.402	56.4717
1.396	52.7248
1.39	50.6933
1.384	54.801
1.378	67.8887
1.372	70.3067
1.366	70.2136
1.36	70.3
1.354	71.5271
1.348	72.82
1.342	73.0697
1.336	73.305
1.33	73.4441
1.324	73.5024
1.318	73.4902
1.312	73.5464
1.306	73.4698
1.3	73.2919
1.294	73.1263
1.288	72.4834
1.282	72.387
1.276	72.4903
1.27	72.7683
1.264	72.8773
1.258	72.905
1.252	72.9673
1.246	72.9192
1.24	72.9127
1.234	72.7121
1.228	72.6568
1.222	72.6176
1.216	72.5229
1.21	72.4623
1.204	72.3728
1.198	72.2239
1.192	72.3359
1.186	72.229
1.18	72.1702
1.174	72.0873
1.168	72.0957
1.162	72.0251
1.156	72.2048
1.15	72.3214
1.144	72.3966
1.138	72.5723
1.132	72.59
1.126	72.5723
1.12	72.4432
1.114	72.5235
1.108	72.4691
1.102	72.4498
1.096	72.4642
1.09	72.3911
1.084	72.2643
1.078	72.2781
1.072	72.2229
1.066	72.1984
1.06	72.1344
1.054	72.116
1.048	72.0782
1.042	72.0201
1.036	71.9717
1.03	71.9855
1.024	71.9574
1.018	71.9252
1.012	71.9827
1.006	71.894
1	71.9386
0.994	71.9617
0.988	71.9674
0.982	72.0121
0.976	72.1138
0.97	72.1447
0.964	72.0603
0.958	71.9086
0.952	71.5936
0.946	71.6765
0.94	72.4773
0.934	72.9228
0.928	73.18
0.922	73.2725
0.916	73.3122
0.91	73.4266
0.904	73.3976
0.898	73.5138
0.892	73.6581
0.886	73.6513
0.88	73.8266
0.874	73.8545
0.868	73.8624
0.862	73.9823
0.856	73.903
0.85	74.037
0.844	74.0756
0.838	74.1587
0.832	74.294
0.826	74.3116
0.82	74.3773
0.814	74.4265
0.808	74.4498
0.802	74.4943
0.796	74.4004
0.79	74.4078
0.784	74.3947
0.778	74.3857
0.772	74.2918
0.766	74.2638
0.76	74.2429
0.754	74.1604
0.748	74.0925
0.742	74.027
0.736	73.9414
0.73	73.844
0.724	73.7588
0.718	73.7126
0.712	73.6235
0.706	73.5238
0.7	73.4267
0.694	73.3093
0.688	73.1787
0.682	73.0567
0.676	72.9117
0.67	72.7376
0.664	72.575
0.658	72.3726
0.652	72.1682
0.646	71.9855
0.64	71.7889
0.634	71.5633
0.628	71.3431
0.622	71.1417
0.616	70.941
0.61	70.7106
0.604	70.4801
0.598	70.2363
0.592	70.0256
0.586	69.7357
0.58	69.435
0.574	69.0901
0.568	68.7555
0.562	68.3657
0.556	67.8957
0.55	67.4321
0.544	66.9042
0.538	66.3457
0.532	65.727
0.526	65.0966
0.52	64.4293
0.514	63.7122
0.508	62.9599
0.502	62.1788
0.496	61.3744
0.49	60.5721
0.484	59.7522
0.478	59.0267
0.472	58.2876
0.466	57.5537
0.46	56.845
0.454	56.1371
0.448	55.2777
0.442	54.3321
0.436	53.4143
0.43	52.5037
0.424	51.6951
0.418	50.8726
0.412	50.0997
0.406	49.3165
0.4	48.4681
