Name: Magnetite Fe^2+Fe_2^3+O_4
Type: Mineral
Class: Oxide
Subclass: None
Particle Size: Coarse
Sample No.: O-4A
Owner: JPL
Wavelength Range: VSWIR
Origin: Canada, Ontario, Haliburton County, Wilberforce
Description: Particle size was 125-500um.Collected by Ward's Original ASTER Spectral Library name was jpl.beckman.mineral.oxide.none.coarse.o04a.spectrum.txt
Measurement: Hemispherical reflectance
X Units: Wavelength (micrometers)
Y Units: Reflectance (percent)
wavelength	value
0.4	6.26
0.403	6.14
0.406	6.14
0.409	6.07
0.412	6.2
0.415	6.2
0.418	6.12
0.421	6.08
0.424	5.94
0.427	6.06
0.43	6.18
0.433	6.12
0.436	6.06
0.439	5.95
0.442	5.99
0.445	6.04
0.448	5.93
0.451	5.88
0.454	5.8
0.457	5.88
0.46	5.88
0.463	5.82
0.466	5.93
0.469	5.81
0.472	5.73
0.475	5.78
0.478	5.85
0.481	5.67
0.484	5.72
0.487	5.71
0.49	5.76
0.493	5.72
0.496	5.81
0.499	5.74
0.502	5.79
0.505	5.83
0.508	5.73
0.511	5.84
0.514	5.7
0.517	5.71
0.52	5.7
0.523	5.8
0.526	5.8
0.529	5.81
0.532	5.79
0.535	5.78
0.538	5.72
0.541	5.71
0.544	5.77
0.547	5.79
0.55	5.65
0.553	5.57
0.556	5.74
0.559	5.68
0.562	5.75
0.565	5.76
0.568	5.63
0.571	5.75
0.574	5.66
0.577	5.65
0.58	5.71
0.583	5.65
0.586	5.58
0.589	5.78
0.592	5.71
0.595	5.7
0.598	5.69
0.601	5.65
0.604	5.76
0.607	5.75
0.61	5.67
0.613	5.74
0.616	5.62
0.619	5.74
0.622	5.78
0.625	5.68
0.628	5.72
0.631	5.78
0.634	5.73
0.637	5.7
0.64	5.74
0.643	5.56
0.646	5.73
0.649	5.75
0.652	5.72
0.655	5.75
0.658	5.55
0.661	5.74
0.664	5.74
0.667	5.72
0.67	5.66
0.673	5.62
0.676	5.75
0.679	5.72
0.682	5.66
0.685	5.67
0.688	5.67
0.691	5.66
0.694	5.72
0.697	5.57
0.7	5.51
0.703	5.53
0.706	5.56
0.709	5.66
0.712	5.54
0.715	5.54
0.718	5.56
0.721	5.54
0.724	5.6
0.727	5.5
0.73	5.42
0.733	5.49
0.736	5.54
0.739	5.44
0.742	5.49
0.745	5.36
0.748	5.38
0.751	5.54
0.754	5.37
0.757	5.32
0.76	5.42
0.763	5.36
0.766	5.36
0.769	5.31
0.772	5.18
0.775	5.37
0.778	5.53
0.781	5.46
0.784	5.47
0.787	5.4
0.79	5.4
0.793	5.47
0.796	5.3
0.799	5.38
0.808	5.32
0.82	5.33
0.832	5.28
0.844	5.11
0.856	5.04
0.868	4.99
0.88	4.99
0.892	4.93
0.904	4.82
0.916	4.82
0.928	4.76
0.94	4.71
0.952	4.71
0.964	4.75
0.976	4.65
0.988	4.7
1	4.7
1.012	4.65
1.024	4.71
1.036	4.71
1.048	4.69
1.06	4.61
1.072	4.68
1.084	4.71
1.096	4.75
1.108	4.79
1.12	4.79
1.132	4.77
1.144	4.79
1.156	4.92
1.168	4.96
1.18	4.97
1.192	4.99
1.204	5.05
1.216	5.08
1.228	5.15
1.24	5.26
1.252	5.29
1.264	5.35
1.276	5.34
1.288	5.52
1.3	5.54
1.312	5.57
1.324	5.64
1.336	5.59
1.348	5.68
1.36	5.76
1.372	5.87
1.384	5.9
1.396	6.05
1.408	6.13
1.42	6.19
1.432	6.27
1.444	6.29
1.456	6.29
1.468	6.45
1.48	6.51
1.492	6.52
1.504	6.64
1.516	6.71
1.528	6.79
1.54	6.89
1.552	6.95
1.564	6.96
1.576	7.02
1.588	7.04
1.6	7.16
1.612	7.24
1.624	7.22
1.636	7.3
1.648	7.37
1.66	7.41
1.672	7.5
1.684	7.52
1.696	7.69
1.708	7.7
1.72	7.77
1.732	7.84
1.744	7.85
1.756	7.9
1.768	7.86
1.78	7.98
1.792	7.98
1.804	8.06
1.816	8.1
1.828	8.15
1.84	8.17
1.852	8.2
1.864	8.31
1.876	8.33
1.888	8.38
1.9	8.44
1.912	8.4
1.924	8.57
1.936	8.62
1.948	8.58
1.96	8.69
1.972	8.74
1.984	8.79
1.996	8.87
2.008	8.96
2.02	8.97
2.032	8.97
2.044	8.96
2.056	9.02
2.068	9.07
2.08	9.08
2.092	9.11
2.104	9.21
2.116	9.32
2.128	9.29
2.14	9.28
2.152	9.24
2.164	9.36
2.176	9.45
2.188	9.46
2.2	9.41
2.212	9.39
2.224	9.49
2.236	9.5
2.248	9.57
2.26	9.67
2.272	9.65
2.284	9.66
2.296	9.63
2.308	9.65
2.32	9.76
2.332	9.83
2.344	9.91
2.356	9.93
2.368	9.96
2.38	9.89
2.392	9.92
2.404	9.92
2.416	10
2.428	10.07
2.44	10.1
2.452	10.15
2.464	10.21
2.476	10.19
2.488	10.16
2.5	10.26
