Name: Palygorskite (Mg,Al)_2Si_4O_10(OH).4H_2O
Type: Mineral
Class: Silicate
Subclass: Phyllosilicate
Particle Size: Fine
Sample No.: PS-4A
Owner: JPL
Wavelength Range: VSWIR
Origin: USA, Florida, Gadsden County
Description: Particle size was 0-45um.Collected by Clay Mineral Society Original ASTER Spectral Library name was jpl.beckman.mineral.silicate.phyllosilicate.fine.ps04a.spectrum.txt
Measurement: Hemispherical reflectance
X Units: Wavelength (micrometers)
Y Units: Reflectance (percent)
wavelength	value
0.4	49.92
0.403	50.66
0.406	51.35
0.409	52.06
0.412	52.7
0.415	53.23
0.418	53.88
0.421	54.35
0.424	55.02
0.427	55.35
0.43	55.93
0.433	56.22
0.436	56.63
0.439	57.21
0.442	57.7
0.445	58.03
0.448	58.63
0.451	59.17
0.454	59.61
0.457	60.05
0.46	60.36
0.463	60.82
0.466	61.04
0.469	61.39
0.472	61.87
0.475	62.09
0.478	62.54
0.481	62.6
0.484	62.96
0.487	63.27
0.49	63.37
0.493	63.55
0.496	63.88
0.499	64.15
0.502	64.25
0.505	64.54
0.508	64.81
0.511	65.22
0.514	65.3
0.517	65.69
0.52	65.94
0.523	66.17
0.526	66.68
0.529	66.81
0.532	67.28
0.535	67.33
0.538	67.67
0.541	67.9
0.544	68.07
0.547	68.35
0.55	68.53
0.553	68.65
0.556	68.84
0.559	68.95
0.562	69.5
0.565	69.53
0.568	69.55
0.571	69.56
0.574	69.55
0.577	69.58
0.58	69.74
0.583	69.65
0.586	69.59
0.589	69.67
0.592	69.73
0.595	69.84
0.598	69.79
0.601	69.82
0.604	69.82
0.607	69.79
0.61	69.94
0.613	69.95
0.616	69.95
0.619	69.82
0.622	69.78
0.625	69.98
0.628	69.85
0.631	69.91
0.634	69.88
0.637	69.95
0.64	69.92
0.643	70.08
0.646	70.08
0.649	70.09
0.652	70.08
0.655	70.14
0.658	70.31
0.661	70.36
0.664	70.41
0.667	70.46
0.67	70.51
0.673	70.58
0.676	70.71
0.679	70.69
0.682	70.8
0.685	70.72
0.688	70.84
0.691	70.9
0.694	71.03
0.697	71.16
0.7	71.32
0.703	71.4
0.706	71.38
0.709	71.39
0.712	71.58
0.715	71.65
0.718	71.61
0.721	71.72
0.724	71.74
0.727	71.84
0.73	71.79
0.733	71.76
0.736	71.9
0.739	71.97
0.742	72.02
0.745	72.01
0.748	72.18
0.751	72.23
0.754	72.33
0.757	72.23
0.76	72.31
0.763	72.36
0.766	72.43
0.769	72.56
0.772	72.55
0.775	72.55
0.778	72.6
0.781	72.66
0.784	72.75
0.787	72.62
0.79	72.71
0.793	72.85
0.796	72.89
0.799	72.91
0.808	73.29
0.82	73.22
0.832	73.28
0.844	73.24
0.856	73.28
0.868	73.17
0.88	73.08
0.892	73.02
0.904	72.9
0.916	72.88
0.928	72.93
0.94	72.85
0.952	72.9
0.964	72.86
0.976	72.89
0.988	73.04
1	73.13
1.012	73.26
1.024	73.13
1.036	73.22
1.048	73.2
1.06	73.16
1.072	73.15
1.084	73.11
1.096	73.13
1.108	73.06
1.12	73.14
1.132	73.06
1.144	72.76
1.156	72.62
1.168	72.63
1.18	72.85
1.192	72.94
1.204	73.18
1.216	73.22
1.228	73.35
1.24	73.37
1.252	73.48
1.264	73.69
1.276	73.64
1.288	73.7
1.3	73.58
1.312	73.56
1.324	73.4
1.336	73.15
1.348	72.83
1.36	72.61
1.372	71.58
1.384	69.63
1.396	66.97
1.408	61.91
1.42	62.13
1.432	63.99
1.444	65.34
1.456	66.28
1.468	67
1.48	68.58
1.492	69.82
1.504	70.53
1.516	71.12
1.528	71.58
1.54	71.92
1.552	72.16
1.564	72.46
1.576	72.65
1.588	72.91
1.6	73.06
1.612	73.18
1.624	73.31
1.636	73.47
1.648	73.58
1.66	73.58
1.672	73.69
1.684	73.58
1.696	73.55
1.708	73.42
1.72	73.19
1.732	73.08
1.744	72.78
1.756	72.46
1.768	71.97
1.78	71.62
1.792	71.3
1.804	71.15
1.816	71
1.828	70.79
1.84	70.47
1.852	69.53
1.864	67.37
1.876	62.49
1.888	55.47
1.9	45.83
1.912	40.48
1.924	42.24
1.936	47.79
1.948	52.17
1.96	54.13
1.972	55.64
1.984	57.36
1.996	59.31
2.008	61.05
2.02	62.54
2.032	63.54
2.044	64.4
2.056	65.05
2.068	65.55
2.08	65.94
2.092	66.2
2.104	66.47
2.116	66.61
2.128	66.56
2.14	66.45
2.152	66.18
2.164	65.6
2.176	64.85
2.188	63.73
2.2	61.8
2.212	59.75
2.224	60.18
2.236	61.71
2.248	62.08
2.26	62.03
2.272	61.7
2.284	60.79
2.296	59.41
2.308	57.68
2.32	56.22
2.332	54.83
2.344	54.09
2.356	53.16
2.368	51.68
2.38	50.16
2.392	48.64
2.404	47.35
2.416	46.19
2.428	45.35
2.44	44.81
2.452	44.3
2.464	43.71
2.476	42.77
2.488	41.89
2.5	40.85
