Name: Topaz Al_2SiO_4(F,OH)_2
Type: Mineral
Class: Silicate
Subclass: Nesosilicate
Particle Size: Fine
Sample No.: NS-6A
Owner: JPL
Wavelength Range: TIR
Origin: Australia, Western Australia, Grossmont
Description: Particle size was 0-45um.Collected by Ward's Original ASTER Spectral Library name was jpl.nicolet.mineral.silicate.nesosilicate.fine.ns06a.spectrum.txt
Measurement: Hemispherical reflectance
X Units: Wavelength (micrometers)
Y Units: Reflectance (percent)
wavelength	value
15.3853	10.7983
15.1161	9.2234
14.8563	6.8629
14.6052	3.6636
14.3624	1.7816
14.1276	1.5426
13.9004	2.003
13.6803	3.861
13.4671	5.8859
13.2604	6.9702
13.06	6.4604
12.8656	7.4475
12.6769	10.2833
12.4936	10.2536
12.3155	9.6995
12.1425	8.8549
11.9742	8.6665
11.8106	8.8946
11.6513	11.0722
11.4963	12.6
11.3454	13.1266
11.1983	12.3611
11.0551	11.9395
10.9154	11.3541
10.7793	11.2422
10.6465	12.3754
10.5169	12.8601
10.3904	12.4304
10.267	11.4137
10.1464	9.4515
10.0287	9.4828
9.9136	10.5001
9.8012	10.0733
9.6913	9.1171
9.5838	7.9874
9.4787	6.7565
9.3758	5.2585
9.2752	4.0081
9.1767	2.9634
9.0803	2.5859
8.9858	2.0783
8.8934	2.0565
8.8028	1.7999
8.714	1.6058
8.627	1.2817
8.5417	1.3693
8.4581	2.1064
8.3761	2.3312
8.2957	3.2122
8.2169	3.8513
8.1395	4.7909
8.0635	5.4908
7.989	6.4008
7.9158	7.4425
7.8439	8.5247
7.7734	9.8057
7.7041	10.6375
7.636	11.4969
7.5691	12.4797
7.5034	13.5766
7.4388	14.6191
7.3753	15.6681
7.3129	16.9376
7.2515	17.7683
7.1912	18.7893
7.1318	19.663
7.0734	20.2419
7.016	20.7526
6.9595	22.1997
6.9039	22.7952
6.8492	23.7249
6.7953	24.4395
6.7423	24.2215
6.6901	25.1626
6.6387	27.6119
6.5881	27.3898
6.5382	27.5391
6.4892	29.7858
6.4408	28.8768
6.3931	29.1697
6.3462	30.5105
6.2999	29.7403
6.2543	29.9291
6.2094	30.2605
6.1651	30.5576
6.1214	30.8949
6.0784	31.6403
6.0359	32.0567
5.994	33.4273
5.9527	33.3111
5.912	32.6953
5.8718	32.9596
5.8322	32.3592
5.7931	31.4437
5.7545	32.3473
5.7165	33.0509
5.6789	31.855
5.6418	30.6536
5.6052	26.7496
5.5691	23.9487
5.5334	22.326
5.4982	22.2623
5.4635	23.3521
5.4291	24.1525
5.3952	24.0486
5.3618	24.4538
5.3287	25.5628
5.2961	27.0932
5.2638	28.9183
5.2319	31.8337
5.2004	34.5287
5.1693	36.3626
5.1386	37.6091
5.1082	38.5862
5.0782	39.7218
5.0485	40.3916
5.0192	40.9452
4.9902	40.9583
4.9616	40.6615
4.9332	41.425
4.9052	42.7997
4.8776	43.814
4.8502	44.2796
4.8231	44.867
4.7963	45.0195
4.7699	45.1786
4.7437	45.2877
4.7178	45.4622
4.6922	45.4496
4.6668	45.6297
4.6418	45.6954
4.617	45.8161
4.5924	45.9879
4.5681	46.115
4.5441	46.2011
4.5203	46.3989
4.4968	46.4819
4.4735	46.6442
4.4505	46.6819
4.4277	46.6569
4.4051	46.7468
4.3828	46.6292
4.3607	46.1133
4.3388	44.5899
4.3171	41.5434
4.2956	43.6029
4.2744	45.4513
4.2534	46.3789
4.2325	46.6001
4.2119	46.9548
4.1915	47.2254
4.1712	47.31
4.1512	47.3749
4.1313	47.4159
4.1117	47.4858
4.0922	47.5482
4.0729	47.6497
4.0538	47.6305
4.0349	47.5933
4.0161	47.5634
3.9976	47.6953
3.9792	47.7534
3.9609	47.7762
3.9428	47.8266
3.9249	47.8612
3.9072	47.8145
3.8896	47.868
3.8722	47.793
3.8549	47.7031
3.8378	47.8497
3.8208	47.8885
3.804	47.8351
3.7873	47.9032
3.7708	47.9168
3.7544	47.9807
3.7382	47.9167
3.7221	47.8831
3.7061	47.7903
3.6903	47.8131
3.6746	47.8194
3.659	47.6923
3.6436	47.7101
3.6283	47.6925
3.6131	47.5555
3.5981	47.6652
3.5832	47.4583
3.5684	47.4983
3.5537	47.4198
3.5391	47.3435
3.5247	47.2912
3.5104	47.1567
3.4962	47.0114
3.4821	46.8571
3.4681	46.7702
3.4543	46.7119
3.4405	46.6868
3.4269	46.4966
3.4133	46.2315
3.3999	46.2486
3.3866	46.1192
3.3733	45.9484
3.3602	45.6882
3.3472	45.7257
3.3343	45.7085
3.3215	45.6162
3.3088	45.4444
3.2961	45.2528
3.2836	45.1383
3.2712	45.0651
3.2588	44.8041
3.2466	44.6088
3.2345	44.2355
3.2224	44.324
3.2104	43.927
3.1985	43.7725
3.1867	43.5955
3.175	43.1757
3.1634	43.04
3.1519	42.8273
3.1404	42.6148
3.129	42.383
3.1178	42.0572
3.1065	41.7029
3.0954	41.3946
3.0844	41.0531
3.0734	40.6234
3.0625	40.3403
3.0517	40.0164
3.041	39.5994
3.0303	39.2787
3.0197	38.9061
3.0092	38.4627
2.9987	38.176
2.9884	37.7263
2.9781	37.5674
2.9678	37.554
2.9577	37.8877
2.9476	38.0637
2.9376	38.0961
2.9276	38.2903
2.9177	38.1308
2.9079	37.8841
2.8982	37.4482
2.8885	37.6936
2.8789	37.3027
2.8693	37.2866
2.8598	37.4112
2.8504	37.3436
2.841	37.4999
2.8317	37.5351
2.8224	37.7307
2.8133	37.7302
2.8041	37.8905
2.7951	37.0939
2.786	36.7377
2.7771	35.8759
2.7682	34.4388
2.7594	29.4635
2.7506	13.0077
2.7418	5.298
2.7332	18.2054
2.7246	35.8177
2.716	40.0663
2.7075	43.3267
2.699	45.7055
2.6906	47.3516
2.6823	48.277
2.674	48.8896
2.6657	50.9649
2.6575	48.8533
2.6494	48.7489
2.6413	48.857
2.6332	49.0858
2.6252	48.5865
2.6173	49.0641
2.6094	48.3847
2.6015	48.1876
2.5937	50.1395
2.5859	48.7888
2.5782	48.4974
2.5706	48.0507
2.5629	47.7884
2.5554	45.9905
2.5478	45.4241
2.5403	45.6392
2.5329	45.5625
2.5255	45.9103
2.5181	46.1744
2.5108	47.1375
2.5035	47.3534
2.4963	47.8915
2.4891	48.2219
2.482	48.6987
2.4749	48.7658
2.4678	48.8621
2.4608	49.1813
2.4538	49.2448
2.4468	49.4852
2.4399	49.5521
2.4331	49.4423
2.4262	49.5711
2.4194	49.6443
2.4127	49.7618
2.4059	49.8419
2.3993	49.8641
2.3926	49.9509
2.386	49.842
2.3795	49.9091
2.3729	50.0097
2.3664	49.9183
2.36	50.13
2.3535	50.189
2.3471	49.9676
2.3408	50.1042
2.3345	50.1414
2.3282	49.9417
2.3219	50.1447
2.3157	50.316
2.3095	50.3183
2.3034	50.5437
2.2972	50.3751
2.2911	50.582
2.2851	50.6181
2.279	50.5172
2.2731	50.4726
2.2671	50.6381
2.2612	50.3763
2.2553	50.4913
2.2494	50.6237
2.2435	50.5505
2.2377	50.7362
2.232	50.5776
2.2262	50.3535
2.2205	50.4516
2.2148	50.3151
2.2091	50.4517
2.2035	50.4827
2.1979	50.3672
2.1923	50.5849
2.1868	50.4543
2.1812	50.4837
2.1758	50.5634
2.1703	50.2805
2.1649	50.3733
2.1595	50.4242
2.1541	50.2157
2.1487	50.1818
2.1434	50.3324
2.1381	50.3474
2.1328	50.4185
2.1275	50.7202
2.1223	50.6422
2.1171	50.712
2.112	50.5057
2.1068	50.5156
2.1017	50.3022
2.0966	50.2204
2.0915	48.7127
2.0865	45.3125
2.0814	42.4779
2.0764	47.7726
2.0715	50.1705
2.0665	50.4128
2.0616	50.6522
2.0567	50.695
2.0518	50.8349
2.0469	50.9257
2.0421	50.7082
2.0373	50.4649
2.0325	50.8381
2.0277	51.2484
2.0229	50.7659
2.0182	50.5776
2.0135	51.15
2.0088	50.8002
2.0042	50.7554
