Name: Augite (Ca,Na)(Mg,Fe,Al,Ti)(Si,Al)2O6
Type: Mineral
Class: Silicate
Subclass: Inosilicate
Particle Size: Solid
Sample No.: augite_1
Owner: JHU
Wavelength Range: TIR
Origin: Sample from Monteagle Township, Hostings Co., Ontario,Canada via the Smithsonian (sample no. NMNH 117461).
Description: Sample consisted of  fragments of well-formed crystal(s), with some surface contamination by calcite.  Small grains were deep, translucent green and generally clear and unaltered.  The powdered sample was washed in dilute HCl to remove residual calcite, but an extremely weak carbonate band is still seen in the spectrum of the 75-250 micrometers size range near 4.0 micrometers. (Pyroxene Group - single chain) Original ASTER Spectral Library name was jhu.nicolet.mineral.silicate.inosilicate.solid.augite1.spectrum.txt
Measurement: Bidirectional reflectance
X Units: Wavelength (micrometers)
Y Units: Reflectance (percent)
wavelength	value
25.0442	17.6845
24.3388	14.3183
23.6719	13.4404
23.0407	15.5068
22.4422	20.9143
21.8741	24.0078
21.334	25.623
20.8199	25.5121
20.33	24.2961
19.8627	25.3285
19.4163	27.1279
18.9896	28.9076
18.5812	30.9013
18.19	31.1933
17.815	27.853
17.4551	19.6689
17.1094	10.1201
16.7772	6.7246
16.4576	7.0124
16.15	7.9763
15.8537	9.3637
15.568	7.4841
15.2925	6.6379
15.0265	7.8052
14.7697	7.1352
14.5214	6.6494
14.2814	6.9614
14.0492	7.3252
13.8244	7.6687
13.6067	8.008
13.3957	8.3511
13.1912	8.6765
12.9929	8.9817
12.8004	9.2627
12.6135	9.6501
12.432	10.1394
12.2557	10.6811
12.0843	11.49
11.9176	13.0144
11.7555	16.7873
11.5977	21.1486
11.444	23.331
11.2944	24.1406
11.1487	24.6276
11.0067	25.777
10.8682	26.5822
10.7332	23.8239
10.6015	25.7558
10.473	26.4199
10.3476	25.2097
10.2251	18.4958
10.1056	13.1782
9.9887	13.6284
9.8746	14.5881
9.763	15.049
9.6539	15.8454
9.5472	18.2033
9.4429	21.8928
9.3408	23.6149
9.2409	24.2248
9.1431	24.6122
9.0474	25.3559
8.9536	27.0097
8.8618	29.8896
8.7718	28.1386
8.6837	22.4623
8.5973	13.8645
8.5126	5.5918
8.4295	1.6958
8.3481	1.8201
8.2682	2.3501
8.1898	2.7705
8.1129	3.1003
8.0374	3.3613
7.9634	3.5852
7.8906	3.7908
7.8192	4.0039
7.7491	4.1872
7.6802	4.3594
7.6126	4.5083
7.5461	4.6243
7.4807	4.7351
7.4165	4.8564
7.3534	4.9502
7.2914	5.0329
7.2303	5.1006
7.1703	5.1904
7.1113	5.2695
7.0533	5.3506
6.9962	5.4177
6.94	5.4538
6.8847	5.4983
6.8302	5.5427
6.7767	5.5896
6.7239	5.6184
6.672	5.6377
6.6209	5.6806
6.5705	5.6911
6.5209	5.7114
6.4721	5.7283
6.424	5.7502
6.3766	5.782
6.3299	5.8069
6.2838	5.8254
6.2385	5.8598
6.1937	5.8845
6.1496	5.883
6.1062	5.8918
6.0633	5.9094
6.0211	5.9448
5.9794	5.98
5.9383	6.0207
5.8978	6.0625
5.8578	6.0808
5.8184	6.095
5.7794	6.1577
5.741	6.2119
5.7031	6.2483
5.6657	6.271
5.6288	6.2778
5.5924	6.2551
5.5564	6.2659
5.5209	6.2673
5.4859	6.2556
5.4513	6.2576
5.4171	6.2427
5.3833	6.2312
5.35	6.2214
5.3171	6.2197
5.2846	6.2146
5.2524	6.2178
5.2207	6.2134
5.1893	6.2014
5.1584	6.1833
5.1277	6.1699
5.0975	6.1543
5.0676	6.1597
5.038	6.165
5.0088	6.1699
4.98	6.185
4.9514	6.1836
4.9232	6.1997
4.8953	6.1985
4.8678	6.2175
4.8405	6.2363
4.8135	6.2632
4.7868	6.2822
4.7605	6.312
4.7344	6.3303
4.7086	6.3567
4.6831	6.3667
4.6578	6.3904
4.6328	6.4338
4.6081	6.4773
4.5837	6.501
4.5595	6.5295
4.5356	6.5627
4.5119	6.591
4.4884	6.5984
4.4652	6.5954
4.4423	6.6028
4.4196	6.6033
4.3971	6.6191
4.3748	6.6318
4.3528	6.6291
4.331	6.6357
4.3094	6.643
4.288	6.655
4.2668	6.6531
4.2458	6.6553
4.2251	6.6592
4.2045	6.6575
4.1841	6.6697
4.164	6.6775
4.144	6.6662
4.1242	6.6704
4.1046	6.6755
4.0852	6.6572
4.066	6.6611
4.047	6.647
4.0281	6.635
4.0094	6.6159
3.9909	6.5881
3.9725	6.5859
3.9544	6.5849
3.9363	6.5859
3.9185	6.5884
3.9008	6.5823
3.8833	6.5759
3.8659	6.5627
3.8487	6.5505
3.8316	6.5527
3.8147	6.5403
3.7979	6.5412
3.7813	6.5295
3.7648	6.5205
3.7485	6.4993
3.7323	6.4905
3.7162	6.4748
3.7003	6.4514
3.6845	6.4363
3.6689	6.4143
3.6534	6.4038
3.638	6.3696
3.6227	6.3523
3.6076	6.3274
3.5926	6.3066
3.5777	6.2905
3.563	6.2424
3.5484	6.1955
3.5338	6.1572
3.5195	6.053
3.5052	5.9121
3.491	5.9516
3.477	5.9653
3.463	5.9507
3.4492	5.8867
3.4355	5.8066
3.4219	5.7336
3.4084	5.7734
3.395	5.824
3.3817	5.8139
3.3685	5.8694
3.3554	5.8755
3.3425	5.8694
3.3296	5.8364
3.3168	5.8037
3.3041	5.7839
3.2915	5.7419
3.279	5.7087
3.2666	5.6777
3.2543	5.646
3.2421	5.605
3.23	5.5686
3.218	5.532
3.206	5.4885
3.1942	5.4485
3.1824	5.4079
3.1707	5.3613
3.1591	5.3447
3.1476	5.3022
3.1362	5.2453
3.1249	5.2085
3.1136	5.1826
3.1024	5.1377
3.0913	5.0923
3.0803	5.0769
3.0694	5.0444
3.0585	4.9946
3.0477	4.998
3.037	4.959
3.0264	4.9194
3.0158	4.8706
3.0053	4.8452
2.9949	4.8142
2.9845	4.792
2.9743	4.7617
2.9641	4.728
2.9539	4.7058
2.9439	4.6899
2.9339	4.6509
2.9239	4.6191
2.9141	4.582
2.9043	4.5452
2.8946	4.5303
2.8849	4.5171
2.8753	4.4809
2.8658	4.4541
2.8563	4.4272
2.8469	4.4016
2.8375	4.3894
2.8282	4.3721
2.819	4.3491
2.8098	4.3425
2.8007	4.3003
2.7917	4.2969
2.7827	4.2842
2.7738	4.292
2.7649	4.2788
2.7561	4.2632
2.7473	4.2358
2.7386	4.269
2.7299	4.1235
2.7213	4.1299
2.7128	4.4646
2.7043	4.4924
2.6959	4.479
2.6875	4.4695
2.6791	4.4292
2.6709	4.3935
2.6626	4.3845
2.6545	4.3489
2.6463	4.2974
2.6382	4.2507
2.6302	4.1826
2.6222	4.1665
2.6143	4.1411
2.6064	4.0974
2.5986	4.041
2.5908	4.0127
2.583	3.9809
2.5753	3.9414
2.5677	3.9221
2.5601	3.8833
2.5525	3.8516
2.545	3.8115
2.5375	3.7659
2.5301	3.7358
2.5227	3.7158
2.5154	3.6699
2.5081	3.6428
2.5008	3.6223
2.4936	3.5898
2.4864	3.552
2.4793	3.5537
2.4722	3.5276
2.4651	3.4849
2.4581	3.4497
2.4511	3.428
2.4442	3.395
2.4373	3.3486
2.4305	3.3518
2.4236	3.2971
2.4169	3.2695
2.4101	3.2705
2.4034	3.2746
2.3967	3.2395
2.3901	3.1767
2.3835	3.1623
2.377	3.1777
2.3704	3.1523
2.364	3.1487
2.3575	3.1367
2.3511	3.0771
2.3447	3.1164
2.3384	3.084
2.3321	3.0674
2.3258	3.0735
2.3195	3.0215
2.3133	3.0386
2.3071	3.0474
2.301	3.0234
2.2949	3.0176
2.2888	3.0063
2.2828	2.999
2.2767	3.0142
2.2708	2.9775
2.2648	2.977
2.2589	3.0244
2.253	2.9761
2.2471	2.9551
2.2413	2.9458
2.2355	2.9541
2.2297	2.9868
2.224	2.9419
2.2183	2.9629
2.2126	2.9668
2.207	2.9971
2.2013	2.9951
2.1957	2.9985
2.1902	2.9575
2.1846	2.9692
2.1791	2.9809
2.1736	2.96
2.1682	2.9883
2.1628	3.0117
2.1574	2.9453
2.152	3.0142
2.1466	2.9751
2.1413	3.0176
2.136	2.9614
2.1308	2.9717
2.1255	3.0063
2.1203	3.0088
2.1151	2.998
2.11	2.9912
2.1048	3.0273
2.0997	3.0278
2.0946	3.0337
2.0895	3.0571
2.0845	3.0337
2.0795	3.0395
