Name: Howlite Ca_2B_5SiO_9(OH)_5
Type: Mineral
Class: Borate
Subclass: None
Particle Size: Fine
Sample No.: B-5A
Owner: JPL
Wavelength Range: TIR
Origin: USA, California, San Gabriel Mountains, Tick Canyon
Description: Particle size was 0-45um.Collected by Burminco Original ASTER Spectral Library name was jpl.nicolet.mineral.borate.none.fine.b05a.spectrum.txt
Measurement: Hemispherical reflectance
X Units: Wavelength (micrometers)
Y Units: Reflectance (percent)
wavelength	value
15.3853	4.5599
15.1161	3.7591
14.8563	3.1568
14.6052	2.5149
14.3624	2.5114
14.1276	2.916
13.9004	7.2904
13.6803	7.8381
13.4671	8.5331
13.2604	6.6674
13.06	10.3784
12.8656	6.82
12.6769	9.3913
12.4936	8.1882
12.3155	5.8913
12.1425	4.4504
11.9742	3.6107
11.8106	3.4633
11.6513	3.8377
11.4963	3.4041
11.3454	2.7942
11.1983	2.8751
11.0551	3.682
10.9154	3.1396
10.7793	3.263
10.6465	4.3555
10.5169	5.6774
10.3904	6.0737
10.267	5.0552
10.1464	3.6975
10.0287	5.0608
9.9136	5.9017
9.8012	6.331
9.6913	5.9146
9.5838	5.9402
9.4787	5.4768
9.3758	5.586
9.2752	5.4503
9.1767	4.539
9.0803	3.9334
8.9858	2.9645
8.8934	2.4841
8.8028	2.6556
8.714	2.5568
8.627	1.9463
8.5417	1.348
8.4581	0.9244
8.3761	0.9199
8.2957	1.0678
8.2169	1.0456
8.1395	1.2388
8.0635	1.1057
7.989	0.717
7.9158	0.8247
7.8439	1.2673
7.7734	2.1633
7.7041	3.1382
7.636	3.3011
7.5691	2.9274
7.5034	3.8184
7.4388	4.0642
7.3753	2.9709
7.3129	1.7929
7.2515	1.1385
7.1912	1.6861
7.1318	1.5752
7.0734	1.5046
7.016	1.0938
6.9595	0.6987
6.9039	0.5882
6.8492	0.73
6.7953	0.7306
6.7423	0.9937
6.6901	1.7697
6.6387	2.8823
6.5881	3.8191
6.5382	4.8002
6.4892	5.774
6.4408	6.2901
6.3931	6.8897
6.3462	7.886
6.2999	8.3959
6.2543	8.9908
6.2094	9.3972
6.1651	9.7617
6.1214	10.2856
6.0784	11.184
6.0359	12.146
5.994	13.3376
5.9527	13.9172
5.912	14.648
5.8718	15.5367
5.8322	16.0522
5.7931	15.9356
5.7545	15.9952
5.7165	16.2738
5.6789	16.8536
5.6418	17.8766
5.6052	18.1575
5.5691	18.6169
5.5334	18.9381
5.4982	19.2259
5.4635	19.6837
5.4291	19.6129
5.3952	19.9171
5.3618	20.4877
5.3287	20.7933
5.2961	20.8833
5.2638	21.1216
5.2319	21.5705
5.2004	21.8589
5.1693	22.207
5.1386	22.8194
5.1082	23.5119
5.0782	24.3515
5.0485	24.8629
5.0192	25.305
4.9902	25.6329
4.9616	25.7485
4.9332	25.896
4.9052	26.008
4.8776	26.4407
4.8502	26.6261
4.8231	26.9964
4.7963	27.2038
4.7699	27.4343
4.7437	27.7383
4.7178	28.2681
4.6922	28.8323
4.6668	29.1071
4.6418	29.1524
4.617	29.4685
4.5924	29.9759
4.5681	30.3984
4.5441	30.3468
4.5203	30.253
4.4968	30.1235
4.4735	29.9282
4.4505	29.6405
4.4277	29.7729
4.4051	29.9737
4.3828	30.3347
4.3607	30.3267
4.3388	30.645
4.3171	31.065
4.2956	31.6902
4.2744	32.4796
4.2534	33.0921
4.2325	33.1725
4.2119	32.9395
4.1915	32.2031
4.1712	31.3394
4.1512	30.8438
4.1313	31.1911
4.1117	31.9477
4.0922	33.2868
4.0729	35.17
4.0538	37.393
4.0349	39.8184
4.0161	41.9874
3.9976	43.9018
3.9792	45.585
3.9609	46.5146
3.9428	47.4838
3.9249	47.9453
3.9072	48.174
3.8896	48.5355
3.8722	48.882
3.8549	49.3583
3.8378	49.7298
3.8208	49.9357
3.804	49.5942
3.7873	49.3101
3.7708	49.5373
3.7544	49.7147
3.7382	49.1942
3.7221	48.1825
3.7061	47.4701
3.6903	45.9267
3.6746	44.4838
3.659	42.915
3.6436	41.9727
3.6283	41.7336
3.6131	40.7127
3.5981	40.6899
3.5832	41.9334
3.5684	42.0055
3.5537	41.0056
3.5391	40.5329
3.5247	40.718
3.5104	40.5106
3.4962	39.8228
3.4821	38.8459
3.4681	37.419
3.4543	35.8096
3.4405	34.7666
3.4269	33.7379
3.4133	32.7095
3.3999	31.6967
3.3866	30.5252
3.3733	29.2769
3.3602	27.8911
3.3472	26.5757
3.3343	25.2392
3.3215	24.0839
3.3088	23.0344
3.2961	21.9439
3.2836	21.083
3.2712	20.1897
3.2588	19.3208
3.2466	18.1549
3.2345	17.0151
3.2224	16.0512
3.2104	15.3286
3.1985	14.632
3.1867	13.7266
3.175	12.4164
3.1634	10.8322
3.1519	8.7899
3.1404	6.6464
3.129	4.8238
3.1178	3.8337
3.1065	3.2403
3.0954	3.7249
3.0844	4.4759
3.0734	5.8273
3.0625	6.9473
3.0517	7.879
3.041	8.2151
3.0303	8.2695
3.0197	8.324
3.0092	8.4849
2.9987	8.5165
2.9884	8.8134
2.9781	8.7961
2.9678	7.7018
2.9577	5.6919
2.9476	2.843
2.9376	1.7121
2.9276	1.8874
2.9177	4.076
2.9079	6.583
2.8982	6.4574
2.8885	5.6984
2.8789	5.694
2.8693	4.1494
2.8598	2.7024
2.8504	2.6875
2.841	4.4685
2.8317	6.2241
2.8224	6.3367
2.8133	3.5442
2.8041	1.8487
2.7951	1.7166
2.786	4.4727
2.7771	7.5042
2.7682	11.4327
2.7594	14.724
2.7506	18.3013
2.7418	22.2076
2.7332	25.155
2.7246	29.4994
2.716	33.596
2.7075	38.6867
2.699	43.0448
2.6906	47.2758
2.6823	50.8903
2.674	53.5966
2.6657	56.181
2.6575	56.0222
2.6494	56.94
2.6413	58.0349
2.6332	59.3769
2.6252	60.164
2.6173	61.5432
2.6094	61.7457
2.6015	62.0357
2.5937	63.2014
2.5859	62.1132
2.5782	62.4522
2.5706	63.4841
2.5629	64.1844
2.5554	63.308
2.5478	63.2055
2.5403	63.1808
2.5329	63.2205
2.5255	62.0591
2.5181	61.3051
2.5108	60.4785
2.5035	58.7455
2.4963	57.5695
2.4891	55.5296
2.482	52.9719
2.4749	50.19
2.4678	46.4013
2.4608	44.8438
2.4538	45.6204
2.4468	48.6496
2.4399	51.1309
2.4331	51.7125
2.4262	53.6926
2.4194	56.2243
2.4127	59.1807
2.4059	62.4186
2.3993	64.9348
2.3926	66.6335
2.386	68.5684
2.3795	69.7757
2.3729	70.5638
2.3664	71.2081
2.36	71.2659
2.3535	71.2744
2.3471	72.6077
2.3408	73.0981
2.3345	73.0063
2.3282	71.9374
2.3219	71.0577
2.3157	70.7956
2.3095	69.7664
2.3034	69.5927
2.2972	69.4035
2.2911	69.989
2.2851	70.1055
2.279	70.0124
2.2731	69.5982
2.2671	68.653
2.2612	67.2603
2.2553	65.682
2.2494	64.6989
2.2435	64.3647
2.2377	64.7333
2.232	65.3259
2.2262	66.108
2.2205	66.7334
2.2148	67.4377
2.2091	67.4773
2.2035	67.6851
2.1979	67.4632
2.1923	66.7278
2.1868	65.2606
2.1812	64.0491
2.1758	62.5433
2.1703	60.7233
2.1649	59.3125
2.1595	59.3663
2.1541	60.6921
2.1487	61.9694
2.1434	62.1591
2.1381	60.8914
2.1328	58.6033
2.1275	58.1924
2.1223	60.3164
2.1171	63.5335
2.112	65.5978
2.1068	66.8066
2.1017	67.6981
2.0966	69.4057
2.0915	71.2662
2.0865	73.3452
2.0814	75.5416
2.0764	77.5411
2.0715	79.5986
2.0665	81.1358
2.0616	82.1306
2.0567	82.457
2.0518	83.1924
2.0469	83.5936
2.0421	83.565
2.0373	83.1776
2.0325	82.4183
2.0277	82.5977
2.0229	83.2959
2.0182	84.2766
2.0135	83.9868
2.0088	83.9288
2.0042	84.562
