Name: Hematite a-Fe2O3
Type: Mineral
Class: Oxide
Subclass: None
Particle Size: Coarse
Sample No.: hematite_1
Owner: JHU
Wavelength Range: TIR
Origin: Frizington, Cumberland, England via the Smithsonian (sampleno. NMNH B7373)
Description: The sample was a 2.5 cm x 2.5 cm x 1 cm sawn plate, deep red in color and weighing 15.3 g.  It appears clean with no impurities in hand sample or microscopically. Particle size was 74-250 micrometers.(Hematite Group) Original ASTER Spectral Library name was jhu.nicolet.mineral.oxide.none.coarse.hemati1.spectrum.txt
Measurement: Bidirectional reflectance
X Units: Wavelength (micrometers)
Y Units: Reflectance (percent)
wavelength	value
25.0442	6.4726
24.3388	6.4521
23.6719	8.1933
23.0407	10.5884
22.4422	11.4511
21.8741	11.7846
21.334	11.9753
20.8199	11.2387
20.33	8.0281
19.8627	6.5273
19.4163	9.112
18.9896	11.9341
18.5812	13.5449
18.19	14.1526
17.815	14.2942
17.4551	14.0698
17.1094	13.6035
16.7772	13.333
16.4576	13.0141
16.15	12.5014
15.8537	11.7426
15.568	11.1252
15.2925	9.541
15.0265	6.3459
14.7697	3.3225
14.5214	1.5911
14.2814	1.2341
14.0492	1.365
13.8244	1.5771
13.6067	1.7612
13.3957	1.978
13.1912	2.1841
12.9929	2.3789
12.8004	2.4661
12.6135	2.5632
12.432	2.6685
12.2557	2.748
12.0843	2.7922
11.9176	2.9036
11.7555	2.918
11.5977	2.9685
11.444	3.0168
11.2944	3.0588
11.1487	3.0708
11.0067	3.0967
10.8682	3.1025
10.7332	3.1194
10.6015	3.1826
10.473	3.198
10.3476	3.2129
10.2251	3.25
10.1056	3.2844
9.9887	3.3144
9.8746	3.3025
9.763	3.3025
9.6539	3.2939
9.5472	3.2947
9.4429	3.335
9.3408	3.3411
9.2409	3.3506
9.1431	3.3923
9.0474	3.4026
8.9536	3.457
8.8618	3.4822
8.7718	3.5464
8.6837	3.5898
8.5973	3.6379
8.5126	3.7414
8.4295	3.8581
8.3481	4.0137
8.2682	4.2331
8.1898	4.5132
8.1129	4.8503
8.0374	5.1968
7.9634	5.4809
7.8906	5.6931
7.8192	5.8974
7.7491	6.1025
7.6802	6.2207
7.6126	6.2695
7.5461	6.2825
7.4807	6.2959
7.4165	6.2834
7.3534	6.2788
7.2914	6.2512
7.2303	6.1997
7.1703	6.1821
7.1113	6.1579
7.0533	6.0959
6.9962	6.0115
6.94	5.8633
6.8847	5.6594
6.8302	5.4426
6.7767	5.2348
6.7239	5.0188
6.672	4.8003
6.6209	4.6496
6.5705	4.5444
6.5209	4.5715
6.4721	4.6892
6.424	4.8669
6.3766	5.1589
6.3299	5.4455
6.2838	5.6286
6.2385	5.6584
6.1937	5.5327
6.1496	5.4011
6.1062	5.414
6.0633	5.5476
6.0211	5.7785
5.9794	6.0166
5.9383	6.2331
5.8978	6.5427
5.8578	6.824
5.8184	6.9643
5.7794	7.1448
5.741	7.2351
5.7031	7.2998
5.6657	7.353
5.6288	7.3645
5.5924	7.3767
5.5564	7.3733
5.5209	7.3845
5.4859	7.384
5.4513	7.3742
5.4171	7.342
5.3833	7.3059
5.35	7.271
5.3171	7.2356
5.2846	7.2168
5.2524	7.1792
5.2207	7.134
5.1893	7.0993
5.1584	7.0744
5.1277	7.0654
5.0975	7.0625
5.0676	7.0554
5.038	7.0583
5.0088	7.0657
4.98	7.0691
4.9514	7.0471
4.9232	7.03
4.8953	7.0049
4.8678	6.9729
4.8405	6.9399
4.8135	6.8984
4.7868	6.8552
4.7605	6.8386
4.7344	6.8061
4.7086	6.7829
4.6831	6.7641
4.6578	6.7571
4.6328	6.7688
4.6081	6.7651
4.5837	6.8005
4.5595	6.8398
4.5356	6.8852
4.5119	6.9565
4.4884	7.053
4.4652	7.1191
4.4423	7.1999
4.4196	7.2685
4.3971	7.3157
4.3748	7.3462
4.3528	7.3852
4.331	7.4006
4.3094	7.4101
4.288	7.4219
4.2668	7.3882
4.2458	7.4275
4.2251	7.4663
4.2045	7.4743
4.1841	7.4709
4.164	7.4822
4.144	7.4717
4.1242	7.4612
4.1046	7.4536
4.0852	7.4485
4.066	7.4338
4.047	7.4143
4.0281	7.3794
4.0094	7.3511
3.9909	7.3154
3.9725	7.2883
3.9544	7.23
3.9363	7.1841
3.9185	7.1299
3.9008	7.0679
3.8833	7.0088
3.8659	6.9365
3.8487	6.8613
3.8316	6.7849
3.8147	6.7261
3.7979	6.6404
3.7813	6.5564
3.7648	6.4795
3.7485	6.3887
3.7323	6.3235
3.7162	6.2324
3.7003	6.1487
3.6845	6.0574
3.6689	5.9824
3.6534	5.8874
3.638	5.8208
3.6227	5.7541
3.6076	5.6897
3.5926	5.6033
3.5777	5.5381
3.563	5.4668
3.5484	5.3857
3.5338	5.3159
3.5195	5.2507
3.5052	5.1894
3.491	5.1318
3.477	5.073
3.463	5.019
3.4492	4.9731
3.4355	4.9209
3.4219	4.8581
3.4084	4.7932
3.395	4.7534
3.3817	4.7099
3.3685	4.6662
3.3554	4.624
3.3425	4.5803
3.3296	4.5378
3.3168	4.4973
3.3041	4.4609
3.2915	4.4028
3.279	4.3628
3.2666	4.3269
3.2543	4.2988
3.2421	4.2549
3.23	4.2263
3.218	4.1706
3.206	4.1426
3.1942	4.1206
3.1824	4.0884
3.1707	4.0561
3.1591	4.0159
3.1476	3.9907
3.1362	3.9673
3.1249	3.947
3.1136	3.9038
3.1024	3.876
3.0913	3.8784
3.0803	3.8345
3.0694	3.8076
3.0585	3.7978
3.0477	3.7808
3.037	3.7649
3.0264	3.7466
3.0158	3.6982
3.0053	3.6875
2.9949	3.6567
2.9845	3.6296
2.9743	3.5918
2.9641	3.5586
2.9539	3.5227
2.9439	3.5068
2.9339	3.5273
2.9239	3.5203
2.9141	3.5339
2.9043	3.5359
2.8946	3.5593
2.8849	3.6045
2.8753	3.6211
2.8658	3.6553
2.8563	3.6675
2.8469	3.7112
2.8375	3.7615
2.8282	3.833
2.819	3.8996
2.8098	3.9853
2.8007	4.094
2.7917	4.2012
2.7827	4.3069
2.7738	4.4543
2.7649	4.6357
2.7561	4.9507
2.7473	5.3484
2.7386	5.8215
2.7299	6.3056
2.7213	6.7507
2.7128	7.0996
2.7043	7.2739
2.6959	7.5039
2.6875	7.6955
2.6791	7.8222
2.6709	8.1301
2.6626	8.3606
2.6545	8.3677
2.6463	8.4241
2.6382	8.458
2.6302	8.4487
2.6222	8.5176
2.6143	8.4743
2.6064	8.459
2.5986	8.5105
2.5908	8.5217
2.583	8.4988
2.5753	8.5063
2.5677	8.4802
2.5601	8.4367
2.5525	8.4497
2.545	8.4236
2.5375	8.3952
2.5301	8.3967
2.5227	8.3528
2.5154	8.3559
2.5081	8.3366
2.5008	8.344
2.4936	8.3218
2.4864	8.2969
2.4793	8.2595
2.4722	8.2085
2.4651	8.1921
2.4581	8.1855
2.4511	8.1872
2.4442	8.1323
2.4373	8.1267
2.4305	8.1116
2.4236	8.1155
2.4169	8.0681
2.4101	8.0835
2.4034	8.0412
2.3967	8.0442
2.3901	7.9844
2.3835	8.0034
2.377	7.9985
2.3704	7.9721
2.364	7.9346
2.3575	7.9575
2.3511	7.9109
2.3447	7.8913
2.3384	7.8196
2.3321	7.7871
2.3258	7.7807
2.3195	7.7851
2.3133	7.7114
2.3071	7.7475
2.301	7.7141
2.2949	7.7104
2.2888	7.6726
2.2828	7.7175
2.2767	7.6736
2.2708	7.643
2.2648	7.656
2.2589	7.6267
2.253	7.6052
2.2471	7.5185
2.2413	7.529
2.2355	7.5688
2.2297	7.5908
2.224	7.5332
2.2183	7.5337
2.2126	7.5249
2.207	7.4897
2.2013	7.4534
2.1957	7.4287
2.1902	7.4385
2.1846	7.4243
2.1791	7.4211
2.1736	7.3745
2.1682	7.436
2.1628	7.4038
2.1574	7.3911
2.152	7.3496
2.1466	7.2832
2.1413	7.2766
2.136	7.2993
2.1308	7.27
2.1255	7.25
2.1203	7.2617
2.1151	7.2495
2.11	7.2485
2.1048	7.1907
2.0997	7.1504
2.0946	7.1968
2.0895	7.2038
2.0845	7.168
2.0795	7.1377
