Name: Natrolite Na2Al2Si3O10.2H2O
Type: Mineral
Class: Silicate
Subclass: Tectosilicate
Particle Size: Fine
Sample No.: natrol_1
Owner: JHU
Wavelength Range: TIR
Origin: Poonah, India via Hunt and Salisbury Collection #169B
Description: The sample appeared to be pure natrolite, although most grains were permeated with what appeared to be fluid inclusions.Particle size was Less than 2 Micrometers.(Framework Silicates); (ZeoliteGroup) Original ASTER Spectral Library name was jhu.nicolet.mineral.silicate.tectosilicate.powder.natrol1.spectrum.txt
Measurement: Transmission
X Units: Wavelength (micrometers)
Y Units: Transmittance (percent)
wavelength	value
25.0442	63.4608
24.3388	48.5643
23.6719	31.1796
23.0407	48.1952
22.4422	48.0077
21.8741	58.9696
21.334	60.535
20.8199	55.7127
20.33	51.8055
19.8627	56.1795
19.4163	53.9105
18.9896	63.1746
18.5812	62.6117
18.19	62.9383
17.815	65.8953
17.4551	62.5218
17.1094	59.9022
16.7772	57.3421
16.4576	54.6551
16.15	45.122
15.8537	42.4696
15.568	56.2557
15.2925	57.5428
15.0265	60.2205
14.7697	53.4076
14.5214	56.4315
14.2814	58.1371
14.0492	60.9637
13.8244	60.1063
13.6067	66.4483
13.3957	69.0125
13.1912	71.6043
12.9929	74.366
12.8004	77.4268
12.6135	80.0682
12.432	82.4383
12.2557	83.2566
12.0843	82.6541
11.9176	80.1797
11.7555	76.9756
11.5977	74.2081
11.444	72.0206
11.2944	70.9962
11.1487	70.3499
11.0067	68.826
10.8682	65.1995
10.7332	58.076
10.6015	46.4467
10.473	30.2619
10.3476	10.8872
10.2251	7.0893
10.1056	4.4529
9.9887	5.2788
9.8746	10.0249
9.763	20.1594
9.6539	19.9487
9.5472	15.8947
9.4429	12.9094
9.3408	14.0478
9.2409	17.7656
9.1431	16.9816
9.0474	23.2951
8.9536	32.3947
8.8618	41.4599
8.7718	47.5978
8.6837	53.2723
8.5973	58.9498
8.5126	64.7762
8.4295	70.3592
8.3481	75.0789
8.2682	78.5965
8.1898	80.9978
8.1129	82.6331
8.0374	83.8504
7.9634	84.7918
7.8906	85.5008
7.8192	86.2322
7.7491	86.5984
7.6802	87.2063
7.6126	87.5598
7.5461	87.9512
7.4807	88.261
7.4165	88.5322
7.3534	88.6594
7.2914	88.8074
7.2303	89.0452
7.1703	89.1619
7.1113	89.2976
7.0533	89.4407
6.9962	89.6699
6.94	89.7078
6.8847	89.6853
6.8302	89.8889
6.7767	90.095
6.7239	90.4385
6.672	90.5432
6.6209	90.6355
6.5705	90.678
6.5209	90.5969
6.4721	90.5281
6.424	90.3069
6.3766	90.0603
6.3299	89.637
6.2838	89.2312
6.2385	88.4046
6.1937	87.1702
6.1496	83.3443
6.1062	81.9661
6.0633	84.947
6.0211	86.2102
5.9794	87.301
5.9383	88.5982
5.8978	89.5618
5.8578	90.2014
5.8184	90.7092
5.7794	90.9109
5.741	91.2605
5.7031	91.5505
5.6657	91.7048
5.6288	91.8899
5.5924	91.9412
5.5564	92.0667
5.5209	92.1336
5.4859	92.1155
5.4513	92.3279
5.4171	92.4421
5.3833	92.5501
5.35	92.6223
5.3171	92.7678
5.2846	92.8987
5.2524	92.9436
5.2207	93.0383
5.1893	93.0574
5.1584	93.093
5.1277	93.0496
5.0975	93.0867
5.0676	93.0266
5.038	92.9524
5.0088	93.0725
4.98	93.0894
4.9514	93.1587
4.9232	93.0276
4.8953	93.043
4.8678	92.9436
4.8405	92.9116
4.8135	92.8877
4.7868	92.7932
4.7605	92.6265
4.7344	92.2715
4.7086	91.7161
4.6831	91.1902
4.6578	91.1621
4.6328	91.6524
4.6081	92.1821
4.5837	92.5217
4.5595	92.531
4.5356	92.6248
4.5119	92.6336
4.4884	92.7129
4.4652	92.793
4.4423	92.8381
4.4196	92.8945
4.3971	92.8992
4.3748	92.9778
4.3528	92.968
4.331	92.9876
4.3094	92.9985
4.288	92.9658
4.2668	93.0418
4.2458	93.0022
4.2251	93.0596
4.2045	93.0674
4.1841	93.0664
4.164	93.1289
4.144	93.0877
4.1242	93.2097
4.1046	93.2615
4.0852	93.2844
4.066	93.2219
4.047	93.262
4.0281	93.2961
4.0094	93.3318
3.9909	93.3435
3.9725	93.4119
3.9544	93.3635
3.9363	93.3164
3.9185	93.3704
3.9008	93.345
3.8833	93.2878
3.8659	93.282
3.8487	93.2107
3.8316	93.1301
3.8147	93.1213
3.7979	93.084
3.7813	92.9324
3.7648	92.8662
3.7485	92.8513
3.7323	92.6511
3.7162	92.614
3.7003	92.4219
3.6845	92.3565
3.6689	92.2766
3.6534	92.0442
3.638	92.0374
3.6227	91.8467
3.6076	91.7288
3.5926	91.53
3.5777	91.4334
3.563	91.2224
3.5484	90.9739
3.5338	90.7171
3.5195	90.4697
3.5052	90.1055
3.491	90.0213
3.477	89.7764
3.463	89.5791
3.4492	89.3318
3.4355	88.9153
3.4219	88.3633
3.4084	88.1084
3.395	88.0791
3.3817	87.7586
3.3685	87.5823
3.3554	87.3174
3.3425	87.0672
3.3296	86.6111
3.3168	86.095
3.3041	85.6844
3.2915	85.242
3.279	84.794
3.2666	84.3408
3.2543	83.8035
3.2421	83.3262
3.23	82.7625
3.218	82.2344
3.206	81.4932
3.1942	80.6785
3.1824	79.5127
3.1707	78.1123
3.1591	76.4803
3.1476	75.0286
3.1362	74.3421
3.1249	74.032
3.1136	73.5643
3.1024	72.9197
3.0913	72.9437
3.0803	73.1663
3.0694	72.8016
3.0585	72.0115
3.0477	70.6898
3.037	68.0482
3.0264	63.5863
3.0158	57.1278
3.0053	54.1761
2.9949	57.9857
2.9845	61.7684
2.9743	63.867
2.9641	64.6859
2.9539	64.9339
2.9439	65.1248
2.9339	65.6976
2.9239	65.9549
2.9141	66.2547
2.9043	66.5184
2.8946	66.5438
2.8849	66.4241
2.8753	66.7327
2.8658	67.4295
2.8563	67.3905
2.8469	64.9652
2.8375	57.2293
2.8282	45.455
2.819	47.6503
2.8098	57.7035
2.8007	63.7625
2.7917	67.6312
2.7827	70.5526
2.7738	72.6663
2.7649	75.0335
2.7561	77.2679
2.7473	79.4793
2.7386	81.4627
2.7299	83.4217
2.7213	84.951
2.7128	86.0652
2.7043	86.6043
2.6959	87.1194
2.6875	87.2737
2.6791	87.6814
2.6709	87.9124
2.6626	87.8006
2.6545	87.905
2.6463	87.8382
2.6382	88.1287
2.6302	88.2019
2.6222	88.1077
2.6143	88.3435
2.6064	88.2049
2.5986	88.346
2.5908	88.3928
2.583	88.572
2.5753	88.3342
2.5677	88.2776
2.5601	88.3406
2.5525	88.2547
2.545	88.3172
2.5375	88.4246
2.5301	88.4187
2.5227	88.1736
2.5154	88.1658
2.5081	88.3963
2.5008	88.2273
2.4936	88.1961
2.4864	88.2957
2.4793	88.1463
2.4722	88.0183
2.4651	87.9646
2.4581	88.28
2.4511	87.9158
2.4442	87.7986
2.4373	87.9939
2.4305	87.8123
2.4236	88.0584
2.4169	87.824
2.4101	87.9656
2.4034	87.8865
2.3967	88.0994
2.3901	87.8367
2.3835	87.9617
2.377	87.8523
2.3704	87.9256
2.364	87.7263
2.3575	87.7244
2.3511	88.0076
2.3447	87.7625
2.3384	87.7937
2.3321	87.6687
2.3258	87.5896
2.3195	87.7429
2.3133	87.7234
2.3071	87.7771
2.301	87.6209
2.2949	87.6023
2.2888	87.8914
2.2828	87.5681
2.2767	87.614
2.2708	87.6092
2.2648	87.8162
2.2589	87.5623
2.253	87.9412
2.2471	87.5945
2.2413	87.4617
2.2355	87.8679
2.2297	87.9343
2.224	87.5281
2.2183	87.5818
2.2126	87.531
2.207	87.6951
2.2013	87.4812
2.1957	87.7185
2.1902	87.8377
2.1846	87.4187
2.1791	87.4256
2.1736	87.8279
2.1682	87.9422
2.1628	88.0711
2.1574	88.0408
2.152	87.7439
2.1466	87.4724
2.1413	87.822
2.136	87.7107
2.1308	88.033
2.1255	87.7049
2.1203	87.865
2.1151	88.1716
2.11	87.7459
2.1048	87.8631
2.0997	87.9549
2.0946	88.3552
2.0895	88.1814
2.0845	87.9549
2.0795	87.867
