Name: Quartz SiO_2
Type: Mineral
Class: Silicate
Subclass: Tectosilicate
Particle Size: Coarse
Sample No.: TS-1C
Owner: JPL
Wavelength Range: TIR
Origin: USA, South Dakota, Custer County, Custer
Description: Rose quartz. Particle size was 125-500um.Collected by Ward's Original ASTER Spectral Library name was jpl.nicolet.mineral.silicate.tectosilicate.coarse.ts01c.spectrum.txt
Measurement: Hemispherical reflectance
X Units: Wavelength (micrometers)
Y Units: Reflectance (percent)
wavelength	value
15.3853	3.722
15.1161	3.6919
14.8563	3.9823
14.6052	4.3646
14.3624	4.4812
14.1276	3.6848
13.9004	4.1161
13.6803	4.9336
13.4671	5.2139
13.2604	5.7835
13.06	7.2641
12.8656	13.0875
12.6769	10.0874
12.4936	12.4013
12.3155	1.4616
12.1425	1.867
11.9742	2.621
11.8106	3.5289
11.6513	3.8565
11.4963	4.1297
11.3454	4.727
11.1983	5.0711
11.0551	5.4057
10.9154	5.6683
10.7793	6.0912
10.6465	6.6032
10.5169	7.0182
10.3904	7.6051
10.267	8.2374
10.1464	9.2134
10.0287	9.8726
9.9136	11.0856
9.8012	12.8626
9.6913	15.1549
9.5838	18.3753
9.4787	24.7078
9.3758	40.8296
9.2752	55.4567
9.1767	58.5098
9.0803	59.8901
8.9858	60.7665
8.8934	60.4507
8.8028	57.8548
8.714	53.1228
8.627	33.9047
8.5417	54.2027
8.4581	55.6076
8.3761	53.5065
8.2957	51.5868
8.2169	49.0416
8.1395	39.011
8.0635	24.5147
7.989	15.1308
7.9158	8.3558
7.8439	4.3625
7.7734	2.5627
7.7041	1.3189
7.636	0.6231
7.5691	0.2323
7.5034	0.0905
7.4388	0.0564
7.3753	0.0488
7.3129	0.1147
7.2515	0.1634
7.1912	0.2662
7.1318	0.0883
7.0734	0.3047
7.016	0.2729
6.9595	0.3118
6.9039	0.3775
6.8492	0.5172
6.7953	0.5261
6.7423	0.5351
6.6901	0.4812
6.6387	0.679
6.5881	0.6385
6.5382	0.6641
6.4892	0.8002
6.4408	1.0856
6.3931	1.0734
6.3462	0.9334
6.2999	0.7854
6.2543	0.9446
6.2094	0.8926
6.1651	0.8939
6.1214	0.8684
6.0784	1.2912
6.0359	1.2428
5.994	1.1473
5.9527	1.276
5.912	1.1737
5.8718	1.3698
5.8322	1.6203
5.7931	1.8282
5.7545	2.2081
5.7165	2.4894
5.6789	2.2005
5.6418	1.5855
5.6052	1.4704
5.5691	1.3953
5.5334	1.4596
5.4982	1.5955
5.4635	1.793
5.4291	1.742
5.3952	1.3876
5.3618	1.3478
5.3287	1.3304
5.2961	1.3194
5.2638	1.3457
5.2319	1.5754
5.2004	1.8769
5.1693	1.8665
5.1386	1.8272
5.1082	1.7578
5.0782	1.6979
5.0485	1.5933
5.0192	1.725
4.9902	1.7405
4.9616	1.925
4.9332	2.3927
4.9052	3.6538
4.8776	7.6081
4.8502	11.77
4.8231	15.2312
4.7963	18.2174
4.7699	20.7714
4.7437	22.6773
4.7178	23.0625
4.6922	18.9524
4.6668	19.7931
4.6418	25.4717
4.617	29.9645
4.5924	32.0308
4.5681	31.8661
4.5441	28.3302
4.5203	21.7183
4.4968	15.6088
4.4735	13.7887
4.4505	14.9747
4.4277	16.726
4.4051	19.3672
4.3828	23.1302
4.3607	27.7782
4.3388	30.5557
4.3171	30.745
4.2956	29.4422
4.2744	30.0036
4.2534	32.2489
4.2325	32.1173
4.2119	33.1803
4.1915	33.7819
4.1712	35.8715
4.1512	37.4984
4.1313	39.197
4.1117	41.479
4.0922	43.9981
4.0729	45.8308
4.0538	46.5459
4.0349	46.046
4.0161	45.6102
3.9976	45.9459
3.9792	47.1548
3.9609	48.7556
3.9428	50.6503
3.9249	51.84
3.9072	51.8173
3.8896	50.6442
3.8722	49.3251
3.8549	48.7939
3.8378	48.979
3.8208	50.0305
3.804	50.7003
3.7873	50.4185
3.7708	49.2795
3.7544	48.2183
3.7382	48.0599
3.7221	49.0093
3.7061	51.0919
3.6903	53.9441
3.6746	56.5237
3.659	58.6807
3.6436	59.6869
3.6283	60.1376
3.6131	60.3705
3.5981	60.8015
3.5832	61.6228
3.5684	62.6828
3.5537	64.0065
3.5391	65.2854
3.5247	66.5076
3.5104	67.1983
3.4962	67.8869
3.4821	68.9634
3.4681	69.5876
3.4543	69.8177
3.4405	69.5052
3.4269	68.701
3.4133	67.8472
3.3999	68.1622
3.3866	68.1304
3.3733	67.8021
3.3602	68.0768
3.3472	68.0266
3.3343	67.5963
3.3215	67.1492
3.3088	66.2117
3.2961	65.4857
3.2836	64.5941
3.2712	63.9798
3.2588	63.4279
3.2466	62.6497
3.2345	61.8833
3.2224	61.091
3.2104	60.2735
3.1985	59.4034
3.1867	58.4088
3.175	57.6755
3.1634	56.6377
3.1519	55.4904
3.1404	53.8217
3.129	52.6513
3.1178	52.2743
3.1065	52.1369
3.0954	52.1106
3.0844	51.5809
3.0734	50.7658
3.0625	50.1798
3.0517	49.0344
3.041	47.6673
3.0303	46.807
3.0197	46.2916
3.0092	46.5284
2.9987	46.9742
2.9884	47.0699
2.9781	45.9132
2.9678	42.4797
2.9577	40.3586
2.9476	43.4092
2.9376	45.1035
2.9276	45.6299
2.9177	45.3222
2.9079	46.1862
2.8982	47.626
2.8885	48.6372
2.8789	48.6087
2.8693	47.5791
2.8598	50.6555
2.8504	51.7814
2.841	52.5394
2.8317	53.2189
2.8224	53.8031
2.8133	54.8765
2.8041	56.1429
2.7951	56.813
2.786	57.9642
2.7771	58.4589
2.7682	58.7492
2.7594	58.1547
2.7506	59.2325
2.7418	61.9531
2.7332	63.5911
2.7246	67.1847
2.716	70.1084
2.7075	72.9768
2.699	74.94
2.6906	77.2757
2.6823	78.9725
2.674	80.1402
2.6657	81.7616
2.6575	81.0363
2.6494	81.3054
2.6413	81.5425
2.6332	81.9816
2.6252	81.8663
2.6173	82.5544
2.6094	82.146
2.6015	82.1607
2.5937	83.009
2.5859	82.4406
2.5782	82.0587
2.5706	82.3485
2.5629	82.7002
2.5554	82.1667
2.5478	82.3657
2.5403	82.3813
2.5329	82.4742
2.5255	82.3882
2.5181	82.5577
2.5108	82.4282
2.5035	82.4378
2.4963	82.6129
2.4891	82.6333
2.482	82.6688
2.4749	82.8248
2.4678	82.9457
2.4608	82.9608
2.4538	83.0198
2.4468	83.1884
2.4399	83.0105
2.4331	83.1907
2.4262	83.3706
2.4194	83.5018
2.4127	83.3663
2.4059	83.4376
2.3993	83.5443
2.3926	83.6161
2.386	83.4915
2.3795	83.6047
2.3729	83.6054
2.3664	83.6743
2.36	83.6539
2.3535	83.547
2.3471	83.7389
2.3408	83.7995
2.3345	83.8945
2.3282	83.8713
2.3219	84.0203
2.3157	84.0202
2.3095	83.9377
2.3034	84.0077
2.2972	83.9505
2.2911	84.0626
2.2851	84.1546
2.279	84.1199
2.2731	84.0386
2.2671	84.0799
2.2612	84.1
2.2553	84.3278
2.2494	83.9728
2.2435	84.0182
2.2377	84.1559
2.232	83.9954
2.2262	83.9569
2.2205	83.9609
2.2148	83.7796
2.2091	83.7184
2.2035	83.7579
2.1979	83.7371
2.1923	83.6852
2.1868	83.7339
2.1812	83.6811
2.1758	84.0292
2.1703	84.0409
2.1649	84.1764
2.1595	83.9349
2.1541	84.0487
2.1487	84.1097
2.1434	84.1062
2.1381	84.2032
2.1328	84.2091
2.1275	84.095
2.1223	83.9704
2.1171	84.0887
2.112	84.0634
2.1068	84.1697
2.1017	84.2295
2.0966	84.0955
2.0915	84.1676
2.0865	84.077
2.0814	83.9839
2.0764	83.9034
2.0715	84.2155
2.0665	84.1236
2.0616	83.8072
2.0567	83.9336
2.0518	84.0132
2.0469	83.8111
2.0421	83.8165
2.0373	83.9837
2.0325	83.3653
2.0277	83.8728
2.0229	83.6673
2.0182	83.4579
2.0135	83.3775
2.0088	83.4242
2.0042	83.451
