Name: Chlorite
Type: Mineral
Class: Silicate
Subclass: Phyllosilicate
Particle Size: Medium
Sample No.: PS-12C
Owner: JPL
Wavelength Range: VSWIR
Origin: USA, California
Description: Particle size was 45-125um.Collected by Ward's Original ASTER Spectral Library name was jpl.beckman.mineral.silicate.phyllosilicate.medium.ps12c.spectrum.txt
Measurement: Hemispherical reflectance
X Units: Wavelength (micrometers)
Y Units: Reflectance (percent)
wavelength	value
0.4	17.31
0.403	17.54
0.406	17.71
0.409	18.09
0.412	18.32
0.415	18.64
0.418	18.98
0.421	19.41
0.424	19.83
0.427	20.13
0.43	20.41
0.433	20.57
0.436	20.83
0.439	21.25
0.442	21.47
0.445	21.39
0.448	21.5
0.451	21.49
0.454	21.7
0.457	22.13
0.46	22.44
0.463	22.86
0.466	23.36
0.469	23.64
0.472	24.38
0.475	24.69
0.478	25.07
0.481	25.49
0.484	25.74
0.487	25.72
0.49	25.81
0.493	25.9
0.496	26.06
0.499	26.48
0.502	26.72
0.505	26.96
0.508	27.08
0.511	27.23
0.514	27.01
0.517	27.06
0.52	27.12
0.523	27.03
0.526	26.9
0.529	27.01
0.532	26.81
0.535	26.84
0.538	26.83
0.541	26.81
0.544	26.82
0.547	26.96
0.55	26.9
0.553	26.75
0.556	26.74
0.559	26.87
0.562	26.77
0.565	26.62
0.568	26.49
0.571	26.4
0.574	26.11
0.577	26.09
0.58	26
0.583	25.82
0.586	25.46
0.589	25.51
0.592	25.18
0.595	25.16
0.598	24.99
0.601	24.77
0.604	24.53
0.607	24.46
0.61	24.15
0.613	24.01
0.616	23.8
0.619	23.63
0.622	23.41
0.625	23.14
0.628	22.99
0.631	22.7
0.634	22.56
0.637	22.41
0.64	22.2
0.643	21.95
0.646	21.86
0.649	21.53
0.652	21.48
0.655	21.33
0.658	21.09
0.661	20.97
0.664	20.88
0.667	20.57
0.67	20.48
0.673	20.35
0.676	20.23
0.679	20.12
0.682	19.99
0.685	19.97
0.688	19.74
0.691	19.74
0.694	19.67
0.697	19.68
0.7	19.48
0.703	19.55
0.706	19.49
0.709	19.43
0.712	19.58
0.715	19.6
0.718	19.55
0.721	19.53
0.724	19.63
0.727	19.78
0.73	19.86
0.733	20.04
0.736	19.92
0.739	20.22
0.742	20.15
0.745	20.37
0.748	20.51
0.751	20.79
0.754	20.75
0.757	20.82
0.76	21.13
0.763	21.26
0.766	21.42
0.769	21.66
0.772	21.94
0.775	21.91
0.778	22.04
0.781	22.2
0.784	22.34
0.787	22.42
0.79	22.66
0.793	22.59
0.796	22.63
0.799	22.68
0.808	22.95
0.82	22.82
0.832	22.44
0.844	22.11
0.856	21.76
0.868	21.62
0.88	21.35
0.892	21.4
0.904	21.59
0.916	21.77
0.928	22.27
0.94	22.56
0.952	23.08
0.964	23.56
0.976	23.92
0.988	24.22
1	24.43
1.012	24.6
1.024	24.64
1.036	24.76
1.048	24.69
1.06	24.79
1.072	24.84
1.084	24.95
1.096	25.09
1.108	25.4
1.12	25.62
1.132	25.99
1.144	26.49
1.156	26.86
1.168	27.5
1.18	27.9
1.192	28.73
1.204	29.4
1.216	30.14
1.228	30.87
1.24	31.69
1.252	32.49
1.264	33.36
1.276	34.18
1.288	34.9
1.3	35.77
1.312	36.49
1.324	37.37
1.336	38.24
1.348	39.01
1.36	39.84
1.372	40.31
1.384	34.64
1.396	38.25
1.408	39.9
1.42	40.84
1.432	40.88
1.444	41.69
1.456	42.92
1.468	44.13
1.48	44.92
1.492	45.55
1.504	45.86
1.516	46.36
1.528	46.7
1.54	47.48
1.552	48.17
1.564	49
1.576	49.89
1.588	50.95
1.6	51.76
1.612	52.76
1.624	53.58
1.636	54.51
1.648	55.22
1.66	56.08
1.672	56.62
1.684	57.45
1.696	58.04
1.708	58.62
1.72	59.12
1.732	59.52
1.744	60.08
1.756	60.44
1.768	60.78
1.78	61.08
1.792	61.27
1.804	61.25
1.816	61.23
1.828	61.02
1.84	60.53
1.852	59.79
1.864	59
1.876	58.64
1.888	59.19
1.9	59.49
1.912	59.41
1.924	59.08
1.936	58.34
1.948	57.26
1.96	56.51
1.972	55.61
1.984	55.18
1.996	55.47
2.008	56.69
2.02	58.7
2.032	60.83
2.044	62.5
2.056	63.69
2.068	64.55
2.08	64.84
2.092	64.32
2.104	63.94
2.116	63.93
2.128	64.16
2.14	63.9
2.152	63.32
2.164	62.5
2.176	61.34
2.188	59.61
2.2	57.63
2.212	54.39
2.224	49.16
2.236	43.37
2.248	40.9
2.26	40.71
2.272	39.62
2.284	37.04
2.296	34.42
2.308	32.09
2.32	30.94
2.332	31.21
2.344	33.17
2.356	35.78
2.368	37.99
2.38	39.1
2.392	40.26
2.404	41.56
2.416	41.82
2.428	40.83
2.44	39.25
2.452	37.79
2.464	36.46
2.476	35.96
2.488	35.88
2.5	36.05
