Name: Fluorite CaF_2
Type: Mineral
Class: Halide
Subclass: None
Particle Size: Fine
Sample No.: H-2A
Owner: JPL
Wavelength Range: VSWIR
Origin: USA, Illinois, Hardin County, Rosiclare
Description: Purple fluorite. Particle size was 0-45um.Collected by Ward's Original ASTER Spectral Library name was jpl.beckman.mineral.halide.none.fine.h02a.spectrum.txt
Measurement: Hemispherical reflectance
X Units: Wavelength (micrometers)
Y Units: Reflectance (percent)
wavelength	value
0.4	86.61
0.403	86.5
0.406	86.8
0.409	86.75
0.412	86.64
0.415	86.7
0.418	86.64
0.421	86.83
0.424	86.93
0.427	86.84
0.43	86.89
0.433	87.01
0.436	87.16
0.439	87.09
0.442	87.19
0.445	87.19
0.448	87.08
0.451	87.26
0.454	87.16
0.457	87.34
0.46	87.29
0.463	87.23
0.466	87.18
0.469	87.35
0.472	87.36
0.475	87.24
0.478	87.21
0.481	87.28
0.484	87.35
0.487	87.25
0.49	87.05
0.493	87.09
0.496	87.01
0.499	87.14
0.502	87.16
0.505	87.11
0.508	86.97
0.511	86.96
0.514	87.07
0.517	87.02
0.52	86.96
0.523	86.9
0.526	86.83
0.529	86.83
0.532	86.76
0.535	86.73
0.538	86.9
0.541	86.77
0.544	86.68
0.547	86.89
0.55	87.03
0.553	87.24
0.556	87.04
0.559	87.23
0.562	87.87
0.565	87.72
0.568	87.96
0.571	87.95
0.574	88.05
0.577	88.09
0.58	88.11
0.583	88.23
0.586	88.41
0.589	88.59
0.592	88.7
0.595	88.7
0.598	88.92
0.601	89.06
0.604	89.22
0.607	89.29
0.61	89.34
0.613	89.42
0.616	89.59
0.619	89.65
0.622	89.75
0.625	89.93
0.628	89.81
0.631	90.05
0.634	90.15
0.637	90.16
0.64	90.22
0.643	90.16
0.646	90.27
0.649	90.28
0.652	90.55
0.655	90.44
0.658	90.66
0.661	90.55
0.664	90.79
0.667	90.79
0.67	90.96
0.673	91.01
0.676	90.79
0.679	90.91
0.682	90.96
0.685	91.07
0.688	91.08
0.691	91.08
0.694	91.08
0.697	91.07
0.7	91.04
0.703	91.31
0.706	91.37
0.709	91.37
0.712	91.37
0.715	91.48
0.718	91.49
0.721	91.37
0.724	91.32
0.727	91.37
0.73	91.49
0.733	91.6
0.736	91.49
0.739	91.49
0.742	91.55
0.745	91.55
0.748	91.73
0.751	91.49
0.754	91.54
0.757	91.61
0.76	91.67
0.763	91.72
0.766	91.61
0.769	91.78
0.772	91.61
0.775	91.73
0.778	91.67
0.781	91.78
0.784	91.85
0.787	91.73
0.79	91.9
0.793	91.9
0.796	92
0.799	91.98
0.808	91.95
0.82	92
0.832	92.06
0.844	92.23
0.856	92.23
0.868	92.29
0.88	92.23
0.892	92.29
0.904	92.35
0.916	92.47
0.928	92.41
0.94	92.53
0.952	92.53
0.964	92.53
0.976	92.47
0.988	92.47
1	92.65
1.012	92.59
1.024	92.59
1.036	92.65
1.048	92.65
1.06	92.71
1.072	92.78
1.084	92.67
1.096	92.68
1.108	92.63
1.12	92.8
1.132	92.67
1.144	92.71
1.156	92.64
1.168	92.67
1.18	92.71
1.192	92.71
1.204	92.69
1.216	92.56
1.228	92.57
1.24	92.64
1.252	92.59
1.264	92.68
1.276	92.6
1.288	92.63
1.3	92.56
1.312	92.54
1.324	92.51
1.336	92.44
1.348	92.53
1.36	92.49
1.372	92.29
1.384	92.34
1.396	92.29
1.408	92.2
1.42	92.16
1.432	92.29
1.444	92.44
1.456	92.34
1.468	92.33
1.48	92.44
1.492	92.55
1.504	92.62
1.516	92.61
1.528	92.55
1.54	92.56
1.552	92.56
1.564	92.56
1.576	92.56
1.588	92.5
1.6	92.61
1.612	92.65
1.624	92.69
1.636	92.56
1.648	92.59
1.66	92.8
1.672	92.78
1.684	92.69
1.696	92.67
1.708	92.66
1.72	92.66
1.732	92.66
1.744	92.66
1.756	92.6
1.768	92.66
1.78	92.56
1.792	92.66
1.804	92.7
1.816	92.6
1.828	92.57
1.84	92.58
1.852	92.41
1.864	92.43
1.876	92.02
1.888	91.94
1.9	91.58
1.912	91.43
1.924	91.36
1.936	91.35
1.948	91.38
1.96	91.46
1.972	91.69
1.984	91.96
1.996	92.12
2.008	92.3
2.02	92.5
2.032	92.52
2.044	92.54
2.056	92.53
2.068	92.64
2.08	92.81
2.092	92.86
2.104	93.03
2.116	93.22
2.128	93.28
2.14	93.13
2.152	92.86
2.164	92.76
2.176	92.53
2.188	92.46
2.2	92.46
2.212	92.42
2.224	92.56
2.236	92.62
2.248	92.58
2.26	92.65
2.272	92.63
2.284	92.63
2.296	92.7
2.308	92.56
2.32	92.85
2.332	92.84
2.344	92.78
2.356	92.88
2.368	92.72
2.38	92.63
2.392	92.48
2.404	92.53
2.416	92.56
2.428	92.48
2.44	92.4
2.452	92.28
2.464	92.07
2.476	92.17
2.488	92.47
2.5	92.95
