Name: Pyrolusite MnO_2
Type: Mineral
Class: Oxide
Subclass: None
Particle Size: Medium
Sample No.: O-6A
Owner: JPL
Wavelength Range: TIR
Origin: Mexico, Chihuahua
Description: Particle size was 45-125um.Collected by Grieger's Inc. Original ASTER Spectral Library name was jpl.nicolet.mineral.oxide.none.medium.o06a.spectrum.txt
Measurement: Hemispherical reflectance
X Units: Wavelength (micrometers)
Y Units: Reflectance (percent)
wavelength	value
15.3853	25.5562
15.1161	24.5216
14.8563	23.0127
14.6052	21.2483
14.3624	17.6776
14.1276	12.9178
13.9004	8.7576
13.6803	6.7092
13.4671	5.2303
13.2604	3.3808
13.06	2.367
12.8656	2.4954
12.6769	3.0885
12.4936	3.938
12.3155	4.5539
12.1425	5.1161
11.9742	5.4332
11.8106	5.8869
11.6513	6.2641
11.4963	6.656
11.3454	7.0273
11.1983	7.3998
11.0551	7.6141
10.9154	7.8967
10.7793	8.1829
10.6465	8.4811
10.5169	8.8428
10.3904	8.7295
10.267	8.9218
10.1464	8.9301
10.0287	9.209
9.9136	9.3569
9.8012	9.5214
9.6913	9.7177
9.5838	9.8482
9.4787	9.5133
9.3758	9.4692
9.2752	9.3558
9.1767	8.8518
9.0803	8.5198
8.9858	8.2466
8.8934	8.7382
8.8028	9.0174
8.714	9.1479
8.627	9.3958
8.5417	9.766
8.4581	10.0963
8.3761	10.4572
8.2957	10.8941
8.2169	11.0498
8.1395	11.2093
8.0635	11.3731
7.989	11.4994
7.9158	11.5344
7.8439	11.3193
7.7734	11.2436
7.7041	11.1884
7.636	11.359
7.5691	11.7022
7.5034	12.0111
7.4388	12.3582
7.3753	12.5288
7.3129	12.7806
7.2515	12.7954
7.1912	12.9969
7.1318	13.0316
7.0734	13.1422
7.016	13.154
6.9595	13.262
6.9039	13.3204
6.8492	13.4394
6.7953	13.468
6.7423	13.4686
6.6901	13.5715
6.6387	14.1573
6.5881	13.9127
6.5382	13.6751
6.4892	14.2002
6.4408	13.7552
6.3931	13.7823
6.3462	13.9281
6.2999	13.65
6.2543	13.618
6.2094	13.5943
6.1651	13.7639
6.1214	13.8252
6.0784	13.9711
6.0359	13.8394
5.994	14.1893
5.9527	13.966
5.912	13.9525
5.8718	14.155
5.8322	14.2702
5.7931	14.125
5.7545	14.2537
5.7165	14.3443
5.6789	14.2111
5.6418	14.3839
5.6052	14.2149
5.5691	14.3051
5.5334	14.283
5.4982	14.2067
5.4635	14.4543
5.4291	14.2845
5.3952	14.2724
5.3618	14.1598
5.3287	14.3041
5.2961	14.3891
5.2638	14.3111
5.2319	14.3845
5.2004	14.4147
5.1693	14.2903
5.1386	14.3542
5.1082	14.4414
5.0782	14.4155
5.0485	14.3742
5.0192	14.3825
4.9902	14.4355
4.9616	14.4659
4.9332	14.4111
4.9052	14.4519
4.8776	14.4333
4.8502	14.4724
4.8231	14.407
4.7963	14.4948
4.7699	14.4899
4.7437	14.3781
4.7178	14.4781
4.6922	14.4763
4.6668	14.561
4.6418	14.4496
4.617	14.4885
4.5924	14.5581
4.5681	14.4784
4.5441	14.6215
4.5203	14.4092
4.4968	14.556
4.4735	14.4957
4.4505	14.5683
4.4277	14.5646
4.4051	14.6358
4.3828	14.5441
4.3607	14.6432
4.3388	14.5713
4.3171	14.5069
4.2956	14.6286
4.2744	14.5013
4.2534	14.6081
4.2325	14.506
4.2119	14.6197
4.1915	14.61
4.1712	14.7061
4.1512	14.6715
4.1313	14.5999
4.1117	14.7131
4.0922	14.6425
4.0729	14.6786
4.0538	14.6968
4.0349	14.7296
4.0161	14.701
3.9976	14.7961
3.9792	14.7787
3.9609	14.7144
3.9428	14.7816
3.9249	14.826
3.9072	14.7534
3.8896	14.8633
3.8722	14.7951
3.8549	14.8055
3.8378	14.7941
3.8208	14.6933
3.804	14.8023
3.7873	14.7043
3.7708	14.8202
3.7544	14.8541
3.7382	14.6816
3.7221	14.7684
3.7061	14.7807
3.6903	14.6877
3.6746	14.6884
3.659	14.7501
3.6436	14.7359
3.6283	14.7244
3.6131	14.6251
3.5981	14.66
3.5832	14.6833
3.5684	14.6566
3.5537	14.6901
3.5391	14.5685
3.5247	14.6341
3.5104	14.7683
3.4962	14.6221
3.4821	14.6797
3.4681	14.6902
3.4543	14.5748
3.4405	14.5909
3.4269	14.5705
3.4133	14.5518
3.3999	14.4561
3.3866	14.6398
3.3733	14.5089
3.3602	14.5198
3.3472	14.4939
3.3343	14.4214
3.3215	14.2394
3.3088	14.3692
3.2961	14.5076
3.2836	14.3097
3.2712	14.3777
3.2588	14.2638
3.2466	14.3856
3.2345	14.4185
3.2224	14.4973
3.2104	14.4012
3.1985	14.3469
3.1867	14.35
3.175	14.3058
3.1634	14.3284
3.1519	14.4418
3.1404	14.1976
3.129	14.2338
3.1178	14.332
3.1065	14.2786
3.0954	14.2776
3.0844	14.1527
3.0734	14.3244
3.0625	14.2331
3.0517	14.1826
3.041	14.3209
3.0303	14.2252
3.0197	14.2985
3.0092	14.2066
2.9987	14.0253
2.9884	14.1064
2.9781	14.2041
2.9678	14.162
2.9577	14.0031
2.9476	13.9971
2.9376	13.9886
2.9276	14.184
2.9177	14.1851
2.9079	14.3377
2.8982	14.4028
2.8885	14.3966
2.8789	14.4118
2.8693	14.5172
2.8598	14.6056
2.8504	14.6688
2.841	14.4235
2.8317	14.7144
2.8224	14.781
2.8133	14.7137
2.8041	15.015
2.7951	15.1341
2.786	15.1371
2.7771	15.0268
2.7682	15.1187
2.7594	15.2124
2.7506	15.2776
2.7418	15.3941
2.7332	15.365
2.7246	15.4502
2.716	15.3418
2.7075	15.2203
2.699	15.1788
2.6906	15.1727
2.6823	15.3717
2.674	15.3004
2.6657	15.6876
2.6575	15.3201
2.6494	15.3343
2.6413	15.4917
2.6332	15.3719
2.6252	15.3602
2.6173	15.5274
2.6094	15.3198
2.6015	15.4656
2.5937	15.7905
2.5859	15.3682
2.5782	15.4508
2.5706	15.3484
2.5629	15.5964
2.5554	15.2701
2.5478	15.3257
2.5403	15.2686
2.5329	15.4209
2.5255	15.3515
2.5181	15.372
2.5108	15.5246
2.5035	15.4686
2.4963	15.4404
2.4891	15.3425
2.482	15.4922
2.4749	15.3343
2.4678	15.4115
2.4608	15.4312
2.4538	15.3057
2.4468	15.5747
2.4399	15.4114
2.4331	15.2495
2.4262	15.2401
2.4194	15.2016
2.4127	15.4896
2.4059	15.5654
2.3993	15.3268
2.3926	15.3277
2.386	15.317
2.3795	15.4881
2.3729	15.6433
2.3664	15.3618
2.36	15.6258
2.3535	15.3329
2.3471	15.4803
2.3408	15.4246
2.3345	15.3447
2.3282	15.5256
2.3219	15.3909
2.3157	15.6341
2.3095	15.3872
2.3034	15.2725
2.2972	15.4034
2.2911	15.4799
2.2851	15.3957
2.279	15.4409
2.2731	15.4074
2.2671	15.4343
2.2612	15.4513
2.2553	15.2327
2.2494	15.4499
2.2435	15.5573
2.2377	15.6177
2.232	15.5622
2.2262	15.4338
2.2205	15.2441
2.2148	15.416
2.2091	15.4877
2.2035	15.5961
2.1979	15.3221
2.1923	15.3658
2.1868	15.3179
2.1812	15.4519
2.1758	15.5504
2.1703	15.6803
2.1649	15.6536
2.1595	15.3692
2.1541	15.5249
2.1487	15.821
2.1434	15.2869
2.1381	15.3784
2.1328	15.6462
2.1275	15.6125
2.1223	15.77
2.1171	15.4844
2.112	15.7422
2.1068	15.5916
2.1017	15.2657
2.0966	15.3972
2.0915	15.6143
2.0865	15.2873
2.0814	15.6581
2.0764	15.7093
2.0715	15.0548
2.0665	15.3855
2.0616	15.727
2.0567	15.3651
2.0518	15.4508
2.0469	15.3902
2.0421	15.3584
2.0373	15.5515
2.0325	15.2278
2.0277	15.4306
2.0229	15.2896
2.0182	15.5006
2.0135	15.6126
2.0088	15.6154
2.0042	15.2665
