Name: Chlorite
Type: Mineral
Class: Silicate
Subclass: Phyllosilicate
Particle Size: Medium
Sample No.: PS-12C
Owner: JPL
Wavelength Range: TIR
Origin: USA, California
Description: Particle size was 45-125um.Collected by Ward's Original ASTER Spectral Library name was jpl.nicolet.mineral.silicate.phyllosilicate.medium.ps12c.spectrum.txt
Measurement: Hemispherical reflectance
X Units: Wavelength (micrometers)
Y Units: Reflectance (percent)
wavelength	value
15.3853	6.1375
15.1161	5.4876
14.8563	4.1671
14.6052	3.8642
14.3624	3.2058
14.1276	2.6973
13.9004	2.9874
13.6803	3.1981
13.4671	2.9517
13.2604	3.4768
13.06	3.2978
12.8656	2.6739
12.6769	1.6873
12.4936	1.4196
12.3155	1.4044
12.1425	1.8122
11.9742	1.8914
11.8106	2.5186
11.6513	3.1553
11.4963	3.3887
11.3454	3.8709
11.1983	4.3946
11.0551	4.9721
10.9154	5.6559
10.7793	7.0686
10.6465	9.2492
10.5169	12.2414
10.3904	13.2334
10.267	13.2017
10.1464	14.8523
10.0287	17.344
9.9136	20.4994
9.8012	24.1088
9.6913	25.1635
9.5838	20.5447
9.4787	16.098
9.3758	16.2253
9.2752	13.4582
9.1767	8.1897
9.0803	4.8614
8.9858	2.343
8.8934	1.2267
8.8028	0.7055
8.714	0.2836
8.627	0.2821
8.5417	0.2325
8.4581	0.4892
8.3761	0.7952
8.2957	1.0624
8.2169	1.6413
8.1395	1.9852
8.0635	2.4059
7.989	2.7435
7.9158	3.1925
7.8439	3.5309
7.7734	3.8982
7.7041	4.1555
7.636	4.4082
7.5691	4.8639
7.5034	5.087
7.4388	5.5143
7.3753	5.8344
7.3129	6.1703
7.2515	6.6398
7.1912	7.0088
7.1318	7.4014
7.0734	7.7427
7.016	8.0689
6.9595	8.4804
6.9039	8.6567
6.8492	8.9365
6.7953	9.1667
6.7423	9.0247
6.6901	9.2505
6.6387	9.3905
6.5881	9.3882
6.5382	9.1514
6.4892	8.8288
6.4408	8.2672
6.3931	7.8881
6.3462	7.5919
6.2999	7.2701
6.2543	7.3432
6.2094	7.4712
6.1651	7.5953
6.1214	7.727
6.0784	8.1314
6.0359	8.0831
5.994	8.1726
5.9527	8.1354
5.912	8.2261
5.8718	8.4146
5.8322	8.8508
5.7931	9.1793
5.7545	9.7404
5.7165	10.3126
5.6789	10.6947
5.6418	10.8622
5.6052	10.9051
5.5691	11.0391
5.5334	11.3099
5.4982	11.4938
5.4635	12.121
5.4291	12.679
5.3952	13.1634
5.3618	13.6125
5.3287	13.93
5.2961	14.2287
5.2638	14.4041
5.2319	14.7003
5.2004	14.9989
5.1693	15.0612
5.1386	15.2194
5.1082	15.3416
5.0782	15.2715
5.0485	15.1619
5.0192	15.1686
4.9902	15.1591
4.9616	15.6052
4.9332	16.1786
4.9052	17.1616
4.8776	18.0434
4.8502	19.0058
4.8231	19.8713
4.7963	20.947
4.7699	21.6901
4.7437	22.8184
4.7178	24.1955
4.6922	25.9268
4.6668	27.539
4.6418	29.08
4.617	29.9416
4.5924	31.5082
4.5681	33.3988
4.5441	34.8955
4.5203	35.766
4.4968	36.5417
4.4735	37.2683
4.4505	37.9019
4.4277	38.6615
4.4051	39.0778
4.3828	39.5442
4.3607	39.9592
4.3388	40.3559
4.3171	40.8791
4.2956	41.3222
4.2744	41.4211
4.2534	41.8645
4.2325	42.3479
4.2119	42.7308
4.1915	42.9718
4.1712	43.3444
4.1512	43.6218
4.1313	43.8333
4.1117	44.1404
4.0922	44.2992
4.0729	44.6267
4.0538	44.6775
4.0349	44.8064
4.0161	44.8621
3.9976	44.952
3.9792	44.8987
3.9609	44.8785
3.9428	44.8244
3.9249	44.9167
3.9072	44.8227
3.8896	44.7862
3.8722	44.6494
3.8549	44.3589
3.8378	44.0585
3.8208	43.7544
3.804	43.5857
3.7873	43.4331
3.7708	43.2914
3.7544	43.1599
3.7382	42.8968
3.7221	42.5842
3.7061	42.3561
3.6903	41.8678
3.6746	41.6655
3.659	41.2282
3.6436	40.8805
3.6283	40.3605
3.6131	39.7807
3.5981	39.0557
3.5832	38.4155
3.5684	37.6086
3.5537	37.0288
3.5391	36.4607
3.5247	35.6959
3.5104	34.9663
3.4962	34.1549
3.4821	33.6322
3.4681	33.049
3.4543	32.5413
3.4405	32.0112
3.4269	31.4029
3.4133	30.7518
3.3999	30.1705
3.3866	29.7664
3.3733	29.0128
3.3602	28.2841
3.3472	27.6088
3.3343	26.8001
3.3215	26.3617
3.3088	25.7624
3.2961	24.9978
3.2836	24.464
3.2712	23.6166
3.2588	23.176
3.2466	22.6153
3.2345	21.8992
3.2224	20.9873
3.2104	20.078
3.1985	19.2249
3.1867	18.3294
3.175	17.3571
3.1634	16.4668
3.1519	15.6596
3.1404	14.7253
3.129	13.8287
3.1178	13.1565
3.1065	12.4943
3.0954	11.5185
3.0844	10.8132
3.0734	9.8824
3.0625	9.3379
3.0517	8.7708
3.041	8.0139
3.0303	7.4793
3.0197	6.7634
3.0092	6.2767
2.9987	5.9097
2.9884	5.5053
2.9781	5.1759
2.9678	5.0156
2.9577	4.6335
2.9476	4.5385
2.9376	4.2926
2.9276	4.2443
2.9177	4.2327
2.9079	4.3234
2.8982	4.5509
2.8885	4.8343
2.8789	5.2483
2.8693	5.3932
2.8598	5.3861
2.8504	5.2605
2.841	5.1192
2.8317	4.8405
2.8224	4.4515
2.8133	4.3495
2.8041	4.3348
2.7951	4.4953
2.786	5.0369
2.7771	5.6151
2.7682	6.5889
2.7594	7.2446
2.7506	8.2336
2.7418	8.6563
2.7332	9.2506
2.7246	9.2892
2.716	9.2586
2.7075	16.9429
2.699	30.3321
2.6906	34.9348
2.6823	38.1791
2.674	40.3922
2.6657	41.9722
2.6575	41.9324
2.6494	42.1727
2.6413	42.515
2.6332	42.9589
2.6252	42.8372
2.6173	42.4981
2.6094	41.9375
2.6015	41.3816
2.5937	41.2365
2.5859	40.381
2.5782	39.9799
2.5706	39.935
2.5629	40.182
2.5554	40.0331
2.5478	40.7526
2.5403	40.6959
2.5329	41.0536
2.5255	41.0098
2.5181	40.9282
2.5108	41.0758
2.5035	41.1578
2.4963	41.2369
2.4891	41.0663
2.482	41.1345
2.4749	41.0765
2.4678	41.3274
2.4608	42.2726
2.4538	43.3567
2.4468	44.9091
2.4399	45.8814
2.4331	46.3794
2.4262	47.2791
2.4194	48.4661
2.4127	48.5616
2.4059	47.143
2.3993	45.7976
2.3926	44.6369
2.386	44.6836
2.3795	44.6145
2.3729	44.1519
2.3664	42.7056
2.36	40.7355
2.3535	39.1232
2.3471	37.4492
2.3408	36.1802
2.3345	35.455
2.3282	35.3946
2.3219	35.9714
2.3157	37.3589
2.3095	39.005
2.3034	39.858
2.2972	39.6221
2.2911	41.0292
2.2851	43.7797
2.279	46.5162
2.2731	47.0311
2.2671	47.1503
2.2612	46.8991
2.2553	46.2338
2.2494	45.8596
2.2435	46.5027
2.2377	50.0938
2.232	54.2322
2.2262	57.9048
2.2205	60.1046
2.2148	62.0468
2.2091	63.3105
2.2035	64.4347
2.1979	65.3832
2.1923	65.8529
2.1868	66.7103
2.1812	67.4846
2.1758	67.9451
2.1703	68.5052
2.1649	69.0683
2.1595	69.2954
2.1541	69.4206
2.1487	69.5197
2.1434	69.9788
2.1381	69.834
2.1328	69.7151
2.1275	69.6401
2.1223	69.5329
2.1171	69.4953
2.112	69.1828
2.1068	69.629
2.1017	69.7863
2.0966	70.29
2.0915	70.9006
2.0865	71.1633
2.0814	70.9935
2.0764	70.8755
2.0715	70.5004
2.0665	70.5549
2.0616	69.8965
2.0567	69.5722
2.0518	69.0288
2.0469	68.5942
2.0421	68.1258
2.0373	67.2351
2.0325	66.4457
2.0277	65.5443
2.0229	64.7668
2.0182	63.777
2.0135	62.9026
2.0088	62.383
2.0042	62.0104
