Name: Sepiolite Mg_4Si_6O_15(OH)_2.6H_2O
Type: Mineral
Class: Silicate
Subclass: Phyllosilicate
Particle Size: Medium
Sample No.: PS-5A
Owner: JPL
Wavelength Range: TIR
Origin: USA, Nevada, Two Crows
Description: Particle size was 45-125um.Collected by Clay Mineral Society Original ASTER Spectral Library name was jpl.nicolet.mineral.silicate.phyllosilicate.medium.ps05a.spectrum.txt
Measurement: Hemispherical reflectance
X Units: Wavelength (micrometers)
Y Units: Reflectance (percent)
wavelength	value
15.3853	0.6346
15.1161	0.1823
14.8563	0.3722
14.6052	0.2756
14.3624	0.6484
14.1276	0.1327
13.9004	0.1368
13.6803	0.3561
13.4671	0.5512
13.2604	0.556
13.06	0.4593
12.8656	0.5527
12.6769	0.4342
12.4936	0.7807
12.3155	0.9539
12.1425	1.4734
11.9742	1.6482
11.8106	2.0141
11.6513	1.8557
11.4963	1.8541
11.3454	2.0345
11.1983	2.4684
11.0551	2.8336
10.9154	2.8536
10.7793	2.7559
10.6465	2.5861
10.5169	2.4971
10.3904	2.6985
10.267	3.7645
10.1464	3.1663
10.0287	2.3992
9.9136	4.1733
9.8012	5.401
9.6913	6.4115
9.5838	5.4734
9.4787	4.5916
9.3758	3.2521
9.2752	1.542
9.1767	1.7937
9.0803	1.6796
8.9858	1.1147
8.8934	0.953
8.8028	0.5668
8.714	0.1826
8.627	0.1456
8.5417	0.1739
8.4581	0.0715
8.3761	0
8.2957	0.0413
8.2169	0.1844
8.1395	0.165
8.0635	0.1871
7.989	0.1064
7.9158	0.1437
7.8439	0.194
7.7734	0.1718
7.7041	0.4615
7.636	0.454
7.5691	0.4864
7.5034	0.6973
7.4388	0.7345
7.3753	0.8272
7.3129	0.9732
7.2515	1.1617
7.1912	1.334
7.1318	1.4286
7.0734	1.6592
7.016	1.721
6.9595	1.8888
6.9039	2.162
6.8492	2.2069
6.7953	2.4481
6.7423	2.5753
6.6901	2.7151
6.6387	2.7708
6.5881	2.911
6.5382	2.8955
6.4892	2.9067
6.4408	2.848
6.3931	2.845
6.3462	2.3832
6.2999	1.9173
6.2543	1.4062
6.2094	0.7352
6.1651	0.4505
6.1214	0.5261
6.0784	0.3667
6.0359	0.4428
5.994	0.2903
5.9527	0.4166
5.912	0.8394
5.8718	1.5475
5.8322	2.456
5.7931	3.3209
5.7545	4.1293
5.7165	4.4974
5.6789	4.8528
5.6418	5.0739
5.6052	5.2252
5.5691	5.5711
5.5334	5.9595
5.4982	6.4093
5.4635	7.0483
5.4291	7.6496
5.3952	8.0322
5.3618	8.0937
5.3287	8.1613
5.2961	7.7982
5.2638	7.6108
5.2319	7.6427
5.2004	8.1666
5.1693	8.8158
5.1386	9.2733
5.1082	9.6027
5.0782	9.6735
5.0485	9.556
5.0192	9.5675
4.9902	9.8412
4.9616	10.1133
4.9332	10.2305
4.9052	10.311
4.8776	10.2439
4.8502	10.3901
4.8231	10.4562
4.7963	10.6681
4.7699	10.9921
4.7437	11.3147
4.7178	11.7447
4.6922	12.0821
4.6668	12.5858
4.6418	13.0405
4.617	13.5396
4.5924	13.7651
4.5681	14.1303
4.5441	14.3968
4.5203	14.451
4.4968	14.4343
4.4735	14.5884
4.4505	14.8114
4.4277	15.3149
4.4051	15.9215
4.3828	16.9096
4.3607	17.7684
4.3388	18.7727
4.3171	19.7394
4.2956	20.7401
4.2744	21.6351
4.2534	22.8109
4.2325	23.7731
4.2119	24.7786
4.1915	25.7285
4.1712	26.7087
4.1512	27.5011
4.1313	28.1937
4.1117	28.7555
4.0922	29.4403
4.0729	30.1778
4.0538	31.0387
4.0349	32.1765
4.0161	33.1427
3.9976	34.0234
3.9792	34.6404
3.9609	35.3457
3.9428	35.7982
3.9249	36.0013
3.9072	36.3516
3.8896	36.6595
3.8722	36.6147
3.8549	36.6473
3.8378	36.4586
3.8208	36.1152
3.804	35.7949
3.7873	35.5248
3.7708	35.1023
3.7544	34.528
3.7382	33.9158
3.7221	33.1979
3.7061	32.3969
3.6903	31.3876
3.6746	30.4069
3.659	29.3797
3.6436	28.2702
3.6283	27.2413
3.6131	26.2029
3.5981	24.9874
3.5832	24.0256
3.5684	22.7521
3.5537	21.5064
3.5391	20.1346
3.5247	18.7969
3.5104	17.4608
3.4962	15.9831
3.4821	14.927
3.4681	13.659
3.4543	12.653
3.4405	11.6126
3.4269	10.4644
3.4133	9.3645
3.3999	8.4827
3.3866	7.715
3.3733	6.8922
3.3602	6.2253
3.3472	5.5409
3.3343	4.9975
3.3215	4.2867
3.3088	3.8955
3.2961	3.352
3.2836	3.0268
3.2712	2.6777
3.2588	2.4185
3.2466	1.952
3.2345	1.925
3.2224	1.6908
3.2104	1.3735
3.1985	1.407
3.1867	1.1391
3.175	1.0716
3.1634	0.8551
3.1519	0.929
3.1404	0.6583
3.129	0.7266
3.1178	0.7451
3.1065	0.7148
3.0954	0.7827
3.0844	0.7266
3.0734	0.674
3.0625	0.6614
3.0517	0.6849
3.041	0.5638
3.0303	0.5345
3.0197	0.5391
3.0092	0.5402
2.9987	0.4747
2.9884	0.6058
2.9781	0.5685
2.9678	0.5724
2.9577	0.3881
2.9476	0.5684
2.9376	0.6277
2.9276	0.5122
2.9177	0.3479
2.9079	0.5473
2.8982	0.5812
2.8885	0.5241
2.8789	0.6012
2.8693	0.6378
2.8598	0.4683
2.8504	0.7185
2.841	0.566
2.8317	0.6888
2.8224	0.4109
2.8133	0.702
2.8041	0.3932
2.7951	0.4684
2.786	0.4515
2.7771	0.8153
2.7682	0.6968
2.7594	0.5172
2.7506	0.6477
2.7418	0.6681
2.7332	0.8902
2.7246	1.4427
2.716	1.5967
2.7075	1.8325
2.699	5.1327
2.6906	6.4393
2.6823	11.6076
2.674	14.9703
2.6657	17.3733
2.6575	19.4555
2.6494	21.2002
2.6413	22.5859
2.6332	23.9546
2.6252	25.1534
2.6173	25.9726
2.6094	26.8475
2.6015	27.5156
2.5937	28.0956
2.5859	28.0064
2.5782	28.0949
2.5706	28.1297
2.5629	27.8971
2.5554	27.806
2.5478	27.7601
2.5403	27.4469
2.5329	27.6096
2.5255	27.6594
2.5181	28.1661
2.5108	28.995
2.5035	29.9482
2.4963	30.8766
2.4891	31.9777
2.482	32.8231
2.4749	34.0418
2.4678	34.5606
2.4608	35.1207
2.4538	35.7518
2.4468	36.2948
2.4399	36.1038
2.4331	36.6299
2.4262	37.0964
2.4194	37.4801
2.4127	37.7816
2.4059	38.6855
2.3993	39.222
2.3926	38.3035
2.386	39.0509
2.3795	41.3253
2.3729	43.9913
2.3664	45.4996
2.36	46.8234
2.3535	48.2798
2.3471	49.9011
2.3408	51.1224
2.3345	51.6963
2.3282	50.211
2.3219	46.6755
2.3157	43.3162
2.3095	43.8027
2.3034	48.6728
2.2972	49.9925
2.2911	50.7774
2.2851	53.5078
2.279	57.2773
2.2731	59.2914
2.2671	60.3326
2.2612	61.3749
2.2553	61.9754
2.2494	62.7024
2.2435	63.0263
2.2377	63.2206
2.232	63.2729
2.2262	63.5458
2.2205	63.9481
2.2148	64.1196
2.2091	64.763
2.2035	64.9029
2.1979	65.0582
2.1923	64.4409
2.1868	63.5467
2.1812	64.4929
2.1758	64.9601
2.1703	65.8136
2.1649	65.7739
2.1595	65.9979
2.1541	66.0825
2.1487	65.9397
2.1434	66.1221
2.1381	66.3413
2.1328	66.2908
2.1275	66.3227
2.1223	65.6898
2.1171	65.5101
2.112	65.6463
2.1068	65.0722
2.1017	64.6118
2.0966	64.2348
2.0915	64.0462
2.0865	63.602
2.0814	63.5779
2.0764	63.4399
2.0715	63.5001
2.0665	62.8182
2.0616	62.3845
2.0567	62.6616
2.0518	62.2953
2.0469	62.176
2.0421	61.4677
2.0373	61.0028
2.0325	60.4714
2.0277	59.7923
2.0229	58.6905
2.0182	57.9596
2.0135	56.8395
2.0088	55.5452
2.0042	54.8586
