Name: Brucite Mg(OH)_2
Type: Mineral
Class: Hydroxide
Subclass: None
Particle Size: Coarse
Sample No.: OH-1A
Owner: JPL
Wavelength Range: TIR
Origin: USA, Nevada, Nye County, Gabbs
Description: Particle size was 125-500um.Collected by JPL Original ASTER Spectral Library name was jpl.nicolet.mineral.hydroxide.none.coarse.oh01a.spectrum.txt
Measurement: Hemispherical reflectance
X Units: Wavelength (micrometers)
Y Units: Reflectance (percent)
wavelength	value
15.3853	19.2825
15.1161	18.603
14.8563	17.4473
14.6052	16.6451
14.3624	16.5133
14.1276	14.9682
13.9004	14.2917
13.6803	12.7206
13.4671	10.133
13.2604	7.9253
13.06	5.5533
12.8656	3.9513
12.6769	2.6621
12.4936	2.2677
12.3155	1.6374
12.1425	1.4619
11.9742	1.2382
11.8106	1.0549
11.6513	1.0227
11.4963	0.9802
11.3454	1.0365
11.1983	1.0286
11.0551	1.0554
10.9154	1.3173
10.7793	1.2379
10.6465	1.4739
10.5169	1.4811
10.3904	1.472
10.267	1.5512
10.1464	1.4281
10.0287	1.4665
9.9136	1.3429
9.8012	1.31
9.6913	1.3169
9.5838	1.2084
9.4787	1.22
9.3758	1.1886
9.2752	1.2444
9.1767	1.1892
9.0803	1.5064
8.9858	1.4604
8.8934	1.589
8.8028	1.4035
8.714	1.4833
8.627	1.3323
8.5417	1.5258
8.4581	1.5582
8.3761	1.4424
8.2957	1.3476
8.2169	1.5434
8.1395	1.4031
8.0635	1.6756
7.989	1.6138
7.9158	1.6729
7.8439	1.6876
7.7734	1.9373
7.7041	1.7614
7.636	1.8372
7.5691	1.8686
7.5034	1.8269
7.4388	1.9688
7.3753	1.8717
7.3129	1.903
7.2515	1.8982
7.1912	1.7312
7.1318	1.789
7.0734	1.7347
7.016	1.7584
6.9595	1.8947
6.9039	1.7621
6.8492	1.9688
6.7953	1.9248
6.7423	1.9126
6.6901	2.129
6.6387	2.2259
6.5881	2.3114
6.5382	2.2594
6.4892	2.5343
6.4408	2.7935
6.3931	2.9888
6.3462	3.1148
6.2999	3.1885
6.2543	3.3552
6.2094	3.4523
6.1651	3.5167
6.1214	3.6639
6.0784	3.8439
6.0359	4.1792
5.994	4.5619
5.9527	5.0037
5.912	5.7919
5.8718	6.6088
5.8322	7.4005
5.7931	8.09
5.7545	8.6972
5.7165	9.668
5.6789	10.2609
5.6418	10.8451
5.6052	11.3912
5.5691	11.8529
5.5334	12.2915
5.4982	12.5889
5.4635	13.018
5.4291	13.3253
5.3952	13.612
5.3618	13.8557
5.3287	14.1606
5.2961	14.4218
5.2638	14.5354
5.2319	14.8469
5.2004	15.0051
5.1693	15.0491
5.1386	15.1001
5.1082	15.2757
5.0782	15.3937
5.0485	15.5439
5.0192	15.6648
4.9902	15.7887
4.9616	16.0321
4.9332	16.1502
4.9052	16.2946
4.8776	16.6298
4.8502	16.5614
4.8231	16.8926
4.7963	16.9473
4.7699	17.2078
4.7437	17.4891
4.7178	17.6406
4.6922	17.9247
4.6668	18.1666
4.6418	18.3573
4.617	18.6377
4.5924	18.7453
4.5681	19.138
4.5441	19.3413
4.5203	19.6568
4.4968	19.8612
4.4735	20.258
4.4505	20.5744
4.4277	20.8451
4.4051	21.2414
4.3828	21.4865
4.3607	21.7942
4.3388	22.1262
4.3171	22.5272
4.2956	22.8152
4.2744	23.0598
4.2534	23.179
4.2325	23.4147
4.2119	23.5983
4.1915	23.6305
4.1712	23.7526
4.1512	23.7984
4.1313	23.9227
4.1117	24.0484
4.0922	24.0836
4.0729	24.1738
4.0538	24.2114
4.0349	24.2589
4.0161	24.2091
3.9976	24.1693
3.9792	24.2095
3.9609	24.0307
3.9428	23.8751
3.9249	23.7842
3.9072	23.6125
3.8896	23.508
3.8722	23.5117
3.8549	23.2184
3.8378	23.2451
3.8208	22.9212
3.804	22.6138
3.7873	22.3027
3.7708	22.0855
3.7544	21.7733
3.7382	21.4071
3.7221	20.8257
3.7061	19.2615
3.6903	19.8636
3.6746	19.5051
3.659	18.9638
3.6436	18.4201
3.6283	17.9338
3.6131	17.4193
3.5981	16.9037
3.5832	16.508
3.5684	16.4628
3.5537	15.9652
3.5391	15.4552
3.5247	14.8721
3.5104	14.2278
3.4962	13.9357
3.4821	13.5477
3.4681	13.0986
3.4543	12.9662
3.4405	12.4646
3.4269	12.1799
3.4133	12.0041
3.3999	11.7258
3.3866	11.3778
3.3733	11.168
3.3602	10.7535
3.3472	10.4137
3.3343	9.8158
3.3215	9.581
3.3088	9.3709
3.2961	9.0118
3.2836	9.1093
3.2712	9.3382
3.2588	9.2757
3.2466	9.2133
3.2345	9.1833
3.2224	8.856
3.2104	8.8006
3.1985	8.5246
3.1867	8.2163
3.175	8.0661
3.1634	7.6737
3.1519	7.4874
3.1404	6.8497
3.129	6.131
3.1178	5.5214
3.1065	4.9538
3.0954	4.7083
3.0844	4.2483
3.0734	3.773
3.0625	3.5625
3.0517	3.6198
3.041	3.8868
3.0303	4.3749
3.0197	4.6334
3.0092	4.7961
2.9987	5.0554
2.9884	5.2633
2.9781	4.6978
2.9678	4.7297
2.9577	4.7493
2.9476	5.0129
2.9376	5.2081
2.9276	5.1326
2.9177	5.2065
2.9079	5.2087
2.8982	4.6926
2.8885	4.1319
2.8789	3.656
2.8693	3.8526
2.8598	3.9305
2.8504	3.988
2.841	3.8003
2.8317	3.8657
2.8224	3.7126
2.8133	3.3314
2.8041	3.8849
2.7951	3.3296
2.786	4.0984
2.7771	4.6704
2.7682	4.4673
2.7594	4.6294
2.7506	3.7286
2.7418	3.7228
2.7332	4.0952
2.7246	3.7799
2.716	3.2856
2.7075	3.1082
2.699	4.4855
2.6906	5.4391
2.6823	7.054
2.674	7.6601
2.6657	7.1031
2.6575	6.634
2.6494	5.7421
2.6413	5.0344
2.6332	5.2016
2.6252	5.6309
2.6173	6.4007
2.6094	7.0207
2.6015	7.9524
2.5937	8.9349
2.5859	10.6591
2.5782	11.0712
2.5706	10.2939
2.5629	9.2984
2.5554	7.8581
2.5478	6.6209
2.5403	5.6605
2.5329	4.4484
2.5255	4.5993
2.5181	5.4919
2.5108	5.213
2.5035	4.1161
2.4963	3.6119
2.4891	3.5697
2.482	3.253
2.4749	3.1832
2.4678	3.6234
2.4608	3.9861
2.4538	4.474
2.4468	4.7929
2.4399	5.2386
2.4331	6.0578
2.4262	6.9002
2.4194	9.6246
2.4127	13.5138
2.4059	17.2817
2.3993	19.0368
2.3926	19.9751
2.386	20.5651
2.3795	20.7655
2.3729	20.6905
2.3664	20.4603
2.36	19.5551
2.3535	18.1961
2.3471	16.2815
2.3408	13.9481
2.3345	11.3734
2.3282	10.1253
2.3219	9.7701
2.3157	9.8115
2.3095	10.7804
2.3034	11.7931
2.2972	13.0619
2.2911	14.4295
2.2851	15.1588
2.279	15.7419
2.2731	15.7164
2.2671	16.1277
2.2612	16.1704
2.2553	16.4124
2.2494	16.5689
2.2435	17.0332
2.2377	17.6546
2.232	18.5142
2.2262	18.9821
2.2205	20.0891
2.2148	20.9594
2.2091	21.8177
2.2035	21.9805
2.1979	22.7535
2.1923	23.8906
2.1868	25.3885
2.1812	27.6017
2.1758	29.4251
2.1703	31.251
2.1649	32.2545
2.1595	33.2183
2.1541	33.2472
2.1487	33.1041
2.1434	32.4564
2.1381	32.1259
2.1328	32.0955
2.1275	32.0793
2.1223	32.1648
2.1171	32.2207
2.112	32.2644
2.1068	32.496
2.1017	32.6284
2.0966	33.2713
2.0915	32.9882
2.0865	33.731
2.0814	33.4412
2.0764	33.7983
2.0715	33.3414
2.0665	34.3644
2.0616	33.9652
2.0567	34.0499
2.0518	35.1307
2.0469	35.1678
2.0421	35.687
2.0373	36.1357
2.0325	36.909
2.0277	36.8167
2.0229	37.2074
2.0182	37.7764
2.0135	38.5799
2.0088	39.4858
2.0042	40.3504
