Name: Amblygonite (Li,Na)Al(PO_4)(F,OH)
Type: Mineral
Class: Phosphate
Subclass: None
Particle Size: Medium
Sample No.: P-3A
Owner: JPL
Wavelength Range: VSWIR
Origin: USA, California, San Diego County, Pala.
Description: Particle size was 45-125um.Collected by:  Burminco Original ASTER Spectral Library name was jpl.perkin.mineral.phosphate.none.medium.p03a.spectrum.txt
Measurement: Hemispherical reflectance
X Units: Wavelength (micrometers)
Y Units: Reflectance (percent)
wavelength	value
2.5	35.92
2.494	36.4845
2.488	37.4681
2.482	38.5494
2.476	39.8079
2.47	41.3616
2.464	43.0245
2.458	44.6731
2.452	46.2807
2.446	47.6515
2.44	48.9009
2.434	49.7906
2.428	50.2243
2.422	50.2422
2.416	49.8931
2.41	48.9267
2.404	46.9586
2.398	43.4642
2.392	38.573
2.386	33.1479
2.38	28.8833
2.374	27.3467
2.368	29.3125
2.362	34.2161
2.356	41.171
2.35	48.0395
2.344	53.3749
2.338	56.4384
2.332	57.8922
2.326	58.4826
2.32	58.5247
2.314	58.2088
2.308	57.5948
2.302	56.7072
2.296	55.6889
2.29	54.6589
2.284	53.5688
2.278	52.5562
2.272	51.8058
2.266	51.0675
2.26	50.1934
2.254	49.2106
2.248	47.9018
2.242	46.4254
2.236	44.828
2.23	43.0393
2.224	41.1488
2.218	38.8892
2.212	36.4059
2.206	33.4539
2.2	30.4987
2.194	27.6526
2.188	25.1509
2.182	23.2316
2.176	22.7189
2.17	25.2394
2.164	32.0741
2.158	41.3667
2.152	49.3332
2.146	54.2113
2.14	56.8404
2.134	58.0455
2.128	58.7774
2.122	59.5704
2.116	60.3287
2.11	61.104
2.104	61.8691
2.098	62.5107
2.092	62.9813
2.086	63.0309
2.08	62.7616
2.074	62.4221
2.068	62.1901
2.062	62.2609
2.056	62.5382
2.05	63.0536
2.044	63.7831
2.038	64.6654
2.032	65.3087
2.026	65.593
2.02	65.1225
2.014	63.6092
2.008	60.3877
2.002	55.2907
1.996	51.8713
1.99	53.0148
1.984	57.7397
1.978	62.5548
1.972	65.8324
1.966	67.5779
1.96	68.4173
1.954	68.7979
1.948	69.0327
1.942	69.103
1.936	69.1708
1.93	69.2529
1.924	69.1789
1.918	69.0013
1.912	69.0744
1.906	69.39
1.9	69.863
1.894	70.3977
1.888	70.7329
1.882	70.8025
1.876	70.9136
1.87	70.5822
1.864	69.7909
1.858	68.5058
1.852	67.4216
1.846	67.4438
1.84	69.5183
1.834	72.9527
1.828	74.9522
1.822	75.7723
1.816	76.0857
1.81	76.1669
1.804	76.1628
1.798	75.9355
1.792	75.6259
1.786	75.247
1.78	74.9295
1.774	74.6298
1.768	74.5974
1.762	74.7222
1.756	74.9109
1.75	75.0518
1.744	75.0403
1.738	75.089
1.732	75.3307
1.726	75.832
1.72	76.4602
1.714	77.0181
1.708	77.4072
1.702	77.5878
1.696	77.7009
1.69	77.6875
1.684	77.7397
1.678	77.7522
1.672	77.7728
1.666	77.7686
1.66	77.7031
1.654	77.4903
1.648	77.5162
1.642	77.449
1.636	77.4572
1.63	77.2864
1.624	77.0331
1.618	76.7979
1.612	76.4121
1.606	76.1864
1.6	76.1116
1.594	75.873
1.588	75.5044
1.582	74.9429
1.576	74.142
1.57	73.276
1.564	72.3455
1.558	71.2074
1.552	70.2547
1.546	69.6472
1.54	69.5096
1.534	70.1206
1.528	71.196
1.522	72.3883
1.516	73.7205
1.51	75.092
1.504	76.2444
1.498	77.0911
1.492	77.5861
1.486	77.9235
1.48	78.2836
1.474	78.9494
1.468	79.6686
1.462	80.1665
1.456	80.5087
1.45	80.0435
1.444	80.0032
1.438	80.7968
1.432	80.0226
1.426	79.6881
1.42	78.6973
1.414	77.8572
1.408	81.5116
1.402	82.446
1.396	82.7315
1.39	83.4565
1.384	84.1942
1.378	84.906
1.372	85.0991
1.366	84.9751
1.36	84.742
1.354	84.755
1.348	85.1854
1.342	85.5654
1.336	85.7292
1.33	85.8909
1.324	86.0854
1.318	86.116
1.312	86.1624
1.306	86.0761
1.3	85.8896
1.294	85.807
1.288	85.8849
1.282	86.2841
1.276	86.5442
1.27	86.6263
1.264	86.7396
1.258	86.8166
1.252	86.9186
1.246	86.9694
1.24	86.971
1.234	87.1051
1.228	87.0932
1.222	87.1588
1.216	87.2321
1.21	87.2562
1.204	87.2516
1.198	87.2844
1.192	87.2732
1.186	87.3399
1.18	87.2884
1.174	87.2896
1.168	87.3478
1.162	87.2898
1.156	87.3481
1.15	87.3438
1.144	87.2905
1.138	87.2979
1.132	87.3357
1.126	87.3752
1.12	87.3594
1.114	87.3649
1.108	87.3436
1.102	87.369
1.096	87.314
1.09	87.2983
1.084	87.3527
1.078	87.2343
1.072	87.3154
1.066	87.3949
1.06	87.3266
1.054	87.2806
1.048	87.2988
1.042	87.2768
1.036	87.3666
1.03	87.319
1.024	87.2396
1.018	87.1752
1.012	87.1721
1.006	87.178
1	87.2892
0.994	87.1392
0.988	87.2212
0.982	87.1435
0.976	87.0621
0.97	87.0174
0.964	87.0141
0.958	87.0765
0.952	87.127
0.946	87.1511
0.94	87.1489
0.934	87.069
0.928	87.0244
0.922	87.1092
0.916	87.1466
0.91	87.061
0.904	86.9857
0.898	87.0185
0.892	86.9735
0.886	86.9534
0.88	86.9576
0.874	86.933
0.868	86.8771
0.862	86.8573
0.856	86.5932
0.85	86.6683
0.844	86.546
0.838	86.5742
0.832	86.5588
0.826	86.5247
0.82	86.5578
0.814	86.4923
0.808	86.4752
0.802	86.4662
0.796	86.3945
0.79	86.3457
0.784	86.3288
0.778	86.333
0.772	86.1666
0.766	86.225
0.76	86.214
0.754	86.15
0.748	86.1749
0.742	86.123
0.736	86.1274
0.73	86.1226
0.724	86.1372
0.718	86.0871
0.712	86.0585
0.706	86.0258
0.7	86.035
0.694	86.0142
0.688	85.9819
0.682	85.9699
0.676	85.8665
0.67	85.8605
0.664	85.8126
0.658	85.7378
0.652	85.6759
0.646	85.5649
0.64	85.4769
0.634	85.3717
0.628	85.2473
0.622	85.1524
0.616	85.0102
0.61	84.9021
0.604	84.7754
0.598	84.6904
0.592	84.6194
0.586	84.5117
0.58	84.399
0.574	84.3039
0.568	84.204
0.562	84.1336
0.556	83.9798
0.55	83.904
0.544	83.7921
0.538	83.6977
0.532	83.5705
0.526	83.4591
0.52	83.3362
0.514	83.1825
0.508	82.9915
0.502	82.8184
0.496	82.5898
0.49	82.4064
0.484	82.1326
0.478	81.9425
0.472	81.7389
0.466	81.4841
0.46	81.2099
0.454	80.8748
0.448	80.5274
0.442	80.1455
0.436	79.7628
0.43	79.3761
0.424	78.9597
0.418	78.5164
0.412	77.982
0.406	77.4499
0.4	76.7912
