Name: Wollastonite CaSiO_3
Type: Mineral
Class: Silicate
Subclass: Inosilicate
Particle Size: Coarse
Sample No.: IN-2A
Owner: JPL
Wavelength Range: VSWIR
Origin: USA, California, Inyo County, Panamint Mountains
Description: Particle size was 125-500um.Collected by Burminco Original ASTER Spectral Library name was jpl.beckman.mineral.silicate.inosilicate.coarse.in02a.spectrum.txt
Measurement: Hemispherical reflectance
X Units: Wavelength (micrometers)
Y Units: Reflectance (percent)
wavelength	value
0.4	67.02
0.403	67.18
0.406	67.38
0.409	67.61
0.412	67.7
0.415	67.81
0.418	67.95
0.421	68.28
0.424	68.35
0.427	68.3
0.43	68.38
0.433	68.7
0.436	68.6
0.439	68.76
0.442	69
0.445	69.11
0.448	69.02
0.451	69.4
0.454	69.54
0.457	69.5
0.46	69.7
0.463	69.96
0.466	69.87
0.469	70.09
0.472	70.23
0.475	70.49
0.478	70.61
0.481	70.75
0.484	70.94
0.487	70.93
0.49	70.99
0.493	71.31
0.496	71.29
0.499	71.42
0.502	71.53
0.505	71.85
0.508	71.79
0.511	71.92
0.514	72.19
0.517	72
0.52	72.25
0.523	72.53
0.526	72.43
0.529	72.33
0.532	72.58
0.535	72.55
0.538	72.59
0.541	72.63
0.544	72.95
0.547	72.86
0.55	73.01
0.553	73.09
0.556	73.21
0.559	73.21
0.562	73.64
0.565	73.64
0.568	73.42
0.571	73.26
0.574	73.19
0.577	73.21
0.58	73.18
0.583	72.95
0.586	73.2
0.589	73.19
0.592	73.08
0.595	72.95
0.598	73.11
0.601	73.13
0.604	73.11
0.607	73.08
0.61	73
0.613	73
0.616	72.81
0.619	72.66
0.622	72.69
0.625	72.71
0.628	72.62
0.631	72.48
0.634	72.58
0.637	72.73
0.64	72.7
0.643	72.47
0.646	72.62
0.649	72.62
0.652	72.58
0.655	72.47
0.658	72.48
0.661	72.68
0.664	72.69
0.667	72.67
0.67	72.77
0.673	72.86
0.676	72.87
0.679	72.8
0.682	72.88
0.685	72.85
0.688	72.8
0.691	72.84
0.694	73
0.697	72.96
0.7	72.79
0.703	72.77
0.706	72.94
0.709	72.82
0.712	72.78
0.715	72.98
0.718	73.18
0.721	73.09
0.724	72.98
0.727	73.17
0.73	73.29
0.733	73.17
0.736	73.13
0.739	73.35
0.742	73.27
0.745	73.16
0.748	73.16
0.751	73.34
0.754	73.16
0.757	72.98
0.76	73.23
0.763	73.25
0.766	72.97
0.769	72.92
0.772	73.22
0.775	73.1
0.778	72.92
0.781	72.75
0.784	73
0.787	72.91
0.79	72.72
0.793	72.93
0.796	72.75
0.799	72.64
0.808	72.48
0.82	72.22
0.832	71.98
0.844	71.65
0.856	71.06
0.868	70.57
0.88	70.13
0.892	69.65
0.904	69.26
0.916	68.78
0.928	68.38
0.94	68.04
0.952	67.9
0.964	67.75
0.976	67.52
0.988	67.44
1	67.26
1.012	67.26
1.024	67.08
1.036	67
1.048	66.88
1.06	66.81
1.072	66.75
1.084	66.86
1.096	66.68
1.108	66.7
1.12	66.56
1.132	66.55
1.144	66.58
1.156	66.57
1.168	66.5
1.18	66.67
1.192	66.82
1.204	66.97
1.216	67.05
1.228	67.14
1.24	67.22
1.252	67.38
1.264	67.59
1.276	67.73
1.288	67.79
1.3	67.81
1.312	67.99
1.324	67.93
1.336	68.01
1.348	68.09
1.36	68.05
1.372	68.02
1.384	67.83
1.396	67.7
1.408	67.56
1.42	67.44
1.432	67.18
1.444	67.14
1.456	67.09
1.468	66.47
1.48	66.39
1.492	67.34
1.504	67.58
1.516	67.56
1.528	67.6
1.54	67.75
1.552	67.79
1.564	67.88
1.576	67.96
1.588	68
1.6	68.08
1.612	68.18
1.624	68.3
1.636	68.51
1.648	68.59
1.66	68.62
1.672	68.8
1.684	68.95
1.696	69.16
1.708	69.08
1.72	69.15
1.732	69.21
1.744	69.34
1.756	69.37
1.768	69.42
1.78	69.44
1.792	69.54
1.804	69.51
1.816	69.54
1.828	69.47
1.84	69.51
1.852	69.37
1.864	69.18
1.876	68.85
1.888	68.04
1.9	66.91
1.912	66.09
1.924	65.86
1.936	66.11
1.948	66.45
1.96	66.76
1.972	67.13
1.984	67.49
1.996	67.92
2.008	68.24
2.02	68.51
2.032	68.78
2.044	68.92
2.056	69.1
2.068	69.22
2.08	69.36
2.092	69.39
2.104	69.52
2.116	69.67
2.128	69.63
2.14	69.57
2.152	69.42
2.164	69.28
2.176	69.15
2.188	68.9
2.2	68.57
2.212	67.92
2.224	67.41
2.236	67.3
2.248	67.47
2.26	67.62
2.272	67.47
2.284	67.23
2.296	67.02
2.308	66.47
2.32	65.23
2.332	63.96
2.344	63.28
2.356	63.24
2.368	63.44
2.38	63.89
2.392	64.07
2.404	64.49
2.416	64.96
2.428	65.16
2.44	65.12
2.452	64.75
2.464	64.38
2.476	63.91
2.488	63.83
2.5	63.62
