Name: Anatase TiO_2
Type: Mineral
Class: Oxide
Subclass: None
Particle Size: Fine
Sample No.: O-12A
Owner: JPL
Wavelength Range: VSWIR
Description: Synthetic anatase. Particle size was 0-45um.Collected by JPL Original ASTER Spectral Library name was jpl.beckman.mineral.oxide.none.fine.o12a.spectrum.txt
Measurement: Hemispherical reflectance
X Units: Wavelength (micrometers)
Y Units: Reflectance (percent)
wavelength	value
0.4	82.66
0.403	85.61
0.406	87.67
0.409	89.29
0.412	90.43
0.415	91.15
0.418	91.45
0.421	91.93
0.424	92.17
0.427	92.29
0.43	92.71
0.433	92.65
0.436	92.83
0.439	93.18
0.442	93.24
0.445	93.36
0.448	93.37
0.451	93.54
0.454	93.79
0.457	93.86
0.46	93.98
0.463	93.99
0.466	94.16
0.469	94.41
0.472	94.53
0.475	94.36
0.478	94.49
0.481	94.73
0.484	94.86
0.487	94.8
0.49	94.75
0.493	94.81
0.496	94.87
0.499	95.17
0.502	95.16
0.505	95.1
0.508	95.22
0.511	95.27
0.514	95.44
0.517	95.62
0.52	95.44
0.523	95.5
0.526	95.57
0.529	95.62
0.532	95.62
0.535	95.41
0.538	95.58
0.541	95.52
0.544	95.52
0.547	95.8
0.55	95.62
0.553	95.8
0.556	95.92
0.559	95.89
0.562	96.32
0.565	96.03
0.568	95.96
0.571	95.97
0.574	95.76
0.577	95.78
0.58	95.6
0.583	95.61
0.586	95.73
0.589	95.73
0.592	95.79
0.595	95.73
0.598	95.77
0.601	96.04
0.604	96.02
0.607	96.13
0.61	96.02
0.613	95.78
0.616	95.9
0.619	95.84
0.622	96.08
0.625	96.01
0.628	95.79
0.631	95.9
0.634	95.96
0.637	96.13
0.64	95.85
0.643	95.9
0.646	95.78
0.649	96.01
0.652	96.02
0.655	95.96
0.658	95.73
0.661	95.84
0.664	96.01
0.667	95.96
0.67	95.96
0.673	95.9
0.676	95.95
0.679	95.91
0.682	95.95
0.685	96.01
0.688	95.96
0.691	95.84
0.694	96.13
0.697	96.02
0.7	95.93
0.703	95.95
0.706	96.01
0.709	95.96
0.712	95.72
0.715	95.95
0.718	95.84
0.721	95.96
0.724	95.95
0.727	95.89
0.73	95.96
0.733	95.95
0.736	96.01
0.739	95.89
0.742	95.95
0.745	95.78
0.748	95.83
0.751	95.84
0.754	95.89
0.757	95.78
0.76	95.72
0.763	95.77
0.766	95.6
0.769	95.95
0.772	95.83
0.775	96
0.778	95.72
0.781	95.83
0.784	95.77
0.787	96.07
0.79	95.94
0.793	96
0.796	95.9
0.799	95.96
0.808	95.99
0.82	96.01
0.832	96.13
0.844	96.19
0.856	96.32
0.868	96.38
0.88	96.38
0.892	96.38
0.904	96.2
0.916	96.14
0.928	96.14
0.94	96.08
0.952	96.2
0.964	96.26
0.976	96.14
0.988	96.08
1	96.11
1.012	96.15
1.024	96.08
1.036	96.09
1.048	96.2
1.06	96.14
1.072	96.01
1.084	95.91
1.096	95.84
1.108	95.8
1.12	95.86
1.132	95.87
1.144	95.89
1.156	95.88
1.168	95.73
1.18	95.66
1.192	95.59
1.204	95.63
1.216	95.38
1.228	95.38
1.24	95.3
1.252	95.35
1.264	95.27
1.276	95.36
1.288	95.33
1.3	95.25
1.312	95.11
1.324	94.92
1.336	94.79
1.348	94.63
1.36	94.47
1.372	93.83
1.384	93.12
1.396	93.31
1.408	93.27
1.42	93.06
1.432	92.96
1.444	92.99
1.456	93
1.468	93.18
1.48	93.24
1.492	93.35
1.504	93.35
1.516	93.47
1.528	93.53
1.54	93.47
1.552	93.41
1.564	93.47
1.576	93.41
1.588	93.47
1.6	93.47
1.612	93.45
1.624	93.36
1.636	93.28
1.648	93.25
1.66	93.23
1.672	93.27
1.684	93.25
1.696	93.17
1.708	93.16
1.72	92.99
1.732	92.88
1.744	92.58
1.756	92.53
1.768	92.53
1.78	92.42
1.792	92.42
1.804	92.39
1.816	92.31
1.828	92.21
1.84	92.13
1.852	91.65
1.864	90.77
1.876	89.14
1.888	88.97
1.9	88.85
1.912	88.69
1.924	88.45
1.936	88.26
1.948	88.3
1.96	88.39
1.972	88.53
1.984	88.61
1.996	88.94
2.008	89.29
2.02	89.65
2.032	89.79
2.044	89.94
2.056	89.94
2.068	89.99
2.08	90.11
2.092	90.11
2.104	90.27
2.116	90.43
2.128	90.4
2.14	90.12
2.152	89.91
2.164	89.54
2.176	89.26
2.188	89.02
2.2	88.9
2.212	88.75
2.224	88.76
2.236	88.54
2.248	88.5
2.26	88.44
2.272	88.24
2.284	88.07
2.296	87.93
2.308	87.74
2.32	87.63
2.332	87.53
2.344	87.41
2.356	87.19
2.368	86.93
2.38	86.69
2.392	86.26
2.404	86.1
2.416	85.8
2.428	85.39
2.44	85.06
2.452	84.65
2.464	84.24
2.476	84.06
2.488	84.32
2.5	84.51
