Name: Quartz SiO_2
Type: Mineral
Class: Silicate
Subclass: Tectosilicate
Particle Size: Fine
Sample No.: TS-1D
Owner: JPL
Wavelength Range: TIR
Origin: USA, Coloradi, Buffalo
Description: Milky quartz. Particle size was 0-45um.Collected by Ward's Original ASTER Spectral Library name was jpl.nicolet.mineral.silicate.tectosilicate.fine.ts01d.spectrum.txt
Measurement: Hemispherical reflectance
X Units: Wavelength (micrometers)
Y Units: Reflectance (percent)
wavelength	value
15.3853	20.107
15.1161	18.867
14.8563	16.0736
14.6052	9.9633
14.3624	3.4066
14.1276	9.4048
13.9004	14.3544
13.6803	15.3972
13.4671	14.2659
13.2604	11.9047
13.06	7.647
12.8656	7.1283
12.6769	5.3266
12.4936	6.0033
12.3155	1.5565
12.1425	4.3668
11.9742	9.3312
11.8106	12.9712
11.6513	15.2045
11.4963	16.1408
11.3454	17.3858
11.1983	17.6961
11.0551	18.3875
10.9154	18.454
10.7793	17.6347
10.6465	16.3437
10.5169	15.5485
10.3904	14.7061
10.267	13.635
10.1464	12.5649
10.0287	11.1743
9.9136	11.2905
9.8012	10.7161
9.6913	9.8954
9.5838	10.053
9.4787	11.8493
9.3758	18.8616
9.2752	24.3176
9.1767	24.3978
9.0803	24.2026
8.9858	23.9285
8.8934	23.5161
8.8028	22.1657
8.714	20.3301
8.627	13.6675
8.5417	20.5718
8.4581	20.637
8.3761	20.1544
8.2957	21.0329
8.2169	23.5774
8.1395	22.4656
8.0635	16.2553
7.989	11.9087
7.9158	7.9619
7.8439	4.8835
7.7734	3.7596
7.7041	2.6888
7.636	1.7602
7.5691	0.976
7.5034	0.5499
7.4388	0.3935
7.3753	0.4594
7.3129	0.4877
7.2515	0.9684
7.1912	1.4383
7.1318	1.8562
7.0734	2.5172
7.016	3.3134
6.9595	4.3738
6.9039	5.216
6.8492	5.37
6.7953	5.3389
6.7423	4.9047
6.6901	4.7908
6.6387	6.186
6.5881	5.6604
6.5382	5.8353
6.4892	10.1071
6.4408	13.3377
6.3931	12.938
6.3462	10.309
6.2999	7.4251
6.2543	5.3142
6.2094	4.602
6.1651	6.2382
6.1214	10.265
6.0784	13.6831
6.0359	14.0192
5.994	12.7844
5.9527	9.9823
5.912	10.6978
5.8718	14.6017
5.8322	18.5414
5.7931	21.748
5.7545	24.7999
5.7165	26.6985
5.6789	24.327
5.6418	17.1476
5.6052	12.9436
5.5691	12.3803
5.5334	14.0525
5.4982	17.5423
5.4635	20.6542
5.4291	18.8245
5.3952	11.6999
5.3618	6.9887
5.3287	6.7745
5.2961	7.5146
5.2638	10.1645
5.2319	15.7652
5.2004	20.6326
5.1693	20.395
5.1386	19.6329
5.1082	19.4706
5.0782	17.133
5.0485	16.2965
5.0192	15.8722
4.9902	16.7301
4.9616	21.5991
4.9332	25.3091
4.9052	32.4441
4.8776	44.6003
4.8502	51.5899
4.8231	55.7188
4.7963	58.7475
4.7699	60.9983
4.7437	62.6639
4.7178	62.8712
4.6922	59.5018
4.6668	60.3843
4.6418	64.7216
4.617	67.6371
4.5924	68.8095
4.5681	68.672
4.5441	66.6465
4.5203	62.127
4.4968	56.5154
4.4735	54.5945
4.4505	56.056
4.4277	57.9009
4.4051	60.3552
4.3828	63.4151
4.3607	66.5331
4.3388	68.3157
4.3171	68.337
4.2956	67.3424
4.2744	67.341
4.2534	69.0711
4.2325	68.1886
4.2119	69.4092
4.1915	70.0626
4.1712	71.1622
4.1512	71.7654
4.1313	72.5805
4.1117	73.5511
4.0922	74.4473
4.0729	75.1953
4.0538	75.4068
4.0349	75.2427
4.0161	75.1461
3.9976	75.1797
3.9792	75.6886
3.9609	76.1272
3.9428	76.7212
3.9249	76.9639
3.9072	76.9263
3.8896	76.541
3.8722	76.1703
3.8549	76.0899
3.8378	76.1157
3.8208	76.4
3.804	76.5588
3.7873	76.434
3.7708	76.1209
3.7544	75.7086
3.7382	75.6724
3.7221	75.9257
3.7061	76.5027
3.6903	77.2723
3.6746	77.7718
3.659	78.1716
3.6436	78.428
3.6283	78.426
3.6131	78.4343
3.5981	78.519
3.5832	78.5965
3.5684	78.7524
3.5537	78.7748
3.5391	78.8984
3.5247	78.9299
3.5104	78.566
3.4962	78.1453
3.4821	78.4878
3.4681	78.5414
3.4543	78.5683
3.4405	78.165
3.4269	77.4861
3.4133	76.8934
3.3999	77.2634
3.3866	77.5775
3.3733	77.3686
3.3602	77.9466
3.3472	78.1635
3.3343	78.4673
3.3215	78.7698
3.3088	78.6497
3.2961	78.7566
3.2836	78.4675
3.2712	78.3102
3.2588	78.1885
3.2466	78.0092
3.2345	77.8658
3.2224	77.6673
3.2104	77.5599
3.1985	77.4726
3.1867	77.1
3.175	76.9758
3.1634	76.7556
3.1519	76.4234
3.1404	76.1317
3.129	75.7671
3.1178	75.637
3.1065	75.6106
3.0954	75.4365
3.0844	75.3249
3.0734	75.1292
3.0625	74.8354
3.0517	74.4849
3.041	74.1289
3.0303	73.8668
3.0197	73.8969
3.0092	73.7195
2.9987	73.7229
2.9884	73.6467
2.9781	73.6458
2.9678	73.3481
2.9577	72.7439
2.9476	73.2109
2.9376	73.2951
2.9276	73.5464
2.9177	73.5089
2.9079	73.768
2.8982	74.001
2.8885	74.2434
2.8789	74.3882
2.8693	74.7411
2.8598	75.1853
2.8504	75.5287
2.841	75.8075
2.8317	75.9435
2.8224	76.3521
2.8133	76.5479
2.8041	77.0852
2.7951	76.8796
2.786	77.1959
2.7771	77.2882
2.7682	77.661
2.7594	77.4931
2.7506	78.0184
2.7418	79.2434
2.7332	79.5866
2.7246	81.1163
2.716	81.4155
2.7075	82.0419
2.699	82.359
2.6906	82.8312
2.6823	83.002
2.674	83.4134
2.6657	84.5864
2.6575	83.4966
2.6494	83.366
2.6413	83.5386
2.6332	83.8344
2.6252	83.7342
2.6173	84.3298
2.6094	83.8185
2.6015	83.8473
2.5937	84.5472
2.5859	83.9963
2.5782	83.6842
2.5706	83.93
2.5629	84.1079
2.5554	83.4489
2.5478	83.8011
2.5403	83.6126
2.5329	83.644
2.5255	83.6182
2.5181	83.752
2.5108	83.6217
2.5035	83.5796
2.4963	83.5369
2.4891	83.5772
2.482	83.6805
2.4749	83.5076
2.4678	83.6187
2.4608	83.6506
2.4538	83.6293
2.4468	83.6586
2.4399	83.6295
2.4331	83.7635
2.4262	83.7127
2.4194	83.8273
2.4127	83.509
2.4059	83.6135
2.3993	83.6713
2.3926	83.7342
2.386	83.7972
2.3795	83.7526
2.3729	83.8164
2.3664	83.9713
2.36	83.7118
2.3535	83.7157
2.3471	83.8163
2.3408	83.7657
2.3345	83.7819
2.3282	83.8478
2.3219	83.7692
2.3157	83.8868
2.3095	83.746
2.3034	83.673
2.2972	83.7055
2.2911	83.6457
2.2851	83.7933
2.279	83.848
2.2731	83.757
2.2671	83.8206
2.2612	83.9051
2.2553	83.9062
2.2494	83.6779
2.2435	83.6678
2.2377	83.8343
2.232	83.6915
2.2262	83.7883
2.2205	83.7647
2.2148	83.7986
2.2091	83.7409
2.2035	83.7597
2.1979	83.6838
2.1923	83.7338
2.1868	83.8376
2.1812	83.6607
2.1758	83.9257
2.1703	83.7993
2.1649	83.9373
2.1595	83.8577
2.1541	84.0549
2.1487	83.9352
2.1434	84.014
2.1381	83.8598
2.1328	84.0364
2.1275	83.911
2.1223	83.9325
2.1171	83.942
2.112	83.811
2.1068	83.9809
2.1017	83.8964
2.0966	84.1076
2.0915	83.9729
2.0865	83.7031
2.0814	83.8869
2.0764	84.0874
2.0715	84.4413
2.0665	84.1143
2.0616	83.9308
2.0567	83.814
2.0518	83.9081
2.0469	83.939
2.0421	83.9005
2.0373	83.9955
2.0325	83.728
2.0277	84.0215
2.0229	83.9517
2.0182	83.8716
2.0135	83.5877
2.0088	83.9775
2.0042	84.202
