Name: Nontronite Na_0.33Fe_2^3+(Si,Al)_4O_10(OH)_2.H_2O
Type: Mineral
Class: Silicate
Subclass: Phyllosilicate
Particle Size: Fine
Sample No.: PS-6D
Owner: JPL
Wavelength Range: VSWIR
Origin: USA, Washington, Grant County
Description: Particle size was  0-45um.Collected by Clay Mineral Society Original ASTER Spectral Library name was jpl.beckman.mineral.silicate.phyllosilicate.fine.ps06d.spectrum.txt
Measurement: Hemispherical reflectance
X Units: Wavelength (micrometers)
Y Units: Reflectance (percent)
wavelength	value
0.4	7.22
0.403	7.64
0.406	8.04
0.409	8.26
0.412	8.64
0.415	8.92
0.418	9.31
0.421	9.74
0.424	9.96
0.427	10.33
0.43	10.61
0.433	10.83
0.436	11.14
0.439	11.34
0.442	11.62
0.445	11.89
0.448	12.4
0.451	12.73
0.454	13.47
0.457	14.07
0.46	14.29
0.463	15.23
0.466	15.74
0.469	16.48
0.472	17.03
0.475	17.68
0.478	18.13
0.481	18.59
0.484	18.82
0.487	19.18
0.49	19.44
0.493	19.57
0.496	19.84
0.499	20.03
0.502	20.2
0.505	20.53
0.508	20.84
0.511	21.17
0.514	21.72
0.517	22.16
0.52	22.54
0.523	23.19
0.526	24.09
0.529	24.82
0.532	25.99
0.535	26.78
0.538	27.51
0.541	28.24
0.544	28.9
0.547	29.45
0.55	30.37
0.553	31.09
0.556	31.79
0.559	32.41
0.562	33.46
0.565	34.04
0.568	34.5
0.571	34.88
0.574	35.03
0.577	35.11
0.58	35.3
0.583	35.43
0.586	35.52
0.589	35.48
0.592	35.53
0.595	35.37
0.598	35.31
0.601	35.26
0.604	35.22
0.607	35.03
0.61	35.03
0.613	34.73
0.616	34.57
0.619	34.45
0.622	34.36
0.625	34.34
0.628	34.39
0.631	34.49
0.634	34.31
0.637	34.34
0.64	34.46
0.643	34.72
0.646	34.82
0.649	35.13
0.652	35.29
0.655	35.56
0.658	35.92
0.661	36.34
0.664	36.71
0.667	37.16
0.67	37.63
0.673	38.1
0.676	38.77
0.679	39.29
0.682	39.79
0.685	40.57
0.688	41.28
0.691	41.84
0.694	42.57
0.697	43.22
0.7	43.78
0.703	44.82
0.706	45.59
0.709	46.19
0.712	46.79
0.715	47.67
0.718	48.23
0.721	48.81
0.724	49.51
0.727	50.05
0.73	50.56
0.733	51.24
0.736	51.68
0.739	52.13
0.742	52.66
0.745	53.01
0.748	53.4
0.751	53.85
0.754	54.09
0.757	54.38
0.76	54.79
0.763	55.04
0.766	55.31
0.769	55.67
0.772	55.78
0.775	56.06
0.778	56.32
0.781	56.35
0.784	56.41
0.787	56.77
0.79	56.79
0.793	57.05
0.796	57.01
0.799	57.22
0.808	58.08
0.82	58.2
0.832	58.25
0.844	58.4
0.856	58.28
0.868	58.36
0.88	58.24
0.892	58.22
0.904	58.22
0.916	58.31
0.928	58.49
0.94	58.58
0.952	58.78
0.964	58.91
0.976	59.36
0.988	60.01
1	60.37
1.012	61.01
1.024	61.73
1.036	62.3
1.048	63.02
1.06	63.6
1.072	64.44
1.084	65.02
1.096	65.72
1.108	66.32
1.12	66.86
1.132	67.41
1.144	67.34
1.156	67.61
1.168	68.3
1.18	68.75
1.192	69.12
1.204	69.56
1.216	70.1
1.228	70.22
1.24	70.68
1.252	71.04
1.264	71.35
1.276	71.57
1.288	71.86
1.3	71.79
1.312	71.59
1.324	71.3
1.336	70.92
1.348	70.71
1.36	70.29
1.372	68.94
1.384	65.04
1.396	57.89
1.408	52.56
1.42	52.58
1.432	54.59
1.444	57.26
1.456	58.55
1.468	59.85
1.48	61.66
1.492	63.34
1.504	64.62
1.516	65.75
1.528	66.75
1.54	67.47
1.552	68.19
1.564	68.82
1.576	69.35
1.588	69.76
1.6	70.2
1.612	70.42
1.624	70.61
1.636	70.89
1.648	71.02
1.66	71.22
1.672	71.32
1.684	71.27
1.696	71.26
1.708	70.93
1.72	70.87
1.732	70.49
1.744	69.97
1.756	69.53
1.768	69
1.78	68.66
1.792	68.41
1.804	68.41
1.816	68.24
1.828	68.07
1.84	67.3
1.852	65.76
1.864	62.25
1.876	54.72
1.888	43.82
1.9	34.07
1.912	33.04
1.924	35.89
1.936	38.12
1.948	39.65
1.96	41.01
1.972	42.78
1.984	44.69
1.996	46.98
2.008	48.84
2.02	50.88
2.032	52.54
2.044	53.87
2.056	55.08
2.068	55.9
2.08	56.83
2.092	57.5
2.104	58.07
2.116	58.84
2.128	59.31
2.14	59.68
2.152	59.67
2.164	59.2
2.176	58.38
2.188	57.05
2.2	55.84
2.212	54.43
2.224	53.03
2.236	52.11
2.248	52.36
2.26	52.29
2.272	50.49
2.284	48.74
2.296	48.79
2.308	49.8
2.32	50.28
2.332	49.31
2.344	47.73
2.356	45.78
2.368	43.87
2.38	42.09
2.392	40.74
2.404	39.95
2.416	39.08
2.428	38.1
2.44	36.83
2.452	35.57
2.464	34.28
2.476	32.97
2.488	31.95
2.5	31.25
