Name: Calcite CaCO_3
Type: Mineral
Class: Carbonate
Subclass: None
Particle Size: Medium
Sample No.: C-3E
Owner: JPL
Wavelength Range: VSWIR
Description: Particle size was 45-125um.Collected by JPL Original ASTER Spectral Library name was jpl.beckman.mineral.carbonate.none.medium.c03e.spectrum.txt
Measurement: Hemispherical reflectance
X Units: Wavelength (micrometers)
Y Units: Reflectance (percent)
wavelength	value
0.4	70.52
0.403	71.33
0.406	72.24
0.409	72.64
0.412	73.55
0.415	73.84
0.418	74.7
0.421	74.98
0.424	75.67
0.427	76.13
0.43	76.59
0.433	77.05
0.436	77.56
0.439	77.9
0.442	78.13
0.445	78.65
0.448	78.76
0.451	79.45
0.454	79.28
0.457	79.91
0.46	79.69
0.463	80.27
0.466	80.27
0.469	80.73
0.472	80.46
0.475	80.86
0.478	80.7
0.481	81.1
0.484	80.88
0.487	81.33
0.49	81.22
0.493	81.47
0.496	81.23
0.499	81.65
0.502	81.48
0.505	81.71
0.508	81.71
0.511	81.71
0.514	82.04
0.517	81.94
0.52	82.16
0.523	81.76
0.526	82.44
0.529	82.16
0.532	82.27
0.535	82.1
0.538	82.39
0.541	82.39
0.544	82.27
0.547	82.62
0.55	82.33
0.553	82.79
0.556	82.67
0.559	82.91
0.562	82.73
0.565	82.91
0.568	82.67
0.571	83.08
0.574	82.44
0.577	82.73
0.58	82.62
0.583	82.44
0.586	83.02
0.589	82.5
0.592	83.02
0.595	82.79
0.598	82.96
0.601	83.14
0.604	82.96
0.607	83.19
0.61	82.96
0.613	83.37
0.616	83.02
0.619	83.19
0.622	83.02
0.625	83.25
0.628	83.25
0.631	83.08
0.634	83.37
0.637	83.14
0.64	83.65
0.643	83.31
0.646	83.54
0.649	83.48
0.652	83.54
0.655	83.65
0.658	83.42
0.661	83.7
0.664	83.54
0.667	83.99
0.67	83.65
0.673	83.93
0.676	83.93
0.679	83.65
0.682	84.16
0.685	83.76
0.688	84.16
0.691	83.87
0.694	84.22
0.697	84.05
0.7	83.99
0.703	83.7
0.706	84.05
0.709	83.87
0.712	84.39
0.715	84.16
0.718	84.39
0.721	84.22
0.724	84.05
0.727	84.57
0.73	84.05
0.733	84.45
0.736	84.16
0.739	84.34
0.742	84.39
0.745	84.22
0.748	84.45
0.751	84.22
0.754	84.62
0.757	84.34
0.76	84.51
0.763	84.45
0.766	84.34
0.769	84.74
0.772	84.34
0.775	84.57
0.778	84.34
0.781	84.74
0.784	84.45
0.787	84.62
0.79	84.51
0.793	84.34
0.796	84.74
0.799	84.57
0.808	84.68
0.82	84.57
0.832	84.74
0.844	84.68
0.856	84.74
0.868	84.68
0.88	84.57
0.892	84.51
0.904	84.45
0.916	84.39
0.928	84.28
0.94	84.1
0.952	84.05
0.964	83.93
0.976	83.76
0.988	83.54
1	83.48
1.012	83.25
1.024	83.14
1.036	83.08
1.048	82.79
1.06	82.56
1.072	82.56
1.084	82.5
1.096	82.44
1.108	82.5
1.12	82.62
1.132	82.5
1.144	82.33
1.156	82.55
1.168	82.7
1.18	82.68
1.192	82.78
1.204	82.83
1.216	82.71
1.228	82.88
1.24	82.83
1.252	82.94
1.264	82.97
1.276	83.01
1.288	82.99
1.3	82.79
1.312	83
1.324	82.93
1.336	82.91
1.348	83
1.36	82.94
1.372	83
1.384	82.71
1.396	82.83
1.408	82.84
1.42	82.74
1.432	82.94
1.444	82.9
1.456	83.02
1.468	82.91
1.48	83.2
1.492	83.37
1.504	83.37
1.516	83.43
1.528	83.48
1.54	83.37
1.552	83.54
1.564	83.37
1.576	83.6
1.588	83.66
1.6	83.82
1.612	83.81
1.624	83.89
1.636	83.93
1.648	83.91
1.66	83.95
1.672	84.1
1.684	84.03
1.696	83.89
1.708	83.88
1.72	83.65
1.732	83.6
1.744	83.6
1.756	83.65
1.768	83.94
1.78	84.34
1.792	84.23
1.804	84.14
1.816	83.89
1.828	83.24
1.84	82.42
1.852	81.61
1.864	80.06
1.876	79.92
1.888	81.49
1.9	82.66
1.912	82.99
1.924	83.07
1.936	82.83
1.948	82.12
1.96	81.4
1.972	80.66
1.984	79.81
1.996	79.74
2.008	81.29
2.02	82.92
2.032	83.58
2.044	84.01
2.056	84.18
2.068	84.25
2.08	83.97
2.092	83.6
2.104	83.21
2.116	82.67
2.128	81.6
2.14	80.23
2.152	79.3
2.164	79.53
2.176	80.33
2.188	80.56
2.2	80.13
2.212	78.92
2.224	77.52
2.236	75.49
2.248	73.22
2.26	70.33
2.272	67.28
2.284	64.11
2.296	61.07
2.308	58.29
2.32	55.98
2.332	54.84
2.344	56.89
2.356	62.55
2.368	68.91
2.38	73.05
2.392	74.64
2.404	74.58
2.416	73.45
2.428	71.21
2.44	68.1
2.452	64.04
2.464	59.49
2.476	55.27
2.488	51.6
2.5	48.55
