Name: Clinochlore (Chlorite) (Mg,Al)_6(Si,Al)_4O_10(OH)_8
Type: Mineral
Class: Silicate
Subclass: Phyllosilicate
Particle Size: Coarse
Sample No.: PS-12A
Owner: JPL
Wavelength Range: VSWIR
Origin: USA, California, El Dorado County, Flagstaff Hill
Description: Particle size was 125-500um.Collected by Clay Mineral Society Original ASTER Spectral Library name was jpl.beckman.mineral.silicate.phyllosilicate.coarse.ps12a.spectrum.txt
Measurement: Hemispherical reflectance
X Units: Wavelength (micrometers)
Y Units: Reflectance (percent)
wavelength	value
0.4	7.91
0.403	8.08
0.406	8.07
0.409	8.02
0.412	8.13
0.415	8.18
0.418	8.37
0.421	8.53
0.424	8.48
0.427	8.57
0.43	8.77
0.433	8.84
0.436	8.91
0.439	8.9
0.442	9.08
0.445	9.1
0.448	9.21
0.451	9.15
0.454	9.22
0.457	9.23
0.46	9.34
0.463	9.5
0.466	9.62
0.469	9.91
0.472	10.12
0.475	10.24
0.478	10.23
0.481	10.39
0.484	10.35
0.487	10.43
0.49	10.38
0.493	10.37
0.496	10.44
0.499	10.63
0.502	10.77
0.505	10.71
0.508	10.88
0.511	11.06
0.514	10.93
0.517	10.8
0.52	10.62
0.523	10.67
0.526	10.66
0.529	10.62
0.532	10.56
0.535	10.53
0.538	10.48
0.541	10.55
0.544	10.54
0.547	10.42
0.55	10.48
0.553	10.41
0.556	10.42
0.559	10.29
0.562	10.29
0.565	10.23
0.568	10.21
0.571	10.09
0.574	9.97
0.577	9.86
0.58	9.86
0.583	9.83
0.586	9.61
0.589	9.55
0.592	9.54
0.595	9.32
0.598	9.45
0.601	9.28
0.604	9.24
0.607	9.13
0.61	9.1
0.613	9.04
0.616	8.87
0.619	8.7
0.622	8.68
0.625	8.67
0.628	8.54
0.631	8.46
0.634	8.4
0.637	8.46
0.64	8.32
0.643	8.23
0.646	8.05
0.649	8.1
0.652	8.02
0.655	7.89
0.658	7.89
0.661	7.88
0.664	7.76
0.667	7.84
0.67	7.64
0.673	7.64
0.676	7.59
0.679	7.56
0.682	7.53
0.685	7.48
0.688	7.42
0.691	7.45
0.694	7.46
0.697	7.38
0.7	7.33
0.703	7.36
0.706	7.35
0.709	7.27
0.712	7.25
0.715	7.37
0.718	7.31
0.721	7.27
0.724	7.3
0.727	7.29
0.73	7.32
0.733	7.36
0.736	7.26
0.739	7.3
0.742	7.36
0.745	7.42
0.748	7.39
0.751	7.42
0.754	7.41
0.757	7.51
0.76	7.58
0.763	7.57
0.766	7.5
0.769	7.67
0.772	7.74
0.775	7.73
0.778	7.68
0.781	7.68
0.784	7.78
0.787	7.91
0.79	7.9
0.793	7.95
0.796	7.96
0.799	7.98
0.808	8.14
0.82	8.1
0.832	7.99
0.844	7.81
0.856	7.76
0.868	7.67
0.88	7.62
0.892	7.5
0.904	7.49
0.916	7.54
0.928	7.65
0.94	7.74
0.952	7.86
0.964	7.91
0.976	7.98
0.988	8.02
1	8.11
1.012	8.21
1.024	8.22
1.036	8.21
1.048	8.21
1.06	8.1
1.072	8.14
1.084	8.24
1.096	8.25
1.108	8.22
1.12	8.21
1.132	8.37
1.144	8.48
1.156	8.52
1.168	8.6
1.18	8.65
1.192	8.91
1.204	9.13
1.216	9.21
1.228	9.44
1.24	9.62
1.252	9.85
1.264	10.2
1.276	10.4
1.288	10.6
1.3	10.81
1.312	11.1
1.324	11.46
1.336	11.74
1.348	11.91
1.36	12.22
1.372	12.46
1.384	12.65
1.396	12.38
1.408	12.68
1.42	13.38
1.432	13.62
1.444	13.88
1.456	14.28
1.468	14.55
1.48	14.86
1.492	15.21
1.504	15.41
1.516	15.72
1.528	16.1
1.54	16.39
1.552	16.56
1.564	16.94
1.576	17.29
1.588	17.76
1.6	18.17
1.612	18.63
1.624	19.04
1.636	19.41
1.648	19.77
1.66	20.29
1.672	20.62
1.684	21.07
1.696	21.48
1.708	21.9
1.72	22.37
1.732	22.75
1.744	23.23
1.756	23.58
1.768	23.85
1.78	24.25
1.792	24.61
1.804	24.97
1.816	25.16
1.828	25.46
1.84	25.73
1.852	25.91
1.864	25.94
1.876	26.17
1.888	26.45
1.9	26.79
1.912	27.18
1.924	27.48
1.936	27.61
1.948	27.54
1.96	27.59
1.972	27.55
1.984	27.44
1.996	27.56
2.008	28.07
2.02	28.99
2.032	29.9
2.044	30.79
2.056	31.5
2.068	31.99
2.08	32.51
2.092	32.86
2.104	32.99
2.116	33.16
2.128	33.23
2.14	33.39
2.152	33.4
2.164	33.25
2.176	33.05
2.188	32.65
2.2	32.09
2.212	31.09
2.224	29.07
2.236	25.53
2.248	22.61
2.26	22.46
2.272	23.19
2.284	22.99
2.296	22.05
2.308	20.91
2.32	20.08
2.332	19.26
2.344	19.1
2.356	20.05
2.368	21.71
2.38	23.44
2.392	24.43
2.404	24.95
2.416	25.38
2.428	25.37
2.44	25.14
2.452	24.41
2.464	23.68
2.476	22.95
2.488	22.61
2.5	22.46
