Name: Anglesite PbSO_4
Type: Mineral
Class: Sulfate
Subclass: None
Particle Size: Coarse
Sample No.: SO-10A
Owner: JPL
Wavelength Range: VSWIR
Origin: USA, Arizona, Santa Cruz County, Glove Mine
Description: Particle size was 125-500um.Collected by JPL Original ASTER Spectral Library name was jpl.beckman.mineral.sulfate.none.coarse.so10a.spectrum.txt
Measurement: Hemispherical reflectance
X Units: Wavelength (micrometers)
Y Units: Reflectance (percent)
wavelength	value
0.4	13.2
0.403	13.26
0.406	13.3
0.409	13.31
0.412	13.25
0.415	13.33
0.418	13.43
0.421	13.51
0.424	13.46
0.427	13.53
0.43	13.58
0.433	13.71
0.436	13.67
0.439	13.7
0.442	13.73
0.445	13.81
0.448	13.88
0.451	13.91
0.454	13.92
0.457	13.88
0.46	14
0.463	14.08
0.466	14.08
0.469	14.23
0.472	14.24
0.475	14.35
0.478	14.56
0.481	14.66
0.484	14.67
0.487	14.74
0.49	14.83
0.493	14.86
0.496	15.03
0.499	15.21
0.502	15.22
0.505	15.5
0.508	15.47
0.511	15.54
0.514	15.46
0.517	15.61
0.52	15.74
0.523	15.84
0.526	16.01
0.529	16.1
0.532	16.18
0.535	16.17
0.538	16.3
0.541	16.41
0.544	16.52
0.547	16.66
0.55	16.7
0.553	16.83
0.556	16.97
0.559	16.99
0.562	17.22
0.565	17.28
0.568	17.4
0.571	17.38
0.574	17.46
0.577	17.54
0.58	17.51
0.583	17.61
0.586	17.62
0.589	17.84
0.592	17.91
0.595	17.84
0.598	18.01
0.601	18.04
0.604	18.23
0.607	18.2
0.61	18.32
0.613	18.35
0.616	18.42
0.619	18.47
0.622	18.41
0.625	18.56
0.628	18.63
0.631	18.76
0.634	18.73
0.637	18.83
0.64	18.9
0.643	18.91
0.646	19.05
0.649	19.08
0.652	19.08
0.655	19.18
0.658	19.28
0.661	19.37
0.664	19.33
0.667	19.44
0.67	19.59
0.673	19.66
0.676	19.69
0.679	19.68
0.682	19.7
0.685	19.86
0.688	19.97
0.691	19.94
0.694	19.98
0.697	20.12
0.7	20.15
0.703	20.16
0.706	20.33
0.709	20.36
0.712	20.4
0.715	20.41
0.718	20.48
0.721	20.63
0.724	20.66
0.727	20.7
0.73	20.73
0.733	20.83
0.736	20.81
0.739	20.96
0.742	21.01
0.745	21.05
0.748	21.12
0.751	21.21
0.754	21.21
0.757	21.29
0.76	21.3
0.763	21.38
0.766	21.42
0.769	21.43
0.772	21.6
0.775	21.61
0.778	21.62
0.781	21.67
0.784	21.71
0.787	21.74
0.79	21.88
0.793	21.99
0.796	22.02
0.799	22.14
0.808	22.94
0.82	23.13
0.832	23.34
0.844	23.52
0.856	23.77
0.868	23.92
0.88	24
0.892	24.26
0.904	24.33
0.916	24.56
0.928	24.67
0.94	24.96
0.952	25.01
0.964	25.16
0.976	25.38
0.988	25.52
1	25.61
1.012	25.7
1.024	25.85
1.036	26.04
1.048	26.13
1.06	26.37
1.072	26.5
1.084	26.59
1.096	26.79
1.108	27.03
1.12	27.21
1.132	27.5
1.144	27.67
1.156	27.93
1.168	28.25
1.18	28.64
1.192	28.89
1.204	29.34
1.216	29.59
1.228	29.96
1.24	30.22
1.252	30.51
1.264	30.7
1.276	30.81
1.288	31
1.3	31.06
1.312	31.19
1.324	31.22
1.336	31.29
1.348	31.32
1.36	31.41
1.372	31.49
1.384	31.51
1.396	31.47
1.408	31.48
1.42	31.55
1.432	31.49
1.444	31.52
1.456	31.59
1.468	31.62
1.48	31.6
1.492	31.63
1.504	31.71
1.516	31.69
1.528	31.65
1.54	31.65
1.552	31.69
1.564	31.71
1.576	31.73
1.588	31.79
1.6	31.79
1.612	31.75
1.624	31.88
1.636	31.87
1.648	31.8
1.66	31.86
1.672	31.86
1.684	31.95
1.696	31.94
1.708	31.92
1.72	32
1.732	31.94
1.744	31.9
1.756	31.92
1.768	31.88
1.78	31.88
1.792	31.88
1.804	31.85
1.816	31.92
1.828	31.99
1.84	31.91
1.852	31.89
1.864	31.93
1.876	31.89
1.888	31.89
1.9	31.85
1.912	31.85
1.924	31.82
1.936	31.66
1.948	31.71
1.96	31.87
1.972	31.88
1.984	31.98
1.996	32.04
2.008	32.16
2.02	32.17
2.032	32.17
2.044	32.34
2.056	32.34
2.068	32.38
2.08	32.49
2.092	32.47
2.104	32.56
2.116	32.7
2.128	32.74
2.14	32.71
2.152	32.71
2.164	32.72
2.176	32.67
2.188	32.7
2.2	32.65
2.212	32.73
2.224	32.8
2.236	32.79
2.248	32.79
2.26	32.84
2.272	32.93
2.284	32.91
2.296	32.98
2.308	33
2.32	33.13
2.332	33.21
2.344	33.21
2.356	33.23
2.368	33.21
2.38	33.27
2.392	33.19
2.404	33.08
2.416	33.17
2.428	33.14
2.44	33.15
2.452	33.16
2.464	33.17
2.476	33.31
2.488	33.57
2.5	33.86
