Name: Calcite CaCO_3
Type: Mineral
Class: Carbonate
Subclass: None
Particle Size: Coarse
Sample No.: C-3E
Owner: JPL
Wavelength Range: VSWIR
Origin: None.
Description: Particle size was 125-500um.Collected by:  JPL Original ASTER Spectral Library name was jpl.perkin.mineral.carbonate.none.coarse.c03e.spectrum.txt
Measurement: Hemispherical reflectance
X Units: Wavelength (micrometers)
Y Units: Reflectance (percent)
wavelength	value
2.5	36.1381
2.494	36.8326
2.488	37.9261
2.482	39.7741
2.476	42.3433
2.47	45.6533
2.464	49.0627
2.458	52.8105
2.452	55.9981
2.446	58.7866
2.44	61.341
2.434	63.6319
2.428	65.9087
2.422	67.9105
2.416	69.4898
2.41	70.4164
2.404	70.9222
2.398	71.0922
2.392	71.2913
2.386	71.0192
2.38	69.6876
2.374	67.1185
2.368	63.2989
2.362	58.1143
2.356	52.1811
2.35	46.6576
2.344	42.8911
2.338	41.3072
2.332	41.8814
2.326	43.6495
2.32	45.8371
2.314	47.7846
2.308	49.2888
2.302	50.4004
2.296	51.5813
2.29	53.1766
2.284	55.3262
2.278	57.8864
2.272	60.6918
2.266	63.3231
2.26	65.7547
2.254	67.8173
2.248	69.7955
2.242	71.4755
2.236	73.0846
2.23	74.5449
2.224	76.0089
2.218	77.1458
2.212	78.1779
2.206	79.0002
2.2	79.705
2.194	80.0751
2.188	80.2095
2.182	80.0354
2.176	79.5734
2.17	78.8757
2.164	78.1108
2.158	77.7185
2.152	77.923
2.146	78.9652
2.14	80.4482
2.134	81.622
2.128	82.1626
2.122	82.4175
2.116	82.6069
2.11	82.7878
2.104	83.0459
2.098	83.3202
2.092	83.7569
2.086	83.9711
2.08	84.2619
2.074	84.4766
2.068	84.653
2.062	84.7187
2.056	84.7622
2.05	84.7573
2.044	84.7034
2.038	84.564
2.032	84.259
2.026	83.708
2.02	83.0158
2.014	82.1322
2.008	80.4196
2.002	78.173
1.996	77.304
1.99	78.512
1.984	79.8494
1.978	80.6754
1.972	80.9534
1.966	81.2619
1.96	81.7432
1.954	82.4465
1.948	83.1208
1.942	83.5036
1.936	83.8368
1.93	84.0259
1.924	84.1817
1.918	84.1597
1.912	84.155
1.906	84.2185
1.9	83.9209
1.894	83.3298
1.888	81.9992
1.882	79.5007
1.876	77.9101
1.87	79.1376
1.864	80.8468
1.858	81.8314
1.852	82.3769
1.846	82.7215
1.84	83.1447
1.834	83.6569
1.828	84.1403
1.822	84.5791
1.816	84.8767
1.81	85.058
1.804	85.2151
1.798	85.258
1.792	85.3399
1.786	85.3624
1.78	85.2211
1.774	85.087
1.768	84.7152
1.762	84.3447
1.756	84.1813
1.75	84.2763
1.744	84.2236
1.738	84.2629
1.732	84.2463
1.726	84.295
1.72	84.4001
1.714	84.4023
1.708	84.4843
1.702	84.5949
1.696	84.5559
1.69	84.6508
1.684	84.6777
1.678	84.6026
1.672	84.4747
1.666	84.613
1.66	84.4762
1.654	84.3498
1.648	84.284
1.642	84.278
1.636	84.339
1.63	84.2942
1.624	84.1591
1.618	84.1819
1.612	84.1657
1.606	84.0496
1.6	84.0633
1.594	83.9118
1.588	83.8924
1.582	83.766
1.576	83.6381
1.57	83.3964
1.564	83.3618
1.558	83.3477
1.552	83.401
1.546	83.3033
1.54	83.2015
1.534	83.1861
1.528	83.1516
1.522	83.0527
1.516	83.0613
1.51	83
1.504	82.9232
1.498	82.8798
1.492	82.7643
1.486	82.7178
1.48	82.6857
1.474	82.6209
1.468	82.6334
1.462	82.6308
1.456	82.5649
1.45	82.5077
1.444	82.5343
1.438	82.5228
1.432	82.5481
1.426	82.4834
1.42	82.48
1.414	82.4592
1.408	82.4593
1.402	82.5075
1.396	82.5293
1.39	82.68
1.384	82.5708
1.378	82.6472
1.372	82.6537
1.366	82.8306
1.36	82.6545
1.354	82.7345
1.348	82.5885
1.342	82.7208
1.336	82.6811
1.33	82.7378
1.324	82.7051
1.318	82.6938
1.312	82.6669
1.306	82.7502
1.3	82.6679
1.294	82.7286
1.288	82.6704
1.282	82.6336
1.276	82.5865
1.27	82.6368
1.264	82.4883
1.258	82.5642
1.252	82.4882
1.246	82.4997
1.24	82.4659
1.234	82.336
1.228	82.3115
1.222	82.2592
1.216	82.2012
1.21	82.1435
1.204	82.1182
1.198	82.0063
1.192	81.9617
1.186	81.9228
1.18	81.8297
1.174	81.7729
1.168	81.7962
1.162	81.6686
1.156	81.6314
1.15	81.5854
1.144	81.5984
1.138	81.5014
1.132	81.5874
1.126	81.5729
1.12	81.4645
1.114	81.5774
1.108	81.6084
1.102	81.6152
1.096	81.6402
1.09	81.7575
1.084	81.8062
1.078	81.7909
1.072	81.9415
1.066	82.0169
1.06	82.17
1.054	82.1904
1.048	82.2853
1.042	82.4702
1.036	82.6269
1.03	82.7625
1.024	82.8374
1.018	83.0336
1.012	83.1265
1.006	83.3334
1	83.3767
0.994	83.5561
0.988	83.6775
0.982	83.7753
0.976	83.8738
0.97	84.0148
0.964	84.1881
0.958	84.2503
0.952	84.4139
0.946	84.5493
0.94	84.6087
0.934	84.6957
0.928	84.7994
0.922	84.8801
0.916	84.9732
0.91	85.0659
0.904	85.1255
0.898	85.2184
0.892	85.292
0.886	85.2749
0.88	85.3864
0.874	85.5004
0.868	85.4601
0.862	85.5229
0.856	85.2291
0.85	85.302
0.844	85.3576
0.838	85.4301
0.832	85.4346
0.826	85.5425
0.82	85.5288
0.814	85.4895
0.808	85.5256
0.802	85.4652
0.796	85.4906
0.79	85.5144
0.784	85.6026
0.778	85.5734
0.772	85.571
0.766	85.5562
0.76	85.5654
0.754	85.5731
0.748	85.5085
0.742	85.492
0.736	85.5321
0.73	85.6007
0.724	85.643
0.718	85.6325
0.712	85.6515
0.706	85.6124
0.7	85.6242
0.694	85.5965
0.688	85.5853
0.682	85.5574
0.676	85.5016
0.67	85.5107
0.664	85.4575
0.658	85.4176
0.652	85.3731
0.646	85.3175
0.64	85.2521
0.634	85.1822
0.628	85.1176
0.622	85.0458
0.616	84.9787
0.61	84.9016
0.604	84.8306
0.598	84.7899
0.592	84.7287
0.586	84.5959
0.58	84.5468
0.574	84.5223
0.568	84.4937
0.562	84.4254
0.556	84.2573
0.55	84.1393
0.544	84.0402
0.538	83.8805
0.532	83.7379
0.526	83.5762
0.52	83.4777
0.514	83.3562
0.508	83.1836
0.502	82.9931
0.496	82.766
0.49	82.4839
0.484	82.1484
0.478	81.8779
0.472	81.5989
0.466	81.1883
0.46	80.7017
0.454	80.0851
0.448	79.3315
0.442	78.4437
0.436	77.5171
0.43	76.4288
0.424	75.2066
0.418	73.8593
0.412	72.3356
0.406	70.6423
0.4	68.7969
