Name: Cerussite, PbCO3
Type: Mineral
Class: Carbonate
Subclass: None
Particle Size: Solid
Sample No.: cerussite_1
Owner: JHU
Wavelength Range: TIR
Origin: Sample from Australia; donated by Norma Vergo.
Description: The sample was a light tan irregular mass and appeared to be a pure carbonate, both in hand specimen and under the microscope. Sample had rough surface. Original ASTER Spectral Library name was jhu.nicolet.mineral.carbonate.none.solid.ceruss1.spectrum.txt
Measurement: Bidirectional reflectance
X Units: Wavelength (micrometers)
Y Units: Reflectance (percent)
wavelength	value
25.0442	1.7646
24.3388	1.9497
23.6719	2.0373
23.0407	2.145
22.4422	2.228
21.8741	2.3606
21.334	2.5022
20.8199	2.5474
20.33	2.6765
19.8627	2.8076
19.4163	2.9055
18.9896	2.9961
18.5812	3.0696
18.19	3.1084
17.815	3.1291
17.4551	3.0842
17.1094	3.0715
16.7772	3.1865
16.4576	3.2751
16.15	3.1545
15.8537	3.1289
15.568	3.2329
15.2925	3.3406
15.0265	3.4326
14.7697	5.8633
14.5214	1.8967
14.2814	2.4619
14.0492	2.9744
13.8244	2.8335
13.6067	2.802
13.3957	3.0415
13.1912	3.1062
12.9929	3.0456
12.8004	2.9822
12.6135	3.0388
12.432	3.0793
12.2557	3.0801
12.0843	3.2444
11.9176	7.0896
11.7555	2.9167
11.5977	2.8838
11.444	2.9031
11.2944	3.0991
11.1487	3.2273
11.0067	3.3625
10.8682	3.3874
10.7332	3.386
10.6015	3.3513
10.473	3.352
10.3476	3.3787
10.2251	3.3948
10.1056	3.2114
9.9887	3.2283
9.8746	3.4138
9.763	3.4831
9.6539	3.3911
9.5472	3.2893
9.4429	3.0884
9.3408	3.2659
9.2409	3.293
9.1431	3.2017
9.0474	3.1763
8.9536	3.2073
8.8618	3.2839
8.7718	3.2937
8.6837	3.3237
8.5973	3.3735
8.5126	3.4119
8.4295	3.4485
8.3481	3.4792
8.2682	3.5222
8.1898	3.5718
8.1129	3.6245
8.0374	3.6855
7.9634	3.75
7.8906	3.8337
7.8192	3.9358
7.7491	4.0493
7.6802	4.1362
7.6126	4.2183
7.5461	4.3791
7.4807	4.6111
7.4165	4.9431
7.3534	5.4685
7.2914	6.3413
7.2303	7.6203
7.1703	8.0178
7.1113	7.4079
7.0533	6.5205
6.9962	6.7263
6.94	7.195
6.8847	7.0617
6.8302	6.709
6.7767	6.2641
6.7239	5.5752
6.672	4.3826
6.6209	2.7451
6.5705	1.4211
6.5209	0.8774
6.4721	0.8979
6.424	1.0295
6.3766	1.1638
6.3299	1.2922
6.2838	1.404
6.2385	1.5112
6.1937	1.5952
6.1496	1.6892
6.1062	1.7827
6.0633	1.8865
6.0211	2.0046
5.9794	2.1208
5.9383	2.2612
5.8978	2.3315
5.8578	2.5093
5.8184	2.3713
5.7794	2.085
5.741	2.0601
5.7031	2.7788
5.6657	3.2334
5.6288	3.3118
5.5924	3.5691
5.5564	3.9538
5.5209	4.0884
5.4859	4.1352
5.4513	4.2363
5.4171	4.3796
5.3833	4.5127
5.35	4.5718
5.3171	4.6023
5.2846	4.6582
5.2524	4.7407
5.2207	4.8386
5.1893	4.886
5.1584	4.9079
5.1277	4.925
5.0975	4.9043
5.0676	4.8291
5.038	4.7153
5.0088	4.5823
4.98	4.4551
4.9514	4.2685
4.9232	3.8223
4.8953	3.4089
4.8678	3.446
4.8405	3.7383
4.8135	4.094
4.7868	4.2707
4.7605	4.282
4.7344	4.4563
4.7086	4.5254
4.6831	4.4473
4.6578	4.1758
4.6328	4.2388
4.6081	4.6086
4.5837	4.6465
4.5595	4.6794
4.5356	4.6494
4.5119	4.593
4.4884	4.5527
4.4652	4.6196
4.4423	4.6401
4.4196	4.6089
4.3971	4.5525
4.3748	4.4233
4.3528	4.2234
4.331	3.9766
4.3094	3.7234
4.288	3.4763
4.2668	3.2532
4.2458	3.1345
4.2251	3.0671
4.2045	2.9853
4.1841	2.8699
4.164	2.7358
4.144	2.657
4.1242	2.7139
4.1046	2.8166
4.0852	2.8816
4.066	2.9109
4.047	2.9287
4.0281	2.967
4.0094	3.0249
3.9909	3.0542
3.9725	3.0891
3.9544	3.1531
3.9363	3.3037
3.9185	3.6047
3.9008	3.8867
3.8833	4.062
3.8659	4.1514
3.8487	4.1907
3.8316	4.156
3.8147	4.0913
3.7979	3.9709
3.7813	3.834
3.7648	3.6628
3.7485	3.5046
3.7323	3.406
3.7162	3.2905
3.7003	3.1601
3.6845	2.9988
3.6689	2.8955
3.6534	2.8447
3.638	2.8464
3.6227	2.8567
3.6076	2.8481
3.5926	2.8491
3.5777	2.8516
3.563	2.8606
3.5484	2.8706
3.5338	2.9067
3.5195	2.9492
3.5052	3.0264
3.491	3.1558
3.477	3.3113
3.463	3.4326
3.4492	3.5439
3.4355	3.6421
3.4219	3.7307
3.4084	3.8418
3.395	3.9465
3.3817	4.0178
3.3685	4.0918
3.3554	4.1579
3.3425	4.2056
3.3296	4.2537
3.3168	4.279
3.3041	4.2746
3.2915	4.2434
3.279	4.189
3.2666	4.094
3.2543	4.0171
3.2421	3.9304
3.23	3.9499
3.218	4.0141
3.206	4.0481
3.1942	4.0356
3.1824	4.012
3.1707	3.9932
3.1591	3.9729
3.1476	3.9421
3.1362	3.9023
3.1249	3.8987
3.1136	3.8684
3.1024	3.8567
3.0913	3.8386
3.0803	3.8313
3.0694	3.7991
3.0585	3.7937
3.0477	3.7659
3.037	3.7585
3.0264	3.7388
3.0158	3.7163
3.0053	3.7046
2.9949	3.6743
2.9845	3.666
2.9743	3.6394
2.9641	3.6299
2.9539	3.604
2.9439	3.5725
2.9339	3.5535
2.9239	3.5505
2.9141	3.5044
2.9043	3.4258
2.8946	3.447
2.8849	3.552
2.8753	3.6172
2.8658	3.6753
2.8563	3.696
2.8469	3.7063
2.8375	3.7744
2.8282	3.8249
2.819	3.8772
2.8098	3.9302
2.8007	3.9907
2.7917	4.0344
2.7827	4.085
2.7738	4.1282
2.7649	4.1645
2.7561	4.2336
2.7473	4.3166
2.7386	4.3901
2.7299	4.5007
2.7213	4.5835
2.7128	4.6638
2.7043	4.7466
2.6959	4.7644
2.6875	4.7449
2.6791	4.6694
2.6709	4.5444
2.6626	4.3476
2.6545	4.2175
2.6463	4.2192
2.6382	4.2856
2.6302	4.3301
2.6222	4.334
2.6143	4.3562
2.6064	4.3823
2.5986	4.4204
2.5908	4.447
2.583	4.4465
2.5753	4.478
2.5677	4.519
2.5601	4.5542
2.5525	4.5757
2.545	4.5881
2.5375	4.5688
2.5301	4.5566
2.5227	4.5264
2.5154	4.4648
2.5081	4.418
2.5008	4.353
2.4936	4.3037
2.4864	4.2676
2.4793	4.2436
2.4722	4.2012
2.4651	4.165
2.4581	4.1323
2.4511	4.1182
2.4442	4.1072
2.4373	4.1389
2.4305	4.1125
2.4236	4.1174
2.4169	4.1145
2.4101	4.1279
2.4034	4.1533
2.3967	4.1672
2.3901	4.1653
2.3835	4.1938
2.377	4.1941
2.3704	4.1907
2.364	4.1753
2.3575	4.1846
2.3511	4.1841
2.3447	4.1929
2.3384	4.2012
2.3321	4.1985
2.3258	4.1933
2.3195	4.2139
2.3133	4.2161
2.3071	4.2239
2.301	4.2363
2.2949	4.2407
2.2888	4.248
2.2828	4.2405
2.2767	4.2307
2.2708	4.2588
2.2648	4.2368
2.2589	4.2353
2.253	4.2446
2.2471	4.2532
2.2413	4.2451
2.2355	4.3008
2.2297	4.2641
2.224	4.2676
2.2183	4.27
2.2126	4.2939
2.207	4.3271
2.2013	4.3352
2.1957	4.3242
2.1902	4.3352
2.1846	4.3381
2.1791	4.3193
2.1736	4.3176
2.1682	4.3235
2.1628	4.3223
2.1574	4.3413
2.152	4.3274
2.1466	4.3616
2.1413	4.3379
2.136	4.3701
2.1308	4.3682
2.1255	4.343
2.1203	4.3926
2.1151	4.3769
2.11	4.3652
2.1048	4.3535
2.0997	4.3823
2.0946	4.3652
2.0895	4.3945
2.0845	4.3872
2.0795	4.3833
