Name: Phlogopite KMg3Si3Al010(F,OH)2
Type: Mineral
Class: Silicate
Subclass: Phyllosilicate
Particle Size: Solid
Sample No.: phlogop_1
Owner: JHU
Wavelength Range: TIR
Origin: Burgess, Ontario, Canada via the Smithsonian (sample no.NMNH 124258, obtained from Bruce Hemingway, USGS)
Description: The hand sample consisted of rectangular sheets displaying the typical coppery luster of phlogopite.  Microscopic examination showed the sample to be pure.(Sheet Silicates); (Mica Group) Original ASTER Spectral Library name was jhu.nicolet.mineral.silicate.phyllosilicate.solid.phlogo1.spectrum.txt
Measurement: Bidirectional reflectance
X Units: Wavelength (micrometers)
Y Units: Reflectance (percent)
wavelength	value
25.0442	28.539
24.3388	30.165
23.6719	32.6728
23.0407	36.4618
22.4422	43.66
21.8741	54.9178
21.334	64.6273
20.8199	62.8094
20.33	56.6214
19.8627	63.1981
19.4163	62.3856
18.9896	59.4881
18.5812	61.5897
18.19	64.6722
17.815	57.3487
17.4551	40.2929
17.1094	25.8283
16.7772	23.2001
16.4576	22.8251
16.15	22.0654
15.8537	21.4672
15.568	21.2138
15.2925	21.6708
15.0265	21.2883
14.7697	21.1787
14.5214	21.3354
14.2814	21.0893
14.0492	21.7778
13.8244	22.09
13.6067	21.7414
13.3957	21.1166
13.1912	21.343
12.9929	21.6782
12.8004	21.9706
12.6135	22.6975
12.432	23.288
12.2557	23.8066
12.0843	23.1044
11.9176	23.9257
11.7555	24.686
11.5977	25.2055
11.444	25.9587
11.2944	26.8381
11.1487	27.6015
11.0067	28.2641
10.8682	28.9853
10.7332	30.0468
10.6015	31.7792
10.473	34.6
10.3476	38.2504
10.2251	40.0045
10.1056	42.2289
9.9887	50.6039
9.8746	63.3006
9.763	66.6053
9.6539	61.7747
9.5472	56.4349
9.4429	53.6483
9.3408	55.3497
9.2409	58.7206
9.1431	60.5321
9.0474	57.7081
8.9536	47.389
8.8618	41.8432
8.7718	36.786
8.6837	28.7983
8.5973	18.6696
8.5126	8.4634
8.4295	7.5193
8.3481	9.4082
8.2682	10.8755
8.1898	12.0063
8.1129	12.9223
8.0374	13.696
7.9634	14.2773
7.8906	14.7795
7.8192	15.227
7.7491	15.5695
7.6802	15.9055
7.6126	16.2456
7.5461	16.5459
7.4807	16.7614
7.4165	17.08
7.3534	17.3378
7.2914	17.602
7.2303	17.8723
7.1703	17.9812
7.1113	18.2531
7.0533	18.3122
6.9962	18.6418
6.94	19.0483
6.8847	19.3176
6.8302	19.3891
6.7767	19.3933
6.7239	19.4394
6.672	20.061
6.6209	20.5136
6.5705	20.384
6.5209	20.1757
6.4721	20.4736
6.424	20.5219
6.3766	20.3071
6.3299	20.3818
6.2838	20.3969
6.2385	20.2026
6.1937	20.1105
6.1496	20.0817
6.1062	20.0351
6.0633	20.1249
6.0211	20.0766
5.9794	20.1347
5.9383	20.0217
5.8978	19.9965
5.8578	20.0671
5.8184	20.2353
5.7794	20.2104
5.741	20.3376
5.7031	20.5258
5.6657	20.4226
5.6288	20.6948
5.5924	20.8615
5.5564	20.8139
5.5209	21.2299
5.4859	21.0498
5.4513	21.414
5.4171	21.832
5.3833	22.0163
5.35	23.124
5.3171	23.8588
5.2846	24.6191
5.2524	25.4487
5.2207	25.393
5.1893	25.5063
5.1584	25.4992
5.1277	25.0605
5.0975	24.9047
5.0676	24.6166
5.038	24.4628
5.0088	24.2419
4.98	24.3237
4.9514	24.2968
4.9232	24.2421
4.8953	24.2934
4.8678	24.2187
4.8405	24.5761
4.8135	24.7429
4.7868	25.2951
4.7605	25.8122
4.7344	26.3747
4.7086	27.1064
4.6831	27.3066
4.6578	28.1093
4.6328	28.4091
4.6081	29.1244
4.5837	29.8769
4.5595	30.0319
4.5356	30.8278
4.5119	30.6874
4.4884	31.0434
4.4652	31.2258
4.4423	30.9794
4.4196	31.558
4.3971	31.0356
4.3748	31.559
4.3528	31.2524
4.331	31.0219
4.3094	30.9501
4.288	30.2348
4.2668	30.7358
4.2458	30.04
4.2251	30.4452
4.2045	31.1845
4.1841	31.6742
4.164	31.8798
4.144	31.5458
4.1242	32.122
4.1046	31.5487
4.0852	32.1396
4.066	31.7897
4.047	32.121
4.0281	32.0126
4.0094	32.0758
3.9909	32.2729
3.9725	32.1493
3.9544	32.4174
3.9363	32.3246
3.9185	32.4814
3.9008	32.4735
3.8833	32.3444
3.8659	32.5302
3.8487	32.3715
3.8316	32.6527
3.8147	32.4438
3.7979	32.7333
3.7813	32.6552
3.7648	32.8297
3.7485	32.8461
3.7323	32.8324
3.7162	32.9433
3.7003	32.7445
3.6845	32.9316
3.6689	32.7411
3.6534	32.9032
3.638	32.7131
3.6227	32.9006
3.6076	32.8446
3.5926	32.8808
3.5777	32.8407
3.563	32.8329
3.5484	32.7934
3.5338	32.786
3.5195	32.6933
3.5052	32.6454
3.491	32.8092
3.477	32.7721
3.463	32.9538
3.4492	32.8117
3.4355	32.9277
3.4219	32.6376
3.4084	32.8097
3.395	32.8461
3.3817	32.8708
3.3685	32.8805
3.3554	32.738
3.3425	32.8263
3.3296	32.7082
3.3168	32.7257
3.3041	32.404
3.2915	32.4552
3.279	32.0937
3.2666	32.0387
3.2543	31.7177
3.2421	31.5531
3.23	31.2338
3.218	31.1347
3.206	31.3212
3.1942	31.5219
3.1824	32.0353
3.1707	31.996
3.1591	32.2284
3.1476	32.0236
3.1362	31.9809
3.1249	31.7072
3.1136	31.5502
3.1024	31.5981
3.0913	31.5617
3.0803	31.9709
3.0694	31.9247
3.0585	32.1943
3.0477	32.0126
3.037	32.2226
3.0264	32.122
3.0158	32.2377
3.0053	32.0717
2.9949	32.0981
2.9845	32.1642
2.9743	32.0722
2.9641	32.0243
2.9539	31.7587
2.9439	31.8244
2.9339	31.5356
2.9239	31.599
2.9141	31.2797
2.9043	31.4172
2.8946	31.3215
2.8849	31.2821
2.8753	31.1779
2.8658	31.0588
2.8563	30.9423
2.8469	30.5888
2.8375	30.5976
2.8282	30.371
2.819	30.3935
2.8098	30.163
2.8007	29.8071
2.7917	29.3881
2.7827	28.6718
2.7738	28.164
2.7649	27.4145
2.7561	26.3339
2.7473	25.9404
2.7386	25.8701
2.7299	25.9706
2.7213	26.8945
2.7128	25.8847
2.7043	22.6538
2.6959	21.8056
2.6875	25.2206
2.6791	30.0097
2.6709	31.6562
2.6626	31.7821
2.6545	31.307
2.6463	30.6376
2.6382	30.1513
2.6302	30.5282
2.6222	30.891
2.6143	31.0165
2.6064	31.0961
2.5986	30.9443
2.5908	31.0785
2.583	30.8642
2.5753	30.8774
2.5677	30.4863
2.5601	30.4262
2.5525	30.4985
2.545	30.745
2.5375	30.8642
2.5301	31.0063
2.5227	31.0199
2.5154	30.7392
2.5081	30.6196
2.5008	30.5517
2.4936	30.8359
2.4864	30.9281
2.4793	30.8915
2.4722	30.8007
2.4651	30.7577
2.4581	30.6352
2.4511	30.4047
2.4442	30.2778
2.4373	30.2226
2.4305	30.434
2.4236	30.413
2.4169	30.2738
2.4101	29.8852
2.4034	29.7504
2.3967	29.3149
2.3901	28.496
2.3835	27.6176
2.377	27.6659
2.3704	28.3788
2.364	29.1
2.3575	29.4452
2.3511	29.3886
2.3447	29.1406
2.3384	28.498
2.3321	26.9999
2.3258	26.0117
2.3195	26.2743
2.3133	26.9843
2.3071	28.1093
2.301	29.0741
2.2949	29.7011
2.2888	30.3183
2.2828	30.9599
2.2767	31.4989
2.2708	31.7568
2.2648	31.9452
2.2589	31.6845
2.253	31.2978
2.2471	30.6943
2.2413	31.1073
2.2355	31.9931
2.2297	32.7245
2.224	32.8446
2.2183	33.0546
2.2126	32.9413
2.207	33.0331
2.2013	32.997
2.1957	33.1308
2.1902	33.0292
2.1846	32.9921
2.1791	32.9345
2.1736	32.955
2.1682	32.9775
2.1628	32.9843
2.1574	32.9277
2.152	32.9569
2.1466	32.9491
2.1413	32.8915
2.136	32.9062
2.1308	33.0048
2.1255	32.9071
2.1203	32.8954
2.1151	32.9413
2.11	32.8632
2.1048	32.8398
2.0997	32.8407
2.0946	32.7948
2.0895	32.7118
2.0845	32.7304
2.0795	32.6991
