Name: Hornblende Ca2(Fe+2,Mg)4Al(Si7Al)O22(OH,F)2
Type: Mineral
Class: Silicate
Subclass: Inosilicate
Particle Size: Coarse
Sample No.: hornblen_1
Owner: JHU
Wavelength Range: TIR
Origin: Gore Mountain, New York via Hunt and Salisbury Collection,#177B (Purchased from Ward's Natural Science Establishment)
Description: The specimen was a cluster of very dark green single crystals half a centimeter to one centimeter in length and almost as wide. Particle size was 74-250 micrometers.(Amphibole Group) Original ASTER Spectral Library name was jhu.nicolet.mineral.silicate.inosilicate.coarse.hornbl1.spectrum.txt
Measurement: Bidirectional reflectance
X Units: Wavelength (micrometers)
Y Units: Reflectance (percent)
wavelength	value
25.0442	5.5823
24.3388	6.1323
23.6719	6.2607
23.0407	6.6579
22.4422	6.9751
21.8741	7.438
21.334	7.5954
20.8199	7.594
20.33	7.0608
19.8627	7.1743
19.4163	7.7761
18.9896	8.4013
18.5812	8.5246
18.19	8.2146
17.815	7.4892
17.4551	5.9971
17.1094	4.102
16.7772	2.4875
16.4576	1.8745
16.15	1.822
15.8537	1.8801
15.568	2.0254
15.2925	2.0803
15.0265	2.1536
14.7697	2.175
14.5214	2.1208
14.2814	2.1143
14.0492	2.1267
13.8244	2.2417
13.6067	2.3091
13.3957	2.2961
13.1912	2.2649
12.9929	2.345
12.8004	2.4629
12.6135	2.5674
12.432	2.6472
12.2557	2.7739
12.0843	2.9153
11.9176	3.1206
11.7555	3.3662
11.5977	3.5828
11.444	3.7964
11.2944	4.0002
11.1487	4.1831
11.0067	4.4363
10.8682	4.7634
10.7332	5.2287
10.6015	5.8223
10.473	6.3125
10.3476	6.7514
10.2251	7.0456
10.1056	7.0356
9.9887	6.644
9.8746	5.9783
9.763	5.7742
9.6539	6.0779
9.5472	6.3144
9.4429	6.1194
9.3408	5.6592
9.2409	5.0552
9.1431	4.5207
9.0474	4.1225
8.9536	3.6951
8.8618	3.137
8.7718	2.8874
8.6837	2.3
8.5973	1.3791
8.5126	0.9216
8.4295	0.9094
8.3481	1.0801
8.2682	1.2366
8.1898	1.3823
8.1129	1.5212
8.0374	1.6404
7.9634	1.7664
7.8906	1.8767
7.8192	1.9849
7.7491	2.0854
7.6802	2.1772
7.6126	2.2681
7.5461	2.3469
7.4807	2.4521
7.4165	2.5466
7.3534	2.6599
7.2914	2.7605
7.2303	2.876
7.1703	3.0002
7.1113	3.1335
7.0533	3.2764
6.9962	3.3852
6.94	3.4807
6.8847	3.5652
6.8302	3.6311
6.7767	3.6704
6.7239	3.6614
6.672	3.6101
6.6209	3.5564
6.5705	3.4587
6.5209	3.3279
6.4721	3.2126
6.424	3.1169
6.3766	3.0286
6.3299	2.9507
6.2838	2.9055
6.2385	2.8931
6.1937	2.9089
6.1496	2.9341
6.1062	2.9734
6.0633	3.0059
6.0211	3.0478
5.9794	3.0981
5.9383	3.1663
5.8978	3.2392
5.8578	3.2996
5.8184	3.3352
5.7794	3.3884
5.741	3.4773
5.7031	3.5854
5.6657	3.7349
5.6288	3.9416
5.5924	4.1067
5.5564	4.2388
5.5209	4.4141
5.4859	4.4849
5.4513	4.553
5.4171	4.5959
5.3833	4.5994
5.35	4.5881
5.3171	4.5937
5.2846	4.6133
5.2524	4.6509
5.2207	4.6794
5.1893	4.6841
5.1584	4.6938
5.1277	4.72
5.0975	4.7576
5.0676	4.8132
5.038	4.9111
5.0088	5.0088
4.98	5.1206
4.9514	5.2683
4.9232	5.4521
4.8953	5.6731
4.8678	5.8962
4.8405	6.1245
4.8135	6.3452
4.7868	6.5639
4.7605	6.7746
4.7344	7.0051
4.7086	7.2466
4.6831	7.4878
4.6578	7.7119
4.6328	7.9314
4.6081	8.1394
4.5837	8.323
4.5595	8.4824
4.5356	8.6294
4.5119	8.7422
4.4884	8.8313
4.4652	8.926
4.4423	9.0083
4.4196	9.0823
4.3971	9.1462
4.3748	9.2009
4.3528	9.2383
4.331	9.2622
4.3094	9.3071
4.288	9.3335
4.2668	9.3728
4.2458	9.4084
4.2251	9.4394
4.2045	9.4804
4.1841	9.5061
4.164	9.5259
4.144	9.5613
4.1242	9.5842
4.1046	9.6162
4.0852	9.6501
4.066	9.6833
4.047	9.7109
4.0281	9.709
4.0094	9.687
3.9909	9.604
3.9725	9.6191
3.9544	9.6946
3.9363	9.8078
3.9185	9.8515
3.9008	9.8972
3.8833	9.9277
3.8659	9.9555
3.8487	9.9922
3.8316	10.0293
3.8147	10.0742
3.7979	10.1167
3.7813	10.1533
3.7648	10.1801
3.7485	10.1853
3.7323	10.2051
3.7162	10.2153
3.7003	10.23
3.6845	10.2458
3.6689	10.2634
3.6534	10.2866
3.638	10.2939
3.6227	10.3103
3.6076	10.3181
3.5926	10.3232
3.5777	10.3178
3.563	10.3257
3.5484	10.331
3.5338	10.3193
3.5195	10.2654
3.5052	10.2275
3.491	10.2077
3.477	10.1897
3.463	10.237
3.4492	10.2351
3.4355	10.2082
3.4219	10.1689
3.4084	10.1491
3.395	10.1496
3.3817	10.1306
3.3685	10.144
3.3554	10.1145
3.3425	10.1516
3.3296	10.2033
3.3168	10.2199
3.3041	10.2312
3.2915	10.218
3.279	10.209
3.2666	10.2024
3.2543	10.1938
3.2421	10.1982
3.23	10.2051
3.218	10.2129
3.206	10.206
3.1942	10.1992
3.1824	10.1904
3.1707	10.1701
3.1591	10.1579
3.1476	10.1269
3.1362	10.1106
3.1249	10.1001
3.1136	10.1028
3.1024	10.1001
3.0913	10.0937
3.0803	10.0742
3.0694	10.0508
3.0585	10.0007
3.0477	9.957
3.037	9.9201
3.0264	9.8501
3.0158	9.7712
3.0053	9.6855
2.9949	9.6269
2.9845	9.5561
2.9743	9.4822
2.9641	9.3908
2.9539	9.3169
2.9439	9.2473
2.9339	9.1694
2.9239	9.102
2.9141	9.0166
2.9043	8.9577
2.8946	8.8825
2.8849	8.7866
2.8753	8.6936
2.8658	8.6213
2.8563	8.5422
2.8469	8.4619
2.8375	8.3364
2.8282	8.1999
2.819	8.0801
2.8098	7.9546
2.8007	7.5517
2.7917	6.823
2.7827	5.843
2.7738	4.8076
2.7649	4.0251
2.7561	3.7258
2.7473	3.5703
2.7386	3.489
2.7299	3.5339
2.7213	3.6462
2.7128	3.8794
2.7043	4.2959
2.6959	5.0447
2.6875	6.6399
2.6791	8.5403
2.6709	9.2856
2.6626	9.303
2.6545	9.268
2.6463	9.249
2.6382	9.2243
2.6302	9.2158
2.6222	9.1809
2.6143	9.199
2.6064	9.1577
2.5986	9.136
2.5908	9.0986
2.583	9.0525
2.5753	9.0173
2.5677	8.9624
2.5601	8.9187
2.5525	8.8838
2.545	8.8545
2.5375	8.8125
2.5301	8.7842
2.5227	8.7016
2.5154	8.6296
2.5081	8.5864
2.5008	8.5456
2.4936	8.4807
2.4864	8.4502
2.4793	8.4184
2.4722	8.3686
2.4651	8.3298
2.4581	8.3113
2.4511	8.2685
2.4442	8.1885
2.4373	8.1177
2.4305	8.0488
2.4236	7.9604
2.4169	7.8406
2.4101	7.7326
2.4034	7.5925
2.3967	7.4497
2.3901	7.4031
2.3835	7.4328
2.377	7.5056
2.3704	7.5996
2.364	7.5998
2.3575	7.5586
2.3511	7.4431
2.3447	7.3103
2.3384	7.1455
2.3321	7.0644
2.3258	7.0478
2.3195	7.0705
2.3133	7.155
2.3071	7.2685
2.301	7.3857
2.2949	7.5144
2.2888	7.6767
2.2828	7.8435
2.2767	7.9512
2.2708	8.0022
2.2648	7.9949
2.2589	7.9636
2.253	7.8921
2.2471	7.9934
2.2413	8.0976
2.2355	8.165
2.2297	8.1953
2.224	8.2168
2.2183	8.2409
2.2126	8.2358
2.207	8.2285
2.2013	8.2461
2.1957	8.2629
2.1902	8.2905
2.1846	8.2805
2.1791	8.2876
2.1736	8.2932
2.1682	8.333
2.1628	8.344
2.1574	8.3425
2.152	8.331
2.1466	8.3061
2.1413	8.3545
2.136	8.3523
2.1308	8.3464
2.1255	8.3445
2.1203	8.3887
2.1151	8.4109
2.11	8.4177
2.1048	8.4533
2.0997	8.4543
2.0946	8.5075
2.0895	8.5071
2.0845	8.5361
2.0795	8.5237
