Name: Muscovite KAl2(Si3Al)O10(OH,F)2
Type: Mineral
Class: Silicate
Subclass: Phyllosilicate
Particle Size: Solid
Sample No.: muscov_2
Owner: JHU
Wavelength Range: TIR
Origin: Fremont Co., Colorado via Hunt and Salisbury Collection #146B
Description: The hand sample appeared to be pure, transparent muscovite, but microscopic analysis showed a trace (<<1%) of what appeared to be quartz.  (However, no quartz bands are apparent in the infrared spectrum).(Sheet Silicates); (MicaGroup)Sample measured was 001 face.  Original ASTER Spectral Library name was jhu.nicolet.mineral.silicate.phyllosilicate.solid.muscov2.spectrum.txt
Measurement: Bidirectional reflectance
X Units: Wavelength (micrometers)
Y Units: Reflectance (percent)
wavelength	value
25.0442	28.5488
24.3388	31.8593
23.6719	30.4306
23.0407	27.705
22.4422	27.6386
21.8741	31.0517
21.334	37.1981
20.8199	40.9882
20.33	36.102
19.8627	32.5585
19.4163	33.2914
18.9896	41.5106
18.5812	48.035
18.19	46.8246
17.815	43.3168
17.4551	38.6144
17.1094	36.4335
16.7772	30.6503
16.4576	21.4609
16.15	15.0859
15.8537	11.2209
15.568	8.3847
15.2925	7.677
15.0265	8.334
14.7697	9.1006
14.5214	9.3896
14.2814	9.6294
14.0492	10.3393
13.8244	11.0874
13.6067	11.7981
13.3957	12.0293
13.1912	11.008
12.9929	10.8198
12.8004	11.8095
12.6135	12.6079
12.432	12.5329
12.2557	13.0153
12.0843	13.8808
11.9176	14.4677
11.7555	15.7353
11.5977	16.8286
11.444	17.622
11.2944	18.206
11.1487	18.9309
11.0067	19.7763
10.8682	19.3706
10.7332	18.685
10.6015	19.374
10.473	22.2812
10.3476	26.4955
10.2251	31.1796
10.1056	34.6161
9.9887	37.3373
9.8746	40.2042
9.763	45.1805
9.6539	55.3822
9.5472	55.3255
9.4429	40.3676
9.3408	39.7304
9.2409	45.0385
9.1431	48.5433
9.0474	48.9845
8.9536	47.9003
8.8618	45.2452
8.7718	41.1332
8.6837	35.4709
8.5973	29.8581
8.5126	23.7739
8.4295	16.7302
8.3481	9.5246
8.2682	3.7917
8.1898	1.7764
8.1129	1.9851
8.0374	2.5439
7.9634	3.1118
7.8906	3.6516
7.8192	4.1304
7.7491	4.5405
7.6802	4.9194
7.6126	5.312
7.5461	5.7178
7.4807	6.1052
7.4165	6.4748
7.3534	6.8064
7.2914	7.0747
7.2303	7.2969
7.1703	7.5014
7.1113	7.7117
7.0533	7.9512
6.9962	8.2273
6.94	8.5241
6.8847	8.8635
6.8302	9.2141
6.7767	9.5674
6.7239	9.9062
6.672	10.2251
6.6209	10.5185
6.5705	10.8047
6.5209	11.0222
6.4721	11.176
6.424	11.3039
6.3766	11.4463
6.3299	11.614
6.2838	11.7375
6.2385	11.7339
6.1937	11.603
6.1496	11.4165
6.1062	11.2629
6.0633	11.1526
6.0211	11.0781
5.9794	11.039
5.9383	11.0361
5.8978	11.0659
5.8578	11.1186
5.8184	11.1582
5.7794	11.1386
5.741	11.0761
5.7031	11.0437
5.6657	11.0368
5.6288	11.0495
5.5924	11.0976
5.5564	11.1806
5.5209	11.2903
5.4859	11.4331
5.4513	11.6321
5.4171	11.9082
5.3833	12.2019
5.35	12.5036
5.3171	12.8735
5.2846	13.3664
5.2524	14.0085
5.2207	14.7695
5.1893	15.7097
5.1584	16.9406
5.1277	18.3061
5.0975	19.3256
5.0676	19.7741
5.038	19.8459
5.0088	19.6879
4.98	19.424
4.9514	19.1948
4.9232	19.1547
4.8953	19.3361
4.8678	19.5498
4.8405	19.6777
4.8135	19.7629
4.7868	20.0085
4.7605	20.4819
4.7344	21.0422
4.7086	21.6069
4.6831	22.2402
4.6578	23.0244
4.6328	23.9474
4.6081	24.8588
4.5837	25.6052
4.5595	26.2485
4.5356	26.8774
4.5119	27.5251
4.4884	28.2038
4.4652	28.9164
4.4423	29.6633
4.4196	30.3652
4.3971	30.9443
4.3748	31.3554
4.3528	31.5817
4.331	31.7233
4.3094	31.7089
4.288	31.6305
4.2668	31.7243
4.2458	31.8688
4.2251	32.0133
4.2045	32.1579
4.1841	32.2558
4.164	32.2931
4.144	32.3207
4.1242	32.3559
4.1046	32.3827
4.0852	32.403
4.066	32.4311
4.047	32.4521
4.0281	32.4828
4.0094	32.5336
3.9909	32.5959
3.9725	32.6816
3.9544	32.7753
3.9363	32.852
3.9185	32.9257
3.9008	32.985
3.8833	33.0268
3.8659	33.0617
3.8487	33.0881
3.8316	33.1047
3.8147	33.09
3.7979	33.0253
3.7813	32.8732
3.7648	32.6142
3.7485	32.2902
3.7323	32.059
3.7162	31.9701
3.7003	32.0014
3.6845	32.1186
3.6689	32.299
3.6534	32.557
3.638	32.8935
3.6227	33.2387
3.6076	33.5307
3.5926	33.7213
3.5777	33.8388
3.563	33.9218
3.5484	33.9623
3.5338	33.9892
3.5195	33.9335
3.5052	33.7377
3.491	33.8847
3.477	33.9142
3.463	33.8876
3.4492	33.8012
3.4355	33.6313
3.4219	33.3915
3.4084	33.5463
3.395	33.6591
3.3817	33.6342
3.3685	33.715
3.3554	33.7524
3.3425	33.7231
3.3296	33.7177
3.3168	33.747
3.3041	33.7616
3.2915	33.746
3.279	33.6994
3.2666	33.6308
3.2543	33.5302
3.2421	33.4032
3.23	33.2675
3.218	33.1161
3.206	32.9985
3.1942	32.9228
3.1824	32.8559
3.1707	32.7983
3.1591	32.725
3.1476	32.6147
3.1362	32.4731
3.1249	32.3334
3.1136	32.227
3.1024	32.1632
3.0913	32.0961
3.0803	32.0102
3.0694	31.8976
3.0585	31.7704
3.0477	31.6596
3.037	31.5788
3.0264	31.5346
3.0158	31.498
3.0053	31.4262
2.9949	31.2572
2.9845	30.9667
2.9743	30.5656
2.9641	30.0317
2.9539	29.3798
2.9439	28.6047
2.9339	27.7765
2.9239	27.0051
2.9141	26.4118
2.9043	26.0622
2.8946	25.9243
2.8849	25.7966
2.8753	25.7289
2.8658	25.7133
2.8563	25.2065
2.8469	23.8398
2.8375	21.5019
2.8282	18.195
2.819	15.1811
2.8098	13.789
2.8007	13.2756
2.7917	12.9035
2.7827	12.6299
2.7738	12.4367
2.7649	12.208
2.7561	11.894
2.7473	11.7959
2.7386	11.8979
2.7299	12.372
2.7213	14.1587
2.7128	20.8276
2.7043	25.0637
2.6959	26.5702
2.6875	27.4736
2.6791	28.268
2.6709	29.0898
2.6626	29.8215
2.6545	30.3031
2.6463	30.4789
2.6382	30.4103
2.6302	30.227
2.6222	30.0373
2.6143	29.9164
2.6064	29.8349
2.5986	29.8283
2.5908	29.831
2.583	29.842
2.5753	29.8964
2.5677	30.0556
2.5601	30.2016
2.5525	30.2353
2.545	30.1723
2.5375	30.007
2.5301	29.8173
2.5227	29.5871
2.5154	29.3527
2.5081	29.1205
2.5008	28.8898
2.4936	28.6847
2.4864	28.467
2.4793	28.186
2.4722	27.841
2.4651	27.4208
2.4581	27.0021
2.4511	26.6896
2.4442	26.54
2.4373	26.6152
2.4305	26.9426
2.4236	27.34
2.4169	27.7118
2.4101	27.9872
2.4034	28.0702
2.3967	27.9162
2.3901	27.6513
2.3835	27.4384
2.377	27.3974
2.3704	27.3986
2.364	27.3351
2.3575	27.1464
2.3511	27.0468
2.3447	27.2963
2.3384	27.871
2.3321	28.5773
2.3258	29.2775
2.3195	29.9445
2.3133	30.5754
2.3071	31.1242
2.301	31.5121
2.2949	31.7299
2.2888	31.7699
2.2828	31.6913
2.2767	31.5653
2.2708	31.3559
2.2648	30.9277
2.2589	30.1269
2.253	28.9286
2.2471	27.7714
2.2413	27.0019
2.2355	26.5771
2.2297	25.9892
2.224	24.6542
2.2183	22.9731
2.2126	21.8051
2.207	21.4741
2.2013	22.0283
2.1957	23.4726
2.1902	25.6596
2.1846	27.954
2.1791	29.7192
2.1736	30.8915
2.1682	31.622
2.1628	32.0907
2.1574	32.4145
2.152	32.6313
2.1466	32.7753
2.1413	32.8446
2.136	32.8857
2.1308	32.8778
2.1255	32.8813
2.1203	32.9413
2.1151	33.0751
2.11	33.2406
2.1048	33.3778
2.0997	33.5312
2.0946	33.6523
2.0895	33.7607
2.0845	33.8407
2.0795	33.8617
