Name: Hydroxyapophyllite KCa_4Si_8O_20(OH,F).8H_2O
Type: Mineral
Class: Silicate
Subclass: Phyllosilicate
Particle Size: Fine
Sample No.: PS-22A
Owner: JPL
Wavelength Range: VSWIR
Origin: India, Maharashtra, Poona.
Description: Particle size was 0-45um.Collected by:  Burminco Original ASTER Spectral Library name was jpl.perkin.mineral.silicate.phyllosilicate.fine.ps22a.spectrum.txt
Measurement: Hemispherical reflectance
X Units: Wavelength (micrometers)
Y Units: Reflectance (percent)
wavelength	value
2.5	38.903
2.494	38.3506
2.488	37.2579
2.482	35.6619
2.476	34.2305
2.47	33.1719
2.464	32.5586
2.458	32.639
2.452	33.2685
2.446	34.4768
2.44	35.846
2.434	36.7967
2.428	36.4947
2.422	34.8642
2.416	32.8741
2.41	31.2335
2.404	30.6012
2.398	30.4631
2.392	30.8114
2.386	31.7957
2.38	33.6969
2.374	36.7838
2.368	40.7357
2.362	45.3062
2.356	49.3745
2.35	52.6576
2.344	54.7755
2.338	56.0875
2.332	56.7504
2.326	57.0719
2.32	57.021
2.314	56.6605
2.308	56.4296
2.302	56.6757
2.296	57.1997
2.29	57.839
2.284	58.3424
2.278	58.6486
2.272	58.8269
2.266	59.0083
2.26	59.0449
2.254	59.0687
2.248	58.963
2.242	58.7143
2.236	58.5953
2.23	58.3123
2.224	58.1724
2.218	57.6818
2.212	57.3964
2.206	56.8549
2.2	56.401
2.194	55.9183
2.188	55.6093
2.182	55.3783
2.176	55.1572
2.17	54.8814
2.164	54.4343
2.158	54.0613
2.152	53.6044
2.146	53.0803
2.14	52.8304
2.134	52.9218
2.128	53.1188
2.122	53.4393
2.116	53.9035
2.11	54.2918
2.104	54.6704
2.098	55.0765
2.092	55.3296
2.086	55.2583
2.08	55.1202
2.074	54.8563
2.068	54.8065
2.062	54.7871
2.056	54.802
2.05	54.8852
2.044	54.9374
2.038	54.956
2.032	54.9566
2.026	54.9753
2.02	54.7207
2.014	54.6302
2.008	54.5168
2.002	54.3291
1.996	54.2027
1.99	54.182
1.984	54.2723
1.978	54.3935
1.972	54.405
1.966	54.415
1.96	54.2999
1.954	54.0817
1.948	53.6168
1.942	52.5617
1.936	50.4132
1.93	46.7604
1.924	40.142
1.918	31.8481
1.912	29.3476
1.906	35.6534
1.9	45.5085
1.894	52.8146
1.888	56.6578
1.882	58.5886
1.876	59.6971
1.87	60.6863
1.864	61.4714
1.858	62.0747
1.852	62.5018
1.846	62.6839
1.84	62.7621
1.834	62.7131
1.828	62.7404
1.822	62.6331
1.816	62.5967
1.81	62.6375
1.804	62.5843
1.798	62.5595
1.792	62.6507
1.786	62.6621
1.78	62.7376
1.774	62.8178
1.768	62.8562
1.762	63.0641
1.756	63.2372
1.75	63.4367
1.744	63.6277
1.738	63.9214
1.732	64.2885
1.726	64.4388
1.72	64.5895
1.714	64.9561
1.708	65.6662
1.702	66.3358
1.696	67.157
1.69	67.9501
1.684	68.5244
1.678	69.1108
1.672	69.6093
1.666	70.2051
1.66	70.7828
1.654	71.2757
1.648	71.9344
1.642	72.3697
1.636	73.0382
1.63	73.5691
1.624	74.2064
1.618	74.632
1.612	75.1281
1.606	75.5958
1.6	76.0079
1.594	76.4426
1.588	76.7132
1.582	77
1.576	77.2911
1.57	77.3927
1.564	77.4798
1.558	77.4052
1.552	77.2336
1.546	77.0118
1.54	76.5782
1.534	75.9131
1.528	74.8942
1.522	73.8727
1.516	73.9114
1.51	74.2756
1.504	74.538
1.498	74.6677
1.492	74.8321
1.486	74.9925
1.48	75.0579
1.474	74.7007
1.468	74.2313
1.462	72.8324
1.456	69.9956
1.45	64.6081
1.444	58.5483
1.438	65.3206
1.432	69.8482
1.426	73.2069
1.42	76.0421
1.414	78.6069
1.408	79.2151
1.402	81.3429
1.396	82.4954
1.39	83.102
1.384	83.1699
1.378	83.251
1.372	83.3867
1.366	83.348
1.36	83.3739
1.354	83.1255
1.348	82.7974
1.342	82.891
1.336	83.3027
1.33	83.3647
1.324	83.4125
1.318	83.824
1.312	84.2418
1.306	84.3757
1.3	84.4919
1.294	84.621
1.288	84.7161
1.282	84.8941
1.276	84.9746
1.27	85.0545
1.264	85.1142
1.258	85.1421
1.252	85.191
1.246	85.2721
1.24	85.3799
1.234	85.2939
1.228	85.2771
1.222	85.2317
1.216	85.2836
1.21	85.2507
1.204	85.34
1.198	85.2572
1.192	85.1609
1.186	85.0619
1.18	84.7648
1.174	84.1757
1.168	82.4476
1.162	83.0477
1.156	84.8033
1.15	85.3865
1.144	85.8165
1.138	85.9443
1.132	86.1264
1.126	86.0917
1.12	86.1444
1.114	86.2087
1.108	86.1348
1.102	86.1477
1.096	86.094
1.09	86.1529
1.084	86.1806
1.078	86.1943
1.072	86.3682
1.066	86.1893
1.06	86.288
1.054	86.3743
1.048	86.3772
1.042	86.3519
1.036	86.4044
1.03	86.4631
1.024	86.4512
1.018	86.2496
1.012	86.2492
1.006	86.0232
1	85.8294
0.994	85.3797
0.988	84.7891
0.982	84.8691
0.976	85.5349
0.97	86.0936
0.964	86.3272
0.958	86.5444
0.952	86.5075
0.946	86.556
0.94	86.5789
0.934	86.6455
0.928	86.6291
0.922	86.7051
0.916	86.6145
0.91	86.7455
0.904	86.6967
0.898	86.762
0.892	86.8089
0.886	86.8383
0.88	86.7685
0.874	86.803
0.868	86.7751
0.862	86.8895
0.856	87.0262
0.85	86.9158
0.844	86.9304
0.838	87.002
0.832	86.9921
0.826	87.0999
0.82	87.1039
0.814	87.1107
0.808	87.0407
0.802	87.1415
0.796	87.0947
0.79	87.0071
0.784	87.0609
0.778	87.0497
0.772	87.0149
0.766	86.9381
0.76	86.9049
0.754	86.9162
0.748	86.9616
0.742	87.0412
0.736	86.9683
0.73	87
0.724	87.0066
0.718	86.9774
0.712	86.9667
0.706	86.9529
0.7	86.9522
0.694	86.9033
0.688	86.8949
0.682	86.8751
0.676	86.8986
0.67	86.8474
0.664	86.8273
0.658	86.8098
0.652	86.8075
0.646	86.7768
0.64	86.7735
0.634	86.7635
0.628	86.7446
0.622	86.7399
0.616	86.7189
0.61	86.7301
0.604	86.7241
0.598	86.751
0.592	86.788
0.586	86.7694
0.58	86.7549
0.574	86.7262
0.568	86.6851
0.562	86.6677
0.556	86.5977
0.55	86.5408
0.544	86.468
0.538	86.4212
0.532	86.329
0.526	86.2686
0.52	86.1575
0.514	86.033
0.508	85.9059
0.502	85.7687
0.496	85.6484
0.49	85.4604
0.484	85.3156
0.478	85.1757
0.472	85.0051
0.466	84.8971
0.46	84.7267
0.454	84.567
0.448	84.4244
0.442	84.267
0.436	84.1313
0.43	83.9685
0.424	83.833
0.418	83.6994
0.412	83.5896
0.406	83.4395
0.4	83.258
