Name: Enstatite Mg_2(SiO_3)_2
Type: Mineral
Class: Silicate
Subclass: Inosilicate
Particle Size: Fine
Sample No.: IN-10B
Owner: JPL
Wavelength Range: VSWIR
Origin: Norway, Telemark
Description: Particle size was 0-45um.Collected by Burminco Original ASTER Spectral Library name was jpl.beckman.mineral.silicate.inosilicate.fine.in10b.spectrum.txt
Measurement: Hemispherical reflectance
X Units: Wavelength (micrometers)
Y Units: Reflectance (percent)
wavelength	value
0.4	41
0.403	41.59
0.406	41.76
0.409	42.14
0.412	42.38
0.415	42.4
0.418	42.68
0.421	42.86
0.424	43.02
0.427	43.19
0.43	43.64
0.433	43.73
0.436	43.91
0.439	44.19
0.442	44.4
0.445	44.46
0.448	44.67
0.451	44.86
0.454	44.77
0.457	45.06
0.46	45.15
0.463	45.13
0.466	45.22
0.469	45.34
0.472	45.49
0.475	45.73
0.478	45.71
0.481	45.91
0.484	46.07
0.487	46.05
0.49	46.14
0.493	46.44
0.496	46.5
0.499	46.57
0.502	46.43
0.505	46.28
0.508	46.78
0.511	47.02
0.514	47.3
0.517	47.33
0.52	47.36
0.523	47.44
0.526	47.44
0.529	47.33
0.532	47.5
0.535	47.54
0.538	47.45
0.541	47.42
0.544	47.36
0.547	47.48
0.55	47.42
0.553	47.74
0.556	47.77
0.559	47.87
0.562	48.14
0.565	48.23
0.568	48.14
0.571	48.23
0.574	47.89
0.577	48.23
0.58	48.09
0.583	48.12
0.586	48.15
0.589	48.15
0.592	48.12
0.595	48.15
0.598	48.35
0.601	48.24
0.604	48.43
0.607	48.26
0.61	48.34
0.613	48.28
0.616	48.34
0.619	48.37
0.622	48.34
0.625	48.4
0.628	48.48
0.631	48.19
0.634	48.57
0.637	48.6
0.64	48.45
0.643	48.52
0.646	48.43
0.649	48.48
0.652	48.51
0.655	48.57
0.658	48.43
0.661	48.51
0.664	48.57
0.667	48.42
0.67	48.58
0.673	48.74
0.676	48.57
0.679	48.63
0.682	48.55
0.685	48.57
0.688	48.63
0.691	48.74
0.694	48.69
0.697	48.49
0.7	48.42
0.703	48.54
0.706	48.45
0.709	48.54
0.712	48.48
0.715	48.57
0.718	48.4
0.721	48.42
0.724	48.34
0.727	48.31
0.73	48.19
0.733	48.28
0.736	47.99
0.739	47.87
0.742	47.73
0.745	47.73
0.748	47.5
0.751	47.41
0.754	47.16
0.757	47.07
0.76	46.67
0.763	46.53
0.766	46.18
0.769	46.07
0.772	45.78
0.775	45.38
0.778	45.01
0.781	44.72
0.784	44.38
0.787	44.23
0.79	43.74
0.793	43.18
0.796	42.88
0.799	42.46
0.808	41.08
0.82	38.76
0.832	36.47
0.844	34.42
0.856	32.43
0.868	30.72
0.88	29.43
0.892	28.46
0.904	27.85
0.916	27.73
0.928	27.92
0.94	28.7
0.952	29.97
0.964	31.68
0.976	33.63
0.988	36.17
1	38.22
1.012	41.1
1.024	43.07
1.036	44.78
1.048	46.2
1.06	47.19
1.072	47.93
1.084	48.48
1.096	48.99
1.108	49.18
1.12	49.23
1.132	49.52
1.144	49.6
1.156	49.54
1.168	49.58
1.18	49.68
1.192	49.68
1.204	49.57
1.216	49.6
1.228	49.74
1.24	49.8
1.252	49.76
1.264	49.65
1.276	49.81
1.288	49.7
1.3	49.6
1.312	49.7
1.324	49.59
1.336	49.47
1.348	49.48
1.36	49.45
1.372	49.2
1.384	48.76
1.396	48.63
1.408	48.81
1.42	48.88
1.432	48.69
1.444	48.44
1.456	48.3
1.468	48.07
1.48	47.75
1.492	47.64
1.504	47.35
1.516	47.06
1.528	46.71
1.54	46.34
1.552	46.06
1.564	45.68
1.576	45.3
1.588	45.07
1.6	44.65
1.612	44.19
1.624	43.82
1.636	43.41
1.648	43.09
1.66	42.69
1.672	42.29
1.684	42.03
1.696	41.56
1.708	41.27
1.72	40.95
1.732	40.56
1.744	40.26
1.756	40.08
1.768	39.73
1.78	39.45
1.792	39.35
1.804	39.17
1.816	38.96
1.828	38.83
1.84	38.88
1.852	38.75
1.864	38.64
1.876	38.75
1.888	38.73
1.9	38.69
1.912	38.66
1.924	38.82
1.936	39.11
1.948	39.16
1.96	39.35
1.972	39.69
1.984	39.89
1.996	40.18
2.008	40.41
2.02	40.79
2.032	41.1
2.044	41.34
2.056	41.46
2.068	41.88
2.08	42.2
2.092	42.33
2.104	42.59
2.116	43
2.128	43.01
2.14	43.06
2.152	43.24
2.164	43.32
2.176	43.26
2.188	43.18
2.2	43.4
2.212	43.35
2.224	43.32
2.236	43.27
2.248	43.39
2.26	43.16
2.272	42.88
2.284	42.38
2.296	42.01
2.308	42.2
2.32	42.67
2.332	43.17
2.344	43.34
2.356	43.23
2.368	43.03
2.38	42.99
2.392	43.01
2.404	43.26
2.416	43.39
2.428	43.63
2.44	43.75
2.452	43.88
2.464	43.95
2.476	44.19
2.488	44.7
2.5	45.07
