Name: Wollastonite CaSiO_3
Type: Mineral
Class: Silicate
Subclass: Inosilicate
Particle Size: Coarse
Sample No.: IN-2A
Owner: JPL
Wavelength Range: TIR
Origin: USA, California, Inyo County, Panamint Mountains
Description: Particle size was 125-500um.Collected by Burminco Original ASTER Spectral Library name was jpl.nicolet.mineral.silicate.inosilicate.coarse.in02a.spectrum.txt
Measurement: Hemispherical reflectance
X Units: Wavelength (micrometers)
Y Units: Reflectance (percent)
wavelength	value
15.3853	3.6632
15.1161	1.8133
14.8563	2.408
14.6052	2.738
14.3624	1.555
14.1276	2.2207
13.9004	2.7741
13.6803	3.1427
13.4671	3.4534
13.2604	3.6714
13.06	4.0337
12.8656	4.2908
12.6769	4.3738
12.4936	4.6867
12.3155	4.6084
12.1425	4.74
11.9742	5.1824
11.8106	5.4775
11.6513	6.3457
11.4963	7.1815
11.3454	8.7446
11.1983	11.7045
11.0551	17.1117
10.9154	16.2796
10.7793	18.1979
10.6465	18.3942
10.5169	20.6739
10.3904	22.8414
10.267	23.3064
10.1464	16.3518
10.0287	14.5495
9.9136	11.8392
9.8012	10.7592
9.6913	12.4004
9.5838	7.7548
9.4787	14.5962
9.3758	25.9461
9.2752	26.4448
9.1767	14.5599
9.0803	10.2253
8.9858	10.6173
8.8934	11.7622
8.8028	9.2773
8.714	3.9702
8.627	1.8317
8.5417	1.959
8.4581	1.8132
8.3761	1.9146
8.2957	1.9312
8.2169	1.9205
8.1395	2.0569
8.0635	1.7901
7.989	1.7224
7.9158	1.5493
7.8439	1.6396
7.7734	1.9228
7.7041	2.0153
7.636	2.1958
7.5691	2.1965
7.5034	2.4832
7.4388	2.7071
7.3753	3.1752
7.3129	3.6052
7.2515	3.9212
7.1912	4.2224
7.1318	4.4578
7.0734	4.4137
7.016	4.8294
6.9595	4.8511
6.9039	4.9891
6.8492	4.9578
6.7953	5.0788
6.7423	4.7215
6.6901	4.5136
6.6387	4.7516
6.5881	5.4562
6.5382	5.3751
6.4892	4.9273
6.4408	4.5137
6.3931	4.146
6.3462	4.2417
6.2999	4.3694
6.2543	4.4255
6.2094	3.9799
6.1651	3.9175
6.1214	3.9028
6.0784	4.1838
6.0359	5.0047
5.994	6.0719
5.9527	6.3574
5.912	5.9886
5.8718	5.5394
5.8322	5.0324
5.7931	5.189
5.7545	6.0763
5.7165	7.0564
5.6789	8.8705
5.6418	8.9756
5.6052	8.6211
5.5691	8.3267
5.5334	8.5782
5.4982	11.0172
5.4635	12.7215
5.4291	13.0043
5.3952	12.0908
5.3618	10.782
5.3287	10.3688
5.2961	7.7584
5.2638	6.3406
5.2319	6.1959
5.2004	6.457
5.1693	7.4578
5.1386	8.6221
5.1082	9.2613
5.0782	9.6147
5.0485	9.8907
5.0192	10.1878
4.9902	10.649
4.9616	10.8859
4.9332	10.5186
4.9052	11.1341
4.8776	12.442
4.8502	13.4437
4.8231	14.5419
4.7963	16.7364
4.7699	17.9741
4.7437	19.6987
4.7178	22.6077
4.6922	23.7108
4.6668	25.0386
4.6418	28.3665
4.617	32.002
4.5924	34.0321
4.5681	35.1595
4.5441	38.8967
4.5203	41.8565
4.4968	42.381
4.4735	43.0002
4.4505	43.6419
4.4277	44.162
4.4051	44.7796
4.3828	45.6169
4.3607	46.9182
4.3388	47.6657
4.3171	48.3167
4.2956	48.6894
4.2744	49.3106
4.2534	49.6113
4.2325	50.1221
4.2119	50.5871
4.1915	50.9275
4.1712	51.2406
4.1512	51.5888
4.1313	51.961
4.1117	52.4825
4.0922	53.2094
4.0729	53.6281
4.0538	53.5047
4.0349	52.531
4.0161	51.345
3.9976	48.9128
3.9792	47.7411
3.9609	48.5662
3.9428	50.5032
3.9249	51.0353
3.9072	51.3282
3.8896	51.2342
3.8722	51.1741
3.8549	51.0719
3.8378	51.1115
3.8208	51.6433
3.804	52.0153
3.7873	52.4217
3.7708	52.4299
3.7544	52.1712
3.7382	51.8713
3.7221	51.4371
3.7061	51.067
3.6903	50.6188
3.6746	50.0445
3.659	49.6864
3.6436	49.2259
3.6283	48.768
3.6131	48.0831
3.5981	47.4454
3.5832	47.0611
3.5684	46.674
3.5537	46.5168
3.5391	45.99
3.5247	45.0562
3.5104	43.9432
3.4962	43.2098
3.4821	42.6729
3.4681	43.1077
3.4543	43.3407
3.4405	43.174
3.4269	42.5104
3.4133	42.2021
3.3999	42.093
3.3866	41.9123
3.3733	41.3682
3.3602	41.1659
3.3472	40.7302
3.3343	41.4607
3.3215	41.3452
3.3088	40.8775
3.2961	40.6498
3.2836	40.1701
3.2712	39.8023
3.2588	39.3605
3.2466	38.8753
3.2345	38.3272
3.2224	37.6783
3.2104	36.9186
3.1985	36.1353
3.1867	35.5103
3.175	34.7887
3.1634	33.9751
3.1519	33.3517
3.1404	32.5648
3.129	31.7385
3.1178	30.9598
3.1065	30.2857
3.0954	29.7004
3.0844	28.879
3.0734	28.5075
3.0625	28.0293
3.0517	27.6647
3.041	27.3257
3.0303	26.9673
3.0197	26.386
3.0092	25.9136
2.9987	25.3491
2.9884	24.9506
2.9781	24.3663
2.9678	24.0283
2.9577	23.5831
2.9476	23.4492
2.9376	23.1718
2.9276	23.2132
2.9177	23.2002
2.9079	23.3136
2.8982	23.3413
2.8885	23.6116
2.8789	23.9816
2.8693	24.3293
2.8598	24.8233
2.8504	25.5477
2.841	26.2862
2.8317	26.954
2.8224	27.6951
2.8133	28.6029
2.8041	29.1832
2.7951	29.8914
2.786	31.2622
2.7771	32.3307
2.7682	34.217
2.7594	36.1857
2.7506	38.8979
2.7418	42.8059
2.7332	46.4538
2.7246	50.9694
2.716	54.4134
2.7075	57.7502
2.699	60.0893
2.6906	61.724
2.6823	63.0512
2.674	63.7051
2.6657	65.8289
2.6575	66.1037
2.6494	66.728
2.6413	66.9811
2.6332	67.2393
2.6252	67.0437
2.6173	67.0183
2.6094	66.8662
2.6015	66.6566
2.5937	67.4128
2.5859	66.8515
2.5782	66.6106
2.5706	66.575
2.5629	66.964
2.5554	66.6198
2.5478	66.7257
2.5403	66.3955
2.5329	66.2055
2.5255	66.5365
2.5181	67.0959
2.5108	67.8157
2.5035	67.9511
2.4963	68.077
2.4891	68.3879
2.482	68.4241
2.4749	68.3316
2.4678	68.7467
2.4608	69.1537
2.4538	69.5133
2.4468	69.8367
2.4399	70.0447
2.4331	69.898
2.4262	69.8867
2.4194	69.3933
2.4127	69.1252
2.4059	68.9866
2.3993	68.9199
2.3926	68.1701
2.386	67.9995
2.3795	68.4251
2.3729	68.4725
2.3664	67.6221
2.36	66.9492
2.3535	66.9343
2.3471	67.7289
2.3408	67.8649
2.3345	68.0659
2.3282	68.694
2.3219	70.516
2.3157	72.0098
2.3095	72.6823
2.3034	72.4197
2.2972	71.7974
2.2911	71.9015
2.2851	72.0063
2.279	71.8728
2.2731	72.2221
2.2671	72.6548
2.2612	72.8538
2.2553	72.7742
2.2494	72.6507
2.2435	72.5646
2.2377	71.9768
2.232	71.8668
2.2262	72.3812
2.2205	72.4863
2.2148	73.1713
2.2091	73.3372
2.2035	73.6546
2.1979	74.0616
2.1923	73.9967
2.1868	74.1194
2.1812	74.1987
2.1758	74.2925
2.1703	74.0633
2.1649	74.2876
2.1595	74.1805
2.1541	74.3509
2.1487	74.3206
2.1434	74.0741
2.1381	74.4873
2.1328	74.1923
2.1275	74.4045
2.1223	74.455
2.1171	74.3253
2.112	74.3721
2.1068	74.3213
2.1017	74.1458
2.0966	74.4601
2.0915	74.3298
2.0865	74.5752
2.0814	74.2475
2.0764	74.7902
2.0715	74.2277
2.0665	74.4227
2.0616	74.2253
2.0567	74.1825
2.0518	74.0497
2.0469	74.0661
2.0421	74.256
2.0373	73.8751
2.0325	73.7808
2.0277	74.2399
2.0229	73.5689
2.0182	73.6519
2.0135	73.743
2.0088	73.5648
2.0042	73.5096
