Name: Sanidine (K,Na)Al3O8
Type: Mineral
Class: Silicate
Subclass: Tectosilicate
Particle Size: Solid
Sample No.: sanidine_3
Owner: JHU
Wavelength Range: TIR
Origin: Higasinuiro-gun, Taiji, Wakayama, Japan via the Smithsonian(sample no. NMNH 103200)
Description: The sample consisted of many small (0.5 cm) euhedral crystals totaling 6.49 g.  Almost all had some adhering clay/limonite, to be removed by brushing and ultrasonic cleaning.  Under the microscope, a few acicular inclusions (rutile) could be seen.  Otherwise the sample appeared very pure. Sample had cleavage face.(Feldspar Group) Original ASTER Spectral Library name was jhu.nicolet.mineral.silicate.tectosilicate.solid.sanidi3.spectrum.txt
Measurement: Bidirectional reflectance
X Units: Wavelength (micrometers)
Y Units: Reflectance (percent)
wavelength	value
25.0442	21.7812
24.3388	24.54
23.6719	26.1718
23.0407	27.8578
22.4422	25.7411
21.8741	17.604
21.334	15.6464
20.8199	12.8486
20.33	11.0009
19.8627	12.3889
19.4163	13.539
18.9896	15.249
18.5812	18.3479
18.19	18.6154
17.815	15.4152
17.4551	16.9267
17.1094	19.9152
16.7772	23.6828
16.4576	23.9662
16.15	19.499
15.8537	13.2473
15.568	12.8364
15.2925	11.8391
15.0265	9.6064
14.7697	10.3791
14.5214	11.2441
14.2814	12.0583
14.0492	12.2951
13.8244	12.2509
13.6067	11.9448
13.3957	11.7529
13.1912	11.8364
12.9929	11.8857
12.8004	11.5874
12.6135	10.9101
12.432	10.0688
12.2557	10.6782
12.0843	11.4931
11.9176	12.0322
11.7555	12.4712
11.5977	13.041
11.444	13.5566
11.2944	14.1372
11.1487	14.792
11.0067	15.5476
10.8682	16.3813
10.7332	17.4257
10.6015	18.6616
10.473	19.8681
10.3476	21.2998
10.2251	23.062
10.1056	25.1362
9.9887	27.8041
9.8746	30.3993
9.763	32.1947
9.6539	33.9684
9.5472	35.477
9.4429	34.4565
9.3408	26.2472
9.2409	23.0605
9.1431	24.9616
9.0474	27.0151
8.9536	29.4975
8.8618	32.7917
8.7718	36.309
8.6837	38.9923
8.5973	39.6198
8.5126	38.8754
8.4295	38.2492
8.3481	37.9853
8.2682	36.7089
8.1898	32.9198
8.1129	26.8486
8.0374	19.6325
7.9634	11.7663
7.8906	4.9682
7.8192	1.7764
7.7491	1.6191
7.6802	2.2104
7.6126	2.7598
7.5461	3.2222
7.4807	3.6121
7.4165	3.9646
7.3534	4.248
7.2914	4.5181
7.2303	4.7275
7.1703	4.9138
7.1113	5.1057
7.0533	5.2624
6.9962	5.4294
6.94	5.5752
6.8847	5.689
6.8302	5.7991
6.7767	5.8657
6.7239	5.9504
6.672	6.0166
6.6209	6.0913
6.5705	6.1225
6.5209	6.2158
6.4721	6.2854
6.424	6.3191
6.3766	6.4077
6.3299	6.4795
6.2838	6.5317
6.2385	6.5657
6.1937	6.5837
6.1496	6.6328
6.1062	6.6496
6.0633	6.6921
6.0211	6.7231
5.9794	6.728
5.9383	6.7021
5.8978	6.7436
5.8578	6.8166
5.8184	6.8034
5.7794	6.8576
5.741	6.8777
5.7031	6.873
5.6657	6.8984
5.6288	6.9126
5.5924	6.9289
5.5564	6.938
5.5209	6.9609
5.4859	6.9878
5.4513	7.0156
5.4171	7.0232
5.3833	7.0364
5.35	7.0412
5.3171	7.0781
5.2846	7.0762
5.2524	7.0979
5.2207	7.1003
5.1893	7.1181
5.1584	7.1277
5.1277	7.1411
5.0975	7.1406
5.0676	7.1528
5.038	7.1504
5.0088	7.154
4.98	7.1714
4.9514	7.1775
4.9232	7.1741
4.8953	7.1824
4.8678	7.1826
4.8405	7.1784
4.8135	7.1919
4.7868	7.188
4.7605	7.188
4.7344	7.1997
4.7086	7.2019
4.6831	7.2146
4.6578	7.2114
4.6328	7.2065
4.6081	7.2134
4.5837	7.2256
4.5595	7.2041
4.5356	7.2026
4.5119	7.1972
4.4884	7.2007
4.4652	7.2012
4.4423	7.2046
4.4196	7.2082
4.3971	7.1982
4.3748	7.2077
4.3528	7.2063
4.331	7.209
4.3094	7.2087
4.288	7.2014
4.2668	7.2099
4.2458	7.227
4.2251	7.2329
4.2045	7.2383
4.1841	7.2492
4.164	7.2514
4.144	7.2588
4.1242	7.2573
4.1046	7.2519
4.0852	7.2361
4.066	7.2241
4.047	7.2221
4.0281	7.2261
4.0094	7.2187
3.9909	7.2146
3.9725	7.208
3.9544	7.2031
3.9363	7.2143
3.9185	7.2046
3.9008	7.208
3.8833	7.1999
3.8659	7.1892
3.8487	7.1894
3.8316	7.1802
3.8147	7.1709
3.7979	7.175
3.7813	7.1701
3.7648	7.1694
3.7485	7.1489
3.7323	7.1484
3.7162	7.1384
3.7003	7.1323
3.6845	7.1318
3.6689	7.1308
3.6534	7.1074
3.638	7.1123
3.6227	7.0903
3.6076	7.0859
3.5926	7.0561
3.5777	7.0754
3.563	7.0513
3.5484	7.04
3.5338	7.0234
3.5195	7.0137
3.5052	6.9924
3.491	6.9555
3.477	6.9597
3.463	6.9482
3.4492	6.9302
3.4355	6.9131
3.4219	6.9033
3.4084	6.8564
3.395	6.8193
3.3817	6.7944
3.3685	6.7783
3.3554	6.7641
3.3425	6.7475
3.3296	6.7314
3.3168	6.7305
3.3041	6.6846
3.2915	6.6858
3.279	6.6599
3.2666	6.6457
3.2543	6.6238
3.2421	6.5957
3.23	6.5693
3.218	6.5517
3.206	6.5403
3.1942	6.5034
3.1824	6.4888
3.1707	6.4526
3.1591	6.4231
3.1476	6.4026
3.1362	6.3833
3.1249	6.3716
3.1136	6.3452
3.1024	6.3264
3.0913	6.2783
3.0803	6.2597
3.0694	6.2104
3.0585	6.1985
3.0477	6.1555
3.037	6.125
3.0264	6.1079
3.0158	6.0854
3.0053	6.0442
2.9949	6.051
2.9845	6.0185
2.9743	5.9868
2.9641	5.9485
2.9539	5.9299
2.9439	5.8877
2.9339	5.8352
2.9239	5.8078
2.9141	5.7925
2.9043	5.7363
2.8946	5.717
2.8849	5.6743
2.8753	5.6396
2.8658	5.5986
2.8563	5.592
2.8469	5.5315
2.8375	5.5071
2.8282	5.4819
2.819	5.4668
2.8098	5.4243
2.8007	5.3491
2.7917	5.345
2.7827	5.3081
2.7738	5.2822
2.7649	5.25
2.7561	5.1858
2.7473	5.1692
2.7386	5.1194
2.7299	5.1113
2.7213	5.0246
2.7128	5.0117
2.7043	4.9817
2.6959	4.918
2.6875	4.9338
2.6791	4.8752
2.6709	4.8154
2.6626	4.8198
2.6545	4.7803
2.6463	4.7554
2.6382	4.7139
2.6302	4.6504
2.6222	4.6304
2.6143	4.5835
2.6064	4.5122
2.5986	4.522
2.5908	4.4766
2.583	4.4409
2.5753	4.4404
2.5677	4.3906
2.5601	4.3813
2.5525	4.3389
2.545	4.3345
2.5375	4.2949
2.5301	4.2925
2.5227	4.2563
2.5154	4.2329
2.5081	4.2036
2.5008	4.188
2.4936	4.165
2.4864	4.1465
2.4793	4.1352
2.4722	4.102
2.4651	4.0532
2.4581	4.043
2.4511	4.0234
2.4442	4.0166
2.4373	3.9907
2.4305	3.9712
2.4236	3.9531
2.4169	3.9707
2.4101	3.9512
2.4034	3.9243
2.3967	3.9126
2.3901	3.8833
2.3835	3.8892
2.377	3.8852
2.3704	3.8887
2.364	3.8892
2.3575	3.8638
2.3511	3.8677
2.3447	3.8481
2.3384	3.8657
2.3321	3.8711
2.3258	3.8071
2.3195	3.8242
2.3133	3.8691
2.3071	3.8037
2.301	3.8154
2.2949	3.8086
2.2888	3.8066
2.2828	3.7891
2.2767	3.7949
2.2708	3.8057
2.2648	3.8144
2.2589	3.7578
2.253	3.7695
2.2471	3.7705
2.2413	3.7822
2.2355	3.7334
2.2297	3.7588
2.224	3.7226
2.2183	3.748
2.2126	3.6924
2.207	3.7109
2.2013	3.6933
2.1957	3.7226
2.1902	3.7031
2.1846	3.6836
2.1791	3.665
2.1736	3.6807
2.1682	3.6426
2.1628	3.6641
2.1574	3.6797
2.152	3.6728
2.1466	3.6455
2.1413	3.582
2.136	3.584
2.1308	3.5937
2.1255	3.6016
2.1203	3.5713
2.1151	3.5127
2.11	3.4863
2.1048	3.5127
2.0997	3.5088
2.0946	3.5
2.0895	3.5039
2.0845	3.4541
2.0795	3.4346
