Name: Siderite Fe^2+CO_3
Type: Mineral
Class: Carbonate
Subclass: None
Particle Size: Fine
Sample No.: C-9A
Owner: JPL
Wavelength Range: TIR
Origin: N/A
Description: Particle size was 0-45um.Collected by JPL Original ASTER Spectral Library name was jpl.nicolet.mineral.carbonate.none.fine.c09a.spectrum.txt
Measurement: Hemispherical reflectance
X Units: Wavelength (micrometers)
Y Units: Reflectance (percent)
wavelength	value
15.3853	21.4502
15.1161	22.0022
14.8563	22.237
14.6052	20.916
14.3624	18.3805
14.1276	19.3478
13.9004	16.4712
13.6803	8.0697
13.4671	3.1526
13.2604	14.1728
13.06	19.6566
12.8656	20.9936
12.6769	22.6186
12.4936	22.8912
12.3155	26.7963
12.1425	28.4842
11.9742	18.4255
11.8106	20.4127
11.6513	9.6097
11.4963	9.4289
11.3454	22.6882
11.1983	22.687
11.0551	23.7773
10.9154	24.2974
10.7793	24.9642
10.6465	25.479
10.5169	25.7619
10.3904	25.9335
10.267	25.9254
10.1464	25.5141
10.0287	25.2204
9.9136	25.3185
9.8012	24.7059
9.6913	23.0087
9.5838	21.1617
9.4787	21.0792
9.3758	22.3244
9.2752	23.2737
9.1767	21.7276
9.0803	22.3681
8.9858	22.6781
8.8934	22.4051
8.8028	21.7603
8.714	20.4862
8.627	17.9326
8.5417	17.3587
8.4581	16.5494
8.3761	16.3103
8.2957	16.8944
8.2169	17.1965
8.1395	17.4219
8.0635	16.7312
7.989	16.2687
7.9158	15.0889
7.8439	14.4858
7.7734	13.7166
7.7041	12.9758
7.636	12.3234
7.5691	11.4298
7.5034	10.925
7.4388	10.3043
7.3753	10.0148
7.3129	9.572
7.2515	9.6648
7.1912	11.3957
7.1318	12.7676
7.0734	12.1537
7.016	11.8067
6.9595	11.7233
6.9039	11.9965
6.8492	12.4025
6.7953	13.2357
6.7423	14.4458
6.6901	16.512
6.6387	18.7542
6.5881	20.317
6.5382	22.0793
6.4892	23.9986
6.4408	24.0755
6.3931	16.8157
6.3462	9.1008
6.2999	5.2567
6.2543	3.8651
6.2094	3.4714
6.1651	3.5984
6.1214	3.8475
6.0784	4.684
6.0359	5.267
5.994	6.1932
5.9527	7.1686
5.912	8.5352
5.8718	10.3438
5.8322	12.1394
5.7931	13.5832
5.7545	14.8701
5.7165	15.4983
5.6789	15.6625
5.6418	14.8694
5.6052	13.0035
5.5691	9.554
5.5334	6.9689
5.4982	7.5074
5.4635	12.6127
5.4291	21.8723
5.3952	27.8942
5.3618	30.3238
5.3287	32.5554
5.2961	34.7071
5.2638	37.0659
5.2319	39.5987
5.2004	41.1085
5.1693	41.3499
5.1386	40.3426
5.1082	41.4766
5.0782	42.1242
5.0485	42.4681
5.0192	42.765
4.9902	43.2334
4.9616	44.6399
4.9332	45.3249
4.9052	46.4573
4.8776	47.5628
4.8502	48.067
4.8231	48.1916
4.7963	48.1506
4.7699	47.9455
4.7437	47.2595
4.7178	46.0354
4.6922	43.7573
4.6668	41.6149
4.6418	40.9809
4.617	41.7856
4.5924	43.2215
4.5681	44.2646
4.5441	44.8051
4.5203	44.9907
4.4968	45.0053
4.4735	45.0721
4.4505	45.2062
4.4277	45.4597
4.4051	45.72
4.3828	45.7748
4.3607	45.9786
4.3388	45.9319
4.3171	45.4743
4.2956	44.3718
4.2744	43.3305
4.2534	43.2005
4.2325	42.3402
4.2119	42.3002
4.1915	41.7465
4.1712	40.9004
4.1512	39.7934
4.1313	38.5148
4.1117	36.6146
4.0922	33.8503
4.0729	30.0507
4.0538	25.2905
4.0349	19.9718
4.0161	15.7757
3.9976	13.3839
3.9792	13.0946
3.9609	14.8066
3.9428	16.9059
3.9249	18.5904
3.9072	20.0296
3.8896	21.0776
3.8722	22.0191
3.8549	23.1699
3.8378	24.6996
3.8208	26.5507
3.804	29.5588
3.7873	34.223
3.7708	38.9635
3.7544	41.0645
3.7382	41.9291
3.7221	42.5088
3.7061	42.5579
3.6903	42.4244
3.6746	42.2593
3.659	41.8038
3.6436	41.3828
3.6283	40.6967
3.6131	39.8283
3.5981	38.7652
3.5832	37.4409
3.5684	35.6792
3.5537	33.3532
3.5391	30.7003
3.5247	28.1957
3.5104	25.9154
3.4962	24.5274
3.4821	23.9391
3.4681	24.2859
3.4543	24.8219
3.4405	25.4554
3.4269	25.8554
3.4133	26.162
3.3999	26.3721
3.3866	26.3939
3.3733	26.6441
3.3602	27.0167
3.3472	27.3505
3.3343	28.7686
3.3215	31.8501
3.3088	35.6759
3.2961	38.7278
3.2836	41.1405
3.2712	42.7815
3.2588	43.8883
3.2466	44.6477
3.2345	45.2471
3.2224	45.5872
3.2104	45.7989
3.1985	45.8277
3.1867	45.7679
3.175	45.6239
3.1634	45.6537
3.1519	45.6905
3.1404	45.4978
3.129	45.3475
3.1178	45.1363
3.1065	44.9527
3.0954	44.6742
3.0844	44.5757
3.0734	44.6668
3.0625	44.7678
3.0517	44.7255
3.041	44.7332
3.0303	44.6066
3.0197	44.4532
3.0092	44.2483
2.9987	44.1508
2.9884	44.3
2.9781	43.8287
2.9678	43.9163
2.9577	43.8267
2.9476	43.9027
2.9376	43.8479
2.9276	43.9537
2.9177	44.1125
2.9079	44.1827
2.8982	44.4616
2.8885	44.8209
2.8789	45.158
2.8693	45.4707
2.8598	46.0453
2.8504	46.513
2.841	47.1162
2.8317	47.5885
2.8224	48.0014
2.8133	48.51
2.8041	49.1253
2.7951	49.7406
2.786	50.8504
2.7771	51.9822
2.7682	53.0848
2.7594	54.37
2.7506	55.3483
2.7418	56.3722
2.7332	57.1097
2.7246	58.0658
2.716	58.3563
2.7075	58.7455
2.699	59.216
2.6906	59.7214
2.6823	60.0446
2.674	60.1416
2.6657	60.8357
2.6575	60.2655
2.6494	60.1719
2.6413	60.3927
2.6332	60.2928
2.6252	60.2465
2.6173	60.4155
2.6094	60.2696
2.6015	60.1543
2.5937	60.5689
2.5859	59.8297
2.5782	59.4691
2.5706	59.2431
2.5629	58.7449
2.5554	58.146
2.5478	57.9983
2.5403	57.7789
2.5329	57.7395
2.5255	57.6964
2.5181	57.8098
2.5108	57.9959
2.5035	58.2863
2.4963	58.3243
2.4891	58.4483
2.482	58.7843
2.4749	59.0929
2.4678	59.4241
2.4608	59.5583
2.4538	59.8512
2.4468	60.1813
2.4399	60.0637
2.4331	60.3634
2.4262	60.4028
2.4194	60.5183
2.4127	60.6818
2.4059	60.4905
2.3993	60.6153
2.3926	60.5901
2.386	60.5038
2.3795	60.5255
2.3729	60.2683
2.3664	60.2632
2.36	60.2455
2.3535	60.046
2.3471	59.9313
2.3408	59.853
2.3345	59.9075
2.3282	59.7061
2.3219	59.9431
2.3157	60.1097
2.3095	60.1
2.3034	60.2894
2.2972	60.3937
2.2911	60.4468
2.2851	60.4187
2.279	60.4941
2.2731	60.6933
2.2671	60.7879
2.2612	60.9923
2.2553	61.0998
2.2494	61.061
2.2435	61.1458
2.2377	61.1763
2.232	61.1896
2.2262	61.3234
2.2205	61.3337
2.2148	61.5525
2.2091	61.3517
2.2035	61.3845
2.1979	61.5799
2.1923	61.4312
2.1868	61.5508
2.1812	61.5942
2.1758	61.4428
2.1703	61.5914
2.1649	61.5914
2.1595	61.6394
2.1541	61.8435
2.1487	61.9193
2.1434	61.5561
2.1381	61.4756
2.1328	61.6996
2.1275	61.6887
2.1223	61.6993
2.1171	61.7418
2.112	61.7288
2.1068	61.6532
2.1017	61.9204
2.0966	61.3244
2.0915	61.872
2.0865	61.4827
2.0814	61.6609
2.0764	61.5832
2.0715	61.9743
2.0665	61.4765
2.0616	61.6485
2.0567	61.8434
2.0518	62.0223
2.0469	61.8241
2.0421	61.9114
2.0373	61.9111
2.0325	61.7088
2.0277	61.7906
2.0229	61.609
2.0182	61.7072
2.0135	61.7961
2.0088	61.8559
2.0042	61.6821
