Name: Fluorite CaF2
Type: Mineral
Class: Halide
Subclass: None
Particle Size: Solid
Sample No.: flourite_1
Owner: JHU
Wavelength Range: TIR
Origin: Donated by Norma Vergo; sample from Bingham, New Mexico.
Description: The sample was a large piece of a transparent single crystal and appeared to be pure fluorite. Sampled measured had crystal face. Original ASTER Spectral Library name was jhu.nicolet.mineral.halide.none.solid.flouri1.spectrum.txt
Measurement: Bidirectional reflectance
X Units: Wavelength (micrometers)
Y Units: Reflectance (percent)
wavelength	value
25.0442	70.0743
24.3388	69.9339
23.6719	69.8131
23.0407	70.0526
22.4422	69.5443
21.8741	67.9993
21.334	66.0208
20.8199	64.1243
20.33	59.6251
19.8627	53.3563
19.4163	47.725
18.9896	41.4901
18.5812	33.7453
18.19	27.1264
17.815	21.6716
17.4551	17.5676
17.1094	13.5092
16.7772	8.8742
16.4576	3.7727
16.15	0.8464
15.8537	0.4832
15.568	0.8594
15.2925	1.3022
15.0265	1.7234
14.7697	2.1357
14.5214	2.4351
14.2814	2.7637
14.0492	3.0566
13.8244	3.2864
13.6067	3.4968
13.3957	3.7012
13.1912	3.896
12.9929	4.0898
12.8004	4.2834
12.6135	4.4226
12.432	4.5578
12.2557	4.6809
12.0843	4.8215
11.9176	4.9665
11.7555	5.0659
11.5977	5.1894
11.444	5.3154
11.2944	5.4221
11.1487	5.5393
11.0067	5.6509
10.8682	5.7244
10.7332	5.7922
10.6015	5.8677
10.473	5.9507
10.3476	6.0349
10.2251	6.1179
10.1056	6.2253
9.9887	6.3757
9.8746	6.4441
9.763	6.4848
9.6539	6.4722
9.5472	6.4155
9.4429	6.4109
9.3408	6.4641
9.2409	6.5161
9.1431	6.5552
9.0474	6.5991
8.9536	6.665
8.8618	6.6233
8.7718	6.5908
8.6837	6.5845
8.5973	6.5864
8.5126	6.6189
8.4295	6.6284
8.3481	6.6365
8.2682	6.6509
8.1898	6.6504
8.1129	6.6526
8.0374	6.6592
7.9634	6.6555
7.8906	6.6592
7.8192	6.6655
7.7491	6.6772
7.6802	6.6963
7.6126	6.7107
7.5461	6.73
7.4807	6.7446
7.4165	6.7595
7.3534	6.7656
7.2914	6.7827
7.2303	6.8039
7.1703	6.8288
7.1113	6.8576
7.0533	6.8713
6.9962	6.8862
6.94	6.9145
6.8847	6.9297
6.8302	6.9389
6.7767	6.9236
6.7239	6.9226
6.672	6.9138
6.6209	6.8904
6.5705	6.8633
6.5209	6.8508
6.4721	6.8469
6.424	6.8398
6.3766	6.8413
6.3299	6.8349
6.2838	6.8403
6.2385	6.8398
6.1937	6.831
6.1496	6.8364
6.1062	6.8398
6.0633	6.8452
6.0211	6.841
5.9794	6.824
5.9383	6.8056
5.8978	6.7908
5.8578	6.7932
5.8184	6.7966
5.7794	6.8091
5.741	6.8179
5.7031	6.7851
5.6657	6.7756
5.6288	6.7793
5.5924	6.7744
5.5564	6.7722
5.5209	6.7781
5.4859	6.7773
5.4513	6.7849
5.4171	6.7837
5.3833	6.7876
5.35	6.7842
5.3171	6.7827
5.2846	6.7815
5.2524	6.779
5.2207	6.7744
5.1893	6.77
5.1584	6.7688
5.1277	6.7676
5.0975	6.7641
5.0676	6.7597
5.038	6.7573
5.0088	6.7556
4.98	6.7502
4.9514	6.7439
4.9232	6.7358
4.8953	6.7368
4.8678	6.7314
4.8405	6.7295
4.8135	6.7234
4.7868	6.7236
4.7605	6.7187
4.7344	6.7117
4.7086	6.7058
4.6831	6.6994
4.6578	6.6982
4.6328	6.6902
4.6081	6.6892
4.5837	6.6838
4.5595	6.6777
4.5356	6.6675
4.5119	6.6626
4.4884	6.6582
4.4652	6.6489
4.4423	6.6428
4.4196	6.6326
4.3971	6.6313
4.3748	6.6186
4.3528	6.6091
4.331	6.6047
4.3094	6.5959
4.288	6.5928
4.2668	6.583
4.2458	6.5715
4.2251	6.5681
4.2045	6.5622
4.1841	6.5554
4.164	6.5376
4.144	6.5339
4.1242	6.5276
4.1046	6.5185
4.0852	6.5088
4.066	6.5007
4.047	6.4951
4.0281	6.4751
4.0094	6.4702
3.9909	6.4541
3.9725	6.4382
3.9544	6.4277
3.9363	6.4216
3.9185	6.4089
3.9008	6.4001
3.8833	6.3887
3.8659	6.3755
3.8487	6.3667
3.8316	6.3547
3.8147	6.3413
3.7979	6.3293
3.7813	6.3186
3.7648	6.3064
3.7485	6.2971
3.7323	6.2868
3.7162	6.2746
3.7003	6.2634
3.6845	6.2507
3.6689	6.2336
3.6534	6.216
3.638	6.2019
3.6227	6.1909
3.6076	6.175
3.5926	6.1592
3.5777	6.1438
3.563	6.1308
3.5484	6.1201
3.5338	6.1072
3.5195	6.1101
3.5052	6.1106
3.491	6.0539
3.477	6.0349
3.463	6.0295
3.4492	6.0185
3.4355	6.0373
3.4219	6.0293
3.4084	5.9499
3.395	5.9028
3.3817	5.8791
3.3685	5.8525
3.3554	5.8308
3.3425	5.81
3.3296	5.7927
3.3168	5.7798
3.3041	5.7602
3.2915	5.7388
3.279	5.7158
3.2666	5.6943
3.2543	5.6723
3.2421	5.6474
3.23	5.6257
3.218	5.6025
3.206	5.5801
3.1942	5.5635
3.1824	5.5371
3.1707	5.5105
3.1591	5.4824
3.1476	5.4558
3.1362	5.4341
3.1249	5.3999
3.1136	5.3743
3.1024	5.3447
3.0913	5.3227
3.0803	5.2952
3.0694	5.2651
3.0585	5.238
3.0477	5.2019
3.037	5.175
3.0264	5.1382
3.0158	5.116
3.0053	5.0867
2.9949	5.0554
2.9845	5.03
2.9743	5.001
2.9641	4.9773
2.9539	4.937
2.9439	4.907
2.9339	4.8786
2.9239	4.8474
2.9141	4.8059
2.9043	4.7663
2.8946	4.7263
2.8849	4.699
2.8753	4.6562
2.8658	4.6216
2.8563	4.583
2.8469	4.5591
2.8375	4.5224
2.8282	4.4868
2.819	4.4585
2.8098	4.4177
2.8007	4.3767
2.7917	4.3418
2.7827	4.31
2.7738	4.2776
2.7649	4.25
2.7561	4.2048
2.7473	4.1716
2.7386	4.1306
2.7299	4.0991
2.7213	4.0537
2.7128	4.0217
2.7043	3.9863
2.6959	3.9399
2.6875	3.9094
2.6791	3.8677
2.6709	3.8252
2.6626	3.7895
2.6545	3.7602
2.6463	3.7109
2.6382	3.6743
2.6302	3.6379
2.6222	3.5791
2.6143	3.5564
2.6064	3.5159
2.5986	3.4717
2.5908	3.4311
2.583	3.3979
2.5753	3.3542
2.5677	3.3257
2.5601	3.2891
2.5525	3.2537
2.545	3.2075
2.5375	3.1677
2.5301	3.1392
2.5227	3.0911
2.5154	3.0622
2.5081	3.0249
2.5008	2.9841
2.4936	2.9592
2.4864	2.9265
2.4793	2.8884
2.4722	2.8486
2.4651	2.8061
2.4581	2.7783
2.4511	2.7595
2.4442	2.7209
2.4373	2.6912
2.4305	2.6562
2.4236	2.6318
2.4169	2.5967
2.4101	2.5703
2.4034	2.5364
2.3967	2.5266
2.3901	2.4912
2.3835	2.4614
2.377	2.4424
2.3704	2.4192
2.364	2.4058
2.3575	2.3879
2.3511	2.3459
2.3447	2.3308
2.3384	2.3071
2.3321	2.2712
2.3258	2.2488
2.3195	2.2371
2.3133	2.2046
2.3071	2.2046
2.301	2.1824
2.2949	2.1685
2.2888	2.145
2.2828	2.1352
2.2767	2.1287
2.2708	2.0986
2.2648	2.082
2.2589	2.071
2.253	2.061
2.2471	2.0574
2.2413	2.0471
2.2355	2.0303
2.2297	2.0071
2.224	1.9907
2.2183	1.9829
2.2126	1.9788
2.207	1.9548
2.2013	1.9387
2.1957	1.9373
2.1902	1.9241
2.1846	1.9148
2.1791	1.9058
2.1736	1.9011
2.1682	1.8938
2.1628	1.8809
2.1574	1.8699
2.152	1.8621
2.1466	1.8498
2.1413	1.844
2.136	1.8257
2.1308	1.8262
2.1255	1.7978
2.1203	1.7881
2.1151	1.7781
2.11	1.7932
2.1048	1.7842
2.0997	1.7876
2.0946	1.7576
2.0895	1.762
2.0845	1.748
2.0795	1.7637
