Name: Halite NaCl
Type: Mineral
Class: Halide
Subclass: None
Particle Size: Fine
Sample No.: H-3A
Owner: JPL
Wavelength Range: TIR
Origin: USA, Michigan, Wayne County, Detroit
Description: Particle size was 0-45um.Collected by Ward's Original ASTER Spectral Library name was jpl.nicolet.mineral.halide.none.fine.h03a.spectrum.txt
Measurement: Hemispherical reflectance
X Units: Wavelength (micrometers)
Y Units: Reflectance (percent)
wavelength	value
15.3853	43.6163
15.1161	45.9426
14.8563	48.8143
14.6052	52.3993
14.3624	56.1225
14.1276	60.0746
13.9004	63.7341
13.6803	67.0308
13.4671	69.3492
13.2604	71.3231
13.06	72.3976
12.8656	73.0635
12.6769	73.7694
12.4936	74.4301
12.3155	74.9539
12.1425	75.6838
11.9742	76.2175
11.8106	76.6003
11.6513	76.1736
11.4963	75.3739
11.3454	75.262
11.1983	76.38
11.0551	76.1579
10.9154	76.0975
10.7793	75.9573
10.6465	75.7608
10.5169	75.6341
10.3904	75.1854
10.267	74.6911
10.1464	73.9995
10.0287	73.3761
9.9136	72.5146
9.8012	71.9886
9.6913	71.6357
9.5838	71.8477
9.4787	71.8771
9.3758	72.1256
9.2752	72.2278
9.1767	72.4379
9.0803	72.4651
8.9858	72.8138
8.8934	73.4517
8.8028	74.5362
8.714	74.9755
8.627	75.2485
8.5417	75.7124
8.4581	76.6879
8.3761	77.4929
8.2957	77.98
8.2169	78.4567
8.1395	78.6548
8.0635	78.9341
7.989	79.1307
7.9158	79.4944
7.8439	79.799
7.7734	80.0601
7.7041	80.0894
7.636	80.0097
7.5691	79.3717
7.5034	79.2987
7.4388	78.1963
7.3753	76.3124
7.3129	75.7089
7.2515	75.9787
7.1912	76.5576
7.1318	76.4796
7.0734	74.865
7.016	74.153
6.9595	75.1824
6.9039	73.1601
6.8492	72.3963
6.7953	72.9901
6.7423	72.4427
6.6901	74.665
6.6387	79.6709
6.5881	77.7496
6.5382	76.227
6.4892	78.4557
6.4408	72.4589
6.3931	69.9653
6.3462	67.4786
6.2999	59.0996
6.2543	53.436
6.2094	49.5531
6.1651	47.4819
6.1214	46.2047
6.0784	50.6675
6.0359	64.8189
5.994	73.4077
5.9527	76.7035
5.912	79.5106
5.8718	83.1123
5.8322	85.4658
5.7931	85.1098
5.7545	86.5706
5.7165	87.905
5.6789	87.786
5.6418	89.5113
5.6052	87.66
5.5691	87.6873
5.5334	87.4126
5.4982	87.3546
5.4635	88.0581
5.4291	87.1511
5.3952	86.3149
5.3618	86.4255
5.3287	86.653
5.2961	87.5186
5.2638	87.6452
5.2319	87.9714
5.2004	88.1224
5.1693	87.9146
5.1386	87.8317
5.1082	87.6448
5.0782	87.6464
5.0485	87.4469
5.0192	87.4408
4.9902	87.0309
4.9616	86.7741
4.9332	86.5268
4.9052	86.1824
4.8776	85.8422
4.8502	85.4055
4.8231	85.324
4.7963	85.1871
4.7699	85.0697
4.7437	84.8888
4.7178	84.6854
4.6922	84.4498
4.6668	84.143
4.6418	83.8728
4.617	83.5366
4.5924	83.1644
4.5681	82.7984
4.5441	82.3235
4.5203	82.0143
4.4968	81.6013
4.4735	81.1287
4.4505	80.8932
4.4277	80.6105
4.4051	80.6472
4.3828	80.8356
4.3607	81.3137
4.3388	81.9908
4.3171	82.8435
4.2956	83.9996
4.2744	85.119
4.2534	85.8913
4.2325	86.9762
4.2119	87.2708
4.1915	87.6352
4.1712	88.0319
4.1512	88.2418
4.1313	88.459
4.1117	88.5832
4.0922	88.6772
4.0729	88.7064
4.0538	88.738
4.0349	88.7632
4.0161	88.7214
3.9976	88.7331
3.9792	88.6524
3.9609	88.671
3.9428	88.7378
3.9249	88.816
3.9072	88.9003
3.8896	88.8582
3.8722	88.8872
3.8549	88.837
3.8378	88.7764
3.8208	88.6969
3.804	88.7051
3.7873	88.6806
3.7708	88.5771
3.7544	88.6289
3.7382	88.5501
3.7221	88.3807
3.7061	88.2415
3.6903	88.231
3.6746	88.0691
3.659	87.9482
3.6436	87.939
3.6283	87.7602
3.6131	87.6247
3.5981	87.3914
3.5832	87.244
3.5684	87.1059
3.5537	86.8301
3.5391	86.4913
3.5247	86.0988
3.5104	84.6317
3.4962	84.2237
3.4821	84.3461
3.4681	83.9955
3.4543	83.69
3.4405	83.0234
3.4269	81.7202
3.4133	81.1132
3.3999	81.7277
3.3866	81.7998
3.3733	81.0981
3.3602	81.3688
3.3472	81.1314
3.3343	80.6765
3.3215	80.1514
3.3088	79.4164
3.2961	78.6255
3.2836	77.647
3.2712	76.6852
3.2588	75.5702
3.2466	74.2471
3.2345	72.8081
3.2224	71.4005
3.2104	69.8813
3.1985	68.0677
3.1867	66.3101
3.175	64.402
3.1634	62.3338
3.1519	60.2814
3.1404	58.1184
3.129	55.556
3.1178	53.0431
3.1065	49.9991
3.0954	46.7326
3.0844	44.5151
3.0734	45.1632
3.0625	46.0486
3.0517	45.2584
3.041	43.7002
3.0303	41.9185
3.0197	39.9346
3.0092	37.7438
2.9987	35.8206
2.9884	33.7881
2.9781	32.4271
2.9678	31.1538
2.9577	30.2456
2.9476	29.9996
2.9376	30.257
2.9276	30.5591
2.9177	31.2957
2.9079	32.0787
2.8982	33.2161
2.8885	34.3998
2.8789	35.7137
2.8693	37.1392
2.8598	38.6393
2.8504	39.9085
2.841	41.4059
2.8317	42.9438
2.8224	44.3218
2.8133	45.7754
2.8041	47.7043
2.7951	48.403
2.786	50.5396
2.7771	51.9593
2.7682	55.4581
2.7594	58.8055
2.7506	63.4346
2.7418	69.7725
2.7332	72.6734
2.7246	78.2649
2.716	78.6477
2.7075	80.8326
2.699	82.0084
2.6906	83.2019
2.6823	84.4755
2.674	85.2409
2.6657	88.6193
2.6575	85.3885
2.6494	85.3534
2.6413	85.902
2.6332	86.5377
2.6252	86.676
2.6173	88.3991
2.6094	87.0618
2.6015	87.0105
2.5937	89.5265
2.5859	87.0343
2.5782	86.6111
2.5706	87.0933
2.5629	87.8296
2.5554	86.2196
2.5478	86.5578
2.5403	86.3004
2.5329	86.5073
2.5255	86.503
2.5181	86.4708
2.5108	86.526
2.5035	86.4653
2.4963	86.5042
2.4891	86.5781
2.482	86.6417
2.4749	86.4655
2.4678	86.3615
2.4608	86.4367
2.4538	86.6086
2.4468	86.5469
2.4399	86.5835
2.4331	86.7722
2.4262	86.8138
2.4194	87.0789
2.4127	87.1607
2.4059	87.3845
2.3993	87.419
2.3926	87.4227
2.386	87.4615
2.3795	87.7226
2.3729	87.6861
2.3664	87.8281
2.36	87.8534
2.3535	87.8651
2.3471	88.0376
2.3408	87.9782
2.3345	88.1373
2.3282	87.9595
2.3219	88.2441
2.3157	88.234
2.3095	88.062
2.3034	88.0966
2.2972	88.1118
2.2911	88.2227
2.2851	88.1906
2.279	88.0921
2.2731	88.1421
2.2671	88.164
2.2612	88.2113
2.2553	88.1853
2.2494	88.2201
2.2435	88.3195
2.2377	88.2992
2.232	88.2827
2.2262	88.1962
2.2205	88.2565
2.2148	88.3206
2.2091	88.0953
2.2035	88.3818
2.1979	88.344
2.1923	88.4542
2.1868	88.2721
2.1812	88.3009
2.1758	88.2195
2.1703	88.2723
2.1649	88.3609
2.1595	88.3049
2.1541	88.2802
2.1487	88.1872
2.1434	88.1087
2.1381	88.1205
2.1328	88.1747
2.1275	88.2628
2.1223	88.1564
2.1171	88.3002
2.112	88.1128
2.1068	88.1756
2.1017	88.231
2.0966	88.1637
2.0915	88.1112
2.0865	88.1971
2.0814	88.1662
2.0764	87.8404
2.0715	88.0433
2.0665	88.1995
2.0616	88.0701
2.0567	87.8277
2.0518	87.9756
2.0469	87.6964
2.0421	87.7817
2.0373	87.5198
2.0325	87.6347
2.0277	87.3744
2.0229	87.1155
2.0182	87.1312
2.0135	86.9444
2.0088	86.7164
2.0042	86.5821
