Name: Biotite K(Mg,Fe+2)3(Al,Fe+3)Si3O10(OH,F)2
Type: Mineral
Class: Silicate
Subclass: Phyllosilicate
Particle Size: Coarse
Sample No.: biotite_2
Owner: JHU
Wavelength Range: TIR
Origin: Hunt and Salisbury Collection #28B (purchased from Ward'sNatural Science Establishment).; Sample from Ontario, Canada.
Description: No solid sample was available.  The particulate samples appeared to be pure brown biotite showing neither inclusions nor impurities under the microscope. Particle size was 74-250 Micrometers.(Mica Group) Original ASTER Spectral Library name was jhu.nicolet.mineral.silicate.phyllosilicate.coarse.biotit2.spectrum.txt
Measurement: Bidirectional reflectance
X Units: Wavelength (micrometers)
Y Units: Reflectance (percent)
wavelength	value
25.0442	6.6347
24.3388	6.9106
23.6719	7.5054
23.0407	8.4521
22.4422	9.8938
21.8741	11.75
21.334	13.2314
20.8199	13.4377
20.33	14.0056
19.8627	14.8584
19.4163	15.6045
18.9896	15.9707
18.5812	14.9929
18.19	12.5713
17.815	8.8921
17.4551	5.0351
17.1094	3.081
16.7772	2.4944
16.4576	2.2798
16.15	2.2871
15.8537	2.3799
15.568	2.4849
15.2925	2.491
15.0265	2.5029
14.7697	2.6445
14.5214	2.6865
14.2814	2.8948
14.0492	3.1257
13.8244	2.9724
13.6067	2.8762
13.3957	3.2104
13.1912	3.5308
12.9929	3.7385
12.8004	4.1333
12.6135	4.4739
12.432	4.6196
12.2557	4.9753
12.0843	5.2048
11.9176	5.241
11.7555	5.1868
11.5977	5.2812
11.444	5.3486
11.2944	5.1306
11.1487	4.8999
11.0067	4.8462
10.8682	4.9661
10.7332	5.218
10.6015	5.6433
10.473	6.364
10.3476	7.1853
10.2251	7.3987
10.1056	7.8674
9.9887	9.8025
9.8746	12.737
9.763	14.0285
9.6539	12.9282
9.5472	11.7373
9.4429	11.1037
9.3408	10.9631
9.2409	11.5464
9.1431	11.8161
9.0474	10.8759
8.9536	9.4143
8.8618	7.1006
8.7718	4.4106
8.6837	2.2549
8.5973	1.3364
8.5126	1.5498
8.4295	2.0786
8.3481	2.6758
8.2682	3.2725
8.1898	3.8066
8.1129	4.2475
8.0374	4.6255
7.9634	4.9211
7.8906	5.1704
7.8192	5.3826
7.7491	5.5791
7.6802	5.7851
7.6126	6.0044
7.5461	6.2475
7.4807	6.4726
7.4165	6.7185
7.3534	6.9502
7.2914	7.1653
7.2303	7.3994
7.1703	7.5593
7.1113	7.7065
7.0533	7.8037
6.9962	7.9475
6.94	8.1074
6.8847	8.2866
6.8302	8.4768
6.7767	8.6784
6.7239	8.8613
6.672	9.018
6.6209	9.1784
6.5705	9.2934
6.5209	9.3445
6.4721	9.2573
6.424	9.0442
6.3766	8.8169
6.3299	8.5285
6.2838	8.2439
6.2385	7.9856
6.1937	7.7951
6.1496	7.6758
6.1062	7.6211
6.0633	7.6677
6.0211	7.8296
5.9794	7.9895
5.9383	8.0002
5.8978	8.0171
5.8578	8.0647
5.8184	8.0986
5.7794	8.2002
5.741	8.2732
5.7031	8.3257
5.6657	8.4453
5.6288	8.6133
5.5924	8.7658
5.5564	8.8782
5.5209	9.0115
5.4859	9.1601
5.4513	9.3926
5.4171	9.7199
5.3833	10.1838
5.35	10.729
5.3171	11.334
5.2846	11.7732
5.2524	11.966
5.2207	12.0403
5.1893	12.0827
5.1584	12.1059
5.1277	12.1125
5.0975	12.0825
5.0676	12.0205
5.038	11.9489
5.0088	11.9594
4.98	12.0583
4.9514	12.1252
4.9232	12.08
4.8953	12.0395
4.8678	12.1028
4.8405	12.2495
4.8135	12.3955
4.7868	12.5578
4.7605	12.7575
4.7344	13.0036
4.7086	13.2146
4.6831	13.3818
4.6578	13.5688
4.6328	13.7883
4.6081	14.018
4.5837	14.2373
4.5595	14.4423
4.5356	14.5971
4.5119	14.6958
4.4884	14.7707
4.4652	14.843
4.4423	14.8877
4.4196	14.9323
4.3971	14.9797
4.3748	15.0163
4.3528	15.0568
4.331	15.0844
4.3094	15.1037
4.288	15.1269
4.2668	15.1284
4.2458	15.186
4.2251	15.1889
4.2045	15.2109
4.1841	15.2216
4.164	15.2212
4.144	15.2121
4.1242	15.2363
4.1046	15.24
4.0852	15.2426
4.066	15.2404
4.047	15.2331
4.0281	15.2273
4.0094	15.1999
3.9909	15.1718
3.9725	15.1584
3.9544	15.2014
3.9363	15.2326
3.9185	15.2526
3.9008	15.2736
3.8833	15.2802
3.8659	15.2878
3.8487	15.3049
3.8316	15.3181
3.8147	15.3374
3.7979	15.3447
3.7813	15.3754
3.7648	15.3896
3.7485	15.3901
3.7323	15.3921
3.7162	15.4084
3.7003	15.3928
3.6845	15.3996
3.6689	15.3972
3.6534	15.4087
3.638	15.4113
3.6227	15.4118
3.6076	15.4116
3.5926	15.395
3.5777	15.3962
3.563	15.3806
3.5484	15.362
3.5338	15.3249
3.5195	15.2544
3.5052	15.1543
3.491	15.1767
3.477	15.1445
3.463	15.1525
3.4492	15.0925
3.4355	15.0129
3.4219	14.8994
3.4084	14.9043
3.395	14.9494
3.3817	14.934
3.3685	14.9494
3.3554	14.969
3.3425	14.989
3.3296	14.9951
3.3168	14.9587
3.3041	14.9187
3.2915	14.8657
3.279	14.8022
3.2666	14.7456
3.2543	14.6923
3.2421	14.646
3.23	14.5979
3.218	14.5974
3.206	14.6164
3.1942	14.6306
3.1824	14.6313
3.1707	14.604
3.1591	14.571
3.1476	14.5009
3.1362	14.4299
3.1249	14.3769
3.1136	14.3271
3.1024	14.2954
3.0913	14.2736
3.0803	14.247
3.0694	14.2033
3.0585	14.1438
3.0477	14.0947
3.037	14.0442
3.0264	13.9651
3.0158	13.8862
3.0053	13.8215
2.9949	13.7949
2.9845	13.7422
2.9743	13.6899
2.9641	13.6323
2.9539	13.6054
2.9439	13.5879
2.9339	13.5522
2.9239	13.529
2.9141	13.5112
2.9043	13.4692
2.8946	13.4013
2.8849	13.2832
2.8753	13.0627
2.8658	12.7343
2.8563	12.2578
2.8469	11.6025
2.8375	10.8667
2.8282	10.2551
2.819	10.1504
2.8098	10.7014
2.8007	11.4489
2.7917	12.0219
2.7827	12.3596
2.7738	12.6455
2.7649	12.5996
2.7561	11.9834
2.7473	10.8408
2.7386	9.9177
2.7299	9.2553
2.7213	8.9375
2.7128	8.4448
2.7043	9.0356
2.6959	10.0019
2.6875	11.8491
2.6791	14.1411
2.6709	14.4152
2.6626	14.4546
2.6545	14.4321
2.6463	14.3867
2.6382	14.3681
2.6302	14.309
2.6222	14.3588
2.6143	14.4111
2.6064	14.4414
2.5986	14.4946
2.5908	14.4838
2.583	14.4516
2.5753	14.4326
2.5677	14.4028
2.5601	14.3645
2.5525	14.363
2.545	14.3366
2.5375	14.3105
2.5301	14.258
2.5227	14.1914
2.5154	14.2033
2.5081	14.1889
2.5008	14.1206
2.4936	14.1103
2.4864	14.0881
2.4793	14.0568
2.4722	14.03
2.4651	13.9765
2.4581	13.9458
2.4511	13.9214
2.4442	13.883
2.4373	13.8366
2.4305	13.7861
2.4236	13.6992
2.4169	13.6582
2.4101	13.5556
2.4034	13.4736
2.3967	13.3569
2.3901	13.3664
2.3835	13.4084
2.377	13.4179
2.3704	13.4389
2.364	13.4475
2.3575	13.3918
2.3511	13.3137
2.3447	13.2473
2.3384	13.1662
2.3321	13.1479
2.3258	13.2209
2.3195	13.3244
2.3133	13.4436
2.3071	13.5214
2.301	13.5937
2.2949	13.644
2.2888	13.6662
2.2828	13.6435
2.2767	13.6406
2.2708	13.6386
2.2648	13.6399
2.2589	13.625
2.253	13.5969
2.2471	13.5901
2.2413	13.5713
2.2355	13.5861
2.2297	13.5686
2.224	13.5129
2.2183	13.5078
2.2126	13.5039
2.207	13.4436
2.2013	13.386
2.1957	13.3781
2.1902	13.3906
2.1846	13.3667
2.1791	13.2695
2.1736	13.2871
2.1682	13.291
2.1628	13.2744
2.1574	13.1982
2.152	13.1123
2.1466	13.1064
2.1413	13.0888
2.136	13.0473
2.1308	13.0097
2.1255	12.9922
2.1203	12.9594
2.1151	12.9267
2.11	12.8691
2.1048	12.833
2.0997	12.8222
2.0946	12.7715
2.0895	12.7763
2.0845	12.7236
2.0795	12.726
