Name: Olivine (Fo60) (Fe+2,Mg)2SiO4
Type: Mineral
Class: Silicate
Subclass: Nesosilicate
Particle Size: Fine
Sample No.: olivine_6
Owner: JHU
Wavelength Range: TIR
Origin: Kiglapait Intrusion, Labrador via Trude King #KI3189(obtained from S.A. Morse, Univ. of Mass.)
Description: Initially, the specimen was contaminated with pyroxene, spinel, and ilmenite.  Heavy liquid separation, followed by magnetic separation and hand picking, allowed olivines of different iron content to be obtained.  Sample ground to <60 micrometers and wet sieved.  Sample preparation by Trude King, USGS, Denver. Particle size was less than 2 Micrometers.(Isolated tetrahedra); (Olivine Group) Original ASTER Spectral Library name was jhu.nicolet.mineral.silicate.nesosilicate.powder.olivin6.spectrum.txt
Measurement: Transmission
X Units: Wavelength (micrometers)
Y Units: Transmittance (percent)
wavelength	value
25.0442	24.6093
24.3388	31.8359
23.6719	39.1327
23.0407	47.3768
22.4422	51.3983
21.8741	53.0233
21.334	50.8924
20.8199	36.7284
20.33	26.996
19.8627	28.8642
19.4163	28.3329
18.9896	30.5155
18.5812	39.6249
18.19	55.0643
17.815	64.3162
17.4551	60.493
17.1094	45.203
16.7772	45.6913
16.4576	57.2665
16.15	72.3875
15.8537	81.9773
15.568	86.3875
15.2925	88.9627
15.0265	90.4334
14.7697	91.117
14.5214	91.3142
14.2814	91.3401
14.0492	91.0779
13.8244	90.4431
13.6067	89.6599
13.3957	88.5217
13.1912	86.74
12.9929	84.4768
12.8004	81.4353
12.6135	77.3987
12.432	71.055
12.2557	61.5848
12.0843	44.5468
11.9176	36.4296
11.7555	33.5121
11.5977	21.1
11.444	9.8344
11.2944	6.6982
11.1487	10.0381
11.0067	13.4814
10.8682	18.6689
10.7332	23.8554
10.6015	25.1913
10.473	30.7577
10.3476	19.1416
10.2251	19.061
10.1056	21.5107
9.9887	28.9877
9.8746	40.7055
9.763	52.2782
9.6539	61.4906
9.5472	68.2757
9.4429	73.1614
9.3408	76.3738
9.2409	78.9202
9.1431	81.2962
9.0474	83.8162
8.9536	85.5237
8.8618	87.3069
8.7718	88.7278
8.6837	89.9768
8.5973	90.992
8.5126	92.1423
8.4295	93.251
8.3481	94.0996
8.2682	94.9131
8.1898	95.6045
8.1129	96.1384
8.0374	96.5557
7.9634	96.779
7.8906	96.916
7.8192	97.1348
7.7491	97.4021
7.6802	97.6013
7.6126	97.7068
7.5461	97.8555
7.4807	98.1907
7.4165	98.51
7.3534	98.583
7.2914	98.7898
7.2303	98.8916
7.1703	98.6853
7.1113	98.8008
7.0533	99.0156
6.9962	99.1799
6.94	99.2497
6.8847	99.366
6.8302	99.4407
6.7767	99.3408
6.7239	99.416
6.672	99.4023
6.6209	99.3503
6.5705	99.2031
6.5209	99.1384
6.4721	98.9372
6.424	98.6404
6.3766	98.6023
6.3299	98.3083
6.2838	98.1084
6.2385	97.8975
6.1937	97.7588
6.1496	97.6904
6.1062	97.428
6.0633	97.1748
6.0211	97.0964
5.9794	97.2324
5.9383	97.4883
5.8978	97.8928
5.8578	98.1494
5.8184	97.9036
5.7794	97.9268
5.741	97.7217
5.7031	97.4685
5.6657	97.3967
5.6288	97.4424
5.5924	97.5518
5.5564	97.4785
5.5209	97.4236
5.4859	97.3691
5.4513	97.4473
5.4171	97.3799
5.3833	97.4309
5.35	97.3603
5.3171	97.3572
5.2846	97.3464
5.2524	97.3621
5.2207	97.324
5.1893	97.3027
5.1584	97.2783
5.1277	97.1697
5.0975	97.0898
5.0676	97.0564
5.038	96.9929
5.0088	96.9853
4.98	96.9521
4.9514	96.9951
4.9232	96.9785
4.8953	96.9158
4.8678	96.9089
4.8405	96.8162
4.8135	96.7327
4.7868	96.6995
4.7605	96.6301
4.7344	96.5198
4.7086	96.4465
4.6831	96.3621
4.6578	96.302
4.6328	96.2078
4.6081	96.0715
4.5837	95.9558
4.5595	95.9075
4.5356	95.8142
4.5119	95.7317
4.4884	95.6204
4.4652	95.5193
4.4423	95.4041
4.4196	95.3347
4.3971	95.2644
4.3748	95.178
4.3528	95.031
4.331	94.9446
4.3094	94.9275
4.288	94.7878
4.2668	94.7122
4.2458	94.6834
4.2251	94.553
4.2045	94.4529
4.1841	94.3469
4.164	94.2615
4.144	94.1941
4.1242	94.0754
4.1046	94.0281
4.0852	93.9104
4.066	93.7659
4.047	93.6228
4.0281	93.5964
4.0094	93.446
3.9909	93.3445
3.9725	93.2898
3.9544	93.1785
3.9363	93.0452
3.9185	92.9802
3.9008	92.8367
3.8833	92.7009
3.8659	92.6096
3.8487	92.4646
3.8316	92.4202
3.8147	92.2898
3.7979	92.1345
3.7813	92.0222
3.7648	91.9319
3.7485	91.7947
3.7323	91.6902
3.7162	91.5354
3.7003	91.4163
3.6845	91.3435
3.6689	91.1257
3.6534	91.096
3.638	90.9221
3.6227	90.8323
3.6076	90.676
3.5926	90.5725
3.5777	90.4378
3.563	90.3425
3.5484	90.1858
3.5338	90.1131
3.5195	90.1414
3.5052	90.283
3.491	89.9939
3.477	89.7581
3.463	89.6716
3.4492	89.6428
3.4355	89.635
3.4219	89.7893
3.4084	89.3714
3.395	89.0174
3.3817	88.7361
3.3685	88.4085
3.3554	88.0784
3.3425	87.9046
3.3296	87.7058
3.3168	87.5042
3.3041	87.409
3.2915	87.2678
3.279	87.0369
3.2666	86.8455
3.2543	86.6951
3.2421	86.5569
3.23	86.305
3.218	86.1448
3.206	85.9666
3.1942	85.7381
3.1824	85.5633
3.1707	85.3904
3.1591	85.3084
3.1476	85.0574
3.1362	84.8836
3.1249	84.6951
3.1136	84.6053
3.1024	84.5574
3.0913	84.3533
3.0803	84.2459
3.0694	84.1726
3.0585	83.9549
3.0477	83.7967
3.037	83.7469
3.0264	83.5681
3.0158	83.4119
3.0053	83.2146
2.9949	83.2078
2.9845	83.3201
2.9743	83.0984
2.9641	83.2322
2.9539	83.2342
2.9439	83.242
2.9339	83.2068
2.9239	83.0896
2.9141	83.0349
2.9043	82.9842
2.8946	82.9783
2.8849	82.8523
2.8753	82.9139
2.8658	82.7625
2.8563	82.8015
2.8469	82.739
2.8375	82.6531
2.8282	82.7039
2.819	82.6209
2.8098	82.6648
2.8007	82.6258
2.7917	82.6385
2.7827	82.7342
2.7738	82.7732
2.7649	82.783
2.7561	82.739
2.7473	83.1297
2.7386	83.0594
2.7299	83.2469
2.7213	83.2888
2.7128	83.3162
2.7043	83.4138
2.6959	83.1443
2.6875	83.1853
2.6791	83.1482
2.6709	82.9256
2.6626	82.8484
2.6545	82.7664
2.6463	82.7654
2.6382	82.6805
2.6302	82.4275
2.6222	82.5017
2.6143	82.324
2.6064	82.1365
2.5986	82.1033
2.5908	82.0564
2.583	81.8572
2.5753	81.8709
2.5677	81.7693
2.5601	81.5818
2.5525	81.6267
2.545	81.4295
2.5375	81.2752
2.5301	81.2615
2.5227	81.1873
2.5154	81.0955
2.5081	80.9939
2.5008	80.9549
2.4936	80.8924
2.4864	80.783
2.4793	80.656
2.4722	80.5115
2.4651	80.5271
2.4581	80.1131
2.4511	80.1131
2.4442	80.1912
2.4373	79.9881
2.4305	79.7615
2.4236	79.7986
2.4169	79.7185
2.4101	79.7185
2.4034	79.574
2.3967	79.4803
2.3901	79.4002
2.3835	79.3592
2.377	79.1795
2.3704	79.1658
2.364	79.0779
2.3575	78.9139
2.3511	78.9393
2.3447	78.5154
2.3384	78.5018
2.3321	78.4842
2.3258	78.2771
2.3195	78.3982
2.3133	78.2674
2.3071	78.1502
2.301	77.9158
2.2949	77.9158
2.2888	77.8201
2.2828	77.7811
2.2767	77.617
2.2708	77.6561
2.2648	77.3357
2.2589	77.324
2.253	77.0818
2.2471	76.9412
2.2413	76.9881
2.2355	76.7498
2.2297	76.8357
2.224	76.5193
2.2183	76.6053
2.2126	76.8201
2.207	76.4764
2.2013	76.1248
2.1957	76.1717
2.1902	76.2459
2.1846	76.0232
2.1791	75.4764
2.1736	75.6951
2.1682	75.91
2.1628	75.5818
2.1574	75.1912
2.152	75.2264
2.1466	74.9842
2.1413	74.8982
2.136	74.8123
2.1308	74.5623
2.1255	74.6756
2.1203	74.4881
2.1151	74.4451
2.11	74.3045
2.1048	74.2693
2.0997	74.2225
2.0946	73.8748
2.0895	73.8006
2.0845	73.5857
2.0795	73.9686
