Name: Magnesite MgCO_3
Type: Mineral
Class: Carbonate
Subclass: None
Particle Size: Medium
Sample No.: C-6A
Owner: JPL
Wavelength Range: TIR
Origin: USA, California, Riverside County
Description: Particle size was 45-125um.Collected by Ward's Original ASTER Spectral Library name was jpl.nicolet.mineral.carbonate.none.medium.c06a.spectrum.txt
Measurement: Hemispherical reflectance
X Units: Wavelength (micrometers)
Y Units: Reflectance (percent)
wavelength	value
15.3853	1.0552
15.1161	1.3311
14.8563	1.7471
14.6052	1.9003
14.3624	1.7556
14.1276	2.0257
13.9004	2.1259
13.6803	1.9486
13.4671	1.9059
13.2604	1.0225
13.06	1.9294
12.8656	2.9171
12.6769	3.2848
12.4936	3.5541
12.3155	4.2107
12.1425	4.1051
11.9742	4.284
11.8106	4.227
11.6513	3.2151
11.4963	4.2581
11.3454	4.3511
11.1983	5.4606
11.0551	7.9842
10.9154	7.2436
10.7793	5.3643
10.6465	3.9833
10.5169	2.9441
10.3904	2.4848
10.267	2.2289
10.1464	2.5451
10.0287	2.521
9.9136	2.5308
9.8012	2.8157
9.6913	2.9113
9.5838	2.9331
9.4787	3.2436
9.3758	3.078
9.2752	2.9266
9.1767	2.9174
9.0803	3.3964
8.9858	3.8946
8.8934	4.5395
8.8028	5.2496
8.714	5.9639
8.627	6.4548
8.5417	6.6271
8.4581	5.9252
8.3761	5.777
8.2957	5.7474
8.2169	5.6275
8.1395	5.5406
8.0635	5.7753
7.989	6.1278
7.9158	7.5433
7.8439	8.7094
7.7734	9.016
7.7041	8.8129
7.636	8.5376
7.5691	8.1083
7.5034	7.9101
7.4388	7.3099
7.3753	6.7793
7.3129	6.5171
7.2515	5.9591
7.1912	5.1456
7.1318	4.9355
7.0734	5.0936
7.016	6.452
6.9595	6.9487
6.9039	6.8177
6.8492	6.9546
6.7953	7.1185
6.7423	7.3773
6.6901	7.8118
6.6387	8.4863
6.5881	9.1865
6.5382	10.2791
6.4892	11.8696
6.4408	12.9531
6.3931	14.2683
6.3462	15.3789
6.2999	15.7412
6.2543	15.6141
6.2094	9.2408
6.1651	6.6404
6.1214	6.2878
6.0784	5.4835
6.0359	4.4866
5.994	4.0689
5.9527	3.6223
5.912	3.1346
5.8718	2.9224
5.8322	3.2468
5.7931	3.3804
5.7545	3.476
5.7165	3.9332
5.6789	3.9815
5.6418	3.7066
5.6052	3.3955
5.5691	2.8328
5.5334	2.0296
5.4982	1.5265
5.4635	1.4128
5.4291	1.8605
5.3952	3.5679
5.3618	6.6412
5.3287	9.4958
5.2961	12.0304
5.2638	12.9516
5.2319	13.6862
5.2004	16.6531
5.1693	19.3139
5.1386	21.4628
5.1082	22.8186
5.0782	22.2804
5.0485	21.6634
5.0192	24.9613
4.9902	26.5652
4.9616	27.1173
4.9332	27.5411
4.9052	27.6939
4.8776	27.7703
4.8502	27.8687
4.8231	27.8732
4.7963	27.7143
4.7699	27.4666
4.7437	27.1381
4.7178	26.6376
4.6922	25.9712
4.6668	24.7877
4.6418	22.8301
4.617	19.9488
4.5924	18.0851
4.5681	18.0507
4.5441	18.9672
4.5203	20.5544
4.4968	21.4607
4.4735	22.0234
4.4505	22.3037
4.4277	22.4372
4.4051	22.6868
4.3828	23.0305
4.3607	23.593
4.3388	24.1854
4.3171	24.1159
4.2956	24.5951
4.2744	24.8357
4.2534	25.0758
4.2325	25.7449
4.2119	26.0145
4.1915	26.0339
4.1712	26.3649
4.1512	26.4077
4.1313	26.3068
4.1117	26.288
4.0922	26.1259
4.0729	25.6279
4.0538	24.3263
4.0349	22.2827
4.0161	18.2875
3.9976	12.5348
3.9792	7.0662
3.9609	3.5468
3.9428	2.9661
3.9249	3.1854
3.9072	3.5636
3.8896	4.3194
3.8722	5.957
3.8549	6.3852
3.8378	6.7888
3.8208	7.299
3.804	7.6314
3.7873	8.0818
3.7708	9.6195
3.7544	12.1258
3.7382	15.3053
3.7221	19.8099
3.7061	22.5909
3.6903	22.9952
3.6746	22.8841
3.659	22.5253
3.6436	21.98
3.6283	21.3455
3.6131	20.6831
3.5981	20.0066
3.5832	19.3125
3.5684	18.5403
3.5537	17.6108
3.5391	16.5986
3.5247	15.0572
3.5104	14.1829
3.4962	11.8043
3.4821	8.6217
3.4681	6.9663
3.4543	6.0366
3.4405	5.192
3.4269	4.6736
3.4133	4.7652
3.3999	5.5811
3.3866	5.915
3.3733	5.7717
3.3602	5.8467
3.3472	5.4362
3.3343	5.2736
3.3215	5.1257
3.3088	4.9817
3.2961	4.554
3.2836	4.2392
3.2712	4.0088
3.2588	4.443
3.2466	4.9172
3.2345	4.7312
3.2224	4.4241
3.2104	4.0724
3.1985	4.2624
3.1867	4.2878
3.175	4.0773
3.1634	4.1875
3.1519	3.9966
3.1404	4.0488
3.129	3.9122
3.1178	3.8767
3.1065	3.8033
3.0954	4.0198
3.0844	4.1675
3.0734	4.0917
3.0625	4.3139
3.0517	4.2004
3.041	4.0026
3.0303	4.088
3.0197	4.0116
3.0092	3.6257
2.9987	3.5591
2.9884	3.3474
2.9781	3.5982
2.9678	3.6629
2.9577	3.7121
2.9476	3.886
2.9376	4.3987
2.9276	4.5236
2.9177	5.0244
2.9079	5.5626
2.8982	5.6713
2.8885	6.4212
2.8789	6.7236
2.8693	6.9774
2.8598	7.4481
2.8504	7.8182
2.841	8.3223
2.8317	8.7521
2.8224	8.7118
2.8133	8.8461
2.8041	9.7314
2.7951	10.466
2.786	11.4739
2.7771	12.2849
2.7682	13.1257
2.7594	14.0201
2.7506	15.8863
2.7418	19.1291
2.7332	22.8868
2.7246	24.7871
2.716	19.5662
2.7075	32.0109
2.699	38.5926
2.6906	36.4175
2.6823	46.6475
2.674	49.8545
2.6657	52.7839
2.6575	53.9129
2.6494	55.2437
2.6413	56.6378
2.6332	57.584
2.6252	58.338
2.6173	59.3456
2.6094	59.6361
2.6015	60.0568
2.5937	60.9576
2.5859	60.8081
2.5782	60.9993
2.5706	60.9206
2.5629	61.0717
2.5554	60.4013
2.5478	60.1081
2.5403	59.3215
2.5329	57.7356
2.5255	55.1718
2.5181	53.1836
2.5108	51.8259
2.5035	51.1216
2.4963	51.3055
2.4891	51.829
2.482	52.6741
2.4749	53.2134
2.4678	53.7674
2.4608	54.5223
2.4538	55.2574
2.4468	56.2708
2.4399	57.5301
2.4331	58.72
2.4262	60.0339
2.4194	61.1333
2.4127	62.4476
2.4059	63.2182
2.3993	63.8974
2.3926	64.4752
2.386	65.2469
2.3795	66.5254
2.3729	67.5785
2.3664	68.3709
2.36	69.2428
2.3535	69.9665
2.3471	70.5206
2.3408	70.5117
2.3345	70.0589
2.3282	68.8849
2.3219	67.36
2.3157	65.2729
2.3095	64.3637
2.3034	65.4797
2.2972	65.9542
2.2911	66.5089
2.2851	67.2299
2.279	68.0636
2.2731	68.6076
2.2671	69.0738
2.2612	69.8318
2.2553	70.2909
2.2494	70.9666
2.2435	71.9741
2.2377	72.8848
2.232	73.3775
2.2262	74.0971
2.2205	74.5883
2.2148	75.0786
2.2091	75.5101
2.2035	75.51
2.1979	75.5866
2.1923	75.4761
2.1868	75.267
2.1812	75.5961
2.1758	75.6463
2.1703	75.5343
2.1649	75.5493
2.1595	75.2438
2.1541	75.0229
2.1487	74.6092
2.1434	74.1342
2.1381	73.5929
2.1328	73.3743
2.1275	73.5564
2.1223	73.2049
2.1171	73.074
2.112	72.699
2.1068	72.6326
2.1017	72.4868
2.0966	72.6022
2.0915	72.1188
2.0865	71.9624
2.0814	72.1894
2.0764	71.849
2.0715	71.2681
2.0665	71.4242
2.0616	71.1165
2.0567	70.6878
2.0518	70.9525
2.0469	70.6877
2.0421	70.7982
2.0373	70.6287
2.0325	70.3562
2.0277	70.7434
2.0229	70.429
2.0182	70.3623
2.0135	70.554
2.0088	70.6109
2.0042	70.2422
