Name: Siderite Fe^2+CO_3
Type: Mineral
Class: Carbonate
Subclass: None
Particle Size: Fine
Sample No.: C-9A
Owner: JPL
Wavelength Range: VSWIR
Origin: None.
Description: Particle size was 0-45um.Collected by:  JPL Original ASTER Spectral Library name was jpl.perkin.mineral.carbonate.none.fine.c09a.spectrum.txt
Measurement: Hemispherical reflectance
X Units: Wavelength (micrometers)
Y Units: Reflectance (percent)
wavelength	value
2.5	51.6326
2.494	51.5124
2.488	51.5672
2.482	51.9026
2.476	52.08
2.47	52.2734
2.464	52.7967
2.458	52.7751
2.452	53.1957
2.446	53.3512
2.44	53.5115
2.434	53.6768
2.428	53.8031
2.422	53.9164
2.416	54.0543
2.41	54.1285
2.404	54.1813
2.398	54.1909
2.392	54.2295
2.386	54.3383
2.38	54.3426
2.374	54.2979
2.368	54.2611
2.362	54.2584
2.356	54.2258
2.35	54.1005
2.344	54.0299
2.338	54.0112
2.332	54.0165
2.326	53.9977
2.32	53.9876
2.314	54.0237
2.308	54.1133
2.302	54.2245
2.296	54.2777
2.29	54.3542
2.284	54.4694
2.278	54.5042
2.272	54.6674
2.266	54.7015
2.26	54.7853
2.254	54.8243
2.248	54.894
2.242	55.0799
2.236	55.1286
2.23	55.1977
2.224	55.2915
2.218	55.3996
2.212	55.597
2.206	55.646
2.2	55.7324
2.194	55.7813
2.188	55.8354
2.182	55.9534
2.176	56.0383
2.17	56.1075
2.164	56.2302
2.158	56.3336
2.152	56.4399
2.146	56.431
2.14	56.5096
2.134	56.4337
2.128	56.3001
2.122	56.1746
2.116	56.0313
2.11	55.8666
2.104	55.7815
2.098	55.6828
2.092	55.6887
2.086	55.7354
2.08	55.7504
2.074	55.8267
2.068	55.886
2.062	55.9205
2.056	56.0064
2.05	56.0289
2.044	56.1017
2.038	56.115
2.032	56.1488
2.026	56.0914
2.02	56.118
2.014	56.1108
2.008	56.055
2.002	56.1073
1.996	56.0912
1.99	56.0376
1.984	55.9353
1.978	55.9118
1.972	55.9015
1.966	55.8861
1.96	55.8867
1.954	55.8706
1.948	55.8648
1.942	55.7966
1.936	55.934
1.93	55.9941
1.924	56.0495
1.918	56.086
1.912	56.1698
1.906	56.1689
1.9	56.2873
1.894	56.2993
1.888	56.4438
1.882	56.542
1.876	56.5217
1.87	56.5322
1.864	56.5668
1.858	56.6437
1.852	56.6064
1.846	56.6153
1.84	56.71
1.834	56.7084
1.828	56.7385
1.822	56.6946
1.816	56.7276
1.81	56.8091
1.804	56.7138
1.798	56.7269
1.792	56.7236
1.786	56.6588
1.78	56.6656
1.774	56.6637
1.768	56.6804
1.762	56.6503
1.756	56.6552
1.75	56.6478
1.744	56.642
1.738	56.6172
1.732	56.6649
1.726	56.6035
1.72	56.6866
1.714	56.5895
1.708	56.5932
1.702	56.488
1.696	56.4862
1.69	56.4701
1.684	56.397
1.678	56.2818
1.672	56.342
1.666	56.2355
1.66	56.1813
1.654	56.1469
1.648	56.017
1.642	56.0025
1.636	55.87
1.63	55.774
1.624	55.7353
1.618	55.5286
1.612	55.4847
1.606	55.2845
1.6	55.1908
1.594	55.0306
1.588	54.8576
1.582	54.7033
1.576	54.4319
1.57	54.2705
1.564	54.0075
1.558	53.8012
1.552	53.5758
1.546	53.2759
1.54	53.0375
1.534	52.6934
1.528	52.3883
1.522	52.0755
1.516	51.7353
1.51	51.3366
1.504	51.0008
1.498	50.533
1.492	50.1618
1.486	49.7621
1.48	49.2561
1.474	48.7435
1.468	48.2797
1.462	47.8859
1.456	47.375
1.45	46.8113
1.444	46.3448
1.438	45.8309
1.432	45.2311
1.426	44.8336
1.42	44.2255
1.414	43.6618
1.408	43.1984
1.402	42.6404
1.396	42.1004
1.39	41.6399
1.384	41.1254
1.378	40.5368
1.372	39.9881
1.366	39.5416
1.36	39.0331
1.354	38.5746
1.348	38.0794
1.342	37.6326
1.336	37.2171
1.33	36.8253
1.324	36.4291
1.318	36.0767
1.312	35.7137
1.306	35.4296
1.3	35.1144
1.294	34.8796
1.288	34.5543
1.282	34.333
1.276	34.0855
1.27	33.9258
1.264	33.7207
1.258	33.5275
1.252	33.3785
1.246	33.2529
1.24	33.1642
1.234	33.149
1.228	33.0523
1.222	32.9678
1.216	32.862
1.21	32.8786
1.204	32.8367
1.198	32.7816
1.192	32.8013
1.186	32.7863
1.18	32.7168
1.174	32.7076
1.168	32.6495
1.162	32.6726
1.156	32.6262
1.15	32.5505
1.144	32.5362
1.138	32.5042
1.132	32.4398
1.126	32.3062
1.12	32.1829
1.114	32.1757
1.108	31.9808
1.102	31.9566
1.096	31.7892
1.09	31.7298
1.084	31.6115
1.078	31.541
1.072	31.4386
1.066	31.3233
1.06	31.2835
1.054	31.2371
1.048	31.2286
1.042	31.2243
1.036	31.2296
1.03	31.2049
1.024	31.3718
1.018	31.5288
1.012	31.639
1.006	31.9376
1	32.1567
0.994	32.4049
0.988	32.7519
0.982	33.1425
0.976	33.5417
0.97	33.9528
0.964	34.367
0.958	34.8971
0.952	35.4694
0.946	36.0449
0.94	36.6596
0.934	37.2609
0.928	37.8926
0.922	38.5791
0.916	39.1779
0.91	39.895
0.904	40.5471
0.898	41.2348
0.892	41.9307
0.886	42.6073
0.88	43.2318
0.874	43.8662
0.868	44.5648
0.862	45.0662
0.856	46.016
0.85	46.6261
0.844	47.1841
0.838	47.7575
0.832	48.2664
0.826	48.7423
0.82	49.1638
0.814	49.5565
0.808	49.9404
0.802	50.252
0.796	50.4783
0.79	50.6863
0.784	50.844
0.778	50.9738
0.772	51.0496
0.766	51.1002
0.76	51.0957
0.754	51.0434
0.748	50.9589
0.742	50.8095
0.736	50.6633
0.73	50.4679
0.724	50.235
0.718	49.9911
0.712	49.6775
0.706	49.3647
0.7	48.9872
0.694	48.6233
0.688	48.2096
0.682	47.767
0.676	47.2955
0.67	46.8033
0.664	46.2565
0.658	45.6965
0.652	45.1201
0.646	44.5056
0.64	43.8673
0.634	43.1902
0.628	42.4752
0.622	41.7148
0.616	40.9166
0.61	40.0699
0.604	39.161
0.598	38.218
0.592	37.2273
0.586	36.1503
0.58	35.0485
0.574	33.9087
0.568	32.7218
0.562	31.5623
0.556	30.3153
0.55	29.0749
0.544	27.829
0.538	26.5878
0.532	25.371
0.526	24.1861
0.52	23.0659
0.514	22.0189
0.508	21.0513
0.502	20.1597
0.496	19.3163
0.49	18.4759
0.484	17.709
0.478	17.147
0.472	16.5378
0.466	15.9173
0.46	15.268
0.454	14.5558
0.448	13.8265
0.442	13.0893
0.436	12.3879
0.43	11.7002
0.424	11.0623
0.418	10.4655
0.412	9.9001
0.406	9.3746
0.4	8.8691
