Name: Strontianite SrCO_3
Type: Mineral
Class: Carbonate
Subclass: None
Particle Size: Fine
Sample No.: C-1A
Owner: JPL
Wavelength Range: TIR
Origin: Germany, Westphalia, Hamm
Description: Particle size was 0-45um.Collected by Ward's Original ASTER Spectral Library name was jpl.nicolet.mineral.carbonate.none.fine.c01a.spectrum.txt
Measurement: Hemispherical reflectance
X Units: Wavelength (micrometers)
Y Units: Reflectance (percent)
wavelength	value
15.3853	54.4589
15.1161	55.3215
14.8563	54.7178
14.6052	46.1735
14.3624	7.9197
14.1276	3.496
13.9004	42.3271
13.6803	54.3471
13.4671	57.5803
13.2604	58.3531
13.06	57.158
12.8656	50.9506
12.6769	49.6767
12.4936	44.9502
12.3155	48.9642
12.1425	49.3523
11.9742	39.8297
11.8106	17.5382
11.6513	8.2908
11.4963	20.1324
11.3454	26.9019
11.1983	31.3666
11.0551	36.3539
10.9154	39.3749
10.7793	40.9034
10.6465	40.9513
10.5169	43.027
10.3904	43.1688
10.267	44.1428
10.1464	44.9032
10.0287	43.5499
9.9136	41.544
9.8012	40.0692
9.6913	38.6212
9.5838	37.4283
9.4787	36.3671
9.3758	26.7351
9.2752	31.8001
9.1767	37.2827
9.0803	36.951
8.9858	35.9545
8.8934	34.1813
8.8028	31.3089
8.714	28.4109
8.627	27.3115
8.5417	29.736
8.4581	31.2071
8.3761	30.3305
8.2957	33.5536
8.2169	34.3295
8.1395	33.8121
8.0635	31.5349
7.989	28.2639
7.9158	28.309
7.8439	26.5181
7.7734	24.5688
7.7041	22.8312
7.636	21.9168
7.5691	19.5562
7.5034	18.7198
7.4388	19.3501
7.3753	19.3154
7.3129	18.4806
7.2515	14.9351
7.1912	12.4791
7.1318	8.9281
7.0734	8.5304
7.016	7.3446
6.9595	8.4011
6.9039	10.5296
6.8492	10.8574
6.7953	10.9405
6.7423	11.226
6.6901	11.6577
6.6387	12.2301
6.5881	12.3221
6.5382	12.3855
6.4892	12.1292
6.4408	10.4517
6.3931	8.7906
6.3462	6.1903
6.2999	3.9342
6.2543	3.113
6.2094	2.87
6.1651	3.4318
6.1214	4.1922
6.0784	5.2885
6.0359	7.0209
5.994	8.3472
5.9527	9.5041
5.912	11.7727
5.8718	15.4827
5.8322	19.6874
5.7931	23.8123
5.7545	27.2102
5.7165	32.8153
5.6789	15.6363
5.6418	3.2859
5.6052	12.6249
5.5691	48.7506
5.5334	57.4296
5.4982	61.7617
5.4635	64.8445
5.4291	66.6246
5.3952	67.6613
5.3618	68.4467
5.3287	69.7033
5.2961	71.4162
5.2638	72.7818
5.2319	73.9308
5.2004	74.2803
5.1693	74.5504
5.1386	75.1332
5.1082	76.0466
5.0782	77.6039
5.0485	78.4544
5.0192	79.1333
4.9902	79.5864
4.9616	80.2743
4.9332	80.5957
4.9052	81.2621
4.8776	82.3518
4.8502	82.7082
4.8231	82.1427
4.7963	79.1519
4.7699	71.2666
4.7437	62.5308
4.7178	57.2259
4.6922	53.1698
4.6668	58.6462
4.6418	63.6179
4.617	67.8244
4.5924	70.7602
4.5681	72.9929
4.5441	74.7252
4.5203	74.9575
4.4968	74.6112
4.4735	75.3571
4.4505	77.3656
4.4277	78.6889
4.4051	79.0784
4.3828	77.627
4.3607	72.4048
4.3388	69.078
4.3171	67.8522
4.2956	70.1171
4.2744	72.4349
4.2534	72.6967
4.2325	72.4639
4.2119	71.2549
4.1915	68.8947
4.1712	67.4945
4.1512	68.4311
4.1313	67.9234
4.1117	65.2539
4.0922	56.2118
4.0729	40.2804
4.0538	20.9833
4.0349	13.7545
4.0161	10.3463
3.9976	12.4646
3.9792	15.1743
3.9609	19.4379
3.9428	26.0897
3.9249	29.6331
3.9072	33.4275
3.8896	34.7942
3.8722	33.7095
3.8549	33.4851
3.8378	35.515
3.8208	44.4791
3.804	58.114
3.7873	67.0187
3.7708	70.0016
3.7544	71.3458
3.7382	72.317
3.7221	73.3456
3.7061	74.1968
3.6903	74.648
3.6746	74.8608
3.659	74.887
3.6436	74.4934
3.6283	73.7617
3.6131	73.1595
3.5981	71.6681
3.5832	68.702
3.5684	65.7096
3.5537	59.4763
3.5391	46.6847
3.5247	35.4437
3.5104	37.7616
3.4962	31.7331
3.4821	21.6642
3.4681	19.2174
3.4543	23.9823
3.4405	27.9933
3.4269	29.066
3.4133	27.504
3.3999	26.5417
3.3866	29.1006
3.3733	36.2497
3.3602	44.6595
3.3472	51.8862
3.3343	57.6996
3.3215	62.515
3.3088	64.9723
3.2961	66.5691
3.2836	67.4152
3.2712	68.3471
3.2588	68.7506
3.2466	69.2587
3.2345	69.7843
3.2224	70.1234
3.2104	70.3349
3.1985	70.5937
3.1867	70.4625
3.175	69.7491
3.1634	68.4268
3.1519	66.8676
3.1404	66.13
3.129	66.2163
3.1178	67.6587
3.1065	68.3562
3.0954	69.1778
3.0844	69.2347
3.0734	69.5786
3.0625	69.6045
3.0517	69.6156
3.041	69.4914
3.0303	69.3188
3.0197	69.4032
3.0092	69.4942
2.9987	69.3845
2.9884	69.3108
2.9781	69.4242
2.9678	69.187
2.9577	69.1691
2.9476	69.1874
2.9376	69.2682
2.9276	69.4185
2.9177	69.5604
2.9079	69.9042
2.8982	70.1134
2.8885	70.4422
2.8789	70.6967
2.8693	71.0129
2.8598	71.2612
2.8504	71.1891
2.841	70.1673
2.8317	68.4382
2.8224	67.2959
2.8133	67.2632
2.8041	70.4675
2.7951	71.947
2.786	73.4866
2.7771	73.7599
2.7682	74.3172
2.7594	74.0538
2.7506	74.9392
2.7418	76.7539
2.7332	77.9395
2.7246	80.9191
2.716	83.3002
2.7075	85.9599
2.699	87.6193
2.6906	89.1989
2.6823	90.2183
2.674	90.7678
2.6657	91.9695
2.6575	90.9729
2.6494	90.9761
2.6413	91.1062
2.6332	91.3622
2.6252	91.1996
2.6173	91.5663
2.6094	90.9969
2.6015	89.871
2.5937	89.6165
2.5859	86.8354
2.5782	84.0659
2.5706	81.2313
2.5629	78.4145
2.5554	76.1838
2.5478	76.8657
2.5403	77.7506
2.5329	79.6232
2.5255	81.3428
2.5181	82.5153
2.5108	83.2634
2.5035	83.7723
2.4963	84.1346
2.4891	84.522
2.482	85.4438
2.4749	86.6816
2.4678	87.9595
2.4608	88.9148
2.4538	89.7462
2.4468	90.0321
2.4399	90.4231
2.4331	90.639
2.4262	90.9051
2.4194	90.9422
2.4127	91.1744
2.4059	91.2091
2.3993	91.145
2.3926	90.9484
2.386	90.275
2.3795	89.2258
2.3729	87.9128
2.3664	86.4237
2.36	85.2851
2.3535	84.1062
2.3471	83.2857
2.3408	83.9503
2.3345	85.1434
2.3282	85.9671
2.3219	86.8031
2.3157	87.2408
2.3095	87.6696
2.3034	88.1208
2.2972	88.4839
2.2911	88.7514
2.2851	89.4066
2.279	89.6743
2.2731	90.0578
2.2671	90.5767
2.2612	90.772
2.2553	91.1895
2.2494	91.4164
2.2435	91.5891
2.2377	91.9519
2.232	92.0479
2.2262	92.1318
2.2205	92.2552
2.2148	92.4365
2.2091	92.6297
2.2035	92.8921
2.1979	92.5302
2.1923	92.6131
2.1868	92.5224
2.1812	92.3695
2.1758	92.2958
2.1703	92.4929
2.1649	92.6801
2.1595	93.0263
2.1541	93.1017
2.1487	93.1761
2.1434	93.5
2.1381	93.2203
2.1328	93.3184
2.1275	93.2417
2.1223	93.6167
2.1171	93.4703
2.112	93.5615
2.1068	93.4787
2.1017	93.8576
2.0966	93.5637
2.0915	93.7648
2.0865	93.4519
2.0814	93.413
2.0764	93.3792
2.0715	93.7277
2.0665	93.8265
2.0616	93.3245
2.0567	93.6728
2.0518	93.6421
2.0469	93.4253
2.0421	93.6832
2.0373	93.4025
2.0325	93.0898
2.0277	93.2909
2.0229	92.9769
2.0182	92.6084
2.0135	92.4247
2.0088	92.8519
2.0042	92.9072
