Name: Almandine Garnet Fe_3Al_2(SiO_4)_3
Type: Mineral
Class: Silicate
Subclass: Nesosilicate
Particle Size: Fine
Sample No.: NS-4A
Owner: JPL
Wavelength Range: TIR
Origin: USA, Arizona, Graham County, Stanley Butte
Description: Particle size was 0-45um.Collected by Burminco Original ASTER Spectral Library name was jpl.nicolet.mineral.silicate.nesosilicate.fine.ns04a.spectrum.txt
Measurement: Hemispherical reflectance
X Units: Wavelength (micrometers)
Y Units: Reflectance (percent)
wavelength	value
15.3853	3.3248
15.1161	5.2091
14.8563	7.2116
14.6052	8.3745
14.3624	9.779
14.1276	10.8436
13.9004	11.3316
13.6803	11.6275
13.4671	11.796
13.2604	11.5245
13.06	11.9904
12.8656	12.4693
12.6769	11.9451
12.4936	11.3193
12.3155	10.3831
12.1425	9.8159
11.9742	9.1682
11.8106	8.931
11.6513	10.3067
11.4963	12.53
11.3454	10.5431
11.1983	10.6345
11.0551	13.3555
10.9154	11.3424
10.7793	6.2737
10.6465	3.6418
10.5169	6.2853
10.3904	12.2836
10.267	15.4544
10.1464	15.9788
10.0287	15.6398
9.9136	14.7768
9.8012	14.639
9.6913	13.8785
9.5838	10.8668
9.4787	8.3478
9.3758	6.5384
9.2752	5.4977
9.1767	5.0391
9.0803	4.9309
8.9858	5.0856
8.8934	5.5091
8.8028	5.7818
8.714	6.19
8.627	6.8765
8.5417	7.2962
8.4581	8.2264
8.3761	9.0323
8.2957	10.2646
8.2169	11.491
8.1395	12.2444
8.0635	13.4506
7.989	14.4631
7.9158	15.3852
7.8439	16.5267
7.7734	17.4351
7.7041	18.1139
7.636	18.489
7.5691	18.7692
7.5034	18.7321
7.4388	18.9921
7.3753	18.8295
7.3129	18.6009
7.2515	18.2239
7.1912	18.2596
7.1318	18.5404
7.0734	19.1342
7.016	19.347
6.9595	19.3294
6.9039	18.4484
6.8492	18.3028
6.7953	18.6832
6.7423	18.7265
6.6901	19.5985
6.6387	21.6493
6.5881	22.5187
6.5382	23.9463
6.4892	26.5611
6.4408	26.6254
6.3931	27.4121
6.3462	28.8527
6.2999	28.431
6.2543	28.7139
6.2094	28.9864
6.1651	29.1291
6.1214	29.3286
6.0784	29.6632
6.0359	29.4855
5.994	29.9542
5.9527	29.5972
5.912	29.3285
5.8718	28.8303
5.8322	27.3718
5.7931	25.4655
5.7545	24.2324
5.7165	23.2658
5.6789	22.2678
5.6418	22.4145
5.6052	22.0354
5.5691	22.3053
5.5334	22.1033
5.4982	22.5779
5.4635	23.9943
5.4291	24.8665
5.3952	25.693
5.3618	26.4639
5.3287	26.7035
5.2961	26.9772
5.2638	27.3579
5.2319	28.0033
5.2004	28.7105
5.1693	29.4748
5.1386	30.3628
5.1082	31.3049
5.0782	32.356
5.0485	33.2752
5.0192	34.0224
4.9902	34.5242
4.9616	34.8656
4.9332	35.1729
4.9052	35.4255
4.8776	35.6114
4.8502	35.7455
4.8231	35.9814
4.7963	36.1812
4.7699	36.3059
4.7437	36.6131
4.7178	36.7504
4.6922	36.7499
4.6668	37.0467
4.6418	37.0257
4.617	37.3338
4.5924	37.4192
4.5681	37.4984
4.5441	37.6598
4.5203	37.7624
4.4968	37.9139
4.4735	38.0228
4.4505	38.1144
4.4277	38.1736
4.4051	38.3676
4.3828	38.3063
4.3607	38.5714
4.3388	38.563
4.3171	38.7143
4.2956	38.8491
4.2744	38.9689
4.2534	38.9716
4.2325	39.0557
4.2119	39.2174
4.1915	39.2465
4.1712	39.311
4.1512	39.3379
4.1313	39.5039
4.1117	39.6338
4.0922	39.5718
4.0729	39.7755
4.0538	39.7799
4.0349	39.7134
4.0161	39.5967
3.9976	39.3774
3.9792	38.843
3.9609	38.6898
3.9428	38.8621
3.9249	39.1215
3.9072	39.4064
3.8896	39.5703
3.8722	39.7408
3.8549	39.9462
3.8378	40.0777
3.8208	39.8932
3.804	39.8889
3.7873	40.0488
3.7708	40.1696
3.7544	40.3606
3.7382	40.4923
3.7221	40.4699
3.7061	40.5157
3.6903	40.6026
3.6746	40.6262
3.659	40.6232
3.6436	40.5818
3.6283	40.6527
3.6131	40.6901
3.5981	40.5787
3.5832	40.6176
3.5684	40.6114
3.5537	40.6468
3.5391	40.5279
3.5247	40.3317
3.5104	40.2205
3.4962	39.9896
3.4821	39.7587
3.4681	39.6026
3.4543	39.4529
3.4405	39.658
3.4269	39.7179
3.4133	39.6547
3.3999	39.7605
3.3866	39.6051
3.3733	39.5651
3.3602	39.4266
3.3472	39.3447
3.3343	39.3672
3.3215	39.1723
3.3088	39.1705
3.2961	39.3511
3.2836	39.3885
3.2712	39.2109
3.2588	39.3046
3.2466	39.0248
3.2345	38.8287
3.2224	38.7405
3.2104	38.6465
3.1985	38.6458
3.1867	38.3725
3.175	38.2308
3.1634	38.1534
3.1519	38.0213
3.1404	37.7829
3.129	37.6008
3.1178	37.5372
3.1065	37.2592
3.0954	37.1669
3.0844	37.0892
3.0734	36.882
3.0625	36.8045
3.0517	36.6985
3.041	36.4795
3.0303	36.4466
3.0197	36.1617
3.0092	35.9592
2.9987	35.9277
2.9884	35.5693
2.9781	35.3155
2.9678	35.1608
2.9577	35.1188
2.9476	34.9802
2.9376	34.7928
2.9276	34.7177
2.9177	34.6372
2.9079	34.5411
2.8982	34.374
2.8885	34.3488
2.8789	34.2978
2.8693	34.1244
2.8598	34.073
2.8504	33.912
2.841	34.0088
2.8317	33.767
2.8224	33.64
2.8133	33.4558
2.8041	33.8509
2.7951	33.3701
2.786	33.7065
2.7771	33.3647
2.7682	33.7272
2.7594	33.2855
2.7506	33.6232
2.7418	34.6594
2.7332	34.8262
2.7246	36.649
2.716	37.6482
2.7075	39.3528
2.699	40.4141
2.6906	40.7667
2.6823	41.2873
2.674	41.5163
2.6657	42.7431
2.6575	41.2359
2.6494	41.1853
2.6413	41.1413
2.6332	41.4091
2.6252	41.3779
2.6173	41.9145
2.6094	41.2944
2.6015	41.2268
2.5937	42.3628
2.5859	41.1698
2.5782	40.8397
2.5706	40.9771
2.5629	41.3289
2.5554	40.5405
2.5478	40.5533
2.5403	40.4639
2.5329	40.4635
2.5255	40.3606
2.5181	40.3003
2.5108	40.3035
2.5035	40.3468
2.4963	40.1672
2.4891	40.2902
2.482	39.9711
2.4749	40.1892
2.4678	40.1143
2.4608	39.8824
2.4538	40.0514
2.4468	40.0968
2.4399	39.9673
2.4331	39.8874
2.4262	39.8942
2.4194	39.7013
2.4127	39.7805
2.4059	39.8499
2.3993	39.6158
2.3926	39.6853
2.386	39.7649
2.3795	39.6164
2.3729	39.6618
2.3664	39.4889
2.36	39.5646
2.3535	39.5977
2.3471	39.4577
2.3408	39.4776
2.3345	39.566
2.3282	39.6306
2.3219	39.4185
2.3157	39.6156
2.3095	39.549
2.3034	39.5627
2.2972	39.4651
2.2911	39.5945
2.2851	39.5879
2.279	39.6481
2.2731	39.5529
2.2671	39.7755
2.2612	39.6948
2.2553	39.4599
2.2494	39.4977
2.2435	39.794
2.2377	39.5265
2.232	39.565
2.2262	39.5565
2.2205	39.6018
2.2148	39.6071
2.2091	39.7325
2.2035	39.5451
2.1979	39.5976
2.1923	39.5449
2.1868	39.6229
2.1812	39.7742
2.1758	39.8993
2.1703	39.8158
2.1649	39.7107
2.1595	39.7343
2.1541	39.8968
2.1487	39.8341
2.1434	39.9152
2.1381	39.9243
2.1328	40.1912
2.1275	39.6394
2.1223	39.5911
2.1171	39.7964
2.112	40.0169
2.1068	40.0108
2.1017	39.8074
2.0966	40.1424
2.0915	39.9876
2.0865	40.1402
2.0814	40.1586
2.0764	39.9414
2.0715	40.3455
2.0665	39.9917
2.0616	40.2741
2.0567	40.2408
2.0518	39.9565
2.0469	39.9934
2.0421	40.1839
2.0373	39.8333
2.0325	39.7647
2.0277	40.0083
2.0229	40.3075
2.0182	39.5506
2.0135	40.3769
2.0088	40.0343
2.0042	39.9119
