Name: Microcline KAlSi3O8
Type: Mineral
Class: Silicate
Subclass: Tectosilicate
Particle Size: Fine
Sample No.: micro_1
Owner: JHU
Wavelength Range: TIR
Origin: Park County, Colorado via the Smithsonian (sample no. NMNH135231)
Description: Sample was a 19.5 g fragment, light green in color. A slight amount of surface contamination was removed by brushing and ultrasonic cleaning. White material filled one thin (0.5 mm) vein cutting across one corner and was removed by hand-picking the crushed sample. Sample was not obviously perthitic.  Under the microscope it appeared pure, displaying little perthite or alteration. Particle size was Less than 2 micrometers.(Framework Silicates); (Feldspar Group) Original ASTER Spectral Library name was jhu.nicolet.mineral.silicate.tectosilicate.powder.micro1.spectrum.txt
Measurement: Transmission
X Units: Wavelength (micrometers)
Y Units: Transmittance (percent)
wavelength	value
25.0442	55.4159
24.3388	43.3554
23.6719	27.0585
23.0407	30.0741
22.4422	39.5204
21.8741	56.4862
21.334	57.1473
20.8199	71.1483
20.33	80.8142
19.8627	81.7752
19.4163	79.0686
18.9896	67.6917
18.5812	52.4164
18.19	66.5648
17.815	58.6903
17.4551	43.0521
17.1094	35.1689
16.7772	46.6049
16.4576	48.9813
16.15	70.2986
15.8537	76.4061
15.568	65.3524
15.2925	64.4549
15.0265	80.6885
14.7697	83.656
14.5214	83.1892
14.2814	79.7254
14.0492	70.4346
13.8244	53.3558
13.6067	58.4532
13.3957	68.659
13.1912	65.1893
12.9929	54.0438
12.8004	63.796
12.6135	77.9993
12.432	86.2239
12.2557	87.0391
12.0843	86.1621
11.9176	84.3758
11.7555	81.8113
11.5977	78.7278
11.444	75.1858
11.2944	71.7029
11.1487	67.7747
11.0067	63.3162
10.8682	58.3724
10.7332	52.7689
10.6015	46.2872
10.473	38.8119
10.3476	30.7704
10.2251	21.9628
10.1056	13.4399
9.9887	8.374
9.8746	6.897
9.763	9.0669
9.6539	10.8193
9.5472	10.8452
9.4429	12.5827
9.3408	16.4187
9.2409	17.8806
9.1431	18.3559
9.0474	19.7019
8.9536	19.8791
8.8618	18.8696
8.7718	15.5991
8.6837	18.832
8.5973	25.4243
8.5126	32.5678
8.4295	39.7685
8.3481	46.1749
8.2682	51.3939
8.1898	55.4247
8.1129	58.6466
8.0374	61.3177
7.9634	63.8763
7.8906	65.7933
7.8192	67.451
7.7491	68.97
7.6802	70.1312
7.6126	71.3792
7.5461	72.4134
7.4807	73.3694
7.4165	74.2093
7.3534	74.8853
7.2914	75.6705
7.2303	76.3189
7.1703	77.3912
7.1113	78.2249
7.0533	78.6468
6.9962	79.1951
6.94	79.885
6.8847	80.2183
6.8302	80.479
6.7767	80.7857
6.7239	81.1846
6.672	81.6429
6.6209	81.9973
6.5705	82.4446
6.5209	82.7141
6.4721	83.0323
6.424	83.1907
6.3766	83.4024
6.3299	83.4737
6.2838	83.6267
6.2385	83.7586
6.1937	83.888
6.1496	83.6866
6.1062	83.7615
6.0633	84.1695
6.0211	85.1206
5.9794	85.9563
5.9383	85.6106
5.8978	85.429
5.8578	85.5857
5.8184	85.7605
5.7794	85.7439
5.741	85.8538
5.7031	85.8601
5.6657	85.7747
5.6288	85.7339
5.5924	86.0022
5.5564	86.1111
5.5209	86.3792
5.4859	86.6912
5.4513	86.8157
5.4171	86.9768
5.3833	87.0755
5.35	87.2075
5.3171	87.4182
5.2846	87.5474
5.2524	87.6643
5.2207	87.7268
5.1893	87.9885
5.1584	88.177
5.1277	88.2591
5.0975	88.4778
5.0676	88.6101
5.038	88.7122
5.0088	88.784
4.98	88.8845
4.9514	88.9646
4.9232	88.9329
4.8953	89.0144
4.8678	89.0364
4.8405	89.0779
4.8135	89.0984
4.7868	89.1326
4.7605	89.1626
4.7344	89.2014
4.7086	89.1609
4.6831	89.1975
4.6578	89.2151
4.6328	89.2644
4.6081	89.5086
4.5837	89.4207
4.5595	89.4207
4.5356	89.5012
4.5119	89.4983
4.4884	89.5613
4.4652	89.5886
4.4423	89.5925
4.4196	89.6946
4.3971	89.7122
4.3748	89.7405
4.3528	89.7522
4.331	89.7825
4.3094	89.7366
4.288	89.8128
4.2668	89.8098
4.2458	89.846
4.2251	89.8311
4.2045	89.8506
4.1841	89.8196
4.164	89.8247
4.144	89.8064
4.1242	89.8506
4.1046	89.7876
4.0852	89.8425
4.066	89.7544
4.047	89.7937
4.0281	89.7354
4.0094	89.7693
3.9909	89.6873
3.9725	89.6802
3.9544	89.6729
3.9363	89.761
3.9185	89.7366
3.9008	89.7305
3.8833	89.6121
3.8659	89.5745
3.8487	89.5513
3.8316	89.6035
3.8147	89.5921
3.7979	89.583
3.7813	89.4942
3.7648	89.4851
3.7485	89.4602
3.7323	89.4407
3.7162	89.3601
3.7003	89.291
3.6845	89.3347
3.6689	89.1809
3.6534	89.1824
3.638	89.1743
3.6227	89.0562
3.6076	88.9905
3.5926	89.0083
3.5777	89.0271
3.563	88.9055
3.5484	88.76
3.5338	88.7722
3.5195	88.6406
3.5052	88.5974
3.491	88.417
3.477	88.2412
3.463	88.1853
3.4492	88.0037
3.4355	88.0969
3.4219	88.0349
3.4084	87.9016
3.395	87.8816
3.3817	87.9539
3.3685	88.0117
3.3554	87.7674
3.3425	87.8565
3.3296	87.93
3.3168	87.8884
3.3041	87.8955
3.2915	87.916
3.279	87.7832
3.2666	87.7168
3.2543	87.584
3.2421	87.6096
3.23	87.5672
3.218	87.4314
3.206	87.3438
3.1942	87.2166
3.1824	87.1514
3.1707	87.0105
3.1591	86.8426
3.1476	86.7451
3.1362	86.5274
3.1249	86.4534
3.1136	86.1883
3.1024	85.99
3.0913	85.6348
3.0803	85.4619
3.0694	85.3106
3.0585	85.0108
3.0477	84.8396
3.037	84.6719
3.0264	84.5537
3.0158	84.322
3.0053	84.0782
2.9949	83.739
2.9845	83.4588
2.9743	83.0906
2.9641	82.6341
2.9539	82.3391
2.9439	82.1199
2.9339	81.8572
2.9239	81.7488
2.9141	81.6912
2.9043	81.6868
2.8946	81.7444
2.8849	81.7019
2.8753	81.6775
2.8658	81.719
2.8563	81.8069
2.8469	81.8562
2.8375	82.1507
2.8282	82.3343
2.819	82.6238
2.8098	83.0042
2.8007	83.1824
2.7917	83.3772
2.7827	83.6429
2.7738	83.8992
2.7649	84.135
2.7561	84.4568
2.7473	84.7429
2.7386	84.8621
2.7299	84.8074
2.7213	84.7898
2.7128	84.8992
2.7043	85.0506
2.6959	85.1453
2.6875	85.1433
2.6791	85.1931
2.6709	85.0935
2.6626	84.9773
2.6545	84.949
2.6463	84.8416
2.6382	84.8963
2.6302	84.8269
2.6222	84.7659
2.6143	84.7405
2.6064	84.5408
2.5986	84.5594
2.5908	84.5574
2.583	84.7112
2.5753	84.3611
2.5677	84.2639
2.5601	84.2386
2.5525	84.2073
2.545	84.074
2.5375	84.1853
2.5301	84.0315
2.5227	83.8631
2.5154	83.8245
2.5081	83.9593
2.5008	83.76
2.4936	83.5642
2.4864	83.6487
2.4793	83.5496
2.4722	83.4939
2.4651	83.5418
2.4581	83.3289
2.4511	83.2742
2.4442	83.3211
2.4373	83.1638
2.4305	82.9978
2.4236	83.034
2.4169	83.0613
2.4101	82.9978
2.4034	82.7117
2.3967	82.8416
2.3901	82.6492
2.3835	82.6111
2.377	82.574
2.3704	82.6258
2.364	82.3621
2.3575	82.2849
2.3511	82.5154
2.3447	82.449
2.3384	82.1385
2.3321	82.0994
2.3258	82.1521
2.3195	82.156
2.3133	81.8367
2.3071	81.9617
2.301	81.9724
2.2949	81.865
2.2888	81.7576
2.2828	81.6482
2.2767	81.6131
2.2708	81.8279
2.2648	81.7312
2.2589	81.5476
2.253	81.4812
2.2471	81.5008
2.2413	81.3572
2.2355	81.4803
2.2297	81.4178
2.224	81.3836
2.2183	81.3592
2.2126	81.1795
2.207	81.2039
2.2013	81.325
2.1957	81.0818
2.1902	81.1756
2.1846	81.3416
2.1791	80.9969
2.1736	80.9539
2.1682	81.0047
2.1628	81.1248
2.1574	81.0476
2.152	80.8357
2.1466	80.9031
2.1413	80.7078
2.136	80.8016
2.1308	80.9373
2.1255	81.1014
2.1203	81.1482
2.1151	80.8826
2.11	81.0164
2.1048	80.8484
2.0997	81.0633
2.0946	81.4422
2.0895	80.9568
2.0845	81.0857
2.0795	81.1599
