Name: Scorodite Fe^3+AsO_4.2H_2O
Type: Mineral
Class: Arsenate
Subclass: None
Particle Size: Coarse
Sample No.: A-2A
Owner: JPL
Wavelength Range: TIR
Origin: USA, Utah, Tooele County, Gold Hill
Description: Particle size was 125-500um.Collected by Ward's Original ASTER Spectral Library name was jpl.nicolet.mineral.arsenate.none.coarse.a02a.spectrum.txt
Measurement: Hemispherical reflectance
X Units: Wavelength (micrometers)
Y Units: Reflectance (percent)
wavelength	value
15.3853	3.1898
15.1161	3.4322
14.8563	3.4222
14.6052	4.3705
14.3624	4.6621
14.1276	4.9215
13.9004	5.2718
13.6803	5.3222
13.4671	5.2738
13.2604	6.0252
13.06	7.2877
12.8656	9.2156
12.6769	12.3911
12.4936	19.2094
12.3155	22.3513
12.1425	24.3173
11.9742	25.0696
11.8106	22.3665
11.6513	20.096
11.4963	15.6073
11.3454	10.8611
11.1983	7.5085
11.0551	6.0991
10.9154	5.7411
10.7793	3.8313
10.6465	1.9365
10.5169	0.7409
10.3904	0.3956
10.267	0.3026
10.1464	0.6016
10.0287	0.6195
9.9136	0.749
9.8012	0.8454
9.6913	0.8043
9.5838	1.0912
9.4787	1.2242
9.3758	1.626
9.2752	1.8036
9.1767	1.8379
9.0803	1.785
8.9858	1.8644
8.8934	1.9299
8.8028	1.7119
8.714	1.8009
8.627	1.7775
8.5417	2.1104
8.4581	1.9419
8.3761	2.2522
8.2957	2.1276
8.2169	2.3725
8.1395	2.1378
8.0635	1.9495
7.989	1.9306
7.9158	1.7259
7.8439	1.8587
7.7734	1.8446
7.7041	1.8701
7.636	1.9108
7.5691	1.8293
7.5034	1.9284
7.4388	2.1226
7.3753	1.9218
7.3129	1.9951
7.2515	1.9533
7.1912	2.0244
7.1318	2.0632
7.0734	2.0906
7.016	2.0665
6.9595	2.1336
6.9039	2.1109
6.8492	2.0636
6.7953	2.1433
6.7423	2.0126
6.6901	2.1506
6.6387	2.1766
6.5881	2.1779
6.5382	2.1542
6.4892	2.2363
6.4408	2.1628
6.3931	2.1792
6.3462	2.1057
6.2999	2.0739
6.2543	1.9871
6.2094	2.0204
6.1651	2.0299
6.1214	1.9736
6.0784	2.1546
6.0359	2.1656
5.994	2.1026
5.9527	2.0305
5.912	2.189
5.8718	2.1069
5.8322	2.2181
5.7931	2.2228
5.7545	2.2182
5.7165	2.2471
5.6789	2.1625
5.6418	2.2643
5.6052	2.3206
5.5691	2.3202
5.5334	2.3653
5.4982	2.4117
5.4635	2.3994
5.4291	2.3827
5.3952	2.5495
5.3618	2.4426
5.3287	2.5125
5.2961	2.5109
5.2638	2.4864
5.2319	2.5111
5.2004	2.4704
5.1693	2.4756
5.1386	2.6292
5.1082	2.5746
5.0782	2.5114
5.0485	2.4704
5.0192	2.5351
4.9902	2.4942
4.9616	2.5048
4.9332	2.6172
4.9052	2.4297
4.8776	2.6017
4.8502	2.5702
4.8231	2.595
4.7963	2.5997
4.7699	2.5921
4.7437	2.6323
4.7178	2.5925
4.6922	2.5849
4.6668	2.609
4.6418	2.5612
4.617	2.6611
4.5924	2.6042
4.5681	2.5856
4.5441	2.568
4.5203	2.5415
4.4968	2.6004
4.4735	2.5371
4.4505	2.6254
4.4277	2.5969
4.4051	2.4954
4.3828	2.6525
4.3607	2.5978
4.3388	2.5598
4.3171	2.6292
4.2956	2.7253
4.2744	2.6111
4.2534	2.7281
4.2325	2.7645
4.2119	2.6454
4.1915	2.623
4.1712	2.6596
4.1512	2.6213
4.1313	2.7211
4.1117	2.7111
4.0922	2.6294
4.0729	2.7323
4.0538	2.6902
4.0349	2.7423
4.0161	2.6547
3.9976	2.5572
3.9792	2.7885
3.9609	2.7687
3.9428	2.697
3.9249	2.6476
3.9072	2.8643
3.8896	2.6058
3.8722	2.7056
3.8549	2.7284
3.8378	2.8211
3.8208	2.669
3.804	2.7483
3.7873	2.8364
3.7708	2.7209
3.7544	2.7628
3.7382	2.8068
3.7221	2.8735
3.7061	2.9248
3.6903	2.7934
3.6746	2.7055
3.659	2.7667
3.6436	2.7438
3.6283	2.8191
3.6131	2.7412
3.5981	2.7524
3.5832	2.7261
3.5684	2.8826
3.5537	2.8893
3.5391	2.7516
3.5247	2.8456
3.5104	2.9391
3.4962	2.9845
3.4821	2.7626
3.4681	2.9261
3.4543	2.9995
3.4405	2.9649
3.4269	3.0252
3.4133	3.0226
3.3999	3.0006
3.3866	3.076
3.3733	2.9581
3.3602	2.8685
3.3472	2.7413
3.3343	2.7751
3.3215	2.6759
3.3088	2.7129
3.2961	2.5711
3.2836	2.527
3.2712	2.4274
3.2588	2.4047
3.2466	2.3529
3.2345	2.2754
3.2224	2.1641
3.2104	2.2341
3.1985	2.2239
3.1867	2.0065
3.175	2.0746
3.1634	1.9325
3.1519	1.9694
3.1404	2.0941
3.129	1.9366
3.1178	2.0309
3.1065	2.0347
3.0954	1.8026
3.0844	1.8907
3.0734	1.8226
3.0625	1.9045
3.0517	1.9208
3.041	1.5959
3.0303	1.8775
3.0197	1.9663
3.0092	1.9808
2.9987	1.6969
2.9884	2.007
2.9781	1.8991
2.9678	1.9224
2.9577	2.0612
2.9476	2.0668
2.9376	2.065
2.9276	2.0472
2.9177	2.1037
2.9079	2.0041
2.8982	2.0096
2.8885	2.2594
2.8789	2.231
2.8693	2.3668
2.8598	2.3941
2.8504	2.7
2.841	2.3218
2.8317	1.3253
2.8224	1.8098
2.8133	1.8962
2.8041	1.7122
2.7951	1.9463
2.786	1.9806
2.7771	2.0926
2.7682	2.078
2.7594	2.3115
2.7506	2.3917
2.7418	2.4899
2.7332	2.5008
2.7246	2.8657
2.716	2.7123
2.7075	2.9337
2.699	2.9797
2.6906	3.09
2.6823	3.2746
2.674	3.517
2.6657	3.6376
2.6575	3.6691
2.6494	3.7513
2.6413	3.7894
2.6332	3.8249
2.6252	4.0548
2.6173	3.9727
2.6094	3.9459
2.6015	4.1598
2.5937	4.2125
2.5859	4.1811
2.5782	4.0943
2.5706	4.1038
2.5629	4.066
2.5554	4.0411
2.5478	3.9606
2.5403	3.9098
2.5329	3.7331
2.5255	3.8235
2.5181	3.9328
2.5108	3.8492
2.5035	4.3885
2.4963	4.565
2.4891	5.1062
2.482	5.5491
2.4749	5.8883
2.4678	6.4034
2.4608	6.5761
2.4538	7.1328
2.4468	7.2969
2.4399	7.5298
2.4331	7.9035
2.4262	7.9998
2.4194	8.4302
2.4127	8.6723
2.4059	8.871
2.3993	9.2891
2.3926	9.4491
2.386	9.5676
2.3795	9.9838
2.3729	10.1729
2.3664	10.3463
2.36	10.3446
2.3535	10.426
2.3471	10.1918
2.3408	10.1959
2.3345	10.0758
2.3282	9.9197
2.3219	10.3165
2.3157	10.7547
2.3095	11
2.3034	11.3735
2.2972	11.8576
2.2911	12.3952
2.2851	12.3953
2.279	12.5376
2.2731	12.8539
2.2671	12.6754
2.2612	12.6798
2.2553	12.778
2.2494	12.7024
2.2435	12.6605
2.2377	12.4769
2.232	12.3938
2.2262	11.9822
2.2205	11.9656
2.2148	11.8084
2.2091	11.511
2.2035	11.3961
2.1979	11.0079
2.1923	10.8717
2.1868	10.8745
2.1812	10.5828
2.1758	10.3065
2.1703	10.2593
2.1649	10.1378
2.1595	10.0342
2.1541	9.9332
2.1487	9.8784
2.1434	9.6431
2.1381	9.6659
2.1328	9.3107
2.1275	9.6465
2.1223	9.2356
2.1171	9.2742
2.112	9.3012
2.1068	9.1763
2.1017	9.1019
2.0966	9.155
2.0915	9.0993
2.0865	8.9858
2.0814	8.7446
2.0764	9.5004
2.0715	8.5199
2.0665	9.0055
2.0616	8.9217
2.0567	9.3571
2.0518	9.421
2.0469	9.4688
2.0421	9.1583
2.0373	9.2727
2.0325	9.3796
2.0277	9.5386
2.0229	9.1444
2.0182	9.206
2.0135	8.708
2.0088	8.3263
2.0042	8.2424
