Name: Andradite Ca3Fe2+3 (SiO4)3
Type: Mineral
Class: Silicate
Subclass: Nesosilicate
Particle Size: Solid
Sample No.: andradite_1
Owner: JHU
Wavelength Range: TIR
Origin: Sample from Rimpfischwange, Zermatt, Valais, Switzerland,via the Smithsonian (sample no. NMNH 113829).
Description: A cluster of subhedral green crystals, some coated with a soft, white contaminant which did not dissolve when treated with HCl. Sample was lightly crushed to free individual 3mm crystals, then hand-picked to assemble only clean, bright green crystals. Under the petrographic microscope, the sample appeared pure, clean and unaltered. A few grains had a light brownish tinge on some edges. (Isolated tetrahedra) (Garnet Group) Original ASTER Spectral Library name was jhu.nicolet.mineral.silicate.nesosilicate.solid.andrad1.spectrum.txt
Measurement: Bidirectional Reflectance
X Units: Wavelength (micrometers)
Y Units: Reflectance (percent)
wavelength	value
25.0442	42.2655
24.3388	34.6234
23.6719	7.457
23.0407	30.0746
22.4422	34.9062
21.8741	19.3374
21.334	6.8496
20.8199	18.633
20.33	7.2622
19.8627	17.4563
19.4163	30.0949
18.9896	28.2228
18.5812	8.0039
18.19	2.3603
17.815	3.9717
17.4551	5.2334
17.1094	6.2446
16.7772	5.7178
16.4576	6.5805
16.15	7.2251
15.8537	7.6704
15.568	8.0879
15.2925	8.5271
15.0265	9.0166
14.7697	9.3972
14.5214	9.957
14.2814	10.6115
14.0492	11.1836
13.8244	11.8781
13.6067	12.6028
13.3957	13.5183
13.1912	14.5835
12.9929	15.9648
12.8004	17.9809
12.6135	21.3764
12.432	28.455
12.2557	30.686
12.0843	32.5815
11.9176	36.8161
11.7555	30.0358
11.5977	11.8498
11.444	20.0441
11.2944	36.9162
11.1487	42.5465
11.0067	43.3124
10.8682	43.7067
10.7332	44.2702
10.6015	45.5404
10.473	46.2975
10.3476	45.4933
10.2251	43.6766
10.1056	40.7074
9.9887	33.8012
9.8746	20.7453
9.763	7.4604
9.6539	0.8213
9.5472	0.7764
9.4429	1.4407
9.3408	2.0276
9.2409	2.4939
9.1431	2.8787
9.0474	3.2566
8.9536	3.5713
8.8618	3.8152
8.7718	4.0342
8.6837	4.2204
8.5973	4.4106
8.5126	4.5754
8.4295	4.7156
8.3481	4.8664
8.2682	4.98
8.1898	5.1218
8.1129	5.2397
8.0374	5.3376
7.9634	5.449
7.8906	5.5337
7.8192	5.6369
7.7491	5.727
7.6802	5.8115
7.6126	5.8877
7.5461	5.9758
7.4807	6.0317
7.4165	6.1269
7.3534	6.207
7.2914	6.2595
7.2303	6.3442
7.1703	6.3772
7.1113	6.4446
7.0533	6.4756
6.9962	6.5688
6.94	6.6484
6.8847	6.7163
6.8302	6.7751
6.7767	6.7922
6.7239	6.8135
6.672	6.8945
6.6209	6.9958
6.5705	7.0263
6.5209	7.0578
6.4721	7.1521
6.424	7.1792
6.3766	7.2026
6.3299	7.3083
6.2838	7.345
6.2385	7.3808
6.1937	7.4026
6.1496	7.4338
6.1062	7.5095
6.0633	7.5398
6.0211	7.4626
5.9794	7.4543
5.9383	7.3061
5.8978	7.3498
5.8578	7.4057
5.8184	7.4053
5.7794	7.4331
5.741	7.4978
5.7031	7.5117
5.6657	7.4995
5.6288	7.5073
5.5924	7.5014
5.5564	7.5105
5.5209	7.5259
5.4859	7.5393
5.4513	7.5886
5.4171	7.6335
5.3833	7.6347
5.35	7.6631
5.3171	7.678
5.2846	7.7202
5.2524	7.7334
5.2207	7.727
5.1893	7.7649
5.1584	7.769
5.1277	7.7815
5.0975	7.8152
5.0676	7.8266
5.038	7.8435
5.0088	7.8721
4.98	7.8926
4.9514	7.9057
4.9232	7.9111
4.8953	7.9446
4.8678	7.9592
4.8405	7.9751
4.8135	7.9912
4.7868	8.0063
4.7605	8.0205
4.7344	8.0398
4.7086	8.0515
4.6831	8.062
4.6578	8.0737
4.6328	8.0835
4.6081	8.1159
4.5837	8.1084
4.5595	8.1181
4.5356	8.1216
4.5119	8.133
4.4884	8.1352
4.4652	8.1513
4.4423	8.1623
4.4196	8.1428
4.3971	8.1445
4.3748	8.1516
4.3528	8.0578
4.331	7.8825
4.3094	7.6538
4.288	7.4971
4.2668	7.4192
4.2458	7.2905
4.2251	7.3518
4.2045	7.8804
4.1841	8.1821
4.164	8.1924
4.144	8.2175
4.1242	8.2082
4.1046	8.2143
4.0852	8.1968
4.066	8.2258
4.047	8.2204
4.0281	8.2356
4.0094	8.2402
3.9909	8.2412
3.9725	8.2549
3.9544	8.2595
3.9363	8.2678
3.9185	8.2815
3.9008	8.2746
3.8833	8.2832
3.8659	8.2927
3.8487	8.2778
3.8316	8.3012
3.8147	8.3
3.7979	8.2961
3.7813	8.3254
3.7648	8.3149
3.7485	8.3293
3.7323	8.3174
3.7162	8.3391
3.7003	8.3357
3.6845	8.3254
3.6689	8.3298
3.6534	8.3186
3.638	8.3157
3.6227	8.3169
3.6076	8.3139
3.5926	8.303
3.5777	8.3108
3.563	8.3144
3.5484	8.3037
3.5338	8.3227
3.5195	8.3623
3.5052	8.4533
3.491	8.3789
3.477	8.3528
3.463	8.3777
3.4492	8.3955
3.4355	8.4372
3.4219	8.5664
3.4084	8.4797
3.395	8.3891
3.3817	8.3779
3.3685	8.3567
3.3554	8.3305
3.3425	8.3125
3.3296	8.3198
3.3168	8.3157
3.3041	8.3154
3.2915	8.334
3.279	8.3178
3.2666	8.3061
3.2543	8.3203
3.2421	8.3
3.23	8.3266
3.218	8.322
3.206	8.3293
3.1942	8.323
3.1824	8.3169
3.1707	8.3015
3.1591	8.2998
3.1476	8.32
3.1362	8.3088
3.1249	8.3008
3.1136	8.3086
3.1024	8.2854
3.0913	8.292
3.0803	8.2873
3.0694	8.2815
3.0585	8.2827
3.0477	8.279
3.037	8.2646
3.0264	8.2671
3.0158	8.2563
3.0053	8.2534
2.9949	8.2588
2.9845	8.2319
2.9743	8.2285
2.9641	8.1963
2.9539	8.1821
2.9439	8.1704
2.9339	8.1518
2.9239	8.1543
2.9141	8.126
2.9043	8.1396
2.8946	8.1264
2.8849	8.0971
2.8753	8.0635
2.8658	8.0959
2.8563	8.0456
2.8469	8.0268
2.8375	8.0295
2.8282	8.0241
2.819	8.0517
2.8098	7.9787
2.8007	8.0058
2.7917	7.8957
2.7827	7.9165
2.7738	7.8718
2.7649	7.9211
2.7561	7.893
2.7473	7.8633
2.7386	8.1523
2.7299	7.8943
2.7213	7.9555
2.7128	7.8852
2.7043	7.8926
2.6959	7.9309
2.6875	7.9573
2.6791	7.9599
2.6709	7.9609
2.6626	8.0024
2.6545	7.9736
2.6463	7.9961
2.6382	7.9807
2.6302	8.1865
2.6222	7.9563
2.6143	8.0012
2.6064	8.063
2.5986	7.8882
2.5908	7.9123
2.583	8.0888
2.5753	7.9853
2.5677	7.97
2.5601	8.0137
2.5525	7.9319
2.545	7.9057
2.5375	7.9053
2.5301	7.9241
2.5227	7.8948
2.5154	7.8789
2.5081	7.9006
2.5008	7.8782
2.4936	7.9233
2.4864	7.8935
2.4793	7.8694
2.4722	7.883
2.4651	7.9004
2.4581	7.9053
2.4511	7.8921
2.4442	7.8655
2.4373	7.8613
2.4305	7.8498
2.4236	7.8186
2.4169	7.8215
2.4101	7.8388
2.4034	7.8374
2.3967	7.7959
2.3901	7.8252
2.3835	7.8056
2.377	7.8384
2.3704	7.8086
2.364	7.8164
2.3575	7.8164
2.3511	7.8247
2.3447	7.8325
2.3384	7.7993
2.3321	7.7803
2.3258	7.8281
2.3195	7.7842
2.3133	7.7641
2.3071	7.7627
2.301	7.7539
2.2949	7.7471
2.2888	7.7583
2.2828	7.7602
2.2767	7.7329
2.2708	7.7563
2.2648	7.7446
2.2589	7.7446
2.253	7.772
2.2471	7.7646
2.2413	7.7363
2.2355	7.706
2.2297	7.6816
2.224	7.768
2.2183	7.6787
2.2126	7.7451
2.207	7.7387
2.2013	7.6699
2.1957	7.7324
2.1902	7.7353
2.1846	7.7895
2.1791	7.7563
2.1736	7.7295
2.1682	7.7212
2.1628	7.7954
2.1574	7.6802
2.152	7.7285
2.1466	7.7246
2.1413	7.7309
2.136	7.7724
2.1308	7.7392
2.1255	7.7344
2.1203	7.7212
2.1151	7.7485
2.11	7.7519
2.1048	7.6606
2.0997	7.7773
2.0946	7.7466
2.0895	7.7036
2.0845	7.8213
2.0795	7.7138
