Name: Forsterite Mg_2SiO_4
Type: Mineral
Class: Silicate
Subclass: Nesosilicate
Particle Size: Fine
Sample No.: NS-2A
Owner: JPL
Wavelength Range: TIR
Description: Synthetic forsterite.Particle size was 0-45um.Collected by JPL Original ASTER Spectral Library name was jpl.nicolet.mineral.silicate.nesosilicate.fine.ns02a.spectrum.txt
Measurement: Hemispherical reflectance
X Units: Wavelength (micrometers)
Y Units: Reflectance (percent)
wavelength	value
15.3853	4.6324
15.1161	3.7804
14.8563	3.5129
14.6052	4.5686
14.3624	5.3801
14.1276	6.4803
13.9004	8.077
13.6803	9.6991
13.4671	9.8672
13.2604	11.261
13.06	12.0476
12.8656	13.0167
12.6769	12.9505
12.4936	12.2145
12.3155	10.0859
12.1425	7.9565
11.9742	5.923
11.8106	5.0197
11.6513	6.6715
11.4963	8.7106
11.3454	11.0682
11.1983	11.6411
11.0551	11.969
10.9154	12.2918
10.7793	13.1328
10.6465	13.6108
10.5169	14.5245
10.3904	11.337
10.267	10.1915
10.1464	9.2728
10.0287	9.1984
9.9136	8.9118
9.8012	9.2733
9.6913	10.5124
9.5838	11.8305
9.4787	13.3994
9.3758	14.6088
9.2752	14.7376
9.1767	10.7748
9.0803	8.0471
8.9858	6.9008
8.8934	6.6148
8.8028	7.2053
8.714	7.854
8.627	8.8725
8.5417	9.9582
8.4581	11.077
8.3761	12.0254
8.2957	13.4768
8.2169	14.3564
8.1395	14.9056
8.0635	17.182
7.989	18.6326
7.9158	20.1334
7.8439	20.7112
7.7734	21.0295
7.7041	20.9671
7.636	22.2835
7.5691	22.2726
7.5034	22.4321
7.4388	23.1691
7.3753	24.7862
7.3129	25.3719
7.2515	26.3059
7.1912	25.7291
7.1318	25.5777
7.0734	25.8486
7.016	25.6581
6.9595	27.4243
6.9039	28.3259
6.8492	30.0583
6.7953	30.9798
6.7423	30.9993
6.6901	33.1858
6.6387	36.7205
6.5881	36.358
6.5382	36.5181
6.4892	39.8627
6.4408	38.868
6.3931	39.4709
6.3462	41.5748
6.2999	40.7536
6.2543	40.3993
6.2094	41.3045
6.1651	42.7656
6.1214	43.5475
6.0784	43.1409
6.0359	38.0126
5.994	31.4342
5.9527	31.8786
5.912	33.5498
5.8718	34.1603
5.8322	35.079
5.7931	35.4463
5.7545	36.72
5.7165	36.0008
5.6789	32.3658
5.6418	28.5769
5.6052	26.0275
5.5691	30.2475
5.5334	35.0279
5.4982	35.7185
5.4635	35.8182
5.4291	35.2133
5.3952	36.353
5.3618	38.3107
5.3287	40.1853
5.2961	41.0709
5.2638	41.5209
5.2319	41.1048
5.2004	40.1577
5.1693	41.5398
5.1386	43.5222
5.1082	44.423
5.0782	45.7558
5.0485	46.6753
5.0192	46.9074
4.9902	46.2577
4.9616	45.0122
4.9332	42.939
4.9052	43.7199
4.8776	46.9912
4.8502	51.5096
4.8231	54.4539
4.7963	55.5036
4.7699	55.9328
4.7437	56.2947
4.7178	56.4752
4.6922	56.5057
4.6668	56.5536
4.6418	56.6025
4.617	56.7365
4.5924	56.7092
4.5681	56.7965
4.5441	56.7715
4.5203	56.8972
4.4968	56.8237
4.4735	56.9739
4.4505	57.0582
4.4277	56.9663
4.4051	56.9702
4.3828	56.9902
4.3607	57.0526
4.3388	57.0078
4.3171	56.9332
4.2956	56.9
4.2744	56.9049
4.2534	57.0708
4.2325	56.7166
4.2119	57.0343
4.1915	57.3237
4.1712	57.2697
4.1512	57.2803
4.1313	57.3115
4.1117	57.2677
4.0922	57.2476
4.0729	57.2986
4.0538	57.2406
4.0349	57.1938
4.0161	56.9729
3.9976	56.9741
3.9792	57.0023
3.9609	56.9886
3.9428	57.0702
3.9249	56.9657
3.9072	56.8429
3.8896	56.8008
3.8722	56.7556
3.8549	56.7107
3.8378	56.7445
3.8208	56.5765
3.804	56.4701
3.7873	56.3895
3.7708	56.437
3.7544	56.3535
3.7382	56.3506
3.7221	56.3447
3.7061	56.3215
3.6903	56.2426
3.6746	56.1396
3.659	56.0682
3.6436	55.9449
3.6283	55.8841
3.6131	55.7625
3.5981	55.7057
3.5832	55.6383
3.5684	55.5583
3.5537	55.3795
3.5391	55.2751
3.5247	54.9061
3.5104	54.3394
3.4962	54.1441
3.4821	54.233
3.4681	54.1671
3.4543	54.0761
3.4405	53.6445
3.4269	52.9786
3.4133	52.7285
3.3999	53.1417
3.3866	53.2342
3.3733	53.0318
3.3602	53.1502
3.3472	53.4125
3.3343	53.3395
3.3215	53.2516
3.3088	53.1986
3.2961	53.1368
3.2836	53.0509
3.2712	52.8947
3.2588	52.8637
3.2466	52.6763
3.2345	52.3858
3.2224	52.3745
3.2104	52.2675
3.1985	52.1609
3.1867	52.0412
3.175	51.8901
3.1634	51.7622
3.1519	51.5714
3.1404	51.4675
3.129	51.4243
3.1178	51.3638
3.1065	51.1149
3.0954	51.0425
3.0844	51.0574
3.0734	50.8868
3.0625	50.9206
3.0517	50.821
3.041	50.743
3.0303	50.7426
3.0197	50.7411
3.0092	50.5292
2.9987	50.5059
2.9884	50.6909
2.9781	50.4744
2.9678	50.512
2.9577	50.5684
2.9476	50.5613
2.9376	50.5352
2.9276	50.6629
2.9177	50.5512
2.9079	50.6792
2.8982	50.6112
2.8885	51.0245
2.8789	51.0802
2.8693	51.2155
2.8598	51.3432
2.8504	51.5223
2.841	51.8139
2.8317	52.0204
2.8224	52.1995
2.8133	52.473
2.8041	53.2862
2.7951	53.0515
2.786	54.0204
2.7771	54.2222
2.7682	54.9894
2.7594	54.7164
2.7506	55.4959
2.7418	57.0618
2.7332	56.5436
2.7246	58.6175
2.716	57.3137
2.7075	57.6059
2.699	57.7018
2.6906	58.4799
2.6823	58.8469
2.674	59.2328
2.6657	61.5885
2.6575	58.9168
2.6494	58.809
2.6413	58.9752
2.6332	59.4158
2.6252	59.4327
2.6173	60.4731
2.6094	59.5712
2.6015	59.3053
2.5937	61.5659
2.5859	59.5101
2.5782	59.2513
2.5706	59.4282
2.5629	60.0963
2.5554	58.8329
2.5478	59.0924
2.5403	58.7862
2.5329	58.9286
2.5255	58.9492
2.5181	58.9533
2.5108	58.7181
2.5035	58.7258
2.4963	58.8833
2.4891	58.7585
2.482	58.8301
2.4749	58.8137
2.4678	58.897
2.4608	58.7557
2.4538	58.693
2.4468	58.8325
2.4399	58.8158
2.4331	58.9213
2.4262	58.9728
2.4194	58.8337
2.4127	58.8181
2.4059	58.8113
2.3993	58.8306
2.3926	58.9087
2.386	58.9206
2.3795	58.9993
2.3729	58.9812
2.3664	58.8293
2.36	58.8411
2.3535	58.9108
2.3471	58.9634
2.3408	58.9174
2.3345	58.9058
2.3282	58.8225
2.3219	58.8883
2.3157	58.9164
2.3095	58.9143
2.3034	58.8776
2.2972	58.6865
2.2911	58.9603
2.2851	58.7562
2.279	58.8881
2.2731	58.8692
2.2671	58.804
2.2612	59.0286
2.2553	58.9242
2.2494	58.9966
2.2435	59.1324
2.2377	58.8505
2.232	58.9954
2.2262	58.8949
2.2205	58.8466
2.2148	58.8827
2.2091	58.9843
2.2035	58.6878
2.1979	58.9361
2.1923	58.8467
2.1868	58.752
2.1812	58.7467
2.1758	58.8193
2.1703	58.9601
2.1649	58.8462
2.1595	58.9972
2.1541	58.8764
2.1487	58.6692
2.1434	59.0043
2.1381	58.7134
2.1328	58.986
2.1275	58.9189
2.1223	58.703
2.1171	58.9627
2.112	58.8415
2.1068	58.8241
2.1017	58.738
2.0966	58.8657
2.0915	58.699
2.0865	58.8737
2.0814	58.9641
2.0764	58.89
2.0715	58.648
2.0665	59.1256
2.0616	58.9176
2.0567	58.7652
2.0518	58.696
2.0469	58.6591
2.0421	58.7312
2.0373	58.8397
2.0325	58.8266
2.0277	58.3628
2.0229	58.8753
2.0182	58.7969
2.0135	59.0084
2.0088	58.9707
2.0042	58.8448
