Name: Andesine (Feldspar) (NaSi,CaAl)AlSi_2O_8
Type: Mineral
Class: Silicate
Subclass: Tectosilicate
Particle Size: Coarse
Sample No.: TS-4A
Owner: JPL
Wavelength Range: VSWIR
Origin: Unknown.
Description: Particle size was 125-500um. Collected by:  JPL Original ASTER Spectral Library name was jpl.perkin.mineral.silicate.tectosilicate.coarse.ts04a.spectrum.txt
Measurement: Hemispherical reflectance
X Units: Wavelength (micrometers)
Y Units: Reflectance (percent)
wavelength	value
2.5	66.2987
2.494	66.2414
2.488	66.3621
2.482	66.5805
2.476	66.7431
2.47	66.6192
2.464	66.8524
2.458	66.9019
2.452	66.9939
2.446	66.9798
2.44	67.0965
2.434	67.3043
2.428	67.5083
2.422	67.9951
2.416	68.4448
2.41	68.723
2.404	69.2044
2.398	69.485
2.392	69.7263
2.386	69.8789
2.38	70.044
2.374	70.1992
2.368	70.352
2.362	70.2718
2.356	70.2169
2.35	70.2423
2.344	70.3306
2.338	70.4843
2.332	70.8633
2.326	71.1909
2.32	71.5619
2.314	71.9922
2.308	72.3412
2.302	72.7443
2.296	72.9649
2.29	73.2157
2.284	73.2958
2.278	73.3891
2.272	73.3535
2.266	73.3182
2.26	73.1848
2.254	73.1493
2.248	73.0088
2.242	73.0047
2.236	72.8924
2.23	72.6277
2.224	72.3718
2.218	71.7742
2.212	71.0982
2.206	70.4324
2.2	70.0674
2.194	70.1781
2.188	70.8543
2.182	71.8836
2.176	72.8118
2.17	73.7775
2.164	74.3124
2.158	74.9683
2.152	75.3196
2.146	75.6002
2.14	75.5299
2.134	75.4962
2.128	75.3247
2.122	75.0865
2.116	74.8922
2.11	74.5704
2.104	74.4396
2.098	74.2776
2.092	74.3721
2.086	74.507
2.08	74.4399
2.074	74.5256
2.068	74.5665
2.062	74.5605
2.056	74.5802
2.05	74.5287
2.044	74.4376
2.038	74.4019
2.032	74.3584
2.026	74.2198
2.02	74.0571
2.014	73.9391
2.008	73.7933
2.002	73.524
1.996	73.3076
1.99	73.0598
1.984	72.7694
1.978	72.5444
1.972	72.3641
1.966	71.9999
1.96	71.9268
1.954	71.771
1.948	71.5376
1.942	71.4017
1.936	71.1251
1.93	70.8857
1.924	70.5814
1.918	69.9919
1.912	69.8423
1.906	70.0959
1.9	71.2411
1.894	72.3895
1.888	73.2755
1.882	73.9439
1.876	74.2405
1.87	74.4894
1.864	74.5816
1.858	74.5882
1.852	74.6093
1.846	74.6208
1.84	74.5417
1.834	74.5992
1.828	74.4813
1.822	74.4777
1.816	74.5098
1.81	74.5209
1.804	74.3651
1.798	74.3947
1.792	74.3001
1.786	74.2632
1.78	74.219
1.774	74.1308
1.768	74.1263
1.762	74.1035
1.756	74.0492
1.75	73.9377
1.744	74.0802
1.738	74.0237
1.732	73.9684
1.726	73.9263
1.72	73.9593
1.714	73.8948
1.708	73.8366
1.702	73.7636
1.696	73.644
1.69	73.6021
1.684	73.6325
1.678	73.4881
1.672	73.4599
1.666	73.3557
1.66	73.2479
1.654	73.2554
1.648	73.1224
1.642	73.1062
1.636	72.9359
1.63	72.8798
1.624	72.7849
1.618	72.6603
1.612	72.5819
1.606	72.5116
1.6	72.4165
1.594	72.1686
1.588	72.061
1.582	71.8974
1.576	71.7014
1.57	71.5335
1.564	71.3885
1.558	71.228
1.552	70.9878
1.546	70.8119
1.54	70.562
1.534	70.4072
1.528	70.0931
1.522	69.9257
1.516	69.7239
1.51	69.4538
1.504	69.2059
1.498	68.9418
1.492	68.7099
1.486	68.351
1.48	68.1732
1.474	67.8517
1.468	67.5423
1.462	67.3609
1.456	67.1385
1.45	66.8235
1.444	66.5399
1.438	66.2708
1.432	65.8392
1.426	65.3043
1.42	64.4478
1.414	63.3768
1.408	63.3923
1.402	63.753
1.396	64.3598
1.39	64.8393
1.384	65.068
1.378	65.0803
1.372	64.9221
1.366	64.8419
1.36	64.8304
1.354	64.625
1.348	64.4696
1.342	64.4543
1.336	64.3064
1.33	64.1829
1.324	64.0788
1.318	64.0234
1.312	64.016
1.306	63.9879
1.3	63.9563
1.294	63.9579
1.288	63.9397
1.282	63.9775
1.276	63.9585
1.27	63.9583
1.264	63.936
1.258	64.031
1.252	64.0484
1.246	64.1447
1.24	64.234
1.234	64.335
1.228	64.3996
1.222	64.5615
1.216	64.7198
1.21	64.8576
1.204	64.9377
1.198	65.1168
1.192	65.2794
1.186	65.3979
1.18	65.6456
1.174	65.8356
1.168	66.1089
1.162	66.2661
1.156	66.496
1.15	66.7833
1.144	67.0257
1.138	67.2792
1.132	67.5773
1.126	67.8396
1.12	68.1184
1.114	68.4473
1.108	68.6562
1.102	68.9627
1.096	69.2577
1.09	69.5728
1.084	69.8818
1.078	70.1409
1.072	70.4811
1.066	70.7116
1.06	71.0442
1.054	71.2765
1.048	71.5574
1.042	71.8369
1.036	72.1227
1.03	72.3446
1.024	72.7045
1.018	72.8899
1.012	73.1475
1.006	73.4059
1	73.5464
0.994	73.6663
0.988	74.0132
0.982	74.1619
0.976	74.2415
0.97	74.3094
0.964	74.4418
0.958	74.5431
0.952	74.6678
0.946	74.7445
0.94	74.9157
0.934	74.8904
0.928	74.9202
0.922	74.9847
0.916	75.0274
0.91	75.0943
0.904	75.1377
0.898	75.1127
0.892	75.2355
0.886	75.1833
0.88	75.2888
0.874	75.3722
0.868	75.2915
0.862	75.2847
0.856	75.678
0.85	75.7887
0.844	75.7627
0.838	75.7986
0.832	75.848
0.826	75.8941
0.82	75.883
0.814	75.9664
0.808	75.9448
0.802	75.9814
0.796	75.9457
0.79	75.9819
0.784	75.9185
0.778	75.9063
0.772	75.7605
0.766	75.7695
0.76	75.7654
0.754	75.7154
0.748	75.6833
0.742	75.5629
0.736	75.5675
0.73	75.4989
0.724	75.4296
0.718	75.3976
0.712	75.3602
0.706	75.2964
0.7	75.2704
0.694	75.2151
0.688	75.204
0.682	75.1403
0.676	75.0856
0.67	75.0685
0.664	75.0408
0.658	74.9763
0.652	74.9503
0.646	74.9085
0.64	74.865
0.634	74.8164
0.628	74.7795
0.622	74.7117
0.616	74.6503
0.61	74.5975
0.604	74.5074
0.598	74.4513
0.592	74.4294
0.586	74.3137
0.58	74.1984
0.574	74.0877
0.568	73.9403
0.562	73.7853
0.556	73.6211
0.55	73.4154
0.544	73.1624
0.538	72.8852
0.532	72.5734
0.526	72.2076
0.52	71.8085
0.514	71.3456
0.508	70.8331
0.502	70.3211
0.496	69.7544
0.49	69.2413
0.484	68.7076
0.478	68.1617
0.472	67.6832
0.466	67.1728
0.46	66.6645
0.454	66.014
0.448	65.2835
0.442	64.4664
0.436	63.5228
0.43	62.4559
0.424	61.4515
0.418	60.5277
0.412	59.7745
0.406	58.9121
0.4	57.9327
