Name: Carnallite KMgCl3 * 6H2O
Type: Mineral
Class: Chloride
Subclass: None
Particle Size: Coarse
Sample No.: NMNH98011
Owner: Smithsonian Institute, National Museum of Nat. History
Wavelength Range: All
Origin: Barcelona, Spain
Description: Carnallite from Barcelona, Spain - NMNH 98011Sample was Unsieved coarse powder. Original ASTER Spectral Library name was usgs.perknic.mineral.chloride.none.coarse.carnalc.spectrum.txt
Measurement: Directional Hemispherical Reflectance
X Units: Wavelength (micrometers)
Y Units: Reflectance (percent)
wavelength	value
13.9	2.287
13.644	2.39
13.398	2.523
13.16	2.534
12.93	2.74
12.708	2.74
12.494	2.833
12.287	2.822
12.086	2.863
11.892	2.936
11.704	3.049
11.522	3.059
11.346	2.946
11.175	3.028
11.009	2.905
10.848	2.822
10.691	2.802
10.539	2.699
10.391	2.76
10.247	2.657
10.108	2.637
9.972	2.627
9.839	2.616
9.71	2.709
9.585	2.863
9.462	2.802
9.343	2.997
9.226	3.111
9.113	3.224
9.002	3.265
8.894	3.584
8.789	3.914
8.686	4.223
8.585	4.161
8.487	4.408
8.391	4.738
8.297	5.171
8.205	4.954
8.115	5.016
8.027	4.934
7.941	4.995
7.857	5.026
7.774	5.253
7.694	5.521
7.614	5.923
7.537	6.139
7.461	6.304
7.387	6.654
7.314	6.922
7.242	6.983
7.172	6.345
7.103	5.232
7.036	4.738
6.97	5.974
6.905	5.85
6.841	5.655
6.778	5.366
6.717	5.778
6.657	6.283
6.597	6.53
6.539	6.602
6.482	5.614
6.426	6.118
6.37	5.933
6.316	5.552
6.263	4.604
6.21	3.687
6.159	2.637
6.108	2.05
6.058	1.782
6.009	2.719
5.96	3.481
5.913	4.316
5.866	5.284
5.82	6.221
5.775	7.818
5.73	8.631
5.686	9.342
5.643	9.486
5.6	10.341
5.558	10.393
5.517	10.063
5.476	9.177
5.436	8.539
5.396	7.756
5.357	7.509
5.319	8.786
5.281	10.403
5.243	11.721
5.206	12.113
5.17	12.401
5.134	12.133
5.099	12.072
5.064	11.979
5.03	11.608
4.996	11.134
4.962	10.681
4.929	10.104
4.897	9.352
4.865	8.745
4.833	8.374
4.802	8.302
4.771	8.302
4.74	8.085
4.71	7.478
4.68	6.88
4.651	6.685
4.622	6.52
4.593	6.273
4.565	6.015
4.537	5.634
4.509	5.284
4.482	5.016
4.455	4.728
4.428	4.645
4.402	4.666
4.376	4.79
4.35	5.15
4.325	5.768
4.3	6.736
4.275	8.23
4.251	9.713
4.226	11.855
4.202	12.617
4.179	13.751
4.155	15.017
4.132	15.965
4.109	16.913
4.086	17.788
4.064	18.581
4.042	19.23
4.02	19.724
3.998	19.972
3.977	19.23
3.956	17.592
3.935	17.922
3.914	18.983
3.893	19.879
3.873	21.002
3.853	21.239
3.833	21.414
3.813	21.465
3.794	21.342
3.774	21.362
3.755	21.558
3.736	21.465
3.717	21.228
3.699	20.827
3.68	20.188
3.662	19.601
3.644	18.808
3.626	18.128
3.609	17.551
3.591	16.81
3.574	16.161
3.557	15.512
3.54	14.863
3.523	14.235
3.506	13.627
3.49	12.957
3.473	12.185
3.457	11.546
3.441	10.846
3.425	10.269
3.409	9.703
3.394	9.332
3.378	8.806
3.363	8.281
3.348	7.684
3.333	7.086
3.318	6.674
3.303	6.19
3.288	5.871
3.274	5.428
3.259	5.026
3.245	4.635
3.231	4.408
3.217	4.038
3.203	3.708
3.189	3.512
3.176	3.255
3.162	3.131
3.149	2.956
3.135	2.771
3.122	2.596
3.109	2.462
3.096	2.328
3.083	2.204
3.07	2.173
3.058	2.317
3.045	2.348
3.033	2.307
3.02	2.276
3.008	2.317
2.996	2.379
2.984	2.379
2.972	2.369
2.96	2.585
2.948	2.637
2.937	2.647
2.925	2.493
2.913	2.297
2.902	2.122
2.891	1.916
2.879	1.947
2.868	1.72
2.857	1.792
2.846	1.761
2.835	1.802
2.825	1.802
2.814	1.978
2.803	2.019
2.793	2.4
2.782	2.523
2.772	2.575
2.761	2.884
2.751	3.409
2.741	3.996
2.731	5.85
2.721	6.448
2.711	8.477
2.701	11.186
2.691	13.38
2.681	15.357
2.672	15.862
2.662	16.964
2.653	17.644
2.643	18.88
2.634	18.519
2.624	19.045
2.615	18.015
2.606	17.242
2.597	17.778
2.588	17.531
2.579	17.953
2.57	17.253
2.561	16.274
2.552	17.16
2.543	17.088
2.535	17.335
2.526	17.551
2.517	17.788
2.509	17.665
2.5	17.634
2.486	17.01
2.472	16.82
2.458	16.667
2.444	17.468
2.43	18.741
2.416	20.42
2.402	22.092
2.388	23.613
2.374	25.005
2.36	25.998
2.346	26.628
2.332	26.858
2.318	26.975
2.304	26.659
2.29	26.405
2.276	26.287
2.262	26.109
2.248	26.537
2.234	26.904
2.22	27.377
2.206	28.138
2.192	29.077
2.178	29.878
2.164	30.552
2.15	30.997
2.136	30.96
2.122	30.797
2.108	30.365
2.094	30.166
2.08	29.789
2.066	29.042
2.052	27.311
2.038	25.142
2.024	22.325
2.01	18.611
1.996	14.438
1.982	13.401
1.968	15.184
1.954	17.344
1.94	19.274
1.926	21.496
1.912	24.712
1.898	30.025
1.884	34.003
1.87	35.641
1.856	35.968
1.842	35.549
1.828	35.008
1.814	34.405
1.8	33.839
1.786	33.711
1.772	33.313
1.758	33.879
1.744	35.451
1.73	37.028
1.716	37.761
1.702	38.216
1.688	38.287
1.674	38.249
1.66	38.068
1.646	37.617
1.632	37.429
1.618	36.82
1.604	36.319
1.59	35.559
1.576	34.612
1.562	33.255
1.548	31.766
1.534	30.269
1.52	30.233
1.506	29.965
1.492	28.89
1.478	26.93
1.464	24.902
1.45	27.784
1.436	30.831
1.422	32.986
1.408	34.543
1.394	35.746
1.38	36.81
1.366	37.388
1.352	37.941
1.338	38.173
1.324	38.415
1.31	38.388
1.296	38.057
1.282	38.326
1.268	37.849
1.254	37.614
1.24	37.1
1.226	37.107
1.212	36.974
1.198	37.053
1.184	37.048
1.17	37.024
1.156	37.122
1.142	37.178
1.128	37.079
1.114	36.96
1.1	36.657
1.086	36.45
1.072	36.493
1.058	36.048
1.044	36.051
1.03	35.834
1.016	35.239
1.002	35.014
0.988	34.542
0.974	33.925
0.96	33.328
0.946	32.635
0.932	31.96
0.918	31.369
0.904	30.8
0.89	30.727
0.876	30.323
0.862	30.183
0.848	29.54
0.834	29.636
0.82	29.796
0.806	30.021
0.792	30.297
0.778	30.521
0.764	30.715
0.75	30.701
0.736	30.499
0.722	30.027
0.708	29.341
0.694	28.561
0.68	27.8
0.666	27.093
0.652	26.511
0.638	25.97
0.624	25.389
0.61	24.502
0.596	22.833
0.582	20.284
0.568	17.519
0.554	15.483
0.54	14.392
0.526	13.852
0.512	13.524
0.498	13.212
0.484	12.85
0.47	12.63
0.456	12.365
0.442	12.015
0.428	11.723
0.414	11.506
0.4	11.34
