Name: Amblygonite (Li,Na)Al(PO_4)(F,OH)
Type: Mineral
Class: Phosphate
Subclass: None
Particle Size: Fine
Sample No.: P-3A
Owner: JPL
Wavelength Range: VSWIR
Origin: USA, California, San Diego County, Pala
Description: Particle size was 0-45um.Collected by Burminco Original ASTER Spectral Library name was jpl.beckman.mineral.phosphate.none.fine.p03a.spectrum.txt
Measurement: Hemispherical reflectance
X Units: Wavelength (micrometers)
Y Units: Reflectance (percent)
wavelength	value
0.4	77.06
0.403	77.5
0.406	77.66
0.409	77.93
0.412	78.16
0.415	78.36
0.418	78.29
0.421	78.42
0.424	78.46
0.427	78.85
0.43	78.89
0.433	79
0.436	79.19
0.439	79.21
0.442	79.43
0.445	79.46
0.448	79.63
0.451	79.71
0.454	79.76
0.457	79.97
0.46	80.11
0.463	80.08
0.466	80.25
0.469	80.36
0.472	80.43
0.475	80.44
0.478	80.59
0.481	80.7
0.484	80.7
0.487	80.77
0.49	80.94
0.493	80.94
0.496	81.06
0.499	81.05
0.502	81.14
0.505	81.09
0.508	81.14
0.511	81.31
0.514	81.38
0.517	81.5
0.52	81.38
0.523	81.46
0.526	81.42
0.529	81.64
0.532	81.56
0.535	81.56
0.538	81.56
0.541	81.76
0.544	81.7
0.547	81.77
0.55	81.77
0.553	81.72
0.556	81.74
0.559	81.75
0.562	82.21
0.565	82.19
0.568	82.16
0.571	82.14
0.574	82.01
0.577	82.01
0.58	81.98
0.583	81.83
0.586	82.12
0.589	82.09
0.592	82.29
0.595	82.11
0.598	82.11
0.601	82.12
0.604	82.39
0.607	82.26
0.61	82.37
0.613	82.29
0.616	82.41
0.619	82.14
0.622	82.25
0.625	82.3
0.628	82.42
0.631	82.22
0.634	82.3
0.637	82.23
0.64	82.36
0.643	82.44
0.646	82.37
0.649	82.36
0.652	82.31
0.655	82.38
0.658	82.43
0.661	82.47
0.664	82.49
0.667	82.5
0.67	82.41
0.673	82.54
0.676	82.59
0.679	82.57
0.682	82.41
0.685	82.43
0.688	82.56
0.691	82.59
0.694	82.51
0.697	82.52
0.7	82.4
0.703	82.51
0.706	82.62
0.709	82.68
0.712	82.65
0.715	82.5
0.718	82.49
0.721	82.65
0.724	82.54
0.727	82.56
0.73	82.62
0.733	82.58
0.736	82.57
0.739	82.61
0.742	82.76
0.745	82.48
0.748	82.56
0.751	82.5
0.754	82.58
0.757	82.56
0.76	82.54
0.763	82.52
0.766	82.47
0.769	82.61
0.772	82.47
0.775	82.58
0.778	82.5
0.781	82.54
0.784	82.53
0.787	82.59
0.79	82.62
0.793	82.61
0.796	82.56
0.799	82.49
0.808	82.58
0.82	82.59
0.832	82.73
0.844	82.86
0.856	82.86
0.868	82.92
0.88	82.8
0.892	82.93
0.904	82.88
0.916	82.81
0.928	82.82
0.94	82.87
0.952	82.8
0.964	82.81
0.976	82.7
0.988	82.57
1	82.75
1.012	82.74
1.024	82.7
1.036	82.74
1.048	82.62
1.06	82.64
1.072	82.72
1.084	82.74
1.096	82.78
1.108	82.74
1.12	82.8
1.132	82.85
1.144	82.79
1.156	82.67
1.168	82.67
1.18	82.63
1.192	82.55
1.204	82.56
1.216	82.51
1.228	82.51
1.24	82.63
1.252	82.57
1.264	82.51
1.276	82.48
1.288	82.39
1.3	82.3
1.312	82.2
1.324	82.1
1.336	81.96
1.348	81.85
1.36	81.88
1.372	81.76
1.384	81.31
1.396	81.11
1.408	80.12
1.42	80.51
1.432	80.91
1.444	80.84
1.456	80.86
1.468	80.72
1.48	80.52
1.492	80.3
1.504	79.78
1.516	79.23
1.528	78.52
1.54	78.31
1.552	78.74
1.564	79.21
1.576	79.66
1.588	79.87
1.6	79.94
1.612	80.07
1.624	80.16
1.636	80.16
1.648	80.17
1.66	80.15
1.672	80.15
1.684	80.07
1.696	80.03
1.708	79.93
1.72	79.6
1.732	79.37
1.744	79.18
1.756	79.09
1.768	79.07
1.78	79.13
1.792	79.42
1.804	79.45
1.816	79.38
1.828	78.53
1.84	77.24
1.852	77.18
1.864	77.68
1.876	77.76
1.888	77.51
1.9	77.1
1.912	76.79
1.924	76.67
1.936	76.61
1.948	76.57
1.96	76.18
1.972	74.66
1.984	72.03
1.996	72.21
2.008	74.68
2.02	75.88
2.032	75.71
2.044	75.4
2.056	75.06
2.068	75.15
2.08	75.27
2.092	75.22
2.104	74.75
2.116	74.06
2.128	73.11
2.14	70.79
2.152	64.39
2.164	55.24
2.176	51.59
2.188	54.45
2.2	58.62
2.212	62.47
2.224	65.37
2.236	67.33
2.248	68.77
2.26	69.82
2.272	70.58
2.284	71.34
2.296	72.17
2.308	72.7
2.32	73
2.332	72.13
2.344	68.96
2.356	62.17
2.368	56.54
2.38	57.93
2.392	63.22
2.404	67.04
2.416	68.33
2.428	68.2
2.44	67.47
2.452	66.18
2.464	64.63
2.476	63.11
2.488	62.02
2.5	61.2
