Name: Kernite Na_2B_4O_6(OH)_2.3H_2O
Type: Mineral
Class: Borate
Subclass: None
Particle Size: Fine
Sample No.: B-2A
Owner: JPL
Wavelength Range: VSWIR
Origin: USA, California, Kern County, Boron
Description: Particle size was 0-45um.Collected by JPL Original ASTER Spectral Library name was jpl.beckman.mineral.borate.none.fine.b02.spectrum.txt
Measurement: Hemispherical reflectance
X Units: Wavelength (micrometers)
Y Units: Reflectance (percent)
wavelength	value
0.4	88.76
0.403	88.82
0.406	89.22
0.409	89.68
0.412	89.57
0.415	89.8
0.418	90.03
0.421	90.48
0.424	90.25
0.427	90.54
0.43	90.48
0.433	90.36
0.436	90.48
0.439	90.65
0.442	91.23
0.445	90.94
0.448	91.46
0.451	91.51
0.454	91.86
0.457	91.86
0.46	91.93
0.463	92.06
0.466	92
0.469	91.66
0.472	91.72
0.475	91.96
0.478	91.74
0.481	92.42
0.484	92.1
0.487	92.55
0.49	92.61
0.493	92.57
0.496	92.62
0.499	92.58
0.502	92.81
0.505	93.04
0.508	92.92
0.511	92.63
0.514	92.86
0.517	92.63
0.52	93.09
0.523	92.98
0.526	93.56
0.529	93.38
0.532	93.44
0.535	93.44
0.538	93.21
0.541	93.5
0.544	93.33
0.547	93.56
0.55	93.38
0.553	93.66
0.556	93.38
0.559	93.33
0.562	93.89
0.565	94.06
0.568	93.95
0.571	94.01
0.574	94.06
0.577	93.66
0.58	94.24
0.583	93.66
0.586	93.95
0.589	93.6
0.592	93.5
0.595	93.56
0.598	93.66
0.601	93.89
0.604	94.06
0.607	94.47
0.61	94.18
0.613	94.87
0.616	94.81
0.619	94.58
0.622	94.41
0.625	94.7
0.628	94.7
0.631	94.47
0.634	94.58
0.637	94.64
0.64	94.76
0.643	94.64
0.646	94.81
0.649	94.58
0.652	94.81
0.655	94.81
0.658	94.7
0.661	94.76
0.664	94.7
0.667	94.87
0.67	94.81
0.673	95.22
0.676	94.99
0.679	94.99
0.682	94.87
0.685	94.81
0.688	94.99
0.691	94.99
0.694	95.04
0.697	95.32
0.7	94.7
0.703	95.04
0.706	94.76
0.709	94.87
0.712	94.76
0.715	95.04
0.718	94.87
0.721	94.76
0.724	94.87
0.727	94.81
0.73	94.99
0.733	94.76
0.736	94.87
0.739	94.41
0.742	94.99
0.745	94.58
0.748	94.64
0.751	94.47
0.754	94.58
0.757	94.24
0.76	94.41
0.763	94.41
0.766	94.35
0.769	94.7
0.772	94.53
0.775	94.87
0.778	94.53
0.781	94.81
0.784	94.7
0.787	94.64
0.79	94.58
0.793	94.58
0.796	94.64
0.799	93.78
0.808	93.89
0.82	93.83
0.832	93.78
0.844	93.78
0.856	93.72
0.868	93.83
0.88	93.78
0.892	93.83
0.904	93.72
0.916	93.5
0.928	93.66
0.94	93.72
0.952	93.6
0.964	93.38
0.976	92.58
0.988	92.35
1	92.86
1.012	93.15
1.024	93.15
1.036	93.21
1.048	93.44
1.06	93.5
1.072	93.56
1.084	93.5
1.096	93.38
1.108	93.38
1.12	93.38
1.132	93.27
1.144	93.09
1.156	92.8
1.168	92.54
1.18	92.18
1.192	91.7
1.204	91.34
1.216	91.11
1.228	90.88
1.24	90.54
1.252	90.08
1.264	90.34
1.276	90.77
1.288	90.93
1.3	90.5
1.312	90.09
1.324	90.12
1.336	89.98
1.348	89.78
1.36	89.5
1.372	89.04
1.384	88.64
1.396	87.55
1.408	84.95
1.42	80.05
1.432	72.47
1.444	72.78
1.456	75.52
1.468	74.84
1.48	73.7
1.492	73.24
1.504	73.47
1.516	73.92
1.528	74.44
1.54	74.38
1.552	74.5
1.564	74.5
1.576	74.67
1.588	75.01
1.6	75.35
1.612	75.79
1.624	76.23
1.636	76.62
1.648	76.99
1.66	77.2
1.672	77.25
1.684	77.22
1.696	77.09
1.708	76.79
1.72	76.46
1.732	76.11
1.744	75.66
1.756	75.32
1.768	74.8
1.78	74.4
1.792	74.52
1.804	74.83
1.816	75.1
1.828	75.2
1.84	75.41
1.852	75.06
1.864	74.53
1.876	73.32
1.888	71.2
1.9	68.23
1.912	65.1
1.924	61.91
1.936	58.37
1.948	55.06
1.96	52.94
1.972	52.04
1.984	52.07
1.996	52.64
2.008	53.62
2.02	54.5
2.032	54.95
2.044	55.59
2.056	57.05
2.068	58.77
2.08	59.93
2.092	60.86
2.104	61.51
2.116	61.76
2.128	61.63
2.14	61.06
2.152	59.98
2.164	57.09
2.176	52.37
2.188	50.84
2.2	53.61
2.212	57.22
2.224	59.63
2.236	61.23
2.248	62.39
2.26	63
2.272	63.66
2.284	64.54
2.296	65.54
2.308	66.16
2.32	65.85
2.332	64.74
2.344	63.5
2.356	61.97
2.368	60.07
2.38	57.83
2.392	55.88
2.404	54.55
2.416	53.48
2.428	52.86
2.44	52.46
2.452	52.12
2.464	51.94
2.476	51.87
2.488	51.69
2.5	51.5
