Name: Muscovite KAl_2(Si_3Al)O_10(OH,F)_2
Type: Mineral
Class: Silicate
Subclass: Phyllosilicate
Particle Size: Medium
Sample No.: PS-16A
Owner: JPL
Wavelength Range: VSWIR
Origin: USA, Connecticut.
Description: Particle size was 45-125um.Collected by:  Ward's Original ASTER Spectral Library name was jpl.perkin.mineral.silicate.phyllosilicate.medium.ps16a.spectrum.txt
Measurement: Hemispherical reflectance
X Units: Wavelength (micrometers)
Y Units: Reflectance (percent)
wavelength	value
2.5	46.6507
2.494	46.255
2.488	45.99
2.482	45.6025
2.476	45.4032
2.47	45.1687
2.464	44.8835
2.458	44.4306
2.452	43.9772
2.446	43.7068
2.44	43.5309
2.434	43.634
2.428	44.0072
2.422	44.7891
2.416	45.568
2.41	46.6057
2.404	47.3494
2.398	47.9741
2.392	48.3108
2.386	48.4984
2.38	48.5131
2.374	48.6163
2.368	48.6465
2.362	48.4206
2.356	48.1216
2.35	47.7908
2.344	47.7797
2.338	48.3797
2.332	49.2848
2.326	50.3782
2.32	51.6149
2.314	52.8294
2.308	53.9609
2.302	54.8753
2.296	55.7276
2.29	56.3332
2.284	56.6314
2.278	56.792
2.272	56.9835
2.266	56.7994
2.26	56.5466
2.254	56.272
2.248	55.8517
2.242	55.3733
2.236	54.7811
2.23	53.9159
2.224	52.6916
2.218	50.6125
2.212	47.7529
2.206	44.931
2.2	43.287
2.194	43.4351
2.188	45.8736
2.182	49.5078
2.176	53.061
2.17	55.6852
2.164	57.4381
2.158	58.7167
2.152	59.5322
2.146	59.9855
2.14	60.2813
2.134	60.3513
2.128	60.2731
2.122	60.1381
2.116	60.0541
2.11	60.1009
2.104	60.2251
2.098	60.4935
2.092	60.8858
2.086	61.1484
2.08	61.4204
2.074	61.5508
2.068	61.6768
2.062	61.8263
2.056	61.845
2.05	61.993
2.044	61.9355
2.038	62.0506
2.032	62.0072
2.026	62.014
2.02	62.0485
2.014	61.9485
2.008	61.8591
2.002	61.9151
1.996	61.8876
1.99	61.7249
1.984	61.717
1.978	61.5354
1.972	61.5481
1.966	61.4247
1.96	61.3915
1.954	61.3305
1.948	61.2077
1.942	61.1562
1.936	61.0908
1.93	61.0959
1.924	60.9635
1.918	61.0545
1.912	61.2131
1.906	61.6273
1.9	62.0068
1.894	62.5419
1.888	62.7787
1.882	63.0056
1.876	63.1342
1.87	63.3463
1.864	63.3786
1.858	63.4438
1.852	63.5016
1.846	63.4263
1.84	63.4568
1.834	63.485
1.828	63.4414
1.822	63.5401
1.816	63.6039
1.81	63.6319
1.804	63.7222
1.798	63.6936
1.792	63.6845
1.786	63.6604
1.78	63.5833
1.774	63.6065
1.768	63.6327
1.762	63.6432
1.756	63.7685
1.75	63.8845
1.744	63.8097
1.738	63.8749
1.732	63.7687
1.726	63.8733
1.72	63.8796
1.714	63.9204
1.708	63.9002
1.702	63.8578
1.696	63.9375
1.69	63.8767
1.684	63.9528
1.678	63.9229
1.672	63.9298
1.666	63.8812
1.66	63.9501
1.654	63.8952
1.648	64.0163
1.642	64.0417
1.636	63.9998
1.63	64.0338
1.624	64.0482
1.618	64.123
1.612	64.0732
1.606	64.0935
1.6	64.0982
1.594	64.1352
1.588	64.1249
1.582	64.0597
1.576	64.1098
1.57	64.1022
1.564	64.1722
1.558	64.1539
1.552	64.07
1.546	64.1222
1.54	64.0668
1.534	64.0885
1.528	64.0539
1.522	64.0003
1.516	64.0274
1.51	63.9902
1.504	63.9603
1.498	63.9493
1.492	63.8824
1.486	63.85
1.48	63.7939
1.474	63.7922
1.468	63.6543
1.462	63.6475
1.456	63.5636
1.45	63.4319
1.444	63.3596
1.438	63.0644
1.432	62.3667
1.426	60.5997
1.42	56.8937
1.414	52.0517
1.408	52.3542
1.402	54.5321
1.396	58.9314
1.39	62.1544
1.384	62.9423
1.378	63.116
1.372	63.2307
1.366	63.369
1.36	63.48
1.354	63.4265
1.348	63.4294
1.342	63.4171
1.336	63.273
1.33	63.1825
1.324	63.228
1.318	63.0304
1.312	63.117
1.306	63.105
1.3	63.1828
1.294	63.0904
1.288	63.1275
1.282	63.1529
1.276	63.1267
1.27	63.0368
1.264	63.0063
1.258	62.9438
1.252	62.9031
1.246	62.8306
1.24	62.8626
1.234	62.8158
1.228	62.7862
1.222	62.7474
1.216	62.6941
1.21	62.6376
1.204	62.6827
1.198	62.5747
1.192	62.5262
1.186	62.5725
1.18	62.4934
1.174	62.4661
1.168	62.3896
1.162	62.4089
1.156	62.3375
1.15	62.2928
1.144	62.2542
1.138	62.2487
1.132	62.2378
1.126	62.2112
1.12	62.1399
1.114	62.1411
1.108	62.0909
1.102	62.1701
1.096	62.0461
1.09	61.9877
1.084	61.9889
1.078	62.0309
1.072	61.9516
1.066	61.9349
1.06	61.8786
1.054	61.9362
1.048	61.9745
1.042	61.8895
1.036	61.9503
1.03	61.8439
1.024	61.8571
1.018	61.9255
1.012	61.8396
1.006	61.7878
1	61.7468
0.994	61.7223
0.988	61.6497
0.982	61.5456
0.976	61.4852
0.97	61.2697
0.964	61.1044
0.958	61.1437
0.952	61.2335
0.946	61.2566
0.94	61.1519
0.934	61.1629
0.928	61.1389
0.922	61.0929
0.916	61.0139
0.91	61.0858
0.904	61.0647
0.898	60.9979
0.892	61.0745
0.886	61.0837
0.88	61.1892
0.874	61.1794
0.868	61.3406
0.862	61.3767
0.856	61.5535
0.85	61.6932
0.844	61.785
0.838	61.8584
0.832	61.9465
0.826	62.059
0.82	62.1608
0.814	62.2572
0.808	62.309
0.802	62.3913
0.796	62.4398
0.79	62.5032
0.784	62.5388
0.778	62.555
0.772	62.574
0.766	62.5981
0.76	62.6021
0.754	62.6038
0.748	62.6056
0.742	62.5431
0.736	62.4548
0.73	62.447
0.724	62.377
0.718	62.3066
0.712	62.201
0.706	62.1077
0.7	62.0046
0.694	61.8847
0.688	61.7776
0.682	61.6511
0.676	61.526
0.67	61.404
0.664	61.2477
0.658	61.1093
0.652	60.9688
0.646	60.828
0.64	60.6709
0.634	60.5135
0.628	60.3466
0.622	60.1534
0.616	59.9564
0.61	59.7557
0.604	59.5089
0.598	59.2866
0.592	59.0411
0.586	58.7212
0.58	58.3848
0.574	58.0321
0.568	57.6843
0.562	57.2824
0.556	56.8488
0.55	56.3435
0.544	55.7718
0.538	55.1391
0.532	54.4952
0.526	53.817
0.52	53.1436
0.514	52.4569
0.508	51.7983
0.502	51.2004
0.496	50.6786
0.49	50.154
0.484	49.5444
0.478	48.9953
0.472	48.4955
0.466	48.0923
0.46	47.6371
0.454	47.0299
0.448	46.2605
0.442	45.248
0.436	44.2768
0.43	43.2091
0.424	42.1067
0.418	41.0954
0.412	40.0806
0.406	39.0464
0.4	37.9738
