Name: Almandine Garnet Fe_3Al_2(SiO_4)_3
Type: Mineral
Class: Silicate
Subclass: Nesosilicate
Particle Size: Fine
Sample No.: NS-4A
Owner: JPL
Wavelength Range: VSWIR
Origin: USA, Arizona, Graham County, Stanley Butte.
Description: Particle size was 0-45um.Collected by:  Burminco Original ASTER Spectral Library name was jpl.perkin.mineral.silicate.nesosilicate.fine.ns04a.spectrum.txt
Measurement: Hemispherical reflectance
X Units: Wavelength (micrometers)
Y Units: Reflectance (percent)
wavelength	value
2.5	33.4111
2.494	33.0222
2.488	33.1403
2.482	33.1195
2.476	33.1826
2.47	33.151
2.464	33.1789
2.458	33.1552
2.452	33.1713
2.446	33.1576
2.44	33.1272
2.434	33.1598
2.428	33.186
2.422	33.166
2.416	33.1319
2.41	33.174
2.404	33.0912
2.398	33.0792
2.392	33.0971
2.386	33.0551
2.38	33.0789
2.374	33.1267
2.368	33.1317
2.362	33.1334
2.356	33.0783
2.35	33.1095
2.344	33.1253
2.338	33.1547
2.332	33.0641
2.326	33.0465
2.32	33.1054
2.314	33.0715
2.308	33.0377
2.302	33.0432
2.296	33.0703
2.29	33.0645
2.284	33.0606
2.278	33.051
2.272	32.9795
2.266	33.0058
2.26	32.9984
2.254	33.0329
2.248	33.0988
2.242	33.0277
2.236	33.0624
2.23	33.1432
2.224	33.1441
2.218	33.1868
2.212	33.2918
2.206	33.3128
2.2	33.3351
2.194	33.3669
2.188	33.4174
2.182	33.5169
2.176	33.5901
2.17	33.6499
2.164	33.7384
2.158	33.7439
2.152	33.9082
2.146	33.8549
2.14	33.9581
2.134	33.8893
2.128	33.8524
2.122	33.7453
2.116	33.6868
2.11	33.6063
2.104	33.5443
2.098	33.4471
2.092	33.4846
2.086	33.5352
2.08	33.5796
2.074	33.5651
2.068	33.6852
2.062	33.7459
2.056	33.7438
2.05	33.7946
2.044	33.7694
2.038	33.8183
2.032	33.8568
2.026	33.884
2.02	33.8598
2.014	33.8573
2.008	33.8821
2.002	33.9277
1.996	33.9022
1.99	33.8695
1.984	33.9056
1.978	33.8322
1.972	33.7954
1.966	33.8079
1.96	33.8214
1.954	33.7712
1.948	33.8333
1.942	33.7983
1.936	33.904
1.93	33.8685
1.924	33.8633
1.918	33.9641
1.912	33.9116
1.906	33.9584
1.9	33.899
1.894	33.9462
1.888	33.9374
1.882	33.9352
1.876	33.8968
1.87	33.9677
1.864	33.9295
1.858	33.8761
1.852	33.8628
1.846	33.8609
1.84	33.7776
1.834	33.809
1.828	33.754
1.822	33.7129
1.816	33.6294
1.81	33.5698
1.804	33.5635
1.798	33.549
1.792	33.4972
1.786	33.4625
1.78	33.4254
1.774	33.3769
1.768	33.3655
1.762	33.2839
1.756	33.3271
1.75	33.291
1.744	33.2246
1.738	33.2616
1.732	33.1909
1.726	33.1482
1.72	33.1855
1.714	33.1656
1.708	33.0889
1.702	33.1189
1.696	33.054
1.69	33.0542
1.684	32.9906
1.678	32.9794
1.672	33.0412
1.666	33.0155
1.66	32.9745
1.654	32.9812
1.648	32.9609
1.642	33.0903
1.636	33.0157
1.63	33.0482
1.624	33.1127
1.618	33.1297
1.612	33.1098
1.606	33.1319
1.6	33.2101
1.594	33.1337
1.588	33.2032
1.582	33.2956
1.576	33.3001
1.57	33.3046
1.564	33.3134
1.558	33.3114
1.552	33.4183
1.546	33.3497
1.54	33.4203
1.534	33.4202
1.528	33.3725
1.522	33.4422
1.516	33.4174
1.51	33.4197
1.504	33.4046
1.498	33.3568
1.492	33.4259
1.486	33.3678
1.48	33.3587
1.474	33.3908
1.468	33.3087
1.462	33.2533
1.456	33.1659
1.45	33.1244
1.444	33.072
1.438	33.0203
1.432	32.9113
1.426	32.8736
1.42	32.7361
1.414	32.6674
1.408	32.5045
1.402	32.4809
1.396	32.4039
1.39	32.3342
1.384	32.2817
1.378	32.1505
1.372	32.0034
1.366	31.8971
1.36	31.8287
1.354	31.6513
1.348	31.5462
1.342	31.4526
1.336	31.3351
1.33	31.2678
1.324	31.2249
1.318	31.1524
1.312	31.0763
1.306	30.9921
1.3	30.9892
1.294	30.9688
1.288	30.9416
1.282	30.9244
1.276	30.9667
1.27	30.9848
1.264	31.0351
1.258	31.0406
1.252	31.1317
1.246	31.1931
1.24	31.2213
1.234	31.3373
1.228	31.4595
1.222	31.5756
1.216	31.6238
1.21	31.7551
1.204	31.859
1.198	32.008
1.192	32.0888
1.186	32.2764
1.18	32.4061
1.174	32.5232
1.168	32.6839
1.162	32.8442
1.156	33.0156
1.15	33.1385
1.144	33.3162
1.138	33.4441
1.132	33.6103
1.126	33.7374
1.12	33.8674
1.114	33.9901
1.108	34.1252
1.102	34.2932
1.096	34.2901
1.09	34.498
1.084	34.5946
1.078	34.8062
1.072	34.8707
1.066	34.9713
1.06	34.9951
1.054	35.0632
1.048	35.1397
1.042	35.2475
1.036	35.2439
1.03	35.3746
1.024	35.4382
1.018	35.4482
1.012	35.5412
1.006	35.5542
1	35.6349
0.994	35.6599
0.988	35.6307
0.982	35.6875
0.976	35.7014
0.97	35.7151
0.964	35.7237
0.958	35.7694
0.952	35.7827
0.946	35.7449
0.94	35.7495
0.934	35.8056
0.928	35.8619
0.922	35.7878
0.916	35.8072
0.91	35.8117
0.904	35.8692
0.898	35.8634
0.892	35.8353
0.886	35.854
0.88	35.8903
0.874	35.8912
0.868	35.8731
0.862	35.8898
0.856	36.136
0.85	36.1004
0.844	36.1172
0.838	36.0901
0.832	36.1095
0.826	36.1202
0.82	36.1173
0.814	36.103
0.808	36.1283
0.802	36.1062
0.796	36.1026
0.79	36.0866
0.784	36.0475
0.778	36.0069
0.772	35.9156
0.766	35.8744
0.76	35.8457
0.754	35.8009
0.748	35.737
0.742	35.689
0.736	35.6266
0.73	35.5603
0.724	35.507
0.718	35.4428
0.712	35.3869
0.706	35.3359
0.7	35.2901
0.694	35.2509
0.688	35.2243
0.682	35.204
0.676	35.1943
0.67	35.1775
0.664	35.1705
0.658	35.1452
0.652	35.1119
0.646	35.0673
0.64	34.9915
0.634	34.8998
0.628	34.7742
0.622	34.6744
0.616	34.5585
0.61	34.4617
0.604	34.3856
0.598	34.2776
0.592	34.1536
0.586	33.953
0.58	33.6996
0.574	33.4864
0.568	33.3733
0.562	33.3262
0.556	33.2728
0.55	33.1724
0.544	32.9855
0.538	32.7264
0.532	32.412
0.526	32.1324
0.52	31.8706
0.514	31.6351
0.508	31.2783
0.502	30.9815
0.496	30.9103
0.49	30.8553
0.484	30.794
0.478	30.6411
0.472	30.4567
0.466	30.2805
0.46	30.0904
0.454	29.9089
0.448	29.711
0.442	29.4148
0.436	28.9792
0.43	28.5105
0.424	28.1396
0.418	27.8175
0.412	27.4651
0.406	27.0821
0.4	26.6215
