Name: Trona Na_3(CO_3)(HCO_3).2H_2O
Type: Mineral
Class: Carbonate
Subclass: None
Particle Size: Fine
Sample No.: C-4A
Owner: JPL
Wavelength Range: VSWIR
Origin: USA, Wyoming, Sweetwater County
Description: Particle size was 0-45um.Collected by Ward's Original ASTER Spectral Library name was jpl.beckman.mineral.carbonate.none.fine.c04a.spectrum.txt
Measurement: Hemispherical reflectance
X Units: Wavelength (micrometers)
Y Units: Reflectance (percent)
wavelength	value
0.4	69.21
0.403	69.9
0.406	70.13
0.409	70.58
0.412	71.04
0.415	71.1
0.418	71.89
0.421	71.78
0.424	72.47
0.427	72.58
0.43	73.09
0.433	73.44
0.436	73.73
0.439	74.19
0.442	74.24
0.445	74.75
0.448	74.64
0.451	75.39
0.454	75.34
0.457	75.67
0.46	75.74
0.463	76.27
0.466	76.27
0.469	76.62
0.472	76.85
0.475	76.86
0.478	77.43
0.481	77.26
0.484	77.79
0.487	77.62
0.49	78.08
0.493	78.09
0.496	78.49
0.499	78.72
0.502	78.38
0.505	79.01
0.508	78.84
0.511	79.3
0.514	79.41
0.517	79.41
0.52	79.87
0.523	79.76
0.526	80.16
0.529	79.87
0.532	80.28
0.535	80.1
0.538	80.38
0.541	80.73
0.544	80.28
0.547	80.9
0.55	80.78
0.553	81.13
0.556	81.24
0.559	81.19
0.562	81.24
0.565	81.53
0.568	81.48
0.571	81.53
0.574	81.59
0.577	81.53
0.58	81.88
0.583	81.42
0.586	82.04
0.589	81.76
0.592	82.33
0.595	82.21
0.598	82.27
0.601	82.44
0.604	82.5
0.607	82.85
0.61	82.39
0.613	82.91
0.616	82.67
0.619	82.91
0.622	83.02
0.625	82.91
0.628	83.19
0.631	82.96
0.634	83.37
0.637	83.02
0.64	83.48
0.643	83.25
0.646	83.42
0.649	83.65
0.652	83.6
0.655	83.87
0.658	83.6
0.661	83.93
0.664	83.54
0.667	84.22
0.67	83.93
0.673	84.16
0.676	84.22
0.679	83.99
0.682	84.34
0.685	84.1
0.688	84.51
0.691	84.34
0.694	84.57
0.697	84.51
0.7	84.34
0.703	84.39
0.706	84.62
0.709	84.45
0.712	84.85
0.715	84.8
0.718	84.97
0.721	85.14
0.724	84.97
0.727	85.08
0.73	84.85
0.733	85.36
0.736	85.08
0.739	85.31
0.742	85.26
0.745	85.14
0.748	85.71
0.751	85.2
0.754	85.65
0.757	85.53
0.76	85.71
0.763	85.71
0.766	85.65
0.769	85.71
0.772	85.36
0.775	85.88
0.778	85.65
0.781	85.88
0.784	85.94
0.787	85.82
0.79	86.17
0.793	85.94
0.796	86.28
0.799	86.17
0.808	86.17
0.82	86.34
0.832	86.46
0.844	86.51
0.856	86.63
0.868	86.46
0.88	86.4
0.892	86.51
0.904	86.69
0.916	86.51
0.928	86.69
0.94	86.69
0.952	86.57
0.964	86.57
0.976	86.51
0.988	86.28
1	86.23
1.012	86.23
1.024	86.23
1.036	86.57
1.048	86.63
1.06	86.4
1.072	86.46
1.084	86.51
1.096	86.4
1.108	86.46
1.12	86.51
1.132	86.57
1.144	86.11
1.156	85.7
1.168	85.04
1.18	84.4
1.192	84.15
1.204	83.91
1.216	83.79
1.228	83.45
1.24	83.56
1.252	83.68
1.264	83.65
1.276	83.7
1.288	83.72
1.3	83.48
1.312	83.18
1.324	82.81
1.336	82.4
1.348	82.14
1.36	81.97
1.372	81.8
1.384	81.69
1.396	81.17
1.408	80.05
1.42	78.52
1.432	76.3
1.444	73.82
1.456	71.71
1.468	69.77
1.48	68.11
1.492	66.68
1.504	65.82
1.516	65.31
1.528	65.19
1.54	66.17
1.552	67.54
1.564	68.34
1.576	68.74
1.588	68.51
1.6	68.11
1.612	67.35
1.624	66.71
1.636	65.83
1.648	64.9
1.66	63.92
1.672	63.05
1.684	61.94
1.696	60.91
1.708	60.1
1.72	59.07
1.732	58.16
1.744	57.77
1.756	57.59
1.768	57.59
1.78	57.42
1.792	57.19
1.804	57.07
1.816	56.95
1.828	56.55
1.84	56.16
1.852	55.48
1.864	54.39
1.876	52.67
1.888	50.44
1.9	47.49
1.912	42.83
1.924	38.16
1.936	34.8
1.948	34.12
1.96	35.4
1.972	37.02
1.984	38
1.996	38.09
2.008	37.57
2.02	36.5
2.032	35.8
2.044	35.52
2.056	35.62
2.068	36.25
2.08	37.09
2.092	37.95
2.104	38.73
2.116	39.41
2.128	39.83
2.14	40.08
2.152	40.26
2.164	40.32
2.176	40.24
2.188	40.03
2.2	39.84
2.212	39.46
2.224	39.49
2.236	39.63
2.248	39.78
2.26	39.74
2.272	39.34
2.284	39.01
2.296	38.55
2.308	37.87
2.32	37.15
2.332	36.51
2.344	35.87
2.356	34.94
2.368	34.01
2.38	33.11
2.392	32.25
2.404	31.96
2.416	31.74
2.428	31.62
2.44	31.5
2.452	31.27
2.464	31.1
2.476	30.65
2.488	30.36
2.5	29.86
