Name: Bustamite (Mn,Ca)3Si3O9
Type: Mineral
Class: Silicate
Subclass: Inosilicate
Particle Size: Coarse
Sample No.: bustamite_1
Owner: JHU
Wavelength Range: TIR
Origin: Smithsonian NMNH R3099 Sample from Franklin, New Jersey.
Description: The sample was a prismatic piece about 3 cm in length and 1-2 cm wide. It appeared pure except for a few grains of calcite that were removed. Under the petrographic microscope about 2% of grains show some light alteration.  The portion chosen for probe analysis was comprised of clean, homogeneous grains.  The sample was treated with acetic acid to remove any remaining calcite. Particle size was 74-250 Micrometers.(Chain Silicates) (Pyroxenoid Group) Original ASTER Spectral Library name was jhu.nicolet.mineral.silicate.inosilicate.coarse.bustam1.spectrum.txt
Measurement: Bidirectional reflectance
X Units: Wavelength (micrometers)
Y Units: Reflectance (percent)
wavelength	value
25.0442	3.0303
24.3388	2.9966
23.6719	2.9949
23.0407	3.8584
22.4422	3.9541
21.8741	4.543
21.334	5.2068
20.8199	5.5466
20.33	4.6687
19.8627	3.7097
19.4163	3.3262
18.9896	4.1062
18.5812	4.4438
18.19	4.5539
17.815	4.4429
17.4551	3.615
17.1094	2.4651
16.7772	1.3135
16.4576	1.1123
16.15	1.3105
15.8537	1.4995
15.568	1.6787
15.2925	1.9502
15.0265	1.4236
14.7697	1.5464
14.5214	1.7502
14.2814	1.4539
14.0492	1.4438
13.8244	1.5471
13.6067	1.6702
13.3957	1.8989
13.1912	1.9988
12.9929	2.019
12.8004	2.0654
12.6135	2.05
12.432	2.0454
12.2557	2.0403
12.0843	2.0789
11.9176	2.1128
11.7555	2.1758
11.5977	2.2732
11.444	2.4263
11.2944	2.6946
11.1487	3.3496
11.0067	4.5932
10.8682	4.1675
10.7332	3.1728
10.6015	3.9651
10.473	5.176
10.3476	5.5588
10.2251	4.0928
10.1056	3.9001
9.9887	3.104
9.8746	2.7961
9.763	3.1101
9.6539	2.7351
9.5472	2.4102
9.4429	3.4829
9.3408	4.199
9.2409	4.9866
9.1431	5.7847
9.0474	5.2214
8.9536	4.6899
8.8618	4.8096
8.7718	4.6662
8.6837	3.0525
8.5973	1.7966
8.5126	1.0415
8.4295	0.4526
8.3481	0.4343
8.2682	0.5549
8.1898	0.6899
8.1129	0.8096
8.0374	0.9109
7.9634	1.0105
7.8906	1.1121
7.8192	1.2551
7.7491	1.3818
7.6802	1.5161
7.6126	1.6248
7.5461	1.7322
7.4807	1.8911
7.4165	2.1338
7.3534	2.477
7.2914	2.7917
7.2303	2.9893
7.1703	3.1736
7.1113	3.3027
7.0533	3.3762
6.9962	3.4206
6.94	3.4836
6.8847	3.5615
6.8302	3.5991
6.7767	3.6191
6.7239	3.573
6.672	3.5007
6.6209	3.4145
6.5705	3.3237
6.5209	3.2913
6.4721	3.217
6.424	3.0273
6.3766	2.7668
6.3299	2.5803
6.2838	2.5884
6.2385	2.7217
6.1937	2.6924
6.1496	2.5483
6.1062	2.3962
6.0633	2.2822
6.0211	2.406
5.9794	2.7546
5.9383	3.0945
5.8978	3.2476
5.8578	3.2014
5.8184	3.1218
5.7794	3.0007
5.741	2.9824
5.7031	3.0586
5.6657	2.9844
5.6288	2.9622
5.5924	3.1868
5.5564	3.4285
5.5209	3.5454
5.4859	3.7695
5.4513	3.9558
5.4171	4.1028
5.3833	4.2986
5.35	4.1919
5.3171	3.8474
5.2846	3.4116
5.2524	3.1521
5.2207	3.1487
5.1893	3.4189
5.1584	3.7612
5.1277	4.146
5.0975	4.4158
5.0676	4.4563
5.038	4.3323
5.0088	4.2837
4.98	4.4294
4.9514	4.5505
4.9232	4.6921
4.8953	4.8247
4.8678	5.0124
4.8405	5.2222
4.8135	5.6296
4.7868	6.0388
4.7605	6.4206
4.7344	6.9299
4.7086	7.2947
4.6831	7.5884
4.6578	8.0754
4.6328	8.7178
4.6081	9.112
4.5837	9.3342
4.5595	9.5415
4.5356	9.9529
4.5119	10.2331
4.4884	10.4248
4.4652	10.5622
4.4423	10.6679
4.4196	10.7473
4.3971	10.7947
4.3748	10.8322
4.3528	10.8718
4.331	10.9113
4.3094	10.9704
4.288	11.0266
4.2668	11.0866
4.2458	11.1242
4.2251	11.1582
4.2045	11.1762
4.1841	11.208
4.164	11.2409
4.144	11.2868
4.1242	11.3327
4.1046	11.3657
4.0852	11.4223
4.066	11.4614
4.047	11.5014
4.0281	11.5359
4.0094	11.5686
3.9909	11.5676
3.9725	11.5896
3.9544	11.6267
3.9363	11.6784
3.9185	11.6999
3.9008	11.7341
3.8833	11.7549
3.8659	11.771
3.8487	11.771
3.8316	11.7739
3.8147	11.7768
3.7979	11.7768
3.7813	11.757
3.7648	11.7522
3.7485	11.7456
3.7323	11.7141
3.7162	11.675
3.7003	11.6504
3.6845	11.6262
3.6689	11.5918
3.6534	11.5818
3.638	11.5449
3.6227	11.5041
3.6076	11.4638
3.5926	11.4106
3.5777	11.3874
3.563	11.3488
3.5484	11.3147
3.5338	11.2905
3.5195	11.2798
3.5052	11.2461
3.491	11.2407
3.477	11.218
3.463	11.2102
3.4492	11.1653
3.4355	11.1291
3.4219	11.0859
3.4084	11.0671
3.395	11.0481
3.3817	11.0051
3.3685	10.9675
3.3554	10.8979
3.3425	10.8347
3.3296	10.7771
3.3168	10.6931
3.3041	10.603
3.2915	10.5073
3.279	10.4092
3.2666	10.2973
3.2543	10.1614
3.2421	10.0508
3.23	9.9209
3.218	9.7788
3.206	9.6343
3.1942	9.4675
3.1824	9.3022
3.1707	9.1428
3.1591	8.9802
3.1476	8.8003
3.1362	8.6316
3.1249	8.4653
3.1136	8.3144
3.1024	8.1684
3.0913	8.041
3.0803	7.9194
3.0694	7.8298
3.0585	7.7341
3.0477	7.6482
3.037	7.5683
3.0264	7.4656
3.0158	7.3845
3.0053	7.2881
2.9949	7.1875
2.9845	7.1096
2.9743	7.0078
2.9641	6.9118
2.9539	6.8218
2.9439	6.772
2.9339	6.708
2.9239	6.7097
2.9141	6.7131
2.9043	6.7475
2.8946	6.8052
2.8849	6.8921
2.8753	6.9685
2.8658	7.0508
2.8563	7.164
2.8469	7.2756
2.8375	7.3596
2.8282	7.4829
2.819	7.6211
2.8098	7.7524
2.8007	7.8967
2.7917	8.0512
2.7827	8.2043
2.7738	8.3935
2.7649	8.5864
2.7561	8.8171
2.7473	9.1162
2.7386	9.5288
2.7299	9.9753
2.7213	10.4414
2.7128	10.831
2.7043	11.1311
2.6959	11.3257
2.6875	11.445
2.6791	11.4973
2.6709	11.5334
2.6626	11.7085
2.6545	11.7617
2.6463	11.7654
2.6382	11.7768
2.6302	11.8012
2.6222	11.8017
2.6143	11.802
2.6064	11.7973
2.5986	11.7754
2.5908	11.8051
2.583	11.8047
2.5753	11.7981
2.5677	11.7744
2.5601	11.7644
2.5525	11.7097
2.545	11.7448
2.5375	11.7512
2.5301	11.7373
2.5227	11.6894
2.5154	11.7129
2.5081	11.6987
2.5008	11.7138
2.4936	11.6855
2.4864	11.6858
2.4793	11.6699
2.4722	11.6665
2.4651	11.5883
2.4581	11.6313
2.4511	11.6479
2.4442	11.6091
2.4373	11.5942
2.4305	11.6071
2.4236	11.5986
2.4169	11.6203
2.4101	11.6142
2.4034	11.5918
2.3967	11.5693
2.3901	11.5444
2.3835	11.5405
2.377	11.5425
2.3704	11.5171
2.364	11.5322
2.3575	11.5425
2.3511	11.4919
2.3447	11.49
2.3384	11.456
2.3321	11.466
2.3258	11.4624
2.3195	11.4397
2.3133	11.4707
2.3071	11.4819
2.301	11.4438
2.2949	11.4477
2.2888	11.4182
2.2828	11.3928
2.2767	11.3925
2.2708	11.4016
2.2648	11.3984
2.2589	11.4026
2.253	11.3633
2.2471	11.3708
2.2413	11.3696
2.2355	11.3869
2.2297	11.3481
2.224	11.3242
2.2183	11.3525
2.2126	11.3628
2.207	11.3488
2.2013	11.3476
2.1957	11.3418
2.1902	11.3403
2.1846	11.3564
2.1791	11.3183
2.1736	11.3413
2.1682	11.3342
2.1628	11.3901
2.1574	11.3584
2.152	11.3608
2.1466	11.332
2.1413	11.3437
2.136	11.3642
2.1308	11.2805
2.1255	11.3244
2.1203	11.3078
2.1151	11.3242
2.11	11.3137
2.1048	11.3252
2.0997	11.3117
2.0946	11.4123
2.0895	11.383
2.0845	11.3667
2.0795	11.3066
