Name: Cristobalite SiO_2
Type: Mineral
Class: Silicate
Subclass: Tectosilicate
Particle Size: Fine
Sample No.: TS-7A
Owner: JPL
Wavelength Range: TIR
Origin: USA, California, Inyo County, Little Lake
Description: Particle size was 0-45um.Collected by Burminco Original ASTER Spectral Library name was jpl.nicolet.mineral.silicate.tectosilicate.fine.ts07a.spectrum.txt
Measurement: Hemispherical reflectance
X Units: Wavelength (micrometers)
Y Units: Reflectance (percent)
wavelength	value
15.3853	1.1771
15.1161	1.2871
14.8563	2.0409
14.6052	2.2934
14.3624	2.3552
14.1276	2.2615
13.9004	1.8437
13.6803	1.8628
13.4671	1.9321
13.2604	2.1146
13.06	2.0027
12.8656	2.2066
12.6769	1.6577
12.4936	1.4463
12.3155	2.2498
12.1425	4.5601
11.9742	6.8131
11.8106	8.0627
11.6513	9.0553
11.4963	9.3495
11.3454	9.5818
11.1983	9.2995
11.0551	8.8147
10.9154	8.0312
10.7793	6.6006
10.6465	5.4928
10.5169	4.3499
10.3904	3.9756
10.267	3.5358
10.1464	3.6154
10.0287	3.7143
9.9136	3.6931
9.8012	3.657
9.6913	3.6011
9.5838	3.6473
9.4787	3.6105
9.3758	3.5929
9.2752	3.914
9.1767	4.5927
9.0803	4.5605
8.9858	4.5674
8.8934	4.56
8.8028	4.2889
8.714	4.3
8.627	4.3037
8.5417	4.6149
8.4581	4.3536
8.3761	3.859
8.2957	4.1439
8.2169	4.5125
8.1395	3.9665
8.0635	3.365
7.989	2.9852
7.9158	2.782
7.8439	2.2887
7.7734	1.884
7.7041	1.6688
7.636	1.4673
7.5691	1.4008
7.5034	1.5732
7.4388	1.6172
7.3753	1.7853
7.3129	2.0778
7.2515	2.2787
7.1912	2.779
7.1318	2.9467
7.0734	3.3392
7.016	3.7225
6.9595	4.0982
6.9039	4.4701
6.8492	4.9072
6.7953	5.4488
6.7423	5.816
6.6901	6.208
6.6387	6.9204
6.5881	7.1679
6.5382	7.5578
6.4892	8.3415
6.4408	8.3936
6.3931	8.4331
6.3462	8.3888
6.2999	7.8385
6.2543	7.3256
6.2094	6.819
6.1651	6.6433
6.1214	7.1403
6.0784	7.8029
6.0359	8.5819
5.994	9.5295
5.9527	10.3571
5.912	11.0808
5.8718	11.5022
5.8322	11.5407
5.7931	11.3153
5.7545	11.3351
5.7165	11.2636
5.6789	11.1399
5.6418	11.3692
5.6052	11.4647
5.5691	11.9179
5.5334	12.503
5.4982	13.1949
5.4635	13.7993
5.4291	13.8994
5.3952	13.2759
5.3618	11.7306
5.3287	11.383
5.2961	12.1774
5.2638	13.8134
5.2319	16.2543
5.2004	18.3552
5.1693	19.5291
5.1386	20.2594
5.1082	20.4008
5.0782	20.2635
5.0485	19.9617
5.0192	19.8669
4.9902	20.0862
4.9616	20.7122
4.9332	22.5752
4.9052	25.5313
4.8776	28.0423
4.8502	29.8243
4.8231	31.139
4.7963	31.8735
4.7699	32.6566
4.7437	33.0279
4.7178	33.457
4.6922	33.8356
4.6668	34.2484
4.6418	34.4662
4.617	35.2074
4.5924	35.9692
4.5681	36.5381
4.5441	37.1445
4.5203	37.7774
4.4968	38.2426
4.4735	38.6756
4.4505	38.9518
4.4277	39.0036
4.4051	39.0927
4.3828	39.7183
4.3607	40.604
4.3388	41.5086
4.3171	42.4042
4.2956	42.9847
4.2744	43.5883
4.2534	44.209
4.2325	44.2225
4.2119	44.6503
4.1915	44.9781
4.1712	45.3195
4.1512	45.5413
4.1313	45.827
4.1117	46.1447
4.0922	46.4326
4.0729	46.6187
4.0538	46.7514
4.0349	47.0751
4.0161	47.1659
3.9976	47.1856
3.9792	47.3483
3.9609	47.3627
3.9428	47.4225
3.9249	47.4921
3.9072	47.7037
3.8896	47.6093
3.8722	47.8158
3.8549	47.7235
3.8378	47.8374
3.8208	47.8643
3.804	47.9878
3.7873	47.9549
3.7708	47.9109
3.7544	47.88
3.7382	47.8206
3.7221	47.8527
3.7061	47.8922
3.6903	47.9731
3.6746	47.9433
3.659	47.9732
3.6436	47.807
3.6283	47.8506
3.6131	47.7565
3.5981	47.6829
3.5832	47.3525
3.5684	47.3384
3.5537	47.19
3.5391	46.993
3.5247	46.8289
3.5104	46.191
3.4962	45.7292
3.4821	45.6454
3.4681	45.6224
3.4543	45.3368
3.4405	44.8629
3.4269	44.2635
3.4133	43.4378
3.3999	43.4608
3.3866	43.5503
3.3733	42.9896
3.3602	43.0029
3.3472	42.7854
3.3343	42.5942
3.3215	42.2844
3.3088	41.8499
3.2961	41.5481
3.2836	40.9062
3.2712	40.5376
3.2588	40.0728
3.2466	39.5295
3.2345	39.0488
3.2224	38.5395
3.2104	38.0357
3.1985	37.5763
3.1867	36.9083
3.175	36.3118
3.1634	35.8671
3.1519	35.2107
3.1404	34.6341
3.129	33.9793
3.1178	33.4234
3.1065	33.0532
3.0954	32.4821
3.0844	32.074
3.0734	31.8443
3.0625	31.7402
3.0517	31.281
3.041	30.8964
3.0303	30.8143
3.0197	30.4639
3.0092	30.0265
2.9987	29.8326
2.9884	29.3592
2.9781	29.1149
2.9678	28.9224
2.9577	28.486
2.9476	28.0899
2.9376	27.7851
2.9276	27.6627
2.9177	27.8175
2.9079	28.0826
2.8982	27.9951
2.8885	27.8166
2.8789	27.8159
2.8693	28.1066
2.8598	28.7682
2.8504	29.0625
2.841	29.351
2.8317	29.7633
2.8224	29.8924
2.8133	30.5289
2.8041	31.2026
2.7951	31.6039
2.786	32.3528
2.7771	33.2653
2.7682	34.3676
2.7594	35.0025
2.7506	35.9234
2.7418	37.4185
2.7332	38.5661
2.7246	40.9089
2.716	42.8447
2.7075	46.576
2.699	48.5343
2.6906	50.0217
2.6823	50.719
2.674	51.4318
2.6657	53.3432
2.6575	52.1847
2.6494	52.3981
2.6413	52.6878
2.6332	52.9886
2.6252	53.0043
2.6173	53.6853
2.6094	53.3125
2.6015	53.3196
2.5937	54.2537
2.5859	53.4896
2.5782	53.4222
2.5706	53.3935
2.5629	53.8451
2.5554	53.1991
2.5478	53.3681
2.5403	53.2533
2.5329	53.3404
2.5255	53.3344
2.5181	53.4065
2.5108	53.4601
2.5035	53.2986
2.4963	53.3785
2.4891	53.7102
2.482	53.5658
2.4749	53.7079
2.4678	53.8008
2.4608	53.6777
2.4538	53.6062
2.4468	53.9132
2.4399	53.8448
2.4331	53.9266
2.4262	53.9073
2.4194	53.9608
2.4127	54.1686
2.4059	54.0864
2.3993	54.0955
2.3926	54.0887
2.386	54.2036
2.3795	54.2708
2.3729	54.2533
2.3664	54.4138
2.36	54.526
2.3535	54.3589
2.3471	54.3337
2.3408	54.42
2.3345	54.3367
2.3282	54.581
2.3219	54.3675
2.3157	54.3286
2.3095	54.3661
2.3034	54.4055
2.2972	54.2631
2.2911	54.5667
2.2851	54.3651
2.279	54.4428
2.2731	54.54
2.2671	54.4948
2.2612	54.3578
2.2553	54.4085
2.2494	54.5188
2.2435	54.3703
2.2377	54.3599
2.232	54.3473
2.2262	54.425
2.2205	54.3659
2.2148	54.3921
2.2091	54.3805
2.2035	54.4632
2.1979	54.5429
2.1923	54.495
2.1868	54.5444
2.1812	54.7174
2.1758	54.4519
2.1703	54.7257
2.1649	54.716
2.1595	54.428
2.1541	54.6909
2.1487	54.6258
2.1434	54.7603
2.1381	54.8082
2.1328	54.8183
2.1275	54.4304
2.1223	54.5333
2.1171	54.8491
2.112	54.7808
2.1068	54.6874
2.1017	54.6115
2.0966	54.5445
2.0915	54.885
2.0865	55.1732
2.0814	54.9306
2.0764	54.6547
2.0715	54.8959
2.0665	55.0941
2.0616	54.5754
2.0567	54.7351
2.0518	54.9833
2.0469	54.9297
2.0421	54.7929
2.0373	54.9179
2.0325	54.8949
2.0277	54.9976
2.0229	54.6394
2.0182	55.2128
2.0135	54.8943
2.0088	54.7097
2.0042	55.0373
