Name: Glauconite (K,Na)(Fe^3+,Al,Mg)_2(Si,Al)_4O_10(OH)_2
Type: Mineral
Class: Silicate
Subclass: Phyllosilicate
Particle Size: Medium
Sample No.: PS-19A
Owner: JPL
Wavelength Range: TIR
Origin: USA, New Jersey
Description: Particle size was 45-125um.Collected by Ward's Original ASTER Spectral Library name was jpl.nicolet.mineral.silicate.phyllosilicate.medium.ps19a.spectrum.txt
Measurement: Hemispherical reflectance
X Units: Wavelength (micrometers)
Y Units: Reflectance (percent)
wavelength	value
15.3853	0.899
15.1161	1.0334
14.8563	1.0394
14.6052	0.9128
14.3624	1.0745
14.1276	0.8067
13.9004	0.9052
13.6803	1.3152
13.4671	1.2955
13.2604	1.4773
13.06	1.3829
12.8656	1.7551
12.6769	1.5314
12.4936	1.7505
12.3155	1.7509
12.1425	1.5441
11.9742	1.8522
11.8106	1.8444
11.6513	2.0014
11.4963	2.1206
11.3454	2.2189
11.1983	2.2846
11.0551	2.5627
10.9154	2.77
10.7793	2.9861
10.6465	3.744
10.5169	4.3445
10.3904	5.0758
10.267	5.8452
10.1464	6.3364
10.0287	6.9537
9.9136	7.6399
9.8012	8.3291
9.6913	8.5941
9.5838	9.3169
9.4787	9.1315
9.3758	7.5653
9.2752	6.3203
9.1767	5.3792
9.0803	4.4893
8.9858	3.6524
8.8934	2.5269
8.8028	1.6521
8.714	1.0662
8.627	0.6879
8.5417	0.7271
8.4581	0.7013
8.3761	0.4986
8.2957	0.7922
8.2169	0.6848
8.1395	0.7935
8.0635	0.7613
7.989	0.6218
7.9158	0.6868
7.8439	0.8239
7.7734	0.8447
7.7041	1.0517
7.636	1.1834
7.5691	1.1513
7.5034	1.366
7.4388	1.3639
7.3753	1.627
7.3129	1.7896
7.2515	1.7333
7.1912	1.9938
7.1318	2.153
7.0734	2.2613
7.016	2.3658
6.9595	2.5363
6.9039	2.5978
6.8492	2.8135
6.7953	2.9245
6.7423	3.254
6.6901	3.297
6.6387	3.1428
6.5881	3.5024
6.5382	3.3528
6.4892	3.139
6.4408	2.9408
6.3931	2.9155
6.3462	2.3469
6.2999	2.0759
6.2543	1.6316
6.2094	1.3314
6.1651	1.0448
6.1214	0.9251
6.0784	1.0257
6.0359	1.1213
5.994	1.2529
5.9527	1.4408
5.912	1.8995
5.8718	2.1137
5.8322	2.5683
5.7931	3.0588
5.7545	3.4667
5.7165	3.6617
5.6789	3.8129
5.6418	4.1125
5.6052	4.4097
5.5691	4.5292
5.5334	4.9003
5.4982	5.0906
5.4635	5.2362
5.4291	5.4961
5.3952	5.7292
5.3618	5.9609
5.3287	6.3063
5.2961	6.6403
5.2638	7.1247
5.2319	7.5352
5.2004	8.0017
5.1693	8.329
5.1386	8.5533
5.1082	8.7114
5.0782	8.8277
5.0485	9.077
5.0192	9.1401
4.9902	9.3857
4.9616	9.4373
4.9332	9.6514
4.9052	9.9093
4.8776	10.1131
4.8502	10.0732
4.8231	10.4346
4.7963	10.6865
4.7699	10.9368
4.7437	11.3347
4.7178	11.6311
4.6922	11.789
4.6668	12.1059
4.6418	12.3641
4.617	12.5501
4.5924	12.9125
4.5681	13.2699
4.5441	13.3133
4.5203	13.5624
4.4968	13.8779
4.4735	14.0059
4.4505	14.3374
4.4277	14.5521
4.4051	14.7576
4.3828	14.8443
4.3607	15.0786
4.3388	15.202
4.3171	15.4375
4.2956	15.5808
4.2744	15.7878
4.2534	15.841
4.2325	16.0792
4.2119	16.1271
4.1915	16.1049
4.1712	16.2816
4.1512	16.4094
4.1313	16.4167
4.1117	16.5937
4.0922	16.4993
4.0729	16.6013
4.0538	16.6066
4.0349	16.6468
4.0161	16.6996
3.9976	16.6216
3.9792	16.5693
3.9609	16.6052
3.9428	16.5172
3.9249	16.4772
3.9072	16.407
3.8896	16.2556
3.8722	16.0531
3.8549	15.7478
3.8378	15.6281
3.8208	15.3131
3.804	15.0048
3.7873	14.5739
3.7708	14.2459
3.7544	13.8408
3.7382	13.3708
3.7221	13.016
3.7061	12.5319
3.6903	11.9688
3.6746	11.5647
3.659	11.0643
3.6436	10.5074
3.6283	10.1512
3.6131	9.6732
3.5981	9.2308
3.5832	8.7288
3.5684	8.3908
3.5537	7.8427
3.5391	7.442
3.5247	6.9939
3.5104	6.5826
3.4962	6.2406
3.4821	5.9219
3.4681	5.4691
3.4543	5.2176
3.4405	4.896
3.4269	4.678
3.4133	4.2703
3.3999	4.0755
3.3866	3.9673
3.3733	3.5951
3.3602	3.4752
3.3472	3.412
3.3343	3.0436
3.3215	2.9346
3.3088	2.6935
3.2961	2.5824
3.2836	2.4971
3.2712	2.3644
3.2588	2.366
3.2466	2.1684
3.2345	2.0973
3.2224	2.0554
3.2104	2.0071
3.1985	1.7567
3.1867	1.7689
3.175	1.8752
3.1634	1.7085
3.1519	1.692
3.1404	1.7455
3.129	1.6834
3.1178	1.5295
3.1065	1.5386
3.0954	1.5792
3.0844	1.432
3.0734	1.4501
3.0625	1.4289
3.0517	1.5653
3.041	1.4771
3.0303	1.4688
3.0197	1.473
3.0092	1.4262
2.9987	1.5584
2.9884	1.4001
2.9781	1.5279
2.9678	1.263
2.9577	1.3116
2.9476	1.3026
2.9376	1.2518
2.9276	1.2968
2.9177	1.3711
2.9079	1.2483
2.8982	1.4429
2.8885	1.3717
2.8789	1.3955
2.8693	1.575
2.8598	1.3197
2.8504	1.2144
2.841	1.3628
2.8317	1.0929
2.8224	1.1002
2.8133	1.2731
2.8041	1.0742
2.7951	1.2087
2.786	1.0315
2.7771	1.4431
2.7682	1.1622
2.7594	1.2257
2.7506	1.2393
2.7418	1.565
2.7332	1.7656
2.7246	1.8863
2.716	2.6295
2.7075	3.5421
2.699	4.5603
2.6906	6.2892
2.6823	10.3048
2.674	13.1165
2.6657	14.6876
2.6575	16.5195
2.6494	17.7996
2.6413	18.6869
2.6332	19.7432
2.6252	20.3153
2.6173	20.5972
2.6094	21.3547
2.6015	21.8004
2.5937	21.8378
2.5859	22.7956
2.5782	23.1059
2.5706	23.4557
2.5629	23.2891
2.5554	23.9601
2.5478	23.8288
2.5403	23.8487
2.5329	23.8746
2.5255	23.9506
2.5181	23.8644
2.5108	23.9266
2.5035	23.899
2.4963	24.2496
2.4891	24.2733
2.482	24.6443
2.4749	24.8462
2.4678	25.1008
2.4608	25.5475
2.4538	26.0735
2.4468	26.4984
2.4399	26.6479
2.4331	27.4528
2.4262	27.5764
2.4194	28.1647
2.4127	27.9846
2.4059	28.0639
2.3993	27.6339
2.3926	27.1128
2.386	26.1822
2.3795	25.2953
2.3729	24.4491
2.3664	24.0155
2.36	24.3346
2.3535	24.8399
2.3471	25.2325
2.3408	25.9172
2.3345	25.9104
2.3282	25.2474
2.3219	23.8369
2.3157	22.5749
2.3095	22.4576
2.3034	23.0549
2.2972	24.3993
2.2911	26.0648
2.2851	27.8524
2.279	28.981
2.2731	28.5766
2.2671	28.5858
2.2612	28.2205
2.2553	28.3271
2.2494	28.3662
2.2435	28.7543
2.2377	29.3646
2.232	30.0073
2.2262	30.4563
2.2205	30.7944
2.2148	30.8624
2.2091	31.0158
2.2035	30.8888
2.1979	31.1635
2.1923	31.0337
2.1868	31.3577
2.1812	31.2957
2.1758	31.2358
2.1703	31.2091
2.1649	30.9335
2.1595	30.9981
2.1541	30.9785
2.1487	30.8295
2.1434	30.7731
2.1381	30.5348
2.1328	30.7467
2.1275	30.4262
2.1223	29.9051
2.1171	29.7469
2.112	29.8778
2.1068	29.8228
2.1017	29.0528
2.0966	28.8812
2.0915	28.6919
2.0865	28.4867
2.0814	28.3788
2.0764	28.4945
2.0715	28.3289
2.0665	27.9437
2.0616	26.8578
2.0567	27.1105
2.0518	26.5938
2.0469	26.3534
2.0421	26.1907
2.0373	25.7585
2.0325	25.4624
2.0277	25.3081
2.0229	24.9319
2.0182	24.751
2.0135	24.2476
2.0088	24.199
2.0042	23.8013
