Name: Cordierite Mg_2Al_3(Si_5Al)O_18
Type: Mineral
Class: Silicate
Subclass: Cyclosilicate
Particle Size: Fine
Sample No.: CS-3A
Owner: JPL
Wavelength Range: TIR
Origin: Canada, Northwest Territories, Mackenzie District, Great Bear Lake
Description: Particle size was 0-45um.Collected by Ward's Original ASTER Spectral Library name was jpl.nicolet.mineral.silicate.cyclosilicate.fine.cs03a.spectrum.txt
Measurement: Hemispherical reflectance
X Units: Wavelength (micrometers)
Y Units: Reflectance (percent)
wavelength	value
15.3853	3.8355
15.1161	4.3464
14.8563	3.8289
14.6052	4.5707
14.3624	4.8427
14.1276	5.5177
13.9004	6.2672
13.6803	5.7608
13.4671	5.0238
13.2604	4.8645
13.06	6.822
12.8656	6.3104
12.6769	4.6602
12.4936	3.2363
12.3155	4.135
12.1425	4.9235
11.9742	6.2343
11.8106	7.1454
11.6513	6.8737
11.4963	6.792
11.3454	6.4975
11.1983	6.6748
11.0551	7.78
10.9154	6.9128
10.7793	5.7407
10.6465	9.5014
10.5169	13.0982
10.3904	16.2143
10.267	15.6553
10.1464	14.4593
10.0287	10.3048
9.9136	7.5207
9.8012	7.6916
9.6913	7.5356
9.5838	7.2981
9.4787	6.9646
9.3758	6.0129
9.2752	5.0543
9.1767	4.1636
9.0803	3.8634
8.9858	3.9807
8.8934	3.9065
8.8028	4.7455
8.714	4.3524
8.627	5.517
8.5417	8.2383
8.4581	11.4987
8.3761	13.0497
8.2957	14.2803
8.2169	14.6254
8.1395	12.1281
8.0635	6.3975
7.989	3.4673
7.9158	1.9971
7.8439	1.2834
7.7734	1.1792
7.7041	1.2482
7.636	1.6303
7.5691	1.9767
7.5034	2.4846
7.4388	3.2013
7.3753	3.8446
7.3129	4.3622
7.2515	5.1685
7.1912	5.8613
7.1318	6.8027
7.0734	7.5283
7.016	8.4007
6.9595	9.1857
6.9039	9.5154
6.8492	9.3925
6.7953	9.4305
6.7423	9.8935
6.6901	10.7538
6.6387	12.0891
6.5881	12.5102
6.5382	13.6334
6.4892	14.1824
6.4408	12.0071
6.3931	10.3191
6.3462	11.4911
6.2999	11.8535
6.2543	10.8462
6.2094	12.8841
6.1651	11.8977
6.1214	8.0835
6.0784	11.8984
6.0359	14.5382
5.994	16.5064
5.9527	17.4592
5.912	18.0825
5.8718	19.2213
5.8322	19.9662
5.7931	20.567
5.7545	22.1942
5.7165	23.8465
5.6789	24.7759
5.6418	26.5045
5.6052	27.3304
5.5691	28.2008
5.5334	28.4315
5.4982	28.2199
5.4635	26.8923
5.4291	25.4788
5.3952	24.2067
5.3618	22.8283
5.3287	22.1121
5.2961	22.2238
5.2638	22.7141
5.2319	23.6729
5.2004	25.7739
5.1693	28.6292
5.1386	31.725
5.1082	34.532
5.0782	37.2711
5.0485	40.1516
5.0192	42.4315
4.9902	43.382
4.9616	46.2289
4.9332	48.7054
4.9052	50.5811
4.8776	51.9468
4.8502	52.8618
4.8231	53.4447
4.7963	53.7498
4.7699	53.9348
4.7437	54.434
4.7178	55.3942
4.6922	55.821
4.6668	56.418
4.6418	56.7262
4.617	56.8893
4.5924	57.0915
4.5681	57.7533
4.5441	58.6377
4.5203	58.9067
4.4968	57.9486
4.4735	55.4666
4.4505	55.2571
4.4277	56.0311
4.4051	55.2921
4.3828	41.2558
4.3607	52.9531
4.3388	36.8222
4.3171	44.0691
4.2956	39.2499
4.2744	23.0715
4.2534	7.1752
4.2325	46.5024
4.2119	49.1296
4.1915	37.2783
4.1712	47.3559
4.1512	61.0707
4.1313	62.4343
4.1117	62.1033
4.0922	61.8462
4.0729	60.6932
4.0538	62.7318
4.0349	64.3016
4.0161	65.0454
3.9976	65.295
3.9792	65.4977
3.9609	65.6864
3.9428	65.825
3.9249	65.9415
3.9072	66.0984
3.8896	66.068
3.8722	66.108
3.8549	66.0167
3.8378	65.877
3.8208	65.4314
3.804	65.882
3.7873	65.7427
3.7708	65.6732
3.7544	65.3817
3.7382	65.2713
3.7221	64.9372
3.7061	64.7952
3.6903	64.4705
3.6746	64.2223
3.659	63.7749
3.6436	63.5327
3.6283	63.2129
3.6131	62.858
3.5981	62.5683
3.5832	62.0496
3.5684	61.6303
3.5537	61.2381
3.5391	60.7145
3.5247	60.246
3.5104	59.2357
3.4962	58.6588
3.4821	58.3186
3.4681	57.9871
3.4543	57.5456
3.4405	56.9598
3.4269	56.1516
3.4133	55.5948
3.3999	55.4514
3.3866	55.3516
3.3733	54.8338
3.3602	54.6202
3.3472	54.3704
3.3343	54.0522
3.3215	53.5892
3.3088	53.1167
3.2961	52.4627
3.2836	52.1225
3.2712	51.6282
3.2588	51.1561
3.2466	50.5712
3.2345	50.0685
3.2224	49.5839
3.2104	49.0518
3.1985	48.6141
3.1867	48.076
3.175	47.5189
3.1634	47.1018
3.1519	46.7024
3.1404	46.1637
3.129	45.7793
3.1178	45.2688
3.1065	44.7309
3.0954	44.2154
3.0844	43.5774
3.0734	43.5335
3.0625	43.4273
3.0517	43.2782
3.041	42.9687
3.0303	42.5449
3.0197	42.4329
3.0092	41.9779
2.9987	41.7355
2.9884	41.2317
2.9781	40.9208
2.9678	40.5442
2.9577	40.169
2.9476	39.758
2.9376	39.5474
2.9276	39.3304
2.9177	39.0416
2.9079	38.7135
2.8982	38.5405
2.8885	38.1562
2.8789	37.79
2.8693	37.3952
2.8598	36.9214
2.8504	36.2713
2.841	35.9208
2.8317	35.3412
2.8224	34.5035
2.8133	32.3238
2.8041	28.6487
2.7951	25.2597
2.786	30.8409
2.7771	31.8865
2.7682	31.0258
2.7594	26.8243
2.7506	26.0119
2.7418	29.2682
2.7332	32.6091
2.7246	33.2318
2.716	22.598
2.7075	15.0442
2.699	33.1367
2.6906	45.6277
2.6823	52.7785
2.674	56.1368
2.6657	59.7017
2.6575	59.0134
2.6494	59.2606
2.6413	60.009
2.6332	60.7129
2.6252	60.8442
2.6173	62.085
2.6094	61.7189
2.6015	61.8823
2.5937	64.0099
2.5859	62.3456
2.5782	62.6379
2.5706	63.5971
2.5629	64.887
2.5554	64.5371
2.5478	65.7325
2.5403	66.7786
2.5329	68.4937
2.5255	69.4125
2.5181	70.7677
2.5108	71.4859
2.5035	72.3673
2.4963	73.1326
2.4891	73.846
2.482	74.1716
2.4749	74.4495
2.4678	75.1318
2.4608	75.3873
2.4538	75.6868
2.4468	76.1189
2.4399	76.1535
2.4331	76.6375
2.4262	76.5947
2.4194	76.9745
2.4127	77.1946
2.4059	77.2632
2.3993	77.26
2.3926	77.2999
2.386	77.4803
2.3795	77.5986
2.3729	77.643
2.3664	77.668
2.36	77.6837
2.3535	77.6528
2.3471	77.7858
2.3408	77.7287
2.3345	77.8896
2.3282	77.9973
2.3219	77.9973
2.3157	77.864
2.3095	78.1387
2.3034	78.1979
2.2972	78.1569
2.2911	78.0437
2.2851	78.0032
2.279	78.2275
2.2731	78.0951
2.2671	78.2308
2.2612	78.1644
2.2553	78.1039
2.2494	78.0552
2.2435	78.0861
2.2377	78.313
2.232	78.242
2.2262	78.131
2.2205	78.2883
2.2148	78.1622
2.2091	78.0761
2.2035	78.1051
2.1979	78.3755
2.1923	78.2851
2.1868	78.5945
2.1812	78.4955
2.1758	78.454
2.1703	78.6722
2.1649	78.898
2.1595	79.0046
2.1541	78.8521
2.1487	79.2371
2.1434	79.3545
2.1381	79.4912
2.1328	79.3659
2.1275	79.3249
2.1223	79.3448
2.1171	79.4252
2.112	79.2564
2.1068	79.5543
2.1017	79.4256
2.0966	79.3711
2.0915	79.5191
2.0865	79.3699
2.0814	79.4638
2.0764	79.478
2.0715	79.727
2.0665	79.7089
2.0616	79.7004
2.0567	79.9096
2.0518	79.7351
2.0469	79.6224
2.0421	79.7031
2.0373	79.9079
2.0325	79.7072
2.0277	79.8047
2.0229	79.7134
2.0182	79.815
2.0135	79.1396
2.0088	79.6238
2.0042	79.5503
