Name: Siderite Fe^2+CO_3
Type: Mineral
Class: Carbonate
Subclass: None
Particle Size: Medium
Sample No.: C-9A
Owner: JPL
Wavelength Range: TIR
Origin: N/A
Description: Particle size was 45-125um.Collected by JPL Original ASTER Spectral Library name was jpl.nicolet.mineral.carbonate.none.medium.c09a.spectrum.txt
Measurement: Hemispherical reflectance
X Units: Wavelength (micrometers)
Y Units: Reflectance (percent)
wavelength	value
15.3853	10.7059
15.1161	10.6909
14.8563	10.4158
14.6052	9.6879
14.3624	8.939
14.1276	7.9437
13.9004	5.7431
13.6803	4.897
13.4671	2.9903
13.2604	5.1562
13.06	8.6176
12.8656	12.2831
12.6769	13.4025
12.4936	14.827
12.3155	13.0526
12.1425	12.1484
11.9742	6.9605
11.8106	7.7286
11.6513	7.4697
11.4963	13.0472
11.3454	17.1437
11.1983	7.4982
11.0551	7.8672
10.9154	8.5384
10.7793	8.8828
10.6465	9.3972
10.5169	9.883
10.3904	10.0435
10.267	10.3497
10.1464	10.5706
10.0287	10.4922
9.9136	11.3013
9.8012	11.0035
9.6913	10.335
9.5838	10.091
9.4787	10.8909
9.3758	13.3987
9.2752	15.3044
9.1767	14.9651
9.0803	15.6235
8.9858	15.3585
8.8934	15.106
8.8028	14.7234
8.714	13.4023
8.627	10.584
8.5417	12.5687
8.4581	12.4951
8.3761	12.6709
8.2957	12.4649
8.2169	12.3099
8.1395	10.9606
8.0635	9.1135
7.989	7.8883
7.9158	6.9626
7.8439	6.6985
7.7734	6.5403
7.7041	6.675
7.636	6.7259
7.5691	6.9956
7.5034	7.383
7.4388	7.7658
7.3753	8.734
7.3129	9.8256
7.2515	11.6084
7.1912	15.2059
7.1318	18.3786
7.0734	19.0314
7.016	19.3778
6.9595	20.0001
6.9039	20.7092
6.8492	21.6122
6.7953	22.9666
6.7423	25.1728
6.6901	28.901
6.6387	31.8723
6.5881	32.9675
6.5382	33.4804
6.4892	33.9552
6.4408	30.1072
6.3931	14.6768
6.3462	5.3865
6.2999	1.933
6.2543	0.9123
6.2094	0.5897
6.1651	0.7108
6.1214	0.742
6.0784	0.9905
6.0359	1.0998
5.994	1.2019
5.9527	1.2084
5.912	1.545
5.8718	1.9385
5.8322	2.5385
5.7931	2.993
5.7545	3.395
5.7165	3.6123
5.6789	3.5253
5.6418	3.0216
5.6052	2.5426
5.5691	2.0922
5.5334	1.8207
5.4982	2.0451
5.4635	2.7853
5.4291	5.5578
5.3952	8.7751
5.3618	10.8959
5.3287	13.2105
5.2961	14.9416
5.2638	16.7603
5.2319	19.0761
5.2004	20.9334
5.1693	20.9558
5.1386	19.3925
5.1082	20.7343
5.0782	21.458
5.0485	21.7131
5.0192	22.0341
4.9902	22.5506
4.9616	24.2042
4.9332	25.5566
4.9052	27.6604
4.8776	30.6183
4.8502	31.9052
4.8231	32.5115
4.7963	32.4521
4.7699	31.948
4.7437	30.5934
4.7178	28.1773
4.6922	24.3135
4.6668	21.408
4.6418	20.6712
4.617	21.7758
4.5924	23.5438
4.5681	24.9728
4.5441	25.5455
4.5203	25.5999
4.4968	25.1828
4.4735	24.9598
4.4505	25.1672
4.4277	25.5807
4.4051	26.0661
4.3828	26.3441
4.3607	26.4298
4.3388	26.1049
4.3171	24.8925
4.2956	22.9595
4.2744	20.9043
4.2534	21.0347
4.2325	21.3642
4.2119	21.2627
4.1915	20.6914
4.1712	19.5613
4.1512	18.6125
4.1313	17.2758
4.1117	15.6295
4.0922	13.4008
4.0729	11.0479
4.0538	8.6533
4.0349	6.9849
4.0161	5.8444
3.9976	5.5908
3.9792	5.3551
3.9609	5.8641
3.9428	6.0785
3.9249	6.4935
3.9072	6.8563
3.8896	7.036
3.8722	7.5891
3.8549	7.9395
3.8378	8.2942
3.8208	9.0837
3.804	10.5996
3.7873	13.5188
3.7708	17.7055
3.7544	19.9567
3.7382	21.0254
3.7221	21.5948
3.7061	21.872
3.6903	21.7392
3.6746	21.469
3.659	21.0355
3.6436	20.4974
3.6283	19.7075
3.6131	18.8882
3.5981	17.7778
3.5832	16.3689
3.5684	14.7216
3.5537	13.1092
3.5391	11.4376
3.5247	9.9984
3.5104	8.9939
3.4962	8.3699
3.4821	8.4031
3.4681	8.3399
3.4543	8.5191
3.4405	8.9071
3.4269	9.0234
3.4133	9.0954
3.3999	9.2233
3.3866	9.1814
3.3733	9.395
3.3602	9.5262
3.3472	9.7561
3.3343	10.4975
3.3215	12.4541
3.3088	15.3776
3.2961	18.65
3.2836	21.6805
3.2712	24.362
3.2588	26.544
3.2466	28.1274
3.2345	29.45
3.2224	30.4199
3.2104	31.0907
3.1985	31.4815
3.1867	31.4122
3.175	31.4179
3.1634	31.5512
3.1519	31.6452
3.1404	31.5478
3.129	31.2433
3.1178	30.9305
3.1065	30.4971
3.0954	30.2885
3.0844	30.3784
3.0734	30.7466
3.0625	31.2574
3.0517	31.5244
3.041	31.9617
3.0303	31.9164
3.0197	32.0937
3.0092	31.9023
2.9987	31.967
2.9884	31.9175
2.9781	31.9786
2.9678	31.6146
2.9577	31.5521
2.9476	31.5438
2.9376	31.607
2.9276	31.909
2.9177	31.8843
2.9079	32.1836
2.8982	32.8741
2.8885	33.1146
2.8789	33.4835
2.8693	33.8423
2.8598	34.5293
2.8504	35.0909
2.841	35.5583
2.8317	35.6731
2.8224	36.0894
2.8133	36.0109
2.8041	35.9986
2.7951	36.5147
2.786	37.8007
2.7771	39.8673
2.7682	41.9555
2.7594	43.989
2.7506	45.9302
2.7418	48.2726
2.7332	50.1963
2.7246	52.7807
2.716	54.8071
2.7075	56.7131
2.699	57.8489
2.6906	59.4943
2.6823	60.7654
2.674	61.34
2.6657	61.96
2.6575	61.8502
2.6494	61.9811
2.6413	62.003
2.6332	61.6972
2.6252	61.6046
2.6173	61.2031
2.6094	60.8171
2.6015	60.087
2.5937	59.4763
2.5859	58.1152
2.5782	56.3793
2.5706	54.6561
2.5629	52.4581
2.5554	50.451
2.5478	49.15
2.5403	48.476
2.5329	48.4301
2.5255	49.0138
2.5181	49.4013
2.5108	50.1696
2.5035	50.7694
2.4963	51.4318
2.4891	52.2816
2.482	53.4805
2.4749	54.6046
2.4678	55.9074
2.4608	57.397
2.4538	58.7845
2.4468	59.8244
2.4399	60.6477
2.4331	61.5079
2.4262	62.1512
2.4194	62.4945
2.4127	63.0251
2.4059	63.0494
2.3993	63.1776
2.3926	63.0114
2.386	62.773
2.3795	62.1356
2.3729	61.613
2.3664	60.7232
2.36	60.1716
2.3535	59.1794
2.3471	58.5052
2.3408	58.1294
2.3345	58.2098
2.3282	58.2111
2.3219	58.4664
2.3157	59.0006
2.3095	59.4509
2.3034	59.7925
2.2972	60.333
2.2911	60.923
2.2851	61.5182
2.279	62.1025
2.2731	62.7414
2.2671	63.2726
2.2612	64.1031
2.2553	64.665
2.2494	65.0103
2.2435	65.4914
2.2377	65.9992
2.232	66.565
2.2262	66.7861
2.2205	67.2013
2.2148	67.4844
2.2091	67.794
2.2035	67.8697
2.1979	68.1943
2.1923	68.241
2.1868	68.4022
2.1812	68.6026
2.1758	68.5919
2.1703	68.7341
2.1649	68.669
2.1595	68.8606
2.1541	68.5486
2.1487	68.8762
2.1434	68.7299
2.1381	69.159
2.1328	69.1927
2.1275	69.2202
2.1223	69.2291
2.1171	69.7413
2.112	69.4883
2.1068	69.5647
2.1017	69.6455
2.0966	69.3929
2.0915	70.0635
2.0865	69.3746
2.0814	70.2655
2.0764	69.7383
2.0715	70.2325
2.0665	70.0125
2.0616	69.4705
2.0567	69.827
2.0518	69.5712
2.0469	69.9994
2.0421	69.6363
2.0373	69.6502
2.0325	69.6822
2.0277	69.5426
2.0229	69.2573
2.0182	69.0775
2.0135	69.3241
2.0088	68.7923
2.0042	69.0412
