Name: Dolomite CaMg(CO3)2
Type: Mineral
Class: Carbonate
Subclass: None
Particle Size: Solid
Sample No.: dolomite_2
Owner: JHU
Wavelength Range: TIR
Origin: Hunt and Salisbury Collection #102B;  Sample from Lee,Massachusetts.
Description: The sample appeared to be pure white dolomite in hand specimen and under the microscope. Sample measured had polished surface. Original ASTER Spectral Library name was jhu.nicolet.mineral.carbonate.none.solid.dolomi2.spectrum.txt
Measurement: Bidirectional reflectance
X Units: Wavelength (micrometers)
Y Units: Reflectance (percent)
wavelength	value
25.0442	73.9881
24.3388	71.1053
23.6719	64.9237
23.0407	54.4647
22.4422	40.6698
21.8741	26.2812
21.334	13.4336
20.8199	5.6387
20.33	3.7344
19.8627	3.6103
19.4163	3.8496
18.9896	4.3271
18.5812	4.9092
18.19	5.3701
17.815	5.8623
17.4551	6.3047
17.1094	6.7368
16.7772	7.1719
16.4576	7.5508
16.15	7.8637
15.8537	8.2012
15.568	8.5371
15.2925	8.7715
15.0265	8.9258
14.7697	9.2231
14.5214	9.582
14.2814	9.978
14.0492	10.5219
13.8244	11.9648
13.6067	8.2597
13.3957	9.4614
13.1912	10.001
12.9929	10.334
12.8004	10.6972
12.6135	11.019
12.432	11.3134
12.2557	11.7387
12.0843	12.2202
11.9176	12.8867
11.7555	14.2531
11.5977	15.8847
11.444	26.9706
11.2944	40.6439
11.1487	42.5734
11.0067	19.2248
10.8682	9.2104
10.7332	9.2622
10.6015	9.6831
10.473	10.039
10.3476	10.3193
10.2251	10.5266
10.1056	10.7109
9.9887	10.9192
9.8746	11.1076
9.763	11.1643
9.6539	11.3027
9.5472	11.4699
9.4429	11.6106
9.3408	11.726
9.2409	11.8691
9.1431	12.0195
9.0474	12.1113
8.9536	12.2766
8.8618	12.3996
8.7718	12.5715
8.6837	12.6987
8.5973	12.8701
8.5126	13.0434
8.4295	13.1723
8.3481	13.3388
8.2682	13.5363
8.1898	13.7111
8.1129	13.9135
8.0374	14.1508
7.9634	14.3918
7.8906	14.6596
7.8192	14.9553
7.7491	15.2414
7.6802	15.5363
7.6126	15.9702
7.5461	16.5129
7.4807	17.1023
7.4165	17.822
7.3534	18.7673
7.2914	19.9077
7.2303	21.2934
7.1703	23.4062
7.1113	26.6987
7.0533	31.9994
6.9962	39.8092
6.94	42.3031
6.8847	43.5704
6.8302	45.5145
6.7767	47.172
6.7239	48.4569
6.672	49.8971
6.6209	51.704
6.5705	53.5375
6.5209	55.086
6.4721	56.9364
6.424	58.4173
6.3766	58.2647
6.3299	46.0016
6.2838	36.3495
6.2385	29.578
6.1937	25.09
6.1496	19.6281
6.1062	12.7202
6.0633	6.8625
6.0211	4.5139
5.9794	4.7363
5.9383	5.1413
5.8978	5.5264
5.8578	5.8699
5.8184	6.1938
5.7794	6.4636
5.741	6.7007
5.7031	6.9311
5.6657	7.1462
5.6288	7.3398
5.5924	7.5246
5.5564	7.7077
5.5209	7.7893
5.4859	7.6467
5.4513	7.6909
5.4171	7.8921
5.3833	8.0534
5.35	8.1916
5.3171	8.3117
5.2846	8.4248
5.2524	8.5354
5.2207	8.6401
5.1893	8.7331
5.1584	8.821
5.1277	8.9004
5.0975	8.9687
5.0676	8.9873
5.038	9.0783
5.0088	9.1577
4.98	9.2209
4.9514	9.2776
4.9232	9.3381
4.8953	9.3965
4.8678	9.4524
4.8405	9.5029
4.8135	9.5498
4.7868	9.5964
4.7605	9.6374
4.7344	9.666
4.7086	9.6819
4.6831	9.6848
4.6578	9.6762
4.6328	9.6931
4.6081	9.7177
4.5837	9.7544
4.5595	9.7988
4.5356	9.8427
4.5119	9.8867
4.4884	9.9443
4.4652	9.9614
4.4423	9.9651
4.4196	9.9963
4.3971	10.0512
4.3748	10.1015
4.3528	10.1401
4.331	10.1147
4.3094	10.1025
4.288	10.0979
4.2668	10.1343
4.2458	10.155
4.2251	10.1711
4.2045	10.2541
4.1841	10.2912
4.164	10.3012
4.144	10.3073
4.1242	10.3325
4.1046	10.3491
4.0852	10.355
4.066	10.3471
4.047	10.3398
4.0281	10.3408
4.0094	10.3586
3.9909	10.3879
3.9725	10.385
3.9544	10.3203
3.9363	10.2768
3.9185	10.2485
3.9008	10.248
3.8833	10.2676
3.8659	10.2724
3.8487	10.2973
3.8316	10.3271
3.8147	10.3247
3.7979	10.3047
3.7813	10.3154
3.7648	10.341
3.7485	10.3886
3.7323	10.4524
3.7162	10.4941
3.7003	10.5342
3.6845	10.5781
3.6689	10.6137
3.6534	10.6418
3.638	10.6643
3.6227	10.6826
3.6076	10.6936
3.5926	10.6963
3.5777	10.6928
3.563	10.6682
3.5484	10.6123
3.5338	10.6289
3.5195	10.5969
3.5052	10.5581
3.491	10.5361
3.477	10.5166
3.463	10.4992
3.4492	10.4729
3.4355	10.4609
3.4219	10.4807
3.4084	10.4924
3.395	10.5009
3.3817	10.5117
3.3685	10.5566
3.3554	10.5605
3.3425	10.5351
3.3296	10.5332
3.3168	10.5383
3.3041	10.5207
3.2915	10.5647
3.279	10.6133
3.2666	10.6399
3.2543	10.6633
3.2421	10.6816
3.23	10.706
3.218	10.7229
3.206	10.7422
3.1942	10.7522
3.1824	10.7658
3.1707	10.7851
3.1591	10.7934
3.1476	10.7824
3.1362	10.7754
3.1249	10.7739
3.1136	10.7744
3.1024	10.7744
3.0913	10.7678
3.0803	10.7629
3.0694	10.7705
3.0585	10.7773
3.0477	10.7834
3.037	10.7883
3.0264	10.8066
3.0158	10.8261
3.0053	10.8408
2.9949	10.8479
2.9845	10.8545
2.9743	10.8623
2.9641	10.873
2.9539	10.8799
2.9439	10.8906
2.9339	10.8969
2.9239	10.9038
2.9141	10.914
2.9043	10.9218
2.8946	10.9331
2.8849	10.9375
2.8753	10.9497
2.8658	10.9624
2.8563	10.9756
2.8469	10.9922
2.8375	11.0044
2.8282	11.0224
2.819	11.0322
2.8098	11.0415
2.8007	11.039
2.7917	11.0302
2.7827	11.0205
2.7738	11.0019
2.7649	11.0044
2.7561	11.0483
2.7473	11.0903
2.7386	11.1474
2.7299	11.1919
2.7213	11.2392
2.7128	11.2837
2.7043	11.3144
2.6959	11.3325
2.6875	11.3393
2.6791	11.395
2.6709	11.4472
2.6626	11.4653
2.6545	11.4804
2.6463	11.4887
2.6382	11.4902
2.6302	11.5039
2.6222	11.5005
2.6143	11.5058
2.6064	11.5088
2.5986	11.5029
2.5908	11.5049
2.583	11.5068
2.5753	11.4966
2.5677	11.4751
2.5601	11.4555
2.5525	11.4243
2.545	11.3496
2.5375	11.2422
2.5301	11.1704
2.5227	11.1196
2.5154	11.104
2.5081	11.1133
2.5008	11.1294
2.4936	11.1509
2.4864	11.1767
2.4793	11.2055
2.4722	11.2168
2.4651	11.2153
2.4581	11.2217
2.4511	11.2466
2.4442	11.2817
2.4373	11.3247
2.4305	11.3662
2.4236	11.393
2.4169	11.4341
2.4101	11.457
2.4034	11.4785
2.3967	11.4926
2.3901	11.5156
2.3835	11.5219
2.377	11.541
2.3704	11.5571
2.364	11.561
2.3575	11.5527
2.3511	11.5117
2.3447	11.4316
2.3384	11.3598
2.3321	11.2929
2.3258	11.2558
2.3195	11.2524
2.3133	11.2563
2.3071	11.2734
2.301	11.2832
2.2949	11.2949
2.2888	11.3164
2.2828	11.3242
2.2767	11.3242
2.2708	11.334
2.2648	11.3398
2.2589	11.374
2.253	11.4121
2.2471	11.4463
2.2413	11.4726
2.2355	11.497
2.2297	11.5166
2.224	11.5283
2.2183	11.5449
2.2126	11.5595
2.207	11.5674
2.2013	11.581
2.1957	11.5879
2.1902	11.5996
2.1846	11.6152
2.1791	11.6113
2.1736	11.6103
2.1682	11.6054
2.1628	11.6064
2.1574	11.6054
2.152	11.5947
2.1466	11.58
2.1413	11.5703
2.136	11.58
2.1308	11.5703
2.1255	11.5781
2.1203	11.5908
2.1151	11.5996
2.11	11.6064
2.1048	11.6093
2.0997	11.6142
2.0946	11.6142
2.0895	11.6172
2.0845	11.6269
2.0795	11.6289
