Name: Alunite KAl_3(SO_4)_2(OH)_6
Type: Mineral
Class: Sulfate
Subclass: None
Particle Size: Fine
Sample No.: SO-4A
Owner: JPL
Wavelength Range: TIR
Origin: USA, Utah
Description: Particle size was 0-45um.Collected by Ward's Original ASTER Spectral Library name was jpl.nicolet.mineral.sulfate.none.fine.so04a.spectrum.txt
Measurement: Hemispherical reflectance
X Units: Wavelength (micrometers)
Y Units: Reflectance (percent)
wavelength	value
15.3853	2.5105
15.1161	3.29
14.8563	4.8379
14.6052	6.3084
14.3624	6.1983
14.1276	5.2786
13.9004	4.1801
13.6803	2.207
13.4671	1.1878
13.2604	0.4181
13.06	0.8035
12.8656	0.9435
12.6769	1.838
12.4936	2.3739
12.3155	3.0723
12.1425	3.9578
11.9742	5.2365
11.8106	6.1295
11.6513	6.9901
11.4963	7.9607
11.3454	8.1368
11.1983	8.2065
11.0551	8.8731
10.9154	9.9255
10.7793	10.8709
10.6465	11.5643
10.5169	12.0696
10.3904	12.8712
10.267	12.6395
10.1464	11.7127
10.0287	11.4885
9.9136	10.3991
9.8012	7.8164
9.6913	6.9595
9.5838	8.3425
9.4787	8.0381
9.3758	8.6666
9.2752	11.2188
9.1767	11.1322
9.0803	10.9803
8.9858	10.9702
8.8934	10.6214
8.8028	10.038
8.714	8.4745
8.627	6.2589
8.5417	8.043
8.4581	4.5335
8.3761	3.0667
8.2957	2.5822
8.2169	2.2821
8.1395	2.1891
8.0635	2.4546
7.989	2.7853
7.9158	3.4339
7.8439	3.4363
7.7734	2.8121
7.7041	2.1442
7.636	2.0997
7.5691	2.6365
7.5034	3.2203
7.4388	4.2245
7.3753	5.4268
7.3129	6.2385
7.2515	7.0262
7.1912	7.8622
7.1318	8.229
7.0734	7.9944
7.016	7.5795
6.9595	8.1006
6.9039	9.0065
6.8492	9.3771
6.7953	9.1085
6.7423	8.9802
6.6901	9.8328
6.6387	11.2327
6.5881	12.4043
6.5382	14.0304
6.4892	15.6103
6.4408	16.1471
6.3931	15.9514
6.3462	15.3564
6.2999	14.9402
6.2543	14.7014
6.2094	13.9511
6.1651	13.2696
6.1214	12.8867
6.0784	12.8071
6.0359	13.2438
5.994	13.991
5.9527	14.4185
5.912	15.4168
5.8718	18.4348
5.8322	21.2635
5.7931	23.6031
5.7545	25.7276
5.7165	27.6063
5.6789	28.7994
5.6418	30.123
5.6052	30.8601
5.5691	31.3317
5.5334	32.0636
5.4982	32.9992
5.4635	35.1711
5.4291	37.0695
5.3952	38.1426
5.3618	38.7631
5.3287	39.1157
5.2961	39.4943
5.2638	40.1024
5.2319	40.7801
5.2004	41.0873
5.1693	41.3726
5.1386	41.675
5.1082	42.0979
5.0782	42.4176
5.0485	42.725
5.0192	42.8245
4.9902	42.7068
4.9616	42.5081
4.9332	41.8877
4.9052	40.4582
4.8776	38.0547
4.8502	33.7933
4.8231	35.8666
4.7963	33.7575
4.7699	25.8944
4.7437	17.6969
4.7178	15.0555
4.6922	16.7289
4.6668	17.3119
4.6418	16.3547
4.617	13.6984
4.5924	11.885
4.5681	13.6311
4.5441	14.3624
4.5203	14.9702
4.4968	14.7645
4.4735	16.0492
4.4505	16.8697
4.4277	17.6935
4.4051	18.5396
4.3828	18.0148
4.3607	17.6829
4.3388	19.0875
4.3171	22.1488
4.2956	24.306
4.2744	25.3065
4.2534	26.8608
4.2325	27.7663
4.2119	29.3727
4.1915	30.1846
4.1712	30.2502
4.1512	29.9533
4.1313	30.0169
4.1117	30.2982
4.0922	30.5835
4.0729	30.9238
4.0538	31.2849
4.0349	31.6066
4.0161	31.8713
3.9976	32.1133
3.9792	32.2866
3.9609	32.497
3.9428	32.6939
3.9249	32.8953
3.9072	33.0925
3.8896	33.1316
3.8722	31.9746
3.8549	33.2957
3.8378	33.3616
3.8208	33.2928
3.804	33.1246
3.7873	32.8968
3.7708	32.5566
3.7544	32.1902
3.7382	31.6822
3.7221	31.0577
3.7061	30.4951
3.6903	29.8885
3.6746	29.3707
3.659	28.5797
3.6436	27.9729
3.6283	27.3723
3.6131	26.5587
3.5981	25.9038
3.5832	25.135
3.5684	24.4879
3.5537	23.8026
3.5391	23.0725
3.5247	22.5377
3.5104	21.6996
3.4962	21.0955
3.4821	20.5347
3.4681	20.0224
3.4543	19.3005
3.4405	18.7081
3.4269	18.0491
3.4133	17.6098
3.3999	17.1901
3.3866	16.8373
3.3733	16.1263
3.3602	15.7974
3.3472	15.4305
3.3343	15.0039
3.3215	14.5885
3.3088	14.2882
3.2961	14.0326
3.2836	13.8904
3.2712	13.6984
3.2588	13.3901
3.2466	13.2591
3.2345	12.9085
3.2224	12.8667
3.2104	12.6047
3.1985	12.6245
3.1867	12.4405
3.175	12.2759
3.1634	12.096
3.1519	11.8908
3.1404	11.6411
3.129	11.4889
3.1178	11.4906
3.1065	11.4779
3.0954	10.7879
3.0844	10.5264
3.0734	10.4437
3.0625	10.5461
3.0517	10.6294
3.041	10.8407
3.0303	10.6476
3.0197	10.2278
3.0092	9.9927
2.9987	9.9684
2.9884	9.2369
2.9781	8.3799
2.9678	8.1526
2.9577	7.6631
2.9476	6.8657
2.9376	6.6317
2.9276	6.8155
2.9177	6.3076
2.9079	5.1819
2.8982	5.1567
2.8885	4.5292
2.8789	3.8336
2.8693	5.5089
2.8598	2.9005
2.8504	1.8568
2.841	2.2706
2.8317	1.685
2.8224	3.5065
2.8133	5.504
2.8041	7.1395
2.7951	9.5281
2.786	11.29
2.7771	13.4555
2.7682	17.8528
2.7594	23.3825
2.7506	27.8815
2.7418	31.2638
2.7332	37.0946
2.7246	40.8891
2.716	44.2546
2.7075	46.9821
2.699	50.9235
2.6906	52.8529
2.6823	52.3978
2.674	53.6022
2.6657	55.6208
2.6575	56.417
2.6494	59.9325
2.6413	61.1617
2.6332	60.3145
2.6252	59.3241
2.6173	59.3005
2.6094	57.3495
2.6015	57.4056
2.5937	56.1943
2.5859	53.466
2.5782	53.8458
2.5706	54.0867
2.5629	53.5808
2.5554	54.3449
2.5478	54.8134
2.5403	53.3176
2.5329	52.1939
2.5255	49.1513
2.5181	44.1035
2.5108	43.4061
2.5035	48.2269
2.4963	51.89
2.4891	54.9692
2.482	56.5565
2.4749	54.4572
2.4678	52.7926
2.4608	54.612
2.4538	56.6189
2.4468	56.6927
2.4399	55.0438
2.4331	53.0451
2.4262	54.801
2.4194	57.0438
2.4127	59.2962
2.4059	60.3079
2.3993	60.1169
2.3926	60.863
2.386	63.794
2.3795	67.9336
2.3729	70.6422
2.3664	72.4123
2.36	73.305
2.3535	73.4224
2.3471	73.1565
2.3408	72.2739
2.3345	70.2334
2.3282	67.7779
2.3219	66.0884
2.3157	66.6546
2.3095	70.5767
2.3034	74.031
2.2972	75.6334
2.2911	76.4391
2.2851	76.8908
2.279	77.2583
2.2731	77.3832
2.2671	77.5551
2.2612	77.4933
2.2553	77.6864
2.2494	77.8552
2.2435	77.4204
2.2377	76.9593
2.232	76.4267
2.2262	74.752
2.2205	70.7267
2.2148	65.1749
2.2091	61.5264
2.2035	64.6
2.1979	66.4484
2.1923	61.8006
2.1868	60.4455
2.1812	57.4973
2.1758	58.7137
2.1703	57.5436
2.1649	57.9261
2.1595	57.3598
2.1541	57.742
2.1487	59.9823
2.1434	60.9761
2.1381	61.9922
2.1328	63.1902
2.1275	64.2836
2.1223	66.2412
2.1171	68.5425
2.112	70.2939
2.1068	71.7732
2.1017	72.8514
2.0966	73.459
2.0915	74.1331
2.0865	74.3884
2.0814	74.6594
2.0764	74.5943
2.0715	73.9528
2.0665	74.8947
2.0616	74.3435
2.0567	75.0012
2.0518	75.0662
2.0469	75.5556
2.0421	75.7553
2.0373	75.8016
2.0325	76.0123
2.0277	76.0999
2.0229	76.5611
2.0182	76.2032
2.0135	76.188
2.0088	76.4596
2.0042	76.5496
