Name: Olivine (Fo92) (Fe+2,Mg)2SiO4
Type: Mineral
Class: Silicate
Subclass: Nesosilicate
Particle Size: Coarse
Sample No.: olivine_13
Owner: JHU
Wavelength Range: TIR
Origin: Rockport, Massachusetts via the Smithsonian (sample no.NMNH R3517)
Description: The sample was a large black fragment. Millimeter-wide serpentine veins traversed the sample, which were discarded during initial sample crushing. Finer veins and light iron staining were too abundant to remove. Microscopic examination showed contamination by 1% magnetite inclusions and <1% limonitic material. The fayalite itself also seems to contain fluid inclusions. Particle size was 75 - 250  Micrometers. (Isolated tetrahedra); (Olivine Group) Original ASTER Spectral Library name was jhu.nicolet.mineral.silicate.nesosilicate.coarse.olivi13.spectrum.txt
Measurement: Bidirectional reflectance
X Units: Wavelength (micrometers)
Y Units: Reflectance (percent)
wavelength	value
25.0442	1.127
24.3388	1.8208
23.6719	2.0269
23.0407	2.135
22.4422	2.5312
21.8741	3.0771
21.334	4.1233
20.8199	4.435
20.33	5.0693
19.8627	6.1098
19.4163	6.229
18.9896	4.5322
18.5812	2.4946
18.19	1.6426
17.815	2.0037
17.4551	2.2583
17.1094	2.6658
16.7772	2.512
16.4576	1.4546
16.15	1.1099
15.8537	1.2095
15.568	1.2981
15.2925	1.3987
15.0265	1.4768
14.7697	1.5894
14.5214	1.6738
14.2814	1.7346
14.0492	1.8096
13.8244	1.845
13.6067	1.9248
13.3957	2.0068
13.1912	2.0544
12.9929	2.196
12.8004	2.3127
12.6135	2.4436
12.432	2.6934
12.2557	3.0256
12.0843	3.8315
11.9176	2.831
11.7555	4.0459
11.5977	5.9575
11.444	7.0461
11.2944	7.9531
11.1487	8.3616
11.0067	8.2124
10.8682	5.4031
10.7332	4.4949
10.6015	6.7055
10.473	6.6421
10.3476	3.8506
10.2251	2.5889
10.1056	2.2065
9.9887	2.4309
9.8746	2.9211
9.763	2.5588
9.6539	1.6682
9.5472	1.1528
9.4429	0.9724
9.3408	0.9463
9.2409	1.0085
9.1431	1.0959
9.0474	1.1096
8.9536	1.1323
8.8618	1.1807
8.7718	1.2361
8.6837	1.282
8.5973	1.2903
8.5126	1.3147
8.4295	1.3293
8.3481	1.3733
8.2682	1.4004
8.1898	1.4299
8.1129	1.4194
8.0374	1.4185
7.9634	1.4058
7.8906	1.396
7.8192	1.4082
7.7491	1.4199
7.6802	1.4463
7.6126	1.4714
7.5461	1.4966
7.4807	1.5137
7.4165	1.5332
7.3534	1.5559
7.2914	1.5793
7.2303	1.5874
7.1703	1.6028
7.1113	1.6208
7.0533	1.6147
6.9962	1.6348
6.94	1.6479
6.8847	1.6501
6.8302	1.637
6.7767	1.6267
6.7239	1.6367
6.672	1.6321
6.6209	1.637
6.5705	1.6348
6.5209	1.6333
6.4721	1.6352
6.424	1.624
6.3766	1.6199
6.3299	1.6099
6.2838	1.6023
6.2385	1.5801
6.1937	1.5654
6.1496	1.5261
6.1062	1.4766
6.0633	1.4795
6.0211	1.4968
5.9794	1.4993
5.9383	1.4963
5.8978	1.5073
5.8578	1.5193
5.8184	1.5061
5.7794	1.488
5.741	1.4797
5.7031	1.4758
5.6657	1.4936
5.6288	1.5027
5.5924	1.51
5.5564	1.5144
5.5209	1.5242
5.4859	1.5251
5.4513	1.5381
5.4171	1.5408
5.3833	1.5503
5.35	1.5603
5.3171	1.5735
5.2846	1.5727
5.2524	1.5872
5.2207	1.5937
5.1893	1.5962
5.1584	1.6086
5.1277	1.6252
5.0975	1.6296
5.0676	1.6467
5.038	1.6526
5.0088	1.6567
4.98	1.665
4.9514	1.6724
4.9232	1.6833
4.8953	1.6814
4.8678	1.6877
4.8405	1.6999
4.8135	1.7107
4.7868	1.7253
4.7605	1.7358
4.7344	1.7322
4.7086	1.75
4.6831	1.7551
4.6578	1.7766
4.6328	1.7795
4.6081	1.7935
4.5837	1.8091
4.5595	1.8127
4.5356	1.8149
4.5119	1.8337
4.4884	1.8447
4.4652	1.8535
4.4423	1.8691
4.4196	1.8772
4.3971	1.9019
4.3748	1.9116
4.3528	1.9292
4.331	1.9397
4.3094	1.9521
4.288	1.9746
4.2668	1.9851
4.2458	1.9973
4.2251	2.0185
4.2045	2.0334
4.1841	2.0496
4.164	2.0742
4.144	2.085
4.1242	2.0979
4.1046	2.113
4.0852	2.1306
4.066	2.1526
4.047	2.175
4.0281	2.2058
4.0094	2.2158
3.9909	2.238
3.9725	2.259
3.9544	2.2764
3.9363	2.2964
3.9185	2.3166
3.9008	2.3357
3.8833	2.3623
3.8659	2.3794
3.8487	2.4014
3.8316	2.415
3.8147	2.4368
3.7979	2.4629
3.7813	2.4756
3.7648	2.4927
3.7485	2.5168
3.7323	2.5383
3.7162	2.5613
3.7003	2.5837
3.6845	2.6035
3.6689	2.6304
3.6534	2.6421
3.638	2.6606
3.6227	2.6973
3.6076	2.7163
3.5926	2.7231
3.5777	2.7539
3.563	2.7712
3.5484	2.7932
3.5338	2.7996
3.5195	2.8166
3.5052	2.8313
3.491	2.8557
3.477	2.8747
3.463	2.8806
3.4492	2.9011
3.4355	2.9106
3.4219	2.9285
3.4084	2.9402
3.395	2.939
3.3817	2.9643
3.3685	2.9719
3.3554	2.9829
3.3425	2.9927
3.3296	3.0137
3.3168	3.0134
3.3041	3.0347
3.2915	3.0391
3.279	3.0452
3.2666	3.0549
3.2543	3.0644
3.2421	3.0642
3.23	3.072
3.218	3.0774
3.206	3.0837
3.1942	3.0945
3.1824	3.0969
3.1707	3.0884
3.1591	3.0969
3.1476	3.0952
3.1362	3.0984
3.1249	3.0889
3.1136	3.0857
3.1024	3.0867
3.0913	3.0867
3.0803	3.0796
3.0694	3.0725
3.0585	3.073
3.0477	3.0662
3.037	3.0659
3.0264	3.0579
3.0158	3.0505
3.0053	3.0334
2.9949	3.0344
2.9845	3.0268
2.9743	3.0181
2.9641	3.012
2.9539	2.9919
2.9439	3.0019
2.9339	2.9929
2.9239	2.9958
2.9141	2.9788
2.9043	2.9792
2.8946	2.9941
2.8849	2.9929
2.8753	2.9827
2.8658	2.9629
2.8563	2.9497
2.8469	2.9231
2.8375	2.8674
2.8282	2.7864
2.819	2.7537
2.8098	2.7251
2.8007	2.6958
2.7917	2.6614
2.7827	2.6428
2.7738	2.6218
2.7649	2.4924
2.7561	2.6733
2.7473	2.8508
2.7386	3.1902
2.7299	3.3948
2.7213	3.4639
2.7128	3.4668
2.7043	3.4836
2.6959	3.4836
2.6875	3.5005
2.6791	3.5032
2.6709	3.4954
2.6626	3.4997
2.6545	3.4922
2.6463	3.4973
2.6382	3.5049
2.6302	3.4766
2.6222	3.4944
2.6143	3.4934
2.6064	3.4802
2.5986	3.4792
2.5908	3.4946
2.583	3.4905
2.5753	3.5041
2.5677	3.4907
2.5601	3.4924
2.5525	3.488
2.545	3.49
2.5375	3.4858
2.5301	3.4814
2.5227	3.4822
2.5154	3.4917
2.5081	3.4914
2.5008	3.4934
2.4936	3.4758
2.4864	3.5076
2.4793	3.4993
2.4722	3.5063
2.4651	3.4961
2.4581	3.522
2.4511	3.5156
2.4442	3.5071
2.4373	3.5183
2.4305	3.5134
2.4236	3.5071
2.4169	3.5127
2.4101	3.5327
2.4034	3.5283
2.3967	3.5286
2.3901	3.5225
2.3835	3.5381
2.377	3.542
2.3704	3.5271
2.364	3.5229
2.3575	3.5098
2.3511	3.5154
2.3447	3.5085
2.3384	3.5408
2.3321	3.5342
2.3258	3.5381
2.3195	3.5464
2.3133	3.5398
2.3071	3.5666
2.301	3.5884
2.2949	3.5769
2.2888	3.5864
2.2828	3.5959
2.2767	3.5901
2.2708	3.6162
2.2648	3.615
2.2589	3.6184
2.253	3.6152
2.2471	3.6023
2.2413	3.6518
2.2355	3.6306
2.2297	3.6274
2.224	3.686
2.2183	3.6221
2.2126	3.6538
2.207	3.6374
2.2013	3.6421
2.1957	3.6731
2.1902	3.6384
2.1846	3.6528
2.1791	3.6423
2.1736	3.6509
2.1682	3.6826
2.1628	3.6753
2.1574	3.6899
2.152	3.6853
2.1466	3.6753
2.1413	3.6536
2.136	3.6631
2.1308	3.6616
2.1255	3.6684
2.1203	3.6755
2.1151	3.6682
2.11	3.6653
2.1048	3.6728
2.0997	3.6609
2.0946	3.6919
2.0895	3.6868
2.0845	3.6821
2.0795	3.6665
