Name: Chabazite CaAl_2Si_4O_12.6H_2O
Type: Mineral
Class: Silicate
Subclass: Tectosilicate
Particle Size: Fine
Sample No.: TS-15A
Owner: JPL
Wavelength Range: TIR
Origin: USA, Oregon, Grant County, Ritter Hot Springs
Description: Particle size was 0-45um.Collected by Burminco Original ASTER Spectral Library name was jpl.nicolet.mineral.silicate.tectosilicate.fine.ts15a.spectrum.txt
Measurement: Hemispherical reflectance
X Units: Wavelength (micrometers)
Y Units: Reflectance (percent)
wavelength	value
15.3853	0.8939
15.1161	0.7715
14.8563	0.9105
14.6052	0.7263
14.3624	0.9824
14.1276	1.1142
13.9004	0.8272
13.6803	1.0937
13.4671	1.098
13.2604	0.9504
13.06	1.2133
12.8656	1.399
12.6769	1.6872
12.4936	2.2238
12.3155	2.8239
12.1425	3.4595
11.9742	4.4132
11.8106	4.5108
11.6513	5.3006
11.4963	5.9269
11.3454	6.0906
11.1983	6.662
11.0551	6.5265
10.9154	6.4049
10.7793	5.8099
10.6465	4.9647
10.5169	4.0232
10.3904	3.4862
10.267	3.5465
10.1464	3.3641
10.0287	3.5468
9.9136	3.818
9.8012	3.8846
9.6913	4.0708
9.5838	4.0088
9.4787	3.5278
9.3758	2.6838
9.2752	2.1546
9.1767	1.7945
9.0803	1.5986
8.9858	1.393
8.8934	1.4569
8.8028	1.4861
8.714	1.262
8.627	1.3541
8.5417	1.3162
8.4581	1.0035
8.3761	0.76
8.2957	0.5326
8.2169	0.1296
8.1395	0.1081
8.0635	0.1852
7.989	0.1522
7.9158	0.4989
7.8439	0.4901
7.7734	0.723
7.7041	0.977
7.636	1.071
7.5691	1.3355
7.5034	1.5341
7.4388	1.8999
7.3753	2.132
7.3129	2.4315
7.2515	2.6103
7.1912	2.7054
7.1318	3.0508
7.0734	3.1982
7.016	3.397
6.9595	3.5744
6.9039	3.6172
6.8492	3.7461
6.7953	3.9579
6.7423	4.0167
6.6901	4.1695
6.6387	4.3682
6.5881	4.3746
6.5382	4.4793
6.4892	4.6255
6.4408	4.3167
6.3931	4.1566
6.3462	3.8681
6.2999	3.315
6.2543	2.8965
6.2094	2.2463
6.1651	1.5562
6.1214	1.1863
6.0784	1.0363
6.0359	0.8259
5.994	0.8973
5.9527	1.1113
5.912	1.5122
5.8718	2.5968
5.8322	3.954
5.7931	5.0495
5.7545	6.4062
5.7165	7.5574
5.6789	8.5123
5.6418	9.416
5.6052	10.0464
5.5691	10.7362
5.5334	11.5965
5.4982	12.3434
5.4635	13.1224
5.4291	13.7158
5.3952	14.1798
5.3618	14.6888
5.3287	14.9635
5.2961	15.3402
5.2638	15.6471
5.2319	15.9389
5.2004	16.2858
5.1693	16.5549
5.1386	16.8711
5.1082	17.2015
5.0782	17.3149
5.0485	17.5271
5.0192	17.435
4.9902	17.2795
4.9616	17.0105
4.9332	16.8247
4.9052	16.7241
4.8776	16.4649
4.8502	16.2887
4.8231	16.0611
4.7963	15.9845
4.7699	15.8096
4.7437	15.6587
4.7178	15.5921
4.6922	15.5518
4.6668	15.3921
4.6418	15.4823
4.617	15.5364
4.5924	15.5937
4.5681	15.8022
4.5441	16.0429
4.5203	16.4387
4.4968	16.6488
4.4735	17.0076
4.4505	17.3807
4.4277	17.7464
4.4051	18.3923
4.3828	18.7609
4.3607	19.4805
4.3388	20.2455
4.3171	20.948
4.2956	21.9649
4.2744	22.7632
4.2534	23.6667
4.2325	24.8009
4.2119	25.4702
4.1915	26.2352
4.1712	27.2485
4.1512	28.2242
4.1313	29.3519
4.1117	30.3978
4.0922	31.216
4.0729	32.168
4.0538	32.9948
4.0349	33.7975
4.0161	34.564
3.9976	34.9645
3.9792	35.318
3.9609	35.852
3.9428	36.3114
3.9249	36.5667
3.9072	36.6651
3.8896	36.8008
3.8722	36.7179
3.8549	36.5744
3.8378	36.3292
3.8208	36.0503
3.804	35.7028
3.7873	35.1462
3.7708	34.6149
3.7544	33.9829
3.7382	33.1964
3.7221	32.602
3.7061	31.61
3.6903	30.8808
3.6746	30.0461
3.659	29.0912
3.6436	28.1514
3.6283	27.0438
3.6131	26.157
3.5981	25.1238
3.5832	23.9637
3.5684	23.0596
3.5537	21.9157
3.5391	20.9101
3.5247	19.8514
3.5104	18.7184
3.4962	17.6626
3.4821	16.5842
3.4681	15.6928
3.4543	14.7764
3.4405	13.6959
3.4269	12.9471
3.4133	12.1052
3.3999	11.2947
3.3866	10.4579
3.3733	9.7339
3.3602	9.0633
3.3472	8.4783
3.3343	7.6631
3.3215	7.1498
3.3088	6.6454
3.2961	6.2698
3.2836	5.7213
3.2712	5.2691
3.2588	4.8901
3.2466	4.6699
3.2345	4.2121
3.2224	4.006
3.2104	3.8262
3.1985	3.4715
3.1867	3.2326
3.175	3.0985
3.1634	2.8556
3.1519	2.7337
3.1404	2.4958
3.129	2.3553
3.1178	2.241
3.1065	2.2325
3.0954	2.0968
3.0844	1.8679
3.0734	1.7617
3.0625	1.823
3.0517	1.6506
3.041	1.6192
3.0303	1.6909
3.0197	1.7691
3.0092	1.6547
2.9987	1.6884
2.9884	1.4501
2.9781	1.4418
2.9678	1.2849
2.9577	1.2578
2.9476	1.2981
2.9376	1.2913
2.9276	1.279
2.9177	1.3565
2.9079	1.3296
2.8982	1.0659
2.8885	1.1249
2.8789	1.3328
2.8693	1.1585
2.8598	1.1446
2.8504	1.1968
2.841	1.4455
2.8317	1.0264
2.8224	1.2646
2.8133	0.855
2.8041	1.4263
2.7951	1.3202
2.786	1.3332
2.7771	1.2211
2.7682	1.4906
2.7594	1.5651
2.7506	2.1505
2.7418	2.792
2.7332	4.3959
2.7246	6.501
2.716	8.8166
2.7075	11.4146
2.699	13.9603
2.6906	16.2155
2.6823	18.2029
2.674	20.0787
2.6657	22.1773
2.6575	23.0642
2.6494	24.2138
2.6413	25.2272
2.6332	26.0369
2.6252	26.7793
2.6173	27.8104
2.6094	27.9336
2.6015	28.0641
2.5937	28.7403
2.5859	28.9336
2.5782	28.7011
2.5706	29.227
2.5629	29.5359
2.5554	29.4971
2.5478	29.7721
2.5403	29.8044
2.5329	30.1756
2.5255	30.6041
2.5181	30.8108
2.5108	31.446
2.5035	31.9327
2.4963	32.6494
2.4891	33.0926
2.482	33.8541
2.4749	34.67
2.4678	35.2253
2.4608	35.9002
2.4538	36.4498
2.4468	37.296
2.4399	37.9962
2.4331	38.999
2.4262	39.9176
2.4194	40.9746
2.4127	41.9341
2.4059	43.5093
2.3993	44.8079
2.3926	46.1437
2.386	47.8298
2.3795	49.2314
2.3729	50.6567
2.3664	52.0407
2.36	53.6058
2.3535	54.7536
2.3471	56.1055
2.3408	57.3012
2.3345	58.4626
2.3282	59.3412
2.3219	60.2939
2.3157	61.1508
2.3095	61.8316
2.3034	62.6813
2.2972	63.4289
2.2911	63.8651
2.2851	64.3878
2.279	64.7485
2.2731	65.378
2.2671	65.784
2.2612	66.0038
2.2553	66.288
2.2494	66.4525
2.2435	66.6403
2.2377	66.7511
2.232	66.9404
2.2262	66.5786
2.2205	66.9003
2.2148	66.8974
2.2091	66.7235
2.2035	66.6045
2.1979	66.6933
2.1923	66.633
2.1868	66.5105
2.1812	66.3542
2.1758	66.131
2.1703	66.1713
2.1649	65.85
2.1595	65.9609
2.1541	65.8607
2.1487	65.4517
2.1434	65.1167
2.1381	65.1851
2.1328	65.092
2.1275	65.0284
2.1223	64.6492
2.1171	64.2984
2.112	64.0759
2.1068	63.8621
2.1017	63.5212
2.0966	62.9671
2.0915	62.4991
2.0865	62.3944
2.0814	61.904
2.0764	61.677
2.0715	61.3587
2.0665	60.6233
2.0616	60.5574
2.0567	59.9612
2.0518	60.0439
2.0469	59.3766
2.0421	58.7393
2.0373	58.02
2.0325	57.5664
2.0277	56.8415
2.0229	56.0089
2.0182	55.2043
2.0135	54.3189
2.0088	53.5155
2.0042	52.1809
