Name: Glaucophane Na_2(Mg,Fe^2+)_3Al_2Si_8O_22(OH)_2
Type: Mineral
Class: Silicate
Subclass: Inosilicate
Particle Size: Medium
Sample No.: IN-3A
Owner: JPL
Wavelength Range: TIR
Origin: USA, California
Description: Particle size was 45-125um.Collected by Ward's Original ASTER Spectral Library name was jpl.nicolet.mineral.silicate.inosilicate.medium.in03a.spectrum.txt
Measurement: Hemispherical reflectance
X Units: Wavelength (micrometers)
Y Units: Reflectance (percent)
wavelength	value
15.3853	3.7961
15.1161	3.6775
14.8563	3.6745
14.6052	2.7968
14.3624	3.1474
14.1276	2.3485
13.9004	1.8528
13.6803	2.2479
13.4671	2.4518
13.2604	2.9147
13.06	3.2591
12.8656	3.9562
12.6769	4.9883
12.4936	4.2517
12.3155	3.4311
12.1425	4.1043
11.9742	4.8244
11.8106	5.1844
11.6513	6.1514
11.4963	6.429
11.3454	7.268
11.1983	7.3562
11.0551	7.5373
10.9154	7.8288
10.7793	8.9063
10.6465	10.6721
10.5169	12.8512
10.3904	14.5544
10.267	15.896
10.1464	15.9045
10.0287	14.4425
9.9136	12.4783
9.8012	13.0128
9.6913	14.918
9.5838	17.0097
9.4787	18.2204
9.3758	15.7996
9.2752	13.388
9.1767	12.9616
9.0803	11.9206
8.9858	11.964
8.8934	11.1708
8.8028	10.117
8.714	7.1287
8.627	7.6563
8.5417	8.3304
8.4581	6.9005
8.3761	3.5843
8.2957	1.9422
8.2169	1.3825
8.1395	1.3909
8.0635	1.3046
7.989	1.6067
7.9158	1.772
7.8439	2.1361
7.7734	2.5995
7.7041	2.8807
7.636	3.1749
7.5691	3.5723
7.5034	3.8716
7.4388	4.1344
7.3753	4.4368
7.3129	4.8197
7.2515	5.1084
7.1912	5.3291
7.1318	5.7855
7.0734	6.1836
7.016	6.5141
6.9595	7.1058
6.9039	7.6284
6.8492	7.9965
6.7953	8.4685
6.7423	8.7586
6.6901	9.1993
6.6387	9.4795
6.5881	9.2963
6.5382	9.1966
6.4892	9.6163
6.4408	9.399
6.3931	9.4036
6.3462	9.6717
6.2999	9.4288
6.2543	9.325
6.2094	9.019
6.1651	8.6087
6.1214	7.8556
6.0784	7.2203
6.0359	7.2646
5.994	7.4376
5.9527	7.7313
5.912	8.1528
5.8718	8.6483
5.8322	8.8288
5.7931	8.3913
5.7545	8.1867
5.7165	8.1506
5.6789	7.9291
5.6418	7.7948
5.6052	7.9634
5.5691	8.1951
5.5334	8.7869
5.4982	9.264
5.4635	9.9773
5.4291	10.5631
5.3952	10.6598
5.3618	10.4278
5.3287	10.6772
5.2961	11.0831
5.2638	11.7295
5.2319	12.2072
5.2004	12.9335
5.1693	13.8176
5.1386	14.4678
5.1082	15.3534
5.0782	16.0227
5.0485	16.1006
5.0192	16.2466
4.9902	16.4708
4.9616	16.364
4.9332	16.2071
4.9052	16.7488
4.8776	17.3325
4.8502	18.4551
4.8231	19.4712
4.7963	20.1067
4.7699	21.1553
4.7437	22.7014
4.7178	23.5692
4.6922	24.1424
4.6668	24.6943
4.6418	25.0507
4.617	25.5063
4.5924	26.2727
4.5681	27.4982
4.5441	28.6403
4.5203	29.4089
4.4968	29.5781
4.4735	30.0269
4.4505	30.9611
4.4277	32.2486
4.4051	33.3305
4.3828	34.351
4.3607	34.8351
4.3388	35.1486
4.3171	35.1792
4.2956	35.1075
4.2744	35.1504
4.2534	35.5748
4.2325	35.1797
4.2119	35.72
4.1915	36.129
4.1712	36.2846
4.1512	36.4346
4.1313	36.5412
4.1117	36.4258
4.0922	36.5483
4.0729	36.5356
4.0538	36.3586
4.0349	35.9993
4.0161	35.7702
3.9976	35.539
3.9792	35.3246
3.9609	35.2755
3.9428	35.315
3.9249	35.1332
3.9072	35.0489
3.8896	35.0838
3.8722	35.0062
3.8549	34.8154
3.8378	34.6499
3.8208	34.4801
3.804	34.2124
3.7873	34.0233
3.7708	33.8382
3.7544	33.7301
3.7382	33.4385
3.7221	33.1142
3.7061	32.9181
3.6903	32.6735
3.6746	32.4315
3.659	32.0495
3.6436	31.7743
3.6283	31.5182
3.6131	31.1498
3.5981	30.9146
3.5832	30.6495
3.5684	30.2096
3.5537	29.8853
3.5391	29.5084
3.5247	29.197
3.5104	28.5572
3.4962	28.4061
3.4821	27.905
3.4681	27.647
3.4543	27.1729
3.4405	26.6073
3.4269	26.2025
3.4133	25.7459
3.3999	25.3139
3.3866	24.9027
3.3733	24.5792
3.3602	24.2157
3.3472	24.0347
3.3343	23.7587
3.3215	23.6566
3.3088	23.2752
3.2961	22.8716
3.2836	22.3978
3.2712	21.9881
3.2588	21.5417
3.2466	21.0102
3.2345	20.7723
3.2224	20.1474
3.2104	19.6178
3.1985	19.0625
3.1867	18.4323
3.175	18.3029
3.1634	17.8765
3.1519	17.3914
3.1404	17.1733
3.129	16.4568
3.1178	16.141
3.1065	15.6895
3.0954	15.4157
3.0844	15.0313
3.0734	14.7037
3.0625	14.6652
3.0517	14.3074
3.041	14.0326
3.0303	13.7318
3.0197	13.6882
3.0092	13.172
2.9987	12.8976
2.9884	12.6702
2.9781	12.4203
2.9678	12.3783
2.9577	12.1101
2.9476	12.3216
2.9376	12.4049
2.9276	12.5211
2.9177	12.6407
2.9079	12.7953
2.8982	13.1368
2.8885	13.1569
2.8789	12.9226
2.8693	12.7316
2.8598	13.0557
2.8504	13.4343
2.841	13.6744
2.8317	13.9051
2.8224	14.0294
2.8133	14.037
2.8041	14.4616
2.7951	14.6587
2.786	15.5261
2.7771	15.8976
2.7682	13.5007
2.7594	12.2446
2.7506	9.7884
2.7418	9.8137
2.7332	11.2356
2.7246	15.135
2.716	21.8776
2.7075	23.988
2.699	26.2221
2.6906	30.6119
2.6823	34.1537
2.674	36.3326
2.6657	38.1331
2.6575	38.2095
2.6494	38.7041
2.6413	39.4232
2.6332	40.3493
2.6252	41.0992
2.6173	41.7264
2.6094	41.9586
2.6015	42.1466
2.5937	42.8789
2.5859	42.5809
2.5782	42.6881
2.5706	43.0476
2.5629	43.6915
2.5554	43.3559
2.5478	43.8341
2.5403	43.9988
2.5329	43.9467
2.5255	44.0229
2.5181	44.019
2.5108	44.0132
2.5035	44.3562
2.4963	44.4952
2.4891	44.5707
2.482	44.9525
2.4749	45.2939
2.4678	45.8868
2.4608	46.4486
2.4538	47.187
2.4468	47.8949
2.4399	48.0902
2.4331	48.5206
2.4262	48.2748
2.4194	47.9318
2.4127	47.5359
2.4059	46.6061
2.3993	45.7988
2.3926	44.8083
2.386	44.375
2.3795	44.2692
2.3729	44.2563
2.3664	43.5457
2.36	42.0624
2.3535	40.1476
2.3471	38.4427
2.3408	36.6864
2.3345	35.5418
2.3282	34.6952
2.3219	34.6281
2.3157	34.9744
2.3095	35.8487
2.3034	37.538
2.2972	39.8918
2.2911	42.628
2.2851	44.2587
2.279	45.3847
2.2731	46.602
2.2671	47.2869
2.2612	47.4667
2.2553	47.6252
2.2494	49.0177
2.2435	50.7731
2.2377	52.5108
2.232	53.7561
2.2262	54.7483
2.2205	55.2859
2.2148	56.0452
2.2091	56.3777
2.2035	56.6202
2.1979	56.9036
2.1923	57.2242
2.1868	57.475
2.1812	57.9077
2.1758	57.6881
2.1703	57.959
2.1649	58.2207
2.1595	58.6219
2.1541	59.1262
2.1487	59.4448
2.1434	59.5897
2.1381	59.8833
2.1328	59.806
2.1275	59.6658
2.1223	59.9154
2.1171	59.9423
2.112	59.8887
2.1068	60.6178
2.1017	60.3409
2.0966	60.4848
2.0915	60.5495
2.0865	60.5476
2.0814	60.2684
2.0764	60.6858
2.0715	60.2541
2.0665	60.3584
2.0616	60.0382
2.0567	60.0677
2.0518	59.8322
2.0469	59.8775
2.0421	59.7918
2.0373	59.4442
2.0325	59.5231
2.0277	59.2878
2.0229	59.2356
2.0182	59.0407
2.0135	59.2312
2.0088	58.6419
2.0042	58.8671
