Name: Columbite Fe^2+Nb_2O_6
Type: Mineral
Class: Oxide
Subclass: None
Particle Size: Medium
Sample No.: O-7A
Owner: JPL
Wavelength Range: TIR
Origin: USA, South Dakota, Pennington County, Keystone
Description: Particle size was 45-125um.Collected by Burminco Original ASTER Spectral Library name was jpl.nicolet.mineral.oxide.none.medium.o07a.spectrum.txt
Measurement: Hemispherical reflectance
X Units: Wavelength (micrometers)
Y Units: Reflectance (percent)
wavelength	value
15.3853	14.834
15.1161	15.3831
14.8563	16.0952
14.6052	16.9297
14.3624	18.035
14.1276	18.3866
13.9004	17.8095
13.6803	16.2386
13.4671	14.0645
13.2604	11.949
13.06	10.2001
12.8656	9.053
12.6769	8.5784
12.4936	7.7715
12.3155	7.2753
12.1425	6.8392
11.9742	6.131
11.8106	5.8928
11.6513	4.6361
11.4963	2.891
11.3454	1.2754
11.1983	0.394
11.0551	0.5522
10.9154	0.8612
10.7793	0.9062
10.6465	1.0858
10.5169	1.4599
10.3904	1.788
10.267	1.9311
10.1464	2.1953
10.0287	2.4665
9.9136	2.7666
9.8012	2.8962
9.6913	3.1569
9.5838	3.5924
9.4787	3.513
9.3758	3.6986
9.2752	4.2579
9.1767	4.4601
9.0803	4.6605
8.9858	4.9806
8.8934	5.2541
8.8028	5.5088
8.714	5.6768
8.627	5.9269
8.5417	6.3254
8.4581	6.5582
8.3761	6.8506
8.2957	7.1044
8.2169	7.3531
8.1395	7.5994
8.0635	7.7851
7.989	7.9697
7.9158	8.0592
7.8439	8.357
7.7734	8.706
7.7041	8.977
7.636	9.3818
7.5691	9.7359
7.5034	10.0349
7.4388	10.4304
7.3753	10.5024
7.3129	10.9067
7.2515	10.931
7.1912	11.2143
7.1318	11.2488
7.0734	11.3693
7.016	11.4872
6.9595	11.726
6.9039	11.9274
6.8492	12.0955
6.7953	12.2513
6.7423	12.2693
6.6901	12.4832
6.6387	12.7963
6.5881	12.5064
6.5382	12.4188
6.4892	12.7659
6.4408	12.7524
6.3931	12.6676
6.3462	13.0779
6.2999	12.9088
6.2543	13.087
6.2094	13.0146
6.1651	12.7872
6.1214	12.6631
6.0784	12.5838
6.0359	12.2882
5.994	12.0284
5.9527	11.7097
5.912	11.739
5.8718	12.1933
5.8322	12.7497
5.7931	13.3506
5.7545	14.4633
5.7165	15.864
5.6789	17.5292
5.6418	18.8055
5.6052	19.5704
5.5691	20.0358
5.5334	20.5188
5.4982	20.9553
5.4635	21.3733
5.4291	21.5566
5.3952	21.6399
5.3618	21.9594
5.3287	22.0312
5.2961	22.1986
5.2638	22.3226
5.2319	22.6157
5.2004	22.699
5.1693	22.7375
5.1386	22.8115
5.1082	22.7727
5.0782	22.9071
5.0485	22.9472
5.0192	23.034
4.9902	23.0472
4.9616	23.14
4.9332	23.0494
4.9052	23.2334
4.8776	23.4387
4.8502	23.4516
4.8231	23.6066
4.7963	23.6973
4.7699	23.7903
4.7437	23.8392
4.7178	24.0094
4.6922	24.075
4.6668	24.1575
4.6418	24.1874
4.617	24.2765
4.5924	24.434
4.5681	24.5327
4.5441	24.6471
4.5203	24.8143
4.4968	24.8135
4.4735	24.9491
4.4505	25.0211
4.4277	25.0754
4.4051	25.2817
4.3828	25.2346
4.3607	25.3705
4.3388	25.3772
4.3171	25.3632
4.2956	25.2385
4.2744	25.1866
4.2534	25.4692
4.2325	25.3449
4.2119	25.6155
4.1915	25.7416
4.1712	25.8558
4.1512	25.9925
4.1313	25.8815
4.1117	25.9389
4.0922	25.9742
4.0729	25.9831
4.0538	26.0021
4.0349	25.934
4.0161	25.9684
3.9976	26.0134
3.9792	25.9759
3.9609	25.9355
3.9428	25.9311
3.9249	25.9541
3.9072	25.9825
3.8896	25.9053
3.8722	25.7591
3.8549	25.6069
3.8378	25.6357
3.8208	25.4875
3.804	25.4074
3.7873	25.4038
3.7708	25.1868
3.7544	25.1851
3.7382	25.0637
3.7221	24.9269
3.7061	24.6882
3.6903	24.6324
3.6746	24.5927
3.659	24.3598
3.6436	24.1713
3.6283	23.9792
3.6131	23.9831
3.5981	23.7743
3.5832	23.5417
3.5684	23.3557
3.5537	23.1167
3.5391	22.9105
3.5247	22.7508
3.5104	22.4265
3.4962	22.3174
3.4821	22.0657
3.4681	21.88
3.4543	21.6731
3.4405	21.4711
3.4269	21.2652
3.4133	20.775
3.3999	20.663
3.3866	20.3644
3.3733	20.1476
3.3602	19.8844
3.3472	19.6023
3.3343	19.2617
3.3215	18.992
3.3088	18.8696
3.2961	18.3801
3.2836	18.1038
3.2712	17.7415
3.2588	17.4809
3.2466	17.2765
3.2345	16.9467
3.2224	16.6855
3.2104	16.1196
3.1985	15.9941
3.1867	15.6015
3.175	15.2464
3.1634	14.8915
3.1519	14.6864
3.1404	14.344
3.129	13.8663
3.1178	13.5163
3.1065	13.4008
3.0954	13.1356
3.0844	12.7018
3.0734	12.3667
3.0625	12.3096
3.0517	11.9292
3.041	11.715
3.0303	11.5265
3.0197	11.023
3.0092	10.8161
2.9987	10.5882
2.9884	10.5213
2.9781	10.1814
2.9678	10.1194
2.9577	10.0205
2.9476	9.9117
2.9376	10.1007
2.9276	10.2886
2.9177	10.6807
2.9079	11.1968
2.8982	11.4803
2.8885	12.325
2.8789	12.6297
2.8693	13.5058
2.8598	13.9293
2.8504	14.5989
2.841	15.32
2.8317	15.6233
2.8224	16.2599
2.8133	16.9495
2.8041	17.86
2.7951	18.5079
2.786	19.3046
2.7771	19.7026
2.7682	20.3714
2.7594	20.6167
2.7506	21.0706
2.7418	21.7007
2.7332	21.669
2.7246	22.3215
2.716	22.1881
2.7075	22.0957
2.699	22.2463
2.6906	22.6265
2.6823	22.7254
2.674	22.7836
2.6657	23.3967
2.6575	22.698
2.6494	22.7985
2.6413	22.6658
2.6332	22.7376
2.6252	22.6845
2.6173	22.9
2.6094	22.8029
2.6015	22.6859
2.5937	22.8249
2.5859	22.4036
2.5782	22.3603
2.5706	22.3923
2.5629	22.462
2.5554	22.1846
2.5478	22.1175
2.5403	22.0845
2.5329	21.9698
2.5255	21.9308
2.5181	22.0263
2.5108	21.889
2.5035	21.8203
2.4963	21.7758
2.4891	21.8335
2.482	21.6979
2.4749	21.4644
2.4678	21.4037
2.4608	21.2374
2.4538	21.4267
2.4468	21.458
2.4399	21.226
2.4331	21.2181
2.4262	21.1679
2.4194	20.7596
2.4127	20.7594
2.4059	20.9071
2.3993	20.6899
2.3926	20.6278
2.386	20.3699
2.3795	20.4309
2.3729	20.3246
2.3664	20.2204
2.36	20.1673
2.3535	20.1077
2.3471	20.0986
2.3408	19.9087
2.3345	19.6627
2.3282	19.7758
2.3219	19.7264
2.3157	19.472
2.3095	19.344
2.3034	19.1603
2.2972	19.2963
2.2911	19.1446
2.2851	19.1159
2.279	18.8131
2.2731	19.31
2.2671	18.7633
2.2612	18.9739
2.2553	18.7013
2.2494	18.4046
2.2435	18.5809
2.2377	18.5943
2.232	18.2405
2.2262	18.1898
2.2205	17.9821
2.2148	17.9523
2.2091	17.9074
2.2035	17.8067
2.1979	17.6216
2.1923	17.734
2.1868	17.4062
2.1812	17.526
2.1758	17.3853
2.1703	17.0838
2.1649	17.3162
2.1595	17.2425
2.1541	17.0277
2.1487	16.7472
2.1434	16.4209
2.1381	16.5167
2.1328	16.3113
2.1275	16.2506
2.1223	16.0508
2.1171	16.0048
2.112	16.0966
2.1068	15.892
2.1017	15.7276
2.0966	15.9714
2.0915	15.5757
2.0865	15.7928
2.0814	15.9814
2.0764	14.6301
2.0715	15.8794
2.0665	14.8986
2.0616	14.5607
2.0567	15.108
2.0518	14.842
2.0469	14.7733
2.0421	14.8481
2.0373	14.4067
2.0325	14.5029
2.0277	14.0142
2.0229	14.0534
2.0182	14.0112
2.0135	13.9405
2.0088	13.6031
2.0042	13.6494
