Name: Amblygonite (Li,Na)Al(PO_4)(F,OH)
Type: Mineral
Class: Phosphate
Subclass: None
Particle Size: Coarse
Sample No.: P-3A
Owner: JPL
Wavelength Range: VSWIR
Origin: USA, California, San Diego County, Pala
Description: Particle size was 125-500um.Collected by Burminco Original ASTER Spectral Library name was jpl.beckman.mineral.phosphate.none.coarse.p03a.spectrum.txt
Measurement: Hemispherical reflectance
X Units: Wavelength (micrometers)
Y Units: Reflectance (percent)
wavelength	value
0.4	71.35
0.403	71.8
0.406	72.23
0.409	72.57
0.412	72.93
0.415	73.21
0.418	73.39
0.421	73.72
0.424	73.85
0.427	74.31
0.43	74.56
0.433	74.72
0.436	74.99
0.439	75.08
0.442	75.41
0.445	75.73
0.448	75.99
0.451	76.11
0.454	76.31
0.457	76.48
0.46	76.77
0.463	76.91
0.466	77.13
0.469	77.3
0.472	77.29
0.475	77.47
0.478	77.74
0.481	77.82
0.484	77.96
0.487	77.91
0.49	78.05
0.493	78.09
0.496	78.17
0.499	78.45
0.502	78.39
0.505	78.51
0.508	78.57
0.511	78.66
0.514	78.76
0.517	78.8
0.52	79.05
0.523	78.96
0.526	78.95
0.529	78.99
0.532	79.05
0.535	79.01
0.538	79.17
0.541	79.31
0.544	79.21
0.547	79.4
0.55	79.42
0.553	79.37
0.556	79.64
0.559	79.54
0.562	79.91
0.565	80.05
0.568	80.01
0.571	80.01
0.574	79.83
0.577	79.93
0.58	80.13
0.583	80.15
0.586	80.13
0.589	80.09
0.592	80.35
0.595	80.36
0.598	80.58
0.601	80.67
0.604	80.77
0.607	80.78
0.61	80.88
0.613	81.09
0.616	81.11
0.619	81.08
0.622	81.26
0.625	81.34
0.628	81.57
0.631	81.45
0.634	81.48
0.637	81.6
0.64	81.62
0.643	81.86
0.646	81.78
0.649	81.85
0.652	81.92
0.655	82
0.658	82.24
0.661	82.17
0.664	82.17
0.667	82.17
0.67	82.3
0.673	82.41
0.676	82.36
0.679	82.33
0.682	82.38
0.685	82.27
0.688	82.48
0.691	82.44
0.694	82.43
0.697	82.4
0.7	82.3
0.703	82.43
0.706	82.45
0.709	82.51
0.712	82.37
0.715	82.42
0.718	82.43
0.721	82.49
0.724	82.37
0.727	82.32
0.73	82.34
0.733	82.43
0.736	82.54
0.739	82.2
0.742	82.32
0.745	82.37
0.748	82.4
0.751	82.54
0.754	82.38
0.757	82.33
0.76	82.31
0.763	82.47
0.766	82.46
0.769	82.4
0.772	82.35
0.775	82.35
0.778	82.57
0.781	82.43
0.784	82.56
0.787	82.52
0.79	82.48
0.793	82.6
0.796	82.51
0.799	82.56
0.808	82.74
0.82	82.83
0.832	83.1
0.844	83.16
0.856	83.31
0.868	83.53
0.88	83.53
0.892	83.65
0.904	83.77
0.916	83.82
0.928	83.84
0.94	83.93
0.952	83.98
0.964	83.74
0.976	83.99
0.988	84
1	83.97
1.012	84.09
1.024	84.12
1.036	84.16
1.048	84.2
1.06	84.24
1.072	84.3
1.084	84.3
1.096	84.41
1.108	84.38
1.12	84.39
1.132	84.44
1.144	84.31
1.156	84.23
1.168	84.23
1.18	84.24
1.192	84.17
1.204	84.25
1.216	83.89
1.228	83.89
1.24	83.65
1.252	83.41
1.264	83.14
1.276	82.56
1.288	81.53
1.3	81.86
1.312	82.03
1.324	81.66
1.336	80.98
1.348	79.78
1.36	79.87
1.372	79.61
1.384	77.63
1.396	75.91
1.408	70.76
1.42	71.12
1.432	72.46
1.444	71.47
1.456	71.96
1.468	70.34
1.48	68.83
1.492	67.73
1.504	64.95
1.516	61.44
1.528	58.37
1.54	57.48
1.552	59.26
1.564	61.98
1.576	64.26
1.588	65.78
1.6	66.38
1.612	67.22
1.624	67.98
1.636	68.33
1.648	68.5
1.66	68.78
1.672	68.94
1.684	69.03
1.696	68.81
1.708	68.15
1.72	66.34
1.732	65.32
1.744	65.2
1.756	64.74
1.768	64.52
1.78	65.16
1.792	66.2
1.804	66.6
1.816	65.98
1.828	62.41
1.84	55.93
1.852	55.66
1.864	58.16
1.876	58.84
1.888	58.2
1.9	57.14
1.912	56.31
1.924	56.46
1.936	56.57
1.948	56.25
1.96	54.64
1.972	49.1
1.984	40.47
1.996	40.38
2.008	47.98
2.02	52.07
2.032	51.75
2.044	50.17
2.056	49.13
2.068	49.33
2.08	49.98
2.092	49.65
2.104	48.12
2.116	45.97
2.128	43.63
2.14	38.87
2.152	28.07
2.164	16.46
2.176	12.53
2.188	14.7
2.2	18.62
2.212	23.14
2.224	27.24
2.236	30.56
2.248	33.38
2.26	35.64
2.272	37.45
2.284	39.41
2.296	41.86
2.308	43.87
2.32	44.5
2.332	42.88
2.344	36.12
2.356	24.98
2.368	17.19
2.38	18.55
2.392	25.75
2.404	32.23
2.416	35.33
2.428	35.54
2.44	34.05
2.452	31.43
2.464	28.35
2.476	25.65
2.488	23.59
2.5	22.13
