Name: Molybdenite MoS_2
Type: Mineral
Class: Sulfide
Subclass: None
Particle Size: Coarse
Sample No.: S-11A
Owner: JPL
Wavelength Range: VSWIR
Origin: Norway, Arendal, Froland.
Description: Particle size was 125-500um. Collected by:  JPL Original ASTER Spectral Library name was jpl.perkin.mineral.sulfide.none.coarse.s11a.spectrum.txt
Measurement: Hemispherical reflectance
X Units: Wavelength (micrometers)
Y Units: Reflectance (percent)
wavelength	value
2.5	48.2796
2.494	48.289
2.488	48.4214
2.482	48.2264
2.476	48.2471
2.47	48.4114
2.464	48.4415
2.458	48.4994
2.452	48.5543
2.446	48.5191
2.44	48.6357
2.434	48.6935
2.428	48.8093
2.422	48.7445
2.416	48.8132
2.41	48.9395
2.404	48.9852
2.398	49.0063
2.392	49.0901
2.386	49.0883
2.38	49.1849
2.374	49.2299
2.368	49.2777
2.362	49.3019
2.356	49.3859
2.35	49.392
2.344	49.3736
2.338	49.4095
2.332	49.3508
2.326	49.3792
2.32	49.3318
2.314	49.2902
2.308	49.3229
2.302	49.3073
2.296	49.2564
2.29	49.2311
2.284	49.2181
2.278	49.1733
2.272	49.1729
2.266	49.308
2.26	49.1481
2.254	49.2306
2.248	49.2252
2.242	49.2267
2.236	49.1467
2.23	49.1733
2.224	49.1886
2.218	49.1455
2.212	49.221
2.206	49.237
2.2	49.3061
2.194	49.2999
2.188	49.2713
2.182	49.2943
2.176	49.4983
2.17	49.4778
2.164	49.573
2.158	49.7345
2.152	49.7105
2.146	49.7703
2.14	49.7818
2.134	49.5617
2.128	49.4377
2.122	49.2036
2.116	49.1354
2.11	48.9326
2.104	48.8162
2.098	48.6765
2.092	48.6584
2.086	48.6791
2.08	48.7292
2.074	48.7611
2.068	48.7551
2.062	48.8204
2.056	48.8344
2.05	48.837
2.044	48.8312
2.038	48.8699
2.032	48.7976
2.026	48.7636
2.02	48.7756
2.014	48.7413
2.008	48.6777
2.002	48.632
1.996	48.5468
1.99	48.5197
1.984	48.369
1.978	48.3434
1.972	48.2239
1.966	48.1619
1.96	48.1158
1.954	48
1.948	47.9075
1.942	47.9642
1.936	47.8265
1.93	47.765
1.924	47.7022
1.918	47.6185
1.912	47.7171
1.906	47.7381
1.9	47.7446
1.894	47.8157
1.888	47.9386
1.882	48.0159
1.876	48.1716
1.87	47.765
1.864	47.977
1.858	47.9458
1.852	48.0089
1.846	47.8837
1.84	47.932
1.834	47.7975
1.828	47.7031
1.822	47.7178
1.816	47.6334
1.81	47.6681
1.804	47.6144
1.798	47.5599
1.792	47.534
1.786	47.4166
1.78	47.3299
1.774	47.211
1.768	47.1141
1.762	47.0586
1.756	46.9739
1.75	46.9135
1.744	46.8382
1.738	46.7912
1.732	46.7157
1.726	46.6644
1.72	46.5863
1.714	46.4779
1.708	46.4147
1.702	46.2924
1.696	46.1178
1.69	46.1105
1.684	46.023
1.678	46.0293
1.672	45.9019
1.666	45.8224
1.66	45.7328
1.654	45.6451
1.648	45.529
1.642	45.6182
1.636	45.4927
1.63	45.3485
1.624	45.3553
1.618	45.2477
1.612	45.135
1.606	45.1344
1.6	45.0407
1.594	44.9566
1.588	44.9253
1.582	44.829
1.576	44.7229
1.57	44.6706
1.564	44.6271
1.558	44.5689
1.552	44.4637
1.546	44.4257
1.54	44.3139
1.534	44.2509
1.528	44.2028
1.522	44.1051
1.516	44.0784
1.51	44.0109
1.504	43.9535
1.498	43.874
1.492	43.8008
1.486	43.7179
1.48	43.5968
1.474	43.607
1.468	43.4349
1.462	43.4681
1.456	43.4107
1.45	43.311
1.444	43.2821
1.438	43.2233
1.432	43.1096
1.426	43.0047
1.42	42.9462
1.414	42.8663
1.408	42.8809
1.402	42.8616
1.396	42.7909
1.39	42.7642
1.384	42.826
1.378	42.6612
1.372	42.6442
1.366	42.5398
1.36	42.3668
1.354	42.3665
1.348	42.3187
1.342	42.2111
1.336	42.1432
1.33	42.0629
1.324	41.9835
1.318	41.9443
1.312	41.8751
1.306	41.8437
1.3	41.7126
1.294	41.723
1.288	41.565
1.282	41.4243
1.276	41.3521
1.27	41.3533
1.264	41.2226
1.258	41.1456
1.252	41.074
1.246	40.9484
1.24	40.8792
1.234	40.8736
1.228	40.7886
1.222	40.7118
1.216	40.6048
1.21	40.5839
1.204	40.4703
1.198	40.3712
1.192	40.3405
1.186	40.2128
1.18	40.1299
1.174	40.0688
1.168	40.0362
1.162	39.8148
1.156	39.7391
1.15	39.604
1.144	39.6106
1.138	39.5684
1.132	39.468
1.126	39.3613
1.12	39.2701
1.114	39.1185
1.108	39.1297
1.102	38.9947
1.096	38.9691
1.09	38.9073
1.084	38.7677
1.078	38.6431
1.072	38.5677
1.066	38.4879
1.06	38.4172
1.054	38.357
1.048	38.2651
1.042	38.1631
1.036	38.0699
1.03	37.9467
1.024	37.815
1.018	37.7346
1.012	37.5363
1.006	37.3579
1	37.0872
0.994	36.833
0.988	36.479
0.982	36.1399
0.976	35.7242
0.97	35.3257
0.964	34.8479
0.958	34.1979
0.952	33.7121
0.946	33.1932
0.94	32.5274
0.934	31.9043
0.928	31.2614
0.922	30.74
0.916	30.2026
0.91	29.6742
0.904	29.1926
0.898	28.6824
0.892	28.2331
0.886	27.8163
0.88	27.3721
0.874	27.0364
0.868	26.7183
0.862	26.3592
0.856	26.4686
0.85	26.2255
0.844	25.9823
0.838	25.7764
0.832	25.548
0.826	25.2992
0.82	25.1024
0.814	24.8872
0.808	24.6972
0.802	24.53
0.796	24.3314
0.79	24.1542
0.784	23.9622
0.778	23.8268
0.772	23.6758
0.766	23.5285
0.76	23.3623
0.754	23.2533
0.748	23.1346
0.742	23.0059
0.736	22.8842
0.73	22.777
0.724	22.6606
0.718	22.5314
0.712	22.3651
0.706	22.2126
0.7	22.0684
0.694	22.0229
0.688	22.1239
0.682	22.3056
0.676	22.2341
0.67	21.5517
0.664	20.7069
0.658	20.2067
0.652	20.0235
0.646	20.1518
0.64	20.414
0.634	20.7049
0.628	20.9341
0.622	21.0679
0.616	21.0417
0.61	20.8117
0.604	20.3733
0.598	19.8851
0.592	19.6367
0.586	19.6361
0.58	19.7388
0.574	19.8606
0.568	19.9898
0.562	20.1387
0.556	20.2612
0.55	20.4219
0.544	20.615
0.538	20.8231
0.532	21.0663
0.526	21.3319
0.52	21.6353
0.514	21.9706
0.508	22.3312
0.502	22.7163
0.496	23.1244
0.49	23.525
0.484	23.8679
0.478	24.2582
0.472	24.6054
0.466	24.913
0.46	25.1444
0.454	25.2269
0.448	25.1324
0.442	24.8792
0.436	24.628
0.43	24.462
0.424	24.4136
0.418	24.4653
0.412	24.5548
0.406	24.6775
0.4	24.7653
