Name: Lizardite Mg3Si2O5(OH)4
Type: Mineral
Class: Silicate
Subclass: Phyllosilicate
Particle Size: Coarse
Sample No.: lizard_1
Owner: JHU
Wavelength Range: TIR
Origin: Austria via the Smithsonian (sample no. NMNH R4687),acquired from Trude King, USGS.
Description: Sample was a small amount of fine white powder.  Only one anomalous grain was noted under the microscope with high birefringence (calcite or dolomite?).  (However, the infrared spectrum does not display any carbonate bands.) XRD Analysis:  Pure lizardite; sample was too small for chemical analysis. Particle size was 0-60 micrometers, but packed powder simulates coarse.(Sheet Silicates); (Serpentine/Kaoline Group) Original ASTER Spectral Library name was jhu.nicolet.mineral.silicate.phyllosilicate.packed.lizard1.spectrum.txt
Measurement: Bidirectional reflectance
X Units: Wavelength (micrometers)
Y Units: Reflectance (percent)
wavelength	value
25.0442	4.3804
24.3388	4.6753
23.6719	5.2475
23.0407	6.1411
22.4422	7.0283
21.8741	6.7341
21.334	6.9048
20.8199	6.72
20.33	6.3782
19.8627	5.6531
19.4163	3.9165
18.9896	1.8479
18.5812	1.8293
18.19	2.3125
17.815	2.6516
17.4551	2.8213
17.1094	2.9331
16.7772	2.8796
16.4576	3.6658
16.15	4.3862
15.8537	4.7385
15.568	4.8545
15.2925	5.0449
15.0265	4.9897
14.7697	3.2309
14.5214	1.7761
14.2814	0.9614
14.0492	0.8113
13.8244	0.835
13.6067	0.9097
13.3957	1.1548
13.1912	1.4443
12.9929	1.7048
12.8004	1.9629
12.6135	2.2012
12.432	2.2895
12.2557	2.363
12.0843	2.6658
11.9176	2.9343
11.7555	3.0801
11.5977	3.1875
11.444	3.2478
11.2944	3.3318
11.1487	3.2449
11.0067	2.9853
10.8682	2.9558
10.7332	3.2788
10.6015	3.6999
10.473	4.2551
10.3476	4.6648
10.2251	4.7458
10.1056	4.855
9.9887	4.9221
9.8746	4.9587
9.763	4.7353
9.6539	3.2226
9.5472	2.3953
9.4429	1.9185
9.3408	1.8176
9.2409	2.3447
9.1431	3.603
9.0474	4.5193
8.9536	3.3464
8.8618	1.5598
8.7718	0.6182
8.6837	0.5251
8.5973	0.6348
8.5126	0.7751
8.4295	0.9187
8.3481	1.0647
8.2682	1.2185
8.1898	1.418
8.1129	1.6018
8.0374	1.7666
7.9634	1.9431
7.8906	2.1411
7.8192	2.3091
7.7491	2.4465
7.6802	2.4819
7.6126	2.5693
7.5461	2.688
7.4807	2.8435
7.4165	3.0093
7.3534	3.167
7.2914	3.2815
7.2303	3.4072
7.1703	3.5098
7.1113	3.5803
7.0533	3.6963
6.9962	3.8486
6.94	3.9346
6.8847	4.0337
6.8302	4.1106
6.7767	4.2475
6.7239	4.4548
6.672	4.6318
6.6209	4.7536
6.5705	4.7107
6.5209	4.467
6.4721	4.1582
6.424	4.0027
6.3766	4.0181
6.3299	3.9255
6.2838	3.7495
6.2385	3.5928
6.1937	3.5474
6.1496	3.5801
6.1062	3.6953
6.0633	3.855
6.0211	3.9324
5.9794	3.9675
5.9383	4.0837
5.8978	4.3791
5.8578	4.7117
5.8184	5.0002
5.7794	5.2319
5.741	5.4509
5.7031	5.7148
5.6657	5.9558
5.6288	6.1328
5.5924	6.2414
5.5564	6.2412
5.5209	6.2654
5.4859	6.4453
5.4513	6.7705
5.4171	7.0246
5.3833	7.2312
5.35	7.5351
5.3171	7.988
5.2846	8.3594
5.2524	8.6816
5.2207	8.9416
5.1893	9.0725
5.1584	9.0561
5.1277	8.968
5.0975	8.928
5.0676	8.8081
5.038	8.7805
5.0088	8.7436
4.98	8.8723
4.9514	9.0693
4.9232	9.1784
4.8953	9.435
4.8678	9.6206
4.8405	9.5896
4.8135	9.5115
4.7868	9.6491
4.7605	10.0185
4.7344	10.2856
4.7086	10.4184
4.6831	10.4624
4.6578	10.4048
4.6328	10.427
4.6081	10.488
4.5837	10.6147
4.5595	10.7302
4.5356	10.8171
4.5119	10.8772
4.4884	10.9646
4.4652	10.9646
4.4423	10.9467
4.4196	10.9919
4.3971	11.0464
4.3748	11.0866
4.3528	11.1335
4.331	11.1074
4.3094	11.0898
4.288	11.0849
4.2668	11.1111
4.2458	11.1506
4.2251	11.1738
4.2045	11.1982
4.1841	11.2177
4.164	11.2126
4.144	11.2099
4.1242	11.2292
4.1046	11.2312
4.0852	11.2141
4.066	11.1792
4.047	11.0967
4.0281	10.9914
4.0094	10.7988
3.9909	10.5696
3.9725	10.2776
3.9544	10.2163
3.9363	10.2495
3.9185	10.2793
3.9008	10.4016
3.8833	10.4287
3.8659	10.4516
3.8487	10.5967
3.8316	10.5937
3.8147	10.4128
3.7979	10.3366
3.7813	10.4392
3.7648	10.551
3.7485	10.6914
3.7323	10.7732
3.7162	10.7163
3.7003	10.6335
3.6845	10.667
3.6689	10.6347
3.6534	10.5798
3.638	10.5295
3.6227	10.4721
3.6076	10.3982
3.5926	10.3227
3.5777	10.2143
3.563	10.0859
3.5484	9.8811
3.5338	9.6963
3.5195	9.2448
3.5052	8.5869
3.491	8.3811
3.477	8.3188
3.463	8.3088
3.4492	8.1323
3.4355	7.9109
3.4219	7.5022
3.4084	7.3076
3.395	7.6147
3.3817	7.6223
3.3685	7.6325
3.3554	7.8369
3.3425	7.917
3.3296	7.9458
3.3168	7.8489
3.3041	7.7209
3.2915	7.7815
3.279	7.7825
3.2666	7.7422
3.2543	7.6819
3.2421	7.5696
3.23	7.4995
3.218	7.5107
3.206	7.4731
3.1942	7.3828
3.1824	7.2795
3.1707	7.157
3.1591	7.0354
3.1476	6.8899
3.1362	6.7512
3.1249	6.6555
3.1136	6.5898
3.1024	6.4663
3.0913	6.3764
3.0803	6.3069
3.0694	6.2195
3.0585	6.0796
3.0477	5.9636
3.037	5.8437
3.0264	5.7046
3.0158	5.5676
3.0053	5.3782
2.9949	5.1599
2.9845	4.866
2.9743	4.4495
2.9641	4.0532
2.9539	3.7866
2.9439	3.6435
2.9339	3.6218
2.9239	3.6311
2.9141	3.7204
2.9043	3.9311
2.8946	4.1589
2.8849	4.3489
2.8753	4.3765
2.8658	4.2497
2.8563	3.9219
2.8469	3.4267
2.8375	2.7764
2.8282	2.231
2.819	1.9043
2.8098	1.978
2.8007	2.3826
2.7917	2.4817
2.7827	2.2754
2.7738	2.229
2.7649	3.0784
2.7561	2.8943
2.7473	1.8096
2.7386	1.2285
2.7299	1.0601
2.7213	0.8394
2.7128	0.6038
2.7043	0.7058
2.6959	2.7588
2.6875	6.8232
2.6791	8.6523
2.6709	9.697
2.6626	10.1499
2.6545	10.2278
2.6463	10.5776
2.6382	10.9502
2.6302	11.0002
2.6222	11.0044
2.6143	10.9446
2.6064	10.8679
2.5986	10.8603
2.5908	10.7165
2.583	10.5847
2.5753	10.4902
2.5677	10.2866
2.5601	10.1152
2.5525	10.2844
2.545	10.3398
2.5375	10.3635
2.5301	10.2837
2.5227	9.956
2.5154	9.636
2.5081	9.6396
2.5008	9.9504
2.4936	10.1408
2.4864	10.1867
2.4793	10.3647
2.4722	10.7253
2.4651	11.0024
2.4581	11.0683
2.4511	10.8169
2.4442	10.5058
2.4373	10.4902
2.4305	10.7534
2.4236	10.7876
2.4169	10.7866
2.4101	10.8545
2.4034	10.8137
2.3967	10.8186
2.3901	10.9458
2.3835	10.936
2.377	10.8217
2.3704	11.0219
2.364	11.4336
2.3575	11.4167
2.3511	11.2238
2.3447	10.4419
2.3384	9.6684
2.3321	9.438
2.3258	9.2129
2.3195	9.436
2.3133	9.9868
2.3071	10.3947
2.301	10.6836
2.2949	10.8257
2.2888	11.1167
2.2828	11.3257
2.2767	11.3442
2.2708	11.3418
2.2648	11.8027
2.2589	12.1616
2.253	12.1762
2.2471	12.2324
2.2413	12.3647
2.2355	12.6362
2.2297	12.9111
2.224	13.0405
2.2183	13.1176
2.2126	13.1855
2.207	13.1792
2.2013	13.238
2.1957	13.2592
2.1902	13.3088
2.1846	13.2507
2.1791	13.2531
2.1736	13.2798
2.1682	13.3554
2.1628	13.3283
2.1574	13.2817
2.152	13.1914
2.1466	13.0947
2.1413	13.0871
2.136	13.0171
2.1308	13.0695
2.1255	13.0898
2.1203	13.0791
2.1151	13.0634
2.11	13.0959
2.1048	13.1355
2.0997	13.2075
2.0946	13.218
2.0895	13.3589
2.0845	13.3938
2.0795	13.3881
