Name: Riebeckite Na_2(Fe^2+,Mg)_3,Fe_2^3+Si_8O_22(OH)_2
Type: Mineral
Class: Silicate
Subclass: Inosilicate
Particle Size: Fine
Sample No.: IN-7A
Owner: JPL
Wavelength Range: TIR
Origin: Canada, Ontario
Description: Particle size was 0-45um.Collected by Ward's Original ASTER Spectral Library name was jpl.nicolet.mineral.silicate.inosilicate.fine.in07a.spectrum.txt
Measurement: Hemispherical reflectance
X Units: Wavelength (micrometers)
Y Units: Reflectance (percent)
wavelength	value
15.3853	2.1744
15.1161	1.9647
14.8563	2.1084
14.6052	2.1357
14.3624	2.7985
14.1276	3.0463
13.9004	3.3706
13.6803	3.5367
13.4671	3.4912
13.2604	3.5464
13.06	4.0932
12.8656	5.2727
12.6769	5.7988
12.4936	6.3941
12.3155	6.7446
12.1425	7.1054
11.9742	6.7825
11.8106	6.1663
11.6513	5.6386
11.4963	5.3107
11.3454	5.0119
11.1983	5.1453
11.0551	5.2103
10.9154	5.3527
10.7793	5.3447
10.6465	5.9124
10.5169	6.5786
10.3904	7.8076
10.267	8.6946
10.1464	8.9574
10.0287	8.4682
9.9136	7.541
9.8012	6.2603
9.6913	6.0648
9.5838	6.6324
9.4787	7.0767
9.3758	6.7255
9.2752	6.4695
9.1767	5.0801
9.0803	3.6817
8.9858	2.9719
8.8934	3.7881
8.8028	5.1872
8.714	4.544
8.627	2.64
8.5417	1.3923
8.4581	1.3662
8.3761	1.6803
8.2957	2.4087
8.2169	3.1998
8.1395	4.2871
8.0635	5.2345
7.989	6.6858
7.9158	7.7543
7.8439	9.0107
7.7734	10.0098
7.7041	11.1452
7.636	12.1131
7.5691	13.0666
7.5034	14.199
7.4388	15.1431
7.3753	16.1503
7.3129	16.9043
7.2515	17.8628
7.1912	18.5268
7.1318	19.3351
7.0734	20.174
7.016	20.7941
6.9595	21.8848
6.9039	21.8673
6.8492	22.318
6.7953	23.508
6.7423	23.8811
6.6901	25.1438
6.6387	27.6848
6.5881	26.9897
6.5382	26.473
6.4892	27.7376
6.4408	25.2969
6.3931	24.1488
6.3462	24.081
6.2999	22.2582
6.2543	21.8799
6.2094	22.0959
6.1651	22.8899
6.1214	23.6842
6.0784	24.7795
6.0359	24.7902
5.994	25.7112
5.9527	25.6461
5.912	25.8702
5.8718	26.7441
5.8322	27.1912
5.7931	27.032
5.7545	27.6544
5.7165	28.3357
5.6789	28.7002
5.6418	29.9773
5.6052	29.7637
5.5691	30.3017
5.5334	31.3235
5.4982	32.6344
5.4635	34.6047
5.4291	35.6931
5.3952	36.5692
5.3618	37.4549
5.3287	37.8783
5.2961	38.1833
5.2638	38.4158
5.2319	38.755
5.2004	39.0658
5.1693	39.1372
5.1386	39.1532
5.1082	39.4158
5.0782	39.6865
5.0485	40.2032
5.0192	40.7909
4.9902	41.3385
4.9616	42.2275
4.9332	43.1073
4.9052	44.2858
4.8776	45.4618
4.8502	46.7349
4.8231	47.8363
4.7963	48.9385
4.7699	50.0568
4.7437	51.1914
4.7178	52.3234
4.6922	53.4767
4.6668	54.7464
4.6418	55.9941
4.617	57.5617
4.5924	59.0544
4.5681	60.2266
4.5441	61.3062
4.5203	62.172
4.4968	62.7799
4.4735	63.3062
4.4505	63.7189
4.4277	64.1726
4.4051	64.3493
4.3828	64.6288
4.3607	64.883
4.3388	65.1369
4.3171	65.3308
4.2956	65.6993
4.2744	66.0256
4.2534	65.926
4.2325	66.5855
4.2119	66.329
4.1915	66.35
4.1712	66.4585
4.1512	66.6815
4.1313	66.8002
4.1117	66.909
4.0922	67.122
4.0729	67.1327
4.0538	67.2753
4.0349	67.1407
4.0161	66.976
3.9976	66.5291
3.9792	66.2401
3.9609	66.5399
3.9428	67.2328
3.9249	67.6177
3.9072	67.8182
3.8896	67.9912
3.8722	68.1731
3.8549	68.3144
3.8378	68.3259
3.8208	68.4267
3.804	68.6587
3.7873	68.8727
3.7708	68.8166
3.7544	68.9694
3.7382	68.9526
3.7221	68.8902
3.7061	68.8051
3.6903	68.7537
3.6746	68.6603
3.659	68.7565
3.6436	68.5512
3.6283	68.3458
3.6131	68.4776
3.5981	68.1925
3.5832	68.1159
3.5684	67.9251
3.5537	67.6573
3.5391	67.3527
3.5247	66.8023
3.5104	65.7989
3.4962	65.2472
3.4821	65.0772
3.4681	65.1886
3.4543	65.1192
3.4405	64.8147
3.4269	63.9604
3.4133	63.1946
3.3999	63.7253
3.3866	63.7858
3.3733	63.459
3.3602	63.7026
3.3472	63.7297
3.3343	63.9253
3.3215	63.8593
3.3088	63.5627
3.2961	63.3853
3.2836	63.0278
3.2712	62.75
3.2588	62.5153
3.2466	62.371
3.2345	62.2012
3.2224	61.9449
3.2104	61.5757
3.1985	61.2223
3.1867	60.7809
3.175	60.337
3.1634	59.8373
3.1519	59.5975
3.1404	59.2169
3.129	58.8038
3.1178	58.4387
3.1065	58.2526
3.0954	57.8987
3.0844	57.5967
3.0734	57.2471
3.0625	56.9359
3.0517	56.519
3.041	56.1711
3.0303	55.8135
3.0197	55.3957
3.0092	54.9661
2.9987	54.6098
2.9884	53.9866
2.9781	53.6335
2.9678	53.1935
2.9577	52.7254
2.9476	52.4314
2.9376	52.1229
2.9276	51.8428
2.9177	51.4259
2.9079	51.128
2.8982	50.864
2.8885	50.9023
2.8789	50.5108
2.8693	50.4483
2.8598	50.1597
2.8504	50.0216
2.841	49.714
2.8317	49.3979
2.8224	49.22
2.8133	48.9904
2.8041	49.5089
2.7951	48.5569
2.786	48.5626
2.7771	47.2543
2.7682	45.2236
2.7594	41.195
2.7506	34.0848
2.7418	31.3551
2.7332	27.1862
2.7246	27.9285
2.716	30.5718
2.7075	37.3504
2.699	49.1292
2.6906	62.5475
2.6823	70.4751
2.674	73.4816
2.6657	77.115
2.6575	74.0912
2.6494	74.0694
2.6413	74.2782
2.6332	74.6969
2.6252	74.806
2.6173	76.4766
2.6094	75.6378
2.6015	75.5283
2.5937	78.1199
2.5859	75.6762
2.5782	75.2919
2.5706	75.4858
2.5629	76.0537
2.5554	74.6326
2.5478	75.1555
2.5403	74.8091
2.5329	74.8274
2.5255	74.5382
2.5181	74.5738
2.5108	74.3731
2.5035	74.3332
2.4963	74.0568
2.4891	74.2655
2.482	74.2728
2.4749	74.2495
2.4678	74.4116
2.4608	74.3319
2.4538	74.3165
2.4468	74.387
2.4399	74.3717
2.4331	74.4452
2.4262	74.1259
2.4194	73.5399
2.4127	73.0021
2.4059	72.5085
2.3993	71.6476
2.3926	71.4379
2.386	71.6738
2.3795	72.1187
2.3729	72.7983
2.3664	73.1331
2.36	72.8566
2.3535	72.5251
2.3471	71.6956
2.3408	71.2163
2.3345	70.6917
2.3282	70.4589
2.3219	70.5117
2.3157	71.3061
2.3095	72.2566
2.3034	73.3797
2.2972	74.1985
2.2911	74.789
2.2851	75.0963
2.279	75.2341
2.2731	75.4101
2.2671	75.5655
2.2612	75.5069
2.2553	75.6123
2.2494	75.7021
2.2435	75.819
2.2377	75.7169
2.232	75.8549
2.2262	75.9387
2.2205	75.7457
2.2148	75.8982
2.2091	75.8704
2.2035	75.7784
2.1979	75.708
2.1923	75.6778
2.1868	75.6462
2.1812	75.5432
2.1758	75.698
2.1703	75.7527
2.1649	75.5005
2.1595	75.5264
2.1541	75.4982
2.1487	75.2332
2.1434	75.3992
2.1381	75.4728
2.1328	75.0945
2.1275	75.2057
2.1223	75.0331
2.1171	75.294
2.112	75.0422
2.1068	75.0783
2.1017	75.1
2.0966	75.0158
2.0915	75.1216
2.0865	74.9909
2.0814	74.9157
2.0764	74.8269
2.0715	75.0319
2.0665	74.8922
2.0616	74.921
2.0567	74.9214
2.0518	74.9924
2.0469	74.9814
2.0421	74.6803
2.0373	74.6529
2.0325	74.6319
2.0277	74.3882
2.0229	74.6647
2.0182	74.484
2.0135	74.5465
2.0088	74.2056
2.0042	74.5565
