Name: Cryolite Na_3AlF_6
Type: Mineral
Class: Halide
Subclass: None
Particle Size: Fine
Sample No.: H-1A
Owner: JPL
Wavelength Range: TIR
Origin: Denmark, Greenland, Ivigtut
Description: Particle size was 0-45um.Collected by Ward's Original ASTER Spectral Library name was jpl.nicolet.mineral.halide.none.fine.h01a.spectrum.txt
Measurement: Hemispherical reflectance
X Units: Wavelength (micrometers)
Y Units: Reflectance (percent)
wavelength	value
15.3853	11.6493
15.1161	14.2482
14.8563	15.1042
14.6052	13.7619
14.3624	10.9656
14.1276	8.2692
13.9004	5.953
13.6803	4.2625
13.4671	3.0447
13.2604	2.0358
13.06	1.0931
12.8656	0.4898
12.6769	0.1488
12.4936	0
12.3155	0.2214
12.1425	0.3471
11.9742	0.76
11.8106	1.2001
11.6513	1.6622
11.4963	2.3692
11.3454	3.0941
11.1983	3.3309
11.0551	3.4535
10.9154	3.5422
10.7793	3.6865
10.6465	3.6569
10.5169	2.9164
10.3904	2.1591
10.267	1.9681
10.1464	2.2752
10.0287	2.8457
9.9136	3.8455
9.8012	4.981
9.6913	6.6039
9.5838	8.1086
9.4787	9.0075
9.3758	10.0048
9.2752	13.9501
9.1767	19.9215
9.0803	25.76
8.9858	27.6313
8.8934	23.517
8.8028	21.3948
8.714	23.3997
8.627	28.2574
8.5417	33.6939
8.4581	36.0554
8.3761	37.8435
8.2957	39.1247
8.2169	41.5978
8.1395	46.8184
8.0635	52.6959
7.989	56.5841
7.9158	59.023
7.8439	60.4673
7.7734	61.011
7.7041	61.623
7.636	61.5394
7.5691	62.0461
7.5034	62.8479
7.4388	62.7149
7.3753	62.0179
7.3129	61.4024
7.2515	60.8544
7.1912	60.5696
7.1318	59.7931
7.0734	57.9425
7.016	56.8815
6.9595	56.8963
6.9039	55.2191
6.8492	55.9429
6.7953	57.9258
6.7423	58.7234
6.6901	61.5422
6.6387	67.0171
6.5881	68.043
6.5382	69.5099
6.4892	74.4613
6.4408	72.2317
6.3931	70.9518
6.3462	70.7166
6.2999	68.2349
6.2543	67.5389
6.2094	67.1589
6.1651	68.267
6.1214	68.1608
6.0784	67.4183
6.0359	64.9291
5.994	65.8581
5.9527	70.4453
5.912	74.5592
5.8718	77.615
5.8322	79.5065
5.7931	80.7587
5.7545	83.1318
5.7165	84.7753
5.6789	84.8239
5.6418	86.2188
5.6052	85.1715
5.5691	85.0484
5.5334	85.0831
5.4982	85.9628
5.4635	87.2281
5.4291	87.2547
5.3952	86.9139
5.3618	87.2329
5.3287	87.0456
5.2961	87.2775
5.2638	87.0219
5.2319	86.9646
5.2004	86.7362
5.1693	86.4215
5.1386	86.5069
5.1082	86.7205
5.0782	86.9063
5.0485	86.9303
5.0192	87.0274
4.9902	87.0372
4.9616	87.1039
4.9332	87.2532
4.9052	87.3563
4.8776	87.2945
4.8502	87.3978
4.8231	87.6152
4.7963	87.828
4.7699	87.9756
4.7437	88.0529
4.7178	87.9912
4.6922	87.772
4.6668	87.345
4.6418	86.9993
4.617	87.0105
4.5924	87.4442
4.5681	88.0987
4.5441	88.5992
4.5203	88.9939
4.4968	89.2392
4.4735	89.3857
4.4505	89.4931
4.4277	89.5252
4.4051	89.6088
4.3828	89.7487
4.3607	89.9149
4.3388	90.0313
4.3171	90.1401
4.2956	90.2745
4.2744	89.4857
4.2534	89.6814
4.2325	90.8195
4.2119	90.7224
4.1915	90.596
4.1712	90.8454
4.1512	90.9979
4.1313	91.1035
4.1117	91.1087
4.0922	91.1359
4.0729	91.0244
4.0538	90.8623
4.0349	90.6299
4.0161	90.1917
3.9976	90.2963
3.9792	90.5129
3.9609	90.6458
3.9428	90.9861
3.9249	90.9665
3.9072	91.1379
3.8896	91.1161
3.8722	91.2301
3.8549	91.2219
3.8378	91.1774
3.8208	91.2354
3.804	91.2876
3.7873	91.3896
3.7708	91.3273
3.7544	91.3018
3.7382	91.2489
3.7221	91.1126
3.7061	90.9025
3.6903	90.8642
3.6746	90.7985
3.659	90.6718
3.6436	90.5379
3.6283	90.3635
3.6131	90.2484
3.5981	90.0726
3.5832	89.6851
3.5684	89.1826
3.5537	88.9312
3.5391	88.6661
3.5247	88.1932
3.5104	86.7855
3.4962	86.2237
3.4821	86.428
3.4681	86.295
3.4543	86.1282
3.4405	85.4957
3.4269	84.141
3.4133	83.3021
3.3999	83.9873
3.3866	84.4826
3.3733	83.9245
3.3602	84.3372
3.3472	84.603
3.3343	84.7667
3.3215	84.784
3.3088	84.4779
3.2961	84.2321
3.2836	83.7794
3.2712	83.4905
3.2588	83.0661
3.2466	82.5708
3.2345	82.1968
3.2224	81.7216
3.2104	81.2085
3.1985	80.6625
3.1867	80.119
3.175	79.5929
3.1634	79.0305
3.1519	78.33
3.1404	77.9064
3.129	77.1331
3.1178	76.5575
3.1065	75.9062
3.0954	75.5306
3.0844	75.2001
3.0734	74.7317
3.0625	74.252
3.0517	73.7995
3.041	73.1105
3.0303	72.4811
3.0197	71.8322
3.0092	71.329
2.9987	70.9041
2.9884	70.5118
2.9781	69.9613
2.9678	69.442
2.9577	69.1319
2.9476	68.7063
2.9376	67.9618
2.9276	66.9032
2.9177	65.9932
2.9079	65.1005
2.8982	64.7427
2.8885	64.7743
2.8789	65.5451
2.8693	66.3641
2.8598	66.8013
2.8504	66.3839
2.841	65.083
2.8317	65.1308
2.8224	66.1889
2.8133	67.2052
2.8041	68.9743
2.7951	69.7557
2.786	72.5033
2.7771	73.564
2.7682	75.0564
2.7594	76.4121
2.7506	78.0465
2.7418	81.0281
2.7332	81.5059
2.7246	84.7065
2.716	84.2916
2.7075	85.3011
2.699	85.6718
2.6906	86.9852
2.6823	88.4197
2.674	89.5753
2.6657	92.5089
2.6575	90.1962
2.6494	90.2849
2.6413	90.9131
2.6332	91.6223
2.6252	91.7691
2.6173	93.0147
2.6094	91.9961
2.6015	92.0135
2.5937	94.3784
2.5859	92.5718
2.5782	92.3564
2.5706	92.9004
2.5629	93.5824
2.5554	92.3466
2.5478	92.6536
2.5403	92.409
2.5329	92.7177
2.5255	92.5758
2.5181	92.498
2.5108	92.5656
2.5035	92.4208
2.4963	92.4527
2.4891	92.165
2.482	91.7527
2.4749	91.5095
2.4678	91.3509
2.4608	91.7355
2.4538	91.9669
2.4468	92.0681
2.4399	92.1332
2.4331	92.2158
2.4262	92.2776
2.4194	92.1779
2.4127	91.9736
2.4059	91.918
2.3993	92.0528
2.3926	92.2725
2.386	92.3348
2.3795	92.6411
2.3729	92.7384
2.3664	92.9595
2.36	93.0627
2.3535	93.2864
2.3471	93.3574
2.3408	93.7815
2.3345	94.0565
2.3282	94.3204
2.3219	94.6586
2.3157	94.7008
2.3095	94.4809
2.3034	94.5406
2.2972	94.6141
2.2911	94.8574
2.2851	94.8585
2.279	95.0208
2.2731	95.132
2.2671	95.0382
2.2612	94.9697
2.2553	95.1224
2.2494	95.0453
2.2435	94.9428
2.2377	94.7944
2.232	94.8812
2.2262	95.0182
2.2205	94.9181
2.2148	95.0813
2.2091	94.9591
2.2035	95.2077
2.1979	95.0592
2.1923	95.3037
2.1868	95.0349
2.1812	95.1255
2.1758	94.9886
2.1703	95.039
2.1649	95.1538
2.1595	95.0938
2.1541	95.1731
2.1487	95.2295
2.1434	95.2058
2.1381	95.1826
2.1328	95.356
2.1275	95.2307
2.1223	95.3474
2.1171	95.4219
2.112	95.1667
2.1068	95.3217
2.1017	95.2887
2.0966	95.1823
2.0915	95.3408
2.0865	95.3201
2.0814	95.3606
2.0764	95.0853
2.0715	95.7054
2.0665	95.2087
2.0616	95.3065
2.0567	95.1949
2.0518	95.1551
2.0469	95.0909
2.0421	95.3398
2.0373	95.149
2.0325	94.9848
2.0277	95.2243
2.0229	95.1017
2.0182	95.2109
2.0135	95.3284
2.0088	95.1207
2.0042	95.2612
