Name: Hemimorphite Zn4Si2O7(OH)2.H2O
Type: Mineral
Class: Silicate
Subclass: Sorosilicate
Particle Size: Fine
Sample No.: hemimor_1
Owner: JHU
Wavelength Range: TIR
Origin: Mapimi, Durango, Mexico via the Smithsonian (sampleno.NMNH 161931).
Description: The sample consisted of two white, translucent fragments about 1 cm long.  One fragment had some iron staining which was removed by picking.  Microscopic examination indicated a pure and unaltered sample. Sample was two isolated tetrahedra and had particle size less than 2 micrometers. Original ASTER Spectral Library name was jhu.nicolet.mineral.silicate.sorosilicate.powder.hemimo1.spectrum.txt
Measurement: Transmission
X Units: Wavelength (micrometers)
Y Units: Transmittance (percent)
wavelength	value
25.0442	85.4842
24.3388	87.6912
23.6719	85.0662
23.0407	80.158
22.4422	61.0233
21.8741	78.1326
21.334	91.1795
20.8199	91.533
20.33	89.7283
19.8627	86.9373
19.4163	81.3865
18.9896	71.0272
18.5812	60.2586
18.19	59.8485
17.815	49.3788
17.4551	60.7088
17.1094	64.8709
16.7772	54.9061
16.4576	51.451
16.15	74.0682
15.8537	86.6287
15.568	90.2029
15.2925	89.8787
15.0265	86.5154
14.7697	73.2772
14.5214	84.5242
14.2814	89.8211
14.0492	91.739
13.8244	92.4998
13.6067	93.0042
13.3957	93.0486
13.1912	93.199
12.9929	93.6248
12.8004	93.0623
12.6135	92.9885
12.432	91.7556
12.2557	89.9944
12.0843	87.9256
11.9176	83.3865
11.7555	72.3924
11.5977	45.8036
11.444	64.3612
11.2944	74.1639
11.1487	69.7581
11.0067	58.5204
10.8682	38.8173
10.7332	18.1464
10.6015	20.7734
10.473	28.9125
10.3476	39.7738
10.2251	54.0687
10.1056	62.7244
9.9887	68.9119
9.8746	72.0018
9.763	73.3621
9.6539	74.9964
9.5472	78.4026
9.4429	80.2752
9.3408	75.1414
9.2409	50.7992
9.1431	55.2245
9.0474	74.3191
8.9536	83.1761
8.8618	86.8816
8.7718	88.5349
8.6837	89.9339
8.5973	90.9255
8.5126	92.4856
8.4295	93.823
8.3481	94.8291
8.2682	95.5769
8.1898	96.2166
8.1129	96.6785
8.0374	97.1006
7.9634	97.3682
7.8906	97.6267
7.8192	97.915
7.7491	98.1572
7.6802	98.3591
7.6126	98.5459
7.5461	98.6892
7.4807	99.0137
7.4165	99.2041
7.3534	99.3122
7.2914	99.3281
7.2303	99.4939
7.1703	99.5246
7.1113	99.7578
7.0533	99.9394
6.9962	99.7607
6.94	99.6848
6.8847	99.8447
6.8302	99.9392
6.7767	100.11
6.7239	100.101
6.672	100.146
6.6209	100.079
6.5705	100.162
6.5209	99.9695
6.4721	99.6282
6.424	99.6728
6.3766	99.612
6.3299	99.4167
6.2838	99.2441
6.2385	98.6514
6.1937	97.5681
6.1496	93.9988
6.1062	87.6023
6.0633	96.9021
6.0211	98.6511
5.9794	99.0361
5.9383	99.947
5.8978	100.369
5.8578	100.443
5.8184	100.484
5.7794	100.415
5.741	100.428
5.7031	100.424
5.6657	100.319
5.6288	100.336
5.5924	100.256
5.5564	100.387
5.5209	100.442
5.4859	100.493
5.4513	100.496
5.4171	100.509
5.3833	100.342
5.35	100.354
5.3171	100.391
5.2846	100.436
5.2524	100.419
5.2207	100.425
5.1893	100.467
5.1584	100.555
5.1277	100.648
5.0975	100.643
5.0676	100.627
5.038	100.679
5.0088	100.662
4.98	100.642
4.9514	100.635
4.9232	100.633
4.8953	100.706
4.8678	100.729
4.8405	100.761
4.8135	100.761
4.7868	100.793
4.7605	100.904
4.7344	100.974
4.7086	100.956
4.6831	101.016
4.6578	101.062
4.6328	101.13
4.6081	101.131
4.5837	101.268
4.5595	101.231
4.5356	101.207
4.5119	101.205
4.4884	101.2
4.4652	101.211
4.4423	101.197
4.4196	101.228
4.3971	101.3
4.3748	101.261
4.3528	101.267
4.331	101.319
4.3094	101.292
4.288	101.283
4.2668	101.254
4.2458	101.335
4.2251	101.373
4.2045	101.275
4.1841	101.306
4.164	101.313
4.144	101.35
4.1242	101.398
4.1046	101.378
4.0852	101.343
4.066	101.334
4.047	101.321
4.0281	101.35
4.0094	101.39
3.9909	101.243
3.9725	101.286
3.9544	101.353
3.9363	101.304
3.9185	101.353
3.9008	101.29
3.8833	101.271
3.8659	101.189
3.8487	101.225
3.8316	101.195
3.8147	101.124
3.7979	101.082
3.7813	101.095
3.7648	101.012
3.7485	100.964
3.7323	100.916
3.7162	100.816
3.7003	100.756
3.6845	100.767
3.6689	100.61
3.6534	100.669
3.638	100.605
3.6227	100.5
3.6076	100.482
3.5926	100.42
3.5777	100.369
3.563	100.302
3.5484	100.185
3.5338	100.197
3.5195	100.22
3.5052	100.175
3.491	100.222
3.477	100.032
3.463	99.863
3.4492	99.9475
3.4355	100.015
3.4219	100.066
3.4084	99.9612
3.395	99.7703
3.3817	99.637
3.3685	99.4665
3.3554	99.2405
3.3425	99.1526
3.3296	99.0823
3.3168	98.9983
3.3041	98.8909
3.2915	98.7268
3.279	98.7463
3.2666	98.4997
3.2543	98.3328
3.2421	98.2107
3.23	97.9763
3.218	97.8621
3.206	97.5828
3.1942	97.321
3.1824	97.0964
3.1707	96.8669
3.1591	96.5007
3.1476	95.988
3.1362	95.7996
3.1249	95.2166
3.1136	94.7732
3.1024	94.0837
3.0913	93.4773
3.0803	93.4851
3.0694	93.3337
3.0585	92.9861
3.0477	92.6062
3.037	91.7673
3.0264	91.0945
3.0158	90.4539
3.0053	89.824
2.9949	89.2
2.9845	88.4998
2.9743	87.8318
2.9641	86.6326
2.9539	85.7263
2.9439	84.9578
2.9339	83.7068
2.9239	82.8211
2.9141	81.9617
2.9043	81.6404
2.8946	81.7195
2.8849	81.8211
2.8753	82.3904
2.8658	82.907
2.8563	83.6961
2.8469	84.6101
2.8375	85.2556
2.8282	85.7429
2.819	86.5515
2.8098	87.1179
2.8007	87.8181
2.7917	88.4304
2.7827	89.3025
2.7738	90.1131
2.7649	91.3123
2.7561	93.2849
2.7473	95.4968
2.7386	97.3054
2.7299	98.5115
2.7213	99.5466
2.7128	100.082
2.7043	100.468
2.6959	100.947
2.6875	101.199
2.6791	101.55
2.6709	101.778
2.6626	101.574
2.6545	101.64
2.6463	101.574
2.6382	101.628
2.6302	101.644
2.6222	101.837
2.6143	101.728
2.6064	101.859
2.5986	101.712
2.5908	101.982
2.583	102.044
2.5753	101.759
2.5677	101.767
2.5601	101.923
2.5525	101.947
2.545	101.824
2.5375	102.025
2.5301	101.915
2.5227	101.79
2.5154	101.894
2.5081	101.952
2.5008	101.931
2.4936	101.859
2.4864	102.062
2.4793	102.074
2.4722	101.866
2.4651	102.171
2.4581	102.054
2.4511	102.07
2.4442	101.804
2.4373	102.132
2.4305	102.202
2.4236	101.804
2.4169	101.861
2.4101	102.236
2.4034	102.032
2.3967	102.109
2.3901	101.792
2.3835	102.105
2.377	102.072
2.3704	102.316
2.364	102.204
2.3575	101.915
2.3511	101.976
2.3447	102.14
2.3384	102.124
2.3321	102.353
2.3258	102.025
2.3195	102.202
2.3133	102.366
2.3071	102.22
2.301	102.197
2.2949	102.087
2.2888	102.454
2.2828	102.343
2.2767	102.171
2.2708	102.39
2.2648	102.171
2.2589	102.402
2.253	102.722
2.2471	101.949
2.2413	102.382
2.2355	102.562
2.2297	102.523
2.224	102.109
2.2183	102.491
2.2126	102.187
2.207	102.57
2.2013	102.515
2.1957	102.749
2.1902	102.64
2.1846	102.546
2.1791	102.558
2.1736	102.316
2.1682	102.753
2.1628	102.847
2.1574	102.804
2.152	102.964
2.1466	102.71
2.1413	102.257
2.136	102.937
2.1308	102.663
2.1255	102.663
2.1203	103.163
2.1151	103.093
2.11	103.202
2.1048	102.331
2.0997	102.8
2.0946	103.144
2.0895	103.202
2.0845	102.921
2.0795	102.613
