Name: Richterite Na2Ca(Mg,Fe+2)5Si8O22(OH)2
Type: Mineral
Class: Silicate
Subclass: Inosilicate
Particle Size: Fine
Sample No.: richter_1
Owner: JHU
Wavelength Range: TIR
Origin: Wilberforce, Ontario, Canada via the Smithsonian (sample no.NMNH 150800)
Description: The sample consisted of two large (6.49 and 6.45 g) pieces and 2 smaller fragments, black in color. All fragments were parts of single crystals. One fragment had significant calcite contamination; all fragments had about 1% contamination with small blotchy inclusions of calcite. The crushed sample was treated with HCl, after which all grains appeared pure under the microscope. Particle size was Less than 2  Micrometers. (chain silicates); (Amphibole Group) Original ASTER Spectral Library name was jhu.nicolet.mineral.silicate.inosilicate.powder.richte1.spectrum.txt
Measurement: Transmission
X Units: Wavelength (micrometers)
Y Units: Transmittance (percent)
wavelength	value
25.0442	53.4335
24.3388	46.4139
23.6719	43.16
23.0407	34.165
22.4422	25.3837
21.8741	19.2402
21.334	20.5195
20.8199	27.3749
20.33	36.8515
19.8627	32.4906
19.4163	32.4067
18.9896	38.5722
18.5812	46.6312
18.19	50.1605
17.815	63.516
17.4551	71.2264
17.1094	75.9275
16.7772	79.5369
16.4576	80.6609
16.15	80.6492
15.8537	81.2073
15.568	80.0516
15.2925	75.1419
15.0265	65.4354
14.7697	72.8416
14.5214	77.7937
14.2814	78.618
14.0492	77.4842
13.8244	76.6307
13.6067	72.3096
13.3957	68.7928
13.1912	76.1846
12.9929	82.9317
12.8004	83.6834
12.6135	83.0166
12.432	81.1612
12.2557	79.0486
12.0843	76.0704
11.9176	71.334
11.7555	65.8294
11.5977	61.8587
11.444	56.4991
11.2944	48.5746
11.1487	41.1586
11.0067	33.4904
10.8682	28.2424
10.7332	29.214
10.6015	26.9504
10.473	23.0873
10.3476	22.7861
10.2251	21.9467
10.1056	22.6623
9.9887	27.6855
9.8746	32.1088
9.763	35.7758
9.6539	37.6962
9.5472	35.8727
9.4429	32.0888
9.3408	30.9621
9.2409	31.9482
9.1431	35.6562
9.0474	42.0385
8.9536	47.1591
8.8618	49.537
8.7718	47.014
8.6837	55.9435
8.5973	62.8878
8.5126	66.7801
8.4295	69.4515
8.3481	71.7298
8.2682	73.6946
8.1898	75.4385
8.1129	76.8777
8.0374	78.0994
7.9634	79.4656
7.8906	80.513
7.8192	81.326
7.7491	82.1477
7.6802	82.8001
7.6126	83.5618
7.5461	84.2122
7.4807	84.7469
7.4165	85.2547
7.3534	85.7298
7.2914	86.2649
7.2303	86.6262
7.1703	87.3958
7.1113	87.8587
7.0533	88.0716
6.9962	88.4395
6.94	88.8943
6.8847	89.1072
6.8302	89.322
6.7767	89.4656
6.7239	89.6961
6.672	90.0403
6.6209	90.3294
6.5705	90.6184
6.5209	90.6926
6.4721	90.8679
6.424	90.9514
6.3766	90.8699
6.3299	90.7908
6.2838	90.7317
6.2385	90.4851
6.1937	89.8489
6.1496	89.3172
6.1062	89.5105
6.0633	90.043
6.0211	91.5857
5.9794	92.5491
5.9383	92.4807
5.8978	92.367
5.8578	92.3845
5.8184	92.7141
5.7794	92.8215
5.741	92.8997
5.7031	92.991
5.6657	92.9631
5.6288	93.0759
5.5924	93.1775
5.5564	93.3626
5.5209	93.3586
5.4859	93.4758
5.4513	93.6567
5.4171	93.8162
5.3833	93.8503
5.35	93.9919
5.3171	94.0803
5.2846	94.1394
5.2524	94.1868
5.2207	94.1907
5.1893	94.2585
5.1584	94.2297
5.1277	94.2004
5.0975	94.1509
5.0676	94.0984
5.038	94.1956
5.0088	94.2144
4.98	94.2166
4.9514	94.3164
4.9232	94.3538
4.8953	94.4102
4.8678	94.4202
4.8405	94.4644
4.8135	94.5352
4.7868	94.6648
4.7605	94.6716
4.7344	94.6914
4.7086	94.7151
4.6831	94.7686
4.6578	94.8469
4.6328	94.8591
4.6081	95.0625
4.5837	94.9866
4.5595	94.9695
4.5356	94.9834
4.5119	95.0037
4.4884	95.0413
4.4652	95.0315
4.4423	95.0081
4.4196	95.0134
4.3971	95.0146
4.3748	95.0496
4.3528	95.0505
4.331	95.0574
4.3094	94.9841
4.288	95.0242
4.2668	95.0039
4.2458	95.0491
4.2251	95.0017
4.2045	94.9768
4.1841	94.9343
4.164	94.947
4.144	94.9158
4.1242	95.0071
4.1046	94.9485
4.0852	94.9841
4.066	94.8953
4.047	94.9294
4.0281	94.9031
4.0094	94.9001
3.9909	94.8586
3.9725	94.8398
3.9544	94.8066
3.9363	94.8626
3.9185	94.8535
3.9008	94.7878
3.8833	94.781
3.8659	94.6953
3.8487	94.7646
3.8316	94.6843
3.8147	94.7246
3.7979	94.7551
3.7813	94.6599
3.7648	94.6895
3.7485	94.5388
3.7323	94.5784
3.7162	94.5813
3.7003	94.4805
3.6845	94.4285
3.6689	94.3799
3.6534	94.3416
3.638	94.4189
3.6227	94.3259
3.6076	94.2939
3.5926	94.3125
3.5777	94.2158
3.563	94.2043
3.5484	94.2078
3.5338	94.1199
3.5195	94.1348
3.5052	94.2617
3.491	94.1279
3.477	94.0095
3.463	94.0012
3.4492	93.9622
3.4355	94.0046
3.4219	94.0779
3.4084	93.8633
3.395	93.7852
3.3817	93.7344
3.3685	93.8223
3.3554	93.5349
3.3425	93.5544
3.3296	93.5557
3.3168	93.5232
3.3041	93.5078
3.2915	93.3782
3.279	93.4085
3.2666	93.3171
3.2543	93.3254
3.2421	93.3381
3.23	93.2918
3.218	93.3484
3.206	93.1995
3.1942	93.0564
3.1824	93.031
3.1707	92.908
3.1591	92.7698
3.1476	92.6941
3.1362	92.5554
3.1249	92.2869
3.1136	92.1526
3.1024	91.8772
3.0913	91.5925
3.0803	91.3733
3.0694	91.1878
3.0585	90.9646
3.0477	90.8093
3.037	90.5589
3.0264	90.4378
3.0158	89.9714
3.0053	89.4578
2.9949	88.9436
2.9845	88.2381
2.9743	87.2854
2.9641	86.367
2.9539	85.6629
2.9439	84.9978
2.9339	84.3719
2.9239	84.033
2.9141	83.7146
2.9043	83.8123
2.8946	84.0511
2.8849	84.326
2.8753	84.5486
2.8658	84.8474
2.8563	85.2293
2.8469	85.6287
2.8375	86.2146
2.8282	86.7634
2.819	87.5037
2.8098	87.8845
2.8007	88.4021
2.7917	88.8616
2.7827	89.3621
2.7738	89.9221
2.7649	90.4041
2.7561	91.0842
2.7473	91.5213
2.7386	91.6487
2.7299	91.3635
2.7213	90.1721
2.7128	91.428
2.7043	91.0725
2.6959	91.1331
2.6875	92.1448
2.6791	92.5549
2.6709	92.8479
2.6626	92.5662
2.6545	92.6677
2.6463	92.7127
2.6382	92.5476
2.6302	92.783
2.6222	92.5115
2.6143	92.4666
2.6064	92.6375
2.5986	92.4519
2.5908	92.6375
2.583	92.6394
2.5753	92.3621
2.5677	92.3982
2.5601	92.573
2.5525	92.532
2.545	92.4255
2.5375	92.5798
2.5301	92.3484
2.5227	92.2791
2.5154	92.3533
2.5081	92.2947
2.5008	92.3132
2.4936	92.4939
2.4864	92.4666
2.4793	92.2322
2.4722	92.4841
2.4651	92.363
2.4581	92.4343
2.4511	92.5515
2.4442	92.2
2.4373	92.3689
2.4305	92.3562
2.4236	92.2849
2.4169	92.4666
2.4101	92.5349
2.4034	92.4255
2.3967	92.2195
2.3901	92.3845
2.3835	92.3064
2.377	92.1609
2.3704	92.1795
2.364	92.1609
2.3575	92.2224
2.3511	92.3015
2.3447	92.1375
2.3384	92.2263
2.3321	92.1033
2.3258	91.9968
2.3195	92.4695
2.3133	92.031
2.3071	92.2117
2.301	91.9646
2.2949	92.2459
2.2888	92.3943
2.2828	92.0076
2.2767	91.9216
2.2708	92.1755
2.2648	92.2361
2.2589	92.1755
2.253	92.2654
2.2471	92.2478
2.2413	92.033
2.2355	92.0037
2.2297	92.033
2.224	92.0408
2.2183	91.8123
2.2126	92.0759
2.207	91.9959
2.2013	91.6013
2.1957	92.0525
2.1902	92.1873
2.1846	92.115
2.1791	91.8923
2.1736	91.8142
2.1682	91.8357
2.1628	91.906
2.1574	92.158
2.152	91.5623
2.1466	91.8845
2.1413	91.9314
2.136	91.908
2.1308	91.9861
2.1255	91.8084
2.1203	91.7693
2.1151	91.8201
2.11	91.8377
2.1048	91.6834
2.0997	92.0173
2.0946	92.1834
2.0895	91.7771
2.0845	91.9529
2.0795	91.9627
