Name: Kaolinite Al2Si2O5(OH)4
Type: Mineral
Class: Silicate
Subclass: Phyllosilicate
Particle Size: Fine
Sample No.: kaolinite_2
Owner: JHU
Wavelength Range: TIR
Origin: Warren County, Georgia, via Hunt and Salisbury Collection#CMS KGA-2 (purchased from Clay Mineral Society Repository)
Description: Cream-colored, earthy clay. Completely disordered kaolinite. Sample particle size was less than 2 micrometers.(Chain Silicates); (Serpentine/Kaoline Group) Original ASTER Spectral Library name was jhu.nicolet.mineral.silicate.phyllosilicate.powder.kaolin2.spectrum.txt
Measurement: Transmission
X Units: Wavelength (micrometers)
Y Units: Transmittance (percent)
wavelength	value
25.0442	80.7264
24.3388	60.5858
23.6719	50.2889
23.0407	39.1112
22.4422	61.1346
21.8741	53.8475
21.334	20.5234
20.8199	31.705
20.33	65.5233
19.8627	65.4666
19.4163	57.1327
18.9896	30.5976
18.5812	11.083
18.19	13.2548
17.815	24.9843
17.4551	40.7147
17.1094	51.076
16.7772	57.0711
16.4576	61.4412
16.15	68.3475
15.8537	70.407
15.568	68.2703
15.2925	66.9862
15.0265	64.8475
14.7697	59.6883
14.5214	51.0663
14.2814	48.9149
14.0492	68.1766
13.8244	79.3636
13.6067	79.7054
13.3957	72.6722
13.1912	70.1365
12.9929	76.9119
12.8004	76.6512
12.6135	74.4358
12.432	80.617
12.2557	88.3377
12.0843	90.4885
11.9176	91.0374
11.7555	90.615
11.5977	89.2327
11.444	86.3694
11.2944	81.012
11.1487	68.3206
11.0067	36.8437
10.8682	31.4521
10.7332	44.6488
10.6015	47.4906
10.473	69.5745
10.3476	76.3265
10.2251	72.8792
10.1056	55.2167
9.9887	20.2099
9.8746	5.479
9.763	9.5415
9.6539	2.9492
9.5472	13.4809
9.4429	30.7582
9.3408	36.5731
9.2409	29.7704
9.1431	20.0253
9.0474	20.3847
8.9536	25.6015
8.8618	54.5155
8.7718	69.6863
8.6837	76.9715
8.5973	81.2737
8.5126	84.3289
8.4295	86.614
8.3481	88.3877
8.2682	89.8799
8.1898	91.2383
8.1129	92.1062
8.0374	92.8857
7.9634	93.4705
7.8906	93.9814
7.8192	94.375
7.7491	94.7239
7.6802	94.9675
7.6126	95.1794
7.5461	95.5293
7.4807	95.8132
7.4165	95.988
7.3534	96.1853
7.2914	96.2644
7.2303	96.3027
7.1703	96.0906
7.1113	96.3035
7.0533	96.6716
6.9962	96.7129
6.94	96.7151
6.8847	96.8447
6.8302	96.9622
6.7767	97.0986
6.7239	97.3271
6.672	97.302
6.6209	97.3513
6.5705	97.365
6.5209	97.4346
6.4721	97.4402
6.424	97.4939
6.3766	97.5574
6.3299	97.4199
6.2838	97.3066
6.2385	97.0149
6.1937	96.498
6.1496	96.1377
6.1062	96.179
6.0633	96.1799
6.0211	96.1033
5.9794	96.0225
5.9383	96.7656
5.8978	97.281
5.8578	97.5947
5.8184	97.7322
5.7794	97.8845
5.741	98.1257
5.7031	98.2595
5.6657	98.3926
5.6288	98.5088
5.5924	98.5837
5.5564	98.6121
5.5209	98.3445
5.4859	98.0478
5.4513	98.3122
5.4171	98.4783
5.3833	98.6106
5.35	98.6807
5.3171	98.8611
5.2846	98.8125
5.2524	98.7207
5.2207	98.6601
5.1893	98.615
5.1584	98.6611
5.1277	98.7392
5.0975	98.9961
5.0676	99.2305
5.038	99.3865
5.0088	99.5549
4.98	99.779
4.9514	99.8591
4.9232	99.863
4.8953	99.9182
4.8678	100.035
4.8405	100.119
4.8135	100.098
4.7868	100.164
4.7605	100.213
4.7344	100.217
4.7086	100.221
4.6831	100.201
4.6578	100.209
4.6328	100.322
4.6081	100.343
4.5837	100.439
4.5595	100.496
4.5356	100.508
4.5119	100.465
4.4884	100.543
4.4652	100.514
4.4423	100.534
4.4196	100.547
4.3971	100.537
4.3748	100.578
4.3528	100.533
4.331	100.567
4.3094	100.407
4.288	100.212
4.2668	100.25
4.2458	100.22
4.2251	100.219
4.2045	100.533
4.1841	100.576
4.164	100.583
4.144	100.613
4.1242	100.589
4.1046	100.586
4.0852	100.585
4.066	100.565
4.047	100.609
4.0281	100.594
4.0094	100.635
3.9909	100.523
3.9725	100.531
3.9544	100.666
3.9363	100.671
3.9185	100.726
3.9008	100.712
3.8833	100.617
3.8659	100.658
3.8487	100.712
3.8316	100.701
3.8147	100.637
3.7979	100.642
3.7813	100.73
3.7648	100.637
3.7485	100.646
3.7323	100.586
3.7162	100.668
3.7003	100.521
3.6845	100.618
3.6689	100.483
3.6534	100.534
3.638	100.545
3.6227	100.495
3.6076	100.449
3.5926	100.446
3.5777	100.425
3.563	100.385
3.5484	100.368
3.5338	100.358
3.5195	100.482
3.5052	100.646
3.491	100.449
3.477	100.295
3.463	100.273
3.4492	100.402
3.4355	100.463
3.4219	100.677
3.4084	100.433
3.395	100.178
3.3817	100.021
3.3685	99.8733
3.3554	99.8049
3.3425	99.717
3.3296	99.6897
3.3168	99.5178
3.3041	99.5784
3.2915	99.449
3.279	99.4587
3.2666	99.3425
3.2543	99.1472
3.2421	99.1482
3.23	99.032
3.218	98.9001
3.206	98.7966
3.1942	98.5945
3.1824	98.5876
3.1707	98.5144
3.1591	98.4021
3.1476	98.1941
3.1362	98.197
3.1249	98.0466
3.1136	98.0544
3.1024	97.9607
3.0913	97.9685
3.0803	97.9431
3.0694	97.9665
3.0585	97.7615
3.0477	97.8279
3.037	97.5974
3.0264	97.4792
3.0158	97.2234
3.0053	97.0505
2.9949	96.8962
2.9845	96.8083
2.9743	96.5525
2.9641	96.2087
2.9539	96.0994
2.9439	95.8904
2.9339	95.6912
2.9239	95.3181
2.9141	94.4431
2.9043	94.6834
2.8946	94.8748
2.8849	94.7732
2.8753	94.6951
2.8658	94.8123
2.8563	94.8611
2.8469	94.7693
2.8375	94.572
2.8282	94.3162
2.819	93.7419
2.8098	93.2478
2.8007	92.1218
2.7917	90.7849
2.7827	88.6804
2.7738	84.1092
2.7649	58.5477
2.7561	64.2225
2.7473	70.2889
2.7386	56.7938
2.7299	59.6522
2.7213	58.5545
2.7128	39.6171
2.7043	23.0322
2.6959	61.2313
2.6875	84.4656
2.6791	92.2146
2.6709	95.2585
2.6626	96.7771
2.6545	97.6404
2.6463	98.2234
2.6382	98.8142
2.6302	98.9529
2.6222	99.3005
2.6143	99.5701
2.6064	99.3747
2.5986	99.699
2.5908	99.9548
2.583	100.062
2.5753	99.8279
2.5677	99.9158
2.5601	100.103
2.5525	100.126
2.545	100.214
2.5375	100.394
2.5301	100.218
2.5227	100.167
2.5154	100.292
2.5081	100.238
2.5008	100.486
2.4936	100.46
2.4864	100.542
2.4793	100.564
2.4722	100.679
2.4651	100.773
2.4581	100.843
2.4511	100.876
2.4442	100.745
2.4373	101.025
2.4305	100.964
2.4236	100.962
2.4169	100.939
2.4101	101.12
2.4034	101.171
2.3967	101.157
2.3901	100.855
2.3835	101.306
2.377	101.269
2.3704	101.382
2.364	101.312
2.3575	101.175
2.3511	101.421
2.3447	101.064
2.3384	101.366
2.3321	101.493
2.3258	101.222
2.3195	101.566
2.3133	101.65
2.3071	101.72
2.301	101.478
2.2949	101.806
2.2888	101.657
2.2828	101.79
2.2767	101.884
2.2708	101.964
2.2648	102.077
2.2589	101.741
2.253	101.781
2.2471	101.726
2.2413	101.984
2.2355	102.183
2.2297	102.019
2.224	101.859
2.2183	101.89
2.2126	101.648
2.207	101.019
2.2013	102.277
2.1957	102.093
2.1902	101.945
2.1846	102.156
2.1791	101.734
2.1736	102.281
2.1682	102.23
2.1628	102.374
2.1574	101.624
2.152	102.788
2.1466	102.331
2.1413	102.519
2.136	102.109
2.1308	102.679
2.1255	102.531
2.1203	102.554
2.1151	103.249
2.11	101.554
2.1048	102.613
2.0997	103.148
2.0946	102.882
2.0895	102.866
2.0845	103.409
2.0795	102.722
