Name: Quartz SiO_2
Type: Mineral
Class: Silicate
Subclass: Tectosilicate
Particle Size: Medium
Sample No.: TS-1C
Owner: JPL
Wavelength Range: TIR
Origin: USA, South Dakota, Custer County, Custer
Description: Rose quartz. Particle size was 45-125um.Collected by Ward's Original ASTER Spectral Library name was jpl.nicolet.mineral.silicate.tectosilicate.medium.ts01c.spectrum.txt
Measurement: Hemispherical reflectance
X Units: Wavelength (micrometers)
Y Units: Reflectance (percent)
wavelength	value
15.3853	6.7492
15.1161	6.4421
14.8563	5.4395
14.6052	4.6109
14.3624	3.7838
14.1276	3.6615
13.9004	4.4466
13.6803	5.298
13.4671	5.4451
13.2604	5.6502
13.06	6.6927
12.8656	11.1475
12.6769	8.4836
12.4936	10.9272
12.3155	1.1699
12.1425	1.9605
11.9742	3.0452
11.8106	4.0039
11.6513	4.7298
11.4963	5.1416
11.3454	5.7155
11.1983	5.8998
11.0551	6.535
10.9154	6.5383
10.7793	6.6608
10.6465	6.577
10.5169	6.9228
10.3904	7.1305
10.267	7.7231
10.1464	8.1667
10.0287	8.7294
9.9136	9.8147
9.8012	11.1081
9.6913	12.9708
9.5838	16.0124
9.4787	21.6753
9.3758	36.1922
9.2752	50.4538
9.1767	53.1267
9.0803	54.1449
8.9858	54.1749
8.8934	53.1619
8.8028	50.3153
8.714	45.97
8.627	29.2597
8.5417	46.8527
8.4581	48.2022
8.3761	46.8575
8.2957	45.7413
8.2169	44.2334
8.1395	35.3554
8.0635	22.4588
7.989	14.0157
7.9158	7.6488
7.8439	4.2316
7.7734	2.4477
7.7041	1.4178
7.636	0.6684
7.5691	0.267
7.5034	0.1147
7.4388	0.1446
7.3753	0.0505
7.3129	0.1026
7.2515	0.1234
7.1912	0.2812
7.1318	0.2567
7.0734	0.4663
7.016	0.6855
6.9595	0.9148
6.9039	1.2047
6.8492	1.3044
6.7953	1.227
6.7423	1.0112
6.6901	1.0445
6.6387	1.2853
6.5881	1.2379
6.5382	1.2175
6.4892	2.2995
6.4408	3.4289
6.3931	3.142
6.3462	2.358
6.2999	1.6393
6.2543	1.2403
6.2094	1.0933
6.1651	1.3755
6.1214	2.2828
6.0784	3.2288
6.0359	3.2782
5.994	2.8133
5.9527	2.2516
5.912	2.3702
5.8718	3.4206
5.8322	4.8396
5.7931	6.2295
5.7545	7.6479
5.7165	8.5185
5.6789	7.3165
5.6418	4.0225
5.6052	2.7102
5.5691	2.5773
5.5334	3.0135
5.4982	4.0628
5.4635	5.3526
5.4291	4.5644
5.3952	2.3572
5.3618	1.5881
5.3287	1.6168
5.2961	1.7123
5.2638	2.1673
5.2319	3.4066
5.2004	5.2639
5.1693	5.0629
5.1386	4.6823
5.1082	4.5522
5.0782	3.8437
5.0485	3.527
5.0192	3.4101
4.9902	3.6512
4.9616	5.3686
4.9332	7.1556
4.9052	11.2505
4.8776	20.4942
4.8502	27.5955
4.8231	32.3604
4.7963	36.2813
4.7699	39.3916
4.7437	41.6451
4.7178	42.0233
4.6922	37.0561
4.6668	38.2926
4.6418	44.6352
4.617	49.6631
4.5924	51.6068
4.5681	51.4448
4.5441	47.6765
4.5203	40.3662
4.4968	32.9359
4.4735	30.3635
4.4505	32.0561
4.4277	34.3962
4.4051	37.713
4.3828	42.1937
4.3607	47.1793
4.3388	50.3479
4.3171	50.6559
4.2956	49.2618
4.2744	49.9667
4.2534	52.1774
4.2325	51.5133
4.2119	52.7001
4.1915	53.2655
4.1712	55.2924
4.1512	56.7336
4.1313	58.252
4.1117	60.3839
4.0922	62.5176
4.0729	64.1351
4.0538	64.6182
4.0349	64.1876
4.0161	63.9616
3.9976	64.1405
3.9792	65.0992
3.9609	66.5774
3.9428	67.9975
3.9249	68.905
3.9072	68.8029
3.8896	67.8563
3.8722	66.894
3.8549	66.3432
3.8378	66.5376
3.8208	67.3296
3.804	67.839
3.7873	67.5753
3.7708	66.6803
3.7544	65.7064
3.7382	65.5215
3.7221	66.4443
3.7061	68.0291
3.6903	70.0783
3.6746	72.0443
3.659	73.5327
3.6436	74.2116
3.6283	74.4413
3.6131	74.5776
3.5981	74.8444
3.5832	75.3335
3.5684	75.9306
3.5537	76.6902
3.5391	77.3602
3.5247	78.0814
3.5104	78.227
3.4962	78.3479
3.4821	79.0451
3.4681	79.3233
3.4543	79.4451
3.4405	79.2257
3.4269	78.4716
3.4133	77.8202
3.3999	78.2605
3.3866	78.4548
3.3733	78.2001
3.3602	78.7467
3.3472	79.0181
3.3343	78.8621
3.3215	78.7812
3.3088	78.3225
3.2961	78.1754
3.2836	77.5977
3.2712	77.2228
3.2588	76.8244
3.2466	76.4727
3.2345	76.0635
3.2224	75.5038
3.2104	75.0433
3.1985	74.5309
3.1867	73.8791
3.175	73.3273
3.1634	72.6311
3.1519	71.7564
3.1404	70.5622
3.129	69.7047
3.1178	69.3472
3.1065	69.2414
3.0954	69.0502
3.0844	68.6371
3.0734	68.1813
3.0625	67.4521
3.0517	66.429
3.041	65.3221
3.0303	64.648
3.0197	64.0125
3.0092	64.1989
2.9987	64.6607
2.9884	64.69
2.9781	63.6729
2.9678	60.5471
2.9577	58.7344
2.9476	61.6557
2.9376	63.1508
2.9276	63.3108
2.9177	63.2823
2.9079	63.9322
2.8982	65.1775
2.8885	66.0212
2.8789	66.1004
2.8693	64.9535
2.8598	67.6933
2.8504	68.4745
2.841	69.0854
2.8317	69.6156
2.8224	70.1911
2.8133	70.9543
2.8041	71.8999
2.7951	72.2976
2.786	73.0228
2.7771	73.2539
2.7682	73.7246
2.7594	73.2527
2.7506	73.9341
2.7418	75.5187
2.7332	76.6777
2.7246	78.828
2.716	80.2915
2.7075	81.5852
2.699	82.7068
2.6906	83.8472
2.6823	84.5596
2.674	85.0036
2.6657	86.1731
2.6575	85.3026
2.6494	85.3273
2.6413	85.5016
2.6332	85.733
2.6252	85.5936
2.6173	86.1901
2.6094	85.6758
2.6015	85.8088
2.5937	86.4572
2.5859	85.8474
2.5782	85.6465
2.5706	85.8849
2.5629	86.0573
2.5554	85.5868
2.5478	85.6044
2.5403	85.557
2.5329	85.67
2.5255	85.8157
2.5181	85.7883
2.5108	85.6621
2.5035	85.6813
2.4963	85.7394
2.4891	85.6598
2.482	85.6393
2.4749	85.6397
2.4678	85.7601
2.4608	85.8195
2.4538	85.7033
2.4468	85.9264
2.4399	85.7639
2.4331	85.9096
2.4262	85.8897
2.4194	85.9974
2.4127	85.9247
2.4059	85.7421
2.3993	85.7836
2.3926	85.9663
2.386	85.8534
2.3795	85.8945
2.3729	85.753
2.3664	85.9799
2.36	85.9162
2.3535	85.8466
2.3471	85.861
2.3408	86.0762
2.3345	85.8736
2.3282	85.9565
2.3219	86.0589
2.3157	86.0271
2.3095	85.9388
2.3034	85.9109
2.2972	85.9269
2.2911	86.0106
2.2851	86.0936
2.279	86.0266
2.2731	85.9758
2.2671	86.0991
2.2612	86.1799
2.2553	85.9339
2.2494	85.8608
2.2435	86.0083
2.2377	85.9128
2.232	85.9307
2.2262	85.9031
2.2205	85.891
2.2148	85.8043
2.2091	85.7609
2.2035	85.812
2.1979	85.7358
2.1923	85.7746
2.1868	85.9642
2.1812	85.9212
2.1758	85.922
2.1703	85.941
2.1649	85.8381
2.1595	85.8623
2.1541	85.8613
2.1487	86.0767
2.1434	85.8558
2.1381	85.9883
2.1328	85.9025
2.1275	86.1123
2.1223	85.9691
2.1171	86.2478
2.112	85.7699
2.1068	86.1911
2.1017	86.0375
2.0966	85.8004
2.0915	85.9203
2.0865	85.7625
2.0814	85.5885
2.0764	86.2202
2.0715	86.0724
2.0665	85.973
2.0616	85.8677
2.0567	85.8136
2.0518	85.9185
2.0469	85.8311
2.0421	85.7999
2.0373	86.0007
2.0325	85.5445
2.0277	86.0134
2.0229	85.7054
2.0182	85.7929
2.0135	85.5752
2.0088	85.9229
2.0042	85.843
