Name: Zircon ZrSiO_4
Type: Mineral
Class: Silicate
Subclass: Nesosilicate
Particle Size: Coarse
Sample No.: NS-9A
Owner: JPL
Wavelength Range: TIR
Origin: Malawi, Southern Malawi, Blantyre-Limbe District
Description: Particle size was 125-500um.Collected by Burminco Original ASTER Spectral Library name was jpl.nicolet.mineral.silicate.nesosilicate.coarse.ns09a.spectrum.txt
Measurement: Hemispherical reflectance
X Units: Wavelength (micrometers)
Y Units: Reflectance (percent)
wavelength	value
15.3853	3.9348
15.1161	3.6068
14.8563	3.9651
14.6052	4.1564
14.3624	4.3385
14.1276	5.0282
13.9004	5.3757
13.6803	5.3167
13.4671	5.8582
13.2604	6.3235
13.06	7.1411
12.8656	7.4916
12.6769	7.971
12.4936	8.0283
12.3155	9.1874
12.1425	10.4378
11.9742	12.3361
11.8106	14.7851
11.6513	18.5323
11.4963	21.2551
11.3454	22.3252
11.1983	23.0168
11.0551	23.6113
10.9154	23.8321
10.7793	24.6041
10.6465	24.8198
10.5169	25.0554
10.3904	24.7938
10.267	23.9969
10.1464	21.9219
10.0287	19.6945
9.9136	17.8252
9.8012	15.227
9.6913	10.5385
9.5838	7.8066
9.4787	6.7023
9.3758	6.3936
9.2752	5.9447
9.1767	4.849
9.0803	2.8143
8.9858	1.1639
8.8934	0.7005
8.8028	0.3757
8.714	0.2375
8.627	0.2993
8.5417	0.415
8.4581	0.4861
8.3761	0.7393
8.2957	0.6518
8.2169	0.889
8.1395	1.0963
8.0635	1.0643
7.989	1.2648
7.9158	1.4432
7.8439	1.482
7.7734	1.6229
7.7041	1.7519
7.636	1.8142
7.5691	1.9353
7.5034	2.0467
7.4388	2.1451
7.3753	2.3001
7.3129	2.4386
7.2515	2.4324
7.1912	2.6151
7.1318	2.7645
7.0734	3.0572
7.016	3.1751
6.9595	3.536
6.9039	3.7229
6.8492	4.2674
6.7953	4.5061
6.7423	4.6614
6.6901	4.7105
6.6387	4.878
6.5881	4.6973
6.5382	4.8178
6.4892	5.2872
6.4408	5.5205
6.3931	5.694
6.3462	5.8232
6.2999	5.5405
6.2543	5.6464
6.2094	6.3095
6.1651	7.1457
6.1214	8.4064
6.0784	9.0931
6.0359	9.4482
5.994	10.1445
5.9527	9.9537
5.912	10.0708
5.8718	10.1625
5.8322	10.003
5.7931	9.4946
5.7545	8.9597
5.7165	8.4043
5.6789	7.3995
5.6418	6.6978
5.6052	5.9959
5.5691	5.8884
5.5334	5.7468
5.4982	5.5073
5.4635	5.7222
5.4291	5.791
5.3952	5.5092
5.3618	5.4088
5.3287	5.6455
5.2961	5.6689
5.2638	5.7666
5.2319	5.8628
5.2004	5.9373
5.1693	5.9337
5.1386	6.2445
5.1082	6.833
5.0782	7.4563
5.0485	8.099
5.0192	8.6908
4.9902	9.4279
4.9616	10.3287
4.9332	11.6705
4.9052	12.8958
4.8776	14.6119
4.8502	16.7701
4.8231	19.0405
4.7963	21.0452
4.7699	22.9386
4.7437	24.5982
4.7178	26.038
4.6922	27.2821
4.6668	28.5704
4.6418	29.7556
4.617	30.9757
4.5924	32.0696
4.5681	33.2168
4.5441	34.3479
4.5203	35.4222
4.4968	36.4097
4.4735	37.2182
4.4505	38.1386
4.4277	38.6963
4.4051	39.1661
4.3828	39.4489
4.3607	39.7033
4.3388	39.3768
4.3171	38.3118
4.2956	36.4219
4.2744	35.1368
4.2534	36.8134
4.2325	39.3424
4.2119	41.4265
4.1915	42.6334
4.1712	43.2616
4.1512	43.6908
4.1313	43.9932
4.1117	44.2665
4.0922	44.3656
4.0729	44.4338
4.0538	44.3356
4.0349	44.2642
4.0161	43.9951
3.9976	43.8851
3.9792	43.7462
3.9609	43.5306
3.9428	43.4306
3.9249	43.1291
3.9072	42.7995
3.8896	42.5137
3.8722	42.1188
3.8549	41.5576
3.8378	41.2603
3.8208	40.8578
3.804	40.2936
3.7873	39.7046
3.7708	39.1672
3.7544	38.6023
3.7382	37.8844
3.7221	37.4336
3.7061	36.8132
3.6903	36.4335
3.6746	35.8864
3.659	35.3463
3.6436	34.8799
3.6283	34.448
3.6131	34.1899
3.5981	33.7378
3.5832	33.3733
3.5684	32.9162
3.5537	32.4608
3.5391	32.0278
3.5247	31.4233
3.5104	30.9832
3.4962	30.4088
3.4821	30.0246
3.4681	29.496
3.4543	29.1364
3.4405	28.5106
3.4269	27.9687
3.4133	27.3705
3.3999	26.9532
3.3866	26.4411
3.3733	25.6718
3.3602	25.1684
3.3472	24.7419
3.3343	24.0984
3.3215	23.5306
3.3088	22.9651
3.2961	22.284
3.2836	21.765
3.2712	21.0972
3.2588	20.5262
3.2466	19.8215
3.2345	19.2754
3.2224	18.7484
3.2104	18.2311
3.1985	17.7857
3.1867	17.184
3.175	16.7919
3.1634	16.356
3.1519	15.8055
3.1404	15.2492
3.129	15.0457
3.1178	14.4148
3.1065	13.899
3.0954	13.6075
3.0844	13.1015
3.0734	12.7375
3.0625	12.3663
3.0517	12.1252
3.041	12.1196
3.0303	11.937
3.0197	12.0692
3.0092	12.4228
2.9987	12.2645
2.9884	12.6664
2.9781	12.8
2.9678	12.9756
2.9577	13.3456
2.9476	13.6572
2.9376	14.1281
2.9276	14.6151
2.9177	15.3147
2.9079	16.1227
2.8982	16.9102
2.8885	18.2089
2.8789	19.3502
2.8693	20.6366
2.8598	21.6861
2.8504	22.974
2.841	24.2654
2.8317	25.5521
2.8224	26.935
2.8133	28.1369
2.8041	29.6469
2.7951	30.3616
2.786	31.9665
2.7771	32.8445
2.7682	33.9226
2.7594	33.2972
2.7506	36.663
2.7418	38.5949
2.7332	38.7794
2.7246	41.1874
2.716	40.7884
2.7075	39.0183
2.699	42.0161
2.6906	48.9225
2.6823	53.4159
2.674	55.5984
2.6657	59.2052
2.6575	57.5536
2.6494	58.0104
2.6413	58.5171
2.6332	59.5312
2.6252	59.8623
2.6173	60.9659
2.6094	60.3362
2.6015	60.3076
2.5937	62.6142
2.5859	60.7878
2.5782	60.4304
2.5706	60.8409
2.5629	61.5462
2.5554	60.583
2.5478	60.7719
2.5403	60.7404
2.5329	61.077
2.5255	61.0674
2.5181	61.2483
2.5108	61.4661
2.5035	61.8367
2.4963	62.1848
2.4891	62.4162
2.482	62.6378
2.4749	62.8444
2.4678	63.003
2.4608	63.1651
2.4538	63.4064
2.4468	63.5631
2.4399	63.7549
2.4331	63.6421
2.4262	63.8941
2.4194	63.7383
2.4127	63.7955
2.4059	63.9685
2.3993	63.7314
2.3926	63.7833
2.386	63.573
2.3795	63.6603
2.3729	63.6858
2.3664	63.776
2.36	63.6766
2.3535	63.804
2.3471	63.9514
2.3408	63.9759
2.3345	64.1436
2.3282	64.2417
2.3219	64.21
2.3157	64.2203
2.3095	64.1523
2.3034	64.1345
2.2972	64.1177
2.2911	64.1219
2.2851	64.0977
2.279	64.1188
2.2731	63.9523
2.2671	63.9599
2.2612	63.8895
2.2553	63.7306
2.2494	63.7864
2.2435	63.6416
2.2377	63.6967
2.232	63.9264
2.2262	64.0321
2.2205	63.851
2.2148	63.7347
2.2091	63.3174
2.2035	63.311
2.1979	63.3851
2.1923	63.6048
2.1868	63.3905
2.1812	63.467
2.1758	63.6181
2.1703	63.4816
2.1649	63.3802
2.1595	63.4348
2.1541	63.4644
2.1487	63.5141
2.1434	63.5917
2.1381	63.418
2.1328	63.5441
2.1275	63.2982
2.1223	63.0585
2.1171	62.9628
2.112	62.7145
2.1068	62.2937
2.1017	61.938
2.0966	61.8453
2.0915	61.0705
2.0865	60.7231
2.0814	60.1014
2.0764	59.6773
2.0715	59.6144
2.0665	59.8926
2.0616	60.4421
2.0567	60.9127
2.0518	61.1403
2.0469	62.0999
2.0421	62.4414
2.0373	62.7911
2.0325	63.1476
2.0277	63.1446
2.0229	64.0701
2.0182	63.9859
2.0135	64.4099
2.0088	64.5125
2.0042	64.5308
