Name: Heulandite (Na,Ca)2-3Al3(Al,Si)2Si13O36.12H2O
Type: Mineral
Class: Silicate
Subclass: Tectosilicate
Particle Size: Coarse
Sample No.: heulan_1
Owner: JHU
Wavelength Range: TIR
Origin: Teigarhora, Iceland via W. J. Ehmann #37.
Description: No solid sample was available.  Petrographically the sample was pure heulandite, with <1% of the grains showing parallel sets of (fluid) inclusions. Particle size was 74-250 Micrometers.(Zeolite Group) Original ASTER Spectral Library name was jhu.nicolet.mineral.silicate.tectosilicate.coarse.heulan1.spectrum.txt
Measurement: Bidirectional reflectance
X Units: Wavelength (micrometers)
Y Units: Reflectance (percent)
wavelength	value
25.0442	5.2139
24.3388	5.3979
23.6719	5.3369
23.0407	5.5149
22.4422	6.2549
21.8741	7.227
21.334	8.3808
20.8199	8.9958
20.33	7.7475
19.8627	5.7744
19.4163	4.6099
18.9896	4.521
18.5812	3.5203
18.19	2.9221
17.815	2.8599
17.4551	2.9287
17.1094	2.9778
16.7772	3.1142
16.4576	3.0835
16.15	2.7026
15.8537	2.5054
15.568	2.3843
15.2925	2.3967
15.0265	2.52
14.7697	2.5198
14.5214	2.4988
14.2814	2.5632
14.0492	2.6055
13.8244	2.5481
13.6067	2.4458
13.3957	2.3953
13.1912	2.4119
12.9929	2.4348
12.8004	2.4399
12.6135	2.4246
12.432	2.5098
12.2557	2.7834
12.0843	3.0884
11.9176	3.2524
11.7555	3.404
11.5977	3.5842
11.444	3.7058
11.2944	3.8794
11.1487	3.9143
11.0067	3.9382
10.8682	3.9504
10.7332	3.968
10.6015	3.946
10.473	3.9748
10.3476	4.0369
10.2251	4.2209
10.1056	4.4895
9.9887	4.7847
9.8746	5.051
9.763	5.2319
9.6539	5.3601
9.5472	5.6418
9.4429	6.1296
9.3408	6.7263
9.2409	6.969
9.1431	6.8413
9.0474	6.6006
8.9536	6.3655
8.8618	6.1785
8.7718	6.0036
8.6837	5.8613
8.5973	5.6838
8.5126	5.6538
8.4295	5.8179
8.3481	5.8733
8.2682	5.8435
8.1898	5.7712
8.1129	4.5224
8.0374	2.6262
7.9634	1.095
7.8906	0.3894
7.8192	0.4062
7.7491	0.6147
7.6802	0.8369
7.6126	1.0671
7.5461	1.2812
7.4807	1.4714
7.4165	1.6323
7.3534	1.7593
7.2914	1.8723
7.2303	1.9783
7.1703	2.0737
7.1113	2.1726
7.0533	2.2288
6.9962	2.2969
6.94	2.376
6.8847	2.4485
6.8302	2.51
6.7767	2.5693
6.7239	2.6284
6.672	2.656
6.6209	2.6863
6.5705	2.688
6.5209	2.6941
6.4721	2.6809
6.424	2.623
6.3766	2.5518
6.3299	2.4268
6.2838	2.2331
6.2385	1.9866
6.1937	1.7686
6.1496	1.5933
6.1062	1.477
6.0633	1.4971
6.0211	1.6443
5.9794	1.8467
5.9383	2.0928
5.8978	2.4065
5.8578	2.74
5.8184	3.0073
5.7794	3.2588
5.741	3.4216
5.7031	3.5505
5.6657	3.6362
5.6288	3.7148
5.5924	3.7866
5.5564	3.854
5.5209	3.947
5.4859	4.041
5.4513	4.1623
5.4171	4.2815
5.3833	4.3901
5.35	4.4595
5.3171	4.5224
5.2846	4.5588
5.2524	4.595
5.2207	4.6211
5.1893	4.6689
5.1584	4.7283
5.1277	4.8066
5.0975	4.9097
5.0676	5.0173
5.038	5.1096
5.0088	5.187
4.98	5.2385
4.9514	5.2746
4.9232	5.2886
4.8953	5.2798
4.8678	5.2817
4.8405	5.2812
4.8135	5.2812
4.7868	5.2788
4.7605	5.2776
4.7344	5.2705
4.7086	5.2681
4.6831	5.2649
4.6578	5.2656
4.6328	5.2717
4.6081	5.2715
4.5837	5.3003
4.5595	5.3345
4.5356	5.3757
4.5119	5.4436
4.4884	5.5198
4.4652	5.6172
4.4423	5.7126
4.4196	5.8389
4.3971	5.9648
4.3748	6.1091
4.3528	6.261
4.331	6.4114
4.3094	6.5715
4.288	6.7287
4.2668	6.8884
4.2458	7.0476
4.2251	7.2082
4.2045	7.3533
4.1841	7.4851
4.164	7.6138
4.144	7.7358
4.1242	7.8484
4.1046	7.9555
4.0852	8.0617
4.066	8.156
4.047	8.2434
4.0281	8.3213
4.0094	8.3833
3.9909	8.4231
3.9725	8.4577
3.9544	8.4949
3.9363	8.5146
3.9185	8.5342
3.9008	8.5256
3.8833	8.5283
3.8659	8.5032
3.8487	8.4553
3.8316	8.4094
3.8147	8.3508
3.7979	8.2732
3.7813	8.1904
3.7648	8.1035
3.7485	8.0088
3.7323	7.8935
3.7162	7.7783
3.7003	7.646
3.6845	7.5166
3.6689	7.3789
3.6534	7.228
3.638	7.0757
3.6227	6.915
3.6076	6.758
3.5926	6.6015
3.5777	6.4299
3.563	6.2578
3.5484	6.1008
3.5338	5.9387
3.5195	5.7754
3.5052	5.5903
3.491	5.4277
3.477	5.2707
3.463	5.0957
3.4492	4.9311
3.4355	4.7517
3.4219	4.5701
3.4084	4.4153
3.395	4.2627
3.3817	4.1116
3.3685	3.9692
3.3554	3.8357
3.3425	3.686
3.3296	3.5498
3.3168	3.4238
3.3041	3.2949
3.2915	3.175
3.279	3.0676
3.2666	2.949
3.2543	2.8647
3.2421	2.7585
3.23	2.6694
3.218	2.5962
3.206	2.5171
3.1942	2.437
3.1824	2.3633
3.1707	2.2974
3.1591	2.2312
3.1476	2.1829
3.1362	2.126
3.1249	2.083
3.1136	2.0388
3.1024	2.0024
3.0913	1.9831
3.0803	1.9651
3.0694	1.9485
3.0585	1.9343
3.0477	1.9143
3.037	1.896
3.0264	1.8735
3.0158	1.8374
3.0053	1.8142
2.9949	1.7834
2.9845	1.7705
2.9743	1.7356
2.9641	1.708
2.9539	1.6873
2.9439	1.6694
2.9339	1.6636
2.9239	1.6472
2.9141	1.6328
2.9043	1.6174
2.8946	1.6074
2.8849	1.6094
2.8753	1.6091
2.8658	1.6025
2.8563	1.5915
2.8469	1.5891
2.8375	1.5847
2.8282	1.5825
2.819	1.5754
2.8098	1.5798
2.8007	1.5691
2.7917	1.5637
2.7827	1.54
2.7738	1.5339
2.7649	1.5347
2.7561	1.5591
2.7473	1.6245
2.7386	1.7646
2.7299	2.0437
2.7213	2.4038
2.7128	2.8538
2.7043	3.2505
2.6959	3.6326
2.6875	3.9534
2.6791	4.2217
2.6709	4.4314
2.6626	4.6816
2.6545	4.855
2.6463	5.0203
2.6382	5.155
2.6302	5.2244
2.6222	5.323
2.6143	5.3845
2.6064	5.4192
2.5986	5.4805
2.5908	5.5012
2.583	5.5068
2.5753	5.5412
2.5677	5.5552
2.5601	5.5493
2.5525	5.5786
2.545	5.6252
2.5375	5.678
2.5301	5.7002
2.5227	5.7451
2.5154	5.8171
2.5081	5.9084
2.5008	5.9668
2.4936	6.031
2.4864	6.091
2.4793	6.1653
2.4722	6.24
2.4651	6.2988
2.4581	6.3808
2.4511	6.4414
2.4442	6.5244
2.4373	6.6057
2.4305	6.7204
2.4236	6.8408
2.4169	6.9831
2.4101	7.1413
2.4034	7.2861
2.3967	7.4695
2.3901	7.6296
2.3835	7.812
2.377	8.02
2.3704	8.2073
2.364	8.3733
2.3575	8.5766
2.3511	8.7602
2.3447	8.9306
2.3384	9.0495
2.3321	9.1831
2.3258	9.3442
2.3195	9.456
2.3133	9.5532
2.3071	9.6474
2.301	9.7724
2.2949	9.8174
2.2888	9.875
2.2828	9.958
2.2767	9.9885
2.2708	10.0429
2.2648	10.1176
2.2589	10.1465
2.253	10.1718
2.2471	10.1982
2.2413	10.2187
2.2355	10.2666
2.2297	10.2549
2.224	10.2436
2.2183	10.2717
2.2126	10.249
2.207	10.251
2.2013	10.2656
2.1957	10.27
2.1902	10.2461
2.1846	10.2212
2.1791	10.1948
2.1736	10.166
2.1682	10.1616
2.1628	10.164
2.1574	10.1255
2.152	10.0766
2.1466	10.0156
2.1413	10.0156
2.136	10.0112
2.1308	9.9917
2.1255	9.937
2.1203	9.924
2.1151	9.8835
2.11	9.8425
2.1048	9.8364
2.0997	9.7973
2.0946	9.7802
2.0895	9.7424
2.0845	9.7055
2.0795	9.6643
