Name: Olivine (Fo92) (Fe+2,Mg)2SiO4
Type: Mineral
Class: Silicate
Subclass: Nesosilicate
Particle Size: Fine
Sample No.: olivine_13
Owner: JHU
Wavelength Range: TIR
Origin: Rockport, Massachusetts via the Smithsonian (sample no.NMNH R3517)
Description: The sample was a large black fragment. Millimeter-wide serpentine veins traversed the sample, which were discarded during initial sample crushing. Finer veins and light iron staining were too abundant to remove. Microscopic examination showed contamination by 1% magnetite inclusions and <1% limonitic material. The fayalite itself also seems to contain fluid inclusions. Particle size was Less than 2  Micrometer.(Isolated tetrahedra); (Olivine Group) Original ASTER Spectral Library name was jhu.nicolet.mineral.silicate.nesosilicate.powder.olivi13.spectrum.txt
Measurement: Transmission
X Units: Wavelength (micrometers)
Y Units: Transmittance (percent)
wavelength	value
25.0442	81.5857
24.3388	79.8045
23.6719	77.9646
23.0407	76.3533
22.4422	69.6375
21.8741	61.9881
21.334	48.6307
20.8199	46.3124
20.33	51.3143
19.8627	51.9042
19.4163	55.1961
18.9896	63.3363
18.5812	67.2342
18.19	62.8812
17.815	57.8807
17.4551	61.6434
17.1094	71.7581
16.7772	79.5437
16.4576	83.094
16.15	84.5887
15.8537	85.7171
15.568	88.0691
15.2925	88.5515
15.0265	88.4807
14.7697	88.0076
14.5214	86.1956
14.2814	84.1175
14.0492	83.0335
13.8244	81.5691
13.6067	80.5467
13.3957	78.3167
13.1912	76.0293
12.9929	73.3028
12.8004	71.3216
12.6135	68.9288
12.432	65.1483
12.2557	59.6107
12.0843	48.5653
11.9176	57.9383
11.7555	46.3253
11.5977	34.7646
11.444	28.6415
11.2944	32.7267
11.1487	37.4267
11.0067	41.5431
10.8682	42.3095
10.7332	55.3314
10.6015	38.7187
10.473	39.8898
10.3476	41.7162
10.2251	47.639
10.1056	53.2504
9.9887	58.1163
9.8746	63.0772
9.763	67.2943
9.6539	71.168
9.5472	74.1121
9.4429	75.8118
9.3408	76.5916
9.2409	78.0008
9.1431	81.1631
9.0474	84.2344
8.9536	85.6094
8.8618	85.2512
8.7718	86.6475
8.6837	88.1309
8.5973	89.1936
8.5126	89.949
8.4295	90.6492
8.3481	91.448
8.2682	92.2034
8.1898	92.51
8.1129	92.742
8.0374	92.7149
7.9634	92.5754
7.8906	92.5999
7.8192	92.5701
7.7491	92.3709
7.6802	92.2473
7.6126	92.2468
7.5461	92.0632
7.4807	91.8735
7.4165	91.6087
7.3534	91.4649
7.2914	91.1516
7.2303	90.4251
7.1703	90.073
7.1113	89.7639
7.0533	89.7351
6.9962	89.2146
6.94	87.9983
6.8847	88.1511
6.8302	88.7891
6.7767	88.7617
6.7239	88.6643
6.672	88.7449
6.6209	88.6477
6.5705	88.3567
6.5209	88.0198
6.4721	87.6223
6.424	87.1092
6.3766	86.6941
6.3299	86.1184
6.2838	85.3689
6.2385	83.8614
6.1937	81.9632
6.1496	81.1155
6.1062	82.0799
6.0633	82.4275
6.0211	81.2918
5.9794	81.097
5.9383	83.553
5.8978	84.9549
5.8578	85.2815
5.8184	85.0681
5.7794	84.907
5.741	84.8054
5.7031	84.6951
5.6657	84.7605
5.6288	84.5335
5.5924	84.4881
5.5564	84.366
5.5209	84.2561
5.4859	84.2073
5.4513	84.1145
5.4171	83.9519
5.3833	83.8968
5.35	83.7195
5.3171	83.7356
5.2846	83.596
5.2524	83.4568
5.2207	83.3626
5.1893	83.262
5.1584	83.1614
5.1277	83.0862
5.0975	82.9305
5.0676	82.7889
5.038	82.7044
5.0088	82.6109
4.98	82.4568
4.9514	82.418
4.9232	82.2381
4.8953	82.1385
4.8678	82.0332
4.8405	81.9546
4.8135	81.751
4.7868	81.6634
4.7605	81.5603
4.7344	81.4261
4.7086	81.3096
4.6831	81.1932
4.6578	81.1219
4.6328	81.0389
4.6081	80.9651
4.5837	80.857
4.5595	80.688
4.5356	80.5994
4.5119	80.4617
4.4884	80.3728
4.4652	80.3116
4.4423	80.1595
4.4196	80.086
4.3971	80.0098
4.3748	79.8953
4.3528	79.7757
4.331	79.6753
4.3094	79.5498
4.288	79.43
4.2668	79.3262
4.2458	79.2139
4.2251	79.1526
4.2045	79.0647
4.1841	78.9803
4.164	78.8372
4.144	78.7288
4.1242	78.6409
4.1046	78.5791
4.0852	78.4444
4.066	78.3538
4.047	78.2852
4.0281	78.1434
4.0094	78.0018
3.9909	77.8301
3.9725	77.751
3.9544	77.7093
3.9363	77.5877
3.9185	77.5403
3.9008	77.5228
3.8833	77.2962
3.8659	77.1556
3.8487	77.0623
3.8316	76.9825
3.8147	76.8733
3.7979	76.7996
3.7813	76.6531
3.7648	76.5823
3.7485	76.5062
3.7323	76.4073
3.7162	76.2596
3.7003	76.1124
3.6845	76.0479
3.6689	75.9021
3.6534	75.8133
3.638	75.8213
3.6227	75.6565
3.6076	75.5528
3.5926	75.4034
3.5777	75.3428
3.563	75.1194
3.5484	75.0955
3.5338	75.0135
3.5195	74.9437
3.5052	74.6924
3.491	74.6993
3.477	74.6287
3.463	74.6456
3.4492	74.472
3.4355	74.2908
3.4219	74.0154
3.4084	73.9444
3.395	73.8963
3.3817	73.7078
3.3685	73.742
3.3554	73.4883
3.3425	73.4493
3.3296	73.4444
3.3168	73.2803
3.3041	73.1797
3.2915	73.0032
3.279	72.8751
3.2666	72.7354
3.2543	72.6795
3.2421	72.504
3.23	72.2752
3.218	72.0804
3.206	72.0003
3.1942	71.7747
3.1824	71.6136
3.1707	71.4637
3.1591	71.3987
3.1476	71.0032
3.1362	70.7191
3.1249	70.3201
3.1136	70.1634
3.1024	70.3118
3.0913	70.2318
3.0803	69.994
3.0694	69.6849
3.0585	69.6805
3.0477	69.826
3.037	69.6278
3.0264	69.2332
3.0158	68.576
3.0053	68.2723
2.9949	67.9217
2.9845	67.6697
2.9743	67.1082
2.9641	66.4364
2.9539	65.868
2.9439	65.1702
2.9339	64.745
2.9239	64.3402
2.9141	64.1815
2.9043	64.0955
2.8946	64.4808
2.8849	64.8289
2.8753	65.0023
2.8658	65.286
2.8563	65.8758
2.8469	66.1702
2.8375	66.2186
2.8282	66.4354
2.819	66.5731
2.8098	66.6571
2.8007	66.7362
2.7917	66.8441
2.7827	67.0643
2.7738	67.1365
2.7649	66.2996
2.7561	67.9569
2.7473	68.1649
2.7386	68.5604
2.7299	68.5784
2.7213	68.5994
2.7128	68.3148
2.7043	68.3499
2.6959	68.3904
2.6875	68.5604
2.6791	68.3201
2.6709	68.2757
2.6626	68.1234
2.6545	68.0018
2.6463	67.7772
2.6382	67.9627
2.6302	67.7913
2.6222	67.723
2.6143	67.617
2.6064	67.43
2.5986	67.3592
2.5908	67.3514
2.583	67.3231
2.5753	67.0946
2.5677	66.9608
2.5601	66.8406
2.5525	66.8846
2.545	66.7274
2.5375	66.7098
2.5301	66.6102
2.5227	66.4198
2.5154	66.2772
2.5081	66.6864
2.5008	66.4393
2.4936	66.2655
2.4864	66.1854
2.4793	66.0252
2.4722	65.8934
2.4651	65.8914
2.4581	65.9012
2.4511	65.7635
2.4442	65.4813
2.4373	65.6658
2.4305	65.4696
2.4236	65.5623
2.4169	65.408
2.4101	65.5311
2.4034	65.2586
2.3967	65.0096
2.3901	64.9852
2.3835	65.1092
2.377	65.0174
2.3704	64.95
2.364	64.6366
2.3575	64.7616
2.3511	64.742
2.3447	64.6649
2.3384	64.5623
2.3321	64.4412
2.3258	64.4071
2.3195	64.076
2.3133	64.3875
2.3071	64.3553
2.301	64.3602
2.2949	63.994
2.2888	64.1073
2.2828	63.868
2.2767	63.7821
2.2708	64.0672
2.2648	64.0506
2.2589	63.4149
2.253	63.7108
2.2471	63.7694
2.2413	63.4149
2.2355	63.8524
2.2297	63.1141
2.224	63.4022
2.2183	63.5741
2.2126	63.2635
2.207	62.8836
2.2013	63.2977
2.1957	62.9608
2.1902	63.5623
2.1846	62.7596
2.1791	62.9666
2.1736	62.9139
2.1682	62.9198
2.1628	63.1561
2.1574	62.7049
2.152	62.6795
2.1466	62.6014
2.1413	62.5409
2.136	62.5057
2.1308	62.533
2.1255	62.7303
2.1203	62.5955
2.1151	62.2616
2.11	62.742
2.1048	62.2752
2.0997	62.4373
2.0946	62.3787
2.0895	61.9354
2.0845	62.3338
2.0795	62.2655
