Name: Olivine (Fo92) (Fe+2,Mg)2SiO4
Type: Mineral
Class: Silicate
Subclass: Nesosilicate
Particle Size: Coarse
Sample No.: olivine_1
Owner: JHU
Wavelength Range: TIR
Origin: Kiglapait Intrusion, Labrador via Trude King #KI3005(obtained from S.A. Morse, Univ. of Mass.)
Description: Initially, the specimen was contaminated with pyroxene, spinel, and ilmenite.  Heavy liquid separation, followed by magnetic separation and hand picking, allowed olivines of different iron content to be obtained.  The sample was ground to <30 micrometers and wet sieved with methanol.  Sample preparation by Trude King, USGS, Denver. Particle size 0-30 micrometers, but packed powder simulates coarse. (Isolated tetrahedra); (Olivine Group) Original ASTER Spectral Library name was jhu.nicolet.mineral.silicate.nesosilicate.packed.olivin1.spectrum.txt
Measurement: Bidirectional reflectance
X Units: Wavelength (micrometers)
Y Units: Reflectance (percent)
wavelength	value
25.0442	4.8164
24.3388	4.9416
23.6719	5.0454
23.0407	5.1767
22.4422	5.727
21.8741	6.2353
21.334	7.1826
20.8199	7.6904
20.33	7.907
19.8627	8.5798
19.4163	8.9714
18.9896	8.603
18.5812	6.5386
18.19	5.1308
17.815	5.2873
17.4551	5.7397
17.1094	5.845
16.7772	5.2478
16.4576	4.0058
16.15	3.3818
15.8537	3.435
15.568	3.7046
15.2925	3.9883
15.0265	4.1765
14.7697	4.3537
14.5214	4.5664
14.2814	4.7595
14.0492	4.9131
13.8244	4.9597
13.6067	5.0764
13.3957	5.1557
13.1912	5.2253
12.9929	5.3161
12.8004	5.3457
12.6135	5.362
12.432	5.4226
12.2557	5.4993
12.0843	5.914
11.9176	5.3237
11.7555	6.113
11.5977	7.0666
11.444	7.9165
11.2944	8.6047
11.1487	9.198
11.0067	9.5547
10.8682	9.3137
10.7332	6.8169
10.6015	7.7563
10.473	9.7197
10.3476	8.0442
10.2251	7.0854
10.1056	6.7102
9.9887	6.3979
9.8746	5.9309
9.763	5.0139
9.6539	3.7266
9.5472	2.6511
9.4429	2.2244
9.3408	2.2095
9.2409	2.3279
9.1431	2.4846
9.0474	2.6641
8.9536	2.8096
8.8618	2.9619
8.7718	3.0937
8.6837	3.2141
8.5973	3.3315
8.5126	3.4673
8.4295	3.6074
8.3481	3.7373
8.2682	3.8879
8.1898	4.0024
8.1129	4.0998
8.0374	4.1611
7.9634	4.2412
7.8906	4.2876
7.8192	4.3135
7.7491	4.3923
7.6802	4.4853
7.6126	4.5718
7.5461	4.6333
7.4807	4.6597
7.4165	4.6965
7.3534	4.7068
7.2914	4.7048
7.2303	4.6933
7.1703	4.7068
7.1113	4.6841
7.0533	4.6704
6.9962	4.6606
6.94	4.6887
6.8847	4.6897
6.8302	4.6875
6.7767	4.7676
6.7239	4.7883
6.672	4.822
6.6209	4.8415
6.5705	4.8557
6.5209	4.853
6.4721	4.8413
6.424	4.8364
6.3766	4.8088
6.3299	4.76
6.2838	4.7204
6.2385	4.6799
6.1937	4.6428
6.1496	4.5669
6.1062	4.4509
6.0633	4.4133
6.0211	4.4519
5.9794	4.4761
5.9383	4.4917
5.8978	4.5222
5.8578	4.5337
5.8184	4.4905
5.7794	4.3462
5.741	4.2844
5.7031	4.3201
5.6657	4.405
5.6288	4.4409
5.5924	4.4683
5.5564	4.4973
5.5209	4.5444
5.4859	4.5803
5.4513	4.6172
5.4171	4.6387
5.3833	4.6631
5.35	4.6909
5.3171	4.7222
5.2846	4.7571
5.2524	4.7786
5.2207	4.7847
5.1893	4.7986
5.1584	4.8174
5.1277	4.8628
5.0975	4.9038
5.0676	4.9507
5.038	4.9927
5.0088	5.0176
4.98	5.0447
4.9514	5.0657
4.9232	5.1015
4.8953	5.1201
4.8678	5.144
4.8405	5.1645
4.8135	5.1907
4.7868	5.2102
4.7605	5.2363
4.7344	5.2532
4.7086	5.271
4.6831	5.2991
4.6578	5.3105
4.6328	5.3391
4.6081	5.364
4.5837	5.384
4.5595	5.4057
4.5356	5.4258
4.5119	5.4497
4.4884	5.4751
4.4652	5.5012
4.4423	5.5293
4.4196	5.5622
4.3971	5.5984
4.3748	5.6272
4.3528	5.6587
4.331	5.6855
4.3094	5.7046
4.288	5.7407
4.2668	5.7698
4.2458	5.8078
4.2251	5.8398
4.2045	5.8606
4.1841	5.8869
4.164	5.9094
4.144	5.9228
4.1242	5.9497
4.1046	5.9751
4.0852	5.9958
4.066	6.0205
4.047	6.0481
4.0281	6.0683
4.0094	6.0972
3.9909	6.1013
3.9725	6.1218
3.9544	6.1384
3.9363	6.1592
3.9185	6.1843
3.9008	6.2109
3.8833	6.2248
3.8659	6.2319
3.8487	6.2483
3.8316	6.2666
3.8147	6.2807
3.7979	6.2988
3.7813	6.3086
3.7648	6.3244
3.7485	6.3403
3.7323	6.3501
3.7162	6.3501
3.7003	6.3606
3.6845	6.3633
3.6689	6.3672
3.6534	6.3711
3.638	6.3723
3.6227	6.3935
3.6076	6.3857
3.5926	6.384
3.5777	6.3721
3.563	6.3437
3.5484	6.3118
3.5338	6.249
3.5195	6.0874
3.5052	5.6909
3.491	5.8264
3.477	5.8962
3.463	5.9072
3.4492	5.7805
3.4355	5.5908
3.4219	5.249
3.4084	5.3293
3.395	5.6321
3.3817	5.612
3.3685	5.7949
3.3554	6.0254
3.3425	6.1177
3.3296	6.1413
3.3168	6.1567
3.3041	6.1477
3.2915	6.1404
3.279	6.116
3.2666	6.0879
3.2543	6.0681
3.2421	6.0459
3.23	6.0159
3.218	5.9897
3.206	5.9612
3.1942	5.9223
3.1824	5.8808
3.1707	5.8435
3.1591	5.8144
3.1476	5.7683
3.1362	5.7222
3.1249	5.6938
3.1136	5.6531
3.1024	5.6284
3.0913	5.5974
3.0803	5.5647
3.0694	5.5295
3.0585	5.5058
3.0477	5.4748
3.037	5.448
3.0264	5.4314
3.0158	5.4082
3.0053	5.3955
2.9949	5.3703
2.9845	5.3464
2.9743	5.3328
2.9641	5.3152
2.9539	5.3108
2.9439	5.2971
2.9339	5.2927
2.9239	5.2866
2.9141	5.282
2.9043	5.2888
2.8946	5.3061
2.8849	5.3005
2.8753	5.3076
2.8658	5.3284
2.8563	5.3596
2.8469	5.3689
2.8375	5.3913
2.8282	5.3684
2.819	5.3843
2.8098	5.3774
2.8007	5.3872
2.7917	5.4133
2.7827	5.4665
2.7738	5.5315
2.7649	5.5981
2.7561	5.7043
2.7473	5.8528
2.7386	6.0344
2.7299	6.2126
2.7213	6.3152
2.7128	6.3887
2.7043	6.4404
2.6959	6.5542
2.6875	6.6457
2.6791	6.6711
2.6709	6.6999
2.6626	6.7021
2.6545	6.7178
2.6463	6.6914
2.6382	6.6926
2.6302	6.6943
2.6222	6.6799
2.6143	6.6506
2.6064	6.6435
2.5986	6.6262
2.5908	6.6225
2.583	6.6028
2.5753	6.5901
2.5677	6.5566
2.5601	6.5644
2.5525	6.5395
2.545	6.5161
2.5375	6.5024
2.5301	6.5007
2.5227	6.4919
2.5154	6.4609
2.5081	6.4563
2.5008	6.4243
2.4936	6.4187
2.4864	6.4162
2.4793	6.3999
2.4722	6.3794
2.4651	6.3677
2.4581	6.3745
2.4511	6.3791
2.4442	6.3674
2.4373	6.3452
2.4305	6.3286
2.4236	6.2993
2.4169	6.3203
2.4101	6.3313
2.4034	6.3179
2.3967	6.2866
2.3901	6.2617
2.3835	6.2275
2.377	6.2554
2.3704	6.2458
2.364	6.219
2.3575	6.2163
2.3511	6.1929
2.3447	6.1777
2.3384	6.1509
2.3321	6.1704
2.3258	6.1704
2.3195	6.1611
2.3133	6.1606
2.3071	6.165
2.301	6.1597
2.2949	6.1455
2.2888	6.1269
2.2828	6.1413
2.2767	6.1577
2.2708	6.1748
2.2648	6.147
2.2589	6.1841
2.253	6.2046
2.2471	6.168
2.2413	6.1738
2.2355	6.1865
2.2297	6.1714
2.224	6.1631
2.2183	6.1587
2.2126	6.157
2.207	6.1523
2.2013	6.1372
2.1957	6.1611
2.1902	6.1645
2.1846	6.1572
2.1791	6.1343
2.1736	6.1689
2.1682	6.177
2.1628	6.1575
2.1574	6.1799
2.152	6.1548
2.1466	6.1467
2.1413	6.1865
2.136	6.198
2.1308	6.2102
2.1255	6.2427
2.1203	6.2197
2.1151	6.2209
2.11	6.1955
2.1048	6.2397
2.0997	6.2373
2.0946	6.2619
2.0895	6.2463
2.0845	6.2588
2.0795	6.2695
