Name: Enstatite Mg2Si2O6
Type: Mineral
Class: Silicate
Subclass: Inosilicate
Particle Size: Fine
Sample No.: enstatite_1
Owner: JHU
Wavelength Range: TIR
Origin: Sample from Frank Smith Mine, near Barkly Wes, SouthAfrica via the Smithsonian (sample no. NMNH 128288).
Description: Sample was a single light green piece, apparently part of a single crystal, with a large area of contamination by a dark green mineral, discarded during crushing. A small amount of black mineral veining was present. Under the microscope, the hand-picked material appeared moderately altered. A higher index of refraction than expected indicated probable higher iron content than pure enstatite. Particle size was less than 2 Micrometers.(Chain Silicates) (Pyroxene Group) Original ASTER Spectral Library name was jhu.nicolet.mineral.silicate.inosilicate.powder.enstat1.spectrum.txt
Measurement: Transmission
X Units: Wavelength (micrometers)
Y Units: Transmittance (percent)
wavelength	value
25.0442	29.4609
24.3388	30.3515
23.6719	31.204
23.0407	23.416
22.4422	17.6425
21.8741	16.539
21.334	21.0107
20.8199	21.6464
20.33	17.5258
19.8627	13.2216
19.4163	14.5922
18.9896	21.6699
18.5812	22.7353
18.19	25.3837
17.815	28.2729
17.4551	32.7929
17.1094	43.7435
16.7772	51.2294
16.4576	56.9481
16.15	60.5765
15.8537	57.4249
15.568	51.7833
15.2925	53.2706
15.0265	65.7381
14.7697	65.9871
14.5214	58.4383
14.2814	64.7913
14.0492	69.2823
13.8244	61.9422
13.6067	70.3524
13.3957	69.2845
13.1912	72.5877
12.9929	72.0694
12.8004	68.0692
12.6135	61.8438
12.432	55.9715
12.2557	48.5743
12.0843	39.6801
11.9176	30.0851
11.7555	23.3798
11.5977	22.7285
11.444	26.2101
11.2944	27.8178
11.1487	25.488
11.0067	23.4262
10.8682	15.7229
10.7332	13.1059
10.6015	13.136
10.473	14.5312
10.3476	15.5019
10.2251	18.3437
10.1056	23.3447
9.9887	22.2143
9.8746	19.4301
9.763	22.1455
9.6539	24.0698
9.5472	20.8046
9.4429	15.9382
9.3408	15.2512
9.2409	16.7004
9.1431	18.685
9.0474	23.6369
8.9536	29.9484
8.8618	32.7438
8.7718	39.3656
8.6837	43.4608
8.5973	48.453
8.5126	51.8446
8.4295	54.8622
8.3481	57.5848
8.2682	60.096
8.1898	62.3228
8.1129	64.3414
8.0374	66.1907
7.9634	68.0362
7.8906	69.6392
7.8192	70.9168
7.7491	72.274
7.6802	73.409
7.6126	74.5801
7.5461	75.6849
7.4807	76.7083
7.4165	77.6224
7.3534	78.4778
7.2914	79.399
7.2303	80.1167
7.1703	81.1883
7.1113	81.6951
7.0533	82.0017
6.9962	82.6228
6.94	83.3704
6.8847	83.7398
6.8302	84.1389
6.7767	84.5359
6.7239	85.0296
6.672	85.4846
6.6209	85.9163
6.5705	86.534
6.5209	86.8821
6.4721	87.2449
6.424	87.5054
6.3766	87.4756
6.3299	87.4009
6.2838	87.5398
6.2385	87.7058
6.1937	87.8767
6.1496	87.7854
6.1062	87.9822
6.0633	88.3391
6.0211	89.3001
5.9794	90.2639
5.9383	90.3501
5.8978	90.4929
5.8578	90.5867
5.8184	90.9136
5.7794	90.9758
5.741	91.1299
5.7031	91.1604
5.6657	91.1753
5.6288	91.3137
5.5924	91.3967
5.5564	91.5547
5.5209	91.617
5.4859	91.614
5.4513	91.6211
5.4171	91.7813
5.3833	91.7561
5.35	91.9116
5.3171	91.8193
5.2846	91.8679
5.2524	91.7796
5.2207	91.7449
5.1893	91.572
5.1584	91.4412
5.1277	91.3982
5.0975	91.4275
5.0676	91.5032
5.038	91.5418
5.0088	91.5769
4.98	91.6038
4.9514	91.5623
4.9232	91.4924
4.8953	91.4241
4.8678	91.3152
4.8405	91.239
4.8135	91.2141
4.7868	91.2146
4.7605	91.157
4.7344	91.1311
4.7086	91.0852
4.6831	90.9719
4.6578	90.947
4.6328	90.9524
4.6081	90.9841
4.5837	90.8079
4.5595	90.7649
4.5356	90.6419
4.5119	90.5154
4.4884	90.4734
4.4652	90.3377
4.4423	90.2
4.4196	90.0969
4.3971	89.9802
4.3748	89.9314
4.3528	89.7776
4.331	89.6677
4.3094	89.5081
4.288	89.384
4.2668	89.2407
4.2458	89.1013
4.2251	88.9861
4.2045	88.8782
4.1841	88.8042
4.164	88.5906
4.144	88.388
4.1242	88.293
4.1046	88.1404
4.0852	87.9964
4.066	87.8506
4.047	87.6848
4.0281	87.5003
4.0094	87.3643
3.9909	87.2073
3.9725	87.0181
3.9544	86.919
3.9363	86.8089
3.9185	86.6677
3.9008	86.554
3.8833	86.3784
3.8659	86.1775
3.8487	86.0471
3.8316	85.886
3.8147	85.7278
3.7979	85.5945
3.7813	85.4529
3.7648	85.3023
3.7485	85.124
3.7323	84.959
3.7162	84.8025
3.7003	84.6314
3.6845	84.4268
3.6689	84.2078
3.6534	84.0916
3.638	83.9265
3.6227	83.7393
3.6076	83.4886
3.5926	83.3304
3.5777	83.1885
3.563	83.0301
3.5484	82.8186
3.5338	82.6072
3.5195	82.4073
3.5052	82.3401
3.491	81.9861
3.477	81.7784
3.463	81.6101
3.4492	81.4131
3.4355	81.3924
3.4219	81.25
3.4084	80.8828
3.395	80.7254
3.3817	80.6973
3.3685	80.4685
3.3554	80.2054
3.3425	80.1416
3.3296	80.0196
3.3168	79.8663
3.3041	79.6673
3.2915	79.5179
3.279	79.2705
3.2666	79.0901
3.2543	78.9659
3.2421	78.8243
3.23	78.5188
3.218	78.4519
3.206	78.2356
3.1942	78.0779
3.1824	77.7908
3.1707	77.6739
3.1591	77.3914
3.1476	77.127
3.1362	76.9075
3.1249	76.6912
3.1136	76.5013
3.1024	76.2461
3.0913	75.9512
3.0803	75.6424
3.0694	75.4329
3.0585	75.0616
3.0477	74.8631
3.037	74.6551
3.0264	74.4402
3.0158	74.1583
3.0053	73.8106
2.9949	73.5482
2.9845	73.2542
2.9743	72.8826
2.9641	72.4471
2.9539	72.2283
2.9439	72.0145
2.9339	71.679
2.9239	71.5062
2.9141	71.3719
2.9043	71.241
2.8946	71.1009
2.8849	70.9158
2.8753	70.7542
2.8658	70.5921
2.8563	70.4598
2.8469	70.3607
2.8375	70.1155
2.8282	70.0862
2.819	70.0662
2.8098	69.8748
2.8007	69.7191
2.7917	69.6951
2.7827	69.5389
2.7738	69.5291
2.7649	69.4686
2.7561	69.2684
2.7473	68.8924
2.7386	68.6248
2.7299	67.8797
2.7213	66.9783
2.7128	64.8387
2.7043	64.5487
2.6959	67.0194
2.6875	68.8182
2.6791	69.7093
2.6709	70.0433
2.6626	69.9383
2.6545	69.8973
2.6463	69.7986
2.6382	69.5565
2.6302	69.6463
2.6222	69.4085
2.6143	69.2596
2.6064	69.096
2.5986	69.0609
2.5908	68.9803
2.583	68.9202
2.5753	68.5916
2.5677	68.3382
2.5601	68.4051
2.5525	68.0526
2.545	67.9315
2.5375	67.9588
2.5301	67.5701
2.5227	67.3499
2.5154	67.2562
2.5081	67.16
2.5008	66.9061
2.4936	66.8929
2.4864	66.5936
2.4793	66.5106
2.4722	66.367
2.4651	66.328
2.4581	66.0828
2.4511	66.0184
2.4442	65.742
2.4373	65.6629
2.4305	65.5311
2.4236	65.2694
2.4169	65.1444
2.4101	65.2117
2.4034	64.8924
2.3967	64.6737
2.3901	64.6561
2.3835	64.3475
2.377	64.3397
2.3704	63.992
2.364	64.1307
2.3575	63.9461
2.3511	63.911
2.3447	63.7674
2.3384	63.494
2.3321	63.3133
2.3258	63.0409
2.3195	63.1532
2.3133	63.1532
2.3071	62.8241
2.301	62.7743
2.2949	62.7811
2.2888	62.4803
2.2828	62.1346
2.2767	62.0838
2.2708	61.9784
2.2648	61.8846
2.2589	61.8758
2.253	61.7039
2.2471	61.661
2.2413	61.7225
2.2355	61.0936
2.2297	61.3436
2.224	61.1698
2.2183	61.2166
2.2126	60.953
2.207	60.9959
2.2013	60.6659
2.1957	60.5077
2.1902	60.5047
2.1846	60.5623
2.1791	60.0936
2.1736	60.2733
2.1682	60.2782
2.1628	60.4891
2.1574	59.9891
2.152	59.8446
2.1466	59.9842
2.1413	59.6053
2.136	59.6571
2.1308	59.3563
2.1255	59.4432
2.1203	59.6561
2.1151	59.1766
2.11	59.3133
2.1048	59.0116
2.0997	59.1805
2.0946	59.0711
2.0895	58.7196
2.0845	58.9803
2.0795	58.8573
