Name: Pyrophyllite Al2Si4010(OH)2
Type: Mineral
Class: Silicate
Subclass: Phyllosilicate
Particle Size: Coarse
Sample No.: pyroph_1
Owner: JHU
Wavelength Range: TIR
Origin: Stanley, North Carolina, USA via Bruce Hemingway, USGS
Description: The sample consisted of clusters of white radiating acicular crystals which appeared pure in hand sample and under the petrographic microscope.  Acicular crystals could not be effectively sifted and the coarse fraction was separated from the fine fraction by elutriation in acetone. Particle size was 75 - 250  Micrometers.(Sheet Silicates); Talk/Pyrophyllite Group Original ASTER Spectral Library name was jhu.nicolet.mineral.silicate.phyllosilicate.coarse.pyroph1.spectrum.txt
Measurement: Bidirectional reflectance
X Units: Wavelength (micrometers)
Y Units: Reflectance (percent)
wavelength	value
25.0442	6.0674
24.3388	6.4053
23.6719	5.3784
23.0407	6.2305
22.4422	6.6089
21.8741	7.3867
21.334	7.915
20.8199	9.06
20.33	9.4707
19.8627	7.1924
19.4163	6.6323
18.9896	9.041
18.5812	10.73
18.19	13.5971
17.815	14.4777
17.4551	12.8913
17.1094	10.7768
16.7772	12.5544
16.4576	11.9184
16.15	9.06
15.8537	8.0947
15.568	6.2109
15.2925	4.498
15.0265	3.1059
14.7697	2.5295
14.5214	2.7666
14.2814	3.0808
14.0492	3.5154
13.8244	3.8066
13.6067	3.5859
13.3957	4.0884
13.1912	4.6467
12.9929	4.9578
12.8004	5.0679
12.6135	4.9851
12.432	4.4031
12.2557	3.3779
12.0843	4.0261
11.9176	3.1897
11.7555	3.7151
11.5977	3.9014
11.444	4.7058
11.2944	5.0649
11.1487	5.1623
11.0067	4.8442
10.8682	4.9202
10.7332	4.8235
10.6015	4.8369
10.473	6.3579
10.3476	4.0486
10.2251	4.1374
10.1056	4.5776
9.9887	4.6379
9.8746	4.7204
9.763	4.802
9.6539	5.2019
9.5472	6.5141
9.4429	8.2053
9.3408	9.709
9.2409	11.8564
9.1431	13.3894
9.0474	12.9253
8.9536	8.4875
8.8618	13.895
8.7718	15.8144
8.6837	16.5295
8.5973	16.571
8.5126	16.0581
8.4295	15.2507
8.3481	14.1013
8.2682	12.5258
8.1898	10.4682
8.1129	8.5925
8.0374	6.9919
7.9634	5.4309
7.8906	4.0049
7.8192	3.0369
7.7491	2.5325
7.6802	2.3335
7.6126	2.3948
7.5461	2.6941
7.4807	3.2017
7.4165	3.636
7.3534	4.0832
7.2914	4.4038
7.2303	4.7925
7.1703	5.0525
7.1113	5.2695
7.0533	5.6487
6.9962	5.9014
6.94	5.9343
6.8847	6.1326
6.8302	6.3044
6.7767	6.7546
6.7239	7.1902
6.672	7.5429
6.6209	7.6487
6.5705	7.7002
6.5209	7.8464
6.4721	7.9326
6.424	8.1106
6.3766	8.1653
6.3299	8.4458
6.2838	8.7473
6.2385	8.8664
6.1937	8.8503
6.1496	8.8589
6.1062	8.9487
6.0633	9.0781
6.0211	9.5136
5.9794	9.4465
5.9383	9.0273
5.8978	8.7961
5.8578	8.5032
5.8184	7.5234
5.7794	6.9658
5.741	6.8779
5.7031	6.9809
5.6657	7.134
5.6288	7.1487
5.5924	7.0513
5.5564	6.969
5.5209	7.0305
5.4859	6.9888
5.4513	6.8618
5.4171	6.7241
5.3833	6.2646
5.35	5.4411
5.3171	4.9084
5.2846	5.0286
5.2524	6.1116
5.2207	6.7737
5.1893	7.1887
5.1584	7.8279
5.1277	8.0674
5.0975	7.9621
5.0676	7.937
5.038	8.0183
5.0088	8.4028
4.98	9.0046
4.9514	10.3349
4.9232	11.2898
4.8953	12.0517
4.8678	12.7932
4.8405	13.2041
4.8135	13.2866
4.7868	13.3435
4.7605	13.511
4.7344	13.6965
4.7086	13.83
4.6831	14.0654
4.6578	14.3945
4.6328	14.6543
4.6081	14.8203
4.5837	14.7692
4.5595	14.7385
4.5356	14.8117
4.5119	14.8652
4.4884	15.0317
4.4652	15.1594
4.4423	15.5166
4.4196	15.6828
4.3971	15.6997
4.3748	15.8061
4.3528	15.9108
4.331	15.9807
4.3094	16.0012
4.288	16.0388
4.2668	16.1772
4.2458	16.2905
4.2251	16.4201
4.2045	16.479
4.1841	16.5151
4.164	16.5398
4.144	16.5432
4.1242	16.5559
4.1046	16.5546
4.0852	16.5881
4.066	16.5966
4.047	16.6137
4.0281	16.6291
4.0094	16.654
3.9909	16.6613
3.9725	16.676
3.9544	16.6838
3.9363	16.7085
3.9185	16.7314
3.9008	16.7431
3.8833	16.7561
3.8659	16.7453
3.8487	16.7385
3.8316	16.7399
3.8147	16.7168
3.7979	16.7146
3.7813	16.7209
3.7648	16.7236
3.7485	16.7297
3.7323	16.7346
3.7162	16.706
3.7003	16.5795
3.6845	16.1938
3.6689	16.2531
3.6534	16.4758
3.638	16.708
3.6227	16.8115
3.6076	16.8305
3.5926	16.8139
3.5777	16.8173
3.563	16.8181
3.5484	16.8586
3.5338	16.8747
3.5195	16.8591
3.5052	16.8037
3.491	16.8496
3.477	16.8877
3.463	16.9106
3.4492	16.883
3.4355	16.83
3.4219	16.716
3.4084	16.7497
3.395	16.8215
3.3817	16.7871
3.3685	16.7836
3.3554	16.8112
3.3425	16.8281
3.3296	16.7966
3.3168	16.789
3.3041	16.7746
3.2915	16.7365
3.279	16.7695
3.2666	16.8046
3.2543	16.7905
3.2421	16.758
3.23	16.7651
3.218	16.7314
3.206	16.7231
3.1942	16.6923
3.1824	16.5913
3.1707	16.468
3.1591	16.4431
3.1476	16.4958
3.1362	16.4868
3.1249	16.4482
3.1136	16.3366
3.1024	16.1626
3.0913	16.124
3.0803	16.0693
3.0694	15.916
3.0585	15.823
3.0477	15.7656
3.037	15.6106
3.0264	15.5
3.0158	15.1943
3.0053	14.7907
2.9949	14.7434
2.9845	14.4817
2.9743	14.1591
2.9641	14.5297
2.9539	14.9321
2.9439	15.2065
2.9339	14.9773
2.9239	14.2939
2.9141	14.5805
2.9043	14.6123
2.8946	14.2971
2.8849	14.1477
2.8753	13.4887
2.8658	13.1787
2.8563	13.2685
2.8469	13.455
2.8375	13.9824
2.8282	14.32
2.819	14.247
2.8098	13.6731
2.8007	13.5981
2.7917	13.3806
2.7827	11.9624
2.7738	12.7168
2.7649	11.1655
2.7561	10.6098
2.7473	8.3301
2.7386	7.1924
2.7299	5.4287
2.7213	4.1655
2.7128	3.8789
2.7043	6.2749
2.6959	8.9897
2.6875	11.3115
2.6791	12.5136
2.6709	13.1604
2.6626	13.8401
2.6545	14.2736
2.6463	14.4157
2.6382	14.3532
2.6302	14.3398
2.6222	14.2832
2.6143	13.6499
2.6064	13.1674
2.5986	13.2595
2.5908	13.9797
2.583	14.5234
2.5753	14.7011
2.5677	14.6445
2.5601	14.852
2.5525	14.7148
2.545	14.7568
2.5375	15.0979
2.5301	15.0932
2.5227	14.8676
2.5154	14.6005
2.5081	14.4387
2.5008	14.4912
2.4936	14.5415
2.4864	14.7024
2.4793	14.8715
2.4722	15.1816
2.4651	15.2065
2.4581	15.1474
2.4511	15.1682
2.4442	15.09
2.4373	15.0664
2.4305	14.9223
2.4236	14.9895
2.4169	15.1992
2.4101	15.1504
2.4034	15.0666
2.3967	14.9921
2.3901	14.9511
2.3835	15.2124
2.377	15.6047
2.3704	15.6748
2.364	15.4882
2.3575	15.3715
2.3511	15.3125
2.3447	15.3078
2.3384	15.5117
2.3321	15.3906
2.3258	14.8488
2.3195	14.5498
2.3133	14.8662
2.3071	15.185
2.301	15.3925
2.2949	15.5752
2.2888	15.645
2.2828	15.7983
2.2767	16.1259
2.2708	16.269
2.2648	16.3852
2.2589	16.4775
2.253	16.5747
2.2471	16.6728
2.2413	16.6928
2.2355	16.7548
2.2297	16.7275
2.224	16.5752
2.2183	16.5419
2.2126	16.6577
2.207	16.6181
2.2013	16.5942
2.1957	16.6972
2.1902	16.6464
2.1846	16.4257
2.1791	15.7968
2.1736	14.4863
2.1682	12.5937
2.1628	13.4087
2.1574	15.3501
2.152	16.1547
2.1466	16.625
2.1413	16.8579
2.136	16.9711
2.1308	17.1503
2.1255	17.2402
2.1203	17.3325
2.1151	17.4106
2.11	17.4926
2.1048	17.5551
2.0997	17.6606
2.0946	17.6352
2.0895	17.6181
2.0845	17.4497
2.0795	17.4941
