Name: Bytownite (Feldspar) (NaSi,CaAl)AlSi_2O_8
Type: Mineral
Class: Silicate
Subclass: Tectosilicate
Particle Size: Fine
Sample No.: TS-13A
Owner: JPL
Wavelength Range: TIR
Description: Particle size was 0-45um.Collected by JPL Original ASTER Spectral Library name was jpl.nicolet.mineral.silicate.tectosilicate.fine.ts13a.spectrum.txt
Measurement: Hemispherical reflectance
X Units: Wavelength (micrometers)
Y Units: Reflectance (percent)
wavelength	value
15.3853	2.6884
15.1161	1.7956
14.8563	1.7618
14.6052	1.8091
14.3624	1.8773
14.1276	2.2361
13.9004	2.5762
13.6803	2.574
13.4671	2.2781
13.2604	2.2984
13.06	2.4891
12.8656	2.7722
12.6769	3.8823
12.4936	6.2867
12.3155	9.3851
12.1425	10.0917
11.9742	9.2733
11.8106	7.9123
11.6513	7.3671
11.4963	6.8308
11.3454	6.0412
11.1983	5.4032
11.0551	5.2312
10.9154	5.426
10.7793	5.3322
10.6465	5.3259
10.5169	5.1026
10.3904	4.7892
10.267	4.3521
10.1464	4.5483
10.0287	4.2084
9.9136	4.346
9.8012	4.0968
9.6913	3.6341
9.5838	3.4318
9.4787	2.9192
9.3758	2.6756
9.2752	2.6868
9.1767	2.9095
9.0803	3.1472
8.9858	3.3351
8.8934	3.4506
8.8028	3.1842
8.714	3.3237
8.627	3.2426
8.5417	3.3
8.4581	2.9675
8.3761	3.0225
8.2957	2.3398
8.2169	1.3936
8.1395	0.9326
8.0635	0.8064
7.989	0.971
7.9158	1.1824
7.8439	1.7023
7.7734	2.3191
7.7041	3.0951
7.636	3.8694
7.5691	4.8461
7.5034	5.8122
7.4388	6.6546
7.3753	7.6296
7.3129	8.6635
7.2515	9.3466
7.1912	10.1418
7.1318	10.9924
7.0734	11.6767
7.016	12.3278
6.9595	13.2686
6.9039	13.3638
6.8492	14.107
6.7953	14.7441
6.7423	15.1951
6.6901	15.7148
6.6387	17.1238
6.5881	16.9477
6.5382	16.8733
6.4892	17.5497
6.4408	16.5976
6.3931	16.365
6.3462	16.0719
6.2999	14.9081
6.2543	14.7083
6.2094	15.0121
6.1651	15.3071
6.1214	15.442
6.0784	15.1117
6.0359	15.1255
5.994	15.7494
5.9527	15.7857
5.912	18.4915
5.8718	21.9654
5.8322	23.8828
5.7931	24.7678
5.7545	26.2343
5.7165	27.6242
5.6789	28.4062
5.6418	29.6909
5.6052	29.6949
5.5691	29.9916
5.5334	30.5976
5.4982	30.9605
5.4635	31.8332
5.4291	32.3178
5.3952	33.144
5.3618	34.2833
5.3287	35.1674
5.2961	36.2677
5.2638	37.1331
5.2319	38.1489
5.2004	39.332
5.1693	40.2254
5.1386	41.3826
5.1082	42.3732
5.0782	43.449
5.0485	44.23
5.0192	45.2675
4.9902	46.0014
4.9616	46.8635
4.9332	47.526
4.9052	48.1231
4.8776	48.7101
4.8502	49.1976
4.8231	49.6945
4.7963	50.2138
4.7699	50.8176
4.7437	51.4134
4.7178	51.8963
4.6922	52.5491
4.6668	52.9107
4.6418	53.3921
4.617	53.8742
4.5924	54.3927
4.5681	55.0222
4.5441	55.6703
4.5203	56.1588
4.4968	56.4668
4.4735	56.5281
4.4505	56.5244
4.4277	56.5291
4.4051	56.6597
4.3828	56.8813
4.3607	57.4918
4.3388	58.2284
4.3171	59.64
4.2956	61.085
4.2744	62.3257
4.2534	62.9522
4.2325	64.323
4.2119	64.3981
4.1915	64.6681
4.1712	65.2369
4.1512	65.7416
4.1313	66.1194
4.1117	66.6079
4.0922	67.0211
4.0729	67.3336
4.0538	67.5568
4.0349	67.7706
4.0161	67.6803
3.9976	67.3232
3.9792	67.0912
3.9609	67.4459
3.9428	67.8691
3.9249	68.1227
3.9072	68.1003
3.8896	68.1164
3.8722	68.0727
3.8549	67.9409
3.8378	67.8276
3.8208	67.7447
3.804	67.6414
3.7873	67.4524
3.7708	67.2778
3.7544	66.8624
3.7382	66.6074
3.7221	66.2137
3.7061	65.8647
3.6903	65.5112
3.6746	65.0934
3.659	64.6397
3.6436	64.1456
3.6283	63.761
3.6131	63.3119
3.5981	62.7764
3.5832	62.2347
3.5684	61.67
3.5537	60.8816
3.5391	60.0312
3.5247	59.068
3.5104	57.5606
3.4962	56.2016
3.4821	55.538
3.4681	55.1963
3.4543	54.6679
3.4405	53.6408
3.4269	52.1357
3.4133	50.6228
3.3999	50.198
3.3866	49.6339
3.3733	48.4583
3.3602	48.4625
3.3472	47.9728
3.3343	47.1923
3.3215	46.3348
3.3088	45.2525
3.2961	44.4483
3.2836	43.5147
3.2712	42.4989
3.2588	41.6921
3.2466	40.7916
3.2345	39.9144
3.2224	39.0483
3.2104	38.1086
3.1985	37.1941
3.1867	36.2643
3.175	35.2075
3.1634	34.3368
3.1519	33.2438
3.1404	32.253
3.129	31.2398
3.1178	30.6771
3.1065	30.1826
3.0954	29.7229
3.0844	29.1629
3.0734	28.684
3.0625	28.252
3.0517	28.1829
3.041	28.2454
3.0303	28.6741
3.0197	28.6688
3.0092	28.6584
2.9987	28.3186
2.9884	27.6689
2.9781	27.2945
2.9678	27.0128
2.9577	26.7424
2.9476	26.8074
2.9376	26.8529
2.9276	27.4056
2.9177	27.6761
2.9079	27.8787
2.8982	28.1498
2.8885	27.9946
2.8789	28.3802
2.8693	28.6005
2.8598	28.9211
2.8504	29.1533
2.841	28.8956
2.8317	28.6682
2.8224	29.1392
2.8133	30.1431
2.8041	31.3333
2.7951	31.9514
2.786	33.7291
2.7771	34.8385
2.7682	36.6129
2.7594	38.0467
2.7506	40.7268
2.7418	44.3263
2.7332	45.8713
2.7246	49.6966
2.716	51.7859
2.7075	57.3979
2.699	62.4187
2.6906	66.2666
2.6823	68.7391
2.674	70.1497
2.6657	72.9949
2.6575	71.2551
2.6494	71.5456
2.6413	72.1473
2.6332	72.7238
2.6252	72.9737
2.6173	74.6174
2.6094	73.7316
2.6015	73.628
2.5937	75.6261
2.5859	74.0298
2.5782	73.8443
2.5706	74.1034
2.5629	74.7535
2.5554	73.4895
2.5478	73.9939
2.5403	73.7645
2.5329	73.8647
2.5255	73.7935
2.5181	73.868
2.5108	73.7459
2.5035	73.8141
2.4963	73.8988
2.4891	73.989
2.482	73.9032
2.4749	73.9263
2.4678	73.9911
2.4608	73.9594
2.4538	74.1229
2.4468	74.3073
2.4399	74.5092
2.4331	74.4526
2.4262	74.5517
2.4194	74.9369
2.4127	75.17
2.4059	75.4763
2.3993	75.8746
2.3926	75.92
2.386	76.4059
2.3795	76.6697
2.3729	76.9158
2.3664	77.0755
2.36	77.1779
2.3535	77.1564
2.3471	77.2908
2.3408	77.29
2.3345	77.4866
2.3282	77.5549
2.3219	77.4649
2.3157	77.4101
2.3095	77.5408
2.3034	77.5829
2.2972	77.6004
2.2911	77.9872
2.2851	77.8899
2.279	78.055
2.2731	78.0079
2.2671	78.0248
2.2612	78.1675
2.2553	78.09
2.2494	78.0966
2.2435	78.2028
2.2377	78.2834
2.232	78.2104
2.2262	78.2355
2.2205	78.1982
2.2148	78.4173
2.2091	78.1772
2.2035	78.1234
2.1979	78.3113
2.1923	78.312
2.1868	78.322
2.1812	78.1899
2.1758	78.4486
2.1703	78.3676
2.1649	78.1879
2.1595	78.2552
2.1541	78.2758
2.1487	78.2198
2.1434	77.9268
2.1381	78.3355
2.1328	78.202
2.1275	78.475
2.1223	78.2382
2.1171	78.0036
2.112	78.3826
2.1068	78.0342
2.1017	78.0032
2.0966	77.9044
2.0915	77.7924
2.0865	77.7274
2.0814	77.7745
2.0764	77.673
2.0715	77.4802
2.0665	77.6753
2.0616	77.5809
2.0567	77.384
2.0518	77.6345
2.0469	77.1042
2.0421	77.5776
2.0373	77.0415
2.0325	77.1719
2.0277	77.1802
2.0229	76.9834
2.0182	76.8848
2.0135	76.5822
2.0088	76.6823
2.0042	76.081
