Name: Glauberite Na_2Ca(SO_4)_2
Type: Mineral
Class: Sulfate
Subclass: None
Particle Size: Coarse
Sample No.: SO-8A
Owner: JPL
Wavelength Range: VSWIR
Origin: USA, Arizona, Yavapai County, Campe Verde.
Description: Particle size was 125-500um. Collected by:  Burminco Original ASTER Spectral Library name was jpl.perkin.mineral.sulfate.none.coarse.so08a.spectrum.txt
Measurement: Hemispherical reflectance
X Units: Wavelength (micrometers)
Y Units: Reflectance (percent)
wavelength	value
2.5	70.1652
2.494	70.4991
2.488	70.4232
2.482	70.5053
2.476	70.6646
2.47	70.9063
2.464	70.977
2.458	71.1388
2.452	71.2263
2.446	71.4813
2.44	71.625
2.434	71.834
2.428	71.9331
2.422	72.1228
2.416	72.3182
2.41	72.4468
2.404	72.731
2.398	72.9241
2.392	73.2539
2.386	73.4957
2.38	73.851
2.374	74.0994
2.368	74.3854
2.362	74.6547
2.356	74.862
2.35	75.0052
2.344	75.1017
2.338	75.2083
2.332	75.2458
2.326	75.2517
2.32	75.2111
2.314	75.2218
2.308	75.2774
2.302	75.4513
2.296	75.4927
2.29	75.477
2.284	75.632
2.278	75.6269
2.272	75.6253
2.266	75.6699
2.26	75.7433
2.254	75.7609
2.248	75.8058
2.242	75.754
2.236	75.8961
2.23	75.7909
2.224	75.8639
2.218	76.0017
2.212	75.9216
2.206	76.1434
2.2	76.5096
2.194	76.5644
2.188	76.7893
2.182	76.8469
2.176	77.0892
2.17	77.2297
2.164	77.3879
2.158	77.516
2.152	77.6838
2.146	77.7658
2.14	77.8215
2.134	77.7164
2.128	77.6028
2.122	77.4068
2.116	77.1512
2.11	77.0313
2.104	76.7677
2.098	76.6653
2.092	76.7647
2.086	76.8563
2.08	76.8395
2.074	76.8991
2.068	76.9367
2.062	76.9906
2.056	76.9491
2.05	77.0541
2.044	76.9966
2.038	76.9626
2.032	76.8982
2.026	76.8285
2.02	76.6704
2.014	76.4879
2.008	76.1657
2.002	75.8908
1.996	75.5217
1.99	75.0267
1.984	74.5991
1.978	74.3312
1.972	74.1703
1.966	73.9086
1.96	73.6099
1.954	73.2692
1.948	73.0044
1.942	72.9583
1.936	73.0562
1.93	73.3532
1.924	73.564
1.918	73.9808
1.912	74.3663
1.906	74.9888
1.9	75.7645
1.894	76.4744
1.888	77.0525
1.882	77.5765
1.876	77.9157
1.87	78.0966
1.864	78.3533
1.858	78.501
1.852	78.5315
1.846	78.5681
1.84	78.5942
1.834	78.6227
1.828	78.5569
1.822	78.5782
1.816	78.6066
1.81	78.6182
1.804	78.5576
1.798	78.6266
1.792	78.5367
1.786	78.4196
1.78	78.4297
1.774	78.368
1.768	78.3548
1.762	78.3884
1.756	78.3934
1.75	78.3171
1.744	78.3478
1.738	78.4142
1.732	78.4948
1.726	78.578
1.72	78.6139
1.714	78.577
1.708	78.6582
1.702	78.7203
1.696	78.627
1.69	78.5907
1.684	78.5926
1.678	78.6124
1.672	78.5843
1.666	78.6766
1.66	78.5025
1.654	78.5981
1.648	78.4433
1.642	78.5396
1.636	78.4718
1.63	78.5239
1.624	78.5146
1.618	78.4261
1.612	78.4283
1.606	78.436
1.6	78.307
1.594	78.2872
1.588	78.3725
1.582	78.2446
1.576	78.1536
1.57	78.1647
1.564	78.1085
1.558	77.9573
1.552	77.9502
1.546	77.8261
1.54	77.7191
1.534	77.819
1.528	77.6816
1.522	77.7019
1.516	77.6632
1.51	77.5798
1.504	77.5043
1.498	77.3623
1.492	77.2457
1.486	77.1937
1.48	77.1911
1.474	77.1279
1.468	76.9975
1.462	76.9534
1.456	76.821
1.45	76.6277
1.444	76.6262
1.438	76.7157
1.432	76.8079
1.426	76.7285
1.42	76.7432
1.414	76.6766
1.408	76.9075
1.402	77.0752
1.396	77.2183
1.39	77.1557
1.384	77.3392
1.378	77.4323
1.372	77.3914
1.366	77.4516
1.36	77.389
1.354	77.3087
1.348	77.2028
1.342	77.2699
1.336	77.2418
1.33	77.2037
1.324	77.2068
1.318	77.2012
1.312	77.1273
1.306	77.0307
1.3	77.0964
1.294	77.0376
1.288	76.9726
1.282	76.9193
1.276	76.872
1.27	76.7932
1.264	76.7206
1.258	76.6322
1.252	76.6945
1.246	76.599
1.24	76.5043
1.234	76.4756
1.228	76.4331
1.222	76.3098
1.216	76.3351
1.21	76.2699
1.204	76.167
1.198	76.0934
1.192	76.0494
1.186	76.0985
1.18	75.996
1.174	75.9699
1.168	75.8889
1.162	75.9179
1.156	75.7868
1.15	75.8233
1.144	75.89
1.138	75.7703
1.132	75.7354
1.126	75.662
1.12	75.6155
1.114	75.6144
1.108	75.549
1.102	75.5168
1.096	75.5201
1.09	75.4545
1.084	75.4879
1.078	75.4871
1.072	75.375
1.066	75.3541
1.06	75.2545
1.054	75.3342
1.048	75.2845
1.042	75.3025
1.036	75.3217
1.03	75.1901
1.024	75.16
1.018	75.109
1.012	75.2073
1.006	75.1488
1	75.113
0.994	75.0815
0.988	75.0487
0.982	75.0755
0.976	74.9338
0.97	74.9196
0.964	74.8441
0.958	74.8522
0.952	74.7895
0.946	74.7668
0.94	74.7942
0.934	74.7062
0.928	74.6286
0.922	74.6319
0.916	74.644
0.91	74.5579
0.904	74.4619
0.898	74.476
0.892	74.4038
0.886	74.3604
0.88	74.2965
0.874	74.2776
0.868	74.2645
0.862	74.1948
0.856	74.3525
0.85	74.3251
0.844	74.2784
0.838	74.2142
0.832	74.2958
0.826	74.2567
0.82	74.1835
0.814	74.1441
0.808	74.0958
0.802	74.0154
0.796	73.9155
0.79	73.7951
0.784	73.6963
0.778	73.5773
0.772	73.449
0.766	73.2801
0.76	73.1561
0.754	72.9719
0.748	72.8
0.742	72.6376
0.736	72.4666
0.73	72.3105
0.724	72.0987
0.718	71.9561
0.712	71.7983
0.706	71.6355
0.7	71.5073
0.694	71.4009
0.688	71.2908
0.682	71.2021
0.676	71.0929
0.67	71.0048
0.664	70.9238
0.658	70.8498
0.652	70.7362
0.646	70.6376
0.64	70.5438
0.634	70.4221
0.628	70.2901
0.622	70.1567
0.616	69.9979
0.61	69.8788
0.604	69.7718
0.598	69.6765
0.592	69.5875
0.586	69.4401
0.58	69.2763
0.574	69.1389
0.568	68.9641
0.562	68.7599
0.556	68.5314
0.55	68.2959
0.544	68.0556
0.538	67.8233
0.532	67.6038
0.526	67.3629
0.52	67.111
0.514	66.8482
0.508	66.54
0.502	66.2728
0.496	65.9556
0.49	65.6871
0.484	65.3546
0.478	65.0932
0.472	64.81
0.466	64.5168
0.46	64.2101
0.454	63.8142
0.448	63.361
0.442	62.9159
0.436	62.391
0.43	61.8373
0.424	61.283
0.418	60.6851
0.412	60.1478
0.406	59.561
0.4	58.9611
