Name: Goethite a-Fe+3O(OH)
Type: Mineral
Class: Hydroxide
Subclass: None
Particle Size: Fine
Sample No.: goethite_1
Owner: JHU
Wavelength Range: TIR
Origin: Sample from Montreal, Wisconsin via the Smithsonian(sample no. NMNH 152500).
Description: The sample consisted of a 4 cm x 2 cm x 2 cm cluster of light brown radiating acicular crystals weighing 10 g.  No impurities were observed in hand sample or under the microscope. Particle size was less than 2 micrometers.(Goethite Group) Original ASTER Spectral Library name was jhu.nicolet.mineral.hydroxide.none.powder.goethi1.spectrum.txt
Measurement: Transmission
X Units: Wavelength (micrometers)
Y Units: Transmittance (percent)
wavelength	value
25.0442	27.5546
24.3388	26.3827
23.6719	28.58
23.0407	33.8612
22.4422	38.6483
21.8741	36.1386
21.334	36.9726
20.8199	40.1952
20.33	45.1591
19.8627	55.3573
19.4163	66.7303
18.9896	70.3773
18.5812	70.7069
18.19	67.6624
17.815	62.4183
17.4551	57.5082
17.1094	53.8168
16.7772	53.8143
16.4576	57.326
16.15	62.3563
15.8537	68.9315
15.568	74.3211
15.2925	75.7068
15.0265	73.5438
14.7697	76.7352
14.5214	83.7508
14.2814	86.1502
14.0492	86.0603
13.8244	84.8963
13.6067	83.7488
13.3957	80.7561
13.1912	76.3204
12.9929	70.2371
12.8004	61.2491
12.6135	51.3771
12.432	51.4042
12.2557	63.4122
12.0843	73.3963
11.9176	78.159
11.7555	78.8184
11.5977	77.209
11.444	72.9144
11.2944	64.7186
11.1487	54.8934
11.0067	56.2003
10.8682	68.501
10.7332	80.1551
10.6015	86.6897
10.473	89.7459
10.3476	90.168
10.2251	90.1299
10.1056	89.7793
9.9887	89.1123
9.8746	88.3779
9.763	87.6487
9.6539	87.9414
9.5472	87.9287
9.4429	87.4336
9.3408	87.4063
9.2409	87.6165
9.1431	87.8086
9.0474	88.1375
8.9536	88.4348
8.8618	88.5008
8.7718	87.9453
8.6837	87.7083
8.5973	87.822
8.5126	87.7095
8.4295	87.4932
8.3481	87.542
8.2682	87.6897
8.1898	87.5745
8.1129	87.4268
8.0374	86.9724
7.9634	86.5164
7.8906	86.221
7.8192	85.7715
7.7491	85.2102
7.6802	84.635
7.6126	84.2791
7.5461	83.8509
7.4807	83.3421
7.4165	82.8387
7.3534	82.3963
7.2914	81.9358
7.2303	81.4309
7.1703	80.5066
7.1113	79.993
7.0533	79.7874
6.9962	79.4336
6.94	78.5135
6.8847	78.1639
6.8302	78.094
6.7767	77.8191
6.7239	77.4222
6.672	77.1185
6.6209	76.7771
6.5705	76.1902
6.5209	75.5008
6.4721	74.9544
6.424	74.4236
6.3766	73.8719
6.3299	73.3167
6.2838	72.5784
6.2385	71.4717
6.1937	69.9368
6.1496	68.9178
6.1062	68.5242
6.0633	67.8475
6.0211	67.3065
5.9794	69.1483
5.9383	71.076
5.8978	71.4012
5.8578	71.1492
5.8184	70.7139
5.7794	70.2396
5.741	69.7117
5.7031	69.3436
5.6657	68.8729
5.6288	68.4427
5.5924	68.2799
5.5564	68.4363
5.5209	68.887
5.4859	69.262
5.4513	69.389
5.4171	69.306
5.3833	68.9603
5.35	68.6514
5.3171	68.306
5.2846	67.9715
5.2524	67.6644
5.2207	67.3724
5.1893	67.1614
5.1584	66.9139
5.1277	66.7283
5.0975	66.4632
5.0676	66.221
5.038	66.026
5.0088	65.8043
4.98	65.6109
4.9514	65.4449
4.9232	65.2493
4.8953	64.9871
4.8678	64.8165
4.8405	64.6331
4.8135	64.4259
4.7868	64.1995
4.7605	64.0057
4.7344	63.7755
4.7086	63.5345
4.6831	63.3202
4.6578	63.1287
4.6328	62.9144
4.6081	62.7371
4.5837	62.4832
4.5595	62.2772
4.5356	62.0887
4.5119	61.8856
4.4884	61.6773
4.4652	61.4737
4.4423	61.2454
4.4196	61.0206
4.3971	60.8182
4.3748	60.6214
4.3528	60.4041
4.331	60.1595
4.3094	59.9976
4.288	59.786
4.2668	59.5897
4.2458	59.3888
4.2251	59.1834
4.2045	58.8746
4.1841	58.6825
4.164	58.4962
4.144	58.3224
4.1242	58.0223
4.1046	57.8001
4.0852	57.6029
4.066	57.3656
4.047	57.1742
4.0281	57.0492
4.0094	56.8153
3.9909	56.5526
3.9725	56.3626
3.9544	56.1717
3.9363	55.9464
3.9185	55.7694
3.9008	55.5326
3.8833	55.2245
3.8659	55.0453
3.8487	54.7806
3.8316	54.5423
3.8147	54.3517
3.7979	54.1605
3.7813	53.9369
3.7648	53.6459
3.7485	53.4471
3.7323	53.1368
3.7162	52.8849
3.7003	52.6417
3.6845	52.3597
3.6689	52.1134
3.6534	51.9335
3.638	51.7443
3.6227	51.4642
3.6076	51.2049
3.5926	51.0585
3.5777	50.9676
3.563	50.6639
3.5484	50.4271
3.5338	50.2845
3.5195	50.0463
3.5052	49.6019
3.491	49.548
3.477	49.3031
3.463	49.1046
3.4492	48.746
3.4355	48.3251
3.4219	47.6788
3.4084	47.5157
3.395	47.3046
3.3817	46.7902
3.3685	46.3439
3.3554	45.8182
3.3425	45.2059
3.3296	44.6366
3.3168	43.9581
3.3041	43.1574
3.2915	42.3312
3.279	41.3761
3.2666	40.3839
3.2543	39.4286
3.2421	38.7873
3.23	38.465
3.218	38.6767
3.206	39.287
3.1942	40.0951
3.1824	41.0287
3.1707	42.1732
3.1591	43.1151
3.1476	43.9447
3.1362	44.6093
3.1249	45.328
3.1136	46.0609
3.1024	46.7596
3.0913	47.4364
3.0803	48.1039
3.0694	48.705
3.0585	49.3065
3.0477	49.7489
3.037	50.1009
3.0264	50.3456
3.0158	50.4169
3.0053	50.3578
2.9949	50.2621
2.9845	50.1346
2.9743	49.7919
2.9641	49.2601
2.9539	49.0038
2.9439	48.7411
2.9339	48.3485
2.9239	48.0653
2.9141	47.9843
2.9043	48.0809
2.8946	48.1913
2.8849	48.4471
2.8753	48.7255
2.8658	48.7343
2.8563	49.0726
2.8469	49.2264
2.8375	49.3182
2.8282	49.348
2.819	49.432
2.8098	49.4891
2.8007	49.496
2.7917	49.5887
2.7827	49.9501
2.7738	50.0975
2.7649	50.1776
2.7561	50.1781
2.7473	50.2225
2.7386	50.1664
2.7299	50.0565
2.7213	50.0355
2.7128	49.8612
2.7043	49.6014
2.6959	49.5048
2.6875	49.3827
2.6791	49.2284
2.6709	49.1019
2.6626	48.9891
2.6545	48.7167
2.6463	48.5082
2.6382	48.3871
2.6302	48.3207
2.6222	48.2245
2.6143	47.889
2.6064	47.8011
2.5986	47.5214
2.5908	47.618
2.583	47.537
2.5753	47.2303
2.5677	46.9843
2.5601	46.9637
2.5525	46.8553
2.545	46.7616
2.5375	46.577
2.5301	46.4745
2.5227	46.247
2.5154	46.1552
2.5081	46.0917
2.5008	46.0048
2.4936	45.7518
2.4864	45.7147
2.4793	45.6337
2.4722	45.4452
2.4651	45.5604
2.4581	45.3095
2.4511	45.0858
2.4442	44.872
2.4373	45.0136
2.4305	44.9696
2.4236	44.8134
2.4169	44.8007
2.4101	44.6757
2.4034	44.5389
2.3967	44.3124
2.3901	44.1766
2.3835	44.0282
2.377	44.0956
2.3704	44.0087
2.364	43.8612
2.3575	43.9784
2.3511	43.7421
2.3447	43.622
2.3384	43.7157
2.3321	43.3124
2.3258	43.2782
2.3195	43.2948
2.3133	43.0399
2.3071	42.9345
2.301	43.1561
2.2949	42.9725
2.2888	42.8397
2.2828	42.828
2.2767	42.6249
2.2708	42.579
2.2648	42.6132
2.2589	42.6141
2.253	42.3632
2.2471	42.3085
2.2413	42.2079
2.2355	42.0155
2.2297	42.1259
2.224	42.1015
2.2183	42.0868
2.2126	41.8915
2.207	41.8397
2.2013	41.6991
2.1957	41.7323
2.1902	41.5018
2.1846	41.5546
2.1791	41.5722
2.1736	41.535
2.1682	41.2694
2.1628	41.1933
2.1574	41.2108
2.152	41.0722
2.1466	41.0331
2.1413	40.8593
2.136	40.6913
2.1308	40.8241
2.1255	40.7421
2.1203	40.7069
2.1151	40.6483
2.11	40.4257
2.1048	40.33
2.0997	40.5311
2.0946	40.6425
2.0895	40.3983
2.0845	40.3358
2.0795	40.2733
