Name: Actinolite Ca_2(Mg,Fe^2+)_5Si_8O_22(OH)_2
Type: Mineral
Class: Silicate
Subclass: Inosilicate
Particle Size: Fine
Sample No.: IN-4A
Owner: JPL
Wavelength Range: VSWIR
Origin: USA, California, San Bernadino County, Wrightwood.
Description: Particle size was <45umCollected by:  Burminco Original ASTER Spectral Library name was jpl.perkin.mineral.silicate.inosilicate.fine.in04a.spectrum.txt
Measurement: Hemispherical reflectance
X Units: Wavelength (micrometers)
Y Units: Reflectance (percent)
wavelength	value
2.5	63.7081
2.494	63.1614
2.488	63.1966
2.482	62.977
2.476	63.0978
2.47	62.9255
2.464	63.1384
2.458	63.2947
2.452	63.4879
2.446	63.7374
2.44	64.1485
2.434	64.5178
2.428	64.6187
2.422	64.5581
2.416	64.2505
2.41	63.7435
2.404	63.0126
2.398	61.6145
2.392	60.2214
2.386	59.5886
2.38	60.3132
2.374	62.0166
2.368	63.9397
2.362	65.288
2.356	66.078
2.35	66.4236
2.344	66.0167
2.338	64.8674
2.332	62.7623
2.326	60.0206
2.32	57.6442
2.314	56.4662
2.308	56.4684
2.302	57.1385
2.296	58.3044
2.29	60.3381
2.284	62.7229
2.278	64.7079
2.272	66.3881
2.266	67.8418
2.26	68.7758
2.254	69.1927
2.248	69.4371
2.242	69.8411
2.236	70.788
2.23	71.5231
2.224	71.9359
2.218	72.2286
2.212	72.4951
2.206	72.6669
2.2	72.9226
2.194	73.0675
2.188	73.2317
2.182	73.4207
2.176	73.5357
2.17	73.8296
2.164	73.8626
2.158	74.1311
2.152	74.2121
2.146	74.2214
2.14	74.1948
2.134	74.0496
2.128	73.904
2.122	73.7568
2.116	73.573
2.11	73.7166
2.104	74.1395
2.098	74.4053
2.092	74.5783
2.086	74.8011
2.08	75.0768
2.074	75.3072
2.068	75.5427
2.062	75.6605
2.056	75.9277
2.05	76.0687
2.044	76.3843
2.038	76.6416
2.032	76.7277
2.026	76.66
2.02	76.7036
2.014	76.7138
2.008	76.7711
2.002	76.8615
1.996	76.9564
1.99	76.9627
1.984	77.1204
1.978	77.1316
1.972	77.3
1.966	77.4216
1.96	77.4606
1.954	77.5425
1.948	77.725
1.942	77.8208
1.936	78.1174
1.93	78.1564
1.924	78.391
1.918	78.6365
1.912	78.8365
1.906	79.08
1.9	79.3473
1.894	79.607
1.888	79.8563
1.882	80.1304
1.876	80.1611
1.87	80.2143
1.864	80.3947
1.858	80.4526
1.852	80.584
1.846	80.6671
1.84	80.7994
1.834	80.8166
1.828	80.8542
1.822	80.9382
1.816	80.9972
1.81	81.0201
1.804	81.0848
1.798	81.154
1.792	81.1372
1.786	81.1117
1.78	81.1425
1.774	81.1805
1.768	81.1313
1.762	81.153
1.756	81.1684
1.75	81.1589
1.744	81.2201
1.738	81.2763
1.732	81.265
1.726	81.3246
1.72	81.3211
1.714	81.2957
1.708	81.2461
1.702	81.1982
1.696	81.1939
1.69	81.2171
1.684	81.1319
1.678	81.1537
1.672	81.1872
1.666	81.1325
1.66	81.0923
1.654	81.0032
1.648	81.062
1.642	81.0049
1.636	80.8729
1.63	80.869
1.624	80.894
1.618	80.8423
1.612	80.7242
1.606	80.6846
1.6	80.6635
1.594	80.5651
1.588	80.5185
1.582	80.4091
1.576	80.3176
1.57	80.2601
1.564	80.158
1.558	80.1049
1.552	79.9251
1.546	79.757
1.54	79.7455
1.534	79.6569
1.528	79.5432
1.522	79.426
1.516	79.3273
1.51	79.2728
1.504	79.1003
1.498	78.9653
1.492	78.8826
1.486	78.7615
1.48	78.6301
1.474	78.5058
1.468	78.2778
1.462	78.2281
1.456	78.0114
1.45	77.7728
1.444	77.6973
1.438	77.5116
1.432	77.2906
1.426	77.0943
1.42	76.4534
1.414	75.4098
1.408	73.4725
1.402	70.602
1.396	65.9648
1.39	71.4763
1.384	75.3631
1.378	75.2537
1.372	75.1762
1.366	75.0771
1.36	74.8566
1.354	74.5661
1.348	74.2859
1.342	73.9346
1.336	73.5636
1.33	73.3416
1.324	72.9713
1.318	72.5594
1.312	72.2511
1.306	71.8899
1.3	71.4494
1.294	71.0758
1.288	70.69
1.282	70.2975
1.276	69.8175
1.27	69.4926
1.264	69.0172
1.258	68.6951
1.252	68.2526
1.246	67.7638
1.24	67.3565
1.234	66.9129
1.228	66.4867
1.222	66.0276
1.216	65.606
1.21	65.2129
1.204	64.7677
1.198	64.2725
1.192	63.8845
1.186	63.4794
1.18	63.0337
1.174	62.6496
1.168	62.2425
1.162	61.8246
1.156	61.3438
1.15	60.931
1.144	60.3883
1.138	59.9846
1.132	59.4133
1.126	58.8448
1.12	58.1969
1.114	57.4982
1.108	56.8504
1.102	56.039
1.096	55.2299
1.09	54.317
1.084	53.4118
1.078	52.3572
1.072	51.394
1.066	50.4341
1.06	49.5274
1.054	48.8179
1.048	48.2693
1.042	47.8937
1.036	47.6355
1.03	47.5451
1.024	47.5968
1.018	47.8191
1.012	48.0552
1.006	48.2778
1	48.798
0.994	49.2558
0.988	49.7127
0.982	50.2034
0.976	50.7713
0.97	51.2536
0.964	51.7806
0.958	52.2149
0.952	52.6123
0.946	53.1753
0.94	53.6287
0.934	54.0134
0.928	54.307
0.922	54.6791
0.916	55.0102
0.91	55.2137
0.904	55.4795
0.898	55.7058
0.892	56.0507
0.886	56.3014
0.88	56.5816
0.874	56.7976
0.868	57.0506
0.862	57.2851
0.856	57.642
0.85	57.9473
0.844	58.2328
0.838	58.5471
0.832	58.7977
0.826	59.0878
0.82	59.2907
0.814	59.474
0.808	59.6077
0.802	59.7168
0.796	59.7107
0.79	59.6629
0.784	59.6202
0.778	59.5186
0.772	59.3654
0.766	59.1748
0.76	59.0158
0.754	58.8298
0.748	58.656
0.742	58.4725
0.736	58.2291
0.73	58.0278
0.724	57.7752
0.718	57.537
0.712	57.2793
0.706	56.9704
0.7	56.6178
0.694	56.3657
0.688	56.4133
0.682	56.3892
0.676	56.1441
0.67	55.9172
0.664	55.8205
0.658	55.7979
0.652	55.9005
0.646	56.0209
0.64	56.1234
0.634	56.3501
0.628	56.6523
0.622	57.0144
0.616	57.4034
0.61	57.8196
0.604	58.2412
0.598	58.6982
0.592	59.1505
0.586	59.5365
0.58	59.9117
0.574	60.2296
0.568	60.5432
0.562	60.7673
0.556	60.8796
0.55	60.9147
0.544	60.9638
0.538	61.0024
0.532	60.9168
0.526	60.7331
0.52	60.4822
0.514	60.0386
0.508	59.3493
0.502	58.9256
0.496	58.1791
0.49	57.4536
0.484	56.7471
0.478	56.0478
0.472	55.2612
0.466	54.4984
0.46	53.8262
0.454	53.1713
0.448	52.5013
0.442	51.925
0.436	51.7572
0.43	51.1516
0.424	50.3468
0.418	49.5104
0.412	48.6732
0.406	47.9201
0.4	47.1967
