Name: Beryl Be_3Al_2Si_6O_18
Type: Mineral
Class: Silicate
Subclass: Cyclosilicate
Particle Size: Coarse
Sample No.: CS-2A
Owner: JPL
Wavelength Range: VSWIR
Origin: Brazil, Minas Gerais.
Description: Particle size was 125-500umCollected by:  Ward's Original ASTER Spectral Library name was jpl.perkin.mineral.silicate.cyclosilicate.coarse.cs02a.spectrum.txt
Measurement: Hemispherical reflectance
X Units: Wavelength (micrometers)
Y Units: Reflectance (percent)
wavelength	value
2.5	27.5785
2.494	30.6946
2.488	31.3799
2.482	32.8274
2.476	35.6744
2.47	36.1829
2.464	38.48
2.458	40.1051
2.452	40.9326
2.446	42.2323
2.44	44.3057
2.434	45.8335
2.428	46.5068
2.422	47.3883
2.416	47.7781
2.41	49.2762
2.404	50.3861
2.398	50.4211
2.392	51.3292
2.386	51.1357
2.38	51.1612
2.374	51.5108
2.368	52.1866
2.362	52.6637
2.356	53.5019
2.35	53.6971
2.344	54.5712
2.338	54.6202
2.332	55.1369
2.326	56.1286
2.32	57.4027
2.314	57.8384
2.308	57.7324
2.302	58.7028
2.296	59.1185
2.29	59.1046
2.284	59.5827
2.278	60.0126
2.272	60.5252
2.266	60.8559
2.26	60.8081
2.254	60.9851
2.248	61.3158
2.242	61.4375
2.236	61.5591
2.23	61.7471
2.224	61.1746
2.218	61.4627
2.212	61.2509
2.206	59.9781
2.2	59.6335
2.194	60.0605
2.188	60.1001
2.182	60.7333
2.176	60.9805
2.17	61.3396
2.164	60.475
2.158	59.6582
2.152	58.148
2.146	59.1222
2.14	61.5384
2.134	61.9576
2.128	62.0963
2.122	62.0935
2.116	61.8319
2.11	61.5252
2.104	61.5844
2.098	61.1068
2.092	60.8299
2.086	59.7757
2.08	59.4404
2.074	59.9268
2.068	59.9437
2.062	59.8108
2.056	59.0622
2.05	58.5672
2.044	60.1834
2.038	61.3222
2.032	61.2901
2.026	61.4021
2.02	61.2814
2.014	60.9247
2.008	60.6318
2.002	60.2944
1.996	59.4123
1.99	58.1334
1.984	55.7422
1.978	51.9343
1.972	48.882
1.966	47.2106
1.96	46.1344
1.954	46.076
1.948	46.709
1.942	47.9077
1.936	49.0166
1.93	48.8828
1.924	47.8772
1.918	46.39
1.912	43.0583
1.906	35.3756
1.9	18.0015
1.894	13.1275
1.888	30.68
1.882	40.7098
1.876	44.401
1.87	46.3353
1.864	46.7076
1.858	45.614
1.852	43.0178
1.846	40.0845
1.84	38.5766
1.834	38.6489
1.828	39.9125
1.822	43.7142
1.816	50.293
1.81	55.147
1.804	58.1036
1.798	59.8386
1.792	60.9188
1.786	61.9581
1.78	62.9128
1.774	63.6884
1.768	64.4917
1.762	65.0132
1.756	65.4075
1.75	65.7479
1.744	65.9428
1.738	66.1478
1.732	66.3427
1.726	66.6679
1.72	66.6109
1.714	66.5636
1.708	66.6849
1.702	66.7289
1.696	66.767
1.69	66.727
1.684	66.8774
1.678	66.9943
1.672	66.9129
1.666	66.9374
1.66	66.9691
1.654	67.0444
1.648	66.9846
1.642	67.0533
1.636	67.0851
1.63	67.1275
1.624	67.0802
1.618	67.107
1.612	67.1373
1.606	67.191
1.6	67.1458
1.594	67.1523
1.588	67.144
1.582	67.1337
1.576	67.0758
1.57	67.0526
1.564	67.1021
1.558	67.0738
1.552	67.0327
1.546	66.996
1.54	66.9003
1.534	66.8495
1.528	66.6934
1.522	66.5668
1.516	66.1889
1.51	65.8291
1.504	65.6957
1.498	65.4518
1.492	65.5867
1.486	65.3957
1.48	64.8265
1.474	62.922
1.468	52.8484
1.462	60.0664
1.456	62.5804
1.45	61.967
1.444	59.5686
1.438	57.3359
1.432	55.8647
1.426	55.6307
1.42	52.1198
1.414	50.2335
1.408	46.6398
1.402	26.8289
1.396	43.0008
1.39	55.0678
1.384	56.4908
1.378	54.711
1.372	52.2727
1.366	52.4877
1.36	55.4992
1.354	60.4096
1.348	63.0802
1.342	63.6946
1.336	64.1921
1.33	64.7456
1.324	65.1647
1.318	65.5111
1.312	65.5901
1.306	65.8125
1.3	65.7537
1.294	65.7384
1.288	65.7242
1.282	65.7038
1.276	65.7276
1.27	65.5947
1.264	65.6421
1.258	65.5537
1.252	65.5423
1.246	65.4876
1.24	65.3864
1.234	65.352
1.228	65.2919
1.222	65.2281
1.216	65.0786
1.21	65.0534
1.204	64.6625
1.198	64.6966
1.192	64.6657
1.186	64.5727
1.18	64.1219
1.174	63.6995
1.168	63.5912
1.162	63.3401
1.156	62.5175
1.15	53.1795
1.144	62.1911
1.138	62.5394
1.132	61.8978
1.126	61.6676
1.12	62.2154
1.114	62.5144
1.108	62.3895
1.102	62.1648
1.096	61.947
1.09	61.7138
1.084	61.42
1.078	61.1637
1.072	60.7751
1.066	60.4749
1.06	60.1872
1.054	59.8563
1.048	59.5473
1.042	59.3044
1.036	58.9385
1.03	58.6826
1.024	58.3408
1.018	58.0027
1.012	57.7049
1.006	57.4241
1	57.0529
0.994	56.827
0.988	56.511
0.982	56.0365
0.976	55.4363
0.97	55.2077
0.964	54.6812
0.958	52.6327
0.952	53.6404
0.946	53.5362
0.94	52.9225
0.934	52.5211
0.928	51.841
0.922	51.088
0.916	50.3563
0.91	49.6452
0.904	48.5478
0.898	47.6816
0.892	46.8396
0.886	45.8672
0.88	45.0591
0.874	43.8753
0.868	43.2089
0.862	42.2514
0.856	41.746
0.85	41.2601
0.844	40.8061
0.838	40.448
0.832	40.2421
0.826	40.2498
0.82	40.1865
0.814	40.2717
0.808	40.4936
0.802	40.7638
0.796	41.2302
0.79	41.6176
0.784	42.2071
0.778	42.949
0.772	43.8102
0.766	44.5636
0.76	45.5579
0.754	46.5587
0.748	47.5127
0.742	48.5291
0.736	49.6229
0.73	50.6861
0.724	51.7555
0.718	52.8581
0.712	53.8309
0.706	54.7814
0.7	55.7318
0.694	56.5858
0.688	57.2691
0.682	57.9286
0.676	58.4868
0.67	59.0085
0.664	59.4577
0.658	59.8764
0.652	60.3042
0.646	60.6198
0.64	60.9374
0.634	61.2184
0.628	61.4664
0.622	61.7029
0.616	61.9616
0.61	62.2016
0.604	62.4024
0.598	62.6414
0.592	62.9124
0.586	63.099
0.58	63.2442
0.574	63.4464
0.568	63.6338
0.562	63.8688
0.556	64.0666
0.55	64.2711
0.544	64.4197
0.538	64.4982
0.532	64.6845
0.526	64.8433
0.52	64.9643
0.514	65.0579
0.508	65.1685
0.502	65.205
0.496	65.341
0.49	65.3062
0.484	65.3382
0.478	65.3627
0.472	65.3254
0.466	65.2163
0.46	65.1107
0.454	64.9743
0.448	64.7976
0.442	64.5339
0.436	63.9856
0.43	62.7726
0.424	62.5246
0.418	63.0257
0.412	62.936
0.406	62.8131
0.4	62.4088
