Name: Clinoptilolite (Na,K,Ca)2-3Al3(Al,Si)2Si13O36.12H2O
Type: Mineral
Class: Silicate
Subclass: Tectosilicate
Particle Size: Solid
Sample No.: clinopt_1
Owner: JHU
Wavelength Range: TIR
Origin: Donated by W. J. Ehmann ;  Sample #7 from Castle Creek,Idaho.
Description: The sample is a cream-colored earthy mass.  Because of the earthy nature of this mineral sample, there is little difference between the spectra of different particle size ranges. Petrographically it is clean and pure clinoptilolite. Sample was random surface.(Framework silicates) (Zeolite Group) Original ASTER Spectral Library name was jhu.nicolet.mineral.silicate.tectosilicate.solid.clinop1.spectrum.txt
Measurement: Bidirectional reflectance
X Units: Wavelength (micrometers)
Y Units: Reflectance (percent)
wavelength	value
25.044	1.376
24.339	1.188
23.672	1.28
23.041	1.3594
22.442	1.3325
21.874	1.6096
21.334	1.7534
20.82	1.8223
20.33	1.4363
19.863	0.9895
19.416	0.8623
18.99	0.8835
18.581	0.7122
18.19	0.676
17.815	0.6895
17.455	0.7002
17.109	0.7227
16.777	0.7554
16.458	0.7405
16.15	0.6484
15.854	0.6057
15.568	0.5688
15.292	0.6367
15.027	0.5957
14.77	0.6438
14.521	0.6553
14.281	0.6541
14.049	0.6941
13.824	0.6833
13.607	0.6694
13.396	0.7097
13.191	0.7346
12.993	0.7666
12.8	0.7935
12.614	0.7949
12.432	0.8271
12.256	1.0098
12.084	1.2559
11.918	1.5124
11.755	1.615
11.598	1.7026
11.444	1.7317
11.294	1.8286
11.149	1.946
11.007	1.9451
10.868	1.8894
10.733	1.8804
10.602	1.7998
10.473	1.6677
10.348	1.5083
10.225	1.3374
10.106	1.2073
9.9887	1.1726
9.8746	1.2014
9.763	1.2493
9.6539	1.2903
9.5472	1.344
9.4429	1.3901
9.3408	1.4856
9.2409	1.5937
9.1431	1.6623
9.0474	1.5969
8.9536	1.46
8.8618	1.3499
8.7718	1.2476
8.6837	1.1724
8.5973	1.1067
8.5126	1.0581
8.4295	1.0112
8.3481	0.978
8.2682	1.03
8.1898	1.2056
8.1129	1.3206
8.0374	1.0635
7.9634	0.6523
7.8906	0.377
7.8192	0.2637
7.7491	0.2454
7.6802	0.2773
7.6126	0.3489
7.5461	0.4221
7.4807	0.5046
7.4165	0.5967
7.3534	0.6816
7.2914	0.7744
7.2303	0.8726
7.1703	0.9646
7.1113	1.0588
7.0533	1.1477
6.9962	1.2307
6.94	1.3291
6.8847	1.416
6.8302	1.5124
6.7767	1.6143
6.7239	1.699
6.672	1.7644
6.6209	1.8206
6.5705	1.8572
6.5209	1.8982
6.4721	1.9045
6.424	1.884
6.3766	1.8267
6.3299	1.698
6.2838	1.4902
6.2385	1.1648
6.1937	0.8369
6.1496	0.6406
6.1062	0.5579
6.0633	0.5674
6.0211	0.657
5.9794	0.8406
5.9383	1.1572
5.8978	1.5515
5.8578	1.9802
5.8184	2.3601
5.7794	2.6433
5.741	2.8491
5.7031	2.9717
5.6657	3.0544
5.6288	3.104
5.5924	3.1345
5.5564	3.1558
5.5209	3.1741
5.4859	3.2229
5.4513	3.3174
5.4171	3.4646
5.3833	3.645
5.35	3.8298
5.3171	3.9888
5.2846	4.0871
5.2524	4.1287
5.2207	4.1533
5.1893	4.1763
5.1584	4.2268
5.1277	4.311
5.0975	4.4443
5.0676	4.6089
5.038	4.8057
5.0088	5.0051
4.98	5.2053
4.9514	5.3572
4.9232	5.4724
4.8953	5.5351
4.8678	5.5869
4.8405	5.6211
4.8135	5.6782
4.7868	5.7361
4.7605	5.8083
4.7344	5.8791
4.7086	5.9497
4.6831	6.0098
4.6578	6.0574
4.6328	6.104
4.6081	6.1579
4.5837	6.2156
4.5595	6.2803
4.5356	6.354
4.5119	6.4272
4.4884	6.5242
4.4652	6.6262
4.4423	6.7414
4.4196	6.8579
4.3971	6.9731
4.3748	7.0849
4.3528	7.1931
4.331	7.3005
4.3094	7.4079
4.288	7.5207
4.2668	7.6362
4.2458	7.7756
4.2251	7.9121
4.2045	8.0598
4.1841	8.2041
4.164	8.3491
4.144	8.5085
4.1242	8.6675
4.1046	8.8166
4.0852	8.9802
4.066	9.1203
4.047	9.2898
4.0281	9.427
4.0094	9.5713
3.9909	9.6806
3.9725	9.779
3.9544	9.8745
3.9363	9.9536
3.9185	10.014
3.9008	10.043
3.8833	10.069
3.8659	10.083
3.8487	10.084
3.8316	10.07
3.8147	10.048
3.7979	10.008
3.7813	9.9739
3.7648	9.9297
3.7485	9.8691
3.7323	9.8108
3.7162	9.7195
3.7003	9.6377
3.6845	9.5505
3.6689	9.4336
3.6534	9.3196
3.638	9.1909
3.6227	9.0764
3.6076	8.9206
3.5926	8.7729
3.5777	8.6069
3.563	8.4411
3.5484	8.2488
3.5338	8.0432
3.5195	7.8074
3.5052	7.5312
3.491	7.3652
3.477	7.1821
3.463	6.9958
3.4492	6.7473
3.4355	6.4809
3.4219	6.1931
3.4084	5.9685
3.395	5.7952
3.3817	5.5574
3.3685	5.354
3.3554	5.1457
3.3425	4.9263
3.3296	4.6973
3.3168	4.4636
3.3041	4.2439
3.2915	4.0249
3.279	3.8071
3.2666	3.594
3.2543	3.3774
3.2421	3.1816
3.23	2.9873
3.218	2.8018
3.206	2.625
3.1942	2.4582
3.1824	2.2888
3.1707	2.1382
3.1591	1.9897
3.1476	1.853
3.1362	1.7253
3.1249	1.6108
3.1136	1.5061
3.1024	1.4216
3.0913	1.3645
3.0803	1.3274
3.0694	1.2978
3.0585	1.2864
3.0477	1.2786
3.037	1.2664
3.0264	1.228
3.0158	1.1914
3.0053	1.1387
2.9949	1.1011
2.9845	1.0457
2.9743	1.0159
2.9641	0.9814
2.9539	0.9573
2.9439	0.9365
2.9339	0.9167
2.9239	0.8987
2.9141	0.8872
2.9043	0.8762
2.8946	0.8794
2.8849	0.853
2.8753	0.8469
2.8658	0.8391
2.8563	0.8418
2.8469	0.8232
2.8375	0.8125
2.8282	0.8027
2.819	0.7651
2.8098	0.7434
2.8007	0.7415
2.7917	0.7258
2.7827	0.7219
2.7738	0.6956
2.7649	0.7021
2.7561	0.7488
2.7473	0.821
2.7386	0.9807
2.7299	1.2839
2.7213	1.7209
2.7128	2.394
2.7043	3.2385
2.6959	4.0288
2.6875	4.7121
2.6791	5.1904
2.6709	5.6252
2.6626	6.2886
2.6545	6.6262
2.6463	6.9045
2.6382	7.1206
2.6302	7.2632
2.6222	7.4358
2.6143	7.5327
2.6064	7.5996
2.5986	7.6858
2.5908	7.7441
2.583	7.7737
2.5753	7.7964
2.5677	7.833
2.5601	7.8305
2.5525	7.8948
2.545	7.9604
2.5375	8.0234
2.5301	8.0752
2.5227	8.1565
2.5154	8.217
2.5081	8.3296
2.5008	8.4136
2.4936	8.4851
2.4864	8.604
2.4793	8.708
2.4722	8.8227
2.4651	8.9277
2.4581	9.0576
2.4511	9.2285
2.4442	9.3789
2.4373	9.5444
2.4305	9.7119
2.4236	9.8711
2.4169	10.046
2.4101	10.18
2.4034	10.315
2.3967	10.449
2.3901	10.602
2.3835	10.747
2.377	10.912
2.3704	11.063
2.364	11.243
2.3575	11.406
2.3511	11.577
2.3447	11.715
2.3384	11.869
2.3321	11.983
2.3258	12.085
2.3195	12.156
2.3133	12.175
2.3071	12.193
2.301	12.25
2.2949	12.257
2.2888	12.368
2.2828	12.469
2.2767	12.591
2.2708	12.683
2.2648	12.809
2.2589	12.845
2.253	12.896
2.2471	12.902
2.2413	12.947
2.2355	12.992
2.2297	12.984
2.224	12.998
2.2183	13.042
2.2126	13.057
2.207	13.048
2.2013	13.071
2.1957	13.073
2.1902	13.075
2.1846	13.128
2.1791	13.122
2.1736	13.163
2.1682	13.211
2.1628	13.235
2.1574	13.259
2.152	13.198
2.1466	13.203
2.1413	13.195
2.136	13.196
2.1308	13.183
2.1255	13.177
2.1203	13.124
2.1151	13.123
2.11	13.09
2.1048	13.067
2.0997	13.047
2.0946	13.078
2.0895	13.068
2.0845	13.017
2.0795	13.026
