Name: Diopside CaMgSi2O6
Type: Mineral
Class: Silicate
Subclass: Inosilicate
Particle Size: Fine
Sample No.: diopside_1
Owner: JHU
Wavelength Range: TIR
Origin: Sample from St. Lawrence Co., New York via the Smithsonian(sample no. NMNH C2393).
Description: Sample consisted of two green subhedral crystals 1-2 cm in length and width. Both crystals appeared pure in hand specimen.  Under the petrographic microscope, the powdered sample displayed one small, moderately birefringent grain with parallel extinction. There may be minor exsolution. Very little alteration, but a trace amount (<< 1%) of sericite can be seen along cleavage planes. Particle size was Less than 2  Micrometers.(Chain Silicates) (Pyroxene Group) Original ASTER Spectral Library name was jhu.nicolet.mineral.silicate.inosilicate.powder.diopsi1.spectrum.txt
Measurement: Transmission
X Units: Wavelength (micrometers)
Y Units: Transmittance (percent)
wavelength	value
25.0442	61.9452
24.3388	67.3436
23.6719	74.3045
23.0407	72.744
22.4422	65.6756
21.8741	51.6288
21.334	40.5038
20.8199	36.9726
20.33	43.7245
19.8627	48.8163
19.4163	44.0702
18.9896	47.9188
18.5812	52.412
18.19	64.4305
17.815	76.5975
17.4551	83.6287
17.1094	87.1443
16.7772	88.7693
16.4576	89.3572
16.15	88.2791
15.8537	78.8025
15.568	82.116
15.2925	88.5759
15.0265	87.7439
14.7697	84.5955
14.5214	90.3181
14.2814	91.8611
14.0492	92.1082
13.8244	93.3181
13.6067	93.4143
13.3957	93.1682
13.1912	92.3533
12.9929	92.2439
12.8004	91.2581
12.6135	90.5256
12.432	89.2009
12.2557	86.2678
12.0843	80.7029
11.9176	70.2576
11.7555	52.5257
11.5977	39.8017
11.444	41.5751
11.2944	51.7284
11.1487	58.7909
11.0067	59.8578
10.8682	53.8094
10.7332	65.6375
10.6015	70.0584
10.473	54.8314
10.3476	39.0824
10.2251	41.435
10.1056	43.8754
9.9887	54.9667
9.8746	62.5985
9.763	65.3797
9.6539	63.9823
9.5472	58.7772
9.4429	45.327
9.3408	32.7519
9.2409	34.1112
9.1431	38.5502
9.0474	49.2098
8.9536	64.9652
8.8618	73.8714
8.7718	80.241
8.6837	84.303
8.5973	87.0374
8.5126	89.0105
8.4295	90.5964
8.3481	91.8572
8.2682	92.9639
8.1898	93.7354
8.1129	94.3066
8.0374	94.8367
7.9634	95.2656
7.8906	95.6943
7.8192	96.0752
7.7491	96.3174
7.6802	96.4084
7.6126	96.5691
7.5461	96.7839
7.4807	96.8679
7.4165	96.9617
7.3534	96.9033
7.2914	96.8203
7.2303	96.5518
7.1703	96.7156
7.1113	96.375
7.0533	95.9287
6.9962	95.908
6.94	96.2624
6.8847	96.3494
6.8302	96.3809
6.7767	96.7039
6.7239	96.9365
6.672	97.074
6.6209	97.3603
6.5705	97.4665
6.5209	97.614
6.4721	97.6318
6.424	97.7266
6.3766	97.6894
6.3299	97.5549
6.2838	97.4255
6.2385	97.0781
6.1937	96.4902
6.1496	95.9248
6.1062	95.9412
6.0633	96.4202
6.0211	97.8396
5.9794	98.906
5.9383	99.0127
5.8978	98.9167
5.8578	99.0749
5.8184	99.2561
5.7794	99.3342
5.741	99.4236
5.7031	99.5544
5.6657	99.5642
5.6288	99.5596
5.5924	99.5788
5.5564	99.5085
5.5209	99.6016
5.4859	99.6042
5.4513	99.6221
5.4171	99.6335
5.3833	99.5203
5.35	99.5935
5.3171	99.5652
5.2846	99.5593
5.2524	99.5915
5.2207	99.5957
5.1893	99.5928
5.1584	99.5635
5.1277	99.5115
5.0975	99.3904
5.0676	99.3953
5.038	99.4363
5.0088	99.4951
4.98	99.4797
4.9514	99.5105
4.9232	99.4768
4.8953	99.4729
4.8678	99.5212
4.8405	99.4778
4.8135	99.5505
4.7868	99.6365
4.7605	99.6262
4.7344	99.6399
4.7086	99.657
4.6831	99.7541
4.6578	99.7292
4.6328	99.7995
4.6081	99.9114
4.5837	99.801
4.5595	99.7712
4.5356	99.7781
4.5119	99.7522
4.4884	99.6848
4.4652	99.6247
4.4423	99.6233
4.4196	99.6365
4.3971	99.6448
4.3748	99.5901
4.3528	99.5686
4.331	99.5217
4.3094	99.5564
4.288	99.5017
4.2668	99.4675
4.2458	99.5417
4.2251	99.4255
4.2045	99.4402
4.1841	99.4495
4.164	99.4421
4.144	99.3523
4.1242	99.3689
4.1046	99.3425
4.0852	99.3064
4.066	99.3328
4.047	99.2527
4.0281	99.262
4.0094	99.2419
3.9909	99.1545
3.9725	99.0954
3.9544	99.0906
3.9363	99.1912
3.9185	99.1453
3.9008	99.1101
3.8833	99.0144
3.8659	98.9665
3.8487	98.9846
3.8316	98.9734
3.8147	98.9285
3.7979	98.9807
3.7813	98.8328
3.7648	98.8181
3.7485	98.7888
3.7323	98.7712
3.7162	98.7263
3.7003	98.5447
3.6845	98.5979
3.6689	98.5549
3.6534	98.5496
3.638	98.4299
3.6227	98.3259
3.6076	98.3498
3.5926	98.4026
3.5777	98.2869
3.563	98.1291
3.5484	98.0759
3.5338	98.0515
3.5195	97.8142
3.5052	97.7034
3.491	97.6531
3.477	97.5378
3.463	97.4822
3.4492	97.3962
3.4355	97.2327
3.4219	97.1389
3.4084	97.0862
3.395	97.0925
3.3817	97.0706
3.3685	97.3337
3.3554	97.2146
3.3425	97.1755
3.3296	97.1697
3.3168	97.0915
3.3041	97.0369
3.2915	96.9285
3.279	96.8225
3.2666	96.7815
3.2543	96.6682
3.2421	96.6482
3.23	96.5349
3.218	96.3591
3.206	96.2268
3.1942	96.0232
3.1824	95.9167
3.1707	95.7253
3.1591	95.4373
3.1476	95.2781
3.1362	94.9929
3.1249	94.8992
3.1136	94.5955
3.1024	94.197
3.0913	93.9744
3.0803	93.6804
3.0694	93.4851
3.0585	93.1853
3.0477	93.0847
3.037	92.6658
3.0264	92.3162
3.0158	91.9461
3.0053	91.3923
2.9949	90.8318
2.9845	90.2781
2.9743	89.3416
2.9641	88.5681
2.9539	87.7244
2.9439	87.2439
2.9339	86.8562
2.9239	86.4568
2.9141	86.3767
2.9043	86.4148
2.8946	86.5476
2.8849	86.9734
2.8753	87.1931
2.8658	87.4929
2.8563	88.0779
2.8469	88.4656
2.8375	89.199
2.8282	89.5701
2.819	90.3181
2.8098	90.825
2.8007	91.4343
2.7917	92.0007
2.7827	92.5242
2.7738	93.197
2.7649	93.9021
2.7561	94.6052
2.7473	95.238
2.7386	95.6345
2.7299	95.489
2.7213	95.2781
2.7128	95.8718
2.7043	96.3298
2.6959	96.5671
2.6875	96.7126
2.6791	96.6951
2.6709	96.8992
2.6626	96.7146
2.6545	96.656
2.6463	96.5662
2.6382	96.6716
2.6302	96.7195
2.6222	96.5583
2.6143	96.5749
2.6064	96.4587
2.5986	96.5437
2.5908	96.5232
2.583	96.3708
2.5753	96.2498
2.5677	96.283
2.5601	96.3298
2.5525	96.1951
2.545	95.9529
2.5375	96.3923
2.5301	95.988
2.5227	95.8318
2.5154	95.9431
2.5081	96.115
2.5008	95.8591
2.4936	95.8611
2.4864	95.906
2.4793	95.7361
2.4722	95.8455
2.4651	95.8787
2.4581	95.781
2.4511	95.5876
2.4442	95.6248
2.4373	95.4626
2.4305	95.5662
2.4236	95.4548
2.4169	95.658
2.4101	95.3474
2.4034	95.2966
2.3967	95.2576
2.3901	95.1267
2.3835	95.2849
2.377	95.2576
2.3704	95.2986
2.364	95.3474
2.3575	95.3279
2.3511	95.0662
2.3447	95.0388
2.3384	94.9216
2.3321	95.0173
2.3258	94.8513
2.3195	95.0564
2.3133	94.9548
2.3071	94.9021
2.301	94.7654
2.2949	94.8201
2.2888	94.7908
2.2828	94.8513
2.2767	94.5173
2.2708	94.5544
2.2648	94.7751
2.2589	94.6423
2.253	94.783
2.2471	94.6013
2.2413	94.6736
2.2355	94.238
2.2297	94.5876
2.224	94.3826
2.2183	94.3904
2.2126	94.2966
2.207	94.3982
2.2013	94.2595
2.1957	94.4138
2.1902	94.4861
2.1846	94.3591
2.1791	94.2029
2.1736	94.7146
2.1682	94.3552
2.1628	94.363
2.1574	94.1677
2.152	93.9959
2.1466	93.9373
2.1413	93.781
2.136	94.4919
2.1308	93.8787
2.1255	94.0271
2.1203	94.1248
2.1151	94.0974
2.11	93.8357
2.1048	94.1052
2.0997	94.2966
2.0946	94.2185
2.0895	93.9685
2.0845	94.0974
2.0795	93.9724
