Name: Dolomite CaMg(CO_3)_2
Type: Mineral
Class: Carbonate
Subclass: None
Particle Size: None
Sample No.: C-5A
Owner: JPL
Wavelength Range: VSWIR
Origin: USA, Colorado.
Description: Red banded dolomite.Particle size was 0-45um.Collected by:  Ward's Original ASTER Spectral Library name was jpl.perkin.mineral.carbonate.none.fine.c05a.spectrum.txt
Measurement: Hemispherical reflectance
X Units: Wavelength (micrometers)
Y Units: Reflectance (percent)
wavelength	value
2.5	65.8646
2.494	66.3719
2.488	67.3968
2.482	68.1132
2.476	68.6535
2.47	69.2902
2.464	69.6537
2.458	69.9313
2.452	70.7152
2.446	71.4195
2.44	72.1717
2.434	72.9633
2.428	73.6722
2.422	74.2929
2.416	74.7745
2.41	75.2319
2.404	75.4862
2.398	75.7955
2.392	75.9574
2.386	76.2252
2.38	76.4578
2.374	76.7179
2.368	76.8918
2.362	76.934
2.356	76.802
2.35	76.2835
2.344	75.4972
2.338	74.4174
2.332	73.4512
2.326	72.6282
2.32	72.2437
2.314	72.3255
2.308	72.5305
2.302	72.9228
2.296	73.2676
2.29	73.6233
2.284	73.9369
2.278	74.2134
2.272	74.4548
2.266	74.7175
2.26	75.1007
2.254	75.6021
2.248	76.0762
2.242	76.4493
2.236	76.8058
2.23	77.0914
2.224	77.1226
2.218	77.2195
2.212	77.2646
2.206	77.3548
2.2	77.8227
2.194	78.0256
2.188	78.2834
2.182	78.4738
2.176	78.6279
2.17	78.8196
2.164	78.9236
2.158	79.0792
2.152	79.1121
2.146	79.2092
2.14	79.1821
2.134	79.1235
2.128	78.9963
2.122	78.8548
2.116	78.6849
2.11	78.4376
2.104	78.2582
2.098	78.1589
2.092	78.1886
2.086	78.2162
2.08	78.2405
2.074	78.3618
2.068	78.3656
2.062	78.473
2.056	78.5347
2.05	78.5568
2.044	78.5904
2.038	78.595
2.032	78.5471
2.026	78.5072
2.02	78.4642
2.014	78.3747
2.008	78.2746
2.002	78.1627
1.996	77.9898
1.99	77.7493
1.984	77.466
1.978	77.3622
1.972	77.3434
1.966	77.2767
1.96	77.2475
1.954	77.1774
1.948	77.1003
1.942	77.084
1.936	77.0909
1.93	77.1564
1.924	77.2115
1.918	77.2379
1.912	77.3699
1.906	77.6619
1.9	77.8818
1.894	78.2252
1.888	78.5922
1.882	78.7149
1.876	78.779
1.87	78.7762
1.864	78.7906
1.858	78.7476
1.852	78.8092
1.846	78.8854
1.84	78.974
1.834	79.0029
1.828	78.946
1.822	79.0192
1.816	79.0151
1.81	79.0905
1.804	79.0729
1.798	79.0728
1.792	79.0787
1.786	78.9491
1.78	78.9842
1.774	78.997
1.768	78.916
1.762	78.9238
1.756	78.8764
1.75	78.8581
1.744	78.8353
1.738	78.9111
1.732	78.9642
1.726	78.9174
1.72	78.8761
1.714	78.9326
1.708	78.8812
1.702	78.9034
1.696	78.7871
1.69	78.7764
1.684	78.82
1.678	78.8213
1.672	78.8008
1.666	78.7673
1.66	78.845
1.654	78.7844
1.648	78.698
1.642	78.7678
1.636	78.6816
1.63	78.766
1.624	78.6639
1.618	78.6833
1.612	78.7269
1.606	78.6306
1.6	78.6631
1.594	78.6764
1.588	78.6282
1.582	78.6235
1.576	78.5645
1.57	78.5656
1.564	78.5209
1.558	78.5081
1.552	78.4269
1.546	78.4368
1.54	78.4826
1.534	78.4058
1.528	78.3838
1.522	78.3296
1.516	78.2529
1.51	78.2472
1.504	78.242
1.498	78.2479
1.492	78.1584
1.486	78.152
1.48	78.1463
1.474	78.0907
1.468	78.0401
1.462	78.0081
1.456	77.9748
1.45	77.9584
1.444	77.9361
1.438	77.8206
1.432	77.8405
1.426	77.8706
1.42	77.7311
1.414	77.5491
1.408	77.7257
1.402	77.8617
1.396	77.9441
1.39	78.0258
1.384	78.0316
1.378	78.1139
1.372	78.1117
1.366	78.1135
1.36	78.0639
1.354	78.1717
1.348	78.1327
1.342	78.1818
1.336	78.0763
1.33	78.1338
1.324	78.0394
1.318	78.0756
1.312	78.1376
1.306	78.0877
1.3	78.0914
1.294	78.0438
1.288	78.091
1.282	78.061
1.276	78.0244
1.27	78.0197
1.264	77.9918
1.258	78.094
1.252	78.015
1.246	78.0372
1.24	78.0175
1.234	78.0264
1.228	78.0279
1.222	78.0571
1.216	78.0192
1.21	78.0077
1.204	77.9909
1.198	77.9907
1.192	77.9586
1.186	77.925
1.18	77.9596
1.174	77.9629
1.168	77.9694
1.162	77.933
1.156	77.9113
1.15	77.9337
1.144	77.8922
1.138	77.8429
1.132	77.873
1.126	77.7731
1.12	77.8143
1.114	77.8044
1.108	77.7021
1.102	77.7429
1.096	77.5547
1.09	77.6349
1.084	77.6066
1.078	77.4956
1.072	77.4389
1.066	77.4318
1.06	77.403
1.054	77.2679
1.048	77.2323
1.042	77.0631
1.036	77.1175
1.03	76.8883
1.024	76.8682
1.018	76.7811
1.012	76.6216
1.006	76.5972
1	76.3851
0.994	76.1755
0.988	76.0637
0.982	75.8437
0.976	75.6192
0.97	75.4645
0.964	75.1629
0.958	75.0147
0.952	74.7497
0.946	74.5132
0.94	74.3147
0.934	73.916
0.928	73.692
0.922	73.4013
0.916	73.1768
0.91	72.8908
0.904	72.6809
0.898	72.471
0.892	72.2045
0.886	72.0516
0.88	71.8282
0.874	71.7226
0.868	71.4641
0.862	71.3487
0.856	71.2235
0.85	71.1272
0.844	71.1075
0.838	71.0837
0.832	71.0611
0.826	71.0548
0.82	71.0008
0.814	71.028
0.808	70.9741
0.802	70.9864
0.796	70.8831
0.79	70.8272
0.784	70.7636
0.778	70.6797
0.772	70.5356
0.766	70.4125
0.76	70.2979
0.754	70.113
0.748	69.8748
0.742	69.6193
0.736	69.3012
0.73	69.0022
0.724	68.6098
0.718	68.1845
0.712	67.7135
0.706	67.254
0.7	66.7437
0.694	66.233
0.688	65.6801
0.682	65.1614
0.676	64.6178
0.67	64.0406
0.664	63.5169
0.658	62.9585
0.652	62.4187
0.646	61.8773
0.64	61.3297
0.634	60.7792
0.628	60.1703
0.622	59.5208
0.616	58.7674
0.61	57.9068
0.604	56.8234
0.598	55.5032
0.592	53.8681
0.586	51.8421
0.58	49.4969
0.574	46.9142
0.568	44.2713
0.562	41.7638
0.556	39.4216
0.55	37.5841
0.544	36.1351
0.538	35.0465
0.532	34.2439
0.526	33.619
0.52	33.1129
0.514	32.6906
0.508	32.3012
0.502	31.8512
0.496	31.3794
0.49	30.8741
0.484	30.3784
0.478	30.0922
0.472	29.7782
0.466	29.41
0.46	29.0097
0.454	28.5619
0.448	28.0796
0.442	27.6006
0.436	27.1754
0.43	26.7785
0.424	26.4442
0.418	26.1607
0.412	25.9121
0.406	25.6925
0.4	25.4714
