Name: Anorthite CaAl2Si2O8
Type: Mineral
Class: Silicate
Subclass: Tectosilicate
Particle Size: Coarse
Sample No.: anorthite_1
Owner: JHU
Wavelength Range: TIR
Origin: Sample from Bruce Hemingway, USGS; synthesized by JamesWoodhead, Princeton University.
Description: The sample was a coarse white powder.  The sample appears pure under the microscope, with very fine (cryptocrystalline) texture.(Synthetic) (Framework silicates) (Feldspar Group)Particle size was 75-250 Micrometers. Original ASTER Spectral Library name was jhu.nicolet.mineral.silicate.tectosilicate.coarse.anorth1.spectrum.txt
Measurement: Bidirectional reflectance
X Units: Wavelength (micrometers)
Y Units: Reflectance (percent)
wavelength	value
25.0442	3.6616
24.3388	3.1196
23.6719	3.0395
23.0407	2.7036
22.4422	2.4634
21.8741	2.7349
21.334	2.855
20.8199	2.9097
20.33	2.626
19.8627	2.8393
19.4163	2.9788
18.9896	3.2263
18.5812	3.4665
18.19	3.2915
17.815	3.4678
17.4551	3.3725
17.1094	3.3184
16.7772	3.218
16.4576	3.1079
16.15	3.2966
15.8537	3.2778
15.568	2.4717
15.2925	1.9851
15.0265	2.1887
14.7697	2.1006
14.5214	1.9893
14.2814	1.9778
14.0492	2.04
13.8244	2.1912
13.6067	2.0837
13.3957	2.0762
13.1912	2.1333
12.9929	1.9927
12.8004	1.9265
12.6135	2.0403
12.432	2.1985
12.2557	2.2891
12.0843	2.3799
11.9176	2.4368
11.7555	2.4988
11.5977	2.6174
11.444	2.7937
11.2944	3.0754
11.1487	3.4226
11.0067	3.637
10.8682	3.8874
10.7332	4.1597
10.6015	4.2759
10.473	4.3213
10.3476	4.0027
10.2251	3.3513
10.1056	3.124
9.9887	2.957
9.8746	2.9097
9.763	3.0906
9.6539	3.0308
9.5472	2.7522
9.4429	2.4587
9.3408	2.3188
9.2409	2.3479
9.1431	2.4204
9.0474	2.5391
8.9536	2.5691
8.8618	2.6653
8.7718	2.9592
8.6837	3.3332
8.5973	3.54
8.5126	3.5691
8.4295	3.4907
8.3481	2.9497
8.2682	1.8833
8.1898	0.6418
8.1129	0.3303
8.0374	0.468
7.9634	0.5881
7.8906	0.6963
7.8192	0.7903
7.7491	0.8799
7.6802	0.9551
7.6126	1.0244
7.5461	1.0813
7.4807	1.1335
7.4165	1.1816
7.3534	1.2275
7.2914	1.283
7.2303	1.312
7.1703	1.3469
7.1113	1.3874
7.0533	1.4185
6.9962	1.4465
6.94	1.4751
6.8847	1.4829
6.8302	1.4929
6.7767	1.499
6.7239	1.5164
6.672	1.5181
6.6209	1.5271
6.5705	1.5373
6.5209	1.554
6.4721	1.5803
6.424	1.582
6.3766	1.5847
6.3299	1.5825
6.2838	1.5767
6.2385	1.5832
6.1937	1.5837
6.1496	1.5969
6.1062	1.6082
6.0633	1.6133
6.0211	1.624
5.9794	1.6753
5.9383	1.7239
5.8978	1.7964
5.8578	1.8833
5.8184	1.969
5.7794	2.0586
5.741	2.1372
5.7031	2.227
5.6657	2.2949
5.6288	2.3496
5.5924	2.3799
5.5564	2.3745
5.5209	2.3508
5.4859	2.3264
5.4513	2.3242
5.4171	2.3545
5.3833	2.4316
5.35	2.5227
5.3171	2.6096
5.2846	2.6968
5.2524	2.8044
5.2207	2.9199
5.1893	3.0481
5.1584	3.2014
5.1277	3.3586
5.0975	3.498
5.0676	3.6304
5.038	3.751
5.0088	3.9072
4.98	4.0561
4.9514	4.2204
4.9232	4.375
4.8953	4.5334
4.8678	4.685
4.8405	4.8359
4.8135	4.9773
4.7868	5.1001
4.7605	5.2139
4.7344	5.3511
4.7086	5.5036
4.6831	5.6692
4.6578	5.8491
4.6328	6.0683
4.6081	6.3218
4.5837	6.5732
4.5595	6.7983
4.5356	6.9997
4.5119	7.1728
4.4884	7.3098
4.4652	7.4101
4.4423	7.4509
4.4196	7.4888
4.3971	7.5378
4.3748	7.6411
4.3528	7.7861
4.331	7.9741
4.3094	8.2151
4.288	8.477
4.2668	8.7275
4.2458	8.9297
4.2251	9.0801
4.2045	9.2109
4.1841	9.3098
4.164	9.3801
4.144	9.4316
4.1242	9.4824
4.1046	9.5385
4.0852	9.5808
4.066	9.6267
4.047	9.6572
4.0281	9.7016
4.0094	9.7246
3.9909	9.7436
3.9725	9.7717
3.9544	9.8044
3.9363	9.8347
3.9185	9.8725
3.9008	9.9065
3.8833	9.9216
3.8659	9.9414
3.8487	9.9626
3.8316	9.9917
3.8147	10.0051
3.7979	10.0361
3.7813	10.0564
3.7648	10.0537
3.7485	10.0642
3.7323	10.0527
3.7162	10.0483
3.7003	10.039
3.6845	10.0442
3.6689	10.0405
3.6534	10.0517
3.638	10.06
3.6227	10.0388
3.6076	10.0483
3.5926	10.0407
3.5777	10.0464
3.563	10.031
3.5484	10.0466
3.5338	10.032
3.5195	10.0368
3.5052	9.9924
3.491	10.0039
3.477	10.008
3.463	10.0227
3.4492	9.9948
3.4355	9.9848
3.4219	9.9204
3.4084	9.9323
3.395	9.9741
3.3817	9.9624
3.3685	9.9804
3.3554	10.0056
3.3425	10.0156
3.3296	10.0129
3.3168	10.0073
3.3041	10.0071
3.2915	10.0017
3.279	9.9729
3.2666	9.9565
3.2543	9.9402
3.2421	9.9409
3.23	9.9177
3.218	9.8933
3.206	9.875
3.1942	9.8486
3.1824	9.8327
3.1707	9.8117
3.1591	9.7998
3.1476	9.7805
3.1362	9.7573
3.1249	9.751
3.1136	9.748
3.1024	9.7373
3.0913	9.7241
3.0803	9.7341
3.0694	9.728
3.0585	9.7212
3.0477	9.7243
3.037	9.7346
3.0264	9.7312
3.0158	9.7248
3.0053	9.7236
2.9949	9.7356
2.9845	9.7676
2.9743	9.7546
2.9641	9.7614
2.9539	9.7744
2.9439	9.781
2.9339	9.801
2.9239	9.8171
2.9141	9.8147
2.9043	9.8249
2.8946	9.8615
2.8849	9.8669
2.8753	9.8493
2.8658	9.8593
2.8563	9.8596
2.8469	9.8957
2.8375	9.8913
2.8282	9.914
2.819	9.9231
2.8098	9.9414
2.8007	9.9565
2.7917	9.9741
2.7827	9.9924
2.7738	10.0188
2.7649	10.0229
2.7561	10.0219
2.7473	10.0818
2.7386	10.0893
2.7299	10.1115
2.7213	10.0459
2.7128	10.2024
2.7043	10.2339
2.6959	10.2739
2.6875	10.3183
2.6791	10.3135
2.6709	10.28
2.6626	10.3676
2.6545	10.3672
2.6463	10.3347
2.6382	10.3398
2.6302	10.3242
2.6222	10.3144
2.6143	10.2993
2.6064	10.2851
2.5986	10.278
2.5908	10.3054
2.583	10.2636
2.5753	10.27
2.5677	10.2741
2.5601	10.2453
2.5525	10.2422
2.545	10.2458
2.5375	10.2187
2.5301	10.1972
2.5227	10.155
2.5154	10.2038
2.5081	10.178
2.5008	10.154
2.4936	10.1565
2.4864	10.146
2.4793	10.1548
2.4722	10.101
2.4651	10.081
2.4581	10.0998
2.4511	10.0918
2.4442	10.0317
2.4373	10.0317
2.4305	10.0276
2.4236	9.9975
2.4169	10.0473
2.4101	9.9975
2.4034	9.9961
2.3967	9.9897
2.3901	9.9636
2.3835	10.0017
2.377	9.9741
2.3704	9.958
2.364	9.9497
2.3575	9.9294
2.3511	9.9404
2.3447	9.9106
2.3384	9.8979
2.3321	9.8423
2.3258	9.8696
2.3195	9.8652
2.3133	9.8769
2.3071	9.8374
2.301	9.8503
2.2949	9.8418
2.2888	9.8559
2.2828	9.8232
2.2767	9.8154
2.2708	9.803
2.2648	9.7937
2.2589	9.8052
2.253	9.7759
2.2471	9.8225
2.2413	9.7627
2.2355	9.7737
2.2297	9.7944
2.224	9.77
2.2183	9.771
2.2126	9.7651
2.207	9.7724
2.2013	9.7856
2.1957	9.7397
2.1902	9.7436
2.1846	9.7519
2.1791	9.7324
2.1736	9.7453
2.1682	9.7851
2.1628	9.7793
2.1574	9.7451
2.152	9.7383
2.1466	9.7522
2.1413	9.7593
2.136	9.758
2.1308	9.8156
2.1255	9.7766
2.1203	9.7846
2.1151	9.7793
2.11	9.7668
2.1048	9.7861
2.0997	9.8371
2.0946	9.8244
2.0895	9.8589
2.0845	9.7949
2.0795	9.8108
