Name: Phlogopite KMg3Si3Al010(F,OH)2
Type: Mineral
Class: Silicate
Subclass: Phyllosilicate
Particle Size: Fine
Sample No.: phlogop_1
Owner: JHU
Wavelength Range: TIR
Origin: Burgess, Ontario, Canada via the Smithsonian (sample no.NMNH 124258, obtained from Bruce Hemingway, USGS)
Description: The hand sample consisted of rectangular sheets displaying the typical coppery luster of phlogopite.  Microscopic examination showed the sample to be pure.Particle size was Less than 2  Micrometers.(Sheet Silicates); (Mica Group) Original ASTER Spectral Library name was jhu.nicolet.mineral.silicate.phyllosilicate.powder.phlogo1.spectrum.txt
Measurement: Transmission
X Units: Wavelength (micrometers)
Y Units: Transmittance (percent)
wavelength	value
25.0442	59.8592
24.3388	55.535
23.6719	50.371
23.0407	43.3222
22.4422	37.4315
21.8741	38.119
21.334	39.0331
20.8199	43.6171
20.33	43.1737
19.8627	46.7352
19.4163	47.1835
18.9896	45.5751
18.5812	50.9628
18.19	60.2039
17.815	67.6307
17.4551	70.4158
17.1094	69.369
16.7772	63.535
16.4576	71.2625
16.15	73.9451
15.8537	74.7156
15.568	73.6639
15.2925	70.6004
15.0265	70.6297
14.7697	63.7733
14.5214	63.7772
14.2814	70.4559
14.0492	73.0858
13.8244	72.8631
13.6067	70.5662
13.3957	70.0081
13.1912	75.2171
12.9929	78.9358
12.8004	80.6599
12.6135	78.1995
12.432	72.24
12.2557	69.91
12.0843	75.9129
11.9176	80.3128
11.7555	80.8865
11.5977	80.221
11.444	77.8519
11.2944	73.9734
11.1487	68.5057
11.0067	63.0389
10.8682	57.8792
10.7332	51.326
10.6015	43.0468
10.473	34.0302
10.3476	29.9843
10.2251	31.914
10.1056	32.6025
9.9887	32.0121
9.8746	33.828
9.763	38.8847
9.6539	44.1591
9.5472	49.4178
9.4429	52.8675
9.3408	55.2713
9.2409	58.2699
9.1431	61.9085
9.0474	65.6629
8.9536	68.5799
8.8618	69.6639
8.7718	69.8445
8.6837	69.9925
8.5973	70.013
8.5126	67.2313
8.4295	64.4027
8.3481	59.7235
8.2682	60.5948
8.1898	64.7667
8.1129	69.8594
8.0374	74.8035
7.9634	78.1944
7.8906	80.9307
7.8192	83.1209
7.7491	84.4629
7.6802	85.1643
7.6126	85.749
7.5461	86.2598
7.4807	86.5652
7.4165	86.9024
7.3534	87.3057
7.2914	87.5987
7.2303	87.0254
7.1703	88.6843
7.1113	89.1521
7.0533	89.4815
6.9962	89.8037
6.94	90.1716
6.8847	90.2859
6.8302	90.2312
6.7767	90.5449
6.7239	90.791
6.672	90.9006
6.6209	91.0847
6.5705	91.1487
6.5209	91.3543
6.4721	91.1389
6.424	91.2434
6.3766	91.2442
6.3299	90.9541
6.2838	90.5945
6.2385	89.5379
6.1937	88.366
6.1496	86.6026
6.1062	86.4834
6.0633	88.2354
6.0211	90.4844
5.9794	92.2996
5.9383	92.53
5.8978	92.5584
5.8578	92.8001
5.8184	93.1126
5.7794	93.2568
5.741	93.4238
5.7031	93.5496
5.6657	93.7031
5.6288	93.7595
5.5924	93.8626
5.5564	93.9514
5.5209	94.0088
5.4859	94.0769
5.4513	94.1804
5.4171	94.3047
5.3833	94.2605
5.35	94.4187
5.3171	94.4597
5.2846	94.5002
5.2524	94.4551
5.2207	94.4053
5.1893	94.3025
5.1584	94.2793
5.1277	94.2188
5.0975	94.1912
5.0676	94.2168
5.038	94.2214
5.0088	94.2354
4.98	94.2493
4.9514	94.2791
4.9232	94.2478
4.8953	94.2376
4.8678	94.2791
4.8405	94.2844
4.8135	94.3635
4.7868	94.3855
4.7605	94.4163
4.7344	94.4705
4.7086	94.5276
4.6831	94.5535
4.6578	94.6121
4.6328	94.6609
4.6081	94.8245
4.5837	94.6877
4.5595	94.7151
4.5356	94.6834
4.5119	94.7166
4.4884	94.696
4.4652	94.6643
4.4423	94.698
4.4196	94.6995
4.3971	94.7034
4.3748	94.7087
4.3528	94.6863
4.331	94.6931
4.3094	94.6526
4.288	94.6907
4.2668	94.6726
4.2458	94.6667
4.2251	94.6331
4.2045	94.5994
4.1841	94.6917
4.164	94.6003
4.144	94.5642
4.1242	94.5769
4.1046	94.5667
4.0852	94.5164
4.066	94.4851
4.047	94.4177
4.0281	94.4158
4.0094	94.3669
3.9909	94.3147
3.9725	94.2835
3.9544	94.2336
3.9363	94.2483
3.9185	94.2463
3.9008	94.1843
3.8833	94.1199
3.8659	94.0173
3.8487	94.0686
3.8316	93.9646
3.8147	93.8962
3.7979	93.9612
3.7813	93.8401
3.7648	93.8123
3.7485	93.6663
3.7323	93.6697
3.7162	93.6199
3.7003	93.5554
3.6845	93.5178
3.6689	93.4456
3.6534	93.4299
3.638	93.3679
3.6227	93.2361
3.6076	93.2195
3.5926	93.1716
3.5777	93.137
3.563	92.9963
3.5484	92.8914
3.5338	92.7659
3.5195	92.5784
3.5052	92.2185
3.491	92.3045
3.477	92.2097
3.463	92.1155
3.4492	92.0388
3.4355	91.6804
3.4219	91.4295
3.4084	91.4461
3.395	91.6292
3.3817	91.6936
3.3685	91.8323
3.3554	91.9202
3.3425	91.9002
3.3296	91.8259
3.3168	91.7576
3.3041	91.7459
3.2915	91.6018
3.279	91.5003
3.2666	91.4099
3.2543	91.2478
3.2421	91.1702
3.23	91.0588
3.218	90.908
3.206	90.7478
3.1942	90.4412
3.1824	90.3025
3.1707	90.0339
3.1591	89.7088
3.1476	89.3445
3.1362	89.0095
3.1249	88.5896
3.1136	88.1863
3.1024	87.6062
3.0913	87.0115
3.0803	86.451
3.0694	85.989
3.0585	85.5115
3.0477	85.2146
3.037	84.739
3.0264	84.1746
3.0158	83.3582
3.0053	82.5213
2.9949	81.3015
2.9845	80.0516
2.9743	78.5076
2.9641	76.8953
2.9539	75.3768
2.9439	74.3094
2.9339	73.4149
2.9239	72.74
2.9141	72.4647
2.9043	72.7928
2.8946	73.2518
2.8849	73.9744
2.8753	74.4451
2.8658	75.2391
2.8563	76.16
2.8469	77.1834
2.8375	78.3055
2.8282	79.5857
2.819	80.9197
2.8098	82.4529
2.8007	83.7596
2.7917	85.1033
2.7827	85.8963
2.7738	87.7361
2.7649	89.3943
2.7561	90.406
2.7473	91.3093
2.7386	91.3318
2.7299	91.2966
2.7213	91.4255
2.7128	91.5388
2.7043	90.1609
2.6959	90.2341
2.6875	91.1755
2.6791	92.7703
2.6709	93.0955
2.6626	93.0662
2.6545	93.1365
2.6463	92.9412
2.6382	92.9783
2.6302	92.9412
2.6222	92.8054
2.6143	92.9461
2.6064	92.7771
2.5986	92.8669
2.5908	92.8093
2.583	92.7576
2.5753	92.6921
2.5677	92.6306
2.5601	92.6834
2.5525	92.5134
2.545	92.5701
2.5375	92.7146
2.5301	92.5427
2.5227	92.2986
2.5154	92.3513
2.5081	92.5271
2.5008	92.4959
2.4936	92.4548
2.4864	92.4705
2.4793	92.2498
2.4722	92.4236
2.4651	92.4099
2.4581	92.3045
2.4511	92.3279
2.4442	92.1443
2.4373	92.2439
2.4305	92.1814
2.4236	92.0232
2.4169	92.3298
2.4101	92.1658
2.4034	92.0896
2.3967	92.0115
2.3901	91.9158
2.3835	91.9002
2.377	91.9314
2.3704	92.0115
2.364	92.1892
2.3575	91.8689
2.3511	91.9568
2.3447	91.8377
2.3384	91.8865
2.3321	91.5115
2.3258	91.5466
2.3195	91.8435
2.3133	91.617
2.3071	91.5252
2.301	91.613
2.2949	91.7752
2.2888	91.6951
2.2828	91.6345
2.2767	91.6111
2.2708	91.4138
2.2648	91.7127
2.2589	91.5427
2.253	91.6423
2.2471	91.658
2.2413	91.3826
2.2355	91.4939
2.2297	91.617
2.224	91.4548
2.2183	91.5701
2.2126	91.2205
2.207	91.3513
2.2013	91.281
2.1957	91.4295
2.1902	91.492
2.1846	91.2263
2.1791	91.0564
2.1736	91.406
2.1682	91.4529
2.1628	91.1638
2.1574	91.0623
2.152	91.0505
2.1466	90.8943
2.1413	90.8005
2.136	91.281
2.1308	91.1638
2.1255	90.9646
2.1203	90.988
2.1151	91.113
2.11	90.7029
2.1048	91.0037
2.0997	91.3162
2.0946	91.3513
2.0895	91.156
2.0845	91.0154
2.0795	90.9685
