Name: Calcite CaCO3
Type: Mineral
Class: Carbonate
Subclass: None
Particle Size: Coarse
Sample No.: calcite_1
Owner: JHU
Wavelength Range: TIR
Origin: Hunt and Salisbury Collection #194B (purchased from Ward'sNatural Science Establishment); Sample from Mexico.
Description: The sample consisted of transparent euhedral crystals.  The largest was about 2 cm x 2 cm.  This was obviously pure optical quality calcite. Particle size was 74-250 Micrometers. Original ASTER Spectral Library name was jhu.nicolet.mineral.carbonate.none.coarse.calcit1.spectrum.txt
Measurement: Bidirectional reflectance
X Units: Wavelength (micrometers)
Y Units: Reflectance (percent)
wavelength	value
25.0442	8.5097
24.3388	5.2754
23.6719	3.0019
23.0407	2.458
22.4422	1.8184
21.8741	1.7153
21.334	1.7314
20.8199	1.834
20.33	1.8977
19.8627	2.0503
19.4163	2.1694
18.9896	2.3757
18.5812	2.5693
18.19	2.8171
17.815	3.0967
17.4551	3.0679
17.1094	3.03
16.7772	3.2402
16.4576	3.7808
16.15	4.2563
15.8537	4.6225
15.568	5.1963
15.2925	5.7344
15.0265	6.384
14.7697	6.7109
14.5214	6.2051
14.2814	4.2305
14.0492	3.5139
13.8244	3.5788
13.6067	6.3423
13.3957	7.5788
13.1912	7.0408
12.9929	5.5478
12.8004	5.1294
12.6135	5.4829
12.432	5.7712
12.2557	5.8276
12.0843	6.0876
11.9176	5.54
11.7555	3.9573
11.5977	4.082
11.444	4.8035
11.2944	9.8103
11.1487	7.0205
11.0067	6.0466
10.8682	6.0425
10.7332	4.9692
10.6015	4.8127
10.473	5.0227
10.3476	5.4836
10.2251	4.813
10.1056	4.6619
9.9887	4.251
9.8746	3.9412
9.763	4.1865
9.6539	5.03
9.5472	5.2512
9.4429	5.3982
9.3408	4.9995
9.2409	5.4336
9.1431	5.3616
9.0474	5.2488
8.9536	5.0776
8.8618	4.7488
8.7718	4.4141
8.6837	3.748
8.5973	3.2451
8.5126	3.2353
8.4295	3.2886
8.3481	3.4333
8.2682	3.5137
8.1898	3.564
8.1129	3.5129
8.0374	3.4902
7.9634	3.5483
7.8906	3.4978
7.8192	3.552
7.7491	3.5708
7.6802	3.5527
7.6126	3.5539
7.5461	3.6577
7.4807	3.7869
7.4165	3.9507
7.3534	4.1953
7.2914	4.4951
7.2303	4.9953
7.1703	5.9565
7.1113	7.2007
7.0533	8.4416
6.9962	8.781
6.94	9.0005
6.8847	9.3669
6.8302	9.7817
6.7767	10.3183
6.7239	11.2817
6.672	12.7361
6.6209	13.8606
6.5705	15.0676
6.5209	15.7155
6.4721	15.4838
6.424	11.4699
6.3766	9.332
6.3299	7.1306
6.2838	5.6152
6.2385	4.1999
6.1937	2.5549
6.1496	1.3164
6.1062	0.9143
6.0633	0.9636
6.0211	1.1235
5.9794	1.2795
5.9383	1.4216
5.8978	1.5686
5.8578	1.5757
5.8184	1.5105
5.7794	1.4575
5.741	1.489
5.7031	1.6616
5.6657	1.9485
5.6288	2.0894
5.5924	1.387
5.5564	1.0749
5.5209	2.2283
5.4859	3.5278
5.4513	4.6997
5.4171	5.925
5.3833	6.9421
5.35	7.7798
5.3171	8.5986
5.2846	9.2463
5.2524	9.7129
5.2207	10.0818
5.1893	10.4533
5.1584	10.7033
5.1277	10.8698
5.0975	8.1867
5.0676	11.3235
5.038	11.4074
5.0088	11.3598
4.98	11.2488
4.9514	11.1274
4.9232	11.1259
4.8953	11.1982
4.8678	11.2839
4.8405	11.3613
4.8135	11.4201
4.7868	11.4028
4.7605	10.9682
4.7344	10.1352
4.7086	7.1843
4.6831	5.3174
4.6578	5.3857
4.6328	7.4824
4.6081	8.8078
4.5837	9.0764
4.5595	9.1452
4.5356	9.1555
4.5119	9.2102
4.4884	9.612
4.4652	10.3696
4.4423	10.9084
4.4196	11.3896
4.3971	11.6506
4.3748	11.7883
4.3528	11.1906
4.331	11.0027
4.3094	10.9702
4.288	11.1936
4.2668	11.0974
4.2458	10.9026
4.2251	10.6555
4.2045	10.4409
4.1841	10.062
4.164	9.6357
4.144	9.0261
4.1242	8.1794
4.1046	7.3013
4.0852	6.4709
4.066	5.4145
4.047	4.0134
4.0281	2.6001
4.0094	1.9285
3.9909	1.6277
3.9725	1.5681
3.9544	1.6174
3.9363	1.9402
3.9185	2.0207
3.9008	2.0859
3.8833	2.1294
3.8659	2.1611
3.8487	2.2165
3.8316	2.5727
3.8147	3.4651
3.7979	5.5303
3.7813	8.1675
3.7648	9.2268
3.7485	9.6999
3.7323	10.3042
3.7162	10.6455
3.7003	10.8293
3.6845	10.907
3.6689	10.8481
3.6534	10.7048
3.638	10.4836
3.6227	10.1919
3.6076	9.7417
3.5926	8.8979
3.5777	7.2014
3.563	7.0117
3.5484	6.4416
3.5338	4.6474
3.5195	2.5256
3.5052	2.0493
3.491	1.8474
3.477	1.748
3.463	2.1826
3.4492	2.3767
3.4355	2.4158
3.4219	2.428
3.4084	2.386
3.395	2.3171
3.3817	2.2456
3.3685	2.2051
3.3554	1.9604
3.3425	2.5351
3.3296	5.1152
3.3168	6.6262
3.3041	7.5884
3.2915	8.3601
3.279	9.0202
3.2666	9.6059
3.2543	10.0681
3.2421	10.4297
3.23	10.8296
3.218	11.2065
3.206	11.5434
3.1942	11.7666
3.1824	11.8684
3.1707	11.6438
3.1591	10.6496
3.1476	10.435
3.1362	10.885
3.1249	11.0503
3.1136	10.185
3.1024	10.3752
3.0913	11.1755
3.0803	12.0063
3.0694	12.3852
3.0585	12.7111
3.0477	13.1281
3.037	13.4653
3.0264	13.7602
3.0158	14.0168
3.0053	14.2495
2.9949	14.4604
2.9845	14.593
2.9743	14.6496
2.9641	14.6655
2.9539	14.6545
2.9439	14.7009
2.9339	14.7397
2.9239	14.7575
2.9141	14.7641
2.9043	14.7685
2.8946	14.7685
2.8849	14.7529
2.8753	14.6811
2.8658	14.6208
2.8563	14.5581
2.8469	14.4104
2.8375	14.1543
2.8282	13.643
2.819	13.154
2.8098	12.4138
2.8007	11.4448
2.7917	9.7759
2.7827	10.1118
2.7738	11.5332
2.7649	12.7099
2.7561	13.1569
2.7473	13.3423
2.7386	13.4751
2.7299	13.593
2.7213	13.8203
2.7128	14.0556
2.7043	14.4008
2.6959	14.7124
2.6875	14.8979
2.6791	15.0146
2.6709	15.0727
2.6626	15.1128
2.6545	15.1235
2.6463	15.1052
2.6382	15.0786
2.6302	15.0854
2.6222	14.9985
2.6143	14.9253
2.6064	14.852
2.5986	14.7202
2.5908	14.5183
2.583	14.2387
2.5753	14.0673
2.5677	13.6528
2.5601	12.8471
2.5525	11.436
2.545	9.9033
2.5375	9.1494
2.5301	9.5429
2.5227	10.3093
2.5154	10.8362
2.5081	11.0471
2.5008	11.1758
2.4936	11.3396
2.4864	11.5083
2.4793	11.8921
2.4722	12.4094
2.4651	12.916
2.4581	13.3188
2.4511	13.6362
2.4442	13.8296
2.4373	14.0422
2.4305	14.2065
2.4236	14.3664
2.4169	14.4956
2.4101	14.5761
2.4034	14.4541
2.3967	14.5166
2.3901	14.5344
2.3835	14.4836
2.377	14.3891
2.3704	14.1379
2.364	13.6162
2.3575	12.8076
2.3511	12.0654
2.3447	11.4975
2.3384	11.3818
2.3321	11.6447
2.3258	12.0708
2.3195	12.3713
2.3133	12.5832
2.3071	12.7141
2.301	12.7756
2.2949	12.9389
2.2888	13.0901
2.2828	13.2959
2.2767	13.6113
2.2708	13.8449
2.2648	14.0166
2.2589	14.123
2.253	14.3027
2.2471	14.4023
2.2413	14.469
2.2355	14.6074
2.2297	14.6672
2.224	14.7131
2.2183	14.8078
2.2126	14.8794
2.207	14.8867
2.2013	14.8911
2.1957	14.9443
2.1902	14.9648
2.1846	14.9536
2.1791	14.9301
2.1736	14.9189
2.1682	14.9311
2.1628	14.8891
2.1574	14.8227
2.152	14.8364
2.1466	14.873
2.1413	15.0888
2.136	15.0874
2.1308	15.1357
2.1255	15.2231
2.1203	15.2426
2.1151	15.2461
2.11	15.3066
2.1048	15.331
2.0997	15.372
2.0946	15.5019
2.0895	15.4961
2.0845	15.4301
2.0795	15.5044
