Name: Dickite Al_2Si_2O_5(OH)_4
Type: Mineral
Class: Silicate
Subclass: Phyllosilicate
Particle Size: Fine
Sample No.: PS-3A
Owner: JPL
Wavelength Range: TIR
Origin: Mexico, San Juanito
Description: Particle size was 0-45um.Collected by Ward's Original ASTER Spectral Library name was jpl.nicolet.mineral.silicate.phyllosilicate.fine.ps03a.spectrum.txt
Measurement: Hemispherical reflectance
X Units: Wavelength (micrometers)
Y Units: Reflectance (percent)
wavelength	value
15.3853	2.3219
15.1161	1.8232
14.8563	2.0622
14.6052	1.8088
14.3624	2.0027
14.1276	1.1903
13.9004	1.2349
13.6803	1.7877
13.4671	2.0505
13.2604	2.2333
13.06	2.6775
12.8656	3.6767
12.6769	2.6025
12.4936	1.7338
12.3155	4.6092
12.1425	8.2874
11.9742	9.8835
11.8106	10.7816
11.6513	10.4003
11.4963	9.2654
11.3454	7.3163
11.1983	5.2408
11.0551	3.6066
10.9154	3.4604
10.7793	2.4731
10.6465	2.3327
10.5169	2.3918
10.3904	2.9051
10.267	3.9983
10.1464	4.514
10.0287	5.6973
9.9136	6.2432
9.8012	5.4785
9.6913	5.5178
9.5838	10.476
9.4787	11.6805
9.3758	11.3619
9.2752	10.0468
9.1767	8.283
9.0803	4.5765
8.9858	2.7746
8.8934	6.8085
8.8028	9.2393
8.714	8.2837
8.627	6.9577
8.5417	5.3656
8.4581	3.9389
8.3761	2.1959
8.2957	1.1826
8.2169	0.8603
8.1395	0.5375
8.0635	0.6403
7.989	0.8764
7.9158	1.3414
7.8439	1.9303
7.7734	2.8998
7.7041	3.6095
7.636	4.5113
7.5691	5.7768
7.5034	7.0271
7.4388	8.1653
7.3753	9.1551
7.3129	9.9809
7.2515	11.3793
7.1912	12.6317
7.1318	14.0724
7.0734	15.5254
7.016	17.1487
6.9595	18.5073
6.9039	19.4002
6.8492	19.7179
6.7953	20.0804
6.7423	21.1715
6.6901	22.0055
6.6387	23.3676
6.5881	23.7752
6.5382	24.6206
6.4892	25.7708
6.4408	25.9437
6.3931	27.1605
6.3462	28.8648
6.2999	29.521
6.2543	30.2256
6.2094	31.0854
6.1651	31.5759
6.1214	31.727
6.0784	32.178
6.0359	32.2155
5.994	32.0667
5.9527	31.2687
5.912	29.7982
5.8718	28.4395
5.8322	27.1975
5.7931	26.5188
5.7545	26.9523
5.7165	26.9652
5.6789	26.0863
5.6418	26.6832
5.6052	27.8912
5.5691	27.9165
5.5334	25.8823
5.4982	22.4908
5.4635	19.8834
5.4291	22.4188
5.3952	24.3822
5.3618	25.9251
5.3287	26.9872
5.2961	27.9948
5.2638	27.7048
5.2319	26.4453
5.2004	24.9926
5.1693	24.3469
5.1386	24.715
5.1082	24.782
5.0782	25.9734
5.0485	29.1367
5.0192	33.1588
4.9902	36.9868
4.9616	40.6295
4.9332	43.2312
4.9052	45.1255
4.8776	46.5847
4.8502	48.5905
4.8231	50.0086
4.7963	50.7575
4.7699	51.7237
4.7437	52.9306
4.7178	53.3663
4.6922	53.2811
4.6668	53.3011
4.6418	54.6069
4.617	57.0924
4.5924	58.9324
4.5681	60.2597
4.5441	60.8255
4.5203	60.5322
4.4968	60.958
4.4735	62.2266
4.4505	63.0448
4.4277	63.3297
4.4051	63.3519
4.3828	63.4494
4.3607	63.4034
4.3388	63.1697
4.3171	62.7141
4.2956	62.2233
4.2744	61.551
4.2534	61.0094
4.2325	59.873
4.2119	59.7846
4.1915	60.1563
4.1712	60.8362
4.1512	61.8373
4.1313	62.5186
4.1117	63.0415
4.0922	63.9684
4.0729	65.447
4.0538	67.1689
4.0349	68.701
4.0161	69.9166
3.9976	70.7653
3.9792	71.3677
3.9609	71.7136
3.9428	71.7264
3.9249	71.5723
3.9072	71.5855
3.8896	71.2898
3.8722	71.0443
3.8549	70.7579
3.8378	70.3453
3.8208	69.8583
3.804	69.2699
3.7873	68.6108
3.7708	68.1747
3.7544	67.6107
3.7382	64.738
3.7221	65.8205
3.7061	65.7126
3.6903	63.9423
3.6746	64.4653
3.659	63.9894
3.6436	63.9295
3.6283	63.4925
3.6131	62.8779
3.5981	61.9818
3.5832	60.9873
3.5684	59.8001
3.5537	58.5722
3.5391	57.5576
3.5247	56.4024
3.5104	54.094
3.4962	53.3293
3.4821	52.2885
3.4681	50.8504
3.4543	49.2688
3.4405	47.4841
3.4269	44.9125
3.4133	43.349
3.3999	42.2146
3.3866	40.6341
3.3733	38.8646
3.3602	37.3031
3.3472	35.8683
3.3343	34.6674
3.3215	33.667
3.3088	33.0836
3.2961	32.6923
3.2836	32.7182
3.2712	32.992
3.2588	33.8362
3.2466	34.6562
3.2345	35.7442
3.2224	37.094
3.2104	38.0171
3.1985	39.2928
3.1867	40.1975
3.175	41.3025
3.1634	42.1979
3.1519	43.0645
3.1404	43.9941
3.129	44.527
3.1178	44.9396
3.1065	45.3589
3.0954	45.3485
3.0844	46.1281
3.0734	46.6818
3.0625	46.9237
3.0517	46.9023
3.041	46.5164
3.0303	46.0117
3.0197	45.5093
3.0092	45.2089
2.9987	43.7179
2.9884	40.9385
2.9781	36.8725
2.9678	31.9982
2.9577	27.8315
2.9476	25.0526
2.9376	23.2889
2.9276	22.0534
2.9177	21.1436
2.9079	20.5321
2.8982	20.1689
2.8885	19.8939
2.8789	20.4274
2.8693	22.4246
2.8598	24.2981
2.8504	24.6405
2.841	24.7054
2.8317	24.4537
2.8224	23.1738
2.8133	21.5666
2.8041	19.9342
2.7951	17.4064
2.786	14.5743
2.7771	9.6317
2.7682	4.2228
2.7594	1.9337
2.7506	2.1559
2.7418	3.7384
2.7332	3.543
2.7246	6.2834
2.716	5.8227
2.7075	3.2768
2.699	2.2156
2.6906	5.247
2.6823	12.4267
2.674	18.8087
2.6657	23.8001
2.6575	26.153
2.6494	27.8284
2.6413	29.0143
2.6332	30.2726
2.6252	31.8152
2.6173	33.2209
2.6094	33.5662
2.6015	33.1393
2.5937	33.2152
2.5859	34.1321
2.5782	36.2517
2.5706	38.409
2.5629	42.1211
2.5554	45.6812
2.5478	47.3333
2.5403	46.9178
2.5329	47.2735
2.5255	47.1283
2.5181	47.8306
2.5108	49.6363
2.5035	51.1297
2.4963	52.0338
2.4891	51.705
2.482	52.8486
2.4749	54.4268
2.4678	55.4083
2.4608	56.1465
2.4538	56.2468
2.4468	56.2283
2.4399	56.0939
2.4331	57.4538
2.4262	59.1041
2.4194	59.8025
2.4127	59.9703
2.4059	59.9498
2.3993	58.775
2.3926	56.6458
2.386	55.4004
2.3795	55.6768
2.3729	58.1501
2.3664	60.5822
2.36	60.6031
2.3535	59.6782
2.3471	61.219
2.3408	63.2947
2.3345	64.7935
2.3282	64.9607
2.3219	65.2041
2.3157	65.2295
2.3095	64.8139
2.3034	64.9675
2.2972	65.9191
2.2911	68.0742
2.2851	70.0408
2.279	71.7612
2.2731	72.6864
2.2671	72.6976
2.2612	72.11
2.2553	72.12
2.2494	73.4312
2.2435	75.2357
2.2377	75.6748
2.232	74.9676
2.2262	72.9688
2.2205	68.4032
2.2148	63.2649
2.2091	53.7283
2.2035	49.9023
2.1979	59.6364
2.1923	62.1673
2.1868	57.299
2.1812	52.5541
2.1758	55.015
2.1703	58.432
2.1649	62.2604
2.1595	66.1785
2.1541	68.7306
2.1487	70.2414
2.1434	72.1511
2.1381	74.3168
2.1328	76.6301
2.1275	78.9046
2.1223	79.806
2.1171	79.6039
2.112	78.7093
2.1068	80.1572
2.1017	81.9425
2.0966	82.5039
2.0915	81.8391
2.0865	82.7191
2.0814	83.4513
2.0764	84.4922
2.0715	84.6891
2.0665	85.3617
2.0616	85.3708
2.0567	86.0231
2.0518	86.3794
2.0469	87.0537
2.0421	87.4405
2.0373	87.81
2.0325	88.1837
2.0277	88.6997
2.0229	88.606
2.0182	88.8799
2.0135	89.2195
2.0088	89.5615
2.0042	89.7952
