Name: Beryl Be3Al2Si6O18
Type: Mineral
Class: Silicate
Subclass: Cyclosilicate
Particle Size: Solid
Sample No.: beryl_1
Owner: JHU
Wavelength Range: TIR
Origin: Sample from Maine via Hunt and Salisbury Collection sample#180B (purchased from Ward's Natural Science Establishment).
Description: The hand sample was cut and polished along an unknown axis.  It was pale green and appeared pure.  Microscopic examination showed a small amount (2% or less) of very fine, low birefringent material in the sample.  The contaminating grains occasionally have rhombic or cubic shape.  These grains were unidentifiable. Sampled measured was polished surface. (Ring Silicates) Original ASTER Spectral Library name was jhu.nicolet.mineral.silicate.cyclosilicate.solid.beryl1.spectrum.txt
Measurement: Bidirectional reflectance
X Units: Wavelength (micrometers)
Y Units: Reflectance (percent)
wavelength	value
25.0442	24.9804
24.3388	28.2656
23.6719	38.5077
23.0407	57.7967
22.4422	62.91
21.8741	65.9422
21.334	65.4071
20.8199	45.7929
20.33	44.3436
19.8627	33.4355
19.4163	37.3207
18.9896	40.3671
18.5812	44.5438
18.19	40.7875
17.815	28.4887
17.4551	19.3115
17.1094	26.1445
16.7772	35.4945
16.4576	30.6879
16.15	14.2627
15.8537	18.8344
15.568	22.1162
15.2925	24.5605
15.0265	26.2802
14.7697	32.454
14.5214	36.331
14.2814	32.5424
14.0492	21.0209
13.8244	21.4765
13.6067	27.2619
13.3957	33.3949
13.1912	35.6073
12.9929	29.8664
12.8004	26.6301
12.6135	28.1562
12.432	30.632
12.2557	30.4364
12.0843	26.6496
11.9176	20.9199
11.7555	19.5615
11.5977	21.1486
11.444	23.0637
11.2944	25.0873
11.1487	27.4748
11.0067	30.8446
10.8682	35.9193
10.7332	42.3983
10.6015	49.9764
10.473	58.0948
10.3476	62.6781
10.2251	63.3077
10.1056	59.1515
9.9887	46.9445
9.8746	46.7958
9.763	50.8534
9.6539	45.5844
9.5472	37.5373
9.4429	35.0331
9.3408	36.5883
9.2409	38.1977
9.1431	38.9154
9.0474	38.9306
8.9536	38.1603
8.8618	37.2641
8.7718	36.663
8.6837	35.932
8.5973	36.6964
8.5126	39.1764
8.4295	42.0216
8.3481	47.0443
8.2682	50.6688
8.1898	52.9588
8.1129	54.1654
8.0374	54.85
7.9634	55.9139
7.8906	57.7953
7.8192	62.3914
7.7491	69.0555
7.6802	65.6756
7.6126	56.0648
7.5461	42.9745
7.4807	29.4111
7.4165	16.9321
7.3534	7.6018
7.2914	4.1167
7.2303	4.8662
7.1703	6.1499
7.1113	7.2334
7.0533	8.228
6.9962	8.978
6.94	9.6689
6.8847	10.2563
6.8302	10.8086
6.7767	11.3237
6.7239	11.7158
6.672	12.1953
6.6209	12.5791
6.5705	13.101
6.5209	13.3632
6.4721	13.5727
6.424	13.749
6.3766	13.8964
6.3299	14.0942
6.2838	14.3432
6.2385	14.3906
6.1937	14.6845
6.1496	14.8686
6.1062	14.9936
6.0633	15.0796
6.0211	15.0942
5.9794	15.2568
5.9383	15.6533
5.8978	15.727
5.8578	15.6572
5.8184	15.9311
5.7794	15.7871
5.741	15.9072
5.7031	16.0136
5.6657	16.0415
5.6288	16.1367
5.5924	16.1923
5.5564	16.3349
5.5209	16.4057
5.4859	16.4663
5.4513	16.5336
5.4171	16.685
5.3833	16.6679
5.35	16.8134
5.3171	16.811
5.2846	16.8872
5.2524	16.9223
5.2207	16.9682
5.1893	17.0017
5.1584	17.0429
5.1277	17.0439
5.0975	17.0595
5.0676	17.0673
5.038	17.0915
5.0088	17.0932
4.98	17.1264
4.9514	17.1372
4.9232	17.1604
4.8953	17.1782
4.8678	17.1877
4.8405	17.2495
4.8135	17.2475
4.7868	17.2998
4.7605	17.3266
4.7344	17.373
4.7086	17.4067
4.6831	17.4233
4.6578	17.4697
4.6328	17.5214
4.6081	17.5698
4.5837	17.6189
4.5595	17.6508
4.5356	17.6731
4.5119	17.7192
4.4884	17.7597
4.4652	17.7619
4.4423	17.7707
4.4196	17.7959
4.3971	17.8342
4.3748	17.8342
4.3528	17.8403
4.331	17.842
4.3094	17.8569
4.288	17.8598
4.2668	17.8501
4.2458	17.8654
4.2251	17.7822
4.2045	17.8068
4.1841	17.8442
4.164	17.9008
4.144	17.936
4.1242	17.937
4.1046	17.9643
4.0852	17.9875
4.066	17.9668
4.047	17.9992
4.0281	18.0236
4.0094	18.0312
3.9909	18.0656
3.9725	18.093
3.9544	18.1054
3.9363	18.1167
3.9185	18.1359
3.9008	18.1469
3.8833	18.1506
3.8659	18.1386
3.8487	18.1398
3.8316	18.1464
3.8147	18.1301
3.7979	18.1464
3.7813	18.1425
3.7648	18.1406
3.7485	18.1538
3.7323	18.1328
3.7162	18.1369
3.7003	18.1225
3.6845	18.121
3.6689	18.1137
3.6534	18.1379
3.638	18.1401
3.6227	18.1318
3.6076	18.1154
3.5926	18.1303
3.5777	18.1533
3.563	18.1594
3.5484	18.1767
3.5338	18.1562
3.5195	18.1557
3.5052	18.1865
3.491	18.1887
3.477	18.1923
3.463	18.1826
3.4492	18.165
3.4355	18.1826
3.4219	18.217
3.4084	18.1789
3.395	18.164
3.3817	18.1308
3.3685	18.1721
3.3554	18.1601
3.3425	18.1086
3.3296	18.1184
3.3168	18.0878
3.3041	18.0771
3.2915	18.1127
3.279	18.124
3.2666	18.0893
3.2543	18.0434
3.2421	18.0815
3.23	18.0576
3.218	18.0439
3.206	18.0317
3.1942	18.0224
3.1824	18.041
3.1707	18.0336
3.1591	18.0415
3.1476	18.059
3.1362	18.0219
3.1249	18.04
3.1136	18.0126
3.1024	18.0141
3.0913	18.0141
3.0803	18.0644
3.0694	18.0097
3.0585	18.0371
3.0477	18.0546
3.037	18.0605
3.0264	18.0395
3.0158	18.0551
3.0053	18.0297
2.9949	18.0356
2.9845	18.0317
2.9743	18.0488
2.9641	18.0419
2.9539	18.0156
2.9439	17.9863
2.9339	17.9985
2.9239	18.0493
2.9141	18.0336
2.9043	18.0078
2.8946	18.0278
2.8849	18.0293
2.8753	18.0371
2.8658	18.0175
2.8563	18.0551
2.8469	18.0747
2.8375	18.0771
2.8282	18.0649
2.819	18.1503
2.8098	18.0903
2.8007	18.1093
2.7917	18.0688
2.7827	18.0903
2.7738	18.0293
2.7649	18.1074
2.7561	18.2954
2.7473	18.0976
2.7386	18.3364
2.7299	18.0551
2.7213	18.1875
2.7128	18.0781
2.7043	18.0361
2.6959	17.9946
2.6875	18.0371
2.6791	18.2363
2.6709	18.4941
2.6626	18.1801
2.6545	18.164
2.6463	18.1054
2.6382	18.1376
2.6302	18.4248
2.6222	18.1611
2.6143	18.2011
2.6064	18.3447
2.5986	18.2216
2.5908	18.2626
2.583	18.4619
2.5753	18.2812
2.5677	18.2783
2.5601	18.3505
2.5525	18.3144
2.545	18.3115
2.5375	18.3164
2.5301	18.3603
2.5227	18.416
2.5154	18.4296
2.5081	18.416
2.5008	18.4755
2.4936	18.5009
2.4864	18.5078
2.4793	18.5605
2.4722	18.5468
2.4651	18.6103
2.4581	18.6132
2.4511	18.6718
2.4442	18.6884
2.4373	18.746
2.4305	18.708
2.4236	18.6835
2.4169	18.708
2.4101	18.8027
2.4034	18.7822
2.3967	18.7978
2.3901	18.789
2.3835	18.7832
2.377	18.832
2.3704	18.7861
2.364	18.8251
2.3575	18.8759
2.3511	18.8681
2.3447	18.8515
2.3384	18.8828
2.3321	18.871
2.3258	18.915
2.3195	18.9238
2.3133	18.9804
2.3071	18.9931
2.301	18.9726
2.2949	19.0156
2.2888	19.0078
2.2828	19.0556
2.2767	19.0546
2.2708	19.1181
2.2648	19.1181
2.2589	19.1445
2.253	19.1054
2.2471	19.0859
2.2413	19.0449
2.2355	19.1699
2.2297	19.0546
2.224	19.0371
2.2183	19.0937
2.2126	19.0839
2.207	19.1191
2.2013	19.0312
2.1957	19.1074
2.1902	19.0742
2.1846	19.1835
2.1791	19.1367
2.1736	19.1445
2.1682	19.1347
2.1628	19.1503
2.1574	19.1425
2.152	19.1269
2.1466	19.0566
2.1413	19.1503
2.136	19.2304
2.1308	19.1992
2.1255	19.1191
2.1203	19.2773
2.1151	19.2773
2.11	19.082
2.1048	19.291
2.0997	19.1562
2.0946	19.2578
2.0895	19.166
2.0845	19.2363
2.0795	19.2597
