Name: Olivine (Fo88) (Fe+2,Mg)2SiO4
Type: Mineral
Class: Silicate
Subclass: Nesosilicate
Particle Size: Coarse
Sample No.: olivine_9
Owner: JHU
Wavelength Range: TIR
Origin: South Point, Hawaii via Trude King #GSB
Description: Samples of olivine from an olivine sand beach were optically examined using a petrographic microscope prior to spectral measurements to insure purity of the olivine.  The sample was >98% pure olivine.  It was hand ground and wet sieved into <60 micrometers size range.  Sample preparation was by Trude King, USGS, Denver. Particle size was 0-60 micrometers, but Packed powder simulates coarse. (Isolated tetrahedra); (Olivine Group) Original ASTER Spectral Library name was jhu.nicolet.mineral.silicate.nesosilicate.packed.olivin9.spectrum.txt
Measurement: Bidirectional reflectance
X Units: Wavelength (micrometers)
Y Units: Reflectance (percent)
wavelength	value
25.0442	5.0425
24.3388	5.8789
23.6719	6.5969
23.0407	6.209
22.4422	5.6445
21.8741	3.79
21.334	3.9416
20.8199	3.0857
20.33	3.5344
19.8627	4.5657
19.4163	4.99
18.9896	5.8906
18.5812	5.6135
18.19	5.8906
17.815	5.5354
17.4551	4.509
17.1094	3.1684
16.7772	2.6526
16.4576	2.9409
16.15	3.4768
15.8537	3.8635
15.568	3.7351
15.2925	3.124
15.0265	2.7856
14.7697	2.8848
14.5214	3.1245
14.2814	3.3362
14.0492	3.5776
13.8244	3.8044
13.6067	3.9995
13.3957	3.9851
13.1912	4.0925
12.9929	4.1511
12.8004	4.0412
12.6135	3.8613
12.432	3.5825
12.2557	3.2913
12.0843	2.9726
11.9176	2.8337
11.7555	2.865
11.5977	3.2209
11.444	3.9856
11.2944	4.4995
11.1487	4.8418
11.0067	5.1714
10.8682	5.5627
10.7332	6.0278
10.6015	6.5159
10.473	6.5574
10.3476	5.2593
10.2251	4.9704
10.1056	5.914
9.9887	5.8464
9.8746	6.042
9.763	6.2617
9.6539	6.5095
9.5472	6.8804
9.4429	7.3562
9.3408	7.8838
9.2409	7.4294
9.1431	6.2917
9.0474	5.1626
8.9536	4.2934
8.8618	4.0317
8.7718	4.2331
8.6837	4.5578
8.5973	4.9001
8.5126	5.2134
8.4295	5.4639
8.3481	5.7734
8.2682	5.9988
8.1898	6.2243
8.1129	6.5705
8.0374	6.8371
7.9634	7.0539
7.8906	7.1426
7.8192	7.1611
7.7491	7.2268
7.6802	7.2829
7.6126	7.2427
7.5461	7.2077
7.4807	7.3645
7.4165	7.562
7.3534	7.7422
7.2914	7.9077
7.2303	7.9133
7.1703	7.979
7.1113	8.039
7.0533	8.03
6.9962	8.2031
6.94	8.4138
6.8847	8.5061
6.8302	8.489
6.7767	8.6015
6.7239	8.7771
6.672	8.9375
6.6209	9.0498
6.5705	9.0674
6.5209	9.041
6.4721	9.0632
6.424	9.0635
6.3766	9.0337
6.3299	8.9643
6.2838	8.8681
6.2385	8.8694
6.1937	8.9004
6.1496	8.8594
6.1062	8.7102
6.0633	8.1977
6.0211	7.28
5.9794	7.1809
5.9383	7.3987
5.8978	7.4607
5.8578	7.5129
5.8184	7.6172
5.7794	7.7207
5.741	7.6499
5.7031	7.2527
5.6657	6.7373
5.6288	6.4673
5.5924	6.759
5.5564	7.3415
5.5209	7.5022
5.4859	7.4734
5.4513	7.4536
5.4171	7.626
5.3833	7.8545
5.35	8.0569
5.3171	8.1638
5.2846	8.2077
5.2524	8.1755
5.2207	8.1929
5.1893	8.3735
5.1584	8.5788
5.1277	8.7734
5.0975	8.9162
5.0676	9.0119
5.038	9.0219
5.0088	8.9648
4.98	8.8249
4.9514	8.6941
4.9232	8.9499
4.8953	9.4096
4.8678	9.9558
4.8405	10.2778
4.8135	10.4218
4.7868	10.5154
4.7605	10.5749
4.7344	10.6281
4.7086	10.6626
4.6831	10.6975
4.6578	10.7317
4.6328	10.7605
4.6081	10.8022
4.5837	10.8344
4.5595	10.8633
4.5356	10.9016
4.5119	10.9299
4.4884	10.9641
4.4652	10.9941
4.4423	11.0305
4.4196	11.0722
4.3971	11.1067
4.3748	11.1355
4.3528	11.1521
4.331	11.1909
4.3094	11.2199
4.288	11.2588
4.2668	11.2812
4.2458	11.322
4.2251	11.3508
4.2045	11.3764
4.1841	11.3989
4.164	11.4089
4.144	11.4394
4.1242	11.4475
4.1046	11.4741
4.0852	11.4946
4.066	11.5051
4.047	11.508
4.0281	11.4878
4.0094	11.4878
3.9909	11.5049
3.9725	11.5239
3.9544	11.5337
3.9363	11.5532
3.9185	11.5569
3.9008	11.5754
3.8833	11.5686
3.8659	11.5493
3.8487	11.5405
3.8316	11.539
3.8147	11.5359
3.7979	11.542
3.7813	11.5515
3.7648	11.5583
3.7485	11.5583
3.7323	11.5398
3.7162	11.5388
3.7003	11.5219
3.6845	11.5105
3.6689	11.5195
3.6534	11.5139
3.638	11.5019
3.6227	11.5007
3.6076	11.4865
3.5926	11.4653
3.5777	11.4365
3.563	11.4008
3.5484	11.3598
3.5338	11.3044
3.5195	11.1391
3.5052	10.6819
3.491	10.8405
3.477	10.926
3.463	10.9265
3.4492	10.7778
3.4355	10.5554
3.4219	10.1176
3.4084	10.2348
3.395	10.583
3.3817	10.5495
3.3685	10.6799
3.3554	10.9043
3.3425	10.9685
3.3296	10.9807
3.3168	10.9653
3.3041	10.9585
3.2915	10.9353
3.279	10.9065
3.2666	10.8728
3.2543	10.8432
3.2421	10.8132
3.23	10.7685
3.218	10.7448
3.206	10.7112
3.1942	10.6823
3.1824	10.6103
3.1707	10.5713
3.1591	10.5293
3.1476	10.4763
3.1362	10.4336
3.1249	10.3899
3.1136	10.3603
3.1024	10.2993
3.0913	10.2785
3.0803	10.2539
3.0694	10.2058
3.0585	10.1828
3.0477	10.1501
3.037	10.1179
3.0264	10.0952
3.0158	10.0547
3.0053	10.019
2.9949	9.9858
2.9845	9.9599
2.9743	9.9087
2.9641	9.8926
2.9539	9.8808
2.9439	9.8755
2.9339	9.875
2.9239	9.8725
2.9141	9.844
2.9043	9.8401
2.8946	9.8354
2.8849	9.8281
2.8753	9.8347
2.8658	9.8432
2.8563	9.8777
2.8469	9.8882
2.8375	9.9355
2.8282	9.9773
2.819	9.9978
2.8098	10.0366
2.8007	10.0725
2.7917	10.0786
2.7827	10.1416
2.7738	10.2011
2.7649	10.2566
2.7561	10.3352
2.7473	10.4326
2.7386	10.5432
2.7299	10.6128
2.7213	10.7451
2.7128	10.8178
2.7043	10.9787
2.6959	11.1811
2.6875	11.2998
2.6791	11.3891
2.6709	11.4175
2.6626	11.4236
2.6545	11.3911
2.6463	11.3774
2.6382	11.3838
2.6302	11.3818
2.6222	11.3332
2.6143	11.3525
2.6064	11.3364
2.5986	11.3523
2.5908	11.3152
2.583	11.3215
2.5753	11.2986
2.5677	11.2512
2.5601	11.2446
2.5525	11.2419
2.545	11.2114
2.5375	11.2236
2.5301	11.1819
2.5227	11.1606
2.5154	11.1098
2.5081	11.1303
2.5008	11.1191
2.4936	11.1238
2.4864	11.0954
2.4793	11.1089
2.4722	11.0634
2.4651	11.0705
2.4581	11.0654
2.4511	11.0385
2.4442	11.0205
2.4373	11.0268
2.4305	10.9948
2.4236	10.9868
2.4169	10.9592
2.4101	10.9536
2.4034	10.9726
2.3967	10.9658
2.3901	10.926
2.3835	10.9267
2.377	10.9106
2.3704	10.9087
2.364	10.8569
2.3575	10.8501
2.3511	10.8803
2.3447	10.8681
2.3384	10.8601
2.3321	10.8662
2.3258	10.8686
2.3195	10.8686
2.3133	10.8606
2.3071	10.8755
2.301	10.8559
2.2949	10.8598
2.2888	10.8637
2.2828	10.851
2.2767	10.8564
2.2708	10.8628
2.2648	10.8325
2.2589	10.8432
2.253	10.8847
2.2471	10.873
2.2413	10.8398
2.2355	10.851
2.2297	10.8447
2.224	10.8301
2.2183	10.8657
2.2126	10.8257
2.207	10.8257
2.2013	10.8259
2.1957	10.8559
2.1902	10.8833
2.1846	10.8945
2.1791	10.8528
2.1736	10.8984
2.1682	10.8911
2.1628	10.8691
2.1574	10.9184
2.152	10.8696
2.1466	10.8852
2.1413	10.9309
2.136	10.9428
2.1308	10.905
2.1255	10.9328
2.1203	10.9765
2.1151	10.9328
2.11	10.9404
2.1048	10.9433
2.0997	10.968
2.0946	10.9963
2.0895	11.018
2.0845	11.0219
2.0795	11.009
