Name: Sulphur S
Type: Mineral
Class: Element
Subclass: None
Particle Size: Medium
Sample No.: E-2A
Owner: JPL
Wavelength Range: VSWIR
Description: Particle size was 45-125um.Collected by JPL Original ASTER Spectral Library name was jpl.beckman.mineral.element.none.medium.e02a.spectrum.txt
Measurement: Hemispherical reflectance
X Units: Wavelength (micrometers)
Y Units: Reflectance (percent)
wavelength	value
0.4	4.21
0.403	4.63
0.406	4.92
0.409	5.32
0.412	6.12
0.415	6.96
0.418	8.13
0.421	9.65
0.424	11.65
0.427	13.74
0.43	16.64
0.433	19.69
0.436	23.35
0.439	27.17
0.442	31.31
0.445	35.8
0.448	40.22
0.451	44.82
0.454	49.32
0.457	53.51
0.46	55.88
0.463	61.74
0.466	65.56
0.469	68.76
0.472	72.01
0.475	74.84
0.478	77.32
0.481	79.49
0.484	81.62
0.487	83.19
0.49	84.86
0.493	86.08
0.496	87.28
0.499	88.09
0.502	88.79
0.505	89.67
0.508	90.14
0.511	90.54
0.514	90.97
0.517	91.25
0.52	91.66
0.523	91.84
0.526	92.06
0.529	92
0.532	92.06
0.535	92.25
0.538	92.37
0.541	92.26
0.544	92.38
0.547	92.22
0.55	92.52
0.553	92.52
0.556	92.52
0.559	92.61
0.562	92.87
0.565	92.99
0.568	92.99
0.571	92.82
0.574	92.68
0.577	92.66
0.58	92.66
0.583	92.71
0.586	92.83
0.589	92.53
0.592	92.6
0.595	92.59
0.598	92.9
0.601	92.92
0.604	92.76
0.607	92.71
0.61	92.88
0.613	93
0.616	92.76
0.619	92.59
0.622	92.71
0.625	92.71
0.628	92.88
0.631	92.82
0.634	92.65
0.637	92.71
0.64	92.65
0.643	92.94
0.646	92.94
0.649	92.65
0.652	92.76
0.655	92.76
0.658	92.94
0.661	92.88
0.664	92.77
0.667	92.82
0.67	92.88
0.673	93
0.676	92.94
0.679	92.82
0.682	92.77
0.685	92.82
0.688	92.94
0.691	92.94
0.694	92.71
0.697	92.93
0.7	92.8
0.703	92.94
0.706	92.94
0.709	92.82
0.712	92.83
0.715	92.71
0.718	93.06
0.721	92.88
0.724	92.83
0.727	92.88
0.73	92.88
0.733	93
0.736	92.94
0.739	92.71
0.742	92.82
0.745	92.65
0.748	92.88
0.751	92.82
0.754	92.71
0.757	92.88
0.76	92.77
0.763	92.83
0.766	92.94
0.769	92.77
0.772	92.94
0.775	92.77
0.778	92.82
0.781	92.95
0.784	92.77
0.787	92.83
0.79	92.95
0.793	92.94
0.796	92.83
0.799	92.99
0.808	92.85
0.82	92.85
0.832	92.91
0.844	93.02
0.856	93.02
0.868	93.14
0.88	93.08
0.892	93.2
0.904	93.26
0.916	93.2
0.928	93.2
0.94	93.14
0.952	93.14
0.964	93.26
0.976	93.08
0.988	93.14
1	93.08
1.012	93.2
1.024	93.32
1.036	93.32
1.048	93.32
1.06	93.32
1.072	93.32
1.084	93.22
1.096	93.22
1.108	93.22
1.12	93.39
1.132	93.39
1.144	93.32
1.156	93.37
1.168	93.16
1.18	93.08
1.192	93.12
1.204	93.22
1.216	93.28
1.228	93.23
1.24	93.18
1.252	93.19
1.264	93.15
1.276	93.09
1.288	93.17
1.3	93.09
1.312	93.08
1.324	93.1
1.336	93.14
1.348	93.17
1.36	93.21
1.372	93.01
1.384	93
1.396	93.05
1.408	93.07
1.42	93.15
1.432	93.23
1.444	93.2
1.456	93.04
1.468	93.09
1.48	93.04
1.492	93.15
1.504	93.16
1.516	93.27
1.528	93.27
1.54	93.27
1.552	93.15
1.564	93.1
1.576	93.09
1.588	93.21
1.6	93.33
1.612	93.37
1.624	93.28
1.636	93.32
1.648	93.46
1.66	93.44
1.672	93.48
1.684	93.45
1.696	93.44
1.708	93.54
1.72	93.49
1.732	93.49
1.744	93.37
1.756	93.37
1.768	93.31
1.78	93.37
1.792	93.26
1.804	93.23
1.816	93.24
1.828	93.22
1.84	93.17
1.852	93.22
1.864	93.13
1.876	93.06
1.888	93.09
1.9	93.24
1.912	93.34
1.924	93.25
1.936	93.17
1.948	93.32
1.96	93.37
1.972	93.37
1.984	93.47
1.996	93.68
2.008	93.73
2.02	93.82
2.032	93.77
2.044	93.84
2.056	93.79
2.068	93.9
2.08	93.84
2.092	93.95
2.104	94.13
2.116	94.26
2.128	94.33
2.14	94.18
2.152	94.02
2.164	93.83
2.176	93.73
2.188	93.77
2.2	93.78
2.212	93.63
2.224	93.76
2.236	93.87
2.248	93.83
2.26	93.74
2.272	93.82
2.284	93.77
2.296	93.9
2.308	93.95
2.32	94.13
2.332	94.18
2.344	94.13
2.356	94.29
2.368	94.27
2.38	94.19
2.392	94.27
2.404	94.42
2.416	94.52
2.428	94.53
2.44	94.58
2.452	94.5
2.464	94.42
2.476	94.45
2.488	94.92
2.5	95.45
