Name: Azurite Cu_3(CO_3)_2(OH)_2
Type: Mineral
Class: Carbonate
Subclass: None
Particle Size: Coarse
Sample No.: C-12A
Owner: JPL
Wavelength Range: TIR
Origin: USA, California, San Bernadino County, Near Valley Wells
Description: Particle size was 125-500um.Collected by Burminco Original ASTER Spectral Library name was jpl.nicolet.mineral.carbonate.none.coarse.c12a.spectrum.txt
Measurement: Hemispherical reflectance
X Units: Wavelength (micrometers)
Y Units: Reflectance (percent)
wavelength	value
15.3853	1.8364
15.1161	2.0842
14.8563	1.7267
14.6052	1.8831
14.3624	2.117
14.1276	1.9216
13.9004	1.9893
13.6803	2.1681
13.4671	2.1166
13.2604	2.059
13.06	2.2794
12.8656	1.8657
12.6769	1.9881
12.4936	2.1391
12.3155	2.459
12.1425	2.5516
11.9742	2.4941
11.8106	2.2429
11.6513	2.347
11.4963	2.1777
11.3454	2.3369
11.1983	2.3323
11.0551	2.421
10.9154	2.5731
10.7793	2.6806
10.6465	3.0023
10.5169	3.0213
10.3904	3.7821
10.267	4.2926
10.1464	4.8059
10.0287	5.8686
9.9136	7.0419
9.8012	7.9347
9.6913	8.6687
9.5838	8.6566
9.4787	7.7405
9.3758	5.394
9.2752	3.5632
9.1767	2.5327
9.0803	1.8402
8.9858	1.1544
8.8934	1.0298
8.8028	0.9961
8.714	0.9052
8.627	0.8693
8.5417	1.0002
8.4581	0.9311
8.3761	1.0933
8.2957	1.2217
8.2169	1.2527
8.1395	1.3113
8.0635	1.4321
7.989	1.4468
7.9158	1.6236
7.8439	1.6541
7.7734	1.7302
7.7041	1.5731
7.636	1.7086
7.5691	1.7344
7.5034	1.8241
7.4388	1.8754
7.3753	2.0032
7.3129	2.0929
7.2515	2.3442
7.1912	2.5209
7.1318	2.7431
7.0734	3.1732
7.016	2.9879
6.9595	2.525
6.9039	2.0286
6.8492	2.2654
6.7953	2.1207
6.7423	1.9674
6.6901	2.0098
6.6387	1.8744
6.5881	2.0939
6.5382	2.1917
6.4892	1.8035
6.4408	1.9379
6.3931	1.8663
6.3462	1.3866
6.2999	1.2755
6.2543	1.1247
6.2094	1.0812
6.1651	1.0272
6.1214	0.9958
6.0784	1.0268
6.0359	1.0025
5.994	0.9126
5.9527	1.0387
5.912	1.1084
5.8718	1.0409
5.8322	1.2116
5.7931	1.2782
5.7545	1.2577
5.7165	1.328
5.6789	1.3432
5.6418	1.354
5.6052	1.3486
5.5691	1.448
5.5334	1.4286
5.4982	1.4951
5.4635	1.5584
5.4291	1.5335
5.3952	1.6168
5.3618	1.6331
5.3287	1.694
5.2961	1.6835
5.2638	1.6898
5.2319	1.8421
5.2004	1.7831
5.1693	1.8916
5.1386	1.8681
5.1082	1.902
5.0782	1.9079
5.0485	1.9874
5.0192	2.0407
4.9902	1.9682
4.9616	2.0545
4.9332	2.004
4.9052	2.0359
4.8776	2.1464
4.8502	2.0371
4.8231	2.1215
4.7963	2.0677
4.7699	2.1523
4.7437	2.14
4.7178	2.0704
4.6922	2.1359
4.6668	2.1478
4.6418	2.1481
4.617	2.1686
4.5924	2.3106
4.5681	2.2446
4.5441	2.3571
4.5203	2.2389
4.4968	2.3393
4.4735	2.2744
4.4505	2.3248
4.4277	2.3641
4.4051	2.3966
4.3828	2.392
4.3607	2.4787
4.3388	2.5179
4.3171	2.5252
4.2956	2.6406
4.2744	2.6444
4.2534	2.6992
4.2325	2.7353
4.2119	2.775
4.1915	2.7189
4.1712	2.7697
4.1512	2.658
4.1313	2.7165
4.1117	2.7567
4.0922	2.7085
4.0729	2.5869
4.0538	2.5734
4.0349	2.6739
4.0161	2.5956
3.9976	2.487
3.9792	2.3913
3.9609	2.3831
3.9428	2.5469
3.9249	2.4066
3.9072	2.4485
3.8896	2.5546
3.8722	2.545
3.8549	2.4948
3.8378	2.5758
3.8208	2.6671
3.804	2.6347
3.7873	2.7225
3.7708	2.602
3.7544	2.618
3.7382	2.5814
3.7221	2.6495
3.7061	2.7274
3.6903	2.5456
3.6746	2.6597
3.659	2.4788
3.6436	2.5732
3.6283	2.3719
3.6131	2.4285
3.5981	2.2706
3.5832	2.1893
3.5684	2.2194
3.5537	2.112
3.5391	2.2067
3.5247	1.9918
3.5104	1.9508
3.4962	2.0101
3.4821	1.8561
3.4681	1.9163
3.4543	1.9009
3.4405	1.9504
3.4269	2.0505
3.4133	1.8698
3.3999	1.8079
3.3866	1.9863
3.3733	1.7481
3.3602	1.9146
3.3472	1.9543
3.3343	1.8555
3.3215	1.9096
3.3088	1.7924
3.2961	1.8663
3.2836	1.8906
3.2712	1.9797
3.2588	1.9132
3.2466	1.8191
3.2345	1.7777
3.2224	1.8894
3.2104	1.8997
3.1985	1.7947
3.1867	1.8437
3.175	1.8403
3.1634	1.8743
3.1519	1.7262
3.1404	1.7124
3.129	1.8228
3.1178	1.9155
3.1065	1.7795
3.0954	1.821
3.0844	1.8307
3.0734	1.7959
3.0625	1.7659
3.0517	1.708
3.041	1.5509
3.0303	1.6498
3.0197	1.7777
3.0092	1.718
2.9987	1.7837
2.9884	1.5233
2.9781	1.724
2.9678	1.6404
2.9577	1.5032
2.9476	1.4658
2.9376	1.5785
2.9276	1.576
2.9177	1.8019
2.9079	1.3841
2.8982	1.4282
2.8885	1.2107
2.8789	1.3271
2.8693	1.3969
2.8598	1.2613
2.8504	1.2608
2.841	1.3758
2.8317	1.4152
2.8224	1.3066
2.8133	1.5093
2.8041	1.4059
2.7951	1.2765
2.786	1.3675
2.7771	1.3412
2.7682	1.4832
2.7594	1.3217
2.7506	1.4091
2.7418	1.309
2.7332	1.5766
2.7246	1.7369
2.716	1.7957
2.7075	2.1037
2.699	2.5417
2.6906	3.0065
2.6823	3.5279
2.674	4.0529
2.6657	4.2204
2.6575	4.8328
2.6494	5.3274
2.6413	5.7773
2.6332	5.8068
2.6252	5.9436
2.6173	5.856
2.6094	6.2705
2.6015	6.3427
2.5937	6.1908
2.5859	6.741
2.5782	6.6483
2.5706	6.8538
2.5629	7.0593
2.5554	7.4825
2.5478	7.8885
2.5403	7.8426
2.5329	7.935
2.5255	8.1839
2.5181	8.2089
2.5108	8.3227
2.5035	8.6481
2.4963	8.6007
2.4891	8.7663
2.482	9.1459
2.4749	9.1717
2.4678	9.5032
2.4608	9.6996
2.4538	9.818
2.4468	9.9448
2.4399	10.0562
2.4331	10.2063
2.4262	10.529
2.4194	10.7934
2.4127	10.6222
2.4059	10.6916
2.3993	10.9187
2.3926	11.1943
2.386	11.1083
2.3795	11.3076
2.3729	11.7329
2.3664	11.6085
2.36	10.9505
2.3535	11.3924
2.3471	11.6554
2.3408	12.6013
2.3345	14.106
2.3282	14.943
2.3219	15.7574
2.3157	15.7339
2.3095	15.6149
2.3034	15.1088
2.2972	14.1056
2.2911	12.9257
2.2851	12.367
2.279	11.8103
2.2731	12.5689
2.2671	13.6055
2.2612	13.8541
2.2553	14.5455
2.2494	15.3096
2.2435	16.5965
2.2377	17.988
2.232	19.1621
2.2262	19.7919
2.2205	20.2527
2.2148	20.2184
2.2091	20.2176
2.2035	21.1453
2.1979	22.5668
2.1923	23.3153
2.1868	23.7457
2.1812	24.1806
2.1758	24.363
2.1703	24.6526
2.1649	25.3071
2.1595	25.3786
2.1541	25.6653
2.1487	25.8278
2.1434	26.0564
2.1381	25.9841
2.1328	25.9818
2.1275	26.0526
2.1223	25.6058
2.1171	25.2917
2.112	25.2115
2.1068	24.964
2.1017	24.7517
2.0966	24.5726
2.0915	24.3708
2.0865	24.2725
2.0814	24.1253
2.0764	23.6103
2.0715	22.9302
2.0665	22.532
2.0616	22.1727
2.0567	21.882
2.0518	21.4011
2.0469	20.7505
2.0421	20.3221
2.0373	20.4087
2.0325	19.5726
2.0277	19.2049
2.0229	18.5685
2.0182	18.495
2.0135	17.9178
2.0088	17.8591
2.0042	17.2141
