Name: Augite (Ca,Na)(Mg,Fe,Al,Ti)(Si,Al)2O6
Type: Mineral
Class: Silicate
Subclass: Inosilicate
Particle Size: Solid
Sample No.: augite_2
Owner: JHU
Wavelength Range: TIR
Origin: Sample from Rozier, near Gorges du Tarn, Tarn, France viathe Smithsonian (sample no. NMNH 120049).
Description: The sample was a single 22.31 g portion of a single black crystal, displaying some veining with dolomite, which was completely removed by a warm acid bath.(Pyroxene Group - single chain) Original ASTER Spectral Library name was jhu.nicolet.mineral.silicate.inosilicate.solid.augite2.spectrum.txt
Measurement: Bidirectional reflectance
X Units: Wavelength (micrometers)
Y Units: Reflectance (percent)
wavelength	value
25.0442	14.2534
24.3388	15.1062
23.6719	15.1355
23.0407	15.0588
22.4422	14.9931
21.8741	16.4751
21.334	18.4677
20.8199	19.7429
20.33	20.5681
19.8627	21.7219
19.4163	22.4338
18.9896	22.1655
18.5812	20.7502
18.19	19.4697
17.815	18.9846
17.4551	17.5778
17.1094	14.2229
16.7772	9.7217
16.4576	5.3298
16.15	3.9592
15.8537	4.3008
15.568	4.718
15.2925	3.2847
15.0265	2.9519
14.7697	3.2908
14.5214	3.552
14.2814	3.9363
14.0492	4.2817
13.8244	4.6655
13.6067	5.0754
13.3957	5.4873
13.1912	5.8345
12.9929	6.1279
12.8004	6.4285
12.6135	6.792
12.432	7.2378
12.2557	7.7851
12.0843	8.4626
11.9176	9.3047
11.7555	10.5988
11.5977	12.1665
11.444	13.2927
11.2944	13.9074
11.1487	14.311
11.0067	14.8945
10.8682	15.6472
10.7332	16.216
10.6015	16.7341
10.473	16.9067
10.3476	16.7211
10.2251	15.6584
10.1056	14.4922
9.9887	14.113
9.8746	14.0063
9.763	14.2246
9.6539	14.883
9.5472	15.8618
9.4429	16.9575
9.3408	17.6889
9.2409	17.5246
9.1431	16.7661
9.0474	15.8886
8.9536	14.8203
8.8618	13.2707
8.7718	10.7165
8.6837	7.8679
8.5973	3.9661
8.5126	1.106
8.4295	0.718
8.3481	0.9453
8.2682	1.1636
8.1898	1.366
8.1129	1.5537
8.0374	1.7317
7.9634	1.8867
7.8906	2.0442
7.8192	2.1843
7.7491	2.3157
7.6802	2.437
7.6126	2.5496
7.5461	2.6562
7.4807	2.7681
7.4165	2.8682
7.3534	2.9568
7.2914	3.0454
7.2303	3.1189
7.1703	3.1904
7.1113	3.2661
7.0533	3.3325
6.9962	3.407
6.94	3.4831
6.8847	3.5466
6.8302	3.6057
6.7767	3.6492
6.7239	3.6772
6.672	3.7012
6.6209	3.7139
6.5705	3.7319
6.5209	3.7468
6.4721	3.7642
6.424	3.7815
6.3766	3.8227
6.3299	3.8642
6.2838	3.9136
6.2385	3.9648
6.1937	3.9971
6.1496	4.0395
6.1062	4.0649
6.0633	4.0842
6.0211	4.1299
5.9794	4.1704
5.9383	4.2165
5.8978	4.2671
5.8578	4.3411
5.8184	4.3962
5.7794	4.4556
5.741	4.5141
5.7031	4.5837
5.6657	4.6465
5.6288	4.7024
5.5924	4.7471
5.5564	4.8057
5.5209	4.8328
5.4859	4.8516
5.4513	4.8535
5.4171	4.8332
5.3833	4.8235
5.35	4.8071
5.3171	4.7903
5.2846	4.7783
5.2524	4.7891
5.2207	4.7981
5.1893	4.8078
5.1584	4.8342
5.1277	4.8589
5.0975	4.8826
5.0676	4.9114
5.038	4.9531
5.0088	4.9956
4.98	5.03
4.9514	5.0796
4.9232	5.1169
4.8953	5.1714
4.8678	5.2148
4.8405	5.2744
4.8135	5.3298
4.7868	5.3843
4.7605	5.4414
4.7344	5.4953
4.7086	5.5559
4.6831	5.6328
4.6578	5.7031
4.6328	5.7766
4.6081	5.8445
4.5837	5.9165
4.5595	5.9761
4.5356	6.042
4.5119	6.0832
4.4884	6.1218
4.4652	6.1594
4.4423	6.186
4.4196	6.2131
4.3971	6.2358
4.3748	6.259
4.3528	6.2803
4.331	6.2986
4.3094	6.3132
4.288	6.332
4.2668	6.3447
4.2458	6.365
4.2251	6.3823
4.2045	6.3923
4.1841	6.4045
4.164	6.4172
4.144	6.4402
4.1242	6.4453
4.1046	6.4585
4.0852	6.4812
4.066	6.4968
4.047	6.5022
4.0281	6.5146
4.0094	6.5298
3.9909	6.5434
3.9725	6.5542
3.9544	6.5679
3.9363	6.5832
3.9185	6.603
3.9008	6.6216
3.8833	6.6391
3.8659	6.6523
3.8487	6.6609
3.8316	6.6733
3.8147	6.6758
3.7979	6.697
3.7813	6.7077
3.7648	6.7104
3.7485	6.7239
3.7323	6.7241
3.7162	6.7307
3.7003	6.7439
3.6845	6.7414
3.6689	6.7534
3.6534	6.7612
3.638	6.7576
3.6227	6.7715
3.6076	6.7768
3.5926	6.7829
3.5777	6.7932
3.563	6.7915
3.5484	6.7961
3.5338	6.8025
3.5195	6.8091
3.5052	6.8025
3.491	6.8257
3.477	6.8401
3.463	6.8491
3.4492	6.8613
3.4355	6.8511
3.4219	6.8518
3.4084	6.8337
3.395	6.8511
3.3817	6.8474
3.3685	6.8555
3.3554	6.876
3.3425	6.8877
3.3296	6.8972
3.3168	6.9087
3.3041	6.9136
3.2915	6.9109
3.279	6.9172
3.2666	6.9197
3.2543	6.9143
3.2421	6.9201
3.23	6.9245
3.218	6.9216
3.206	6.9241
3.1942	6.927
3.1824	6.9219
3.1707	6.9292
3.1591	6.9236
3.1476	6.9346
3.1362	6.9377
3.1249	6.9355
3.1136	6.9302
3.1024	6.9277
3.0913	6.9326
3.0803	6.9292
3.0694	6.9294
3.0585	6.927
3.0477	6.9299
3.037	6.9236
3.0264	6.9316
3.0158	6.9133
3.0053	6.9001
2.9949	6.884
2.9845	6.8923
2.9743	6.8708
2.9641	6.8625
2.9539	6.8323
2.9439	6.8174
2.9339	6.7766
2.9239	6.7339
2.9141	6.7163
2.9043	6.6887
2.8946	6.6911
2.8849	6.6692
2.8753	6.6521
2.8658	6.6535
2.8563	6.6433
2.8469	6.6418
2.8375	6.6487
2.8282	6.6692
2.819	6.6921
2.8098	6.7361
2.8007	6.7717
2.7917	6.7654
2.7827	6.7722
2.7738	6.7671
2.7649	6.7607
2.7561	6.7871
2.7473	6.8623
2.7386	6.9758
2.7299	7.094
2.7213	7.1826
2.7128	7.2517
2.7043	7.2939
2.6959	7.3225
2.6875	7.3667
2.6791	7.3913
2.6709	7.3735
2.6626	7.374
2.6545	7.3791
2.6463	7.3576
2.6382	7.3628
2.6302	7.3496
2.6222	7.3454
2.6143	7.3298
2.6064	7.3078
2.5986	7.3059
2.5908	7.2981
2.583	7.2798
2.5753	7.2771
2.5677	7.2624
2.5601	7.2368
2.5525	7.2153
2.545	7.2187
2.5375	7.1853
2.5301	7.1926
2.5227	7.1513
2.5154	7.1406
2.5081	7.1262
2.5008	7.1069
2.4936	7.091
2.4864	7.0495
2.4793	7.0517
2.4722	7.0417
2.4651	7.01
2.4581	7.0117
2.4511	6.9863
2.4442	6.9629
2.4373	6.9668
2.4305	6.9604
2.4236	6.9465
2.4169	6.9228
2.4101	6.9404
2.4034	6.9099
2.3967	6.9241
2.3901	6.8784
2.3835	6.8894
2.377	6.8711
2.3704	6.8826
2.364	6.8772
2.3575	6.8591
2.3511	6.8327
2.3447	6.8457
2.3384	6.8347
2.3321	6.8157
2.3258	6.8027
2.3195	6.8264
2.3133	6.8166
2.3071	6.8369
2.301	6.8044
2.2949	6.8276
2.2888	6.8008
2.2828	6.8132
2.2767	6.803
2.2708	6.8118
2.2648	6.802
2.2589	6.821
2.253	6.8052
2.2471	6.8159
2.2413	6.8171
2.2355	6.8091
2.2297	6.8125
2.224	6.7898
2.2183	6.8362
2.2126	6.8276
2.207	6.812
2.2013	6.8476
2.1957	6.8342
2.1902	6.8193
2.1846	6.842
2.1791	6.8327
2.1736	6.8371
2.1682	6.8508
2.1628	6.8901
2.1574	6.8862
2.152	6.8784
2.1466	6.8581
2.1413	6.8586
2.136	6.8857
2.1308	6.8772
2.1255	6.9314
2.1203	6.9126
2.1151	6.9543
2.11	6.9414
2.1048	6.9331
2.0997	6.9519
2.0946	6.9836
2.0895	7.0044
2.0845	7.0007
2.0795	6.9922
