Name: Strontianite SrCO_3
Type: Mineral
Class: Carbonate
Subclass: None
Particle Size: Medium
Sample No.: C-1A
Owner: JPL
Wavelength Range: VSWIR
Origin: Germany, Westphalia, Hamm.
Description: Particle size was 45-125um.Collected by:  Ward's Original ASTER Spectral Library name was jpl.perkin.mineral.carbonate.none.mediium.c01a.spectrum.txt
Measurement: Hemispherical reflectance
X Units: Wavelength (micrometers)
Y Units: Reflectance (percent)
wavelength	value
2.5	58.1319
2.494	58.6823
2.488	59.3943
2.482	61.0534
2.476	63.1548
2.47	65.5417
2.464	67.8639
2.458	70.155
2.452	71.9057
2.446	73.3713
2.44	74.5108
2.434	75.222
2.428	75.8205
2.422	76.2834
2.416	76.6976
2.41	77.0947
2.404	77.1043
2.398	76.7778
2.392	76.0344
2.386	74.3868
2.38	72.1789
2.374	69.1997
2.368	66.0523
2.362	63.0725
2.356	60.6921
2.35	59.037
2.344	58.5335
2.338	59.2242
2.332	60.9455
2.326	62.7601
2.32	64.3724
2.314	65.5819
2.308	66.731
2.302	67.7883
2.296	68.6735
2.29	69.7273
2.284	70.7046
2.278	71.7902
2.272	72.9045
2.266	74.1614
2.26	75.3034
2.254	76.3591
2.248	77.3866
2.242	78.3704
2.236	79.2347
2.23	80.0557
2.224	80.8205
2.218	81.4952
2.212	82.2752
2.206	82.8453
2.2	83.0099
2.194	82.6958
2.188	82.3024
2.182	81.8711
2.176	81.7482
2.17	82.2889
2.164	83.4209
2.158	84.5298
2.152	85.3894
2.146	85.9086
2.14	86.1769
2.134	86.3552
2.128	86.4024
2.122	86.3142
2.116	86.2525
2.11	86.2214
2.104	86.1653
2.098	86.1078
2.092	86.2827
2.086	86.371
2.08	86.5693
2.074	86.6057
2.068	86.6924
2.062	86.7495
2.056	86.7715
2.05	86.7233
2.044	86.5288
2.038	86.165
2.032	85.3149
2.026	84.1728
2.02	82.8506
2.014	82.3855
2.008	83.0436
2.002	83.8333
1.996	84.4326
1.99	84.7897
1.984	84.9339
1.978	85.0833
1.972	85.0234
1.966	85.1826
1.96	85.4743
1.954	85.5831
1.948	85.6469
1.942	85.7559
1.936	85.8191
1.93	85.7881
1.924	85.8918
1.918	85.8257
1.912	85.8072
1.906	85.4033
1.9	84.8562
1.894	84.3285
1.888	84.0817
1.882	84.4398
1.876	85.0736
1.87	85.8893
1.864	86.466
1.858	86.8168
1.852	87.0445
1.846	87.3063
1.84	87.5139
1.834	87.8589
1.828	88.0733
1.822	88.2061
1.816	88.4213
1.81	88.564
1.804	88.6616
1.798	88.7802
1.792	88.7381
1.786	88.5993
1.78	88.4671
1.774	88.2448
1.768	88.1698
1.762	88.2775
1.756	88.2635
1.75	88.2736
1.744	88.2817
1.738	88.338
1.732	88.4374
1.726	88.4332
1.72	88.5089
1.714	88.6392
1.708	88.6898
1.702	88.7564
1.696	88.758
1.69	88.8024
1.684	88.8503
1.678	88.8155
1.672	88.7766
1.666	88.7328
1.66	88.915
1.654	88.8172
1.648	88.917
1.642	88.9538
1.636	88.948
1.63	88.9246
1.624	88.9788
1.618	89.0126
1.612	89.0144
1.606	88.9668
1.6	89.0917
1.594	89.0251
1.588	88.902
1.582	88.8605
1.576	88.7866
1.57	88.8224
1.564	88.9039
1.558	88.9083
1.552	88.8568
1.546	88.8504
1.54	88.814
1.534	88.7997
1.528	88.8286
1.522	88.8206
1.516	88.7663
1.51	88.6948
1.504	88.6788
1.498	88.7108
1.492	88.5788
1.486	88.5348
1.48	88.4833
1.474	88.4567
1.468	88.5115
1.462	88.4757
1.456	88.4747
1.45	88.3632
1.444	88.4016
1.438	88.4575
1.432	88.4411
1.426	88.3285
1.42	88.2959
1.414	88.2822
1.408	88.3735
1.402	88.427
1.396	88.6146
1.39	88.642
1.384	88.7002
1.378	88.7191
1.372	88.656
1.366	88.6663
1.36	88.586
1.354	88.554
1.348	88.5931
1.342	88.5225
1.336	88.4913
1.33	88.5446
1.324	88.4689
1.318	88.4653
1.312	88.4292
1.306	88.4753
1.3	88.3377
1.294	88.4391
1.288	88.4112
1.282	88.2804
1.276	88.2663
1.27	88.2742
1.264	88.2382
1.258	88.2376
1.252	88.166
1.246	88.1815
1.24	88.1086
1.234	88.0765
1.228	88.1242
1.222	88.0199
1.216	87.9415
1.21	87.9841
1.204	87.9503
1.198	87.9224
1.192	87.9016
1.186	87.8796
1.18	87.9342
1.174	87.8397
1.168	87.8415
1.162	87.7949
1.156	87.8137
1.15	87.7982
1.144	87.7803
1.138	87.7462
1.132	87.6781
1.126	87.6479
1.12	87.7122
1.114	87.6497
1.108	87.5449
1.102	87.6035
1.096	87.6411
1.09	87.5798
1.084	87.4696
1.078	87.517
1.072	87.4642
1.066	87.4604
1.06	87.532
1.054	87.4187
1.048	87.439
1.042	87.4383
1.036	87.4641
1.03	87.3627
1.024	87.3698
1.018	87.4276
1.012	87.3492
1.006	87.2812
1	87.3233
0.994	87.246
0.988	87.3075
0.982	87.1756
0.976	87.2528
0.97	87.1904
0.964	87.1335
0.958	87.1501
0.952	87.1341
0.946	87.0942
0.94	87.0621
0.934	87.06
0.928	87.08
0.922	87.0038
0.916	87.011
0.91	86.9593
0.904	86.9052
0.898	86.8448
0.892	86.8434
0.886	86.7828
0.88	86.7754
0.874	86.697
0.868	86.6536
0.862	86.6103
0.856	86.3381
0.85	86.2821
0.844	86.3114
0.838	86.2689
0.832	86.2751
0.826	86.1865
0.82	86.2142
0.814	86.227
0.808	86.11
0.802	86.1218
0.796	85.9116
0.79	85.904
0.784	85.8599
0.778	85.7435
0.772	85.6596
0.766	85.6394
0.76	85.5604
0.754	85.5283
0.748	85.4921
0.742	85.3844
0.736	85.3168
0.73	85.2621
0.724	85.1864
0.718	85.1313
0.712	85.0637
0.706	84.9753
0.7	84.8681
0.694	84.8201
0.688	84.7139
0.682	84.6491
0.676	84.5687
0.67	84.4481
0.664	84.349
0.658	84.2639
0.652	84.1541
0.646	84.0657
0.64	83.9645
0.634	83.881
0.628	83.7623
0.622	83.7081
0.616	83.5727
0.61	83.4903
0.604	83.3612
0.598	83.2733
0.592	83.2039
0.586	83.0533
0.58	82.8859
0.574	82.7563
0.568	82.614
0.562	82.4514
0.556	82.2565
0.55	82.0645
0.544	81.8501
0.538	81.6504
0.532	81.4221
0.526	81.1566
0.52	80.9467
0.514	80.6655
0.508	80.379
0.502	80.0783
0.496	79.7255
0.49	79.3845
0.484	79.0068
0.478	78.6907
0.472	78.3711
0.466	77.9855
0.46	77.5985
0.454	77.1484
0.448	76.7361
0.442	76.2465
0.436	75.7585
0.43	75.2983
0.424	74.7727
0.418	74.2321
0.412	73.6879
0.406	73.0915
0.4	72.3905
