Name: Bornite Cu_5FeS_4
Type: Mineral
Class: Sulfide
Subclass: None
Particle Size: Coarse
Sample No.: S-9A
Owner: JPL
Wavelength Range: TIR
Origin: USA, Arizona, Pinal County, Superior, Magma Mine
Description: Particle size was 125-500um.Collected by Burminco Original ASTER Spectral Library name was jpl.nicolet.mineral.sulfide.none.coarse.s09a.spectrum.txt
Measurement: Hemispherical reflectance
X Units: Wavelength (micrometers)
Y Units: Reflectance (percent)
wavelength	value
15.3853	17.7653
15.1161	17.8449
14.8563	18.0516
14.6052	18.015
14.3624	18.1003
14.1276	18.0716
13.9004	18.1124
13.6803	18.0261
13.4671	18.0917
13.2604	18.1864
13.06	18.5218
12.8656	18.4516
12.6769	18.1002
12.4936	18.451
12.3155	18.2775
12.1425	18.2228
11.9742	18.3482
11.8106	18.3331
11.6513	18.4517
11.4963	18.5275
11.3454	18.3747
11.1983	18.5824
11.0551	18.4328
10.9154	18.5008
10.7793	18.5204
10.6465	18.5748
10.5169	18.6392
10.3904	18.6739
10.267	18.6431
10.1464	18.673
10.0287	18.8231
9.9136	18.833
9.8012	18.8671
9.6913	19.0704
9.5838	19.1855
9.4787	19.2583
9.3758	19.587
9.2752	19.7583
9.1767	19.7808
9.0803	19.8343
8.9858	19.95
8.8934	19.8695
8.8028	19.6692
8.714	19.6054
8.627	19.4843
8.5417	19.6375
8.4581	19.7776
8.3761	19.7938
8.2957	19.8185
8.2169	19.7418
8.1395	19.5486
8.0635	19.3938
7.989	19.0701
7.9158	19.0965
7.8439	19.0065
7.7734	18.9498
7.7041	18.8652
7.636	18.9388
7.5691	18.9467
7.5034	18.8909
7.4388	18.8908
7.3753	19.0041
7.3129	18.9677
7.2515	18.9201
7.1912	19.0208
7.1318	19.1724
7.0734	19.1134
7.016	19.0763
6.9595	19.2782
6.9039	19.1155
6.8492	19.3054
6.7953	19.1658
6.7423	19.0953
6.6901	19.2172
6.6387	19.6214
6.5881	19.2471
6.5382	19.0326
6.4892	19.7694
6.4408	19.2402
6.3931	19.1743
6.3462	19.426
6.2999	19.0245
6.2543	18.9692
6.2094	18.9391
6.1651	19.1035
6.1214	19.104
6.0784	19.2221
6.0359	19.0572
5.994	19.1226
5.9527	18.9319
5.912	19.0368
5.8718	19.0393
5.8322	19.0793
5.7931	18.9603
5.7545	19.0571
5.7165	19.0916
5.6789	18.9269
5.6418	19.1318
5.6052	18.8265
5.5691	18.8575
5.5334	18.7744
5.4982	18.7426
5.4635	18.9468
5.4291	18.8482
5.3952	18.9577
5.3618	18.7934
5.3287	18.8085
5.2961	18.8746
5.2638	18.7087
5.2319	18.831
5.2004	18.8848
5.1693	18.9309
5.1386	18.8098
5.1082	18.8827
5.0782	18.9242
5.0485	18.9611
5.0192	18.9188
4.9902	18.9265
4.9616	18.8043
4.9332	18.8435
4.9052	18.9001
4.8776	19.0014
4.8502	18.9973
4.8231	19.0576
4.7963	19.0903
4.7699	19.0132
4.7437	19.0855
4.7178	19.002
4.6922	19.0858
4.6668	19.0364
4.6418	19.0462
4.617	19.0258
4.5924	18.9691
4.5681	19.0205
4.5441	19.0836
4.5203	19.0033
4.4968	19.0069
4.4735	19.0516
4.4505	18.9821
4.4277	18.9287
4.4051	19.1007
4.3828	19.0664
4.3607	19.0404
4.3388	19.0195
4.3171	18.9577
4.2956	19.0059
4.2744	18.9959
4.2534	18.9774
4.2325	18.8923
4.2119	18.9855
4.1915	19.103
4.1712	19.0097
4.1512	19.0412
4.1313	19.0422
4.1117	19.0876
4.0922	19.0531
4.0729	18.9301
4.0538	18.992
4.0349	18.9967
4.0161	19.0265
3.9976	19.0299
3.9792	18.8849
3.9609	19.0107
3.9428	18.9511
3.9249	18.9651
3.9072	19.0008
3.8896	19.0121
3.8722	18.9536
3.8549	19.0356
3.8378	18.9773
3.8208	18.9917
3.804	19.0439
3.7873	19.0167
3.7708	19.0998
3.7544	18.9464
3.7382	18.9873
3.7221	18.9771
3.7061	19.0727
3.6903	19.0614
3.6746	18.9718
3.659	19.0135
3.6436	19.0113
3.6283	18.9922
3.6131	18.9431
3.5981	19.0509
3.5832	19.0161
3.5684	18.9108
3.5537	19.0106
3.5391	19.0515
3.5247	18.9747
3.5104	19.1402
3.4962	19.0722
3.4821	19.0309
3.4681	19.0191
3.4543	18.8336
3.4405	18.9141
3.4269	19.1184
3.4133	19.1333
3.3999	19.1071
3.3866	18.9743
3.3733	18.9074
3.3602	19.04
3.3472	18.9365
3.3343	18.8608
3.3215	18.9028
3.3088	18.887
3.2961	18.9865
3.2836	18.8689
3.2712	18.8393
3.2588	18.9778
3.2466	18.8929
3.2345	18.9196
3.2224	19.0069
3.2104	19.0082
3.1985	18.8499
3.1867	18.8263
3.175	19.0089
3.1634	18.8861
3.1519	18.8716
3.1404	18.9328
3.129	18.9411
3.1178	18.8819
3.1065	18.7824
3.0954	18.9323
3.0844	18.9107
3.0734	18.8629
3.0625	18.7881
3.0517	18.8474
3.041	18.9946
3.0303	18.876
3.0197	18.6877
3.0092	18.8094
2.9987	18.7661
2.9884	18.7787
2.9781	18.504
2.9678	19.0567
2.9577	18.8427
2.9476	18.7338
2.9376	18.8002
2.9276	18.6783
2.9177	18.7138
2.9079	18.8748
2.8982	18.7752
2.8885	18.7532
2.8789	18.7626
2.8693	18.6373
2.8598	18.9151
2.8504	18.7564
2.841	18.7414
2.8317	18.799
2.8224	18.8435
2.8133	18.5628
2.8041	18.6454
2.7951	18.6262
2.786	18.7283
2.7771	18.5954
2.7682	18.9023
2.7594	18.5293
2.7506	18.6295
2.7418	18.8806
2.7332	18.6177
2.7246	18.9286
2.716	18.6491
2.7075	18.755
2.699	18.5196
2.6906	18.6668
2.6823	18.7696
2.674	18.678
2.6657	18.9583
2.6575	18.6067
2.6494	18.4005
2.6413	18.636
2.6332	18.4246
2.6252	18.7287
2.6173	18.79
2.6094	18.7109
2.6015	18.6729
2.5937	18.9654
2.5859	18.7177
2.5782	18.5343
2.5706	18.6329
2.5629	18.8272
2.5554	18.6203
2.5478	18.4208
2.5403	18.6092
2.5329	18.5854
2.5255	18.3704
2.5181	18.4518
2.5108	18.5781
2.5035	18.4751
2.4963	18.4425
2.4891	18.5466
2.482	18.2446
2.4749	18.5092
2.4678	18.4717
2.4608	18.3925
2.4538	18.3603
2.4468	18.3584
2.4399	18.499
2.4331	18.569
2.4262	18.376
2.4194	18.4416
2.4127	18.4732
2.4059	18.3638
2.3993	18.4251
2.3926	18.4343
2.386	18.3739
2.3795	18.5609
2.3729	18.482
2.3664	18.3952
2.36	18.3931
2.3535	18.341
2.3471	18.3897
2.3408	18.3731
2.3345	18.4722
2.3282	18.4213
2.3219	18.4216
2.3157	18.1085
2.3095	18.5227
2.3034	18.2719
2.2972	18.2925
2.2911	18.3673
2.2851	18.2758
2.279	18.3465
2.2731	18.4539
2.2671	18.1639
2.2612	18.3511
2.2553	18.149
2.2494	18.3811
2.2435	18.3482
2.2377	18.5186
2.232	18.0619
2.2262	18.3861
2.2205	18.3778
2.2148	18.2113
2.2091	18.1954
2.2035	18.3724
2.1979	18.3912
2.1923	18.268
2.1868	18.2156
2.1812	18.4934
2.1758	18.2577
2.1703	18.239
2.1649	18.2529
2.1595	18.1899
2.1541	18.142
2.1487	18.2775
2.1434	18.1545
2.1381	18.2854
2.1328	18.3877
2.1275	18.4344
2.1223	17.9131
2.1171	17.9906
2.112	18.3691
2.1068	18.3179
2.1017	18.3688
2.0966	18.3507
2.0915	18.2036
2.0865	17.8256
2.0814	18.5312
2.0764	18.3161
2.0715	18.6247
2.0665	18.4244
2.0616	18.1702
2.0567	18.1164
2.0518	18.0872
2.0469	18.1749
2.0421	18.1622
2.0373	18.2126
2.0325	18.3091
2.0277	18.0021
2.0229	18.2393
2.0182	17.9622
2.0135	18.134
2.0088	18.0985
2.0042	18.313
