Name: Halite NaCl
Type: Mineral
Class: Halide
Subclass: None
Particle Size: Fine
Sample No.: H-3A
Owner: JPL
Wavelength Range: VSWIR
Origin: USA, Michigan, Wayne County, Detroit
Description: Particle size was 0-45um.Collected by Ward's Original ASTER Spectral Library name was jpl.beckman.mineral.halide.none.fine.h03a.spectrum.txt
Measurement: Hemispherical reflectance
X Units: Wavelength (micrometers)
Y Units: Reflectance (percent)
wavelength	value
0.4	85.52
0.403	85.71
0.406	85.78
0.409	85.74
0.412	85.97
0.415	85.9
0.418	86.09
0.421	86.2
0.424	86.33
0.427	86.4
0.43	86.42
0.433	86.57
0.436	86.71
0.439	86.88
0.442	86.82
0.445	86.95
0.448	87.02
0.451	87.03
0.454	87.16
0.457	87.23
0.46	87.35
0.463	87.46
0.466	87.61
0.469	87.61
0.472	87.65
0.475	87.73
0.478	87.83
0.481	87.9
0.484	88.04
0.487	87.9
0.49	87.85
0.493	88.01
0.496	88.09
0.499	88.24
0.502	88.15
0.505	88.33
0.508	88.27
0.511	88.54
0.514	88.47
0.517	88.55
0.52	88.63
0.523	88.59
0.526	88.7
0.529	88.59
0.532	88.74
0.535	88.71
0.538	88.82
0.541	88.71
0.544	88.84
0.547	88.87
0.55	89.07
0.553	89.09
0.556	89.09
0.559	89.13
0.562	89.61
0.565	89.68
0.568	89.53
0.571	89.63
0.574	89.51
0.577	89.51
0.58	89.38
0.583	89.43
0.586	89.48
0.589	89.66
0.592	89.49
0.595	89.54
0.598	89.7
0.601	89.83
0.604	89.86
0.607	89.77
0.61	89.77
0.613	89.83
0.616	89.81
0.619	89.84
0.622	89.95
0.625	89.89
0.628	89.94
0.631	89.83
0.634	89.88
0.637	89.94
0.64	89.87
0.643	89.72
0.646	89.83
0.649	89.95
0.652	89.98
0.655	89.94
0.658	89.88
0.661	89.89
0.664	89.99
0.667	89.88
0.67	90.06
0.673	90
0.676	89.94
0.679	89.88
0.682	89.89
0.685	90.01
0.688	89.94
0.691	89.94
0.694	89.94
0.697	89.99
0.7	89.87
0.703	90.01
0.706	90.06
0.709	90
0.712	90.07
0.715	90.13
0.718	90.06
0.721	90
0.724	90
0.727	90.07
0.73	90.11
0.733	90.07
0.736	90.06
0.739	90
0.742	90.13
0.745	90.07
0.748	90.01
0.751	90.02
0.754	90.01
0.757	90.01
0.76	90.01
0.763	90.07
0.766	90.07
0.769	90.07
0.772	90.02
0.775	90.01
0.778	90.02
0.781	90.19
0.784	90.08
0.787	90.08
0.79	90.08
0.793	90.2
0.796	90.13
0.799	90.06
0.808	90.3
0.82	90.3
0.832	90.41
0.844	90.46
0.856	90.58
0.868	90.57
0.88	90.57
0.892	90.63
0.904	90.63
0.916	90.69
0.928	90.69
0.94	90.8
0.952	90.86
0.964	90.86
0.976	90.81
0.988	90.88
1	90.85
1.012	90.93
1.024	90.93
1.036	91
1.048	90.93
1.06	90.93
1.072	91.01
1.084	91.11
1.096	91.06
1.108	91.08
1.12	91.28
1.132	91.22
1.144	91.13
1.156	91.12
1.168	91.14
1.18	91.11
1.192	91.1
1.204	91.14
1.216	91.03
1.228	91.05
1.24	91.08
1.252	91.09
1.264	91.12
1.276	91.22
1.288	91.26
1.3	91.09
1.312	91.06
1.324	91.14
1.336	90.94
1.348	90.99
1.36	90.97
1.372	90.87
1.384	90.78
1.396	90.62
1.408	90.2
1.42	89.74
1.432	89.6
1.444	89.68
1.456	89.56
1.468	89.65
1.48	89.76
1.492	89.92
1.504	90.12
1.516	90.43
1.528	90.5
1.54	90.63
1.552	90.79
1.564	90.85
1.576	90.85
1.588	90.9
1.6	90.89
1.612	91.06
1.624	90.98
1.636	91.13
1.648	91.1
1.66	91.19
1.672	91.23
1.684	91.38
1.696	91.43
1.708	91.42
1.72	91.47
1.732	91.25
1.744	91.13
1.756	91.13
1.768	91.07
1.78	91.01
1.792	91.01
1.804	91.05
1.816	91.02
1.828	90.99
1.84	90.99
1.852	90.88
1.864	90.74
1.876	90.25
1.888	89.51
1.9	88.02
1.912	86.35
1.924	85.29
1.936	84.72
1.948	84.59
1.96	84.76
1.972	84.94
1.984	85.66
1.996	86.5
2.008	87.21
2.02	88.01
2.032	88.69
2.044	89.17
2.056	89.47
2.068	89.8
2.08	90.13
2.092	90.42
2.104	90.8
2.116	91.08
2.128	91.17
2.14	91.19
2.152	90.98
2.164	90.97
2.176	90.81
2.188	90.74
2.2	90.79
2.212	90.69
2.224	90.72
2.236	90.77
2.248	90.85
2.26	90.75
2.272	90.8
2.284	90.68
2.296	90.7
2.308	90.49
2.32	90.54
2.332	90.5
2.344	90.34
2.356	90.07
2.368	89.84
2.38	89.55
2.392	89.18
2.404	88.9
2.416	88.6
2.428	88.3
2.44	88.01
2.452	87.71
2.464	87.36
2.476	87.17
2.488	87.26
2.5	87.51
