Name: Illite/smectite (K,H3O)(Al,Mg,Fe)2(Si,Al)4 O10 [(OH)2,H2O]
Type: Mineral
Class: Silicate
Subclass: Phyllosilicate
Particle Size: Coarse
Sample No.: illsmec_1
Owner: JHU
Wavelength Range: TIR
Origin: Cameron, Arizona; from Hunt and Salisbury Collection #31(purchased from Ward's Natural Science Establishment);
Description: The sample was a light tan, earthy clay. Called "montmorillonite" by Ward's, the bulk sample and the less than 2 micrometers particle-size separate are pure illite/smectite, with 35% illite layers. Particle size was 0-2 micrometers, but packed powder simulates coarse.(Sheet Silicates) (Mica Group) Original ASTER Spectral Library name was jhu.nicolet.mineral.silicate.phyllosilicate.packed.illsme1.spectrum.txt
Measurement: Bidirectional reflectance
X Units: Wavelength (micrometers)
Y Units: Reflectance (percent)
wavelength	value
25.0442	11.0498
24.3388	11.5522
23.6719	11.9563
23.0407	11.6587
22.4422	11.6513
21.8741	12.3286
21.334	13.665
20.8199	14.4514
20.33	12.6728
19.8627	12.2646
19.4163	13.008
18.9896	14.2199
18.5812	15.3879
18.19	15.9719
17.815	15.7114
17.4551	14.8554
17.1094	13.6462
16.7772	11.6853
16.4576	9.4111
16.15	7.5366
15.8537	6.4971
15.568	5.865
15.2925	5.7134
15.0265	5.7712
14.7697	5.8992
14.5214	6.0056
14.2814	6.0139
14.0492	6.1023
13.8244	6.2571
13.6067	6.4463
13.3957	6.6289
13.1912	6.7485
12.9929	6.8418
12.8004	6.9411
12.6135	7.0166
12.432	7.01
12.2557	7.1174
12.0843	7.2024
11.9176	7.3203
11.7555	7.5115
11.5977	7.7256
11.444	7.8218
11.2944	7.8205
11.1487	7.9822
11.0067	8.1616
10.8682	8.1123
10.7332	8.0901
10.6015	8.1782
10.473	8.4399
10.3476	8.792
10.2251	9.2798
10.1056	9.8152
9.9887	10.4751
9.8746	11.1953
9.763	11.9724
9.6539	13.1411
9.5472	14.6748
9.4429	15.8569
9.3408	15.1264
9.2409	13.7028
9.1431	13.0708
9.0474	12.9448
8.9536	12.9399
8.8618	13.0822
8.7718	12.9101
8.6837	12.6967
8.5973	11.4179
8.5126	10.7444
8.4295	9.7395
8.3481	7.4194
8.2682	4.1548
8.1898	1.7541
8.1129	1.5269
8.0374	1.9722
7.9634	2.4475
7.8906	2.8716
7.8192	3.2383
7.7491	3.584
7.6802	3.8916
7.6126	4.1631
7.5461	4.3945
7.4807	4.6164
7.4165	4.7925
7.3534	4.9521
7.2914	5.0849
7.2303	5.2104
7.1703	5.3254
7.1113	5.3977
7.0533	5.4897
6.9962	5.5898
6.94	5.7131
6.8847	5.8364
6.8302	5.9729
6.7767	6.1094
6.7239	6.1914
6.672	6.2788
6.6209	6.3249
6.5705	6.3677
6.5209	6.3642
6.4721	6.3638
6.424	6.3203
6.3766	6.2119
6.3299	6.0576
6.2838	5.8125
6.2385	5.4709
6.1937	5.094
6.1496	4.8088
6.1062	4.6555
6.0633	4.625
6.0211	4.699
5.9794	4.9263
5.9383	5.2446
5.8978	5.5788
5.8578	5.8845
5.8184	6.1472
5.7794	6.2964
5.741	6.4446
5.7031	6.5649
5.6657	6.634
5.6288	6.6577
5.5924	6.6465
5.5564	6.6313
5.5209	6.6123
5.4859	6.594
5.4513	6.6357
5.4171	6.7073
5.3833	6.7431
5.35	6.8147
5.3171	6.9065
5.2846	7.0107
5.2524	7.0976
5.2207	7.1931
5.1893	7.2539
5.1584	7.341
5.1277	7.4326
5.0975	7.54
5.0676	7.6296
5.038	7.7243
5.0088	7.8017
4.98	7.8952
4.9514	7.9775
4.9232	8.0251
4.8953	8.0827
4.8678	8.1252
4.8405	8.1701
4.8135	8.1911
4.7868	8.2168
4.7605	8.2375
4.7344	8.2617
4.7086	8.2778
4.6831	8.3125
4.6578	8.353
4.6328	8.3911
4.6081	8.4338
4.5837	8.4704
4.5595	8.5105
4.5356	8.5437
4.5119	8.5747
4.4884	8.6145
4.4652	8.6509
4.4423	8.6936
4.4196	8.7534
4.3971	8.8105
4.3748	8.8611
4.3528	8.9104
4.331	8.9477
4.3094	8.999
4.288	9.0522
4.2668	9.0998
4.2458	9.1684
4.2251	9.2258
4.2045	9.2695
4.1841	9.3188
4.164	9.373
4.144	9.4297
4.1242	9.4809
4.1046	9.5198
4.0852	9.572
4.066	9.6242
4.047	9.6614
4.0281	9.6804
4.0094	9.7097
3.9909	9.7292
3.9725	9.7414
3.9544	9.738
3.9363	9.7341
3.9185	9.7319
3.9008	9.7199
3.8833	9.675
3.8659	9.6355
3.8487	9.5913
3.8316	9.5364
3.8147	9.4758
3.7979	9.4206
3.7813	9.3496
3.7648	9.2719
3.7485	9.1963
3.7323	9.1113
3.7162	9.0268
3.7003	8.9101
3.6845	8.8188
3.6689	8.7434
3.6534	8.6553
3.638	8.5715
3.6227	8.4819
3.6076	8.3808
3.5926	8.2807
3.5777	8.1535
3.563	8.0315
3.5484	7.9138
3.5338	7.7663
3.5195	7.6003
3.5052	7.3855
3.491	7.3647
3.477	7.2585
3.463	7.1448
3.4492	7.0014
3.4355	6.8474
3.4219	6.6279
3.4084	6.5368
3.395	6.4819
3.3817	6.3769
3.3685	6.2805
3.3554	6.1802
3.3425	6.0705
3.3296	5.9543
3.3168	5.8279
3.3041	5.7136
3.2915	5.6196
3.279	5.509
3.2666	5.4018
3.2543	5.2876
3.2421	5.1938
3.23	5.0854
3.218	4.9912
3.206	4.9006
3.1942	4.8091
3.1824	4.7107
3.1707	4.6291
3.1591	4.5405
3.1476	4.468
3.1362	4.395
3.1249	4.3306
3.1136	4.2554
3.1024	4.2053
3.0913	4.1601
3.0803	4.1372
3.0694	4.0874
3.0585	4.0796
3.0477	4.0664
3.037	4.0444
3.0264	4.0344
3.0158	3.9966
3.0053	3.9595
2.9949	3.9326
2.9845	3.8953
2.9743	3.852
2.9641	3.8374
2.9539	3.7932
2.9439	3.7717
2.9339	3.7524
2.9239	3.7488
2.9141	3.7373
2.9043	3.7236
2.8946	3.7219
2.8849	3.7197
2.8753	3.7207
2.8658	3.7312
2.8563	3.74
2.8469	3.7395
2.8375	3.7082
2.8282	3.7021
2.819	3.6809
2.8098	3.6316
2.8007	3.5664
2.7917	3.5183
2.7827	3.4648
2.7738	3.3816
2.7649	3.3479
2.7561	3.2766
2.7473	3.209
2.7386	3.271
2.7299	3.3225
2.7213	3.499
2.7128	3.7725
2.7043	4.0588
2.6959	4.6594
2.6875	5.3904
2.6791	5.9568
2.6709	6.3
2.6626	6.5408
2.6545	6.6938
2.6463	6.8291
2.6382	6.9282
2.6302	7.0332
2.6222	7.0647
2.6143	7.1328
2.6064	7.199
2.5986	7.228
2.5908	7.2563
2.583	7.3371
2.5753	7.3025
2.5677	7.3186
2.5601	7.384
2.5525	7.3628
2.545	7.3948
2.5375	7.4223
2.5301	7.4253
2.5227	7.4321
2.5154	7.4482
2.5081	7.4751
2.5008	7.49
2.4936	7.5246
2.4864	7.551
2.4793	7.5774
2.4722	7.5647
2.4651	7.646
2.4581	7.646
2.4511	7.6758
2.4442	7.7065
2.4373	7.7473
2.4305	7.7949
2.4236	7.8662
2.4169	7.9475
2.4101	8.0561
2.4034	8.0547
2.3967	8.083
2.3901	8.0874
2.3835	8.104
2.377	8.1372
2.3704	8.1391
2.364	8.1679
2.3575	8.2285
2.3511	8.2536
2.3447	8.2842
2.3384	8.3413
2.3321	8.4692
2.3258	8.5962
2.3195	8.643
2.3133	8.7558
2.3071	8.812
2.301	8.7961
2.2949	8.8696
2.2888	8.8642
2.2828	8.9004
2.2767	8.8877
2.2708	8.9009
2.2648	8.8169
2.2589	8.6645
2.253	8.6396
2.2471	8.539
2.2413	8.5097
2.2355	8.5036
2.2297	8.4182
2.224	8.3476
2.2183	8.3708
2.2126	8.3354
2.207	8.3266
2.2013	8.3967
2.1957	8.4956
2.1902	8.677
2.1846	8.7495
2.1791	8.8384
2.1736	8.9787
2.1682	9.0608
2.1628	9.1694
2.1574	9.303
2.152	9.3115
2.1466	9.3325
2.1413	9.3618
2.136	9.4609
2.1308	9.4519
2.1255	9.4221
2.1203	9.4465
2.1151	9.497
2.11	9.426
2.1048	9.4682
2.0997	9.4468
2.0946	9.4331
2.0895	9.499
2.0845	9.5031
2.0795	9.478
