Name: Talc Mg_3Si_4O_10(OH)_2
Type: Mineral
Class: Silicate
Subclass: Phyllosilicate
Particle Size: Medium
Sample No.: PS-14A
Owner: JPL
Wavelength Range: TIR
Origin: USA, Georgia, Cherokee County, Holly Springs
Description: Particle size was 45-125um.Collected by Burminco Original ASTER Spectral Library name was jpl.nicolet.mineral.silicate.phyllosilicate.medium.ps14a.spectrum.txt
Measurement: Hemispherical reflectance
X Units: Wavelength (micrometers)
Y Units: Reflectance (percent)
wavelength	value
15.3853	8.4281
15.1161	10.004
14.8563	21.1084
14.6052	17.311
14.3624	3.7383
14.1276	0.5859
13.9004	2.033
13.6803	4.9005
13.4671	7.6784
13.2604	9.4167
13.06	10.7445
12.8656	9.9295
12.6769	10.7682
12.4936	13.4282
12.3155	14.956
12.1425	16.3346
11.9742	17.2192
11.8106	17.3098
11.6513	17.1651
11.4963	16.9147
11.3454	16.7964
11.1983	16.7264
11.0551	16.4325
10.9154	16.7247
10.7793	17.1195
10.6465	16.5939
10.5169	16.4996
10.3904	16.5527
10.267	16.7075
10.1464	17.1093
10.0287	18.435
9.9136	24.475
9.8012	38.4238
9.6913	41.3962
9.5838	40.7419
9.4787	33.5723
9.3758	40.032
9.2752	43.0588
9.1767	43.5506
9.0803	43.4498
8.9858	41.8115
8.8934	38.4569
8.8028	35.5415
8.714	32.0527
8.627	25.1255
8.5417	18.8392
8.4581	13.084
8.3761	8.7277
8.2957	5.2011
8.2169	3.0296
8.1395	1.5548
8.0635	0.9414
7.989	0.4409
7.9158	0.6145
7.8439	1.097
7.7734	1.5758
7.7041	2.2277
7.636	2.7994
7.5691	3.6994
7.5034	4.9682
7.4388	5.85
7.3753	6.4818
7.3129	7.5796
7.2515	8.4293
7.1912	8.5007
7.1318	9.4713
7.0734	10.3201
7.016	11.7758
6.9595	13.1372
6.9039	15.2125
6.8492	16.1671
6.7953	18.8505
6.7423	21.2017
6.6901	23.3844
6.6387	23.9889
6.5881	22.7422
6.5382	22.6695
6.4892	25.0324
6.4408	25.9539
6.3931	26.6456
6.3462	27.3656
6.2999	27.3588
6.2543	27.923
6.2094	25.8472
6.1651	23.7019
6.1214	18.8246
6.0784	13.977
6.0359	13.6676
5.994	11.807
5.9527	13.7714
5.912	19.0158
5.8718	15.9237
5.8322	16.274
5.7931	20.066
5.7545	20.787
5.7165	19.5848
5.6789	17.6629
5.6418	18.8983
5.6052	18.5172
5.5691	16.1032
5.5334	14.9768
5.4982	14.5287
5.4635	15.7744
5.4291	19.8586
5.3952	19.713
5.3618	19.1048
5.3287	20.3588
5.2961	22.5319
5.2638	21.8383
5.2319	19.691
5.2004	19.2791
5.1693	22.2325
5.1386	23.1985
5.1082	26.5455
5.0782	36.2264
5.0485	42.2537
5.0192	43.9659
4.9902	44.1421
4.9616	43.3648
4.9332	42.0644
4.9052	46.4953
4.8776	50.0846
4.8502	51.2879
4.8231	51.7641
4.7963	52.7925
4.7699	55.0356
4.7437	57.5688
4.7178	55.2974
4.6922	55.3349
4.6668	56.2748
4.6418	56.9426
4.617	63.1492
4.5924	67.8301
4.5681	69.5434
4.5441	70.6283
4.5203	70.7739
4.4968	70.4728
4.4735	70.5216
4.4505	70.932
4.4277	74.0201
4.4051	75.8559
4.3828	77.8322
4.3607	78.3661
4.3388	78.5827
4.3171	78.8119
4.2956	78.9781
4.2744	79.3967
4.2534	79.9035
4.2325	79.9494
4.2119	79.781
4.1915	79.7988
4.1712	79.6627
4.1512	79.7765
4.1313	79.8443
4.1117	79.8302
4.0922	79.5461
4.0729	79.2585
4.0538	79.2625
4.0349	79.5525
4.0161	80.4189
3.9976	80.9917
3.9792	81.1472
3.9609	81.1255
3.9428	81.0396
3.9249	80.7661
3.9072	80.7884
3.8896	81.031
3.8722	81.4588
3.8549	81.9792
3.8378	82.1997
3.8208	82.4888
3.804	83.0318
3.7873	83.6359
3.7708	84.1139
3.7544	84.4144
3.7382	84.5117
3.7221	84.537
3.7061	84.4759
3.6903	80.6548
3.6746	84.1484
3.659	83.7385
3.6436	83.4978
3.6283	83.5859
3.6131	83.7751
3.5981	84.0169
3.5832	84.111
3.5684	84.042
3.5537	83.7264
3.5391	83.2544
3.5247	82.1971
3.5104	79.1188
3.4962	77.2724
3.4821	77.6961
3.4681	79.2801
3.4543	78.8263
3.4405	76.9623
3.4269	73.827
3.4133	71.8725
3.3999	72.9336
3.3866	71.2664
3.3733	67.868
3.3602	61.7805
3.3472	65.4488
3.3343	70.7639
3.3215	61.6363
3.3088	57.7592
3.2961	69.5595
3.2836	73.3985
3.2712	77.3077
3.2588	79.1943
3.2466	79.0337
3.2345	78.2984
3.2224	77.124
3.2104	76.7222
3.1985	75.2369
3.1867	72.5886
3.175	71.2986
3.1634	70.1342
3.1519	70.0667
3.1404	72.6358
3.129	74.6412
3.1178	74.1469
3.1065	73.2321
3.0954	71.33
3.0844	71.6423
3.0734	70.9931
3.0625	70.719
3.0517	70.2151
3.041	69.7946
3.0303	68.9289
3.0197	70.8398
3.0092	70.3332
2.9987	69.2137
2.9884	68.5358
2.9781	69.2275
2.9678	68.5401
2.9577	67.9768
2.9476	67.7598
2.9376	67.941
2.9276	67.761
2.9177	67.8461
2.9079	66.8337
2.8982	66.85
2.8885	66.7706
2.8789	66.3953
2.8693	67.165
2.8598	67.3785
2.8504	66.8617
2.841	68.1959
2.8317	67.7881
2.8224	67.4555
2.8133	65.7393
2.8041	63.2428
2.7951	60.5609
2.786	61.1732
2.7771	63.9491
2.7682	65.6547
2.7594	65.2207
2.7506	62.8551
2.7418	57.0625
2.7332	31.2397
2.7246	32.9528
2.716	32.4664
2.7075	60.6436
2.699	70.4746
2.6906	74.481
2.6823	79.0967
2.674	82.72
2.6657	85.2446
2.6575	83.4936
2.6494	81.9171
2.6413	81.3148
2.6332	81.6677
2.6252	80.9612
2.6173	80.2318
2.6094	80.3253
2.6015	77.5474
2.5937	78.0597
2.5859	75.2419
2.5782	72.4261
2.5706	73.4635
2.5629	74.5222
2.5554	72.8452
2.5478	75.615
2.5403	73.5498
2.5329	72.7107
2.5255	72.4904
2.5181	71.228
2.5108	72.8639
2.5035	73.3605
2.4963	70.8669
2.4891	74.1169
2.482	75.0849
2.4749	70.5873
2.4678	63.7253
2.4608	65.135
2.4538	68.1957
2.4468	69.8944
2.4399	69.6959
2.4331	70.386
2.4262	67.7861
2.4194	74.4398
2.4127	75.5193
2.4059	74.0046
2.3993	63.7709
2.3926	55.7303
2.386	57.7439
2.3795	60.6893
2.3729	65.6458
2.3664	72.0212
2.36	74.4278
2.3535	74.5023
2.3471	78.4757
2.3408	79.49
2.3345	74.6111
2.3282	63.5492
2.3219	52.8926
2.3157	39.6753
2.3095	38.7115
2.3034	50.2117
2.2972	58.5814
2.2911	46.4731
2.2851	55.2106
2.279	66.4203
2.2731	73.0448
2.2671	77.6335
2.2612	81.1722
2.2553	83.938
2.2494	86.3633
2.2435	87.119
2.2377	85.6442
2.232	82.0175
2.2262	83.7426
2.2205	88.4749
2.2148	88.7578
2.2091	88.7224
2.2035	88.6032
2.1979	88.7168
2.1923	88.5661
2.1868	88.1318
2.1812	86.7604
2.1758	86.187
2.1703	85.8376
2.1649	86.848
2.1595	87.3444
2.1541	87.5037
2.1487	87.0513
2.1434	85.7558
2.1381	85.4879
2.1328	85.269
2.1275	84.8614
2.1223	86.9089
2.1171	86.3001
2.112	87.5417
2.1068	87.8306
2.1017	87.6968
2.0966	87.5638
2.0915	86.6315
2.0865	86.542
2.0814	85.5494
2.0764	84.4919
2.0715	87.4686
2.0665	89.1806
2.0616	89.697
2.0567	89.9928
2.0518	90.0824
2.0469	90.5334
2.0421	90.7155
2.0373	90.9279
2.0325	91.4707
2.0277	91.1895
2.0229	90.7623
2.0182	90.202
2.0135	89.856
2.0088	90.3007
2.0042	90.7973
