Name: Olivine (Fo11) (Fe+2,Mg)2SiO4
Type: Mineral
Class: Silicate
Subclass: Nesosilicate
Particle Size: Fine
Sample No.: olivine_10
Owner: JHU
Wavelength Range: TIR
Origin: Twin Sisters Peak, Washington via Trude King #TSD
Description: Olivine from the Twin Sisters intrusive was optically examined using a petrographic icroscope prior to spectral measurements to insure purity of the olivine.  The sample was >98% pure olivine.  It was hand ground and wet sieved into <60 µm size range.  Sample preparation was by Trude King, USGS, Denver. Particle size was Less than 2  Micrometers.(Isolated tetrahedra); (Olivine Group) Original ASTER Spectral Library name was jhu.nicolet.mineral.silicate.nesosilicate.powder.olivi10.spectrum.txt
Measurement: Transmission
X Units: Wavelength (micrometers)
Y Units: Transittance (percent)
wavelength	value
25.0442	6.8281
24.3388	3.1562
23.6719	2.2422
23.0407	5.7344
22.4422	13.1953
21.8741	17.8554
21.334	18.1582
20.8199	24.0624
20.33	16.9609
19.8627	4.7549
19.4163	5.8828
18.9896	7.1523
18.5812	9.8203
18.19	14.0742
17.815	29.6562
17.4551	44.286
17.1094	48.1542
16.7772	28.9423
16.4576	17.3613
16.15	25.3339
15.8537	42.8388
15.568	56.492
15.2925	65.3407
15.0265	70.8221
14.7697	74.6229
14.5214	77.1141
14.2814	79.4143
14.0492	80.535
13.8244	80.6995
13.6067	80.0862
13.3957	77.9925
13.1912	74.9046
12.9929	70.4847
12.8004	64.4666
12.6135	57.0477
12.432	47.6469
12.2557	36.7089
12.0843	23.4399
11.9176	12.7895
11.7555	15.8535
11.5977	7.9145
11.444	2.645
11.2944	0.9707
11.1487	1.5532
11.0067	2.2974
10.8682	3.3916
10.7332	5.3711
10.6015	7.5117
10.473	6.4155
10.3476	11.4516
10.2251	5.0015
10.1056	4.166
9.9887	5.4258
9.8746	9.0361
9.763	15.3144
9.6539	23.2563
9.5472	31.0487
9.4429	37.62
9.3408	43.1259
9.2409	47.4491
9.1431	51.5531
9.0474	56.2459
8.9536	60.2645
8.8618	63.6702
8.7718	66.4788
8.6837	68.973
8.5973	71.2332
8.5126	73.3133
8.4295	75.3172
8.3481	77.2393
8.2682	79.0428
8.1898	80.5743
8.1129	82.0342
8.0374	83.324
7.9634	84.5794
7.8906	85.49
7.8192	86.3777
7.7491	87.1834
7.6802	87.9082
7.6126	88.4444
7.5461	89.0147
7.4807	89.6316
7.4165	90.1123
7.3534	90.6299
7.2914	91.1113
7.2303	91.3865
7.1703	91.7754
7.1113	91.9639
7.0533	92.051
6.9962	92.3435
6.94	92.7734
6.8847	93.3093
6.8302	93.6963
6.7767	94.116
6.7239	94.5676
6.672	94.9827
6.6209	95.2981
6.5705	95.5706
6.5209	95.7214
6.4721	95.9392
6.424	96.0486
6.3766	96.0449
6.3299	95.9705
6.2838	95.7776
6.2385	95.7429
6.1937	95.7156
6.1496	95.3906
6.1062	95.583
6.0633	95.5615
6.0211	94.8486
5.9794	95.0134
5.9383	95.7927
5.8978	96.3972
5.8578	96.7576
5.8184	97.1121
5.7794	97.3562
5.741	97.3455
5.7031	96.9802
5.6657	96.4424
5.6288	95.989
5.5924	96.3249
5.5564	96.999
5.5209	97.2783
5.4859	97.2439
5.4513	97.2058
5.4171	97.3064
5.3833	97.4612
5.35	97.5759
5.3171	97.6846
5.2846	97.6306
5.2524	97.5867
5.2207	97.5264
5.1893	97.6484
5.1584	97.6641
5.1277	97.7263
5.0975	97.7039
5.0676	97.7097
5.038	97.665
5.0088	97.5518
4.98	97.3533
4.9514	97.2458
4.9232	97.3171
4.8953	97.4304
4.8678	97.5437
4.8405	97.5408
4.8135	97.5754
4.7868	97.4939
4.7605	97.3899
4.7344	97.2751
4.7086	97.1999
4.6831	97.1184
4.6578	96.9216
4.6328	96.8874
4.6081	96.7537
4.5837	96.6565
4.5595	96.5735
4.5356	96.4031
4.5119	96.2561
4.4884	96.1975
4.4652	96.0281
4.4423	95.8479
4.4196	95.7971
4.3971	95.6516
4.3748	95.5369
4.3528	95.4187
4.331	95.2605
4.3094	95.0105
4.288	94.8123
4.2668	94.7249
4.2458	94.5886
4.2251	94.3577
4.2045	94.426
4.1841	94.3562
4.164	94.1834
4.144	94.0769
4.1242	93.9089
4.1046	93.7332
4.0852	93.6414
4.066	93.5369
4.047	93.3308
4.0281	93.1467
4.0094	93.0393
3.9909	92.9099
3.9725	92.7146
3.9544	92.6199
3.9363	92.4363
3.9185	92.2307
3.9008	92.1189
3.8833	91.9299
3.8659	91.7756
3.8487	91.6428
3.8316	91.4514
3.8147	91.2566
3.7979	91.0925
3.7813	90.9358
3.7648	90.7341
3.7485	90.5647
3.7323	90.4397
3.7162	90.2078
3.7003	90.03
3.6845	89.7986
3.6689	89.6389
3.6534	89.5042
3.638	89.3357
3.6227	89.1599
3.6076	88.9553
3.5926	88.719
3.5777	88.5496
3.563	88.3377
3.5484	88.1756
3.5338	87.8889
3.5195	87.7132
3.5052	87.3338
3.491	87.2888
3.477	87.1209
3.463	86.8772
3.4492	86.617
3.4355	86.3909
3.4219	86.0476
3.4084	85.9256
3.395	85.8318
3.3817	85.7464
3.3685	85.6741
3.3554	85.428
3.3425	85.3064
3.3296	85.1057
3.3168	84.8421
3.3041	84.7185
3.2915	84.5174
3.279	84.3123
3.2666	84.0935
3.2543	83.9178
3.2421	83.6707
3.23	83.4851
3.218	83.2508
3.206	83.0545
3.1942	82.7889
3.1824	82.5115
3.1707	82.2791
3.1591	81.9793
3.1476	81.7947
3.1362	81.4353
3.1249	81.2449
3.1136	81.0857
3.1024	80.7557
3.0913	80.4529
3.0803	80.1775
3.0694	79.9978
3.0585	79.7879
3.0477	79.5096
3.037	79.2576
3.0264	79.0555
3.0158	78.7039
3.0053	78.4471
2.9949	78.2352
2.9845	78.1912
2.9743	77.8768
2.9641	77.7732
2.9539	77.4744
2.9439	77.3553
2.9339	77.2469
2.9239	77.0623
2.9141	76.9842
2.9043	76.9861
2.8946	76.8123
2.8849	76.7713
2.8753	76.6414
2.8658	76.5164
2.8563	76.3992
2.8469	76.449
2.8375	76.4842
2.8282	76.3924
2.819	76.41
2.8098	76.4617
2.8007	76.3289
2.7917	76.3494
2.7827	76.2859
2.7738	76.2693
2.7649	76.2391
2.7561	76.2557
2.7473	76.0779
2.7386	75.9764
2.7299	75.9334
2.7213	75.2713
2.7128	74.2772
2.7043	75.0506
2.6959	76.7508
2.6875	77.3904
2.6791	77.3875
2.6709	77.367
2.6626	77.0828
2.6545	76.8748
2.6463	76.6893
2.6382	76.7107
2.6302	76.5818
2.6222	76.451
2.6143	76.2771
2.6064	76.0896
2.5986	76.0271
2.5908	75.8064
2.583	75.7928
2.5753	75.5545
2.5677	75.2635
2.5601	75.365
2.5525	75.0799
2.545	74.8397
2.5375	74.8201
2.5301	74.6307
2.5227	74.5076
2.5154	74.3514
2.5081	74.3826
2.5008	74.1287
2.4936	73.9529
2.4864	73.8514
2.4793	73.6131
2.4722	73.5584
2.4651	73.4022
2.4581	73.2186
2.4511	73.0897
2.4442	73.0272
2.4373	72.8006
2.4305	72.7049
2.4236	72.7127
2.4169	72.3924
2.4101	72.5018
2.4034	72.1561
2.3967	72.0545
2.3901	71.9256
2.3835	71.7459
2.377	71.7108
2.3704	71.4803
2.364	71.4783
2.3575	71.1424
2.3511	71.1951
2.3447	71.1111
2.3384	70.7908
2.3321	70.7361
2.3258	70.5467
2.3195	70.4158
2.3133	70.3514
2.3071	70.3162
2.301	70.2752
2.2949	69.8826
2.2888	69.8611
2.2828	69.7029
2.2767	69.617
2.2708	69.5311
2.2648	69.324
2.2589	69.3162
2.253	69.0936
2.2471	68.7967
2.2413	68.8944
2.2355	68.9686
2.2297	68.7537
2.224	68.5115
2.2183	68.5037
2.2126	68.2576
2.207	68.1326
2.2013	68.1248
2.1957	68.0037
2.1902	67.8826
2.1846	67.8514
2.1791	67.6795
2.1736	67.3006
2.1682	67.285
2.1628	67.4881
2.1574	67.1248
2.152	66.8592
2.1466	66.5545
2.1413	66.8045
2.136	66.5545
2.1308	66.578
2.1255	66.4725
2.1203	66.3905
2.1151	66.2498
2.11	66.0037
2.1048	65.8826
2.0997	65.7928
2.0946	65.6287
2.0895	65.5233
2.0845	65.7733
2.0795	65.2655
