Name: Chalcocite Cu_2S
Type: Mineral
Class: Sulfide
Subclass: None
Particle Size: Medium
Sample No.: S-8A
Owner: JPL
Wavelength Range: VSWIR
Origin: USA, Alaska, Kennecott.
Description: Particle size was 45-125um. Collected b:  Burminco Original ASTER Spectral Library name was jpl.perkin.mineral.sulfide.none.medium.s08a.spectrum.txt
Measurement: Hemispherical reflectance
X Units: Wavelength (micrometers)
Y Units: Reflectance (percent)
wavelength	value
2.5	6.9046
2.494	6.3908
2.488	6.4891
2.482	6.598
2.476	6.5734
2.47	6.6201
2.464	6.5186
2.458	6.5889
2.452	6.5928
2.446	6.5387
2.44	6.5418
2.434	6.5576
2.428	6.5431
2.422	6.6335
2.416	6.6129
2.41	6.6438
2.404	6.6538
2.398	6.6366
2.392	6.5903
2.386	6.5615
2.38	6.645
2.374	6.6471
2.368	6.6035
2.362	6.6239
2.356	6.6857
2.35	6.6411
2.344	6.6166
2.338	6.6781
2.332	6.6547
2.326	6.6268
2.32	6.6599
2.314	6.6252
2.308	6.5951
2.302	6.6146
2.296	6.668
2.29	6.6229
2.284	6.6971
2.278	6.6118
2.272	6.6112
2.266	6.6533
2.26	6.6315
2.254	6.6481
2.248	6.5752
2.242	6.6161
2.236	6.6073
2.23	6.6709
2.224	6.7454
2.218	6.5727
2.212	6.7239
2.206	6.635
2.2	6.6649
2.194	6.669
2.188	6.673
2.182	6.6249
2.176	6.6671
2.17	6.6479
2.164	6.645
2.158	6.6703
2.152	6.6743
2.146	6.62
2.14	6.6884
2.134	6.6592
2.128	6.6505
2.122	6.6041
2.116	6.5822
2.11	6.5603
2.104	6.5347
2.098	6.5121
2.092	6.5027
2.086	6.5067
2.08	6.5217
2.074	6.528
2.068	6.5261
2.062	6.4951
2.056	6.5445
2.05	6.4533
2.044	6.5795
2.038	6.5006
2.032	6.5158
2.026	6.4633
2.02	6.5071
2.014	6.4705
2.008	6.4902
2.002	6.4286
1.996	6.4889
1.99	6.4428
1.984	6.4551
1.978	6.3496
1.972	6.4173
1.966	6.3542
1.96	6.4225
1.954	6.3374
1.948	6.368
1.942	6.363
1.936	6.3414
1.93	6.4251
1.924	6.3653
1.918	6.361
1.912	6.3582
1.906	6.3896
1.9	6.3632
1.894	6.4015
1.888	6.3783
1.882	6.4356
1.876	6.4397
1.87	6.4203
1.864	6.4402
1.858	6.4629
1.852	6.4343
1.846	6.4265
1.84	6.4454
1.834	6.4983
1.828	6.4346
1.822	6.3728
1.816	6.4867
1.81	6.3748
1.804	6.4875
1.798	6.5281
1.792	6.4281
1.786	6.5028
1.78	6.4592
1.774	6.4301
1.768	6.4709
1.762	6.4778
1.756	6.4573
1.75	6.4792
1.744	6.5167
1.738	6.5205
1.732	6.5307
1.726	6.545
1.72	6.5633
1.714	6.5435
1.708	6.4869
1.702	6.5313
1.696	6.5642
1.69	6.5176
1.684	6.5177
1.678	6.522
1.672	6.5371
1.666	6.5496
1.66	6.622
1.654	6.5776
1.648	6.5262
1.642	6.7186
1.636	6.6164
1.63	6.6132
1.624	6.5315
1.618	6.5453
1.612	6.5822
1.606	6.6014
1.6	6.6416
1.594	6.6433
1.588	6.6008
1.582	6.5678
1.576	6.6966
1.57	6.6035
1.564	6.6531
1.558	6.6246
1.552	6.5861
1.546	6.5777
1.54	6.6053
1.534	6.6924
1.528	6.6356
1.522	6.6304
1.516	6.6562
1.51	6.7236
1.504	6.7106
1.498	6.7044
1.492	6.667
1.486	6.6749
1.48	6.6637
1.474	6.6999
1.468	6.6867
1.462	6.7104
1.456	6.7417
1.45	6.7327
1.444	6.6931
1.438	6.7022
1.432	6.7795
1.426	6.7838
1.42	6.7208
1.414	6.6924
1.408	6.7611
1.402	6.7811
1.396	6.7907
1.39	6.841
1.384	6.8128
1.378	6.9477
1.372	6.811
1.366	6.9192
1.36	6.9215
1.354	6.9397
1.348	6.8273
1.342	6.847
1.336	6.967
1.33	6.8986
1.324	6.9056
1.318	6.9411
1.312	7.0048
1.306	6.8967
1.3	7.0007
1.294	7.0257
1.288	7.0382
1.282	7.0618
1.276	7.1328
1.27	7.0491
1.264	7.0338
1.258	7.1445
1.252	7.0873
1.246	7.0691
1.24	7.198
1.234	7.1585
1.228	7.2079
1.222	7.2353
1.216	7.2303
1.21	7.2509
1.204	7.308
1.198	7.2925
1.192	7.2255
1.186	7.3646
1.18	7.3197
1.174	7.4055
1.168	7.3631
1.162	7.453
1.156	7.4093
1.15	7.4497
1.144	7.4625
1.138	7.487
1.132	7.5011
1.126	7.4888
1.12	7.4475
1.114	7.5888
1.108	7.5772
1.102	7.6429
1.096	7.7017
1.09	7.6105
1.084	7.6453
1.078	7.742
1.072	7.7067
1.066	7.668
1.06	7.7647
1.054	7.6724
1.048	7.6053
1.042	7.5907
1.036	7.4759
1.03	7.5153
1.024	7.492
1.018	7.3596
1.012	7.3698
1.006	7.3252
1	7.3298
0.994	7.2636
0.988	7.2086
0.982	7.2257
0.976	7.2125
0.97	7.1876
0.964	7.1599
0.958	7.1502
0.952	7.105
0.946	7.1965
0.94	7.182
0.934	7.1319
0.928	7.1924
0.922	7.131
0.916	7.0893
0.91	7.1161
0.904	7.1523
0.898	7.0944
0.892	7.1712
0.886	7.1386
0.88	7.1009
0.874	7.1032
0.868	7.1333
0.862	7.1036
0.856	7.4018
0.85	7.4089
0.844	7.4137
0.838	7.4169
0.832	7.4198
0.826	7.434
0.82	7.4325
0.814	7.4468
0.808	7.4629
0.802	7.4709
0.796	7.4762
0.79	7.4817
0.784	7.4934
0.778	7.5058
0.772	7.5125
0.766	7.5261
0.76	7.5451
0.754	7.5503
0.748	7.5625
0.742	7.5671
0.736	7.5797
0.73	7.5886
0.724	7.6004
0.718	7.6135
0.712	7.6236
0.706	7.6346
0.7	7.647
0.694	7.658
0.688	7.6677
0.682	7.6847
0.676	7.7013
0.67	7.7141
0.664	7.731
0.658	7.7498
0.652	7.7787
0.646	7.8023
0.64	7.8289
0.634	7.8563
0.628	7.8862
0.622	7.9216
0.616	7.9497
0.61	7.9835
0.604	8.0146
0.598	8.0441
0.592	8.0724
0.586	8.0885
0.58	8.1076
0.574	8.1199
0.568	8.1366
0.562	8.1564
0.556	8.1776
0.55	8.2028
0.544	8.233
0.538	8.2681
0.532	8.3026
0.526	8.3452
0.52	8.3886
0.514	8.4346
0.508	8.4834
0.502	8.5365
0.496	8.587
0.49	8.6335
0.484	8.6729
0.478	8.7105
0.472	8.755
0.466	8.8039
0.46	8.8438
0.454	8.8821
0.448	8.9175
0.442	8.9362
0.436	8.9345
0.43	8.9274
0.424	8.9066
0.418	8.8857
0.412	8.8499
0.406	8.8152
0.4	8.7773
