Name: Vermiculite (Mg,Fe^2+,Al)_3(Al,Si)_4O_10(OH)_2.4H_2O
Type: Mineral
Class: Silicate
Subclass: Phyllosilicate
Particle Size: Coarse
Sample No.: PS-18B
Owner: JPL
Wavelength Range: TIR
Origin: USA, Montana, Lincoln County, Libby
Description: Particle size was 125-500um.Collected by Ward's Original ASTER Spectral Library name was jpl.nicolet.mineral.silicate.phyllosilicate.coarse.ps18b.spectrum.txt
Measurement: Hemispherical reflectance
X Units: Wavelength (micrometers)
Y Units: Reflectance (percent)
wavelength	value
15.3853	1.6782
15.1161	1.9975
14.8563	1.6693
14.6052	1.5939
14.3624	1.3885
14.1276	1.4787
13.9004	1.5067
13.6803	1.6349
13.4671	1.5296
13.2604	1.6872
13.06	1.8184
12.8656	1.962
12.6769	2.005
12.4936	2.4601
12.3155	2.8315
12.1425	3.0051
11.9742	3.5017
11.8106	4.2155
11.6513	4.8951
11.4963	5.2873
11.3454	5.8185
11.1983	6.0025
11.0551	6.3509
10.9154	6.7071
10.7793	6.6093
10.6465	7.2666
10.5169	8.2499
10.3904	8.5288
10.267	8.6705
10.1464	9.516
10.0287	11.3765
9.9136	13.3019
9.8012	14.6754
9.6913	15.5099
9.5838	14.1593
9.4787	12.1621
9.3758	10.8448
9.2752	8.914
9.1767	7.5876
9.0803	6.5037
8.9858	5.4234
8.8934	4.1416
8.8028	2.5283
8.714	1.3445
8.627	0.8643
8.5417	0.7038
8.4581	0.651
8.3761	0.5688
8.2957	0.7131
8.2169	0.8567
8.1395	0.9452
8.0635	1.0043
7.989	1.1393
7.9158	1.1685
7.8439	1.2366
7.7734	1.4639
7.7041	1.6147
7.636	1.8668
7.5691	2.0415
7.5034	2.1869
7.4388	2.2234
7.3753	2.303
7.3129	2.4897
7.2515	2.8162
7.1912	2.8775
7.1318	3.0902
7.0734	3.2323
7.016	3.3732
6.9595	3.6476
6.9039	3.8305
6.8492	3.8636
6.7953	3.862
6.7423	3.9089
6.6901	3.8938
6.6387	3.8586
6.5881	4.0202
6.5382	3.8747
6.4892	3.7152
6.4408	3.8013
6.3931	3.7007
6.3462	3.6455
6.2999	3.5292
6.2543	3.1516
6.2094	2.8732
6.1651	2.5233
6.1214	2.3132
6.0784	2.2002
6.0359	2.3023
5.994	2.5487
5.9527	2.8635
5.912	3.5256
5.8718	3.9971
5.8322	4.6884
5.7931	5.4415
5.7545	6.2547
5.7165	6.7321
5.6789	7.3289
5.6418	7.7335
5.6052	8.1752
5.5691	8.5261
5.5334	8.7894
5.4982	9.1648
5.4635	9.2285
5.4291	9.4503
5.3952	9.5469
5.3618	9.7398
5.3287	10.0073
5.2961	10.0961
5.2638	10.3702
5.2319	10.7195
5.2004	10.7584
5.1693	10.6473
5.1386	10.5953
5.1082	10.3415
5.0782	10.1668
5.0485	10.0515
5.0192	10.1578
4.9902	10.2478
4.9616	10.3318
4.9332	10.3377
4.9052	10.4516
4.8776	10.4993
4.8502	10.68
4.8231	10.8981
4.7963	11.2514
4.7699	11.5619
4.7437	11.8675
4.7178	12.4208
4.6922	12.8292
4.6668	13.0656
4.6418	13.4553
4.617	14.0342
4.5924	14.4639
4.5681	14.9274
4.5441	15.454
4.5203	15.9076
4.4968	16.3928
4.4735	16.7107
4.4505	16.9231
4.4277	17.1556
4.4051	17.5168
4.3828	17.7704
4.3607	18.0796
4.3388	18.4004
4.3171	18.7823
4.2956	19.235
4.2744	19.6294
4.2534	20.027
4.2325	20.6332
4.2119	20.9991
4.1915	21.3937
4.1712	21.7635
4.1512	22.2773
4.1313	22.862
4.1117	23.2906
4.0922	23.7647
4.0729	24.3295
4.0538	24.9374
4.0349	25.5262
4.0161	26.0886
3.9976	26.6646
3.9792	27.0766
3.9609	27.6703
3.9428	28.2654
3.9249	28.7027
3.9072	28.9109
3.8896	29.2828
3.8722	29.4612
3.8549	29.5999
3.8378	29.6557
3.8208	29.7903
3.804	29.5369
3.7873	29.4055
3.7708	29.1365
3.7544	28.7109
3.7382	28.4092
3.7221	27.9327
3.7061	27.4563
3.6903	27.1976
3.6746	26.4175
3.659	25.8506
3.6436	25.2027
3.6283	24.6358
3.6131	23.8664
3.5981	23.2465
3.5832	22.5563
3.5684	21.7211
3.5537	21.1396
3.5391	20.3857
3.5247	19.5398
3.5104	18.8161
3.4962	17.9859
3.4821	17.396
3.4681	16.6361
3.4543	15.8922
3.4405	15.3047
3.4269	14.6107
3.4133	13.928
3.3999	13.3037
3.3866	12.8242
3.3733	12.2013
3.3602	11.5972
3.3472	11.1409
3.3343	10.5665
3.3215	10.1116
3.3088	9.6399
3.2961	9.2575
3.2836	8.7424
3.2712	8.455
3.2588	8.2557
3.2466	7.7524
3.2345	7.4214
3.2224	7.1398
3.2104	6.7757
3.1985	6.5761
3.1867	6.2258
3.175	5.9343
3.1634	5.7314
3.1519	5.55
3.1404	5.4173
3.129	5.1738
3.1178	4.9838
3.1065	4.8671
3.0954	4.7792
3.0844	4.5424
3.0734	4.552
3.0625	4.3944
3.0517	4.3781
3.041	4.3516
3.0303	4.3558
3.0197	4.1957
3.0092	4.3057
2.9987	4.0613
2.9884	4.1885
2.9781	3.9621
2.9678	3.9157
2.9577	3.9375
2.9476	3.7812
2.9376	3.738
2.9276	3.6852
2.9177	3.9551
2.9079	4.0439
2.8982	3.844
2.8885	3.8815
2.8789	3.8593
2.8693	4.0513
2.8598	4.1453
2.8504	4.1091
2.841	4.0016
2.8317	3.8301
2.8224	4.0028
2.8133	3.826
2.8041	4.0563
2.7951	4.0541
2.786	4.0036
2.7771	4.3185
2.7682	4.4682
2.7594	4.8208
2.7506	5.2508
2.7418	6.0126
2.7332	6.75
2.7246	7.5532
2.716	9.2697
2.7075	11.9792
2.699	12.7256
2.6906	13.4714
2.6823	16.7723
2.674	21.078
2.6657	22.5487
2.6575	23.7403
2.6494	24.531
2.6413	25.0917
2.6332	25.6086
2.6252	26.3619
2.6173	26.4861
2.6094	27.1203
2.6015	27.3592
2.5937	27.4139
2.5859	27.8318
2.5782	28.0016
2.5706	27.986
2.5629	27.9732
2.5554	28.3394
2.5478	28.3426
2.5403	28.4855
2.5329	28.6553
2.5255	28.7565
2.5181	28.9313
2.5108	29.051
2.5035	29.2255
2.4963	29.5771
2.4891	29.6654
2.482	30.1206
2.4749	30.3554
2.4678	30.7656
2.4608	31.0186
2.4538	31.4264
2.4468	31.7143
2.4399	31.6051
2.4331	32.0479
2.4262	32.5458
2.4194	32.5128
2.4127	32.6479
2.4059	32.8494
2.3993	32.7603
2.3926	32.7807
2.386	32.9242
2.3795	33.5344
2.3729	34.3805
2.3664	35.3368
2.36	35.5409
2.3535	36.2701
2.3471	36.4395
2.3408	35.9468
2.3345	34.8415
2.3282	34.0134
2.3219	33.7618
2.3157	34.0376
2.3095	34.6305
2.3034	34.6639
2.2972	35.11
2.2911	36.5742
2.2851	38.9706
2.279	41.6654
2.2731	44.159
2.2671	45.2807
2.2612	46.7975
2.2553	47.7214
2.2494	48.2524
2.2435	48.6546
2.2377	49.2852
2.232	49.5128
2.2262	49.6809
2.2205	49.7208
2.2148	49.7926
2.2091	50.0515
2.2035	49.9421
2.1979	49.9933
2.1923	50.0298
2.1868	49.8316
2.1812	49.7192
2.1758	49.5378
2.1703	49.6889
2.1649	49.7006
2.1595	49.4008
2.1541	49.3443
2.1487	49.0519
2.1434	48.8016
2.1381	48.9911
2.1328	48.5907
2.1275	48.6557
2.1223	48.323
2.1171	48.0418
2.112	47.8254
2.1068	47.8275
2.1017	47.5163
2.0966	47.0116
2.0915	46.5429
2.0865	46.7827
2.0814	46.2655
2.0764	46.309
2.0715	45.5354
2.0665	45.3133
2.0616	45.4588
2.0567	44.8154
2.0518	44.5329
2.0469	44.2337
2.0421	43.8027
2.0373	43.6337
2.0325	43.2246
2.0277	42.5907
2.0229	42.2574
2.0182	41.9082
2.0135	41.1154
2.0088	40.518
2.0042	39.9678
