Name: Sanidine (K,Na)Al3O8
Type: Mineral
Class: Silicate
Subclass: Tectosilicate
Particle Size: Solid
Sample No.: sanidine_1
Owner: JHU
Wavelength Range: TIR
Origin: Volkesfeld bei Kempenick, Eifel, Rheinland, Germany via DaveStewart, USGS
Description: The hand sample was a large (56.16 g) fragment of what appeared to be a badly fractured single crystal. Small fragments were transparent but "smoky." The sample showed no significant contamination under the microscope. Sample had cleavage face.(Feldspar Group) Original ASTER Spectral Library name was jhu.nicolet.mineral.silicate.tectosilicate.solid.sanidi1.spectrum.txt
Measurement: Bidirectional reflectance
X Units: Wavelength (micrometers)
Y Units: Reflectance (percent)
wavelength	value
25.0442	22.1835
24.3388	25.4218
23.6719	28.2128
23.0407	32.9257
22.4422	32.2782
21.8741	23.0981
21.334	19.2543
20.8199	15.1782
20.33	11.2163
19.8627	12.7334
19.4163	14.1054
18.9896	15.4914
18.5812	17.8027
18.19	21.2246
17.815	19.5434
17.4551	21.4316
17.1094	25.767
16.7772	30.9726
16.4576	30.4709
16.15	23.5278
15.8537	14.936
15.568	14.1071
15.2925	9.3779
15.0265	9.6855
14.7697	11.1455
14.5214	12.3442
14.2814	13.4485
14.0492	14.1037
13.8244	14.3989
13.6067	13.9878
13.3957	13.5991
13.1912	13.6123
12.9929	13.8159
12.8004	13.4087
12.6135	12.2182
12.432	11.6494
12.2557	12.4966
12.0843	13.2661
11.9176	13.8642
11.7555	14.4043
11.5977	14.9013
11.444	15.3808
11.2944	15.8969
11.1487	16.5024
11.0067	17.1962
10.8682	17.9943
10.7332	19.0456
10.6015	20.35
10.473	22.1372
10.3476	24.6728
10.2251	27.624
10.1056	30.9985
9.9887	34.9848
9.8746	38.4936
9.763	41.244
9.6539	44.2355
9.5472	46.9857
9.4429	47.1364
9.3408	39.1574
9.2409	36.3712
9.1431	36.3236
9.0474	37.8012
8.9536	39.4936
8.8618	42.4848
8.7718	46.6224
8.6837	49.4474
8.5973	49.1053
8.5126	47.9625
8.4295	48.5997
8.3481	47.9396
8.2682	43.3351
8.1898	36.4433
8.1129	28.8884
8.0374	20.6887
7.9634	12.3916
7.8906	5.8616
7.8192	2.188
7.7491	1.5559
7.6802	2.2917
7.6126	3.0474
7.5461	3.688
7.4807	4.2275
7.4165	4.689
7.3534	5.0784
7.2914	5.4089
7.2303	5.7024
7.1703	5.9885
7.1113	6.2339
7.0533	6.4499
6.9962	6.6306
6.94	6.8125
6.8847	6.9773
6.8302	7.093
6.7767	7.2241
6.7239	7.3332
6.672	7.4346
6.6209	7.5534
6.5705	7.6308
6.5209	7.7488
6.4721	7.8428
6.424	7.9189
6.3766	8.0381
6.3299	8.1279
6.2838	8.1953
6.2385	8.258
6.1937	8.3015
6.1496	8.3857
6.1062	8.4201
6.0633	8.4878
6.0211	8.5307
5.9794	8.5735
5.9383	8.5835
5.8978	8.6499
5.8578	8.7102
5.8184	8.7053
5.7794	8.7546
5.741	8.791
5.7031	8.8271
5.6657	8.8608
5.6288	8.8767
5.5924	8.9101
5.5564	8.9409
5.5209	8.9707
5.4859	9.0056
5.4513	9.0349
5.4171	9.0459
5.3833	9.0737
5.35	9.0896
5.3171	9.1294
5.2846	9.1438
5.2524	9.1728
5.2207	9.1853
5.1893	9.2248
5.1584	9.247
5.1277	9.2593
5.0975	9.2641
5.0676	9.2859
5.038	9.2998
5.0088	9.3066
4.98	9.2929
4.9514	9.3012
4.9232	9.3093
4.8953	9.3176
4.8678	9.3232
4.8405	9.3171
4.8135	9.3301
4.7868	9.3403
4.7605	9.354
4.7344	9.3564
4.7086	9.3735
4.6831	9.3774
4.6578	9.3933
4.6328	9.407
4.6081	9.4343
4.5837	9.4529
4.5595	9.4458
4.5356	9.4504
4.5119	9.4685
4.4884	9.4746
4.4652	9.4787
4.4423	9.4863
4.4196	9.4897
4.3971	9.4941
4.3748	9.5124
4.3528	9.5215
4.331	9.5356
4.3094	9.5393
4.288	9.5417
4.2668	9.5552
4.2458	9.5625
4.2251	9.5608
4.2045	9.572
4.1841	9.5898
4.164	9.603
4.144	9.6079
4.1242	9.6228
4.1046	9.6272
4.0852	9.6211
4.066	9.6369
4.047	9.643
4.0281	9.6362
4.0094	9.6472
3.9909	9.6467
3.9725	9.6596
3.9544	9.6631
3.9363	9.6675
3.9185	9.6826
3.9008	9.7002
3.8833	9.6899
3.8659	9.7002
3.8487	9.6948
3.8316	9.708
3.8147	9.727
3.7979	9.7282
3.7813	9.7392
3.7648	9.7368
3.7485	9.7387
3.7323	9.7427
3.7162	9.7392
3.7003	9.7505
3.6845	9.7387
3.6689	9.7392
3.6534	9.7448
3.638	9.7353
3.6227	9.7295
3.6076	9.7207
3.5926	9.7358
3.5777	9.7334
3.563	9.7285
3.5484	9.7226
3.5338	9.7314
3.5195	9.7353
3.5052	9.7461
3.491	9.7375
3.477	9.7427
3.463	9.7397
3.4492	9.7466
3.4355	9.75
3.4219	9.7549
3.4084	9.7519
3.395	9.7475
3.3817	9.7163
3.3685	9.7173
3.3554	9.7309
3.3425	9.7158
3.3296	9.7046
3.3168	9.707
3.3041	9.7021
3.2915	9.6853
3.279	9.6838
3.2666	9.6831
3.2543	9.6653
3.2421	9.6684
3.23	9.6606
3.218	9.6533
3.206	9.6455
3.1942	9.6638
3.1824	9.6479
3.1707	9.6372
3.1591	9.6264
3.1476	9.6264
3.1362	9.625
3.1249	9.6057
3.1136	9.6123
3.1024	9.5979
3.0913	9.5849
3.0803	9.5869
3.0694	9.5722
3.0585	9.5581
3.0477	9.5666
3.037	9.5595
3.0264	9.5469
3.0158	9.5259
3.0053	9.5117
2.9949	9.5188
2.9845	9.5176
2.9743	9.4944
2.9641	9.4824
2.9539	9.4719
2.9439	9.4629
2.9339	9.436
2.9239	9.4243
2.9141	9.3882
2.9043	9.3869
2.8946	9.4035
2.8849	9.3674
2.8753	9.3589
2.8658	9.3554
2.8563	9.3418
2.8469	9.3511
2.8375	9.3401
2.8282	9.3393
2.819	9.3039
2.8098	9.2959
2.8007	9.2617
2.7917	9.2776
2.7827	9.2417
2.7738	9.2334
2.7649	9.2102
2.7561	9.1965
2.7473	9.2285
2.7386	9.2043
2.7299	9.2112
2.7213	9.174
2.7128	9.1633
2.7043	9.1728
2.6959	9.1426
2.6875	9.126
2.6791	9.1076
2.6709	9.0766
2.6626	9.0786
2.6545	9.0591
2.6463	9.0542
2.6382	9.0166
2.6302	8.9883
2.6222	8.9863
2.6143	8.9775
2.6064	8.9521
2.5986	8.9492
2.5908	8.9238
2.583	8.8901
2.5753	8.9043
2.5677	8.8911
2.5601	8.8872
2.5525	8.8603
2.545	8.8691
2.5375	8.8301
2.5301	8.7959
2.5227	8.8032
2.5154	8.7959
2.5081	8.7842
2.5008	8.7959
2.4936	8.7705
2.4864	8.7602
2.4793	8.7568
2.4722	8.751
2.4651	8.7285
2.4581	8.7226
2.4511	8.7021
2.4442	8.6904
2.4373	8.6513
2.4305	8.6582
2.4236	8.6592
2.4169	8.6445
2.4101	8.6684
2.4034	8.6328
2.3967	8.5996
2.3901	8.5747
2.3835	8.5859
2.377	8.5654
2.3704	8.5703
2.364	8.5732
2.3575	8.5337
2.3511	8.5566
2.3447	8.5415
2.3384	8.5254
2.3321	8.5058
2.3258	8.5063
2.3195	8.5024
2.3133	8.5273
2.3071	8.5156
2.301	8.5117
2.2949	8.4521
2.2888	8.5019
2.2828	8.4717
2.2767	8.5078
2.2708	8.4941
2.2648	8.4648
2.2589	8.4824
2.253	8.4551
2.2471	8.4385
2.2413	8.4453
2.2355	8.4502
2.2297	8.459
2.224	8.4326
2.2183	8.4297
2.2126	8.459
2.207	8.416
2.2013	8.3838
2.1957	8.4228
2.1902	8.4092
2.1846	8.4004
2.1791	8.3789
2.1736	8.3867
2.1682	8.4179
2.1628	8.3984
2.1574	8.3379
2.152	8.3994
2.1466	8.3613
2.1413	8.334
2.136	8.3564
2.1308	8.3847
2.1255	8.3291
2.1203	8.3281
2.1151	8.2812
2.11	8.3369
2.1048	8.291
2.0997	8.291
2.0946	8.2822
2.0895	8.2539
2.0845	8.2715
2.0795	8.2676
