Name: Biotite K(Mg,Fe+2)3(Al,Fe+3)Si3O10(OH,F)2
Type: Mineral
Class: Silicate
Subclass: Phyllosilicate
Particle Size: Coarse
Sample No.: biotite_1
Owner: JHU
Wavelength Range: TIR
Origin: Source Smithsonian NMNH 78303 Sample from Wakefield,Quebec, Canada.
Description: Sample consisted of four large (5 cm x 5 cm x 3 cm) pieces of a single hexagonal "book" weighing 15.7 g. A 1 mm sample was dark brown in color, while a thin cleavage flake was tan. Despite the high magnesium content (see ancillary file), cleavage surfaces do not display the coppery glint typical of phlogopite. Sample was pure except for a very few (much less than 1%) opaque inclusions. Particle size was 74-250 Micrometers. (Mica Group) Original ASTER Spectral Library name was jhu.nicolet.mineral.silicate.phyllosilicate.coarse.biotit1.spectrum.txt
Measurement: Bidirectional reflectance
X Units: Wavelength (micrometers)
Y Units: Reflectance (percent)
wavelength	value
25.0442	2.6318
24.3388	3.0278
23.6719	3.3384
23.0407	3.4985
22.4422	4.2446
21.8741	5.0439
21.334	5.6089
20.8199	5.4614
20.33	5.3784
19.8627	5.5383
19.4163	5.5041
18.9896	5.4109
18.5812	4.9248
18.19	3.9407
17.815	2.4966
17.4551	1.3843
17.1094	0.9065
16.7772	0.8628
16.4576	0.9236
16.15	0.8997
15.8537	0.8967
15.568	0.8813
15.2925	0.9058
15.0265	0.946
14.7697	0.9749
14.5214	0.96
14.2814	1.0212
14.0492	0.9321
13.8244	0.9814
13.6067	1.0347
13.3957	1.1399
13.1912	1.2607
12.9929	1.3704
12.8004	1.5874
12.6135	1.7063
12.432	1.7893
12.2557	2.0713
12.0843	2.6938
11.9176	2.8909
11.7555	2.6811
11.5977	2.5708
11.444	2.5005
11.2944	2.4028
11.1487	2.2471
11.0067	2.1472
10.8682	2.1846
10.7332	2.3308
10.6015	2.5351
10.473	2.7654
10.3476	3.1052
10.2251	3.168
10.1056	3.5674
9.9887	4.6577
9.8746	5.9136
9.763	5.563
9.6539	4.7873
9.5472	4.4131
9.4429	4.237
9.3408	4.2439
9.2409	4.2305
9.1431	3.9438
9.0474	3.5918
8.9536	3.0632
8.8618	2.3232
8.7718	1.5395
8.6837	0.99
8.5973	0.7798
8.5126	0.8779
8.4295	1.1182
8.3481	1.4414
8.2682	1.7703
8.1898	2.0767
8.1129	2.3694
8.0374	2.6177
7.9634	2.8401
7.8906	3.0356
7.8192	3.2366
7.7491	3.312
7.6802	3.4158
7.6126	3.6672
7.5461	3.9538
7.4807	4.1367
7.4165	4.2969
7.3534	4.4563
7.2914	4.5491
7.2303	4.854
7.1703	5.0757
7.1113	5.3015
7.0533	5.5068
6.9962	5.7156
6.94	5.8845
6.8847	6.0456
6.8302	6.1987
6.7767	6.3174
6.7239	6.438
6.672	6.5403
6.6209	6.6074
6.5705	6.6272
6.5209	6.6013
6.4721	6.5
6.424	6.322
6.3766	6.1377
6.3299	5.9172
6.2838	5.7563
6.2385	5.5942
6.1937	5.5002
6.1496	5.4543
6.1062	5.4944
6.0633	5.5959
6.0211	5.7363
5.9794	5.8557
5.9383	5.9155
5.8978	5.8799
5.8578	5.823
5.8184	5.9433
5.7794	6.1196
5.741	6.2776
5.7031	6.4023
5.6657	6.5786
5.6288	6.7422
5.5924	6.7488
5.5564	6.81
5.5209	7.1262
5.4859	7.3691
5.4513	7.6406
5.4171	7.9431
5.3833	8.2756
5.35	8.5898
5.3171	8.8728
5.2846	9.0454
5.2524	9.1369
5.2207	9.185
5.1893	9.2058
5.1584	9.2129
5.1277	9.2029
5.0975	9.164
5.0676	9.2168
5.038	9.2468
5.0088	9.282
4.98	9.334
4.9514	9.3471
4.9232	9.3359
4.8953	9.3716
4.8678	9.4355
4.8405	9.5381
4.8135	9.6667
4.7868	9.8232
4.7605	9.9934
4.7344	10.1457
4.7086	10.2263
4.6831	10.3235
4.6578	10.4614
4.6328	10.6655
4.6081	10.832
4.5837	10.9797
4.5595	11.0771
4.5356	11.1401
4.5119	11.1845
4.4884	11.2116
4.4652	11.2592
4.4423	11.2898
4.4196	11.3171
4.3971	11.3225
4.3748	11.3408
4.3528	11.3476
4.331	11.3542
4.3094	11.3547
4.288	11.3657
4.2668	11.3896
4.2458	11.4023
4.2251	11.4162
4.2045	11.4397
4.1841	11.4504
4.164	11.4448
4.144	11.4519
4.1242	11.4348
4.1046	11.4453
4.0852	11.4389
4.066	11.4177
4.047	11.363
4.0281	11.2441
4.0094	11.1596
3.9909	11.0727
3.9725	11.0747
3.9544	11.1362
3.9363	11.2451
3.9185	11.2824
3.9008	11.3134
3.8833	11.3198
3.8659	11.3381
3.8487	11.3518
3.8316	11.4109
3.8147	11.4985
3.7979	11.6133
3.7813	11.6894
3.7648	11.7146
3.7485	11.7121
3.7323	11.707
3.7162	11.7031
3.7003	11.6989
3.6845	11.6963
3.6689	11.6723
3.6534	11.6504
3.638	11.6491
3.6227	11.6384
3.6076	11.6164
3.5926	11.5913
3.5777	11.5337
3.563	11.4973
3.5484	11.4389
3.5338	11.3308
3.5195	11.1174
3.5052	10.9226
3.491	10.8972
3.477	10.8611
3.463	10.9411
3.4492	10.9135
3.4355	10.8303
3.4219	10.7558
3.4084	10.7004
3.395	10.7588
3.3817	10.7287
3.3685	10.7021
3.3554	10.6684
3.3425	10.7368
3.3296	10.9436
3.3168	10.9897
3.3041	10.9719
3.2915	10.9489
3.279	10.9111
3.2666	10.8452
3.2543	10.7876
3.2421	10.7292
3.23	10.7011
3.218	10.6733
3.206	10.6794
3.1942	10.6809
3.1824	10.676
3.1707	10.6621
3.1591	10.6128
3.1476	10.5476
3.1362	10.4975
3.1249	10.446
3.1136	10.3821
3.1024	10.3657
3.0913	10.334
3.0803	10.3264
3.0694	10.3073
3.0585	10.2776
3.0477	10.2383
3.037	10.2219
3.0264	10.1836
3.0158	10.1416
3.0053	10.0744
2.9949	10.063
2.9845	10.0283
2.9743	9.9712
2.9641	9.9404
2.9539	9.8916
2.9439	9.855
2.9339	9.8291
2.9239	9.792
2.9141	9.7461
2.9043	9.7231
2.8946	9.6875
2.8849	9.6404
2.8753	9.5769
2.8658	9.5058
2.8563	9.4411
2.8469	9.3698
2.8375	9.2639
2.8282	9.073
2.819	8.8044
2.8098	8.5215
2.8007	8.3991
2.7917	8.1286
2.7827	7.8428
2.7738	7.9021
2.7649	7.6448
2.7561	7.3821
2.7473	7.1748
2.7386	6.5801
2.7299	6.1733
2.7213	6.0454
2.7128	5.8782
2.7043	5.4675
2.6959	5.4494
2.6875	6.8894
2.6791	10.3291
2.6709	11.2776
2.6626	11.4704
2.6545	11.4692
2.6463	11.4214
2.6382	11.4319
2.6302	11.4699
2.6222	11.5246
2.6143	11.5476
2.6064	11.5158
2.5986	11.5549
2.5908	11.5752
2.583	11.5305
2.5753	11.5232
2.5677	11.5173
2.5601	11.5009
2.5525	11.5014
2.545	11.53
2.5375	11.5178
2.5301	11.4926
2.5227	11.4851
2.5154	11.4612
2.5081	11.4538
2.5008	11.455
2.4936	11.4465
2.4864	11.4563
2.4793	11.4189
2.4722	11.4045
2.4651	11.3398
2.4581	11.3203
2.4511	11.2934
2.4442	11.2419
2.4373	11.2409
2.4305	11.2573
2.4236	11.2651
2.4169	11.2114
2.4101	11.1425
2.4034	11.0686
2.3967	10.9448
2.3901	10.8525
2.3835	10.8154
2.377	10.8418
2.3704	10.9663
2.364	11.0195
2.3575	11.0144
2.3511	10.9721
2.3447	10.8318
2.3384	10.6819
2.3321	10.5361
2.3258	10.5278
2.3195	10.6484
2.3133	10.8159
2.3071	10.987
2.301	11.1347
2.2949	11.2148
2.2888	11.3462
2.2828	11.4062
2.2767	11.4375
2.2708	11.4614
2.2648	11.4419
2.2589	11.4135
2.253	11.3237
2.2471	11.2876
2.2413	11.3867
2.2355	11.5605
2.2297	11.6118
2.224	11.6074
2.2183	11.6557
2.2126	11.6191
2.207	11.6562
2.2013	11.6242
2.1957	11.6169
2.1902	11.6325
2.1846	11.6333
2.1791	11.6069
2.1736	11.6103
2.1682	11.6108
2.1628	11.5842
2.1574	11.5925
2.152	11.5483
2.1466	11.4743
2.1413	11.5312
2.136	11.5009
2.1308	11.4956
2.1255	11.5136
2.1203	11.4697
2.1151	11.4958
2.11	11.4546
2.1048	11.446
2.0997	11.4272
2.0946	11.3735
2.0895	11.4299
2.0845	11.4709
2.0795	11.4336
