Name: Epidote Ca_2(Al,Fe^3+)_3O.SiO_4.Si_2O_7.OH
Type: Mineral
Class: Silicate
Subclass: Sorosilicate
Particle Size: Coarse
Sample No.: SS-1C
Owner: JPL
Wavelength Range: TIR
Origin: USA, Colorado
Description: Particle size was 125-500um.Collected by Ward's Original ASTER Spectral Library name was jpl.nicolet.mineral.silicate.sorosilicate.coarse.ss01c.spectrum.txt
Measurement: Hemispherical reflectance
X Units: Wavelength (micrometers)
Y Units: Reflectance (percent)
wavelength	value
15.3853	9.7102
15.1161	8.2326
14.8563	5.8151
14.6052	5.3288
14.3624	4.4597
14.1276	2.1462
13.9004	1.7311
13.6803	1.4914
13.4671	1.833
13.2604	2.5122
13.06	2.9057
12.8656	3.1741
12.6769	3.4754
12.4936	4.0177
12.3155	4.4521
12.1425	5.2313
11.9742	6.315
11.8106	5.9374
11.6513	7.5211
11.4963	7.6471
11.3454	12.0683
11.1983	11.7876
11.0551	10.2006
10.9154	8.4547
10.7793	7.9429
10.6465	12.482
10.5169	18.7249
10.3904	19.712
10.267	16.7723
10.1464	13.5822
10.0287	9.3656
9.9136	3.4371
9.8012	2.9105
9.6913	5.5137
9.5838	8.776
9.4787	10.1243
9.3758	9.4357
9.2752	8.5157
9.1767	8.7059
9.0803	8.5562
8.9858	9.2508
8.8934	8.125
8.8028	6.9468
8.714	4.5412
8.627	2.3272
8.5417	1.6998
8.4581	1.7857
8.3761	1.7226
8.2957	1.7041
8.2169	1.9642
8.1395	1.955
8.0635	1.6651
7.989	1.7454
7.9158	1.6279
7.8439	1.6731
7.7734	1.6771
7.7041	1.8093
7.636	1.9406
7.5691	2.2103
7.5034	2.2733
7.4388	2.6076
7.3753	2.5966
7.3129	2.7015
7.2515	2.9232
7.1912	3.0231
7.1318	3.3324
7.0734	3.6898
7.016	3.8497
6.9595	4.0288
6.9039	4.1625
6.8492	4.358
6.7953	4.4928
6.7423	4.6286
6.6901	4.7679
6.6387	5.0227
6.5881	5.0928
6.5382	5.2421
6.4892	5.5374
6.4408	5.4193
6.3931	5.4024
6.3462	5.378
6.2999	4.9803
6.2543	4.7536
6.2094	4.5249
6.1651	4.3387
6.1214	4.1713
6.0784	4.0749
6.0359	4.01
5.994	3.4895
5.9527	3.2198
5.912	3.176
5.8718	3.5036
5.8322	3.7166
5.7931	3.7639
5.7545	3.714
5.7165	3.6942
5.6789	3.8046
5.6418	3.7281
5.6052	3.6829
5.5691	4.0039
5.5334	4.6281
5.4982	5.3541
5.4635	5.9255
5.4291	6.4188
5.3952	6.364
5.3618	6.2127
5.3287	6.2705
5.2961	6.3272
5.2638	6.1461
5.2319	5.9331
5.2004	6.2245
5.1693	6.7999
5.1386	7.4321
5.1082	7.6237
5.0782	7.598
5.0485	7.4623
5.0192	7.6447
4.9902	7.226
4.9616	6.7594
4.9332	6.8856
4.9052	7.1464
4.8776	7.6464
4.8502	8.7562
4.8231	9.371
4.7963	9.9678
4.7699	11.7037
4.7437	13.8008
4.7178	14.4327
4.6922	14.3614
4.6668	14.8467
4.6418	15.0308
4.617	14.9967
4.5924	15.8672
4.5681	18.3556
4.5441	20.9625
4.5203	23.4188
4.4968	25.5876
4.4735	27.8683
4.4505	29.7533
4.4277	31.0039
4.4051	32.1127
4.3828	33.1903
4.3607	34.0785
4.3388	34.678
4.3171	35.2389
4.2956	35.812
4.2744	36.219
4.2534	36.4579
4.2325	36.9682
4.2119	37.3573
4.1915	38.0091
4.1712	38.5792
4.1512	39.0027
4.1313	39.1447
4.1117	39.3259
4.0922	39.1746
4.0729	38.7359
4.0538	38.2235
4.0349	36.5721
4.0161	34.4745
3.9976	31.9936
3.9792	31.6942
3.9609	32.9176
3.9428	34.9049
3.9249	36.0163
3.9072	36.6544
3.8896	37.0767
3.8722	37.3266
3.8549	37.3895
3.8378	37.835
3.8208	38.6841
3.804	39.5006
3.7873	40.3051
3.7708	40.4048
3.7544	39.9972
3.7382	39.3737
3.7221	38.7987
3.7061	38.2165
3.6903	37.8778
3.6746	37.7326
3.659	37.6916
3.6436	37.5514
3.6283	37.1993
3.6131	36.6999
3.5981	35.8738
3.5832	35.1568
3.5684	34.3469
3.5537	33.685
3.5391	32.6003
3.5247	30.9352
3.5104	29.1601
3.4962	27.6465
3.4821	26.4504
3.4681	26.0167
3.4543	25.4668
3.4405	24.5729
3.4269	23.6162
3.4133	22.9596
3.3999	22.9292
3.3866	22.6188
3.3733	21.8691
3.3602	20.9659
3.3472	20.096
3.3343	19.8017
3.3215	19.1961
3.3088	18.5014
3.2961	17.2578
3.2836	16.0827
3.2712	15.0736
3.2588	14.394
3.2466	13.6357
3.2345	13.1328
3.2224	12.4124
3.2104	11.5714
3.1985	10.8029
3.1867	10.1411
3.175	9.5868
3.1634	9.1994
3.1519	8.8772
3.1404	8.2956
3.129	7.7382
3.1178	7.3832
3.1065	7.094
3.0954	6.9475
3.0844	6.6203
3.0734	6.6034
3.0625	6.4717
3.0517	6.4009
3.041	6.1728
3.0303	6.2934
3.0197	6.2546
3.0092	5.9982
2.9987	5.8299
2.9884	5.8111
2.9781	5.7235
2.9678	5.2134
2.9577	4.7971
2.9476	4.8909
2.9376	5.1333
2.9276	5.2176
2.9177	5.2912
2.9079	5.7091
2.8982	5.7029
2.8885	5.6151
2.8789	5.6767
2.8693	5.9919
2.8598	6.4985
2.8504	6.5891
2.841	7.1352
2.8317	7.3131
2.8224	7.7763
2.8133	8.187
2.8041	8.4448
2.7951	9.0118
2.786	9.3991
2.7771	10.2606
2.7682	11.232
2.7594	12.0273
2.7506	13.5066
2.7418	15.25
2.7332	16.4305
2.7246	19.1835
2.716	24.2315
2.7075	29.1742
2.699	32.7197
2.6906	35.4132
2.6823	37.6295
2.674	39.8585
2.6657	42.5805
2.6575	43.792
2.6494	44.72
2.6413	45.311
2.6332	46.1618
2.6252	46.5746
2.6173	47.1268
2.6094	47.627
2.6015	48.336
2.5937	49.597
2.5859	49.6989
2.5782	49.5409
2.5706	49.6005
2.5629	49.6605
2.5554	49.2846
2.5478	49.3461
2.5403	49.1047
2.5329	49.3762
2.5255	49.6879
2.5181	49.8906
2.5108	50.5638
2.5035	51.6751
2.4963	52.5319
2.4891	53.3626
2.482	54.359
2.4749	55.0789
2.4678	55.5061
2.4608	56.4995
2.4538	57.218
2.4468	57.6874
2.4399	58.0249
2.4331	58.4605
2.4262	58.4866
2.4194	58.1054
2.4127	57.5322
2.4059	56.4972
2.3993	54.7739
2.3926	52.7883
2.386	50.6301
2.3795	47.9561
2.3729	44.5767
2.3664	38.8017
2.36	31.3934
2.3535	24.7833
2.3471	21.0235
2.3408	19.6484
2.3345	19.9939
2.3282	21.7639
2.3219	24.7051
2.3157	27.9737
2.3095	31.9822
2.3034	35.7556
2.2972	38.5785
2.2911	41.5895
2.2851	44.4436
2.279	46.5634
2.2731	47.0983
2.2671	46.2469
2.2612	43.407
2.2553	40.4724
2.2494	42.7497
2.2435	47.1059
2.2377	53.5386
2.232	57.7877
2.2262	60.3789
2.2205	62.1461
2.2148	63.357
2.2091	64.0446
2.2035	64.8761
2.1979	65.2357
2.1923	65.6545
2.1868	66.1056
2.1812	66.8097
2.1758	67.4155
2.1703	67.5988
2.1649	68.0815
2.1595	68.4619
2.1541	68.4916
2.1487	68.4758
2.1434	68.7647
2.1381	68.5714
2.1328	68.6778
2.1275	68.5117
2.1223	68.3515
2.1171	68.5924
2.112	68.8378
2.1068	68.7823
2.1017	69.1437
2.0966	68.7978
2.0915	69.233
2.0865	68.8408
2.0814	68.9556
2.0764	69.0714
2.0715	68.8069
2.0665	68.5582
2.0616	68.7131
2.0567	68.9274
2.0518	68.4498
2.0469	68.6809
2.0421	68.5098
2.0373	67.8823
2.0325	67.6086
2.0277	67.5594
2.0229	67.1722
2.0182	67.0836
2.0135	66.8553
2.0088	66.6167
2.0042	66.4229
