Name: Tremolite Ca2(Mg, Fe+2)5Si8O22(OH)2
Type: Mineral
Class: Silicate
Subclass: Inosilicate
Particle Size: Solid
Sample No.: tremol_1
Owner: JHU
Wavelength Range: TIR
Origin: Balmat, New York, USA via Bruce Hemingway, USGS
Description: The sample consisted of 2-3 cm long x 1-2 cm wide mass of white tremolite crystals.  The sample appeared pure in hand specimen and under the microscope. Sample had sawn surface.(Chain Silicates); (Amphibole Group) Original ASTER Spectral Library name was jhu.nicolet.mineral.silicate.inosilicate.solid.tremol1.spectrum.txt
Measurement: Bidirectional reflectance
X Units: Wavelength (micrometers)
Y Units: Reflectance (percent)
wavelength	value
25.0442	28.7343
24.3388	27.9413
23.6719	31.6757
23.0407	28.5937
22.4422	41.8251
21.8741	53.3182
21.334	50.9764
20.8199	40.2675
20.33	36.2387
19.8627	43.0331
19.4163	47.3837
18.9896	46.3861
18.5812	55.837
18.19	57.9679
17.815	44.7421
17.4551	41.1952
17.1094	33.6593
16.7772	23.746
16.4576	15.7602
16.15	15.4465
15.8537	17.5539
15.568	19.5644
15.2925	19.5712
15.0265	19.8012
14.7697	19.0366
14.5214	22.392
14.2814	20.1025
14.0492	18.2102
13.8244	19.3496
13.6067	19.7504
13.3957	20.1381
13.1912	22.4047
12.9929	24.102
12.8004	20.0131
12.6135	20.5285
12.432	21.0273
12.2557	21.4843
12.0843	21.9323
11.9176	22.4623
11.7555	23.0021
11.5977	23.4843
11.444	24.1476
11.2944	25.0087
11.1487	26.038
11.0067	27.6674
10.8682	31.9286
10.7332	26.5082
10.6015	27.8266
10.473	33.4237
10.3476	40.4838
10.2251	48.4696
10.1056	57.4061
9.9887	61.5831
9.8746	60.8272
9.763	50.2601
9.6539	42.9857
9.5472	45.9696
9.4429	52.3141
9.3408	56.3976
9.2409	56.4842
9.1431	53.8331
9.0474	50.8194
8.9536	49.6854
8.8618	47.9818
8.7718	46.5463
8.6837	43.8641
8.5973	37.7621
8.5126	28.3161
8.4295	22.8146
8.3481	16.8501
8.2682	11.1887
8.1898	7.8166
8.1129	8.2849
8.0374	9.4785
7.9634	10.4367
7.8906	11.1909
7.8192	11.8325
7.7491	12.3071
7.6802	12.7258
7.6126	13.1242
7.5461	13.4487
7.4807	13.6858
7.4165	13.9887
7.3534	14.1997
7.2914	14.4008
7.2303	14.6137
7.1703	14.6753
7.1113	14.8952
7.0533	14.9423
6.9962	15.1806
6.94	15.3647
6.8847	15.479
6.8302	15.529
6.7767	15.5996
6.7239	15.6479
6.672	15.8505
6.6209	15.9702
6.5705	15.9502
6.5209	16.1069
6.4721	16.2277
6.424	16.2456
6.3766	16.3891
6.3299	16.5715
6.2838	16.6323
6.2385	16.6596
6.1937	16.6357
6.1496	16.719
6.1062	16.7104
6.0633	16.7812
6.0211	16.7548
5.9794	16.7981
5.9383	16.5092
5.8978	16.6198
5.8578	16.769
5.8184	16.7478
5.7794	16.8134
5.741	16.8994
5.7031	16.9353
5.6657	16.9257
5.6288	16.9348
5.5924	16.9939
5.5564	16.9782
5.5209	17.0385
5.4859	17.0803
5.4513	17.1486
5.4171	17.1667
5.3833	17.2053
5.35	17.1318
5.3171	17.2399
5.2846	17.2683
5.2524	17.2963
5.2207	17.2963
5.1893	17.3444
5.1584	17.343
5.1277	17.3303
5.0975	17.3222
5.0676	17.3064
5.038	17.2773
5.0088	17.2627
4.98	17.248
4.9514	17.2397
4.9232	17.2329
4.8953	17.2146
4.8678	17.2111
4.8405	17.2075
4.8135	17.2202
4.7868	17.2202
4.7605	17.2148
4.7344	17.2275
4.7086	17.2343
4.6831	17.2485
4.6578	17.2612
4.6328	17.2981
4.6081	17.3071
4.5837	17.331
4.5595	17.3603
4.5356	17.3584
4.5119	17.3613
4.4884	17.3759
4.4652	17.4121
4.4423	17.414
4.4196	17.4372
4.3971	17.4375
4.3748	17.4218
4.3528	17.5024
4.331	17.6311
4.3094	17.8418
4.288	18.0918
4.2668	18.1313
4.2458	18.2426
4.2251	18.3447
4.2045	17.6379
4.1841	17.3271
4.164	17.322
4.144	17.3208
4.1242	17.3115
4.1046	17.3169
4.0852	17.3305
4.066	17.3017
4.047	17.3181
4.0281	17.3212
4.0094	17.3208
3.9909	17.3403
3.9725	17.3447
3.9544	17.351
3.9363	17.3613
3.9185	17.3564
3.9008	17.3481
3.8833	17.3383
3.8659	17.3335
3.8487	17.3315
3.8316	17.3227
3.8147	17.3178
3.7979	17.3159
3.7813	17.3183
3.7648	17.2915
3.7485	17.2832
3.7323	17.2607
3.7162	17.2651
3.7003	17.248
3.6845	17.2348
3.6689	17.2373
3.6534	17.2124
3.638	17.2031
3.6227	17.2109
3.6076	17.1987
3.5926	17.1945
3.5777	17.1814
3.563	17.1757
3.5484	17.1665
3.5338	17.1962
3.5195	17.2255
3.5052	17.2648
3.491	17.1599
3.477	17.1381
3.463	17.1652
3.4492	17.1953
3.4355	17.2558
3.4219	17.2951
3.4084	17.1291
3.395	17.0109
3.3817	17.0012
3.3685	16.9455
3.3554	16.8979
3.3425	16.8723
3.3296	16.8635
3.3168	16.8566
3.3041	16.8303
3.2915	16.8315
3.279	16.8125
3.2666	16.8166
3.2543	16.7763
3.2421	16.76
3.23	16.7463
3.218	16.716
3.206	16.7006
3.1942	16.6809
3.1824	16.6565
3.1707	16.6135
3.1591	16.6093
3.1476	16.6259
3.1362	16.6135
3.1249	16.6147
3.1136	16.5744
3.1024	16.5463
3.0913	16.5346
3.0803	16.521
3.0694	16.5019
3.0585	16.4746
3.0477	16.477
3.037	16.4458
3.0264	16.4355
3.0158	16.4033
3.0053	16.4025
2.9949	16.3769
2.9845	16.3076
2.9743	16.3212
2.9641	16.2893
2.9539	16.2717
2.9439	16.2343
2.9339	16.2197
2.9239	16.1545
2.9141	16.1406
2.9043	16.1045
2.8946	16.0959
2.8849	16.05
2.8753	16.0354
2.8658	16.0295
2.8563	15.9658
2.8469	15.9492
2.8375	15.9287
2.8282	15.8586
2.819	15.9028
2.8098	15.8774
2.8007	15.9824
2.7917	15.8466
2.7827	15.8154
2.7738	15.8017
2.7649	15.7783
2.7561	15.5649
2.7473	15.7954
2.7386	15.8642
2.7299	15.8852
2.7213	15.7949
2.7128	15.393
2.7043	15.582
2.6959	15.4511
2.6875	15.5317
2.6791	15.5039
2.6709	15.1611
2.6626	15.6425
2.6545	15.5732
2.6463	15.458
2.6382	15.5586
2.6302	15.3418
2.6222	15.5078
2.6143	15.6001
2.6064	15.4199
2.5986	15.4336
2.5908	15.498
2.583	15.4209
2.5753	15.5415
2.5677	15.4419
2.5601	15.4472
2.5525	15.3379
2.545	15.3945
2.5375	15.4199
2.5301	15.4087
2.5227	15.4062
2.5154	15.3662
2.5081	15.4023
2.5008	15.3711
2.4936	15.3989
2.4864	15.3481
2.4793	15.332
2.4722	15.352
2.4651	15.3339
2.4581	15.375
2.4511	15.3462
2.4442	15.3496
2.4373	15.3501
2.4305	15.3847
2.4236	15.354
2.4169	15.3671
2.4101	15.3598
2.4034	15.3481
2.3967	15.3222
2.3901	15.2876
2.3835	15.2758
2.377	15.3169
2.3704	15.3188
2.364	15.3164
2.3575	15.3115
2.3511	15.3564
2.3447	15.3652
2.3384	15.3212
2.3321	15.3046
2.3258	15.3183
2.3195	15.2949
2.3133	15.2285
2.3071	15.2666
2.301	15.2968
2.2949	15.2714
2.2888	15.3164
2.2828	15.3369
2.2767	15.3623
2.2708	15.3242
2.2648	15.3613
2.2589	15.3593
2.253	15.4121
2.2471	15.414
2.2413	15.3711
2.2355	15.3798
2.2297	15.4072
2.224	15.4384
2.2183	15.3457
2.2126	15.4531
2.207	15.4306
2.2013	15.3457
2.1957	15.4023
2.1902	15.4453
2.1846	15.3837
2.1791	15.4179
2.1736	15.3613
2.1682	15.3994
2.1628	15.4619
2.1574	15.3056
2.152	15.333
2.1466	15.4179
2.1413	15.3525
2.136	15.4453
2.1308	15.3613
2.1255	15.4072
2.1203	15.3418
2.1151	15.3525
2.11	15.3955
2.1048	15.3535
2.0997	15.33
2.0946	15.332
2.0895	15.4199
2.0845	15.3486
2.0795	15.3515
