Name: Hornblende Ca2(Fe+2,Mg)4Al(Si7Al)O22(OH,F)2
Type: Mineral
Class: Silicate
Subclass: Inosilicate
Particle Size: Fine
Sample No.: hornblen_1
Owner: JHU
Wavelength Range: TIR
Origin: Gore Mountain, New York via Hunt and Salisbury Collection,#177B (Purchased from Ward's Natural Science Establishment)
Description: The specimen was a cluster of very dark green single crystals half a centimeter to one centimeter in length and almost as wide.(Amphibole Group)Particle size was Less than 2 micrometers. Original ASTER Spectral Library name was jhu.nicolet.mineral.silicate.inosilicate.powder.hornbl1.spectrum.txt
Measurement: Transmission
X Units: Wavelength (micrometers)
Y Units: Transmittance (percent)
wavelength	value
25.0442	65.2655
24.3388	61.4686
23.6719	57.9256
23.0407	53.6112
22.4422	48.8749
21.8741	43.1952
21.334	39.5487
20.8199	41.3124
20.33	44.5311
19.8627	44.5429
19.4163	44.0829
18.9896	46.7782
18.5812	51.7704
18.19	57.9383
17.815	64.0076
17.4551	68.2274
17.1094	70.992
16.7772	72.3514
16.4576	72.6453
16.15	72.3992
15.8537	72.2811
15.568	73.0135
15.2925	73.0164
15.0265	72.1248
14.7697	71.741
14.5214	72.0027
14.2814	72.2586
14.0492	73.1619
13.8244	73.9373
13.6067	73.4476
13.3957	73.6092
13.1912	74.4222
12.9929	75.2308
12.8004	75.24
12.6135	75.844
12.432	76.4202
12.2557	76.9793
12.0843	75.7034
11.9176	72.0628
11.7555	66.7557
11.5977	61.0863
11.444	56.5257
11.2944	53.3714
11.1487	49.8173
11.0067	45.2968
10.8682	40.2704
10.7332	34.7177
10.6015	30.1098
10.473	27.9003
10.3476	26.434
10.2251	24.977
10.1056	24.1718
9.9887	25.5527
9.8746	27.874
9.763	29.5107
9.6539	30.5019
9.5472	31.4618
9.4429	32.8066
9.3408	35.0356
9.2409	38.5653
9.1431	43.1215
9.0474	48.6644
8.9536	54.5321
8.8618	59.4403
8.7718	64.3343
8.6837	68.8475
8.5973	72.617
8.5126	76.3616
8.4295	80.1199
8.3481	83.7969
8.2682	86.9099
8.1898	89.2405
8.1129	90.8875
8.0374	92.0076
7.9634	92.6502
7.8906	93.0723
7.8192	93.49
7.7491	93.9836
7.6802	94.1943
7.6126	94.3416
7.5461	94.5117
7.4807	94.7129
7.4165	94.7061
7.3534	94.6116
7.2914	94.4258
7.2303	94.2068
7.1703	93.6709
7.1113	93.3438
7.0533	93.0896
6.9962	93.2361
6.94	93.4744
6.8847	93.7947
6.8302	94.2039
6.7767	94.8113
6.7239	95.0938
6.672	95.0828
6.6209	95.0471
6.5705	95.0667
6.5209	94.8772
6.4721	94.4346
6.424	93.9627
6.3766	93.366
6.3299	92.7285
6.2838	92.0496
6.2385	91.2402
6.1937	90.3884
6.1496	89.7332
6.1062	90.1228
6.0633	91.0498
6.0211	92.2627
5.9794	93.7197
5.9383	95.1592
5.8978	96.0828
5.8578	96.6123
5.8184	97.2615
5.7794	97.7136
5.741	98.0576
5.7031	98.2869
5.6657	98.427
5.6288	98.5762
5.5924	98.6182
5.5564	98.5781
5.5209	98.7205
5.4859	98.8035
5.4513	98.8918
5.4171	98.9597
5.3833	98.9333
5.35	99.0085
5.3171	99.0525
5.2846	99.0603
5.2524	99.0906
5.2207	99.1289
5.1893	99.1648
5.1584	99.1882
5.1277	99.1865
5.0975	99.1882
5.0676	99.2048
5.038	99.2287
5.0088	99.2424
4.98	99.2751
4.9514	99.2927
4.9232	99.2678
4.8953	99.3
4.8678	99.324
4.8405	99.3567
4.8135	99.3454
4.7868	99.3953
4.7605	99.4177
4.7344	99.4319
4.7086	99.4084
4.6831	99.3811
4.6578	99.3679
4.6328	99.405
4.6081	99.3733
4.5837	99.405
4.5595	99.3537
4.5356	99.3142
4.5119	99.2961
4.4884	99.282
4.4652	99.2107
4.4423	99.199
4.4196	99.1941
4.3971	99.1838
4.3748	99.1843
4.3528	99.114
4.331	99.0705
4.3094	99.032
4.288	99.0124
4.2668	98.9988
4.2458	99.0515
4.2251	99.0583
4.2045	98.9538
4.1841	98.9372
4.164	98.9656
4.144	98.967
4.1242	98.9182
4.1046	98.9392
4.0852	98.9792
4.066	98.9236
4.047	98.9099
4.0281	98.8982
4.0094	98.7888
3.9909	98.6746
3.9725	98.6687
3.9544	98.7019
3.9363	98.6902
3.9185	98.7283
3.9008	98.6072
3.8833	98.4958
3.8659	98.4241
3.8487	98.3767
3.8316	98.283
3.8147	98.1765
3.7979	98.1038
3.7813	98.0369
3.7648	97.8718
3.7485	97.7522
3.7323	97.5984
3.7162	97.4592
3.7003	97.2966
3.6845	97.1995
3.6689	97.0759
3.6534	96.9646
3.638	96.762
3.6227	96.6404
3.6076	96.4402
3.5926	96.3201
3.5777	96.1374
3.563	95.9963
3.5484	95.7478
3.5338	95.4397
3.5195	95.0393
3.5052	94.2087
3.491	94.2507
3.477	94.3167
3.463	94.1794
3.4492	93.8552
3.4355	93.2581
3.4219	92.2835
3.4084	92.2058
3.395	92.6697
3.3817	92.6448
3.3685	92.7249
3.3554	92.6453
3.3425	92.5603
3.3296	92.3948
3.3168	92.242
3.3041	92.0173
3.2915	91.8284
3.279	91.6951
3.2666	91.406
3.2543	91.0681
3.2421	90.8152
3.23	90.5388
3.218	90.3132
3.206	89.9265
3.1942	89.7088
3.1824	89.3816
3.1707	89.073
3.1591	88.6687
3.1476	88.2566
3.1362	87.9646
3.1249	87.5691
3.1136	87.1677
3.1024	86.7302
3.0913	86.3396
3.0803	85.8836
3.0694	85.5359
3.0585	85.242
3.0477	84.9656
3.037	84.5525
3.0264	84.1873
3.0158	83.6619
3.0053	82.9851
2.9949	82.2478
2.9845	81.5281
2.9743	80.6834
2.9641	79.6463
2.9539	78.9139
2.9439	78.2244
2.9339	77.5594
2.9239	77.24
2.9141	77.1219
2.9043	77.2791
2.8946	77.4998
2.8849	77.783
2.8753	78.2312
2.8658	78.6795
2.8563	79.0994
2.8469	79.7391
2.8375	80.4764
2.8282	81.2898
2.819	82.1873
2.8098	83.115
2.8007	84.0906
2.7917	85.4099
2.7827	86.7263
2.7738	88.0945
2.7649	89.5828
2.7561	91.1921
2.7473	92.532
2.7386	93.7429
2.7299	94.8904
2.7213	95.6794
2.7128	96.3396
2.7043	97.1843
2.6959	97.9148
2.6875	98.3943
2.6791	98.696
2.6709	98.8201
2.6626	98.8787
2.6545	98.8992
2.6463	98.8591
2.6382	98.9177
2.6302	98.8611
2.6222	98.8923
2.6143	98.8259
2.6064	98.8708
2.5986	98.8083
2.5908	99.0701
2.583	99.113
2.5753	98.9431
2.5677	98.8083
2.5601	98.9372
2.5525	98.9333
2.545	98.9685
2.5375	98.9841
2.5301	98.8122
2.5227	98.7673
2.5154	98.9626
2.5081	99.0095
2.5008	99.113
2.4936	98.9626
2.4864	98.8083
2.4793	99.1658
2.4722	99.072
2.4651	99.0486
2.4581	99.2126
2.4511	99.0974
2.4442	98.8064
2.4373	99.1443
2.4305	99.1423
2.4236	98.9236
2.4169	99.0017
2.4101	99.1872
2.4034	98.8904
2.3967	98.9529
2.3901	98.9001
2.3835	98.9685
2.377	99.197
2.3704	99.2751
2.364	99.0954
2.3575	98.9001
2.3511	98.8298
2.3447	98.9724
2.3384	98.9607
2.3321	98.8982
2.3258	98.8298
2.3195	99.1111
2.3133	99.0329
2.3071	98.9704
2.301	98.9626
2.2949	99.2126
2.2888	99.0154
2.2828	98.8826
2.2767	98.9079
2.2708	98.9763
2.2648	98.8865
2.2589	99.0427
2.253	98.9685
2.2471	98.6013
2.2413	98.8708
2.2355	99.0818
2.2297	98.7732
2.224	98.6872
2.2183	98.613
2.2126	98.7185
2.207	98.9333
2.2013	98.9685
2.1957	98.7537
2.1902	98.9138
2.1846	98.7029
2.1791	98.7263
2.1736	99.0466
2.1682	98.9763
2.1628	99.1638
2.1574	98.6951
2.152	98.8279
2.1466	98.7888
2.1413	98.8044
2.136	98.7849
2.1308	98.8669
2.1255	98.7576
2.1203	99.0544
2.1151	98.8122
2.11	98.7224
2.1048	98.7263
2.0997	98.7849
2.0946	98.6091
2.0895	98.8747
2.0845	98.8318
2.0795	98.6247
