Name: Labradorite (Feldspar) (NaSi,CaAl)AlSi_2O_8
Type: Mineral
Class: Silicate
Subclass: Tectosilicate
Particle Size: Fine
Sample No.: TS-2B
Owner: JPL
Wavelength Range: VSWIR
Origin: Canada, Quebec, Lake St. John
Description: Particle size was 0-45um.Collected by Ward's Original ASTER Spectral Library name was jpl.beckman.mineral.silicate.tectosilicate.fine.ts02b.spectrum.txt
Measurement: Hemispherical reflectance
X Units: Wavelength (micrometers)
Y Units: Reflectance (percent)
wavelength	value
0.4	45.36
0.403	45.27
0.406	45.33
0.409	45.78
0.412	45.78
0.415	45.78
0.418	45.87
0.421	46.13
0.424	46.23
0.427	46.1
0.43	46.14
0.433	46.31
0.436	46.19
0.439	46.22
0.442	46.23
0.445	46.34
0.448	46.37
0.451	46.34
0.454	46.36
0.457	46.54
0.46	46.48
0.463	46.48
0.466	46.42
0.469	46.42
0.472	46.43
0.475	46.58
0.478	46.55
0.481	46.5
0.484	46.56
0.487	46.56
0.49	46.72
0.493	46.54
0.496	46.45
0.499	46.46
0.502	46.73
0.505	46.7
0.508	46.55
0.511	46.55
0.514	46.79
0.517	46.76
0.52	46.67
0.523	46.79
0.526	46.93
0.529	46.76
0.532	46.79
0.535	46.78
0.538	47.02
0.541	46.99
0.544	46.99
0.547	46.99
0.55	46.93
0.553	47.11
0.556	47.33
0.559	47.28
0.562	47.76
0.565	47.59
0.568	47.59
0.571	47.59
0.574	47.66
0.577	47.67
0.58	47.55
0.583	47.52
0.586	47.74
0.589	47.73
0.592	47.71
0.595	47.88
0.598	48.11
0.601	48.09
0.604	48.05
0.607	48.2
0.61	48.22
0.613	48.28
0.616	48.13
0.619	48.22
0.622	48.42
0.625	48.42
0.628	48.45
0.631	48.51
0.634	48.68
0.637	48.71
0.64	48.54
0.643	48.69
0.646	48.8
0.649	48.9
0.652	48.85
0.655	48.8
0.658	48.91
0.661	48.99
0.664	48.85
0.667	48.96
0.67	49.06
0.673	49.13
0.676	49.1
0.679	49.22
0.682	49.23
0.685	49.38
0.688	49.54
0.691	49.39
0.694	49.34
0.697	49.42
0.7	49.35
0.703	49.39
0.706	49.51
0.709	49.7
0.712	49.74
0.715	49.77
0.718	49.74
0.721	49.79
0.724	50.03
0.727	50.1
0.73	50.11
0.733	50.14
0.736	50.25
0.739	50.37
0.742	50.47
0.745	50.42
0.748	50.36
0.751	50.55
0.754	50.67
0.757	50.66
0.76	50.53
0.763	50.75
0.766	50.78
0.769	50.85
0.772	50.75
0.775	50.95
0.778	50.97
0.781	50.98
0.784	50.97
0.787	51.11
0.79	51.26
0.793	51.2
0.796	51.24
0.799	51.46
0.808	51.69
0.82	51.72
0.832	51.88
0.844	51.95
0.856	52.02
0.868	52.06
0.88	52.12
0.892	52.21
0.904	52.16
0.916	52.1
0.928	52.16
0.94	52.21
0.952	52.15
0.964	52.13
0.976	52.08
0.988	52.12
1	52
1.012	51.92
1.024	51.85
1.036	51.78
1.048	51.77
1.06	51.61
1.072	51.56
1.084	51.48
1.096	51.36
1.108	51.28
1.12	51.3
1.132	51.17
1.144	50.97
1.156	50.89
1.168	50.85
1.18	50.88
1.192	50.77
1.204	50.7
1.216	50.64
1.228	50.65
1.24	50.55
1.252	50.47
1.264	50.46
1.276	50.44
1.288	50.37
1.3	50.39
1.312	50.27
1.324	50.24
1.336	50.15
1.348	50.1
1.36	50.1
1.372	50.02
1.384	49.99
1.396	49.93
1.408	49.83
1.42	49.87
1.432	49.94
1.444	49.86
1.456	49.92
1.468	49.9
1.48	49.9
1.492	49.96
1.504	49.92
1.516	49.91
1.528	49.93
1.54	49.82
1.552	49.88
1.564	49.85
1.576	49.81
1.588	49.88
1.6	49.87
1.612	49.86
1.624	49.76
1.636	49.77
1.648	49.86
1.66	49.89
1.672	49.92
1.684	49.83
1.696	49.89
1.708	49.91
1.72	49.97
1.732	49.91
1.744	49.89
1.756	49.83
1.768	49.9
1.78	49.84
1.792	49.99
1.804	50.03
1.816	50
1.828	49.95
1.84	49.98
1.852	49.99
1.864	49.98
1.876	49.98
1.888	49.87
1.9	49.96
1.912	49.87
1.924	49.91
1.936	49.9
1.948	49.97
1.96	49.98
1.972	50
1.984	50.14
1.996	50.29
2.008	50.27
2.02	50.43
2.032	50.46
2.044	50.49
2.056	50.51
2.068	50.46
2.08	50.6
2.092	50.7
2.104	50.8
2.116	50.89
2.128	50.84
2.14	50.87
2.152	50.86
2.164	50.78
2.176	50.7
2.188	50.63
2.2	50.68
2.212	50.62
2.224	50.57
2.236	50.69
2.248	50.74
2.26	50.77
2.272	50.83
2.284	50.92
2.296	50.91
2.308	50.9
2.32	51.06
2.332	51.03
2.344	51
2.356	51.09
2.368	51.12
2.38	51.2
2.392	51.19
2.404	51.21
2.416	51.21
2.428	51.18
2.44	51.18
2.452	51.22
2.464	51.19
2.476	51.17
2.488	51.38
2.5	51.52
