Name: Calcite CaCO_3
Type: Mineral
Class: Carbonate
Subclass: None
Particle Size: Coarse
Sample No.: C-3D
Owner: JPL
Wavelength Range: VSWIR
Origin: United Kingdom, England
Description: Particle size was 125-500um.Collected by Ward's Original ASTER Spectral Library name was jpl.beckman.mineral.carbonate.none.coarse.c03d.spectrum.txt
Measurement: Hemispherical reflectance
X Units: Wavelength (micrometers)
Y Units: Reflectance (percent)
wavelength	value
0.4	49.24
0.403	49.47
0.406	50.38
0.409	50.5
0.412	51.13
0.415	51.48
0.418	51.93
0.421	52.33
0.424	52.62
0.427	52.97
0.43	53.24
0.433	53.94
0.436	53.99
0.439	54.62
0.442	54.73
0.445	55.19
0.448	55.6
0.451	55.77
0.454	56
0.457	56.23
0.46	56.86
0.463	56.99
0.466	57.38
0.469	57.51
0.472	58.07
0.475	57.91
0.478	58.54
0.481	58.43
0.484	59.07
0.487	58.96
0.49	59.53
0.493	59.43
0.496	59.94
0.499	60.06
0.502	60.51
0.505	60.51
0.508	61.03
0.511	61.32
0.514	61.49
0.517	61.78
0.52	62.12
0.523	62.4
0.526	62.46
0.529	62.86
0.532	62.92
0.535	63.38
0.538	63.32
0.541	63.83
0.544	63.78
0.547	64.18
0.55	64.47
0.553	64.41
0.556	65.04
0.559	64.81
0.562	65.33
0.565	65.55
0.568	65.78
0.571	65.72
0.574	65.95
0.577	65.9
0.58	66.3
0.583	66.36
0.586	66.47
0.589	66.88
0.592	66.76
0.595	67.33
0.598	67.15
0.601	67.73
0.604	67.73
0.607	67.73
0.61	68.08
0.613	68.02
0.616	68.48
0.619	68.19
0.622	68.59
0.625	68.59
0.628	68.81
0.631	68.99
0.634	69.16
0.637	69.28
0.64	69.45
0.643	69.74
0.646	69.62
0.649	70.14
0.652	70.02
0.655	70.59
0.658	70.25
0.661	70.65
0.664	70.71
0.667	71.17
0.67	71.22
0.673	71.4
0.676	71.57
0.679	71.57
0.682	71.97
0.685	71.63
0.688	72.14
0.691	72.14
0.694	72.6
0.697	72.65
0.7	72.65
0.703	72.77
0.706	73.11
0.709	72.94
0.712	73.52
0.715	73.52
0.718	73.69
0.721	74.26
0.724	74.03
0.727	74.49
0.73	74.26
0.733	74.78
0.736	74.55
0.739	74.72
0.742	74.72
0.745	74.83
0.748	75.4
0.751	75.12
0.754	75.63
0.757	75.57
0.76	75.86
0.763	75.92
0.766	76.09
0.769	76.03
0.772	76.09
0.775	76.26
0.778	76.09
0.781	76.49
0.784	76.38
0.787	76.9
0.79	76.61
0.793	76.9
0.796	77.06
0.799	77.29
0.808	77.58
0.82	78.1
0.832	78.38
0.844	78.72
0.856	79.07
0.868	79.41
0.88	79.64
0.892	79.87
0.904	80.22
0.916	80.28
0.928	80.44
0.94	80.73
0.952	81.07
0.964	81.3
0.976	81.36
0.988	81.42
1	81.65
1.012	81.88
1.024	82.1
1.036	82.16
1.048	82.33
1.06	82.33
1.072	82.62
1.084	82.5
1.096	82.73
1.108	82.91
1.12	82.96
1.132	83.19
1.144	83.19
1.156	83.24
1.168	83.33
1.18	83.37
1.192	83.47
1.204	83.74
1.216	83.68
1.228	83.85
1.24	84.02
1.252	84.08
1.264	84.23
1.276	84.32
1.288	84.3
1.3	84.22
1.312	84.49
1.324	84.41
1.336	84.45
1.348	84.36
1.36	84.54
1.372	84.25
1.384	83.8
1.396	82.94
1.408	82.16
1.42	82.06
1.432	82.3
1.444	82.27
1.456	82.5
1.468	82.79
1.48	83.02
1.492	83.31
1.504	83.6
1.516	83.93
1.528	84.11
1.54	84.22
1.552	84.45
1.564	84.51
1.576	84.57
1.588	84.57
1.6	84.74
1.612	84.89
1.624	84.81
1.636	84.8
1.648	84.77
1.66	84.8
1.672	84.84
1.684	84.82
1.696	84.51
1.708	84.51
1.72	84.4
1.732	84.23
1.744	84.28
1.756	84.11
1.768	84.23
1.78	84.28
1.792	84.05
1.804	84.14
1.816	84
1.828	83.58
1.84	83.04
1.852	82.64
1.864	81.3
1.876	79.7
1.888	78.37
1.9	76.53
1.912	75.16
1.924	74.85
1.936	75.06
1.948	75.44
1.96	75.56
1.972	76.02
1.984	76.3
1.996	76.81
2.008	77.63
2.02	78.47
2.032	79.2
2.044	79.68
2.056	79.87
2.068	80.16
2.08	80.4
2.092	80.41
2.104	80.71
2.116	80.71
2.128	80.55
2.14	80.07
2.152	79.74
2.164	79.81
2.176	80.11
2.188	79.77
2.2	79.4
2.212	78.8
2.224	78.07
2.236	77.41
2.248	76.36
2.26	74.77
2.272	72.68
2.284	70.74
2.296	68.7
2.308	67.13
2.32	64.92
2.332	63.93
2.344	64.79
2.356	68.15
2.368	71.79
2.38	73.94
2.392	74.42
2.404	74.08
2.416	73.28
2.428	71.87
2.44	69.98
2.452	67.42
2.464	64.74
2.476	61.86
2.488	59.29
2.5	57
