Name: Chalcocite Cu_2S
Type: Mineral
Class: Sulfide
Subclass: None
Particle Size: Coarse
Sample No.: S-8A
Owner: JPL
Wavelength Range: VSWIR
Origin: USA, Alaska, Kennecott.
Description: Particle size was 125-500um. Collected by:  Burminco Original ASTER Spectral Library name was jpl.perkin.mineral.sulfide.none.coarse.s08a.spectrum.txt
Measurement: Hemispherical reflectance
X Units: Wavelength (micrometers)
Y Units: Reflectance (percent)
wavelength	value
2.5	6.4455
2.494	6.2149
2.488	6.161
2.482	6.3108
2.476	6.3018
2.47	6.5064
2.464	6.387
2.458	6.3731
2.452	6.3874
2.446	6.3838
2.44	6.464
2.434	6.4205
2.428	6.3248
2.422	6.3699
2.416	6.3481
2.41	6.2976
2.404	6.4295
2.398	6.2957
2.392	6.402
2.386	6.3878
2.38	6.3451
2.374	6.4018
2.368	6.3956
2.362	6.4012
2.356	6.3088
2.35	6.3398
2.344	6.3387
2.338	6.3549
2.332	6.3241
2.326	6.3168
2.32	6.2822
2.314	6.3134
2.308	6.2527
2.302	6.2511
2.296	6.2599
2.29	6.2725
2.284	6.2442
2.278	6.2226
2.272	6.2183
2.266	6.2259
2.26	6.235
2.254	6.2827
2.248	6.2257
2.242	6.1954
2.236	6.227
2.23	6.1992
2.224	6.2645
2.218	6.1738
2.212	6.1902
2.206	6.1872
2.2	6.1683
2.194	6.1302
2.188	6.1727
2.182	6.1158
2.176	6.1541
2.17	6.1935
2.164	6.1938
2.158	6.1615
2.152	6.1908
2.146	6.181
2.14	6.1565
2.134	6.1283
2.128	6.1203
2.122	6.0872
2.116	6.0687
2.11	6.0485
2.104	5.9746
2.098	5.9523
2.092	5.9571
2.086	5.9448
2.08	5.9494
2.074	5.9533
2.068	5.9284
2.062	5.9802
2.056	5.89
2.05	5.9519
2.044	5.9295
2.038	5.9207
2.032	5.8959
2.026	5.8977
2.02	5.9119
2.014	5.8476
2.008	5.883
2.002	5.8527
1.996	5.8296
1.99	5.8239
1.984	5.8762
1.978	5.8817
1.972	5.8262
1.966	5.7016
1.96	5.7724
1.954	5.7895
1.948	5.8111
1.942	5.7747
1.936	5.716
1.93	5.7768
1.924	5.6971
1.918	5.7531
1.912	5.6761
1.906	5.7041
1.9	5.6979
1.894	5.7042
1.888	5.7031
1.882	5.7403
1.876	5.7006
1.87	5.5933
1.864	5.7486
1.858	5.6861
1.852	5.7378
1.846	5.7465
1.84	5.6882
1.834	5.7464
1.828	5.7686
1.822	5.7337
1.816	5.7478
1.81	5.7369
1.804	5.8003
1.798	5.7614
1.792	5.7483
1.786	5.7787
1.78	5.723
1.774	5.7334
1.768	5.7393
1.762	5.6973
1.756	5.7395
1.75	5.6748
1.744	5.7303
1.738	5.7463
1.732	5.8432
1.726	5.7402
1.72	5.7363
1.714	5.7364
1.708	5.6937
1.702	5.7931
1.696	5.8132
1.69	5.784
1.684	5.7478
1.678	5.7438
1.672	5.7414
1.666	5.7922
1.66	5.9239
1.654	5.8032
1.648	5.7941
1.642	5.9691
1.636	5.7907
1.63	5.8139
1.624	5.8715
1.618	5.8038
1.612	5.7782
1.606	5.8364
1.6	5.8074
1.594	5.881
1.588	5.8438
1.582	5.8225
1.576	5.8247
1.57	5.8413
1.564	5.8504
1.558	5.7998
1.552	5.7969
1.546	5.824
1.54	5.8409
1.534	5.8467
1.528	5.8127
1.522	5.7964
1.516	5.8193
1.51	5.855
1.504	5.8005
1.498	5.847
1.492	5.8365
1.486	5.872
1.48	5.8576
1.474	5.8725
1.468	5.8985
1.462	5.8836
1.456	5.8808
1.45	5.8358
1.444	5.8072
1.438	5.867
1.432	5.8719
1.426	5.8556
1.42	5.9046
1.414	5.9112
1.408	5.8386
1.402	5.9642
1.396	5.8756
1.39	5.9174
1.384	5.931
1.378	5.8955
1.372	5.8115
1.366	5.9119
1.36	5.9176
1.354	5.9311
1.348	5.9891
1.342	5.9025
1.336	5.9901
1.33	6.0624
1.324	6.0039
1.318	6.0388
1.312	6.0456
1.306	6.0007
1.3	6.0276
1.294	6.0646
1.288	6.0138
1.282	6.07
1.276	6.0597
1.27	6.1097
1.264	6.1289
1.258	6.1336
1.252	6.1293
1.246	6.1412
1.24	6.1094
1.234	6.1374
1.228	6.0919
1.222	6.1654
1.216	6.2204
1.21	6.1807
1.204	6.2258
1.198	6.2457
1.192	6.2239
1.186	6.2724
1.18	6.2479
1.174	6.2573
1.168	6.2778
1.162	6.2877
1.156	6.3012
1.15	6.35
1.144	6.2377
1.138	6.283
1.132	6.3439
1.126	6.3428
1.12	6.3369
1.114	6.3962
1.108	6.3979
1.102	6.4708
1.096	6.4397
1.09	6.387
1.084	6.3728
1.078	6.4579
1.072	6.4618
1.066	6.5271
1.06	6.4059
1.054	6.4235
1.048	6.3439
1.042	6.3568
1.036	6.2455
1.03	6.3285
1.024	6.326
1.018	6.2842
1.012	6.2363
1.006	6.229
1	6.1959
0.994	6.1388
0.988	6.1349
0.982	6.1835
0.976	6.0734
0.97	6.1155
0.964	6.0854
0.958	5.9488
0.952	6.0912
0.946	6.0561
0.94	5.9464
0.934	5.9723
0.928	5.9543
0.922	5.9753
0.916	5.8721
0.91	5.8722
0.904	5.8589
0.898	5.8398
0.892	5.8736
0.886	5.8652
0.88	5.822
0.874	5.8219
0.868	5.8937
0.862	5.7971
0.856	6.0668
0.85	6.0604
0.844	6.0697
0.838	6.0656
0.832	6.0705
0.826	6.0815
0.82	6.0707
0.814	6.0812
0.808	6.0752
0.802	6.0807
0.796	6.0849
0.79	6.0906
0.784	6.0923
0.778	6.1001
0.772	6.103
0.766	6.1108
0.76	6.1022
0.754	6.1157
0.748	6.1206
0.742	6.1244
0.736	6.1246
0.73	6.1304
0.724	6.1348
0.718	6.1375
0.712	6.1379
0.706	6.1423
0.7	6.1476
0.694	6.1506
0.688	6.1596
0.682	6.164
0.676	6.1706
0.67	6.1784
0.664	6.1901
0.658	6.2054
0.652	6.2187
0.646	6.2311
0.64	6.246
0.634	6.26
0.628	6.2807
0.622	6.298
0.616	6.3144
0.61	6.3314
0.604	6.3453
0.598	6.3599
0.592	6.3725
0.586	6.3769
0.58	6.3814
0.574	6.3822
0.568	6.3873
0.562	6.3913
0.556	6.3911
0.55	6.4022
0.544	6.415
0.538	6.4311
0.532	6.4469
0.526	6.4705
0.52	6.4944
0.514	6.5214
0.508	6.5458
0.502	6.567
0.496	6.593
0.49	6.6126
0.484	6.6276
0.478	6.6563
0.472	6.6815
0.466	6.7076
0.46	6.7309
0.454	6.7563
0.448	6.7678
0.442	6.7763
0.436	6.7853
0.43	6.7872
0.424	6.7903
0.418	6.7928
0.412	6.7976
0.406	6.8141
0.4	6.8339
