Name: Diopside CaMgSi2O6
Type: Mineral
Class: Silicate
Subclass: Inosilicate
Particle Size: Fine
Sample No.: diopside_2
Owner: JHU
Wavelength Range: TIR
Origin: Sample from DeKalb, New York via the Smithsonian (sampleno. NMNH R18685).
Description: Most of the 13 mm x 10 mm x 6 mm sample was clean, fresh and green.  One area was eroded and weathered and probably impure.  The crushed sample was hand-picked to avoid impurities.  A moderate amount of weathering and alteration can be seen under the microscope.  The alteration is brown in color (limonite). Particle size was less than 2 Micrometers.(Chain Silicates) (Pyroxene Group) Original ASTER Spectral Library name was jhu.nicolet.mineral.silicate.inosilicate.powder.diopsi2.spectrum.txt
Measurement: Transmission
X Units: Wavelength (micrometers)
Y Units: Transmittance (percent)
wavelength	value
25.044	47.14
24.339	49.672
23.672	63.32
23.041	60.152
22.442	51.447
21.874	37.838
21.334	30.135
20.82	27.189
20.33	33.004
19.863	38.096
19.416	31.015
18.99	35.891
18.581	41.375
18.19	53.743
17.815	69.04
17.455	78.813
17.109	84.504
16.777	87.666
16.458	88.851
16.15	86.795
15.854	71.523
15.568	76.809
15.292	88.263
15.027	85.901
14.77	79.929
14.521	90.157
14.281	91.527
14.049	92.382
13.824	92.302
13.607	92.039
13.396	91.021
13.191	89.414
12.993	87.896
12.8	84.797
12.614	81.891
12.432	77.541
12.256	71.797
12.084	63.205
11.918	51.117
11.755	36.86
11.598	27.354
11.444	28.249
11.294	35.639
11.149	42.121
11.007	43.085
10.868	37.041
10.733	50.184
10.602	55.053
10.473	40.033
10.348	27.618
10.225	32.141
10.106	36.697
9.9887	50.807
9.8746	60.998
9.763	63.24
9.6539	57.795
9.5472	47.802
9.4429	33.282
9.3408	21.786
9.2409	21.893
9.1431	26.579
9.0474	35.412
8.9536	49.622
8.8618	59.706
8.7718	66.498
8.6837	71.552
8.5973	74.97
8.5126	78.159
8.4295	80.876
8.3481	83.506
8.2682	85.786
8.1898	87.526
8.1129	88.833
8.0374	89.967
7.9634	90.798
7.8906	91.375
7.8192	91.98
7.7491	92.688
7.6802	93.289
7.6126	93.71
7.5461	94.052
7.4807	94.58
7.4165	95.071
7.3534	95.488
7.2914	95.7
7.2303	95.964
7.1703	96.056
7.1113	96.295
7.0533	96.506
6.9962	96.733
6.94	96.824
6.8847	97.057
6.8302	97.225
6.7767	97.288
6.7239	97.335
6.672	97.268
6.6209	97.344
6.5705	97.221
6.5209	97.277
6.4721	97.22
6.424	97.32
6.3766	97.504
6.3299	97.633
6.2838	97.807
6.2385	97.84
6.1937	98.235
6.1496	98.631
6.1062	98.35
6.0633	98.238
6.0211	98.218
5.9794	97.914
5.9383	98.443
5.8978	98.932
5.8578	99.318
5.8184	99.108
5.7794	99.27
5.741	99.426
5.7031	99.54
5.6657	99.75
5.6288	99.755
5.5924	99.748
5.5564	99.772
5.5209	99.767
5.4859	99.773
5.4513	99.784
5.4171	99.658
5.3833	99.585
5.35	99.581
5.3171	99.643
5.2846	99.612
5.2524	99.629
5.2207	99.645
5.1893	99.656
5.1584	99.621
5.1277	99.555
5.0975	99.374
5.0676	99.266
5.038	99.348
5.0088	99.459
4.98	99.535
4.9514	99.527
4.9232	99.544
4.8953	99.571
4.8678	99.59
4.8405	99.617
4.8135	99.635
4.7868	99.718
4.7605	99.651
4.7344	99.665
4.7086	99.701
4.6831	99.632
4.6578	99.611
4.6328	99.608
4.6081	99.555
4.5837	99.584
4.5595	99.589
4.5356	99.547
4.5119	99.479
4.4884	99.514
4.4652	99.366
4.4423	99.335
4.4196	99.322
4.3971	99.307
4.3748	99.325
4.3528	99.182
4.331	99.188
4.3094	99.121
4.288	99.091
4.2668	99.074
4.2458	99.091
4.2251	99.047
4.2045	98.977
4.1841	98.963
4.164	98.91
4.144	98.825
4.1242	98.768
4.1046	98.782
4.0852	98.765
4.066	98.709
4.047	98.652
4.0281	98.626
4.0094	98.615
3.9909	98.512
3.9725	98.467
3.9544	98.465
3.9363	98.464
3.9185	98.396
3.9008	98.313
3.8833	98.274
3.8659	98.133
3.8487	98.159
3.8316	98.077
3.8147	97.993
3.7979	97.951
3.7813	97.929
3.7648	97.818
3.7485	97.723
3.7323	97.633
3.7162	97.584
3.7003	97.449
3.6845	97.422
3.6689	97.323
3.6534	97.321
3.638	97.239
3.6227	97.096
3.6076	97.023
3.5926	97.026
3.5777	96.91
3.563	96.788
3.5484	96.77
3.5338	96.716
3.5195	96.733
3.5052	96.788
3.491	96.621
3.477	96.352
3.463	96.269
3.4492	96.263
3.4355	96.275
3.4219	96.459
3.4084	96.152
3.395	95.887
3.3817	95.713
3.3685	95.654
3.3554	95.432
3.3425	95.252
3.3296	95.096
3.3168	94.953
3.3041	94.834
3.2915	94.758
3.279	94.67
3.2666	94.555
3.2543	94.38
3.2421	94.234
3.23	94.149
3.218	93.967
3.206	93.779
3.1942	93.601
3.1824	93.557
3.1707	93.454
3.1591	93.209
3.1476	93.107
3.1362	93.009
3.1249	93.021
3.1136	92.922
3.1024	92.791
3.0913	92.842
3.0803	92.806
3.0694	92.855
3.0585	92.703
3.0477	92.824
3.037	92.544
3.0264	92.609
3.0158	92.57
3.0053	92.648
2.9949	92.82
2.9845	93.183
2.9743	93.406
2.9641	93.648
2.9539	94.044
2.9439	94.337
2.9339	94.524
2.9239	94.493
2.9141	94.611
2.9043	94.618
2.8946	94.636
2.8849	94.519
2.8753	94.361
2.8658	94.437
2.8563	94.455
2.8469	94.418
2.8375	94.094
2.8282	93.724
2.819	93.504
2.8098	93.301
2.8007	93.083
2.7917	93.04
2.7827	92.84
2.7738	92.79
2.7649	92.644
2.7561	92.555
2.7473	92.934
2.7386	92.981
2.7299	93.251
2.7213	93.308
2.7128	93.55
2.7043	93.259
2.6959	93.289
2.6875	93.461
2.6791	93.277
2.6709	93.161
2.6626	93.254
2.6545	93.261
2.6463	93.043
2.6382	93.027
2.6302	92.826
2.6222	93.097
2.6143	92.894
2.6064	92.662
2.5986	92.939
2.5908	92.814
2.583	92.592
2.5753	92.652
2.5677	92.5
2.5601	92.439
2.5525	92.431
2.545	92.369
2.5375	92.593
2.5301	92.187
2.5227	92.09
2.5154	92.265
2.5081	91.941
2.5008	92.033
2.4936	91.91
2.4864	91.992
2.4793	91.89
2.4722	91.812
2.4651	91.945
2.4581	91.656
2.4511	91.711
2.4442	91.517
2.4373	91.664
2.4305	91.408
2.4236	91.16
2.4169	91.269
2.4101	91.242
2.4034	91.205
2.3967	91.285
2.3901	90.791
2.3835	90.965
2.377	91.023
2.3704	90.883
2.364	90.879
2.3575	90.689
2.3511	90.752
2.3447	90.478
2.3384	90.728
2.3321	90.431
2.3258	90.359
2.3195	90.304
2.3133	90.383
2.3071	90.297
2.301	89.978
2.2949	90.265
2.2888	90.197
2.2828	89.9
2.2767	89.601
2.2708	89.836
2.2648	89.66
2.2589	89.918
2.253	89.703
2.2471	89.547
2.2413	89.652
2.2355	89.476
2.2297	89.117
2.224	89
2.2183	89.062
2.2126	89.285
2.207	89.183
2.2013	89.105
2.1957	89.086
2.1902	88.66
2.1846	88.793
2.1791	88.59
2.1736	88.492
2.1682	88.707
2.1628	88.73
2.1574	88.113
2.152	88.578
2.1466	87.898
2.1413	88.203
2.136	88.113
2.1308	88.191
2.1255	87.785
2.1203	87.801
2.1151	87.926
2.11	87.551
2.1048	87.551
2.0997	87.906
2.0946	87.695
2.0895	87.515
2.0845	87.519
2.0795	87.297
