Name: Clinozoisite Ca_2Al_3(SiO_4)_3(OH)
Type: Mineral
Class: Silicate
Subclass: Sorosilicate
Particle Size: Coarse
Sample No.: SS-4A
Owner: JPL
Wavelength Range: VSWIR
Origin: Mexico, Sonora
Description: Particle size was 125-500um.Collected by Ward's Original ASTER Spectral Library name was jpl.beckman.mineral.silicate.sorosilicate.coarse.ss04a.spectrum.txt
Measurement: Hemispherical reflectance
X Units: Wavelength (micrometers)
Y Units: Reflectance (percent)
wavelength	value
0.4	8.53
0.403	8.99
0.406	9.28
0.409	9.75
0.412	10.13
0.415	10.6
0.418	10.9
0.421	11.01
0.424	11.02
0.427	11.19
0.43	11.36
0.433	11.79
0.436	12.19
0.439	12.09
0.442	12.03
0.445	11.87
0.448	11.33
0.451	10.75
0.454	11.51
0.457	12.32
0.46	12.64
0.463	13.09
0.466	13.24
0.469	13.32
0.472	13.48
0.475	13.93
0.478	14.45
0.481	15.16
0.484	15.8
0.487	16.51
0.49	17.07
0.493	17.63
0.496	17.91
0.499	17.92
0.502	17.83
0.505	17.66
0.508	17.15
0.511	17.01
0.514	16.48
0.517	16.13
0.52	15.64
0.523	15.39
0.526	15.07
0.529	14.62
0.532	14.6
0.535	14.38
0.538	14.34
0.541	14.49
0.544	14.66
0.547	14.64
0.55	14.99
0.553	15.31
0.556	15.69
0.559	15.98
0.562	16.77
0.565	17.35
0.568	17.95
0.571	18.68
0.574	19.36
0.577	20.27
0.58	21.11
0.583	22.14
0.586	23.18
0.589	24.16
0.592	25.39
0.595	26.39
0.598	27.32
0.601	28.42
0.604	29.3
0.607	30.11
0.61	31.07
0.613	31.67
0.616	32.29
0.619	32.9
0.622	33.36
0.625	33.82
0.628	34.26
0.631	34.5
0.634	34.82
0.637	35.06
0.64	35.36
0.643	35.58
0.646	35.73
0.649	35.9
0.652	36.17
0.655	36.31
0.658	36.56
0.661	36.59
0.664	36.81
0.667	37.07
0.67	37.19
0.673	37.28
0.676	37.37
0.679	37.57
0.682	37.45
0.685	37.62
0.688	37.64
0.691	37.78
0.694	37.78
0.697	37.86
0.7	37.7
0.703	37.68
0.706	37.62
0.709	37.53
0.712	37.39
0.715	37.43
0.718	37.32
0.721	37.23
0.724	37.03
0.727	36.84
0.73	36.75
0.733	36.44
0.736	36.47
0.739	36.44
0.742	36.15
0.745	35.97
0.748	35.7
0.751	35.63
0.754	35.3
0.757	35.29
0.76	35.19
0.763	35.03
0.766	34.8
0.769	34.74
0.772	34.45
0.775	34.51
0.778	34.42
0.781	34.3
0.784	34.32
0.787	34.14
0.79	33.92
0.793	33.77
0.796	33.91
0.799	33.97
0.808	34.12
0.82	33.95
0.832	34.05
0.844	34.21
0.856	34.52
0.868	34.85
0.88	35.25
0.892	35.77
0.904	36.15
0.916	36.73
0.928	37.05
0.94	37.45
0.952	37.74
0.964	37.92
0.976	38.11
0.988	38.11
1	38.21
1.012	38.22
1.024	38.34
1.036	38.42
1.048	38.63
1.06	38.99
1.072	39.46
1.084	40.01
1.096	40.72
1.108	41.86
1.12	43.01
1.132	44.45
1.144	45.88
1.156	47.42
1.168	49.07
1.18	51
1.192	53.06
1.204	55.22
1.216	57.27
1.228	59.31
1.24	60.85
1.252	62.39
1.264	63.51
1.276	64.28
1.288	65.01
1.3	65.22
1.312	65.29
1.324	65.31
1.336	65.67
1.348	65.86
1.36	66.14
1.372	66.13
1.384	64.71
1.396	61.65
1.408	59.27
1.42	61.35
1.432	63.34
1.444	63.92
1.456	64.44
1.468	64.23
1.48	63.68
1.492	62.71
1.504	60.98
1.516	58.55
1.528	55.79
1.54	53.21
1.552	51.94
1.564	53.27
1.576	55.7
1.588	58.27
1.6	60.31
1.612	62.05
1.624	63.14
1.636	64.3
1.648	65.33
1.66	66.01
1.672	66.52
1.684	66.99
1.696	67.51
1.708	68.2
1.72	68.54
1.732	68.85
1.744	68.87
1.756	69.03
1.768	69.05
1.78	69.23
1.792	68.99
1.804	68.36
1.816	65.41
1.828	63.32
1.84	65.26
1.852	67.05
1.864	66.25
1.876	63.64
1.888	60.51
1.9	56.65
1.912	54.93
1.924	55.92
1.936	56.68
1.948	56.94
1.96	57.86
1.972	59.51
1.984	61.21
1.996	62.28
2.008	63.14
2.02	63.7
2.032	64.45
2.044	65.03
2.056	65.48
2.068	65.65
2.08	65.73
2.092	65.39
2.104	65.15
2.116	64.76
2.128	64.25
2.14	63.08
2.152	61.57
2.164	59.57
2.176	57.22
2.188	54.3
2.2	52.28
2.212	51.28
2.224	49.03
2.236	42.6
2.248	36.11
2.26	35.13
2.272	37
2.284	36
2.296	31.49
2.308	24.98
2.32	19.92
2.332	16.24
2.344	15.6
2.356	19.45
2.368	27.75
2.38	35.98
2.392	41.42
2.404	44.39
2.416	45.71
2.428	45.99
2.44	45.44
2.452	44.73
2.464	43.6
2.476	42.46
2.488	41.4
2.5	40.51
