Name: Scorodite Fe^3+AsO_4.2H_2O
Type: Mineral
Class: Arsenate
Subclass: None
Particle Size: Medium
Sample No.: A-2A
Owner: JPL
Wavelength Range: VSWIR
Origin: USA, Utah, Tooele County, Gold Hill
Description: Particle size was 45-125um.Collected by Ward's Original ASTER Spectral Library name was jpl.beckman.mineral.arsenate.none.medium.a02.spectrum.txt
Measurement: Hemispherical reflectance
X Units: Wavelength (micrometers)
Y Units: Reflectance (percent)
wavelength	value
0.4	7.44
0.403	7.67
0.406	7.82
0.409	8
0.412	7.99
0.415	8.05
0.418	8.12
0.421	7.99
0.424	7.77
0.427	7.55
0.43	7.69
0.433	7.41
0.436	7.68
0.439	10.05
0.442	11.5
0.445	12.5
0.448	13.18
0.451	13.8
0.454	14.2
0.457	14.38
0.46	14.62
0.463	15.11
0.466	15.49
0.469	15.8
0.472	16.29
0.475	16.74
0.478	17.43
0.481	18.23
0.484	19.09
0.487	19.92
0.49	20.81
0.493	21.76
0.496	22.55
0.499	23.21
0.502	24.02
0.505	24.69
0.508	25.26
0.511	25.83
0.514	26.21
0.517	26.38
0.52	26.63
0.523	26.93
0.526	27.19
0.529	27.38
0.532	27.48
0.535	27.56
0.538	27.56
0.541	27.51
0.544	27.69
0.547	27.72
0.55	27.82
0.553	27.99
0.556	28.01
0.559	28.04
0.562	28.47
0.565	28.49
0.568	28.37
0.571	28.67
0.574	28.83
0.577	28.94
0.58	29.07
0.583	29.21
0.586	29.57
0.589	29.63
0.592	29.81
0.595	30.23
0.598	30.51
0.601	30.83
0.604	31.09
0.607	31.63
0.61	31.8
0.613	32.31
0.616	32.74
0.619	33.18
0.622	33.52
0.625	34.15
0.628	34.46
0.631	34.97
0.634	35.56
0.637	36.06
0.64	36.7
0.643	37.1
0.646	37.85
0.649	38.21
0.652	38.78
0.655	39.45
0.658	39.94
0.661	40.49
0.664	41
0.667	41.62
0.67	41.91
0.673	42.27
0.676	42.84
0.679	43.18
0.682	43.46
0.685	43.76
0.688	44.17
0.691	44.24
0.694	44.45
0.697	44.82
0.7	44.7
0.703	45.01
0.706	45.2
0.709	45.2
0.712	45.32
0.715	45.32
0.718	45.29
0.721	45.32
0.724	45.15
0.727	45.26
0.73	45.26
0.733	45
0.736	44.95
0.739	44.86
0.742	44.77
0.745	44.58
0.748	44.46
0.751	44.51
0.754	44.4
0.757	44.08
0.76	44.08
0.763	43.91
0.766	43.78
0.769	43.66
0.772	43.61
0.775	43.7
0.778	43.43
0.781	43.33
0.784	43.32
0.787	43.29
0.79	43.24
0.793	43.1
0.796	43.22
0.799	43.27
0.808	43.68
0.82	43.89
0.832	44.16
0.844	44.67
0.856	45.24
0.868	45.91
0.88	46.45
0.892	47.22
0.904	47.99
0.916	48.77
0.928	49.54
0.94	50.38
0.952	51.11
0.964	51.68
0.976	52.01
0.988	52.24
1	52.76
1.012	53.65
1.024	54.29
1.036	54.64
1.048	55.18
1.06	55.39
1.072	55.79
1.084	56.03
1.096	56.39
1.108	56.66
1.12	56.98
1.132	57.29
1.144	57.57
1.156	57.82
1.168	57.89
1.18	57.66
1.192	57.92
1.204	58.52
1.216	59.17
1.228	59.47
1.24	59.91
1.252	60.16
1.264	60.37
1.276	60.47
1.288	60.4
1.3	60.28
1.312	60.29
1.324	60.28
1.336	60.12
1.348	59.83
1.36	59.09
1.372	58.57
1.384	58.16
1.396	56.95
1.408	54.66
1.42	51.02
1.432	45.8
1.444	38.87
1.456	36.86
1.468	41.51
1.48	44.12
1.492	45.16
1.504	45.07
1.516	43.85
1.528	42.85
1.54	43.61
1.552	43.59
1.564	42.47
1.576	40.98
1.588	39.37
1.6	37.82
1.612	36.22
1.624	34.78
1.636	33.27
1.648	31.93
1.66	30.55
1.672	29.42
1.684	28.35
1.696	27.49
1.708	26.72
1.72	26.22
1.732	25.78
1.744	25.43
1.756	25.06
1.768	24.78
1.78	24.42
1.792	24.14
1.804	23.97
1.816	23.84
1.828	23.76
1.84	23.7
1.852	23.57
1.864	23.48
1.876	23.25
1.888	22.73
1.9	21.89
1.912	20.47
1.924	18.57
1.936	15.99
1.948	13.49
1.96	12.43
1.972	12.7
1.984	13.12
1.996	13.48
2.008	14.42
2.02	15.33
2.032	15.54
2.044	15.55
2.056	15.43
2.068	15.31
2.08	15.37
2.092	15.32
2.104	15.58
2.116	15.88
2.128	16.21
2.14	16.63
2.152	16.98
2.164	17.38
2.176	17.89
2.188	18.34
2.2	18.92
2.212	19.39
2.224	20.02
2.236	20.54
2.248	20.7
2.26	20.84
2.272	20.67
2.284	20.29
2.296	19.49
2.308	18.34
2.32	17.62
2.332	17.39
2.344	17.59
2.356	17.62
2.368	17.37
2.38	16.94
2.392	16.28
2.404	15.57
2.416	14.88
2.428	14.05
2.44	13.27
2.452	12.33
2.464	11.23
2.476	9.9
2.488	8.67
2.5	7.64
