Name: Corrensite (Mg,Fe)_9(Si,Al)_8O_20(OH)_10._xH_2O
Type: Mineral
Class: Silicate
Subclass: Phyllosilicate
Particle Size: Fine
Sample No.: PS-10A
Owner: JPL
Wavelength Range: VSWIR
Origin: USA, Washington, Packwood
Description: Particle size was 0-45um.Collected by Clay Mineral Society Original ASTER Spectral Library name was jpl.beckman.mineral.silicate.phyllosilicate.fine.ps10a.spectrum.txt
Measurement: Hemispherical reflectance
X Units: Wavelength (micrometers)
Y Units: Reflectance (percent)
wavelength	value
0.4	15.11
0.403	15.68
0.406	16
0.409	16.49
0.412	16.83
0.415	17.22
0.418	17.49
0.421	18.18
0.424	18.44
0.427	18.96
0.43	19.66
0.433	20.37
0.436	20.9
0.439	21.71
0.442	22.37
0.445	22.96
0.448	23.34
0.451	23.7
0.454	24.06
0.457	24.23
0.46	24.49
0.463	24.73
0.466	24.87
0.469	25.29
0.472	25.74
0.475	25.88
0.478	26.24
0.481	26.5
0.484	26.88
0.487	27.38
0.49	28.04
0.493	28.38
0.496	29.32
0.499	29.57
0.502	30.29
0.505	30.76
0.508	31.51
0.511	32.13
0.514	32.41
0.517	33.08
0.52	33.64
0.523	34.07
0.526	34.51
0.529	35.12
0.532	35.46
0.535	35.86
0.538	36.14
0.541	36.55
0.544	36.68
0.547	37.11
0.55	37.37
0.553	37.5
0.556	37.69
0.559	37.9
0.562	38.4
0.565	38.53
0.568	38.77
0.571	39.03
0.574	38.97
0.577	38.92
0.58	39.38
0.583	39.34
0.586	39.47
0.589	39.68
0.592	39.88
0.595	39.82
0.598	39.94
0.601	40.41
0.604	40.39
0.607	40.57
0.61	40.66
0.613	40.88
0.616	40.77
0.619	40.84
0.622	41.13
0.625	41.13
0.628	41.38
0.631	41.54
0.634	41.59
0.637	41.51
0.64	41.61
0.643	42.06
0.646	41.87
0.649	42.05
0.652	42.23
0.655	42.49
0.658	42.36
0.661	42.42
0.664	42.66
0.667	42.75
0.67	42.79
0.673	42.87
0.676	42.93
0.679	42.84
0.682	43.19
0.685	43.17
0.688	43.3
0.691	43.42
0.694	43.56
0.697	43.62
0.7	43.54
0.703	44.01
0.706	44.05
0.709	44.15
0.712	44.27
0.715	44.56
0.718	44.41
0.721	44.47
0.724	44.96
0.727	45.05
0.73	45.25
0.733	45.28
0.736	45.54
0.739	45.58
0.742	45.84
0.745	46.16
0.748	46.27
0.751	46.53
0.754	46.59
0.757	46.87
0.76	46.96
0.763	47.26
0.766	47.49
0.769	47.75
0.772	47.81
0.775	48.07
0.778	47.86
0.781	48.09
0.784	48.35
0.787	48.43
0.79	48.58
0.793	48.64
0.796	48.75
0.799	48.7
0.808	49.3
0.82	49.36
0.832	49.33
0.844	49.28
0.856	49.07
0.868	49.17
0.88	49.05
0.892	49.2
0.904	49.22
0.916	49.58
0.928	49.85
0.94	50.24
0.952	50.6
0.964	50.83
0.976	51.07
0.988	51.3
1	51.4
1.012	51.67
1.024	51.79
1.036	51.97
1.048	52.14
1.06	52.24
1.072	52.4
1.084	52.73
1.096	53.17
1.108	53.29
1.12	53.84
1.132	54.16
1.144	54.57
1.156	55.06
1.168	55.47
1.18	55.99
1.192	56.48
1.204	56.92
1.216	57.48
1.228	57.96
1.24	58.46
1.252	59.06
1.264	59.46
1.276	59.99
1.288	60.47
1.3	60.79
1.312	61.19
1.324	61.56
1.336	62.04
1.348	62.35
1.36	62.81
1.372	62.97
1.384	62.81
1.396	62.11
1.408	62.12
1.42	62.42
1.432	62.72
1.444	63.21
1.456	63.71
1.468	64.11
1.48	64.53
1.492	64.99
1.504	65.37
1.516	65.66
1.528	65.98
1.54	66.23
1.552	66.57
1.564	66.71
1.576	67.06
1.588	67.23
1.6	67.29
1.612	67.61
1.624	67.76
1.636	67.92
1.648	68.01
1.66	68.23
1.672	68.32
1.684	68.57
1.696	68.58
1.708	68.74
1.72	68.81
1.732	68.87
1.744	68.96
1.756	69.02
1.768	68.93
1.78	69.03
1.792	69.03
1.804	69.1
1.816	69.16
1.828	69.09
1.84	69.16
1.852	68.8
1.864	68.59
1.876	67.63
1.888	66.03
1.9	63.52
1.912	61.89
1.924	61.84
1.936	62.49
1.948	63.13
1.96	63.72
1.972	64.33
1.984	64.93
1.996	65.65
2.008	66.07
2.02	66.61
2.032	67.02
2.044	67.6
2.056	67.78
2.068	68.16
2.08	68.5
2.092	68.55
2.104	68.82
2.116	68.97
2.128	69.01
2.14	69
2.152	68.85
2.164	68.67
2.176	68.48
2.188	68.12
2.2	67.84
2.212	67.44
2.224	67.09
2.236	66.34
2.248	65.73
2.26	65.03
2.272	64.52
2.284	63.89
2.296	63.4
2.308	63.09
2.32	63.04
2.332	62.7
2.344	62.47
2.356	62.43
2.368	62.38
2.38	62.35
2.392	62.14
2.404	61.9
2.416	61.62
2.428	61.33
2.44	60.82
2.452	60.28
2.464	59.72
2.476	59.17
2.488	58.88
2.5	58.75
