Name: Cryolite Na_3AlF_6
Type: Mineral
Class: Halide
Subclass: None
Particle Size: Coarse
Sample No.: H-1A
Owner: JPL
Wavelength Range: TIR
Origin: Denmark, Greenland, Ivigtut
Description: Particle size was 125-500um.Collected by Ward's Original ASTER Spectral Library name was jpl.nicolet.mineral.halide.none.coarse.h01a.spectrum.txt
Measurement: Hemispherical reflectance
X Units: Wavelength (micrometers)
Y Units: Reflectance (percent)
wavelength	value
15.3853	40.122
15.1161	38.5115
14.8563	31.0641
14.6052	20.471
14.3624	12.2258
14.1276	6.7341
13.9004	3.4849
13.6803	1.553
13.4671	0.8374
13.2604	0.3444
13.06	0.232
12.8656	0.0956
12.6769	0.1844
12.4936	0
12.3155	0.0206
12.1425	0.1409
11.9742	0.2153
11.8106	0.1857
11.6513	0.0478
11.4963	0.2249
11.3454	0.361
11.1983	0.2379
11.0551	0.2062
10.9154	0.458
10.7793	0.2986
10.6465	0.4624
10.5169	0.2866
10.3904	0.2717
10.267	0.342
10.1464	0.3151
10.0287	0.4147
9.9136	0.229
9.8012	0.57
9.6913	0.4577
9.5838	0.5072
9.4787	0.6508
9.3758	0.8208
9.2752	1.392
9.1767	2.8696
9.0803	4.709
8.9858	5.2434
8.8934	3.7075
8.8028	2.8906
8.714	3.4923
8.627	5.0791
8.5417	7.6085
8.4581	8.8303
8.3761	9.6061
8.2957	10.1185
8.2169	11.5128
8.1395	15.5271
8.0635	21.1763
7.989	25.7281
7.9158	29.1912
7.8439	31.5643
7.7734	32.9324
7.7041	33.8527
7.636	34.5807
7.5691	34.9566
7.5034	35.1638
7.4388	34.7305
7.3753	33.9872
7.3129	33.692
7.2515	34.0939
7.1912	34.9484
7.1318	36.3858
7.0734	37.9833
7.016	40.0179
6.9595	42.9335
6.9039	44.1476
6.8492	46.3673
6.7953	48.8651
6.7423	49.9012
6.6901	51.8624
6.6387	54.5698
6.5881	52.5938
6.5382	51.8239
6.4892	54.8253
6.4408	53.3731
6.3931	53.5949
6.3462	54.7357
6.2999	53.6157
6.2543	53.5147
6.2094	53.0613
6.1651	53.347
6.1214	53.6978
6.0784	54.1025
6.0359	53.692
5.994	55.5858
5.9527	57.8396
5.912	60.5267
5.8718	63.3048
5.8322	65.3112
5.7931	66.1122
5.7545	68.0199
5.7165	69.7553
5.6789	70.213
5.6418	72.0098
5.6052	71.2716
5.5691	71.7616
5.5334	72.2137
5.4982	73.1157
5.4635	74.7962
5.4291	75.3349
5.3952	75.8208
5.3618	76.6373
5.3287	76.9836
5.2961	77.6393
5.2638	77.8177
5.2319	78.1648
5.2004	78.5767
5.1693	78.6845
5.1386	78.9011
5.1082	79.0892
5.0782	79.3085
5.0485	79.2957
5.0192	79.4747
4.9902	79.3603
4.9616	79.3769
4.9332	79.3607
4.9052	79.1846
4.8776	78.9845
4.8502	78.9349
4.8231	78.8221
4.7963	78.8037
4.7699	78.7607
4.7437	78.7943
4.7178	78.7487
4.6922	78.5056
4.6668	78.2466
4.6418	78.0334
4.617	78.1462
4.5924	78.5368
4.5681	79.1489
4.5441	79.677
4.5203	80.1382
4.4968	80.3924
4.4735	80.6169
4.4505	80.8601
4.4277	80.9833
4.4051	81.0495
4.3828	81.126
4.3607	81.4534
4.3388	81.308
4.3171	80.7576
4.2956	78.8363
4.2744	70.2576
4.2534	75.2876
4.2325	80.4838
4.2119	81.9681
4.1915	82.7006
4.1712	83.2199
4.1512	83.5652
4.1313	83.834
4.1117	83.9458
4.0922	84.0861
4.0729	84.1781
4.0538	84.2734
4.0349	84.4459
4.0161	84.5931
3.9976	84.6769
3.9792	84.6858
3.9609	84.753
3.9428	84.7934
3.9249	84.8661
3.9072	84.9351
3.8896	84.9772
3.8722	85.044
3.8549	84.9931
3.8378	85.0146
3.8208	84.9528
3.804	84.9751
3.7873	85.0682
3.7708	84.9169
3.7544	84.9212
3.7382	84.8162
3.7221	84.6838
3.7061	84.4788
3.6903	84.4369
3.6746	84.2644
3.659	84.0932
3.6436	83.96
3.6283	83.7356
3.6131	83.5644
3.5981	83.1568
3.5832	82.8249
3.5684	82.3662
3.5537	82.1228
3.5391	81.7064
3.5247	81.3359
3.5104	80.2557
3.4962	79.5503
3.4821	79.2319
3.4681	78.715
3.4543	78.2423
3.4405	77.4347
3.4269	76.0907
3.4133	75.085
3.3999	74.9711
3.3866	74.6757
3.3733	73.5294
3.3602	73.2506
3.3472	72.7624
3.3343	72.0777
3.3215	71.3553
3.3088	70.4267
3.2961	69.3937
3.2836	68.3174
3.2712	67.3061
3.2588	66.3001
3.2466	65.0165
3.2345	64.0565
3.2224	62.8111
3.2104	61.6224
3.1985	60.5296
3.1867	59.363
3.175	58.2069
3.1634	57.1922
3.1519	56.0884
3.1404	55.1579
3.129	54.1376
3.1178	53.216
3.1065	52.5277
3.0954	51.7589
3.0844	51.3002
3.0734	50.6665
3.0625	50.2801
3.0517	49.8856
3.041	49.5821
3.0303	49.1343
3.0197	48.6088
3.0092	48.1751
2.9987	47.9658
2.9884	47.5198
2.9781	47.0417
2.9678	47.0532
2.9577	46.7471
2.9476	46.6702
2.9376	46.4917
2.9276	46.4061
2.9177	46.3215
2.9079	46.4525
2.8982	46.7933
2.8885	46.9656
2.8789	47.5009
2.8693	48.1004
2.8598	48.6459
2.8504	49.1322
2.841	49.6769
2.8317	50.3765
2.8224	51.5511
2.8133	52.7329
2.8041	54.398
2.7951	55.1572
2.786	57.1049
2.7771	57.9621
2.7682	59.6438
2.7594	60.9183
2.7506	62.8289
2.7418	66.2099
2.7332	67.6836
2.7246	72.3196
2.716	73.4875
2.7075	76.0908
2.699	77.4783
2.6906	79.0431
2.6823	80.3635
2.674	81.3581
2.6657	84.1345
2.6575	81.9444
2.6494	82.2035
2.6413	82.8524
2.6332	83.3987
2.6252	83.5526
2.6173	84.8046
2.6094	84.0018
2.6015	84.0974
2.5937	86.1081
2.5859	84.4731
2.5782	84.3572
2.5706	84.6441
2.5629	85.4076
2.5554	84.1047
2.5478	84.4408
2.5403	84.2733
2.5329	84.4175
2.5255	84.2854
2.5181	84.2927
2.5108	84.3449
2.5035	84.1928
2.4963	84.2465
2.4891	84.1069
2.482	83.8976
2.4749	83.5068
2.4678	83.6895
2.4608	83.863
2.4538	84.1723
2.4468	84.0497
2.4399	84.2739
2.4331	84.5024
2.4262	84.5278
2.4194	84.4184
2.4127	84.2741
2.4059	84.3484
2.3993	84.3728
2.3926	84.5267
2.386	84.5744
2.3795	84.8499
2.3729	84.9294
2.3664	85.1059
2.36	85.2294
2.3535	85.4049
2.3471	85.3471
2.3408	85.7532
2.3345	85.9779
2.3282	86.1158
2.3219	86.5415
2.3157	86.6255
2.3095	86.4421
2.3034	86.5508
2.2972	86.593
2.2911	86.8193
2.2851	86.7423
2.279	86.8023
2.2731	87.0002
2.2671	86.9674
2.2612	86.9567
2.2553	87.0689
2.2494	86.792
2.2435	86.7858
2.2377	86.6341
2.232	86.7454
2.2262	86.7195
2.2205	86.7712
2.2148	86.8535
2.2091	86.82
2.2035	87.0038
2.1979	86.8599
2.1923	86.9325
2.1868	86.9713
2.1812	86.7997
2.1758	86.8707
2.1703	86.737
2.1649	86.9143
2.1595	86.8648
2.1541	87.1213
2.1487	86.9336
2.1434	86.9551
2.1381	86.9899
2.1328	87.145
2.1275	87.0026
2.1223	87.1727
2.1171	87.0946
2.112	87.1401
2.1068	86.9061
2.1017	87.0886
2.0966	87.0661
2.0915	87.1657
2.0865	87.0259
2.0814	86.6967
2.0764	86.7969
2.0715	87.2367
2.0665	86.7505
2.0616	86.762
2.0567	86.7604
2.0518	86.9541
2.0469	86.5957
2.0421	86.8145
2.0373	86.6367
2.0325	86.4551
2.0277	86.5261
2.0229	86.4019
2.0182	86.4873
2.0135	86.5936
2.0088	86.4145
2.0042	86.3251
