Name: Cerussite PbCO_3
Type: Mineral
Class: Carbonate
Subclass: None
Particle Size: Fine
Sample No.: C-10A
Owner: JPL
Wavelength Range: TIR
Origin: USA, Arizona, Flux Mine
Description: Particle size was 0-45um.Collected by JPL Original ASTER Spectral Library name was jpl.nicolet.mineral.carbonate.none.fine.c10a.spectrum.txt
Measurement: Hemispherical reflectance
X Units: Wavelength (micrometers)
Y Units: Reflectance (percent)
wavelength	value
15.3853	38.9547
15.1161	34.2051
14.8563	9.1328
14.6052	5.9585
14.3624	27.9948
14.1276	43.0604
13.9004	38.661
13.6803	31.5375
13.4671	38.7944
13.2604	44.8535
13.06	44.0519
12.8656	39.3872
12.6769	38.3426
12.4936	39.9179
12.3155	36.6205
12.1425	16.0681
11.9742	9.4775
11.8106	11.238
11.6513	23.0011
11.4963	29.8424
11.3454	39.4566
11.1983	45.5214
11.0551	49.4143
10.9154	50.2498
10.7793	48.9974
10.6465	47.1202
10.5169	42.3477
10.3904	40.4221
10.267	40.3308
10.1464	29.2987
10.0287	25.3929
9.9136	34.8479
9.8012	40.5375
9.6913	36.5389
9.5838	33.2324
9.4787	17.8555
9.3758	35.8865
9.2752	36.1802
9.1767	29.1822
9.0803	18.1341
8.9858	17.6635
8.8934	27.388
8.8028	26.8752
8.714	28.2466
8.627	28.6735
8.5417	30.0504
8.4581	29.415
8.3761	27.6436
8.2957	24.8123
8.2169	23.3196
8.1395	21.9592
8.0635	19.7915
7.989	16.9886
7.9158	13.8538
7.8439	10.969
7.7734	8.7713
7.7041	7.2166
7.636	6.5674
7.5691	6.4825
7.5034	6.5041
7.4388	6.5098
7.3753	6.6152
7.3129	6.9997
7.2515	8.6074
7.1912	9.5841
7.1318	8.6639
7.0734	6.9135
7.016	6.6261
6.9595	7.5483
6.9039	7.4791
6.8492	7.0484
6.7953	6.2482
6.7423	5.307
6.6901	3.8642
6.6387	2.7278
6.5881	2.309
6.5382	2.6662
6.4892	3.3101
6.4408	4.1319
6.3931	5.2214
6.3462	7.0918
6.2999	9.6394
6.2543	12.4237
6.2094	15.06
6.1651	18.6491
6.1214	23.2105
6.0784	28.246
6.0359	33.1223
5.994	38.0747
5.9527	41.4614
5.912	44.0235
5.8718	45.1587
5.8322	41.8296
5.7931	7.9813
5.7545	9.9066
5.7165	34.815
5.6789	58.0705
5.6418	60.1872
5.6052	62.5922
5.5691	68.2528
5.5334	71.0691
5.4982	71.1277
5.4635	72.4878
5.4291	74.3606
5.3952	75.9103
5.3618	77.2302
5.3287	77.412
5.2961	77.871
5.2638	78.9342
5.2319	80.5958
5.2004	81.6406
5.1693	82.0433
5.1386	82.2997
5.1082	82.0047
5.0782	80.9718
5.0485	79.1092
5.0192	77.0519
4.9902	74.9376
4.9616	72.475
4.9332	66.7841
4.9052	56.798
4.8776	54.1412
4.8502	59.4541
4.8231	66.358
4.7963	70.4171
4.7699	71.3025
4.7437	73.436
4.7178	74.7728
4.6922	74.5625
4.6668	70.2992
4.6418	68.6864
4.617	74.3443
4.5924	76.2485
4.5681	76.4919
4.5441	76.2114
4.5203	75.4397
4.4968	74.147
4.4735	74.7695
4.4505	75.6013
4.4277	75.1899
4.4051	74.4548
4.3828	72.6452
4.3607	69.8298
4.3388	65.8857
4.3171	61.1995
4.2956	55.7779
4.2744	49.1599
4.2534	43.4765
4.2325	40.2905
4.2119	35.8802
4.1915	28.9847
4.1712	18.8558
4.1512	12.753
4.1313	15.6055
4.1117	22.5305
4.0922	28.3709
4.0729	30.9948
4.0538	31.4951
4.0349	32.9271
4.0161	35.7984
3.9976	37.467
3.9792	39.04
3.9609	41.3623
3.9428	45.9557
3.9249	53.8821
3.9072	61.2535
3.8896	65.1731
3.8722	67.2464
3.8549	68.2148
3.8378	68.0931
3.8208	67.2929
3.804	65.8069
3.7873	63.696
3.7708	60.9029
3.7544	57.5795
3.7382	54.6283
3.7221	51.8767
3.7061	47.7271
3.6903	41.8911
3.6746	34.6269
3.659	28.7831
3.6436	27.4506
3.6283	29.0658
3.6131	29.5554
3.5981	28.975
3.5832	28.823
3.5684	29.4081
3.5537	30.6991
3.5391	32.5516
3.5247	35.5072
3.5104	39.8234
3.4962	45.0243
3.4821	50.4483
3.4681	54.8546
3.4543	58.2507
3.4405	61.0891
3.4269	63.3961
3.4133	65.2194
3.3999	67.4725
3.3866	69.2795
3.3733	70.7286
3.3602	72.6329
3.3472	74.2019
3.3343	75.4594
3.3215	76.4739
3.3088	77.1015
3.2961	77.4827
3.2836	76.9255
3.2712	75.62
3.2588	74.3455
3.2466	72.7675
3.2345	72.8882
3.2224	75.0152
3.2104	76.8671
3.1985	77.5593
3.1867	77.7634
3.175	77.5937
3.1634	77.5862
3.1519	77.4031
3.1404	77.2676
3.129	76.9762
3.1178	76.7512
3.1065	76.6503
3.0954	76.6113
3.0844	76.3578
3.0734	76.2411
3.0625	76.0576
3.0517	75.7204
3.041	75.5935
3.0303	75.256
3.0197	75.0792
3.0092	74.6004
2.9987	74.288
2.9884	73.8795
2.9781	73.5743
2.9678	73.3107
2.9577	72.632
2.9476	72.0649
2.9376	71.8937
2.9276	71.5288
2.9177	71.2109
2.9079	69.4523
2.8982	67.9351
2.8885	70.8074
2.8789	72.8146
2.8693	74.0573
2.8598	74.7646
2.8504	75.2364
2.841	76.0381
2.8317	76.803
2.8224	77.7862
2.8133	78.3848
2.8041	79.8836
2.7951	80.1453
2.786	81.5884
2.7771	82.0636
2.7682	82.5629
2.7594	82.2258
2.7506	83.2418
2.7418	85.1417
2.7332	85.3938
2.7246	86.8772
2.716	85.9851
2.7075	85.578
2.699	85.4486
2.6906	86.0778
2.6823	85.6908
2.674	83.9337
2.6657	82.3403
2.6575	78.3266
2.6494	78.3201
2.6413	79.6179
2.6332	80.9995
2.6252	81.2795
2.6173	82.3262
2.6094	82.5407
2.6015	83.4416
2.5937	85.5518
2.5859	85.3004
2.5782	85.9536
2.5706	87.1016
2.5629	88.5317
2.5554	88.8891
2.5478	89.6066
2.5403	90.035
2.5329	90.3238
2.5255	90.1459
2.5181	89.9858
2.5108	89.6191
2.5035	89.0238
2.4963	88.4716
2.4891	87.6909
2.482	87.2138
2.4749	86.9963
2.4678	86.6262
2.4608	86.4592
2.4538	86.7759
2.4468	87.0254
2.4399	87.5283
2.4331	87.7723
2.4262	87.6757
2.4194	88.1037
2.4127	88.5087
2.4059	88.9367
2.3993	89.4612
2.3926	89.7773
2.386	90.3254
2.3795	90.6158
2.3729	91.1484
2.3664	91.3682
2.36	91.7892
2.3535	91.9523
2.3471	92.4333
2.3408	92.8705
2.3345	93.049
2.3282	93.5019
2.3219	93.7452
2.3157	93.9247
2.3095	94.0845
2.3034	94.3244
2.2972	94.5387
2.2911	94.8146
2.2851	94.8581
2.279	94.8923
2.2731	95.024
2.2671	94.9567
2.2612	95.0801
2.2553	95.0052
2.2494	95.036
2.2435	95.2242
2.2377	95.0243
2.232	95.1917
2.2262	95.49
2.2205	95.7701
2.2148	95.8445
2.2091	95.8069
2.2035	95.9431
2.1979	96.0999
2.1923	96.0866
2.1868	96.1777
2.1812	96.2357
2.1758	96.1991
2.1703	96.4914
2.1649	96.3894
2.1595	96.3886
2.1541	96.263
2.1487	96.4019
2.1434	96.3083
2.1381	96.5729
2.1328	96.2916
2.1275	96.3177
2.1223	96.2894
2.1171	96.1876
2.112	95.9955
2.1068	95.9268
2.1017	95.8159
2.0966	95.5952
2.0915	95.6655
2.0865	95.2672
2.0814	95.3268
2.0764	95.4906
2.0715	95.2463
2.0665	95.7004
2.0616	95.7299
2.0567	95.655
2.0518	95.9517
2.0469	95.8837
2.0421	95.9256
2.0373	96.2368
2.0325	96.0037
2.0277	96.1614
2.0229	96.0187
2.0182	96.235
2.0135	96.1657
2.0088	96.2274
2.0042	95.9178
