Name: Sodalite Na_8Al_6Si_6O_24Cl_2
Type: Mineral
Class: Silicate
Subclass: Tectosilicate
Particle Size: Fine
Sample No.: TS-10A
Owner: JPL
Wavelength Range: VSWIR
Origin: Canada, Ontario, Hastings County, Bancroft.
Description: Particle Size was 0-45um. Collected by:  JPL Original ASTER Spectral Library name was jpl.perkin.mineral.silicate.tectosilicate.fine.ts10a.spectrum.txt
Measurement: Hemispherical reflectance
X Units: Wavelength (micrometers)
Y Units: Reflectance (percent)
wavelength	value
2.5	72.0769
2.494	72.1891
2.488	72.4239
2.482	72.9044
2.476	73.2523
2.47	73.7272
2.464	74.0207
2.458	74.4389
2.452	74.8037
2.446	74.9509
2.44	75.1674
2.434	75.5259
2.428	75.5457
2.422	75.7478
2.416	76.0255
2.41	76.2227
2.404	76.3492
2.398	76.4335
2.392	76.5484
2.386	76.7344
2.38	76.6939
2.374	76.671
2.368	76.665
2.362	76.5781
2.356	76.464
2.35	76.3123
2.344	76.0372
2.338	75.8982
2.332	75.9892
2.326	76.0148
2.32	76.168
2.314	76.3842
2.308	76.4683
2.302	76.5857
2.296	76.7536
2.29	76.8728
2.284	76.9731
2.278	77.1211
2.272	77.2369
2.266	77.3318
2.26	77.3788
2.254	77.5765
2.248	77.5502
2.242	77.7786
2.236	77.8619
2.23	78.0942
2.224	78.1389
2.218	78.2606
2.212	78.3719
2.206	78.4901
2.2	78.6051
2.194	78.6516
2.188	78.7696
2.182	78.8089
2.176	79.1596
2.17	79.1881
2.164	79.3642
2.158	79.5015
2.152	79.6056
2.146	79.6678
2.14	79.6785
2.134	79.6362
2.128	79.4925
2.122	79.2732
2.116	79.0393
2.11	78.9143
2.104	78.6709
2.098	78.5251
2.092	78.5857
2.086	78.7536
2.08	78.7611
2.074	78.7697
2.068	78.8446
2.062	78.9137
2.056	78.9368
2.05	78.947
2.044	78.9389
2.038	79.1073
2.032	79.0393
2.026	78.9944
2.02	78.9819
2.014	78.8947
2.008	78.8721
2.002	78.6447
1.996	78.6143
1.99	78.4882
1.984	78.305
1.978	78.2321
1.972	78.0737
1.966	78.0626
1.96	77.9901
1.954	77.8512
1.948	77.8126
1.942	77.7715
1.936	77.7442
1.93	77.7809
1.924	77.6631
1.918	77.7638
1.912	77.8398
1.906	78.1037
1.9	78.5905
1.894	79.0859
1.888	79.2638
1.882	79.4115
1.876	79.5094
1.87	79.5335
1.864	79.6745
1.858	79.8179
1.852	79.8488
1.846	79.8263
1.84	79.8418
1.834	79.7439
1.828	79.794
1.822	79.835
1.816	79.8638
1.81	79.8195
1.804	79.8642
1.798	79.841
1.792	79.7421
1.786	79.8102
1.78	79.7204
1.774	79.6929
1.768	79.6092
1.762	79.6341
1.756	79.582
1.75	79.5856
1.744	79.6217
1.738	79.5665
1.732	79.5773
1.726	79.5801
1.72	79.55
1.714	79.5615
1.708	79.5393
1.702	79.5036
1.696	79.4173
1.69	79.3673
1.684	79.2817
1.678	79.2825
1.672	79.3536
1.666	79.1604
1.66	79.148
1.654	79.1414
1.648	79.2411
1.642	79.1026
1.636	79.0106
1.63	78.9938
1.624	79.0464
1.618	78.9702
1.612	79.0029
1.606	78.8486
1.6	78.8468
1.594	78.7947
1.588	78.7714
1.582	78.6456
1.576	78.6214
1.57	78.6168
1.564	78.4664
1.558	78.9742
1.552	78.3613
1.546	78.4093
1.54	78.2403
1.534	78.2295
1.528	78.259
1.522	78.1107
1.516	78.1404
1.51	78.0315
1.504	77.953
1.498	77.8617
1.492	77.8224
1.486	77.7487
1.48	77.7616
1.474	77.6784
1.468	77.6553
1.462	77.5523
1.456	77.5173
1.45	77.4817
1.444	77.3149
1.438	77.2773
1.432	77.2601
1.426	77.2388
1.42	77.2628
1.414	77.2696
1.408	77.2466
1.402	77.3029
1.396	77.4656
1.39	77.4626
1.384	77.4949
1.378	77.5358
1.372	77.5885
1.366	77.5077
1.36	77.4951
1.354	77.427
1.348	77.344
1.342	77.3936
1.336	77.343
1.33	77.2874
1.324	77.2377
1.318	77.2354
1.312	77.2438
1.306	77.2571
1.3	77.2366
1.294	77.1327
1.288	77.1052
1.282	77.1004
1.276	76.9582
1.27	76.9673
1.264	76.9256
1.258	76.8742
1.252	76.7994
1.246	76.7455
1.24	76.69
1.234	76.65
1.228	76.6516
1.222	76.5982
1.216	76.4588
1.21	76.4183
1.204	76.3738
1.198	76.3076
1.192	76.224
1.186	76.2039
1.18	76.1392
1.174	76.0465
1.168	75.9751
1.162	75.9531
1.156	75.8749
1.15	75.825
1.144	75.8392
1.138	75.8119
1.132	75.7226
1.126	75.7205
1.12	75.5716
1.114	75.5836
1.108	75.4783
1.102	75.5219
1.096	75.5321
1.09	75.4258
1.084	75.4404
1.078	75.4919
1.072	75.5543
1.066	75.4395
1.06	75.5074
1.054	75.4506
1.048	75.4711
1.042	75.4341
1.036	75.5029
1.03	75.5277
1.024	75.5798
1.018	75.5362
1.012	75.6113
1.006	75.5973
1	75.582
0.994	75.708
0.988	75.7084
0.982	75.7095
0.976	75.8375
0.97	75.7793
0.964	75.8519
0.958	75.8241
0.952	75.8823
0.946	75.9199
0.94	75.8213
0.934	75.9054
0.928	75.8635
0.922	75.8905
0.916	75.832
0.91	75.8095
0.904	75.8571
0.898	75.8885
0.892	75.7883
0.886	75.884
0.88	75.8873
0.874	75.8116
0.868	75.821
0.862	75.7661
0.856	75.8651
0.85	75.8849
0.844	75.9152
0.838	75.8865
0.832	75.9518
0.826	75.8864
0.82	75.7838
0.814	75.7845
0.808	75.7041
0.802	75.5835
0.796	75.4573
0.79	75.4145
0.784	75.2718
0.778	75.1129
0.772	74.9336
0.766	74.7091
0.76	74.4292
0.754	74.1208
0.748	73.7359
0.742	73.2938
0.736	72.7292
0.73	72.0453
0.724	71.2162
0.718	70.2482
0.712	69.1334
0.706	67.9145
0.7	66.6995
0.694	65.5907
0.688	64.6125
0.682	63.7599
0.676	63.0449
0.67	62.4441
0.664	61.9945
0.658	61.6091
0.652	61.2925
0.646	61.0511
0.64	60.9079
0.634	60.7918
0.628	60.6418
0.622	60.4501
0.616	60.2431
0.61	59.9989
0.604	59.7925
0.598	59.7051
0.592	59.7501
0.586	59.7946
0.58	59.8735
0.574	60.0374
0.568	60.2162
0.562	60.3625
0.556	60.4553
0.55	60.6174
0.544	60.7681
0.538	60.9175
0.532	61.0997
0.526	61.323
0.52	61.4895
0.514	61.6243
0.508	61.7681
0.502	61.9157
0.496	62.0361
0.49	62.1332
0.484	62.1349
0.478	62.2464
0.472	62.3285
0.466	62.376
0.46	62.3707
0.454	62.2779
0.448	62.1061
0.442	61.8282
0.436	61.4405
0.43	60.9903
0.424	60.4512
0.418	59.8745
0.412	59.257
0.406	58.5734
0.4	57.7901
