Name: Gahnite ZnAl_2O_4
Type: Mineral
Class: Oxide
Subclass: None
Particle Size: Coarse
Sample No.: O-11A
Owner: JPL
Wavelength Range: VSWIR
Origin: Nigeria, Kaduna, Jemaa, Godogodo Mine
Description: Particle size was 125-500um.Collected by New, David Original ASTER Spectral Library name was jpl.beckman.mineral.oxide.none.coarse.o11a.spectrum.txt
Measurement: Hemispherical reflectance
X Units: Wavelength (micrometers)
Y Units: Reflectance (percent)
wavelength	value
0.4	20.09
0.403	20.67
0.406	21.52
0.409	22.46
0.412	23.56
0.415	24.87
0.418	26.28
0.421	27.53
0.424	28.56
0.427	29.79
0.43	30.47
0.433	31.5
0.436	32.51
0.439	32.93
0.442	33.34
0.445	33.31
0.448	33.13
0.451	32.61
0.454	31.4
0.457	30.83
0.46	30.91
0.463	31.85
0.466	32.71
0.469	33.33
0.472	33.88
0.475	34.54
0.478	35.93
0.481	37.15
0.484	37.73
0.487	38.08
0.49	38.31
0.493	38.48
0.496	38.48
0.499	38.05
0.502	37.49
0.505	36.87
0.508	36.36
0.511	35.85
0.514	34.99
0.517	34.05
0.52	33.04
0.523	31.93
0.526	31
0.529	29.96
0.532	29.01
0.535	28.17
0.538	27.46
0.541	26.79
0.544	26.33
0.547	25.89
0.55	25.74
0.553	25.37
0.556	25.22
0.559	25.2
0.562	25.07
0.565	24.69
0.568	24.49
0.571	24.36
0.574	24.17
0.577	24.25
0.58	24.06
0.583	24.06
0.586	24.04
0.589	24.33
0.592	24.68
0.595	25.06
0.598	25.45
0.601	25.8
0.604	25.96
0.607	26.21
0.61	26
0.613	25.64
0.616	25.44
0.619	25.15
0.622	25.39
0.625	25.7
0.628	25.8
0.631	26.36
0.634	26.96
0.637	27.64
0.64	28.41
0.643	29.08
0.646	29.46
0.649	29.83
0.652	30
0.655	30.31
0.658	30.33
0.661	30.41
0.664	30.51
0.667	30.6
0.67	30.67
0.673	30.75
0.676	30.8
0.679	31.04
0.682	31.17
0.685	31.44
0.688	31.65
0.691	31.79
0.694	32.12
0.697	32.34
0.7	32.48
0.703	32.86
0.706	33.17
0.709	33.4
0.712	33.53
0.715	33.95
0.718	34.08
0.721	34.33
0.724	34.45
0.727	34.44
0.73	34.85
0.733	35.1
0.736	35.47
0.739	35.64
0.742	35.86
0.745	36.18
0.748	36.41
0.751	36.39
0.754	36.64
0.757	36.87
0.76	37.02
0.763	37.22
0.766	37.26
0.769	37.42
0.772	37.55
0.775	37.6
0.778	37.93
0.781	38.1
0.784	38.23
0.787	38.26
0.79	38.33
0.793	38.45
0.796	38.41
0.799	38.66
0.808	39.25
0.82	39.63
0.832	40.08
0.844	40.36
0.856	40.58
0.868	40.69
0.88	40.63
0.892	40.65
0.904	40.59
0.916	40.64
0.928	40.79
0.94	41.28
0.952	41.99
0.964	43.18
0.976	44.62
0.988	46.34
1	47.91
1.012	49.99
1.024	51.73
1.036	53.26
1.048	54.58
1.06	55.65
1.072	56.49
1.084	57.1
1.096	57.48
1.108	57.49
1.12	57.41
1.132	57.13
1.144	56.59
1.156	55.92
1.168	54.94
1.18	53.77
1.192	52.39
1.204	50.96
1.216	49.58
1.228	48.78
1.24	47.85
1.252	47.09
1.264	46.3
1.276	45.01
1.288	43.77
1.3	42.76
1.312	41.97
1.324	40.92
1.336	39.54
1.348	37.69
1.36	35.72
1.372	33.62
1.384	31.41
1.396	29.29
1.408	27.27
1.42	25.15
1.432	23.36
1.444	21.67
1.456	19.82
1.468	18.17
1.48	16.46
1.492	14.86
1.504	13.47
1.516	12.38
1.528	11.39
1.54	10.38
1.552	9.48
1.564	8.64
1.576	7.96
1.588	7.31
1.6	6.81
1.612	6.33
1.624	5.92
1.636	5.63
1.648	5.34
1.66	5.09
1.672	4.82
1.684	4.7
1.696	4.58
1.708	4.48
1.72	4.36
1.732	4.17
1.744	4.14
1.756	4.12
1.768	4.06
1.78	4.01
1.792	3.89
1.804	3.95
1.816	3.93
1.828	3.93
1.84	3.91
1.852	3.83
1.864	3.77
1.876	3.85
1.888	3.8
1.9	3.8
1.912	3.73
1.924	3.67
1.936	3.72
1.948	3.77
1.96	3.82
1.972	3.72
1.984	3.7
1.996	3.74
2.008	3.72
2.02	3.72
2.032	3.72
2.044	3.7
2.056	3.7
2.068	3.71
2.08	3.81
2.092	3.74
2.104	3.69
2.116	3.74
2.128	3.72
2.14	3.78
2.152	3.72
2.164	3.75
2.176	3.74
2.188	3.77
2.2	3.7
2.212	3.77
2.224	3.77
2.236	3.72
2.248	3.76
2.26	3.76
2.272	3.82
2.284	3.81
2.296	3.72
2.308	3.75
2.32	3.75
2.332	3.73
2.344	3.75
2.356	3.77
2.368	3.78
2.38	3.77
2.392	3.81
2.404	3.81
2.416	3.75
2.428	3.75
2.44	3.74
2.452	3.75
2.464	3.79
2.476	3.74
2.488	3.74
2.5	3.78
