Name: Hypersthene (Mg,Fe+2)2Si2O6
Type: Mineral
Class: Silicate
Subclass: Inosilicate
Particle Size: Coarse
Sample No.: hypersth_1
Owner: JHU
Wavelength Range: TIR
Origin: Western Greenland, via the Smithsonian (sample no. NMNHC2368).
Description: Black in color; a small amount of surface contamination was removed; some mineral inclusions were separated from the remainder of the sample after crushing.  Under the microscope, the sample was green-brown pleochroic, with a high index of refraction.  It appeared mildly altered with some (2%) iron-stained opaque material present. Particle size was 74-250 micrometers.(Pyroxene Group) Original ASTER Spectral Library name was jhu.nicolet.mineral.silicate.inosilicate.coarse.hypers1.spectrum.txt
Measurement: Bidirectional reflectance
X Units: Wavelength (micrometers)
Y Units: Reflectance (percent)
wavelength	value
25.0442	4.9731
24.3388	4.4807
23.6719	4.6147
23.0407	5.4912
22.4422	6.185
21.8741	5.9712
21.334	5.3938
20.8199	6.1179
20.33	7.5559
19.8627	8.8376
19.4163	9.2446
18.9896	7.5083
18.5812	7.4988
18.19	7.1557
17.815	6.4949
17.4551	6.9162
17.1094	5.6125
16.7772	4.4951
16.4576	3.3889
16.15	2.2544
15.8537	2.4624
15.568	2.4895
15.2925	2.2634
15.0265	2.094
14.7697	2.2937
14.5214	2.7417
14.2814	2.3975
14.0492	2.3184
13.8244	2.4543
13.6067	2.1816
13.3957	2.3423
13.1912	2.404
12.9929	2.3413
12.8004	2.4841
12.6135	2.6799
12.432	2.8572
12.2557	3.0786
12.0843	3.3445
11.9176	3.6152
11.7555	3.9392
11.5977	4.3486
11.444	4.8274
11.2944	4.8616
11.1487	4.1902
11.0067	3.8325
10.8682	4.3794
10.7332	4.72
10.6015	4.9949
10.473	5.5393
10.3476	5.6328
10.2251	5.8606
10.1056	5.3608
9.9887	5.0369
9.8746	4.5288
9.763	5.1855
9.6539	6.01
9.5472	6.8428
9.4429	7.2954
9.3408	7.1042
9.2409	6.885
9.1431	6.7973
9.0474	6.801
8.9536	6.7673
8.8618	6.3679
8.7718	6.1929
8.6837	4.8396
8.5973	2.6482
8.5126	0.981
8.4295	0.603
8.3481	0.6914
8.2682	0.7913
8.1898	0.894
8.1129	0.9949
8.0374	1.0808
7.9634	1.1748
7.8906	1.2541
7.8192	1.3228
7.7491	1.4065
7.6802	1.4822
7.6126	1.5642
7.5461	1.6306
7.4807	1.7021
7.4165	1.7751
7.3534	1.8418
7.2914	1.9206
7.2303	1.9736
7.1703	2.0244
7.1113	2.0664
7.0533	2.0962
6.9962	2.126
6.94	2.145
6.8847	2.1816
6.8302	2.2173
6.7767	2.2334
6.7239	2.2429
6.672	2.2417
6.6209	2.2446
6.5705	2.2881
6.5209	2.3086
6.4721	2.2817
6.424	2.227
6.3766	2.1526
6.3299	2.0857
6.2838	2.0637
6.2385	2.0718
6.1937	2.0801
6.1496	2.1143
6.1062	2.1567
6.0633	2.1685
6.0211	2.1885
5.9794	2.2305
5.9383	2.3296
5.8978	2.4131
5.8578	2.4287
5.8184	2.4031
5.7794	2.3896
5.741	2.4165
5.7031	2.4341
5.6657	2.4224
5.6288	2.4148
5.5924	2.4509
5.5564	2.5308
5.5209	2.6074
5.4859	2.6216
5.4513	2.6096
5.4171	2.6309
5.3833	2.688
5.35	2.7051
5.3171	2.6728
5.2846	2.5842
5.2524	2.4973
5.2207	2.4221
5.1893	2.3442
5.1584	2.3122
5.1277	2.3457
5.0975	2.404
5.0676	2.4866
5.038	2.5698
5.0088	2.6128
4.98	2.6421
4.9514	2.6738
4.9232	2.7139
4.8953	2.749
4.8678	2.7712
4.8405	2.834
4.8135	2.9282
4.7868	3.0347
4.7605	3.123
4.7344	3.1995
4.7086	3.2827
4.6831	3.3906
4.6578	3.5342
4.6328	3.6758
4.6081	3.8079
4.5837	3.9084
4.5595	3.9656
4.5356	4.0173
4.5119	4.0539
4.4884	4.0701
4.4652	4.0779
4.4423	4.0847
4.4196	4.0969
4.3971	4.1182
4.3748	4.1213
4.3528	4.1321
4.331	4.135
4.3094	4.1418
4.288	4.1433
4.2668	4.154
4.2458	4.1745
4.2251	4.198
4.2045	4.2126
4.1841	4.2244
4.164	4.2331
4.144	4.2495
4.1242	4.2573
4.1046	4.262
4.0852	4.2781
4.066	4.2825
4.047	4.3064
4.0281	4.3052
4.0094	4.311
3.9909	4.3174
3.9725	4.3296
3.9544	4.343
3.9363	4.3442
3.9185	4.3601
3.9008	4.3664
3.8833	4.386
3.8659	4.3865
3.8487	4.4055
3.8316	4.4175
3.8147	4.4182
3.7979	4.4355
3.7813	4.4453
3.7648	4.4509
3.7485	4.4548
3.7323	4.4795
3.7162	4.4778
3.7003	4.4814
3.6845	4.4751
3.6689	4.4929
3.6534	4.49
3.638	4.4812
3.6227	4.5078
3.6076	4.5083
3.5926	4.5107
3.5777	4.5098
3.563	4.5051
3.5484	4.5022
3.5338	4.5078
3.5195	4.512
3.5052	4.4953
3.491	4.5185
3.477	4.529
3.463	4.5281
3.4492	4.5207
3.4355	4.53
3.4219	4.529
3.4084	4.5317
3.395	4.5378
3.3817	4.5456
3.3685	4.5459
3.3554	4.5386
3.3425	4.5464
3.3296	4.55
3.3168	4.5559
3.3041	4.531
3.2915	4.5369
3.279	4.5298
3.2666	4.5276
3.2543	4.5139
3.2421	4.5015
3.23	4.4844
3.218	4.489
3.206	4.4726
3.1942	4.459
3.1824	4.449
3.1707	4.4309
3.1591	4.4231
3.1476	4.4033
3.1362	4.3879
3.1249	4.3769
3.1136	4.3437
3.1024	4.3349
3.0913	4.3413
3.0803	4.3154
3.0694	4.3164
3.0585	4.3374
3.0477	4.3218
3.037	4.3176
3.0264	4.291
3.0158	4.2727
3.0053	4.2629
2.9949	4.2366
2.9845	4.2224
2.9743	4.1951
2.9641	4.1731
2.9539	4.1338
2.9439	4.0871
2.9339	4.0596
2.9239	4.0293
2.9141	4.0222
2.9043	4.0347
2.8946	4.0417
2.8849	4.0456
2.8753	4.0605
2.8658	4.0447
2.8563	4.0239
2.8469	4.0215
2.8375	4.022
2.8282	4.009
2.819	4.0027
2.8098	3.9455
2.8007	3.9553
2.7917	3.9741
2.7827	3.979
2.7738	3.9805
2.7649	3.9902
2.7561	3.9895
2.7473	3.9988
2.7386	3.9675
2.7299	3.9524
2.7213	4.0906
2.7128	4.4119
2.7043	4.6604
2.6959	4.8808
2.6875	5.021
2.6791	5.0869
2.6709	5.0754
2.6626	5.1184
2.6545	5.1138
2.6463	5.0974
2.6382	5.1008
2.6302	5.0718
2.6222	5.095
2.6143	5.063
2.6064	5.0459
2.5986	5.0449
2.5908	5.061
2.583	5.0679
2.5753	5.0315
2.5677	5.022
2.5601	5.0151
2.5525	5.0183
2.545	5.0229
2.5375	4.9878
2.5301	4.9756
2.5227	4.9741
2.5154	4.937
2.5081	4.9109
2.5008	4.9202
2.4936	4.8901
2.4864	4.8891
2.4793	4.8765
2.4722	4.8826
2.4651	4.8342
2.4581	4.8013
2.4511	4.801
2.4442	4.7651
2.4373	4.7624
2.4305	4.7419
2.4236	4.7251
2.4169	4.7114
2.4101	4.6687
2.4034	4.687
2.3967	4.6301
2.3901	4.6116
2.3835	4.5937
2.377	4.5654
2.3704	4.5395
2.364	4.5078
2.3575	4.5066
2.3511	4.4883
2.3447	4.4263
2.3384	4.4143
2.3321	4.3782
2.3258	4.3464
2.3195	4.3083
2.3133	4.2917
2.3071	4.2466
2.301	4.208
2.2949	4.1838
2.2888	4.1924
2.2828	4.1352
2.2767	4.1238
2.2708	4.103
2.2648	4.06
2.2589	4.0278
2.253	3.99
2.2471	3.9668
2.2413	3.9355
2.2355	3.915
2.2297	3.8345
2.224	3.8057
2.2183	3.7739
2.2126	3.7612
2.207	3.7136
2.2013	3.6604
2.1957	3.6277
2.1902	3.6299
2.1846	3.5664
2.1791	3.5527
2.1736	3.5122
2.1682	3.4604
2.1628	3.4067
2.1574	3.4311
2.152	3.3252
2.1466	3.3303
2.1413	3.2983
2.136	3.2515
2.1308	3.2056
2.1255	3.1636
2.1203	3.2002
2.1151	3.0835
2.11	3.072
2.1048	3.0498
2.0997	3.0054
2.0946	2.9585
2.0895	2.9436
2.0845	2.8828
2.0795	2.8774
