Name: Datolite CaBSiO4(OH)
Type: Mineral
Class: Silicate
Subclass: Nesosilicate
Particle Size: Coarse
Sample No.: datolite_1
Owner: JHU
Wavelength Range: TIR
Origin: Hunt and Salisbury Collection #442B;  Sample fromConnecticut.
Description: White particulate samples appear to be pure datolite, with <<1% of the grains containing fluid inclusions.Particle size was 74-250 Micrometers. (Ring Silicates) Original ASTER Spectral Library name was jhu.nicolet.mineral.silicate.nesosilicate.coarse.datoli1.spectrum.txt
Measurement: Bidirectional reflectance
X Units: Wavelength (micrometers)
Y Units: Reflectance (percent)
wavelength	value
25.0442	2.8437
24.3388	3.0063
23.6719	3.7546
23.0407	2.6123
22.4422	3.2251
21.8741	3.4043
21.334	4.3613
20.8199	4.4043
20.33	6.1909
19.8627	7.1169
19.4163	8.1814
18.9896	8.5068
18.5812	6.2781
18.19	3.5969
17.815	1.083
17.4551	2.5813
17.1094	1.8933
16.7772	1.2559
16.4576	1.5588
16.15	1.6833
15.8537	1.978
15.568	2.1279
15.2925	2.2278
15.0265	2.333
14.7697	2.4194
14.5214	2.697
14.2814	1.9343
14.0492	2.2197
13.8244	2.4163
13.6067	2.605
13.3957	2.7566
13.1912	2.8879
12.9929	3.2388
12.8004	4.2031
12.6135	3.0845
12.432	2.3254
12.2557	2.7615
12.0843	3.1482
11.9176	3.6548
11.7555	4.7143
11.5977	3.6023
11.444	4.9719
11.2944	5.5869
11.1487	3.9192
11.0067	4.7707
10.8682	6.1806
10.7332	6.134
10.6015	7.1838
10.473	6.1326
10.3476	4.0183
10.2251	5.9079
10.1056	7.3967
9.9887	7.5854
9.8746	8.0779
9.763	5.9248
9.6539	5.1391
9.5472	5.5039
9.4429	5.5217
9.3408	4.9328
9.2409	5.1267
9.1431	5.6001
9.0474	6.1628
8.9536	6.9568
8.8618	7.8408
8.7718	8.1755
8.6837	6.7485
8.5973	6.6152
8.5126	6.6545
8.4295	6.563
8.3481	5.6814
8.2682	4.03
8.1898	2.6125
8.1129	1.6101
8.0374	0.9668
7.9634	0.5159
7.8906	0.312
7.8192	0.3142
7.7491	0.3616
7.6802	0.4414
7.6126	0.5183
7.5461	0.5645
7.4807	0.584
7.4165	0.6082
7.3534	0.6504
7.2914	0.7144
7.2303	0.7825
7.1703	0.8957
7.1113	0.9922
7.0533	1.0325
6.9962	1.0581
6.94	1.1177
6.8847	1.1514
6.8302	1.1999
6.7767	1.2356
6.7239	1.2554
6.672	1.2302
6.6209	1.2439
6.5705	1.2732
6.5209	1.2268
6.4721	1.1746
6.424	1.1931
6.3766	1.2419
6.3299	1.2551
6.2838	1.2654
6.2385	1.282
6.1937	1.3032
6.1496	1.3135
6.1062	1.3166
6.0633	1.3276
6.0211	1.3718
5.9794	1.4355
5.9383	1.4878
5.8978	1.551
5.8578	1.5432
5.8184	1.5769
5.7794	1.6992
5.741	1.8711
5.7031	1.9133
5.6657	1.9399
5.6288	1.876
5.5924	1.7427
5.5564	1.6592
5.5209	1.6108
5.4859	1.5413
5.4513	1.4936
5.4171	1.4661
5.3833	1.4221
5.35	1.4209
5.3171	1.481
5.2846	1.5225
5.2524	1.5989
5.2207	1.6785
5.1893	1.7476
5.1584	1.8057
5.1277	1.8596
5.0975	1.9006
5.0676	1.9592
5.038	2.0076
5.0088	2.064
4.98	2.1411
4.9514	2.2339
4.9232	2.373
4.8953	2.4873
4.8678	2.5867
4.8405	2.7019
4.8135	2.8445
4.7868	2.9905
4.7605	3.0959
4.7344	3.1516
4.7086	3.227
4.6831	3.3418
4.6578	3.51
4.6328	3.7058
4.6081	4.0085
4.5837	4.3542
4.5595	4.636
4.5356	4.8371
4.5119	4.9639
4.4884	5.1225
4.4652	5.2197
4.4423	5.2197
4.4196	5.1658
4.3971	5.0547
4.3748	4.9607
4.3528	4.8308
4.331	4.6958
4.3094	4.4663
4.288	4.1504
4.2668	3.9412
4.2458	4.1096
4.2251	4.5686
4.2045	5.1636
4.1841	5.6797
4.164	6.0854
4.144	6.3445
4.1242	6.529
4.1046	6.6763
4.0852	6.7793
4.066	6.8083
4.047	6.7676
4.0281	6.6894
4.0094	6.6316
3.9909	6.5688
3.9725	6.5996
3.9544	6.6972
3.9363	6.8159
3.9185	6.8598
3.9008	6.8735
3.8833	6.8735
3.8659	6.6958
3.8487	6.9961
3.8316	7.0617
3.8147	7.1216
3.7979	7.2275
3.7813	7.2424
3.7648	7.1213
3.7485	6.9087
3.7323	6.7121
3.7162	6.8222
3.7003	7.0054
3.6845	7.1614
3.6689	7.199
3.6534	7.2285
3.638	7.3481
3.6227	7.3818
3.6076	7.29
3.5926	7.0701
3.5777	6.467
3.563	5.5835
3.5484	5.5569
3.5338	5.2058
3.5195	5.9409
3.5052	6.5669
3.491	6.6765
3.477	6.5278
3.463	6.2746
3.4492	6.0434
3.4355	6.164
3.4219	6.1662
3.4084	6.1655
3.395	6.1308
3.3817	6.0608
3.3685	6.345
3.3554	6.3074
3.3425	6.2969
3.3296	6.0993
3.3168	5.905
3.3041	5.8581
3.2915	5.729
3.279	5.5251
3.2666	5.3662
3.2543	5.2334
3.2421	5.041
3.23	5.1199
3.218	5.1011
3.206	4.8799
3.1942	4.8354
3.1824	4.8147
3.1707	4.873
3.1591	4.7888
3.1476	4.7632
3.1362	4.9121
3.1249	4.7724
3.1136	4.7612
3.1024	4.6645
3.0913	4.4426
3.0803	4.3044
3.0694	4.1186
3.0585	3.8826
3.0477	3.522
3.037	3.29
3.0264	3.2432
3.0158	3.3828
3.0053	3.4766
2.9949	3.3027
2.9845	3.1279
2.9743	2.9687
2.9641	2.8926
2.9539	2.8696
2.9439	2.7698
2.9339	2.8799
2.9239	2.7917
2.9141	2.4746
2.9043	2.3547
2.8946	2.1123
2.8849	1.8176
2.8753	1.6123
2.8658	1.864
2.8563	0.8005
2.8469	1.1555
2.8375	1.6946
2.8282	2.3174
2.819	2.8774
2.8098	3.2883
2.8007	3.6767
2.7917	3.8279
2.7827	3.654
2.7738	3.5537
2.7649	3.3208
2.7561	3.4744
2.7473	3.5403
2.7386	3.9805
2.7299	4.333
2.7213	4.6836
2.7128	4.7695
2.7043	4.7251
2.6959	4.3826
2.6875	4.6125
2.6791	5.0605
2.6709	5.3147
2.6626	5.2375
2.6545	5.1304
2.6463	5.0698
2.6382	4.3247
2.6302	4.1558
2.6222	4.6155
2.6143	4.7165
2.6064	4.5727
2.5986	4.7756
2.5908	4.9719
2.583	5.8708
2.5753	6.2038
2.5677	6.1648
2.5601	5.4988
2.5525	5.552
2.545	6.0268
2.5375	6.2966
2.5301	6.1655
2.5227	5.4304
2.5154	5.4275
2.5081	5.7453
2.5008	5.7544
2.4936	5.0649
2.4864	4.9348
2.4793	4.4492
2.4722	3.8035
2.4651	4.3122
2.4581	4.7366
2.4511	4.5102
2.4442	4.0859
2.4373	4.0649
2.4305	5.302
2.4236	5.4636
2.4169	3.4172
2.4101	2.8166
2.4034	3.7366
2.3967	3.6926
2.3901	3.4065
2.3835	4.1728
2.377	6.5698
2.3704	8.0874
2.364	8.6377
2.3575	8.5991
2.3511	7.6753
2.3447	6.6189
2.3384	7.3464
2.3321	7.6577
2.3258	7.3867
2.3195	7.5481
2.3133	7.3782
2.3071	8.0173
2.301	7.6762
2.2949	7.4319
2.2888	6.4839
2.2828	5.5337
2.2767	5.7915
2.2708	5.9468
2.2648	5.8645
2.2589	5.779
2.253	5.9797
2.2471	6.3611
2.2413	6.4646
2.2355	6.1658
2.2297	5.9228
2.224	5.8266
2.2183	6.1689
2.2126	6.7287
2.207	7.168
2.2013	7.0845
2.1957	6.7121
2.1902	6.6562
2.1846	6.425
2.1791	5.9221
2.1736	5.7578
2.1682	5.4707
2.1628	4.8533
2.1574	4.7612
2.152	5.1313
2.1466	5.6335
2.1413	6.3113
2.136	6.1929
2.1308	5.8406
2.1255	5.737
2.1203	5.9402
2.1151	6.6758
2.11	7.8833
2.1048	8.9624
2.0997	9.6086
2.0946	10.0068
2.0895	10.177
2.0845	9.979
2.0795	9.7778
