Name: Zircon ZrSiO_4
Type: Mineral
Class: Silicate
Subclass: Nesosilicate
Particle Size: Fine
Sample No.: NS-9A
Owner: JPL
Wavelength Range: VSWIR
Origin: Malawi, Southern Malawi, Blantyre-Limbe District
Description: Particle size was 0-45um.Collected by Burminco Original ASTER Spectral Library name was jpl.beckman.mineral.silicate.nesosilicate.fine.ns09a.spectrum.txt
Measurement: Hemispherical reflectance
X Units: Wavelength (micrometers)
Y Units: Reflectance (percent)
wavelength	value
0.4	26.13
0.403	26.52
0.406	26.92
0.409	27.17
0.412	27.48
0.415	27.87
0.418	28.36
0.421	28.68
0.424	29.17
0.427	29.68
0.43	30.22
0.433	30.69
0.436	31.52
0.439	31.97
0.442	32.48
0.445	32.86
0.448	33.34
0.451	33.59
0.454	33.81
0.457	34.1
0.46	34.23
0.463	34.42
0.466	34.56
0.469	34.92
0.472	35.11
0.475	35.26
0.478	35.37
0.481	35.68
0.484	36.01
0.487	36.43
0.49	36.82
0.493	37.21
0.496	37.45
0.499	37.97
0.502	38.31
0.505	38.73
0.508	39.15
0.511	39.55
0.514	39.93
0.517	40.49
0.52	41.08
0.523	41.59
0.526	42.24
0.529	42.63
0.532	43.17
0.535	43.55
0.538	44.18
0.541	44.71
0.544	45.31
0.547	45.89
0.55	46.48
0.553	46.97
0.556	47.48
0.559	47.82
0.562	48.76
0.565	49.38
0.568	49.75
0.571	50.18
0.574	50.52
0.577	50.87
0.58	51.22
0.583	51.54
0.586	51.81
0.589	52.25
0.592	52.68
0.595	53.2
0.598	53.55
0.601	54.03
0.604	54.47
0.607	54.66
0.61	54.96
0.613	55.13
0.616	55.3
0.619	55.53
0.622	55.97
0.625	56.28
0.628	56.45
0.631	56.73
0.634	56.88
0.637	57.02
0.64	57.11
0.643	57.27
0.646	57.27
0.649	56.72
0.652	56.35
0.655	57.32
0.658	57.97
0.661	58.59
0.664	59.28
0.667	59.85
0.67	60.11
0.673	60.44
0.676	60.67
0.679	60.69
0.682	60.79
0.685	60.95
0.688	61.04
0.691	61.58
0.694	61.92
0.697	62.3
0.7	62.33
0.703	62.89
0.706	63.14
0.709	63.24
0.712	63.43
0.715	63.75
0.718	63.97
0.721	64.07
0.724	64.39
0.727	64.62
0.73	64.82
0.733	64.89
0.736	65.18
0.739	65.3
0.742	65.43
0.745	65.61
0.748	65.78
0.751	65.8
0.754	65.91
0.757	66.05
0.76	66.13
0.763	66.14
0.766	66.27
0.769	66.54
0.772	66.39
0.775	66.52
0.778	66.51
0.781	66.55
0.784	66.48
0.787	66.52
0.79	66.48
0.793	66.31
0.796	66.45
0.799	66.4
0.808	66.69
0.82	66.42
0.832	66.2
0.844	65.95
0.856	65.79
0.868	65.78
0.88	65.55
0.892	65.44
0.904	65.5
0.916	65.52
0.928	65.87
0.94	66
0.952	66.02
0.964	66.12
0.976	66.1
0.988	66.4
1	66.37
1.012	66.45
1.024	66.48
1.036	66.18
1.048	66.09
1.06	66.25
1.072	66.52
1.084	66.42
1.096	66.12
1.108	65.15
1.12	65.98
1.132	67.35
1.144	68.3
1.156	69.56
1.168	70.39
1.18	71.1
1.192	71.49
1.204	71.85
1.216	71.89
1.228	72.01
1.24	72.08
1.252	72.14
1.264	72.1
1.276	72.05
1.288	72.08
1.3	71.97
1.312	71.83
1.324	71.67
1.336	71.76
1.348	71.8
1.36	72.27
1.372	72.52
1.384	72.42
1.396	72.53
1.408	72.42
1.42	72.65
1.432	72.56
1.444	72.54
1.456	72.21
1.468	71.9
1.48	71.45
1.492	70.25
1.504	70.09
1.516	72.04
1.528	72.35
1.54	72.69
1.552	73.17
1.564	73.37
1.576	73.57
1.588	73.69
1.6	73.78
1.612	73.74
1.624	73.7
1.636	73.7
1.648	73.63
1.66	73.6
1.672	73.74
1.684	73.85
1.696	73.87
1.708	73.9
1.72	73.95
1.732	74.01
1.744	73.94
1.756	73.99
1.768	73.99
1.78	74.08
1.792	74.11
1.804	74.1
1.816	74.12
1.828	74.07
1.84	74.14
1.852	74.06
1.864	74.08
1.876	73.94
1.888	73.76
1.9	73.47
1.912	73.38
1.924	73.24
1.936	73.32
1.948	73.26
1.96	73.39
1.972	73.4
1.984	73.5
1.996	73.8
2.008	73.76
2.02	73.76
2.032	73.66
2.044	73.42
2.056	73.31
2.068	73.24
2.08	73.34
2.092	73.68
2.104	73.87
2.116	74.13
2.128	74.25
2.14	74.08
2.152	73.73
2.164	73.59
2.176	73.45
2.188	73.25
2.2	73.14
2.212	73.16
2.224	73.5
2.236	73.35
2.248	73.44
2.26	73.44
2.272	73.49
2.284	73.48
2.296	73.45
2.308	73.46
2.32	73.59
2.332	73.67
2.344	73.47
2.356	73.5
2.368	73.27
2.38	73.28
2.392	73.14
2.404	73.18
2.416	73.14
2.428	72.98
2.44	72.84
2.452	72.59
2.464	72.5
2.476	72.55
2.488	72.5
2.5	72.82
