Name: Antlerite Cu_3(SO_4)(OH)_4
Type: Mineral
Class: Sulfate
Subclass: None
Particle Size: Fine
Sample No.: SO-11A
Owner: JPL
Wavelength Range: TIR
Origin: USA, Arizona, Greenlee County, Morenci
Description: Particle size was 0-45um.Collected by Burminco Original ASTER Spectral Library name was jpl.nicolet.mineral.sulfate.none.fine.so11a.spectrum.txt
Measurement: Hemispherical reflectance
X Units: Wavelength (micrometers)
Y Units: Reflectance (percent)
wavelength	value
15.3853	2.699
15.1161	1.7195
14.8563	2.4031
14.6052	2.5866
14.3624	3.1086
14.1276	3.8828
13.9004	4.5455
13.6803	4.3763
13.4671	4.0884
13.2604	4.0507
13.06	3.8424
12.8656	3.7633
12.6769	4.275
12.4936	4.6337
12.3155	3.0962
12.1425	2.349
11.9742	2.7683
11.8106	3.0267
11.6513	2.8311
11.4963	3.5975
11.3454	4.6534
11.1983	4.7019
11.0551	3.8384
10.9154	3.0762
10.7793	3.3549
10.6465	4.0901
10.5169	4.9797
10.3904	5.7195
10.267	5.7054
10.1464	4.1501
10.0287	4.572
9.9136	5.1461
9.8012	5.1844
9.6913	5.122
9.5838	5.6516
9.4787	5.5991
9.3758	6.4254
9.2752	8.753
9.1767	8.408
9.0803	8.0561
8.9858	7.72
8.8934	7.1006
8.8028	6.0164
8.714	6.397
8.627	6.5974
8.5417	7.7242
8.4581	4.8886
8.3761	4.6358
8.2957	5.0287
8.2169	5.5103
8.1395	5.1208
8.0635	5.335
7.989	6.7227
7.9158	8.5345
7.8439	10.8358
7.7734	12.5514
7.7041	14.5435
7.636	16.12
7.5691	17.3384
7.5034	18.2038
7.4388	18.6194
7.3753	20.1364
7.3129	21.7448
7.2515	22.1464
7.1912	21.7804
7.1318	21.6214
7.0734	22.479
7.016	23.5972
6.9595	24.9382
6.9039	24.8252
6.8492	24.0555
6.7953	22.6967
6.7423	20.7425
6.6901	20.8616
6.6387	22.0792
6.5881	20.924
6.5382	18.5643
6.4892	17.438
6.4408	16.5605
6.3931	17.1603
6.3462	18.2404
6.2999	18.0207
6.2543	19.2328
6.2094	20.4342
6.1651	21.0966
6.1214	21.48
6.0784	21.3557
6.0359	21.3381
5.994	21.4877
5.9527	20.9975
5.912	21.79
5.8718	23.7059
5.8322	25.2021
5.7931	25.6256
5.7545	25.7519
5.7165	25.961
5.6789	25.7613
5.6418	25.9124
5.6052	26.2241
5.5691	27.5985
5.5334	29.2363
5.4982	30.7069
5.4635	32.3622
5.4291	32.9722
5.3952	31.3576
5.3618	30.5074
5.3287	31.3981
5.2961	33.0076
5.2638	34.4672
5.2319	36.122
5.2004	37.2743
5.1693	37.7722
5.1386	37.5543
5.1082	36.5242
5.0782	34.8816
5.0485	37.4036
5.0192	38.6503
4.9902	39.6356
4.9616	40.9119
4.9332	40.2017
4.9052	35.6045
4.8776	23.6688
4.8502	23.3206
4.8231	31.2767
4.7963	35.686
4.7699	32.9263
4.7437	38.9173
4.7178	36.0292
4.6922	28.4745
4.6668	29.5231
4.6418	33.8814
4.617	39.3248
4.5924	37.9731
4.5681	37.4621
4.5441	41.0748
4.5203	44.1572
4.4968	42.2635
4.4735	40.3103
4.4505	41.4484
4.4277	42.9546
4.4051	41.8889
4.3828	40.9636
4.3607	43.1997
4.3388	45.8507
4.3171	48.2147
4.2956	51.0379
4.2744	52.4052
4.2534	53.809
4.2325	53.9461
4.2119	54.8325
4.1915	55.4295
4.1712	55.5759
4.1512	55.8161
4.1313	56.1508
4.1117	56.2456
4.0922	56.3761
4.0729	56.5008
4.0538	56.431
4.0349	56.4995
4.0161	56.6311
3.9976	56.6506
3.9792	56.7158
3.9609	56.872
3.9428	56.8302
3.9249	56.6717
3.9072	56.6134
3.8896	55.8797
3.8722	55.8453
3.8549	56.2981
3.8378	56.2838
3.8208	56.2715
3.804	55.9341
3.7873	53.663
3.7708	54.8391
3.7544	54.7213
3.7382	54.3088
3.7221	53.5099
3.7061	53.2751
3.6903	53.6219
3.6746	54.7188
3.659	54.851
3.6436	54.9653
3.6283	54.7055
3.6131	54.2742
3.5981	52.9584
3.5832	51.4908
3.5684	51.2341
3.5537	51.7986
3.5391	51.454
3.5247	51.382
3.5104	51.2701
3.4962	51.142
3.4821	50.8366
3.4681	50.2056
3.4543	49.9329
3.4405	49.2363
3.4269	48.2981
3.4133	47.7099
3.3999	47.1605
3.3866	46.7552
3.3733	45.8961
3.3602	44.8025
3.3472	44.3732
3.3343	44.2275
3.3215	43.653
3.3088	43.0116
3.2961	42.407
3.2836	41.7542
3.2712	41.2066
3.2588	40.4326
3.2466	40.0933
3.2345	39.5537
3.2224	38.5732
3.2104	38.0076
3.1985	37.4096
3.1867	36.627
3.175	36.0602
3.1634	35.4201
3.1519	34.829
3.1404	33.959
3.129	33.1911
3.1178	31.9537
3.1065	30.6834
3.0954	29.7833
3.0844	29.239
3.0734	28.3453
3.0625	28.2951
3.0517	27.4118
3.041	25.4681
3.0303	23.1613
3.0197	22.0185
3.0092	21.2547
2.9987	19.8099
2.9884	19.348
2.9781	17.5833
2.9678	16.0567
2.9577	16.3114
2.9476	14.6978
2.9376	14.7728
2.9276	13.5193
2.9177	11.8053
2.9079	10.5763
2.8982	8.5643
2.8885	6.949
2.8789	4.8386
2.8693	4.3883
2.8598	4.5399
2.8504	4.9962
2.841	7.6028
2.8317	9.9068
2.8224	10.8611
2.8133	10.6425
2.8041	6.899
2.7951	4.9435
2.786	6.1491
2.7771	12.8469
2.7682	14.9677
2.7594	13.5955
2.7506	15.0925
2.7418	18.7358
2.7332	18.605
2.7246	20.2018
2.716	21.2785
2.7075	21.7802
2.699	23.3531
2.6906	33.7744
2.6823	40.9312
2.674	44.9479
2.6657	47.5281
2.6575	50.5015
2.6494	53.4308
2.6413	53.1918
2.6332	51.9122
2.6252	49.7213
2.6173	46.9987
2.6094	41.3815
2.6015	39.8882
2.5937	45.9957
2.5859	50.3028
2.5782	53.0921
2.5706	51.1456
2.5629	48.6262
2.5554	46.3015
2.5478	47.5073
2.5403	47.5114
2.5329	47.6852
2.5255	47.8729
2.5181	48.2876
2.5108	46.685
2.5035	48.8086
2.4963	51.7017
2.4891	53.8815
2.482	53.7549
2.4749	52.2383
2.4678	50.1105
2.4608	49.4234
2.4538	46.3334
2.4468	45.9201
2.4399	48.3004
2.4331	52.0368
2.4262	52.6582
2.4194	53.9477
2.4127	53.8626
2.4059	54.0389
2.3993	52.0675
2.3926	47.8711
2.386	47.2022
2.3795	47.9306
2.3729	40.1646
2.3664	38.4695
2.36	31.7076
2.3535	30.0788
2.3471	31.0029
2.3408	32.4566
2.3345	36.2403
2.3282	37.8233
2.3219	35.6271
2.3157	30.3791
2.3095	25.3863
2.3034	26.8289
2.2972	33.5762
2.2911	40.196
2.2851	45.3961
2.279	50.269
2.2731	52.6661
2.2671	53.9481
2.2612	54.4806
2.2553	52.0423
2.2494	45.1265
2.2435	47.7036
2.2377	50.4112
2.232	53.9901
2.2262	57.3438
2.2205	59.9804
2.2148	62.0872
2.2091	62.854
2.2035	63.5206
2.1979	63.2381
2.1923	62.2811
2.1868	63.2251
2.1812	64.7013
2.1758	64.816
2.1703	65.2761
2.1649	65.4257
2.1595	64.318
2.1541	61.28
2.1487	61.8686
2.1434	64.573
2.1381	64.9687
2.1328	64.9108
2.1275	65.9219
2.1223	66.2154
2.1171	65.3088
2.112	65.0529
2.1068	66.1652
2.1017	67.7697
2.0966	68.3824
2.0915	68.3614
2.0865	68.2583
2.0814	68.4969
2.0764	68.5709
2.0715	68.7276
2.0665	68.9615
2.0616	68.892
2.0567	68.9039
2.0518	69.2473
2.0469	69.2817
2.0421	69.1628
2.0373	69.0074
2.0325	69.0507
2.0277	68.8317
2.0229	69.0112
2.0182	69.1109
2.0135	69.0186
2.0088	69.2061
2.0042	68.9708
