Name: Quartz SiO_2
Type: Mineral
Class: Silicate
Subclass: Tectosilicate
Particle Size: Coarse
Sample No.: TS-1A
Owner: JPL
Wavelength Range: VSWIR
Origin: USA, Arkansas, Montgomery County, Mount Ida.
Description: Rock crystalParticle size was 125-500um.Collected by:  Burminco Original ASTER Spectral Library name was jpl.perkin.mineral.silicate.tectosilicate.coarse.ts01a.spectrum.txt
Measurement: Hemispherical reflectance
X Units: Wavelength (micrometers)
Y Units: Reflectance (percent)
wavelength	value
2.5	80.5588
2.494	80.3788
2.488	80.5742
2.482	80.786
2.476	80.6949
2.47	80.9733
2.464	80.9863
2.458	81.0822
2.452	81.0588
2.446	81.1729
2.44	81.3439
2.434	81.2939
2.428	81.5869
2.422	81.5566
2.416	81.7865
2.41	81.8261
2.404	81.8658
2.398	81.9693
2.392	82.0531
2.386	82.1626
2.38	82.2345
2.374	82.3363
2.368	82.4312
2.362	82.6107
2.356	82.6273
2.35	82.7327
2.344	82.7813
2.338	82.7692
2.332	82.7971
2.326	82.7865
2.32	82.7735
2.314	82.7664
2.308	82.6893
2.302	82.6799
2.296	82.7301
2.29	82.7242
2.284	82.719
2.278	82.734
2.272	82.6573
2.266	82.6811
2.26	82.7345
2.254	82.7137
2.248	82.7034
2.242	82.7427
2.236	82.7408
2.23	82.7443
2.224	82.7986
2.218	82.8077
2.212	82.8795
2.206	82.969
2.2	83.1061
2.194	83.1966
2.188	83.2428
2.182	83.4557
2.176	83.5706
2.17	83.6425
2.164	83.9487
2.158	84.0573
2.152	84.1757
2.146	84.2295
2.14	84.2474
2.134	84.104
2.128	84.001
2.122	83.9012
2.116	83.5934
2.11	83.2286
2.104	83.0541
2.098	82.8818
2.092	82.9425
2.086	82.9719
2.08	83.0936
2.074	83.1917
2.068	83.2177
2.062	83.2752
2.056	83.3521
2.05	83.4526
2.044	83.5032
2.038	83.5196
2.032	83.5355
2.026	83.5221
2.02	83.5296
2.014	83.493
2.008	83.4829
2.002	83.5277
1.996	83.3997
1.99	83.3529
1.984	83.2242
1.978	83.0743
1.972	83.1139
1.966	83.0219
1.96	83.0259
1.954	83.0978
1.948	83.0511
1.942	82.9424
1.936	82.933
1.93	82.9462
1.924	83.0111
1.918	83.0436
1.912	83.1836
1.906	83.2981
1.9	83.4706
1.894	83.5225
1.888	83.7883
1.882	83.8806
1.876	83.9398
1.87	84.0296
1.864	84.1446
1.858	84.1408
1.852	84.1964
1.846	84.144
1.84	84.143
1.834	84.1939
1.828	84.1619
1.822	84.2261
1.816	84.1632
1.81	84.1891
1.804	84.2573
1.798	84.2546
1.792	84.2386
1.786	84.2012
1.78	84.1988
1.774	84.1522
1.768	84.176
1.762	84.1554
1.756	84.2022
1.75	84.2191
1.744	84.2767
1.738	84.2649
1.732	84.2231
1.726	84.3271
1.72	84.2491
1.714	84.3109
1.708	84.2048
1.702	84.1739
1.696	84.1937
1.69	84.1723
1.684	84.2061
1.678	84.2296
1.672	84.1247
1.666	84.2501
1.66	84.245
1.654	84.2119
1.648	84.2267
1.642	84.2852
1.636	84.1892
1.63	84.1164
1.624	84.2002
1.618	84.1772
1.612	84.2028
1.606	84.2465
1.6	84.1803
1.594	84.2238
1.588	84.1491
1.582	84.136
1.576	84.1375
1.57	84.1144
1.564	84.0743
1.558	84.0819
1.552	84.0939
1.546	84.1092
1.54	83.9941
1.534	84.071
1.528	83.9599
1.522	84.0209
1.516	83.9992
1.51	83.9109
1.504	83.924
1.498	83.9396
1.492	83.9134
1.486	83.8643
1.48	83.8535
1.474	83.8119
1.468	83.8012
1.462	83.872
1.456	83.7922
1.45	83.8676
1.444	83.8473
1.438	83.8126
1.432	83.7943
1.426	83.8165
1.42	83.8425
1.414	83.8636
1.408	83.7699
1.402	83.9024
1.396	84.0011
1.39	83.9773
1.384	84.06
1.378	83.9124
1.372	84.0386
1.366	83.9927
1.36	83.9812
1.354	83.9417
1.348	83.9516
1.342	83.8922
1.336	83.872
1.33	83.8153
1.324	83.8759
1.318	83.8409
1.312	83.8511
1.306	83.9081
1.3	83.9529
1.294	83.7852
1.288	83.8461
1.282	83.8543
1.276	83.7569
1.27	83.796
1.264	83.8279
1.258	83.7363
1.252	83.7122
1.246	83.7596
1.24	83.6983
1.234	83.7518
1.228	83.7441
1.222	83.7238
1.216	83.7405
1.21	83.6892
1.204	83.6935
1.198	83.734
1.192	83.7097
1.186	83.7442
1.18	83.7155
1.174	83.6143
1.168	83.6962
1.162	83.641
1.156	83.7082
1.15	83.6823
1.144	83.6218
1.138	83.6666
1.132	83.6808
1.126	83.6855
1.12	83.6541
1.114	83.7098
1.108	83.6661
1.102	83.6401
1.096	83.6915
1.09	83.6337
1.084	83.639
1.078	83.7053
1.072	83.6749
1.066	83.6364
1.06	83.6631
1.054	83.6054
1.048	83.6216
1.042	83.6079
1.036	83.6554
1.03	83.5666
1.024	83.5995
1.018	83.543
1.012	83.5334
1.006	83.6105
1	83.5172
0.994	83.5939
0.988	83.5347
0.982	83.5673
0.976	83.6055
0.97	83.4702
0.964	83.454
0.958	83.4623
0.952	83.351
0.946	83.4419
0.94	83.463
0.934	83.4028
0.928	83.3371
0.922	83.323
0.916	83.3178
0.91	83.3629
0.904	83.3392
0.898	83.232
0.892	83.2922
0.886	83.1655
0.88	83.2
0.874	83.1132
0.868	82.9641
0.862	83.0175
0.856	82.7744
0.85	82.7599
0.844	82.6256
0.838	82.6973
0.832	82.6119
0.826	82.5917
0.82	82.618
0.814	82.6519
0.808	82.658
0.802	82.6567
0.796	82.5922
0.79	82.5122
0.784	82.4948
0.778	82.4547
0.772	82.4286
0.766	82.4133
0.76	82.4066
0.754	82.3393
0.748	82.3785
0.742	82.3536
0.736	82.3037
0.73	82.2654
0.724	82.2574
0.718	82.2177
0.712	82.21
0.706	82.1859
0.7	82.1618
0.694	82.1449
0.688	82.0942
0.682	82.0631
0.676	82.0681
0.67	82.0429
0.664	82.0228
0.658	82.0232
0.652	81.9612
0.646	81.9735
0.64	81.9463
0.634	81.9287
0.628	81.9132
0.622	81.8775
0.616	81.8893
0.61	81.8719
0.604	81.843
0.598	81.8747
0.592	81.8929
0.586	81.8767
0.58	81.8516
0.574	81.8285
0.568	81.7951
0.562	81.775
0.556	81.705
0.55	81.6685
0.544	81.6454
0.538	81.5897
0.532	81.5561
0.526	81.5172
0.52	81.4603
0.514	81.4082
0.508	81.3345
0.502	81.2787
0.496	81.1644
0.49	81.037
0.484	80.8914
0.478	80.8525
0.472	80.7758
0.466	80.7122
0.46	80.6155
0.454	80.5194
0.448	80.4022
0.442	80.2921
0.436	80.2325
0.43	80.1553
0.424	80.1021
0.418	80.0422
0.412	79.9907
0.406	79.9566
0.4	79.9434
