Name: Diopside CaMg(SiO_3)_2
Type: Mineral
Class: Silicate
Subclass: Inosilicate
Particle Size: Coarse
Sample No.: IN-9B
Owner: JPL
Wavelength Range: VSWIR
Origin: Canada, Quebec.
Description: Particle size was 125-500um.Collected by:  Ward's Original ASTER Spectral Library name was jpl.perkin.mineral.silicate.inosilicate.coarse.in09b.spectrum.txt
Measurement: Hemispherical reflectance
X Units: Wavelength (micrometers)
Y Units: Reflectance (percent)
wavelength	value
2.5	27.5866
2.494	27.2522
2.488	27.3403
2.482	27.191
2.476	27.108
2.47	26.7446
2.464	26.7207
2.458	26.7642
2.452	26.7207
2.446	26.724
2.44	26.6711
2.434	26.8346
2.428	26.671
2.422	26.7284
2.416	26.555
2.41	26.3218
2.404	26.0376
2.398	25.747
2.392	25.5497
2.386	25.5708
2.38	25.7284
2.374	26.1354
2.368	26.3499
2.362	26.5486
2.356	26.5814
2.35	26.4216
2.344	26.1346
2.338	25.6761
2.332	24.9405
2.326	24.1748
2.32	23.5081
2.314	23.3402
2.308	23.5272
2.302	24.1421
2.296	24.7775
2.29	25.3887
2.284	26.1083
2.278	26.8906
2.272	27.3926
2.266	27.7416
2.26	27.9651
2.254	28.0743
2.248	28.2122
2.242	28.2345
2.236	28.4882
2.23	28.625
2.224	28.8196
2.218	29.0408
2.212	29.3468
2.206	29.5042
2.2	29.744
2.194	29.9057
2.188	30.077
2.182	30.359
2.176	30.5698
2.17	30.7416
2.164	31.0383
2.158	31.2246
2.152	31.4047
2.146	31.5586
2.14	31.769
2.134	31.8597
2.128	31.978
2.122	31.9788
2.116	32.0394
2.11	32.0404
2.104	32.1317
2.098	32.2316
2.092	32.4211
2.086	32.6049
2.08	32.808
2.074	33.0374
2.068	33.2682
2.062	33.3904
2.056	33.5928
2.05	33.7177
2.044	33.8516
2.038	34.0349
2.032	34.088
2.026	34.1671
2.02	34.225
2.014	34.2147
2.008	34.2893
2.002	34.3552
1.996	34.3422
1.99	34.2448
1.984	34.2818
1.978	34.1848
1.972	34.148
1.966	34.1365
1.96	34.0388
1.954	34.0784
1.948	34.1272
1.942	34.1004
1.936	33.9805
1.93	33.8771
1.924	33.6944
1.918	33.5547
1.912	33.5926
1.906	33.7406
1.9	34.6708
1.894	35.7862
1.888	36.68
1.882	37.3349
1.876	37.814
1.87	37.9739
1.864	38.273
1.858	38.4278
1.852	38.5545
1.846	38.5147
1.84	38.6441
1.834	38.6951
1.828	38.7689
1.822	38.8156
1.816	38.8208
1.81	38.8048
1.804	38.8589
1.798	38.855
1.792	38.8206
1.786	38.8574
1.78	38.9281
1.774	38.9269
1.768	38.8632
1.762	38.8363
1.756	38.8374
1.75	38.8331
1.744	38.8255
1.738	38.8477
1.732	38.8033
1.726	38.8075
1.72	38.7422
1.714	38.6946
1.708	38.6233
1.702	38.5692
1.696	38.5368
1.69	38.408
1.684	38.3393
1.678	38.2762
1.672	38.1916
1.666	38.0763
1.66	38.0403
1.654	37.9444
1.648	37.8271
1.642	37.7966
1.636	37.6442
1.63	37.6138
1.624	37.44
1.618	37.406
1.612	37.2429
1.606	37.1371
1.6	37.0475
1.594	36.9162
1.588	36.7883
1.582	36.5674
1.576	36.5178
1.57	36.3527
1.564	36.2464
1.558	36.1093
1.552	35.9003
1.546	35.7694
1.54	35.5938
1.534	35.4539
1.528	35.2251
1.522	35.0759
1.516	34.9269
1.51	34.755
1.504	34.4941
1.498	34.3405
1.492	34.1581
1.486	33.8847
1.48	33.6461
1.474	33.4205
1.468	33.2534
1.462	32.9751
1.456	32.7424
1.45	32.5876
1.444	32.2726
1.438	32.0733
1.432	31.7932
1.426	31.47
1.42	31.2104
1.414	30.6917
1.408	30.0723
1.402	29.5874
1.396	28.1542
1.39	28.88
1.384	30.5389
1.378	30.3453
1.372	30.1954
1.366	30.1099
1.36	29.9081
1.354	29.5727
1.348	29.2489
1.342	29.0262
1.336	28.7472
1.33	28.4732
1.324	28.2519
1.318	27.8829
1.312	27.6588
1.306	27.289
1.3	27.0027
1.294	26.7478
1.288	26.4533
1.282	26.1871
1.276	25.9024
1.27	25.5401
1.264	25.2481
1.258	24.9844
1.252	24.7228
1.246	24.3479
1.24	24.0337
1.234	23.747
1.228	23.3762
1.222	23.0573
1.216	22.7243
1.21	22.4055
1.204	22.0682
1.198	21.6958
1.192	21.348
1.186	21.0259
1.18	20.6495
1.174	20.2269
1.168	19.8181
1.162	19.3927
1.156	18.9803
1.15	18.4625
1.144	18.0506
1.138	17.6542
1.132	17.1137
1.126	16.6479
1.12	16.0869
1.114	15.6637
1.108	15.1881
1.102	14.6642
1.096	14.3144
1.09	13.8647
1.084	13.5387
1.078	13.2676
1.072	13.0596
1.066	12.8645
1.06	12.7628
1.054	12.7182
1.048	12.7336
1.042	12.8403
1.036	12.8694
1.03	12.9594
1.024	13.1303
1.018	13.3043
1.012	13.5771
1.006	13.7446
1	14.0482
0.994	14.3016
0.988	14.6106
0.982	14.9579
0.976	15.2002
0.97	15.5361
0.964	15.8111
0.958	16.0509
0.952	16.3289
0.946	16.5867
0.94	16.8698
0.934	17.0329
0.928	17.2074
0.922	17.4079
0.916	17.5268
0.91	17.7117
0.904	17.7713
0.898	17.9794
0.892	18.0611
0.886	18.1195
0.88	18.2938
0.874	18.4211
0.868	18.5681
0.862	18.7021
0.856	19.1114
0.85	19.2302
0.844	19.3415
0.838	19.412
0.832	19.4877
0.826	19.5448
0.82	19.5984
0.814	19.6171
0.808	19.5618
0.802	19.5341
0.796	19.4532
0.79	19.3273
0.784	19.1902
0.778	19.0297
0.772	18.844
0.766	18.6437
0.76	18.4388
0.754	18.245
0.748	18.0587
0.742	17.8703
0.736	17.7188
0.73	17.5697
0.724	17.4463
0.718	17.3224
0.712	17.2205
0.706	17.1342
0.7	17.0513
0.694	16.9869
0.688	16.9341
0.682	16.883
0.676	16.8381
0.67	16.7935
0.664	16.7599
0.658	16.7221
0.652	16.6893
0.646	16.6535
0.64	16.6234
0.634	16.5976
0.628	16.5729
0.622	16.5576
0.616	16.5434
0.61	16.5402
0.604	16.5431
0.598	16.5571
0.592	16.5828
0.586	16.5841
0.58	16.5925
0.574	16.5904
0.568	16.581
0.562	16.5718
0.556	16.4929
0.55	16.4143
0.544	16.3276
0.538	16.2122
0.532	16.0371
0.526	15.7997
0.52	15.4852
0.514	15.075
0.508	14.5988
0.502	14.1503
0.496	13.6835
0.49	13.1937
0.484	12.6879
0.478	12.327
0.472	12.0532
0.466	11.8233
0.46	11.6393
0.454	11.4324
0.448	11.1436
0.442	10.7414
0.436	10.2547
0.43	9.7602
0.424	9.3044
0.418	8.9468
0.412	8.6744
0.406	8.4602
0.4	8.2514
