Name: Realgar AsS
Type: Mineral
Class: Sulfide
Subclass: None
Particle Size: Fine
Sample No.: S-3A
Owner: JPL
Wavelength Range: TIR
Description: Particle size was 0-45um.Collected by JPL Original ASTER Spectral Library name was jpl.nicolet.mineral.sulfide.none.fine.s03a.spectrum.txt
Measurement: Hemispherical reflectance
X Units: Wavelength (micrometers)
Y Units: Reflectance (percent)
wavelength	value
15.3853	55.2237
15.1161	50.4163
14.8563	44.4564
14.6052	41.395
14.3624	38.4534
14.1276	46.6852
13.9004	45.1443
13.6803	48.9745
13.4671	51.955
13.2604	55.5215
13.06	55.372
12.8656	52.7596
12.6769	47.9309
12.4936	46.9836
12.3155	45.0596
12.1425	46.8703
11.9742	49.2374
11.8106	52.6233
11.6513	59.3973
11.4963	61.8596
11.3454	63.4575
11.1983	65.0096
11.0551	66.4936
10.9154	66.8015
10.7793	68.6278
10.6465	70.2356
10.5169	71.7282
10.3904	72.0639
10.267	71.3897
10.1464	70.0331
10.0287	69.1375
9.9136	67.7792
9.8012	65.6659
9.6913	63.2246
9.5838	61.8241
9.4787	62.1314
9.3758	64.1195
9.2752	65.8746
9.1767	66.6646
9.0803	67.3213
8.9858	67.575
8.8934	68.0435
8.8028	68.4799
8.714	69.163
8.627	69.8564
8.5417	70.817
8.4581	72.7244
8.3761	74.4533
8.2957	75.6516
8.2169	76.9633
8.1395	78.1076
8.0635	78.7729
7.989	78.925
7.9158	78.7655
7.8439	79.9119
7.7734	80.8562
7.7041	81.3353
7.636	81.7017
7.5691	82.1636
7.5034	82.0475
7.4388	82.2715
7.3753	82.1434
7.3129	82.0595
7.2515	81.9773
7.1912	82.1955
7.1318	81.748
7.0734	81.1476
7.016	80.6734
6.9595	80.6793
6.9039	80.3965
6.8492	80.5491
6.7953	81.989
6.7423	82.9297
6.6901	83.6138
6.6387	84.3176
6.5881	83.6034
6.5382	83.1618
6.4892	83.6255
6.4408	82.5007
6.3931	81.9435
6.3462	81.3747
6.2999	79.7112
6.2543	78.0388
6.2094	76.3266
6.1651	74.782
6.1214	73.9559
6.0784	74.0373
6.0359	74.5196
5.994	75.7953
5.9527	77.0927
5.912	78.6108
5.8718	80.3764
5.8322	81.6792
5.7931	82.7699
5.7545	84.266
5.7165	85.5978
5.6789	86.5546
5.6418	87.572
5.6052	87.6304
5.5691	88.1765
5.5334	88.3448
5.4982	88.5867
5.4635	88.8743
5.4291	88.9339
5.3952	88.9249
5.3618	88.9934
5.3287	89.0281
5.2961	89.1431
5.2638	89.1201
5.2319	89.1765
5.2004	89.1874
5.1693	89.087
5.1386	89.1332
5.1082	88.9267
5.0782	88.9535
5.0485	88.8058
5.0192	88.687
4.9902	88.5656
4.9616	88.4739
4.9332	88.291
4.9052	88.2191
4.8776	88.081
4.8502	87.991
4.8231	87.9261
4.7963	87.7193
4.7699	87.6036
4.7437	87.5636
4.7178	87.52
4.6922	87.4241
4.6668	87.4434
4.6418	87.3215
4.617	87.2592
4.5924	87.3435
4.5681	87.271
4.5441	87.2984
4.5203	87.1795
4.4968	87.2262
4.4735	87.1771
4.4505	87.1533
4.4277	87.1257
4.4051	87.1222
4.3828	87.0541
4.3607	87.0319
4.3388	86.8686
4.3171	86.6866
4.2956	86.4338
4.2744	86.2806
4.2534	86.5578
4.2325	86.0487
4.2119	86.4569
4.1915	86.7692
4.1712	86.6711
4.1512	86.6803
4.1313	86.6058
4.1117	86.8485
4.0922	86.717
4.0729	86.7032
4.0538	86.804
4.0349	86.8196
4.0161	86.8744
3.9976	86.9128
3.9792	86.9452
3.9609	86.9422
3.9428	86.9078
3.9249	86.8389
3.9072	86.901
3.8896	86.7516
3.8722	86.6984
3.8549	86.6074
3.8378	86.3623
3.8208	86.1809
3.804	86.0328
3.7873	85.8408
3.7708	85.6328
3.7544	85.4296
3.7382	85.221
3.7221	84.8839
3.7061	84.6214
3.6903	84.272
3.6746	83.967
3.659	83.6447
3.6436	83.3215
3.6283	83.0632
3.6131	82.5862
3.5981	82.2947
3.5832	81.7708
3.5684	81.2934
3.5537	80.818
3.5391	80.2464
3.5247	79.288
3.5104	77.0502
3.4962	76.4929
3.4821	77.0726
3.4681	76.8249
3.4543	76.0383
3.4405	74.9146
3.4269	72.4225
3.4133	71.8068
3.3999	73.4475
3.3866	73.687
3.3733	73.4489
3.3602	74.3379
3.3472	74.389
3.3343	73.9973
3.3215	73.5748
3.3088	73.2099
3.2961	72.7739
3.2836	72.2013
3.2712	71.6062
3.2588	71.1377
3.2466	70.7015
3.2345	70.1059
3.2224	69.7518
3.2104	69.065
3.1985	68.4572
3.1867	67.926
3.175	67.263
3.1634	66.7311
3.1519	66.0726
3.1404	65.3967
3.129	64.8684
3.1178	64.4409
3.1065	63.9931
3.0954	63.5464
3.0844	63.2164
3.0734	62.9001
3.0625	62.6858
3.0517	62.55
3.041	62.4063
3.0303	62.1795
3.0197	62.0958
3.0092	61.7337
2.9987	61.678
2.9884	61.6536
2.9781	61.3247
2.9678	61.1701
2.9577	61.2882
2.9476	61.207
2.9376	61.2593
2.9276	61.369
2.9177	61.8113
2.9079	62.0753
2.8982	62.6474
2.8885	63.1617
2.8789	63.4954
2.8693	64.2843
2.8598	64.7595
2.8504	65.5757
2.841	66.5439
2.8317	67.0553
2.8224	67.9903
2.8133	68.9267
2.8041	70.3766
2.7951	71.4796
2.786	72.7843
2.7771	74.197
2.7682	75.6616
2.7594	77.0089
2.7506	79
2.7418	81.1702
2.7332	82.9451
2.7246	85.3126
2.716	86.9656
2.7075	88.4683
2.699	89.5091
2.6906	90.5201
2.6823	91.0499
2.674	91.4886
2.6657	92.3018
2.6575	91.824
2.6494	91.9115
2.6413	91.9907
2.6332	92.3464
2.6252	92.3868
2.6173	92.7871
2.6094	92.7191
2.6015	92.4922
2.5937	93.1807
2.5859	92.7017
2.5782	92.455
2.5706	92.6956
2.5629	92.8351
2.5554	92.475
2.5478	92.5726
2.5403	92.5019
2.5329	92.4471
2.5255	92.5382
2.5181	92.5807
2.5108	92.6275
2.5035	92.6574
2.4963	92.5822
2.4891	92.7115
2.482	92.7767
2.4749	92.72
2.4678	92.8267
2.4608	92.8712
2.4538	92.9443
2.4468	92.9521
2.4399	93.0619
2.4331	93.1519
2.4262	92.9944
2.4194	93.1422
2.4127	93.0863
2.4059	93.3507
2.3993	93.2438
2.3926	93.1773
2.386	93.508
2.3795	93.3771
2.3729	93.4889
2.3664	93.5529
2.36	93.4619
2.3535	93.2856
2.3471	93.6081
2.3408	93.5562
2.3345	93.4623
2.3282	93.6166
2.3219	93.6271
2.3157	93.6073
2.3095	93.5239
2.3034	93.5457
2.2972	93.4929
2.2911	93.5681
2.2851	93.6763
2.279	93.7105
2.2731	93.7395
2.2671	93.7332
2.2612	93.7338
2.2553	93.7342
2.2494	93.7322
2.2435	93.7808
2.2377	93.9597
2.232	93.9495
2.2262	93.933
2.2205	93.7527
2.2148	93.955
2.2091	93.9062
2.2035	93.768
2.1979	93.7982
2.1923	93.8255
2.1868	93.9489
2.1812	93.8714
2.1758	93.7895
2.1703	93.8269
2.1649	93.804
2.1595	93.9196
2.1541	93.8089
2.1487	93.8135
2.1434	93.7037
2.1381	93.8274
2.1328	93.8552
2.1275	93.9451
2.1223	93.6917
2.1171	93.8097
2.112	93.7017
2.1068	93.9018
2.1017	93.9784
2.0966	93.7882
2.0915	93.6683
2.0865	93.9545
2.0814	93.5404
2.0764	93.5049
2.0715	93.925
2.0665	93.5631
2.0616	93.5324
2.0567	93.6375
2.0518	93.5634
2.0469	93.5419
2.0421	93.4074
2.0373	93.6106
2.0325	93.6949
2.0277	93.5915
2.0229	93.548
2.0182	93.5825
2.0135	93.4628
2.0088	93.4943
2.0042	93.5831
