Name: Halite NaCl
Type: Mineral
Class: Halide
Subclass: None
Particle Size: Medium
Sample No.: H-3A
Owner: JPL
Wavelength Range: TIR
Origin: USA, Michigan, Wayne County, Detroit
Description: Particle size was 45-125um.Collected by Ward's Original ASTER Spectral Library name was jpl.nicolet.mineral.halide.none.medium.h03a.spectrum.txt
Measurement: Hemispherical reflectance
X Units: Wavelength (micrometers)
Y Units: Reflectance (percent)
wavelength	value
15.3853	64.2322
15.1161	65.1958
14.8563	65.7597
14.6052	66.6769
14.3624	67.2427
14.1276	68.0332
13.9004	68.6234
13.6803	69.4842
13.4671	70.394
13.2604	71.2033
13.06	72.0328
12.8656	72.6884
12.6769	73.9229
12.4936	74.8661
12.3155	75.8752
12.1425	76.8697
11.9742	77.9382
11.8106	78.7248
11.6513	79.2254
11.4963	79.7974
11.3454	80.5866
11.1983	81.1457
11.0551	81.5652
10.9154	82.0208
10.7793	82.3239
10.6465	82.2439
10.5169	81.6712
10.3904	82.6321
10.267	82.7271
10.1464	82.3266
10.0287	81.934
9.9136	81.3124
9.8012	81.1357
9.6913	80.7109
9.5838	80.8051
9.4787	80.8471
9.3758	81.0692
9.2752	80.76
9.1767	80.7058
9.0803	80.5808
8.9858	80.6505
8.8934	80.7153
8.8028	81.5053
8.714	81.7956
8.627	81.7428
8.5417	82.4444
8.4581	83.2423
8.3761	83.6802
8.2957	83.8511
8.2169	84.1435
8.1395	84.1656
8.0635	84.1865
7.989	84.1988
7.9158	84.1216
7.8439	83.9356
7.7734	83.6064
7.7041	83.5051
7.636	83.1299
7.5691	83.2836
7.5034	83.5679
7.4388	83.1888
7.3753	82.8567
7.3129	82.463
7.2515	82.262
7.1912	82.341
7.1318	82.0831
7.0734	81.1526
7.016	81.0606
6.9595	82.971
6.9039	81.3788
6.8492	81.7038
6.7953	82.9359
6.7423	81.8188
6.6901	83.2882
6.6387	87.8897
6.5881	84.9562
6.5382	83.484
6.4892	87.3469
6.4408	81.7908
6.3931	79.9492
6.3462	80.6284
6.2999	76.2689
6.2543	74.3576
6.2094	72.2371
6.1651	71.1961
6.1214	70.8694
6.0784	71.6378
6.0359	71.6544
5.994	74.8049
5.9527	76.6178
5.912	79.2441
5.8718	83.0164
5.8322	85.3675
5.7931	85.4144
5.7545	87.4777
5.7165	89.1998
5.6789	89.0401
5.6418	91.0678
5.6052	89.1253
5.5691	89.23
5.5334	89.113
5.4982	89.1996
5.4635	90.3011
5.4291	89.8204
5.3952	89.3747
5.3618	89.493
5.3287	89.3465
5.2961	89.5344
5.2638	89.1955
5.2319	89.3499
5.2004	89.4105
5.1693	89.0803
5.1386	88.9986
5.1082	88.7432
5.0782	88.7178
5.0485	88.5702
5.0192	88.5292
4.9902	88.1699
4.9616	88.0472
4.9332	87.8742
4.9052	87.7829
4.8776	87.616
4.8502	87.527
4.8231	87.5728
4.7963	87.4482
4.7699	87.4551
4.7437	87.4147
4.7178	87.4579
4.6922	87.4361
4.6668	87.5104
4.6418	87.4871
4.617	87.6478
4.5924	87.6613
4.5681	87.8461
4.5441	87.743
4.5203	87.8837
4.4968	87.9248
4.4735	87.9188
4.4505	88.0411
4.4277	88.0901
4.4051	88.1607
4.3828	88.1578
4.3607	88.2389
4.3388	88.3757
4.3171	88.5882
4.2956	88.7396
4.2744	88.8991
4.2534	88.8015
4.2325	89.1148
4.2119	88.9349
4.1915	88.8522
4.1712	88.9474
4.1512	88.966
4.1313	89.0926
4.1117	89.0817
4.0922	89.1728
4.0729	89.2708
4.0538	89.2055
4.0349	89.3376
4.0161	89.3569
3.9976	89.465
3.9792	89.4127
3.9609	89.3805
3.9428	89.4834
3.9249	89.4823
3.9072	89.5536
3.8896	89.591
3.8722	89.5023
3.8549	89.527
3.8378	89.5179
3.8208	89.4759
3.804	89.4217
3.7873	89.4717
3.7708	89.3959
3.7544	89.3754
3.7382	89.3667
3.7221	89.1264
3.7061	89.0671
3.6903	88.9632
3.6746	88.8205
3.659	88.7264
3.6436	88.6213
3.6283	88.4728
3.6131	88.3747
3.5981	88.1364
3.5832	87.8917
3.5684	87.7792
3.5537	87.4336
3.5391	87.0545
3.5247	86.6572
3.5104	85.9222
3.4962	85.2234
3.4821	85.0973
3.4681	84.7015
3.4543	84.445
3.4405	83.9169
3.4269	82.9024
3.4133	82.1923
3.3999	82.2734
3.3866	82.1951
3.3733	80.9413
3.3602	80.7455
3.3472	81.2013
3.3343	80.967
3.3215	80.5163
3.3088	79.856
3.2961	79.048
3.2836	78.212
3.2712	77.4657
3.2588	76.6074
3.2466	75.6394
3.2345	74.6473
3.2224	73.6928
3.2104	72.7719
3.1985	71.7207
3.1867	70.5574
3.175	69.5505
3.1634	68.5064
3.1519	67.3715
3.1404	66.4251
3.129	65.457
3.1178	64.6048
3.1065	63.6344
3.0954	62.8763
3.0844	62.3871
3.0734	61.821
3.0625	61.3485
3.0517	60.8449
3.041	60.3332
3.0303	59.8518
3.0197	59.3567
3.0092	58.8223
2.9987	58.2158
2.9884	57.7625
2.9781	57.3646
2.9678	57.102
2.9577	56.7445
2.9476	56.7508
2.9376	56.8171
2.9276	57.0295
2.9177	57.2408
2.9079	57.6559
2.8982	58.0828
2.8885	58.6043
2.8789	59.2873
2.8693	59.7933
2.8598	60.5955
2.8504	61.5493
2.841	62.3504
2.8317	63.4053
2.8224	64.4748
2.8133	65.7514
2.8041	67.7798
2.7951	68.2528
2.786	70.5087
2.7771	71.1821
2.7682	73.6556
2.7594	74.524
2.7506	76.7749
2.7418	80.789
2.7332	81.3457
2.7246	85.6072
2.716	84.6654
2.7075	86.2175
2.699	86.836
2.6906	87.6946
2.6823	88.5571
2.674	89.047
2.6657	92.5392
2.6575	88.7258
2.6494	88.5904
2.6413	88.9752
2.6332	89.7387
2.6252	89.656
2.6173	91.6037
2.6094	90.1565
2.6015	89.8386
2.5937	92.691
2.5859	90.0624
2.5782	89.4643
2.5706	89.9748
2.5629	90.7806
2.5554	88.8727
2.5478	89.3038
2.5403	88.9086
2.5329	89.2222
2.5255	89.0337
2.5181	88.9947
2.5108	88.9057
2.5035	88.895
2.4963	88.9908
2.4891	89.0618
2.482	89.1062
2.4749	89.1162
2.4678	89.093
2.4608	89.042
2.4538	89.2572
2.4468	89.1764
2.4399	89.0748
2.4331	89.1965
2.4262	89.2421
2.4194	89.4009
2.4127	89.3411
2.4059	89.316
2.3993	89.3548
2.3926	89.3709
2.386	89.4331
2.3795	89.4929
2.3729	89.3078
2.3664	89.4628
2.36	89.4224
2.3535	89.5421
2.3471	89.2693
2.3408	89.6026
2.3345	89.546
2.3282	89.4646
2.3219	89.6796
2.3157	89.6976
2.3095	89.4375
2.3034	89.5148
2.2972	89.5081
2.2911	89.5611
2.2851	89.5776
2.279	89.4596
2.2731	89.6308
2.2671	89.5048
2.2612	89.564
2.2553	89.4817
2.2494	89.5114
2.2435	89.6687
2.2377	89.4575
2.232	89.5821
2.2262	89.5754
2.2205	89.5865
2.2148	89.5237
2.2091	89.4929
2.2035	89.6275
2.1979	89.4744
2.1923	89.6461
2.1868	89.661
2.1812	89.5005
2.1758	89.5006
2.1703	89.3467
2.1649	89.4164
2.1595	89.5103
2.1541	89.4446
2.1487	89.4367
2.1434	89.3066
2.1381	89.3114
2.1328	89.44
2.1275	89.5117
2.1223	89.4944
2.1171	89.5266
2.112	89.3341
2.1068	89.4433
2.1017	89.3722
2.0966	89.2653
2.0915	89.3255
2.0865	89.3486
2.0814	89.2892
2.0764	89.2403
2.0715	89.2544
2.0665	89.1951
2.0616	89.1117
2.0567	88.9232
2.0518	89.3174
2.0469	88.9101
2.0421	89.3255
2.0373	89.1214
2.0325	89.0097
2.0277	89.2588
2.0229	88.8849
2.0182	88.953
2.0135	89.0379
2.0088	89.0071
2.0042	89.0907
