Name: Diopside CaMg(SiO_3)_2
Type: Mineral
Class: Silicate
Subclass: Inosilicate
Particle Size: Fine
Sample No.: IN-9B
Owner: JPL
Wavelength Range: VSWIR
Origin: Canada, Quebec.
Description: Particle size was 0-45um.Collected by:  Ward's Original ASTER Spectral Library name was jpl.perkin.mineral.silicate.inosilicate.fine.in09b.spectrum.txt
Measurement: Hemispherical reflectance
X Units: Wavelength (micrometers)
Y Units: Reflectance (percent)
wavelength	value
2.5	42.6177
2.494	42.4586
2.488	42.4975
2.482	42.5968
2.476	42.7022
2.47	42.6501
2.464	42.6864
2.458	42.8177
2.452	42.6993
2.446	42.7111
2.44	42.7034
2.434	42.8568
2.428	42.8548
2.422	42.9471
2.416	42.9577
2.41	43.0257
2.404	42.7731
2.398	42.7537
2.392	42.7865
2.386	42.8199
2.38	42.9641
2.374	43.1758
2.368	43.2131
2.362	43.2417
2.356	43.3281
2.35	43.2548
2.344	43.2362
2.338	43.079
2.332	42.9499
2.326	42.6754
2.32	42.4804
2.314	42.3753
2.308	42.5285
2.302	42.7054
2.296	42.8774
2.29	43.0197
2.284	43.2007
2.278	43.4059
2.272	43.5742
2.266	43.6231
2.26	43.6852
2.254	43.6962
2.248	43.758
2.242	43.741
2.236	43.8308
2.23	43.8976
2.224	43.9253
2.218	44.0279
2.212	44.1912
2.206	44.1341
2.2	44.3051
2.194	44.3378
2.188	44.4501
2.182	44.5084
2.176	44.6373
2.17	44.7145
2.164	44.9054
2.158	44.998
2.152	45.0578
2.146	45.1372
2.14	45.0601
2.134	45.0614
2.128	45.0226
2.122	44.9259
2.116	44.7889
2.11	44.6272
2.104	44.5506
2.098	44.473
2.092	44.5438
2.086	44.5759
2.08	44.5907
2.074	44.6728
2.068	44.7044
2.062	44.7662
2.056	44.862
2.05	44.9149
2.044	44.8852
2.038	44.9808
2.032	45.0297
2.026	44.9432
2.02	45.0052
2.014	44.9683
2.008	44.8947
2.002	44.9446
1.996	44.8991
1.99	44.8413
1.984	44.895
1.978	44.7921
1.972	44.7362
1.966	44.7617
1.96	44.7033
1.954	44.6933
1.948	44.6939
1.942	44.7098
1.936	44.6952
1.93	44.8099
1.924	44.666
1.918	44.6671
1.912	44.7942
1.906	44.8865
1.9	45.0352
1.894	45.2284
1.888	45.3025
1.882	45.3631
1.876	45.4472
1.87	45.6064
1.864	45.5784
1.858	45.6026
1.852	45.6203
1.846	45.6048
1.84	45.6531
1.834	45.6304
1.828	45.6214
1.822	45.6077
1.816	45.6088
1.81	45.6292
1.804	45.6159
1.798	45.6755
1.792	45.6726
1.786	45.6195
1.78	45.583
1.774	45.5684
1.768	45.5856
1.762	45.5846
1.756	45.5678
1.75	45.5929
1.744	45.6019
1.738	45.6559
1.732	45.6309
1.726	45.6009
1.72	45.6413
1.714	45.5887
1.708	45.5394
1.702	45.562
1.696	45.5143
1.69	45.5239
1.684	45.4829
1.678	45.4964
1.672	45.4326
1.666	45.4409
1.66	45.4904
1.654	45.4749
1.648	45.3871
1.642	45.4578
1.636	45.4064
1.63	45.3666
1.624	45.3767
1.618	45.4102
1.612	45.3796
1.606	45.3454
1.6	45.2976
1.594	45.317
1.588	45.3157
1.582	45.2425
1.576	45.2656
1.57	45.2525
1.564	45.178
1.558	45.1477
1.552	45.1955
1.546	45.1572
1.54	45.1447
1.534	45.0796
1.528	44.9975
1.522	45.011
1.516	44.9597
1.51	44.9668
1.504	44.9313
1.498	44.8069
1.492	44.8207
1.486	44.7743
1.48	44.7433
1.474	44.7013
1.468	44.6533
1.462	44.5897
1.456	44.4996
1.45	44.4993
1.444	44.4159
1.438	44.3943
1.432	44.3885
1.426	44.3142
1.42	44.2777
1.414	44.1937
1.408	44.0033
1.402	43.9071
1.396	43.7103
1.39	43.8502
1.384	44.13
1.378	44.1316
1.372	44.0962
1.366	43.9993
1.36	43.9426
1.354	43.9379
1.348	43.7985
1.342	43.7365
1.336	43.7158
1.33	43.5568
1.324	43.5575
1.318	43.482
1.312	43.4615
1.306	43.3608
1.3	43.2899
1.294	43.2154
1.288	43.1417
1.282	43.0443
1.276	42.9706
1.27	42.8681
1.264	42.8034
1.258	42.7479
1.252	42.5968
1.246	42.5342
1.24	42.4566
1.234	42.3911
1.228	42.2244
1.222	42.1565
1.216	42.0414
1.21	42.0002
1.204	41.8711
1.198	41.7791
1.192	41.5952
1.186	41.5182
1.18	41.3924
1.174	41.2773
1.168	41.1281
1.162	41.0483
1.156	40.8845
1.15	40.7428
1.144	40.5705
1.138	40.3878
1.132	40.2444
1.126	39.9701
1.12	39.7737
1.114	39.5913
1.108	39.4039
1.102	39.1355
1.096	38.9658
1.09	38.6918
1.084	38.5637
1.078	38.4133
1.072	38.2575
1.066	38.0779
1.06	38.0871
1.054	37.9672
1.048	37.9429
1.042	37.933
1.036	37.9712
1.03	38.0916
1.024	38.108
1.018	38.1574
1.012	38.3122
1.006	38.3165
1	38.4687
0.994	38.5164
0.988	38.69
0.982	38.7018
0.976	38.8242
0.97	38.926
0.964	38.9555
0.958	39.0349
0.952	39.0849
0.946	39.1263
0.94	39.1674
0.934	39.1518
0.928	39.2275
0.922	39.2058
0.916	39.2325
0.91	39.2293
0.904	39.2574
0.898	39.2787
0.892	39.234
0.886	39.2913
0.88	39.3092
0.874	39.3433
0.868	39.3653
0.862	39.2506
0.856	39.455
0.85	39.5115
0.844	39.4967
0.838	39.5039
0.832	39.5247
0.826	39.5111
0.82	39.5224
0.814	39.5116
0.808	39.4602
0.802	39.4371
0.796	39.3454
0.79	39.2598
0.784	39.1421
0.778	39.0174
0.772	38.9121
0.766	38.8082
0.76	38.659
0.754	38.5117
0.748	38.378
0.742	38.2339
0.736	38.1387
0.73	38.0221
0.724	37.8999
0.718	37.7927
0.712	37.7047
0.706	37.6279
0.7	37.5465
0.694	37.4798
0.688	37.405
0.682	37.3334
0.676	37.2768
0.67	37.2153
0.664	37.1556
0.658	37.0932
0.652	37.0396
0.646	36.9805
0.64	36.9211
0.634	36.8634
0.628	36.818
0.622	36.7637
0.616	36.7071
0.61	36.6684
0.604	36.6325
0.598	36.6011
0.592	36.5868
0.586	36.5396
0.58	36.4877
0.574	36.4211
0.568	36.352
0.562	36.2654
0.556	36.1604
0.55	36.0296
0.544	35.8857
0.538	35.7014
0.532	35.4801
0.526	35.2042
0.52	34.9125
0.514	34.5014
0.508	34.0423
0.502	33.5836
0.496	33.1069
0.49	32.6119
0.484	32.1137
0.478	31.652
0.472	31.2596
0.466	30.9092
0.46	30.5888
0.454	30.2375
0.448	29.7775
0.442	29.161
0.436	28.3742
0.43	27.5417
0.424	26.6991
0.418	25.9224
0.412	25.2884
0.406	24.7161
0.4	24.1294
