Name: Chromite Fe+2Cr2O4
Type: Mineral
Class: Oxide
Subclass: None
Particle Size: Fine
Sample No.: chromite_1
Owner: JHU
Wavelength Range: TIR
Origin: Smithsonian NMNH 117075; Sample from Tiebaghi Mine, NewCaledonia.
Description: The sample was one large (3.5 cm x 2 cm x 2 cm) piece with a few crystal faces showing, weighing 42 g. Minimal contamination (<1%) occurred along a few thin veins containing mostly kaolinte. Microscopic examination confirmed the substantial purity of the sample. Most of the contaminating earthy material was removed by ultrasonic cleaning of the crushed sample. Particle size was less than 2 Micrometers.(Spinel Group) Original ASTER Spectral Library name was jhu.nicolet.mineral.oxide.none.powder.chromi1.spectrum.txt
Measurement: Transmission
X Units: Wavelength (micrometers)
Y Units: Transmittance (percent)
wavelength	value
25.0442	79.0154
24.3387	75.6814
23.6719	70.3299
23.0407	63.7225
22.4422	60.2225
21.874	59.8924
21.334	55.3983
20.8199	47.996
20.33	32.4257
19.8626	18.708
19.4163	16.6552
18.9896	19.0297
18.5812	27.0507
18.19	36.4613
17.815	46.8427
17.4551	59.284
17.1094	62.9608
16.7772	60.0565
16.4576	53.9632
16.15	41.2304
15.8537	20.3154
15.568	16.436
15.2925	22.2446
15.0265	29.1713
14.7697	34.7514
14.5214	37.2792
14.2814	41.5502
14.0492	50.493
13.8244	61.3683
13.6067	70.7303
13.3957	77.8221
13.1912	82.5059
12.9929	85.0681
12.8004	86.4541
12.6135	87.5
12.432	88.4776
12.2557	89.2693
12.0843	89.6516
11.9176	90.0098
11.7555	90.0642
11.5977	90.241
11.444	90.1912
11.2944	89.9509
11.1487	90.0086
11.0067	89.991
10.8682	89.885
10.7332	89.7022
10.6015	89.6355
10.473	90.0735
10.3476	90.4124
10.2252	90.2959
10.1056	90.043
9.9887	89.6404
9.8746	89.3128
9.763	89.0635
9.6539	88.76
9.5472	88.4385
9.4429	88.072
9.3408	87.4925
9.2409	86.9055
9.1431	86.9851
9.0474	88.0117
8.9536	89.1121
8.8618	90.0022
8.7718	90.7515
8.6837	91.3284
8.5973	91.7129
8.5126	92.1978
8.4295	92.948
8.3481	93.6169
8.2682	94.2991
8.1898	94.8616
8.1129	95.2527
8.0374	95.5408
7.9634	95.7361
7.8906	95.9163
7.8192	95.9119
7.7491	95.9177
7.6802	95.9021
7.6126	95.804
7.5461	95.7429
7.4807	95.7039
7.4165	95.5496
7.3534	95.3838
7.2914	95.3088
7.2303	95.1736
7.1703	95.0559
7.1113	94.9548
7.0533	94.8699
6.9962	94.7815
6.94	94.6628
6.8847	94.5532
6.8302	94.4719
6.7767	94.467
6.7239	94.3782
6.672	94.2859
6.6209	94.178
6.5705	94.092
6.5209	93.8621
6.4721	93.6043
6.424	93.3689
6.3766	93.0686
6.3299	92.7527
6.2838	92.5046
6.2385	92.1721
6.1937	91.8518
6.1496	91.5662
6.1062	91.5818
6.0633	91.6619
6.0211	91.7268
5.9794	91.9631
5.9383	92.2615
5.8978	92.3992
5.8578	92.4085
5.8184	92.4109
5.7794	92.3189
5.741	92.2561
5.7031	92.2761
5.6657	92.1775
5.6288	92.093
5.5924	92.0017
5.5564	91.874
5.5209	91.7639
5.4859	91.6526
5.4513	91.5483
5.4171	91.4368
5.3833	91.2405
5.35	91.1658
5.3171	91.0496
5.2846	90.9963
5.2524	90.8338
5.2207	90.6707
5.1893	90.6106
5.1584	90.4754
5.1277	90.3855
5.0975	90.2761
5.0676	90.1091
5.038	89.9964
5.0088	89.8567
4.98	89.7442
4.9514	89.6546
4.9232	89.543
4.8953	89.3909
4.8678	89.241
4.8405	89.1507
4.8135	89.0369
4.7868	88.9922
4.7605	88.8313
4.7344	88.6914
4.7086	88.5769
4.6831	88.4028
4.6578	88.3391
4.6328	88.2024
4.6081	88.1109
4.5837	87.9636
4.5595	87.8362
4.5356	87.6453
4.5119	87.52
4.4884	87.4202
4.4652	87.2832
4.4423	87.1546
4.4196	86.9275
4.3971	86.7991
4.3748	86.7649
4.3528	86.5344
4.331	86.4036
4.3094	86.282
4.288	86.1795
4.2668	86.0371
4.2458	85.8743
4.2251	85.7302
4.2045	85.5252
4.1841	85.4546
4.164	85.2918
4.144	85.1262
4.1242	85.0193
4.1046	84.8418
4.0852	84.6512
4.066	84.468
4.047	84.3357
4.0281	84.1826
4.0094	84.0608
3.9909	83.8645
3.9725	83.6856
3.9544	83.5371
3.9363	83.3797
3.9185	83.2237
3.9008	82.9964
3.8833	82.7793
3.8659	82.5877
3.8487	82.4178
3.8316	82.1963
3.8147	82.0652
3.7979	81.8181
3.7813	81.6487
3.7648	81.4148
3.7485	81.2024
3.7323	80.9969
3.7162	80.8096
3.7003	80.5655
3.6845	80.365
3.6689	80.1399
3.6534	79.9568
3.638	79.7273
3.6227	79.503
3.6076	79.2791
3.5926	79.0066
3.5777	78.8018
3.563	78.584
3.5484	78.2832
3.5338	77.9749
3.5195	77.7276
3.5052	77.3641
3.491	77.2305
3.477	77.032
3.463	76.7432
3.4492	76.4935
3.4355	76.0833
3.4219	75.7637
3.4084	75.4874
3.395	75.4053
3.3817	75.2371
3.3685	75.0931
3.3554	74.8357
3.3425	74.5997
3.3296	74.3721
3.3168	74.0936
3.3041	73.7491
3.2915	73.5176
3.279	73.4092
3.2666	73.1719
3.2543	72.7706
3.2421	72.5831
3.23	72.2254
3.218	72.0284
3.206	71.7269
3.1942	71.5486
3.1824	71.1934
3.1707	71.0467
3.1591	70.7029
3.1476	70.4608
3.1362	70.1385
3.1249	69.9344
3.1136	69.7811
3.1024	69.5306
3.0913	69.2601
3.0803	69.014
3.0694	68.8231
3.0585	68.6771
3.0477	68.45
3.037	68.3162
3.0264	68.0301
3.0158	67.6688
3.0053	67.3538
2.9949	67.2586
2.9845	67.0833
2.9743	66.7918
2.9641	66.4334
2.9539	66.2508
2.9439	66.1248
2.9339	65.9305
2.9239	65.7132
2.9141	65.6229
2.9043	65.5921
2.8946	65.6663
2.8849	65.6561
2.8753	65.7147
2.8658	65.8597
2.8563	65.9124
2.8469	66.1541
2.8375	66.3104
2.8282	66.4149
2.819	66.7967
2.8098	66.9471
2.8007	67.1512
2.7917	67.3988
2.7827	67.7176
2.7738	67.9276
2.7649	68.243
2.7561	68.4671
2.7473	68.7362
2.7386	68.9422
2.7299	68.9051
2.7213	68.8123
2.7128	68.9866
2.7043	68.8109
2.6959	68.7152
2.6875	68.7054
2.6791	68.6644
2.6709	68.4261
2.6626	68.1346
2.6545	68.201
2.6463	67.9359
2.6382	67.7425
2.6302	67.7664
2.6222	67.4788
2.6143	67.2479
2.6064	67.2908
2.5986	67.0823
2.5908	67.0584
2.583	66.9862
2.5753	66.6566
2.5677	66.4383
2.5601	66.4578
2.5525	66.2108
2.545	66.1385
2.5375	65.9451
2.5301	65.6834
2.5227	65.4715
2.5154	65.4071
2.5081	65.4158
2.5008	65.285
2.4936	65.0584
2.4864	64.9803
2.4793	64.7625
2.4722	64.5741
2.4651	64.4539
2.4581	64.4969
2.4511	64.4305
2.4442	64.0448
2.4373	63.8075
2.4305	63.9422
2.4236	63.8416
2.4169	63.5369
2.4101	63.4744
2.4034	63.368
2.3967	63.328
2.3901	63.0018
2.3835	62.7508
2.377	62.9061
2.3704	62.6952
2.364	62.5409
2.3575	62.3436
2.3511	62.367
2.3447	62.0789
2.3384	62.0682
2.3321	61.7694
2.3258	61.6532
2.3195	61.7479
2.3133	61.6571
2.3071	61.492
2.301	61.6209
2.2949	61.4852
2.2888	61.2772
2.2828	61.242
2.2767	61.2186
2.2708	61.1327
2.2648	60.9686
2.2589	60.8407
2.253	60.9413
2.2471	60.742
2.2413	60.6922
2.2355	60.6053
2.2297	60.4452
2.224	60.2313
2.2183	60.4061
2.2126	60.3407
2.207	60.2821
2.2013	60.0077
2.1957	59.9881
2.1902	60.0672
2.1846	59.6024
2.1791	59.8045
2.1736	59.9491
2.1682	59.8758
2.1628	59.6815
2.1574	59.2498
2.152	59.2245
2.1466	59.4998
2.1413	59.4256
2.136	59.0096
2.1308	59.1112
2.1255	59.0936
2.1203	59.2577
2.1151	59.1131
2.11	58.6834
2.1048	58.8123
2.0997	59.1756
2.0946	58.8006
2.0895	58.9061
2.0845	58.7538
2.0795	58.7831
