Name: Jarosite KFe_3^3+(SO_4)_2(OH)_6
Type: Mineral
Class: Sulfate
Subclass: None
Particle Size: Medium
Sample No.: SO-7A
Owner: JPL
Wavelength Range: TIR
Origin: Mexico, Chihuahua
Description: Particle size was 45-125um.Collected by Ward's Original ASTER Spectral Library name was jpl.nicolet.mineral.sulfate.none.medium.so07a.spectrum.txt
Measurement: Hemispherical reflectance
X Units: Wavelength (micrometers)
Y Units: Reflectance (percent)
wavelength	value
15.3853	1.0019
15.1161	0.9341
14.8563	1.0334
14.6052	1.2248
14.3624	1.2325
14.1276	1.2678
13.9004	1.329
13.6803	1.5572
13.4671	1.6367
13.2604	1.6893
13.06	2.1461
12.8656	2.4511
12.6769	2.4182
12.4936	2.5125
12.3155	2.5413
12.1425	1.9615
11.9742	1.3855
11.8106	1.0716
11.6513	0.9625
11.4963	1.0782
11.3454	1.202
11.1983	1.3213
11.0551	1.6877
10.9154	1.9356
10.7793	2.2215
10.6465	2.465
10.5169	2.6794
10.3904	2.7045
10.267	2.927
10.1464	3.1828
10.0287	3.3728
9.9136	3.2266
9.8012	3.1879
9.6913	2.516
9.5838	1.6987
9.4787	2.1932
9.3758	2.7901
9.2752	3.0548
9.1767	2.7327
9.0803	2.7275
8.9858	2.4163
8.8934	1.9042
8.8028	1.4078
8.714	1.0767
8.627	1.2142
8.5417	1.0453
8.4581	1.1899
8.3761	1.203
8.2957	1.3058
8.2169	1.5999
8.1395	2.1923
8.0635	2.8986
7.989	4.159
7.9158	5.9799
7.8439	7.2786
7.7734	8.1583
7.7041	8.9522
7.636	9.2627
7.5691	9.8582
7.5034	10.081
7.4388	10.136
7.3753	10.5702
7.3129	10.6091
7.2515	10.9241
7.1912	11.4239
7.1318	11.7001
7.0734	11.8791
7.016	11.9554
6.9595	12.1525
6.9039	12.0361
6.8492	12.0015
6.7953	12.4113
6.7423	12.5194
6.6901	12.7598
6.6387	13.0893
6.5881	12.6389
6.5382	12.4803
6.4892	12.5103
6.4408	11.9639
6.3931	11.9433
6.3462	12.1204
6.2999	11.7705
6.2543	11.5971
6.2094	11.2654
6.1651	10.6623
6.1214	10.4771
6.0784	10.7475
6.0359	10.7979
5.994	11.2183
5.9527	11.4621
5.912	11.8973
5.8718	12.3896
5.8322	12.9775
5.7931	13.3332
5.7545	13.9477
5.7165	14.3316
5.6789	14.4326
5.6418	14.6678
5.6052	14.7071
5.5691	14.77
5.5334	14.9696
5.4982	15.1777
5.4635	15.5403
5.4291	15.7665
5.3952	15.8617
5.3618	16.0928
5.3287	16.2616
5.2961	16.2179
5.2638	15.953
5.2319	15.5191
5.2004	14.8199
5.1693	13.7023
5.1386	12.7394
5.1082	11.7846
5.0782	11.4517
5.0485	11.1622
5.0192	11.0422
4.9902	10.7218
4.9616	10.4892
4.9332	10.4151
4.9052	10.6024
4.8776	10.68
4.8502	10.6573
4.8231	10.6191
4.7963	10.4644
4.7699	10.2469
4.7437	9.9319
4.7178	9.6976
4.6922	9.5536
4.6668	9.4098
4.6418	9.4586
4.617	9.7539
4.5924	10.048
4.5681	10.4505
4.5441	10.947
4.5203	11.4731
4.4968	12.2151
4.4735	13.1023
4.4505	14.1788
4.4277	15.3305
4.4051	16.199
4.3828	16.9057
4.3607	17.3648
4.3388	17.8451
4.3171	18.0807
4.2956	18.2154
4.2744	18.209
4.2534	18.3886
4.2325	18.3246
4.2119	18.5257
4.1915	18.609
4.1712	18.6391
4.1512	18.6728
4.1313	18.6382
4.1117	18.5591
4.0922	18.5378
4.0729	18.2794
4.0538	18.2095
4.0349	17.8705
4.0161	17.5654
3.9976	17.2171
3.9792	16.7509
3.9609	16.3131
3.9428	15.8503
3.9249	15.3014
3.9072	14.7593
3.8896	14.2921
3.8722	13.683
3.8549	13.2421
3.8378	12.8356
3.8208	12.2616
3.804	11.7789
3.7873	11.3203
3.7708	10.9181
3.7544	10.4361
3.7382	10.0891
3.7221	9.6106
3.7061	9.3093
3.6903	8.7282
3.6746	8.5213
3.659	8.1234
3.6436	7.817
3.6283	7.4459
3.6131	7.1867
3.5981	6.8905
3.5832	6.6188
3.5684	6.365
3.5537	6.2207
3.5391	5.9794
3.5247	5.7937
3.5104	5.5705
3.4962	5.3111
3.4821	5.1994
3.4681	5.0177
3.4543	4.9071
3.4405	4.8356
3.4269	4.6349
3.4133	4.5887
3.3999	4.4582
3.3866	4.3221
3.3733	4.4834
3.3602	4.4008
3.3472	4.3576
3.3343	4.3444
3.3215	4.4287
3.3088	4.2756
3.2961	4.3323
3.2836	4.4737
3.2712	4.3512
3.2588	4.4934
3.2466	4.608
3.2345	4.5893
3.2224	4.6232
3.2104	4.6835
3.1985	4.9881
3.1867	4.8955
3.175	4.7368
3.1634	5.1137
3.1519	4.9594
3.1404	4.9916
3.129	4.9291
3.1178	5.0454
3.1065	4.9135
3.0954	4.7012
3.0844	4.6705
3.0734	4.3554
3.0625	4.1668
3.0517	3.9057
3.041	3.5526
3.0303	3.3177
3.0197	3.3415
3.0092	3.0111
2.9987	2.6492
2.9884	2.573
2.9781	2.1747
2.9678	2.2855
2.9577	2.0607
2.9476	2.2406
2.9376	2.5179
2.9276	2.8821
2.9177	3.3012
2.9079	3.6364
2.8982	4.1185
2.8885	4.7133
2.8789	5.6641
2.8693	6.5738
2.8598	7.8644
2.8504	9.1029
2.841	10.5885
2.8317	12.0705
2.8224	13.9388
2.8133	15.5845
2.8041	17.5313
2.7951	19.6578
2.786	21.7916
2.7771	23.7651
2.7682	26.2138
2.7594	28.3965
2.7506	30.7854
2.7418	33.7042
2.7332	36.6275
2.7246	39.9122
2.716	41.6613
2.7075	43.1849
2.699	44.3931
2.6906	45.0513
2.6823	45.3229
2.674	45.3306
2.6657	46.1197
2.6575	45.0754
2.6494	44.6561
2.6413	44.7031
2.6332	45.0783
2.6252	45.3799
2.6173	46.3332
2.6094	46.8525
2.6015	47.6493
2.5937	49.4642
2.5859	49.7387
2.5782	50.8099
2.5706	51.8266
2.5629	52.9876
2.5554	53.2252
2.5478	53.884
2.5403	53.9769
2.5329	54.2329
2.5255	54.2516
2.5181	54.432
2.5108	54.87
2.5035	55.6168
2.4963	55.8321
2.4891	56.4602
2.482	56.4304
2.4749	56.2607
2.4678	56.417
2.4608	56.6867
2.4538	56.9676
2.4468	57.6301
2.4399	58.0382
2.4331	58.6402
2.4262	59.1527
2.4194	59.6516
2.4127	60.1633
2.4059	60.5205
2.3993	61.3288
2.3926	61.7928
2.386	62.5959
2.3795	63.1889
2.3729	63.7575
2.3664	64.4393
2.36	64.742
2.3535	65.0675
2.3471	64.9931
2.3408	65.0352
2.3345	64.6566
2.3282	63.9621
2.3219	63.2258
2.3157	62.4632
2.3095	61.7778
2.3034	61.0417
2.2972	60.3928
2.2911	60.1588
2.2851	59.8516
2.279	59.7094
2.2731	60.4165
2.2671	61.2769
2.2612	62.4659
2.2553	63.4843
2.2494	64.3932
2.2435	64.6958
2.2377	65.8142
2.232	66.678
2.2262	67.4263
2.2205	67.6443
2.2148	68.27
2.2091	68.4514
2.2035	68.9543
2.1979	69.573
2.1923	69.8478
2.1868	70.3697
2.1812	70.8528
2.1758	70.9351
2.1703	71.5308
2.1649	71.8189
2.1595	72.0927
2.1541	72.3624
2.1487	72.4574
2.1434	72.6795
2.1381	72.9405
2.1328	73.3039
2.1275	73.1668
2.1223	73.3633
2.1171	73.7854
2.112	73.7165
2.1068	74.0446
2.1017	74.1787
2.0966	74.2046
2.0915	74.301
2.0865	74.8212
2.0814	74.7184
2.0764	74.5469
2.0715	74.8879
2.0665	75.3071
2.0616	75.1804
2.0567	75.277
2.0518	75.0669
2.0469	75.4983
2.0421	75.3132
2.0373	75.2928
2.0325	75.3576
2.0277	75.474
2.0229	75.4791
2.0182	75.9503
2.0135	75.5626
2.0088	75.472
2.0042	75.7806
