Name: Pyrope Mg3Al2(SiO4)3
Type: Mineral
Class: Silicate
Subclass: Nesosilicate
Particle Size: Fine
Sample No.: pyrope_1
Owner: JHU
Wavelength Range: TIR
Origin: Finsch Mine, Brits Farm, 23 miles E. of Posemasburg, CapeProv., South Africa, via the Smithsonian (sample no. NMNH 121624)
Description: The sample consisted of many rounded (tumbled) pieces about 3 mm in diameter, with a total weight of 19.3 g.  Dark maroon in color, some pieces contained a green mineral (chlorite, uvarovite), limonitic alteration, and a soft, thin, cream-colored coating (talc).  These pieces (<1% of total sample) were discarded.  The remaining sample appears pure under the microscope. Particle size was less than 2 micrometers. (Isolated tetrahedra); Garnet Group Original ASTER Spectral Library name was jhu.nicolet.mineral.silicate.nesosilicate.powder.pyrope1.spectrum.txt
Measurement: Transmission
X Units: Wavelength (micrometers)
Y Units: Transmittance (percent)
wavelength	value
25.0442	48.453
24.3388	51.0194
23.6719	47.6561
23.0407	38.2929
22.4422	26.6113
21.8741	18.5078
21.334	23.6581
20.8199	18.9062
20.33	24.7109
19.8627	32.83
19.4163	39.369
18.9896	42.6171
18.5812	45.122
18.19	59.4647
17.815	58.1913
17.4551	35.3085
17.1094	40.3827
16.7772	48.0897
16.4576	61.9774
16.15	72.2244
15.8537	78.6375
15.568	83.0828
15.2925	85.9812
15.0265	89.0623
14.7697	91.6638
14.5214	92.2273
14.2814	91.6033
14.0492	89.7644
13.8244	87.3513
13.6067	84.6238
13.3957	80.5691
13.1912	76.9319
12.9929	73.0584
12.8004	67.9119
12.6135	62.2445
12.432	55.701
12.2557	51.5096
12.0843	45.8612
11.9176	37.1835
11.7555	29.1742
11.5977	22.291
11.444	20.2167
11.2944	24.0283
11.1487	20.0146
11.0067	23.9911
10.8682	30.8564
10.7332	41.2528
10.6015	47.4891
10.473	30.706
10.3476	17.8027
10.2251	23.0976
10.1056	27.248
9.9887	27.9408
9.8746	32.8622
9.763	41.08
9.6539	48.348
9.5472	52.9803
9.4429	55.5614
9.3408	56.9081
9.2409	58.1644
9.1431	59.2127
9.0474	62.7938
8.9536	64.9032
8.8618	67.5721
8.7718	68.3768
8.6837	68.1678
8.5973	70.5345
8.5126	72.994
8.4295	75.948
8.3481	79.1155
8.2682	81.7305
8.1898	84.1114
8.1129	86.1902
8.0374	87.6594
7.9634	88.9336
7.8906	90.155
7.8192	91.2227
7.7491	91.9011
7.6802	92.4824
7.6126	93.1267
7.5461	93.5703
7.4807	93.9717
7.4165	94.3408
7.3534	94.6443
7.2914	94.8943
7.2303	94.7239
7.1703	94.8076
7.1113	94.9971
7.0533	95.6504
6.9962	96.0635
6.94	95.9424
6.8847	96.0481
6.8302	96.4541
6.7767	96.4954
6.7239	96.6201
6.672	97.0408
6.6209	97.3555
6.5705	97.3613
6.5209	97.1855
6.4721	97.0652
6.424	96.7891
6.3766	96.5056
6.3299	96.2082
6.2838	95.5303
6.2385	94.3787
6.1937	92.7139
6.1496	91.8242
6.1062	92.2754
6.0633	92.8301
6.0211	93.3418
5.9794	94.3455
5.9383	96.0049
5.8978	96.8789
5.8578	97.1396
5.8184	97.05
5.7794	96.9492
5.741	96.801
5.7031	96.7246
5.6657	96.5769
5.6288	96.4268
5.5924	96.415
5.5564	96.3816
5.5209	96.3789
5.4859	96.3416
5.4513	96.4285
5.4171	96.4441
5.3833	96.3894
5.35	96.3291
5.3171	96.2996
5.2846	96.2351
5.2524	96.1853
5.2207	96.1943
5.1893	96.1472
5.1584	96.0808
5.1277	96.0859
5.0975	95.9873
5.0676	95.9307
5.038	95.8411
5.0088	95.8
4.98	95.7019
4.9514	95.5959
4.9232	95.4875
4.8953	95.3708
4.8678	95.2625
4.8405	95.1287
4.8135	94.9714
4.7868	94.8938
4.7605	94.7654
4.7344	94.6472
4.7086	94.489
4.6831	94.3972
4.6578	94.2537
4.6328	94.1599
4.6081	94.1194
4.5837	94.0022
4.5595	93.8572
4.5356	93.7224
4.5119	93.5535
4.4884	93.4749
4.4652	93.322
4.4423	93.1956
4.4196	93.116
4.3971	93.0086
4.3748	92.9006
4.3528	92.8362
4.331	92.6365
4.3094	92.5134
4.288	92.3591
4.2668	92.1931
4.2458	92.1599
4.2251	92.0964
4.2045	91.9187
4.1841	91.8264
4.164	91.7078
4.144	91.5549
4.1242	91.4597
4.1046	91.4221
4.0852	91.2156
4.066	91.0398
4.047	90.9402
4.0281	90.8718
4.0094	90.8015
3.9909	90.5818
3.9725	90.4182
3.9544	90.3714
3.9363	90.2444
3.9185	90.1819
3.9008	90.0877
3.8833	89.866
3.8659	89.7361
3.8487	89.6287
3.8316	89.489
3.8147	89.3582
3.7979	89.3064
3.7813	89.1336
3.7648	88.9597
3.7485	88.8767
3.7323	88.7171
3.7162	88.6096
3.7003	88.4549
3.6845	88.3377
3.6689	88.1707
3.6534	88.0315
3.638	87.9617
3.6227	87.8167
3.6076	87.6111
3.5926	87.5901
3.5777	87.408
3.563	87.3108
3.5484	87.1629
3.5338	87.0349
3.5195	86.9065
3.5052	86.7849
3.491	86.7307
3.477	86.6096
3.463	86.4763
3.4492	86.3167
3.4355	86.1863
3.4219	85.824
3.4084	85.656
3.395	85.43
3.3817	85.2678
3.3685	85.1306
3.3554	84.844
3.3425	84.5296
3.3296	84.4275
3.3168	84.1643
3.3041	84.0843
3.2915	83.8518
3.279	83.6175
3.2666	83.4085
3.2543	83.1214
3.2421	82.8538
3.23	82.5335
3.218	82.3055
3.206	81.9529
3.1942	81.6756
3.1824	81.49
3.1707	81.239
3.1591	80.9607
3.1476	80.5603
3.1362	80.282
3.1249	79.781
3.1136	79.656
3.1024	79.5916
3.0913	79.2508
3.0803	78.9851
3.0694	78.7498
3.0585	78.6404
3.0477	78.4568
3.037	78.1502
3.0264	77.8123
3.0158	77.1336
3.0053	76.6326
2.9949	75.9695
2.9845	75.285
2.9743	74.575
2.9641	73.5232
2.9539	72.6131
2.9439	71.9813
2.9339	71.493
2.9239	70.9617
2.9141	70.9227
2.9043	71.0203
2.8946	71.285
2.8849	71.7361
2.8753	72.1424
2.8658	72.4373
2.8563	73.1287
2.8469	73.6961
2.8375	74.1023
2.8282	73.575
2.819	74.1219
2.8098	75.0389
2.8007	75.5818
2.7917	76.2439
2.7827	76.7068
2.7738	76.8641
2.7649	77.1297
2.7561	77.7615
2.7473	78.324
2.7386	78.8396
2.7299	79.1873
2.7213	79.3709
2.7128	79.3279
2.7043	79.3172
2.6959	79.4422
2.6875	79.4266
2.6791	79.325
2.6709	79.4256
2.6626	79.1111
2.6545	79.0369
2.6463	78.9773
2.6382	78.8875
2.6302	78.7693
2.6222	78.6482
2.6143	78.4529
2.6064	78.3943
2.5986	78.3123
2.5908	78.4197
2.583	78.365
2.5753	78.158
2.5677	78.0701
2.5601	77.8865
2.5525	77.7146
2.545	77.7459
2.5375	77.5877
2.5301	77.4275
2.5227	77.3299
2.5154	77.4158
2.5081	77.4686
2.5008	77.2049
2.4936	77.1678
2.4864	76.949
2.4793	76.9803
2.4722	76.7693
2.4651	76.8846
2.4581	76.8123
2.4511	76.6248
2.4442	76.5525
2.4373	76.3436
2.4305	76.3865
2.4236	76.3982
2.4169	76.3123
2.4101	76.3846
2.4034	76.0115
2.3967	76.0896
2.3901	75.9959
2.3835	75.8689
2.377	75.7811
2.3704	75.6893
2.364	75.4705
2.3575	75.492
2.3511	75.7771
2.3447	75.4705
2.3384	75.3982
2.3321	75.16
2.3258	74.992
2.3195	75.0623
2.3133	75.0721
2.3071	74.908
2.301	74.8611
2.2949	74.7615
2.2888	74.9236
2.2828	74.783
2.2767	74.369
2.2708	74.7908
2.2648	74.5311
2.2589	74.4158
2.253	74.3475
2.2471	74.4139
2.2413	74.2498
2.2355	74.0037
2.2297	74.0076
2.224	74.0936
2.2183	73.9998
2.2126	73.9061
2.207	74.0467
2.2013	73.6482
2.1957	73.9217
2.1902	73.7654
2.1846	73.5311
2.1791	73.3006
2.1736	73.4803
2.1682	73.199
2.1628	73.617
2.1574	73.5272
2.152	73.1951
2.1466	73.0311
2.1413	73.1287
2.136	73.074
2.1308	73.0623
2.1255	72.8162
2.1203	72.992
2.1151	73.0076
2.11	72.66
2.1048	72.6483
2.0997	72.91
2.0946	72.7108
2.0895	72.4881
2.0845	72.9608
2.0795	72.4529
