Name: Hemimorphite Zn_4Si_2O_7(OH)_2.H_2O
Type: Mineral
Class: Silicate
Subclass: Sorosilicate
Particle Size: Coarse
Sample No.: SS-2A
Owner: JPL
Wavelength Range: TIR
Origin: Mexico, Durango, Ojuela Mine
Description: Particle size was 125-500um.Collected by Burminco Original ASTER Spectral Library name was jpl.nicolet.mineral.silicate.sorosilicate.coarse.ss02a.spectrum.txt
Measurement: Hemispherical reflectance
X Units: Wavelength (micrometers)
Y Units: Reflectance (percent)
wavelength	value
15.3853	1.926
15.1161	2.6204
14.8563	4.8986
14.6052	3.4902
14.3624	1.5537
14.1276	1.6516
13.9004	2.0119
13.6803	2.0893
13.4671	2.6784
13.2604	2.9091
13.06	3.0793
12.8656	3.2864
12.6769	3.4921
12.4936	3.7204
12.3155	4.549
12.1425	4.7638
11.9742	5.366
11.8106	6.6252
11.6513	9.7424
11.4963	14.1995
11.3454	7.2442
11.1983	5.9574
11.0551	8.1624
10.9154	12.8177
10.7793	22.4727
10.6465	25.3419
10.5169	20.9525
10.3904	22.3588
10.267	23.945
10.1464	21.8915
10.0287	16.1016
9.9136	6.4587
9.8012	2.5511
9.6913	1.4561
9.5838	1.1106
9.4787	1.0658
9.3758	1.6201
9.2752	3.37
9.1767	6.7041
9.0803	9.6714
8.9858	7.6022
8.8934	1.7481
8.8028	0.6735
8.714	0.4905
8.627	0.695
8.5417	0.865
8.4581	0.8255
8.3761	0.7705
8.2957	1.0159
8.2169	1.098
8.1395	1.2273
8.0635	1.2456
7.989	1.3909
7.9158	1.5618
7.8439	1.7206
7.7734	1.8107
7.7041	1.8856
7.636	2.0742
7.5691	2.3312
7.5034	2.4808
7.4388	2.6282
7.3753	2.6587
7.3129	2.5907
7.2515	2.6798
7.1912	2.8691
7.1318	3.2003
7.0734	3.3731
7.016	3.4642
6.9595	3.4049
6.9039	3.4591
6.8492	3.4491
6.7953	3.572
6.7423	3.6199
6.6901	3.6794
6.6387	3.8764
6.5881	3.5084
6.5382	3.2027
6.4892	3.168
6.4408	2.9016
6.3931	2.8213
6.3462	2.8631
6.2999	2.6927
6.2543	2.5286
6.2094	2.4659
6.1651	2.484
6.1214	2.5313
6.0784	1.6567
6.0359	1.9282
5.994	2.1255
5.9527	2.4307
5.912	2.8984
5.8718	3.2246
5.8322	3.5418
5.7931	3.6675
5.7545	3.491
5.7165	3.1467
5.6789	2.8794
5.6418	2.882
5.6052	2.6104
5.5691	2.637
5.5334	2.8772
5.4982	3.1676
5.4635	3.3181
5.4291	3.1837
5.3952	2.984
5.3618	2.7575
5.3287	2.9355
5.2961	2.8613
5.2638	2.8891
5.2319	2.9994
5.2004	3.0915
5.1693	3.1407
5.1386	3.4385
5.1082	3.4627
5.0782	3.5597
5.0485	3.776
5.0192	3.5589
4.9902	3.527
4.9616	3.4254
4.9332	3.4113
4.9052	3.6518
4.8776	3.6843
4.8502	4.0968
4.8231	4.3759
4.7963	4.5853
4.7699	5.0345
4.7437	5.5017
4.7178	5.827
4.6922	6.3061
4.6668	6.7528
4.6418	7.481
4.617	8.239
4.5924	8.9101
4.5681	9.731
4.5441	10.4688
4.5203	11.448
4.4968	12.0878
4.4735	12.9741
4.4505	13.7146
4.4277	14.8278
4.4051	15.751
4.3828	16.7751
4.3607	17.6407
4.3388	18.4691
4.3171	19.2023
4.2956	20.0645
4.2744	20.7883
4.2534	21.4135
4.2325	22.3632
4.2119	22.8162
4.1915	23.281
4.1712	23.8574
4.1512	24.3547
4.1313	24.9162
4.1117	25.1717
4.0922	25.5501
4.0729	25.9705
4.0538	26.3316
4.0349	26.6013
4.0161	27.0075
3.9976	27.1703
3.9792	27.5646
3.9609	27.8338
3.9428	28.0581
3.9249	28.2143
3.9072	28.227
3.8896	28.1882
3.8722	28.3305
3.8549	28.3642
3.8378	28.5325
3.8208	28.7177
3.804	28.9733
3.7873	29.3481
3.7708	29.4516
3.7544	29.3382
3.7382	29.1286
3.7221	28.9835
3.7061	28.4953
3.6903	28.1714
3.6746	27.6715
3.659	27.3495
3.6436	27.0433
3.6283	26.4842
3.6131	25.9548
3.5981	25.357
3.5832	24.781
3.5684	24.0025
3.5537	23.2754
3.5391	22.4091
3.5247	21.6142
3.5104	20.6015
3.4962	19.8148
3.4821	19.0742
3.4681	18.1513
3.4543	17.3627
3.4405	16.4716
3.4269	15.4746
3.4133	14.4698
3.3999	13.7382
3.3866	12.794
3.3733	11.9425
3.3602	10.9787
3.3472	10.2751
3.3343	9.6231
3.3215	8.9124
3.3088	8.3212
3.2961	7.6949
3.2836	7.1082
3.2712	6.5976
3.2588	6.2196
3.2466	5.9345
3.2345	5.4069
3.2224	5.0809
3.2104	4.7769
3.1985	4.5774
3.1867	4.3572
3.175	4.049
3.1634	3.9026
3.1519	3.6747
3.1404	3.5941
3.129	3.5528
3.1178	3.4053
3.1065	3.1944
3.0954	3.2557
3.0844	3.074
3.0734	3.1274
3.0625	3.0609
3.0517	3.0197
3.041	2.8986
3.0303	2.9537
3.0197	2.9331
3.0092	3.0123
2.9987	2.8948
2.9884	2.9717
2.9781	2.9463
2.9678	2.897
2.9577	2.9693
2.9476	2.843
2.9376	2.7448
2.9276	2.772
2.9177	2.7543
2.9079	2.6948
2.8982	2.6977
2.8885	2.5286
2.8789	2.6166
2.8693	2.4173
2.8598	2.6056
2.8504	2.6236
2.841	2.5104
2.8317	2.3491
2.8224	2.591
2.8133	2.4836
2.8041	2.5486
2.7951	2.2908
2.786	2.4635
2.7771	2.1795
2.7682	2.5139
2.7594	2.6263
2.7506	2.1608
2.7418	2.5295
2.7332	2.7548
2.7246	2.6645
2.716	2.9566
2.7075	2.9443
2.699	3.1465
2.6906	3.3898
2.6823	3.5209
2.674	3.881
2.6657	4.087
2.6575	4.4899
2.6494	4.6826
2.6413	4.8613
2.6332	5.259
2.6252	5.4317
2.6173	5.8724
2.6094	5.9686
2.6015	6.2942
2.5937	6.8445
2.5859	6.9474
2.5782	7.1578
2.5706	7.6128
2.5629	7.9213
2.5554	8.1325
2.5478	8.4375
2.5403	8.8349
2.5329	9.2685
2.5255	9.6417
2.5181	10.2348
2.5108	10.7333
2.5035	11.4457
2.4963	12.0201
2.4891	12.7795
2.482	13.5972
2.4749	14.2168
2.4678	14.9802
2.4608	15.3936
2.4538	16.0945
2.4468	16.3041
2.4399	16.9156
2.4331	17.2551
2.4262	17.8129
2.4194	18.345
2.4127	18.9247
2.4059	19.4367
2.3993	20.1377
2.3926	20.7211
2.386	21.3518
2.3795	22.0694
2.3729	23.155
2.3664	24.6352
2.36	26.1936
2.3535	27.9895
2.3471	29.8639
2.3408	31.7017
2.3345	33.0879
2.3282	34.5117
2.3219	35.7866
2.3157	36.5949
2.3095	37.05
2.3034	37.7672
2.2972	38.2048
2.2911	38.5547
2.2851	38.9694
2.279	38.9361
2.2731	38.9997
2.2671	38.804
2.2612	38.6648
2.2553	38.3251
2.2494	38.1184
2.2435	37.3817
2.2377	36.8043
2.232	36.35
2.2262	36.07
2.2205	35.8137
2.2148	36.0126
2.2091	36.2256
2.2035	37.1427
2.1979	37.6775
2.1923	38.5466
2.1868	39.526
2.1812	40.5939
2.1758	41.7448
2.1703	42.4084
2.1649	43.2634
2.1595	44.2056
2.1541	44.9479
2.1487	45.7362
2.1434	46.4665
2.1381	47.2568
2.1328	47.9907
2.1275	48.6106
2.1223	49.0687
2.1171	49.542
2.112	50.0222
2.1068	50.6262
2.1017	50.4703
2.0966	50.6658
2.0915	50.8223
2.0865	50.664
2.0814	50.7903
2.0764	50.6375
2.0715	50.5396
2.0665	50.4238
2.0616	50.6172
2.0567	50.1883
2.0518	49.3431
2.0469	49.37
2.0421	48.4347
2.0373	47.3069
2.0325	46.8029
2.0277	46.2566
2.0229	44.8002
2.0182	43.9072
2.0135	42.9814
2.0088	41.5924
2.0042	40.1327
