Name: Marcasite FeS_2
Type: Mineral
Class: Sulfide
Subclass: None
Particle Size: Fine
Sample No.: S-10A
Owner: JPL
Wavelength Range: VSWIR
Origin: USA, Indiana, Jasper County, Rensselaer, Pleasant Ridge Quarry
Description: Particle size was 0-45um.Collected by Ward's Original ASTER Spectral Library name was jpl.beckman.mineral.sulfide.none.fine.s10a.spectrum.txt
Measurement: Hemispherical reflectance
X Units: Wavelength (micrometers)
Y Units: Reflectance (percent)
wavelength	value
0.4	5.76
0.403	5.67
0.406	5.65
0.409	5.89
0.412	5.77
0.415	5.72
0.418	5.77
0.421	5.89
0.424	5.93
0.427	5.9
0.43	5.93
0.433	5.94
0.436	6.01
0.439	6.11
0.442	6.11
0.445	6.18
0.448	6.12
0.451	6.24
0.454	6.33
0.457	6.34
0.46	6.39
0.463	6.41
0.466	6.41
0.469	6.57
0.472	6.53
0.475	6.51
0.478	6.7
0.481	6.74
0.484	6.87
0.487	6.85
0.49	6.93
0.493	6.92
0.496	7
0.499	7.09
0.502	7.13
0.505	7.12
0.508	7.18
0.511	7.24
0.514	7.24
0.517	7.42
0.52	7.34
0.523	7.34
0.526	7.38
0.529	7.44
0.532	7.56
0.535	7.44
0.538	7.55
0.541	7.56
0.544	7.58
0.547	7.59
0.55	7.54
0.553	7.61
0.556	7.53
0.559	7.54
0.562	7.55
0.565	7.64
0.568	7.65
0.571	7.6
0.574	7.52
0.577	7.58
0.58	7.61
0.583	7.47
0.586	7.48
0.589	7.42
0.592	7.45
0.595	7.44
0.598	7.52
0.601	7.46
0.604	7.54
0.607	7.43
0.61	7.42
0.613	7.5
0.616	7.45
0.619	7.62
0.622	7.4
0.625	7.38
0.628	7.45
0.631	7.51
0.634	7.4
0.637	7.45
0.64	7.4
0.643	7.4
0.646	7.45
0.649	7.39
0.652	7.39
0.655	7.35
0.658	7.31
0.661	7.5
0.664	7.39
0.667	7.45
0.67	7.42
0.673	7.27
0.676	7.35
0.679	7.34
0.682	7.41
0.685	7.33
0.688	7.28
0.691	7.44
0.694	7.23
0.697	7.35
0.7	7.26
0.703	7.28
0.706	7.32
0.709	7.32
0.712	7.29
0.715	7.27
0.718	7.28
0.721	7.33
0.724	7.28
0.727	7.27
0.73	7.2
0.733	7.16
0.736	7.27
0.739	7.2
0.742	7.15
0.745	7.08
0.748	7.14
0.751	7.2
0.754	7.14
0.757	7.15
0.76	7.02
0.763	7.09
0.766	7.08
0.769	7.07
0.772	7.04
0.775	7.02
0.778	7.02
0.781	6.89
0.784	7.01
0.787	7.01
0.79	7.01
0.793	6.9
0.796	7.01
0.799	7.07
0.808	7.23
0.82	7.11
0.832	7.12
0.844	7.01
0.856	7
0.868	7.01
0.88	7.02
0.892	6.96
0.904	6.96
0.916	7.03
0.928	7.03
0.94	7.1
0.952	7.16
0.964	7.21
0.976	7.22
0.988	7.21
1	7.24
1.012	7.33
1.024	7.44
1.036	7.45
1.048	7.48
1.06	7.6
1.072	7.65
1.084	7.64
1.096	7.72
1.108	7.82
1.12	7.92
1.132	7.95
1.144	8.1
1.156	8.17
1.168	8.34
1.18	8.5
1.192	8.66
1.204	8.87
1.216	9.04
1.228	9.33
1.24	9.51
1.252	9.75
1.264	10.05
1.276	10.35
1.288	10.55
1.3	10.78
1.312	10.89
1.324	11.17
1.336	11.36
1.348	11.58
1.36	11.72
1.372	11.91
1.384	12.01
1.396	12.14
1.408	12.29
1.42	12.37
1.432	12.45
1.444	12.62
1.456	12.75
1.468	12.87
1.48	12.86
1.492	12.96
1.504	13.07
1.516	13.17
1.528	13.22
1.54	13.33
1.552	13.42
1.564	13.46
1.576	13.63
1.588	13.69
1.6	13.68
1.612	13.77
1.624	13.79
1.636	13.83
1.648	13.91
1.66	14
1.672	14.07
1.684	14.1
1.696	14.15
1.708	14.2
1.72	14.23
1.732	14.31
1.744	14.3
1.756	14.37
1.768	14.45
1.78	14.53
1.792	14.49
1.804	14.45
1.816	14.55
1.828	14.67
1.84	14.69
1.852	14.69
1.864	14.74
1.876	14.78
1.888	14.82
1.9	14.81
1.912	14.79
1.924	14.84
1.936	14.92
1.948	15
1.96	15.01
1.972	15.05
1.984	15.11
1.996	15.19
2.008	15.2
2.02	15.4
2.032	15.34
2.044	15.34
2.056	15.43
2.068	15.54
2.08	15.54
2.092	15.63
2.104	15.64
2.116	15.76
2.128	15.85
2.14	15.89
2.152	15.96
2.164	16.02
2.176	15.97
2.188	16.03
2.2	16.1
2.212	16.16
2.224	16.18
2.236	16.21
2.248	16.27
2.26	16.35
2.272	16.37
2.284	16.36
2.296	16.43
2.308	16.57
2.32	16.72
2.332	16.82
2.344	16.88
2.356	16.84
2.368	16.8
2.38	16.8
2.392	16.81
2.404	16.86
2.416	16.96
2.428	16.97
2.44	16.9
2.452	16.93
2.464	16.99
2.476	17.04
2.488	17.04
2.5	17.13
