Name: Rutile TiO_2
Type: Mineral
Class: Oxide
Subclass: None
Particle Size: Fine
Sample No.: O-2A
Owner: JPL
Wavelength Range: VSWIR
Description: Particle size was 0-45um.Collected by JPL Original ASTER Spectral Library name was jpl.beckman.mineral.oxide.none.fine.o02a.spectrum.txt
Measurement: Hemispherical reflectance
X Units: Wavelength (micrometers)
Y Units: Reflectance (percent)
wavelength	value
0.4	11.94
0.403	12.6
0.406	12.99
0.409	13.34
0.412	13.59
0.415	13.78
0.418	14.11
0.421	14.32
0.424	14.64
0.427	14.82
0.43	15.06
0.433	15.4
0.436	15.62
0.439	15.78
0.442	16.08
0.445	16.24
0.448	16.43
0.451	16.83
0.454	16.95
0.457	17.19
0.46	17.38
0.463	17.7
0.466	17.82
0.469	18.07
0.472	18.27
0.475	18.68
0.478	18.92
0.481	19.06
0.484	19.29
0.487	19.61
0.49	19.89
0.493	20.31
0.496	20.42
0.499	20.7
0.502	20.99
0.505	21.24
0.508	21.63
0.511	21.89
0.514	22.08
0.517	22.44
0.52	22.76
0.523	23.15
0.526	23.28
0.529	23.48
0.532	23.86
0.535	24.12
0.538	24.5
0.541	24.72
0.544	24.85
0.547	25.28
0.55	25.54
0.553	25.67
0.556	25.95
0.559	26.08
0.562	26.55
0.565	26.84
0.568	27.1
0.571	27.39
0.574	27.63
0.577	27.8
0.58	27.96
0.583	28.28
0.586	28.56
0.589	28.69
0.592	28.91
0.595	29.13
0.598	29.5
0.601	29.79
0.604	30.02
0.607	30.14
0.61	30.38
0.613	30.61
0.616	30.75
0.619	30.95
0.622	31.12
0.625	31.52
0.628	31.64
0.631	31.81
0.634	31.94
0.637	32.18
0.64	32.46
0.643	32.7
0.646	32.83
0.649	33.03
0.652	33.23
0.655	33.47
0.658	33.88
0.661	33.74
0.664	34.05
0.667	34.26
0.67	34.39
0.673	34.71
0.676	34.68
0.679	34.92
0.682	35.04
0.685	35.27
0.688	35.45
0.691	35.59
0.694	35.59
0.697	35.91
0.7	36.02
0.703	36.18
0.706	36.4
0.709	36.59
0.712	36.74
0.715	36.9
0.718	37.03
0.721	37.17
0.724	37.41
0.727	37.46
0.73	37.68
0.733	37.69
0.736	37.94
0.739	38
0.742	38.22
0.745	38.38
0.748	38.51
0.751	38.75
0.754	38.74
0.757	38.83
0.76	38.95
0.763	39.19
0.766	39.4
0.769	39.53
0.772	39.53
0.775	39.77
0.778	39.97
0.781	40.3
0.784	40.39
0.787	40.38
0.79	40.46
0.793	40.66
0.796	40.81
0.799	40.75
0.808	41.38
0.82	41.9
0.832	42.37
0.844	42.91
0.856	43.23
0.868	43.58
0.88	43.93
0.892	44.26
0.904	44.52
0.916	44.68
0.928	44.89
0.94	45.04
0.952	45.19
0.964	45.25
0.976	45.37
0.988	45.49
1	45.42
1.012	45.43
1.024	45.49
1.036	45.52
1.048	45.57
1.06	45.55
1.072	45.41
1.084	45.36
1.096	45.24
1.108	45.21
1.12	45.19
1.132	45.21
1.144	45.11
1.156	45.09
1.168	44.94
1.18	44.75
1.192	44.73
1.204	44.76
1.216	44.7
1.228	44.67
1.24	44.52
1.252	44.56
1.264	44.54
1.276	44.5
1.288	44.52
1.3	44.51
1.312	44.51
1.324	44.56
1.336	44.55
1.348	44.6
1.36	44.6
1.372	44.56
1.384	44.49
1.396	44.53
1.408	44.56
1.42	44.61
1.432	44.7
1.444	44.68
1.456	44.83
1.468	44.89
1.48	44.89
1.492	44.86
1.504	44.94
1.516	45.04
1.528	45.01
1.54	45.09
1.552	45.03
1.564	44.98
1.576	45.1
1.588	45.24
1.6	45.26
1.612	45.29
1.624	45.24
1.636	45.26
1.648	45.31
1.66	45.51
1.672	45.58
1.684	45.62
1.696	45.72
1.708	45.73
1.72	45.75
1.732	45.81
1.744	45.89
1.756	45.9
1.768	45.99
1.78	46.06
1.792	46.21
1.804	46.34
1.816	46.38
1.828	46.4
1.84	46.46
1.852	46.48
1.864	46.47
1.876	46.62
1.888	46.7
1.9	46.83
1.912	46.86
1.924	46.87
1.936	46.98
1.948	47
1.96	47.02
1.972	47.16
1.984	47.32
1.996	47.5
2.008	47.58
2.02	47.79
2.032	47.85
2.044	47.98
2.056	48.09
2.068	48.09
2.08	48.26
2.092	48.28
2.104	48.45
2.116	48.62
2.128	48.7
2.14	48.65
2.152	48.6
2.164	48.58
2.176	48.52
2.188	48.55
2.2	48.67
2.212	48.71
2.224	48.86
2.236	48.87
2.248	48.98
2.26	48.96
2.272	48.93
2.284	48.89
2.296	48.88
2.308	48.87
2.32	49.22
2.332	49.43
2.344	49.66
2.356	49.72
2.368	49.76
2.38	49.77
2.392	49.74
2.404	49.83
2.416	49.85
2.428	49.96
2.44	50.04
2.452	50.02
2.464	50.04
2.476	50.08
2.488	50.31
2.5	50.67
