Name: Azurite Cu_3(CO_3)_2(OH)_2
Type: Mineral
Class: Carbonate
Subclass: None
Particle Size: Fine
Sample No.: C-12A
Owner: JPL
Wavelength Range: VSWIR
Origin: USA, California, San Bernadino County, Near Valley Wells
Description: Particle size was 0-45um.Collected by Burminco Original ASTER Spectral Library name was jpl.beckman.mineral.carbonate.none.fine.c12a.spectrum.txt
Measurement: Hemispherical reflectance
X Units: Wavelength (micrometers)
Y Units: Reflectance (percent)
wavelength	value
0.4	23.33
0.403	24.74
0.406	25.72
0.409	26.51
0.412	27.36
0.415	28.07
0.418	28.9
0.421	29.55
0.424	30.25
0.427	31.11
0.43	31.87
0.433	32.56
0.436	33.24
0.439	33.91
0.442	34.51
0.445	35.16
0.448	35.71
0.451	36.1
0.454	36.51
0.457	36.93
0.46	37.12
0.463	37.5
0.466	37.8
0.469	38.05
0.472	38.41
0.475	38.66
0.478	38.97
0.481	39.13
0.484	39.27
0.487	39.59
0.49	39.61
0.493	39.92
0.496	40.02
0.499	40.2
0.502	40.22
0.505	40.39
0.508	40.51
0.511	40.41
0.514	40.37
0.517	40.34
0.52	40.36
0.523	40.23
0.526	40.08
0.529	39.86
0.532	39.6
0.535	39.52
0.538	39.18
0.541	38.88
0.544	38.57
0.547	38.22
0.55	37.96
0.553	37.53
0.556	37.16
0.559	36.77
0.562	36.49
0.565	35.83
0.568	35.3
0.571	34.74
0.574	34.25
0.577	33.61
0.58	32.94
0.583	32.34
0.586	31.78
0.589	31.3
0.592	30.54
0.595	29.99
0.598	29.46
0.601	28.91
0.604	28.42
0.607	27.83
0.61	27.2
0.613	26.7
0.616	26.22
0.619	25.74
0.622	25.21
0.625	24.69
0.628	24.2
0.631	23.79
0.634	23.43
0.637	23.08
0.64	22.71
0.643	22.27
0.646	22.04
0.649	21.7
0.652	21.41
0.655	21.11
0.658	20.82
0.661	20.53
0.664	20.43
0.667	20.21
0.67	19.9
0.673	19.8
0.676	19.56
0.679	19.49
0.682	19.3
0.685	19.17
0.688	19.08
0.691	18.86
0.694	18.77
0.697	18.71
0.7	18.7
0.703	18.6
0.706	18.46
0.709	18.41
0.712	18.41
0.715	18.38
0.718	18.25
0.721	18.38
0.724	18.28
0.727	18.3
0.73	18.28
0.733	18.25
0.736	18.22
0.739	18.24
0.742	18.34
0.745	18.35
0.748	18.32
0.751	18.4
0.754	18.36
0.757	18.41
0.76	18.46
0.763	18.57
0.766	18.63
0.769	18.68
0.772	18.79
0.775	18.83
0.778	18.99
0.781	18.88
0.784	19.02
0.787	19.09
0.79	19.27
0.793	19.3
0.796	19.45
0.799	19.65
0.808	20.15
0.82	20.57
0.832	21
0.844	21.44
0.856	22.14
0.868	22.86
0.88	23.64
0.892	24.63
0.904	25.61
0.916	26.65
0.928	27.91
0.94	29.19
0.952	30.53
0.964	31.84
0.976	33.12
0.988	34.4
1	35.69
1.012	36.79
1.024	37.93
1.036	38.98
1.048	40.06
1.06	40.89
1.072	41.62
1.084	42.26
1.096	42.99
1.108	43.61
1.12	44.21
1.132	44.62
1.144	45.05
1.156	45.46
1.168	45.98
1.18	46.45
1.192	46.94
1.204	47.35
1.216	47.73
1.228	48.23
1.24	48.63
1.252	49.05
1.264	49.52
1.276	49.97
1.288	50.39
1.3	50.88
1.312	51.3
1.324	51.69
1.336	52.18
1.348	52.61
1.36	52.9
1.372	53.06
1.384	52.79
1.396	51.75
1.408	49.55
1.42	51.02
1.432	52.29
1.444	53.1
1.456	53.57
1.468	54.23
1.48	54.78
1.492	55.4
1.504	56.5
1.516	57.61
1.528	58.4
1.54	59.21
1.552	59.9
1.564	60.47
1.576	61.1
1.588	61.69
1.6	62.32
1.612	62.9
1.624	63.45
1.636	63.97
1.648	64.47
1.66	64.91
1.672	65.37
1.684	65.74
1.696	66.16
1.708	66.47
1.72	66.77
1.732	67.04
1.744	67.01
1.756	67.24
1.768	67.41
1.78	67.62
1.792	67.84
1.804	68.07
1.816	68.14
1.828	68.27
1.84	68.19
1.852	67.72
1.864	66.17
1.876	62.03
1.888	55.75
1.9	49.51
1.912	47.65
1.924	48.74
1.936	50.13
1.948	51.53
1.96	52.82
1.972	54.16
1.984	55.75
1.996	57.26
2.008	58.6
2.02	59.8
2.032	60.78
2.044	61.84
2.056	62.66
2.068	63.56
2.08	64.2
2.092	64.84
2.104	65.25
2.116	65.72
2.128	65.84
2.14	65.73
2.152	65.25
2.164	64.55
2.176	63.88
2.188	62.91
2.2	61.57
2.212	60.42
2.224	59.53
2.236	57.54
2.248	55.22
2.26	53.21
2.272	51.36
2.284	51.41
2.296	53.72
2.308	55.4
2.32	54.59
2.332	51.32
2.344	47.95
2.356	47.9
2.368	49.75
2.38	50.29
2.392	49.89
2.404	49.56
2.416	49.23
2.428	48.72
2.44	48.16
2.452	47.49
2.464	46.76
2.476	45.95
2.488	45.32
2.5	44.9
