Name: Dolomite CaMg(CO3)2
Type: Mineral
Class: Carbonate
Subclass: None
Particle Size: Fine
Sample No.: dolomite_3
Owner: JHU
Wavelength Range: TIR
Origin: Donated by Norma Vergo;  sample from Corydon, Indiana.
Description: The hand sample was massive, multicrystalline, and pink in color and appeared to be pure dolomite. Microscopic examination confirmed this. Particle size was Less than 2  Micrometers. Original ASTER Spectral Library name was jhu.nicolet.mineral.carbonate.none.powder.dolomi3.spectrum.txt
Measurement: Transmission
X Units: Wavelength (micrometers)
Y Units: Transmittance (percent)
wavelength	value
25.0442	32.5234
24.3388	37.1288
23.6719	49.953
23.0407	65.742
22.4422	76.2439
21.8741	83.1482
21.334	87.3845
20.8199	89.9783
20.33	90.9588
19.8627	92.0388
19.4163	93.9919
18.9896	95.7234
18.5812	96.197
18.19	96.8123
17.815	97.7517
17.4551	98.6091
17.1094	99.363
16.7772	99.9236
16.4576	100.766
16.15	101.193
15.8537	101.328
15.568	101.17
15.2925	100.976
15.0265	100.428
14.7697	99.8005
14.5214	99.2517
14.2814	98.3733
14.0492	96.1624
13.8244	83.49
13.6067	88.2615
13.3957	98.7327
13.1912	99.2776
12.9929	99.3288
12.8004	99.0217
12.6135	98.4709
12.432	97.7248
12.2557	96.9832
12.0843	96.2444
11.9176	94.9822
11.7555	89.4802
11.5977	85.116
11.444	51.2889
11.2944	32.3554
11.1487	84.867
11.0067	91.7966
10.8682	93.8479
10.7332	94.8796
10.6015	95.6663
10.473	96.281
10.3476	96.3479
10.2251	95.9905
10.1056	95.532
9.9887	95.1218
9.8746	94.6267
9.763	94.2039
9.6539	93.6721
9.5472	93.0086
9.4429	91.7859
9.3408	90.5764
9.2409	89.6541
9.1431	88.7581
9.0474	88.5408
8.9536	88.2991
8.8618	87.9549
8.7718	87.0676
8.6837	86.1883
8.5973	85.2537
8.5126	84.0388
8.4295	82.7976
8.3481	81.9451
8.2682	80.6592
8.1898	78.6678
8.1129	76.9346
8.0374	75.1888
7.9634	73.1356
7.8906	70.8878
7.8192	68.1361
7.7491	65.0462
7.6802	61.9356
7.6126	58.4725
7.5461	54.3429
7.4807	49.7247
7.4165	44.7013
7.3534	38.7177
7.2914	32.2499
7.2303	25.5978
7.1703	18.4953
7.1113	11.6445
7.0533	6.7854
6.9962	2.8232
6.94	2.0068
6.8847	2.335
6.8302	3.2519
6.7767	4.5151
6.7239	6.2065
6.672	9.2158
6.6209	14.936
6.5705	22.457
6.5209	30.5021
6.4721	38.5243
6.424	46.2736
6.3766	53.7152
6.3299	59.7166
6.2838	63.5824
6.2385	66.4981
6.1937	69.6436
6.1496	73.1873
6.1062	75.5496
6.0633	77.7249
6.0211	79.6136
5.9794	81.2176
5.9383	82.5008
5.8978	84.0459
5.8578	85.5584
5.8184	86.6072
5.7794	87.8154
5.741	88.7039
5.7031	89.5769
5.6657	90.3152
5.6288	90.8701
5.5924	91.1541
5.5564	90.5798
5.5209	87.7923
5.4859	87.3506
5.4513	91.5628
5.4171	93.7197
5.3833	94.8513
5.35	95.5312
5.3171	96.198
5.2846	96.7119
5.2524	97.2607
5.2207	97.699
5.1893	98.1296
5.1584	98.5124
5.1277	98.8652
5.0975	99.1514
5.0676	99.3535
5.038	99.7029
5.0088	99.9558
4.98	100.214
4.9514	100.407
4.9232	100.634
4.8953	100.814
4.8678	100.973
4.8405	101.165
4.8135	101.323
4.7868	101.479
4.7605	101.62
4.7344	101.741
4.7086	101.855
4.6831	101.868
4.6578	101.818
4.6328	101.879
4.6081	101.974
4.5837	102.141
4.5595	102.32
4.5356	102.389
4.5119	102.528
4.4884	102.612
4.4652	102.653
4.4423	102.679
4.4196	102.732
4.3971	102.86
4.3748	102.922
4.3528	102.987
4.331	102.978
4.3094	103.036
4.288	103.111
4.2668	103.114
4.2458	103.2
4.2251	103.205
4.2045	103.186
4.1841	103.208
4.164	103.185
4.144	103.198
4.1242	103.187
4.1046	103.159
4.0852	103.1
4.066	102.98
4.047	102.804
4.0281	102.457
4.0094	101.692
3.9909	100.057
3.9725	96.1648
3.9544	95.2507
3.9363	95.9749
3.9185	97.01
3.9008	99.2287
3.8833	99.8772
3.8659	100.512
3.8487	101.782
3.8316	101.76
3.8147	100.859
3.7979	100.928
3.7813	101.939
3.7648	102.628
3.7485	103.126
3.7323	103.322
3.7162	103.37
3.7003	103.401
3.6845	103.424
3.6689	103.394
3.6534	103.378
3.638	103.345
3.6227	103.32
3.6076	103.332
3.5926	103.26
3.5777	103.222
3.563	103.138
3.5484	102.975
3.5338	102.906
3.5195	102.623
3.5052	101.957
3.491	100.863
3.477	99.9158
3.463	99.2712
3.4492	99.0994
3.4355	100.309
3.4219	101.035
3.4084	101.187
3.395	101.422
3.3817	101.654
3.3685	101.599
3.3554	101.172
3.3425	100.991
3.3296	100.974
3.3168	100.65
3.3041	101.023
3.2915	102.672
3.279	102.961
3.2666	103.014
3.2543	103.021
3.2421	103.045
3.23	103.095
3.218	103.092
3.206	103.136
3.1942	103.115
3.1824	103.101
3.1707	103.111
3.1591	103.099
3.1476	103.144
3.1362	103.165
3.1249	103.159
3.1136	103.275
3.1024	103.256
3.0913	103.318
3.0803	103.358
3.0694	103.457
3.0585	103.456
3.0477	103.472
3.037	103.496
3.0264	103.552
3.0158	103.641
3.0053	103.789
2.9949	104.028
2.9845	104.383
2.9743	104.717
2.9641	105.12
2.9539	105.57
2.9439	105.866
2.9339	106.188
2.9239	106.391
2.9141	106.535
2.9043	106.404
2.8946	106.34
2.8849	106.257
2.8753	106.075
2.8658	105.792
2.8563	105.852
2.8469	105.732
2.8375	105.481
2.8282	105.192
2.819	104.914
2.8098	104.757
2.8007	104.454
2.7917	104.317
2.7827	104.106
2.7738	103.832
2.7649	103.512
2.7561	103.185
2.7473	103.215
2.7386	102.8
2.7299	102.774
2.7213	102.532
2.7128	102.616
2.7043	102.187
2.6959	101.835
2.6875	101.739
2.6791	101.581
2.6709	101.292
2.6626	101.418
2.6545	101.343
2.6463	101.227
2.6382	101.285
2.6302	100.805
2.6222	100.996
2.6143	100.879
2.6064	100.683
2.5986	100.882
2.5908	100.672
2.583	100.489
2.5753	100.399
2.5677	100.512
2.5601	100.347
2.5525	100.386
2.545	100.231
2.5375	100.226
2.5301	100.179
2.5227	100.118
2.5154	99.9607
2.5081	100.001
2.5008	99.9333
2.4936	99.8318
2.4864	99.863
2.4793	99.6892
2.4722	99.6404
2.4651	99.6033
2.4581	99.7322
2.4511	99.7576
2.4442	99.5154
2.4373	99.6111
2.4305	99.4783
2.4236	99.4568
2.4169	99.4158
2.4101	99.199
2.4034	99.2829
2.3967	99.3201
2.3901	99.1579
2.3835	99.281
2.377	99.2107
2.3704	99.2595
2.364	99.281
2.3575	99.0622
2.3511	99.2146
2.3447	99.1033
2.3384	98.947
2.3321	99.0505
2.3258	98.9939
2.3195	98.9294
2.3133	98.9568
2.3071	99.1169
2.301	99.0173
2.2949	99.0642
2.2888	99.0564
2.2828	98.9607
2.2767	99.0095
2.2708	99.0701
2.2648	99.1443
2.2589	99.0329
2.253	99.1326
2.2471	99.0486
2.2413	99.1951
2.2355	99.0564
2.2297	99.2439
2.224	99.3747
2.2183	99.2751
2.2126	99.2966
2.207	99.2595
2.2013	99.3122
2.1957	99.3279
2.1902	99.3474
2.1846	99.3904
2.1791	99.4138
2.1736	99.5076
2.1682	99.5232
2.1628	99.4548
2.1574	99.5622
2.152	99.4333
2.1466	99.6404
2.1413	99.5857
2.136	99.5466
2.1308	99.9138
2.1255	99.4997
2.1203	99.5701
2.1151	99.7185
2.11	99.7771
2.1048	99.6013
2.0997	99.7654
2.0946	99.7966
2.0895	99.8982
2.0845	99.7537
2.0795	99.863
