Name: Chlorite
Type: Mineral
Class: Silicate
Subclass: Phyllosilicate
Particle Size: Fine
Sample No.: PS-12C
Owner: JPL
Wavelength Range: TIR
Origin: USA, California
Description: Particle size was 0-45um.Collected by Ward's Original ASTER Spectral Library name was jpl.nicolet.mineral.silicate.phyllosilicate.fine.ps12c.spectrum.txt
Measurement: Hemispherical reflectance
X Units: Wavelength (micrometers)
Y Units: Reflectance (percent)
wavelength	value
15.3853	3.5924
15.1161	3.0981
14.8563	2.5682
14.6052	2.4698
14.3624	2.5135
14.1276	2.0905
13.9004	2.0566
13.6803	2.1768
13.4671	2.1304
13.2604	2.3369
13.06	2.3917
12.8656	1.6998
12.6769	1.5728
12.4936	1.4351
12.3155	1.5853
12.1425	1.8464
11.9742	2.1868
11.8106	2.9252
11.6513	3.5942
11.4963	3.8098
11.3454	4.0291
11.1983	4.3497
11.0551	4.7689
10.9154	4.979
10.7793	5.4436
10.6465	5.8179
10.5169	6.7136
10.3904	6.908
10.267	6.8024
10.1464	7.5733
10.0287	8.7122
9.9136	10.158
9.8012	11.7236
9.6913	12.0882
9.5838	9.8375
9.4787	8.2237
9.3758	8.4603
9.2752	7.4103
9.1767	5.4513
9.0803	4.6676
8.9858	3.0293
8.8934	1.663
8.8028	1.0566
8.714	0.7219
8.627	0.7116
8.5417	0.9716
8.4581	1.4687
8.3761	1.9531
8.2957	2.7912
8.2169	3.5061
8.1395	4.2799
8.0635	5.2902
7.989	6.2492
7.9158	6.9339
7.8439	7.7326
7.7734	8.4982
7.7041	9.1128
7.636	9.7802
7.5691	10.308
7.5034	10.8833
7.4388	11.4399
7.3753	11.8204
7.3129	12.5887
7.2515	13.2192
7.1912	13.8381
7.1318	14.4265
7.0734	14.9687
7.016	15.3626
6.9595	16.2734
6.9039	16.5749
6.8492	16.8703
6.7953	17.2551
6.7423	17.1672
6.6901	17.3444
6.6387	17.872
6.5881	17.3348
6.5382	16.7898
6.4892	16.7084
6.4408	15.4241
6.3931	14.6272
6.3462	14.3871
6.2999	13.8788
6.2543	14.1036
6.2094	14.3329
6.1651	14.4786
6.1214	14.8212
6.0784	15.1999
6.0359	15.5126
5.994	15.8656
5.9527	15.9485
5.912	16.2033
5.8718	16.5373
5.8322	17.2234
5.7931	17.6483
5.7545	18.5205
5.7165	19.2998
5.6789	19.5679
5.6418	20.1257
5.6052	19.9677
5.5691	20.3117
5.5334	20.5101
5.4982	20.8756
5.4635	21.4785
5.4291	21.9247
5.3952	22.3899
5.3618	23.0404
5.3287	23.3379
5.2961	23.6905
5.2638	24.0622
5.2319	24.585
5.2004	25.0363
5.1693	25.5474
5.1386	25.8914
5.1082	26.0968
5.0782	26.0229
5.0485	26.1099
5.0192	25.8874
4.9902	26.0595
4.9616	26.6979
4.9332	27.877
4.9052	29.2312
4.8776	30.6564
4.8502	32.1042
4.8231	33.3432
4.7963	34.5744
4.7699	35.7061
4.7437	36.879
4.7178	38.6894
4.6922	40.6587
4.6668	42.4043
4.6418	43.8093
4.617	44.8618
4.5924	46.3294
4.5681	48.1721
4.5441	49.6605
4.5203	50.505
4.4968	51.214
4.4735	51.8081
4.4505	52.4676
4.4277	52.9154
4.4051	53.4985
4.3828	53.8051
4.3607	54.2538
4.3388	54.6479
4.3171	55.0135
4.2956	55.3091
4.2744	55.6914
4.2534	55.9826
4.2325	56.4555
4.2119	56.6298
4.1915	56.8031
4.1712	57.0632
4.1512	57.4454
4.1313	57.5955
4.1117	57.7836
4.0922	57.8733
4.0729	58.196
4.0538	58.2509
4.0349	58.2511
4.0161	58.3249
3.9976	58.3759
3.9792	58.3598
3.9609	58.3064
3.9428	58.2751
3.9249	58.2286
3.9072	58.132
3.8896	57.9968
3.8722	57.8049
3.8549	57.6364
3.8378	57.2867
3.8208	57.0374
3.804	56.7417
3.7873	56.599
3.7708	56.3327
3.7544	56.1461
3.7382	55.9399
3.7221	55.4668
3.7061	55.0071
3.6903	54.7728
3.6746	54.4173
3.659	54.0677
3.6436	53.5973
3.6283	53.1628
3.6131	52.4957
3.5981	51.845
3.5832	50.7952
3.5684	49.914
3.5537	49.6278
3.5391	49.1877
3.5247	48.2841
3.5104	47.5493
3.4962	46.8299
3.4821	46.1337
3.4681	45.5546
3.4543	44.8813
3.4405	44.252
3.4269	43.4069
3.4133	42.6487
3.3999	42.0123
3.3866	41.4895
3.3733	40.7855
3.3602	40.0005
3.3472	39.295
3.3343	38.3919
3.3215	37.7074
3.3088	37.0023
3.2961	36.151
3.2836	35.2773
3.2712	34.3858
3.2588	33.5784
3.2466	32.7754
3.2345	31.7302
3.2224	30.6339
3.2104	29.2738
3.1985	28.1187
3.1867	26.8291
3.175	25.5532
3.1634	24.0963
3.1519	22.8783
3.1404	21.4307
3.129	20.0938
3.1178	18.8786
3.1065	17.4512
3.0954	16.2191
3.0844	14.9712
3.0734	13.5948
3.0625	12.6171
3.0517	11.6408
3.041	10.632
3.0303	9.754
3.0197	8.9641
3.0092	8.2618
2.9987	7.6328
2.9884	7.0531
2.9781	6.4038
2.9678	6.1883
2.9577	5.7848
2.9476	5.5418
2.9376	5.1901
2.9276	4.8225
2.9177	5.0361
2.9079	5.0235
2.8982	5.4607
2.8885	5.6261
2.8789	5.9182
2.8693	6.1795
2.8598	5.9589
2.8504	5.8461
2.841	5.5372
2.8317	5.2375
2.8224	4.9467
2.8133	4.7026
2.8041	4.5898
2.7951	4.5112
2.786	4.8591
2.7771	5.7023
2.7682	6.8522
2.7594	7.9676
2.7506	8.879
2.7418	10.3569
2.7332	11.3787
2.7246	12.0524
2.716	12.105
2.7075	24.0549
2.699	42.2564
2.6906	48.2075
2.6823	52.4117
2.674	55.2859
2.6657	57.7543
2.6575	57.365
2.6494	57.5569
2.6413	58.048
2.6332	58.5914
2.6252	58.6227
2.6173	58.6953
2.6094	57.9944
2.6015	57.4002
2.5937	57.9852
2.5859	56.7779
2.5782	56.1205
2.5706	56.2895
2.5629	56.5544
2.5554	56.4109
2.5478	56.8289
2.5403	56.9805
2.5329	57.1873
2.5255	56.992
2.5181	57.1077
2.5108	57.1674
2.5035	57.3457
2.4963	57.2056
2.4891	57.338
2.482	57.3207
2.4749	57.1246
2.4678	57.4455
2.4608	58.3344
2.4538	59.3446
2.4468	60.5553
2.4399	61.0275
2.4331	61.6607
2.4262	62.443
2.4194	63.3633
2.4127	63.3307
2.4059	62.3692
2.3993	61.2107
2.3926	60.2315
2.386	60.2246
2.3795	60.3173
2.3729	59.9286
2.3664	58.9264
2.36	57.3761
2.3535	56.0849
2.3471	54.4646
2.3408	53.4345
2.3345	52.8038
2.3282	52.4165
2.3219	53.048
2.3157	54.2646
2.3095	55.6864
2.3034	56.4299
2.2972	56.4747
2.2911	57.3736
2.2851	59.8801
2.279	61.8453
2.2731	62.5159
2.2671	62.5078
2.2612	62.1292
2.2553	62.0584
2.2494	61.6283
2.2435	62.3843
2.2377	64.9216
2.232	67.8705
2.2262	70.2945
2.2205	71.8431
2.2148	72.8855
2.2091	73.7312
2.2035	74.6928
2.1979	75.1617
2.1923	75.6259
2.1868	76.0676
2.1812	76.3782
2.1758	77.0203
2.1703	77.0297
2.1649	77.4507
2.1595	77.4257
2.1541	77.5935
2.1487	77.6502
2.1434	77.8963
2.1381	77.7272
2.1328	77.8004
2.1275	77.6561
2.1223	77.8806
2.1171	77.6617
2.112	77.7164
2.1068	77.7316
2.1017	77.8594
2.0966	78.163
2.0915	78.4623
2.0865	78.6132
2.0814	78.5684
2.0764	78.3253
2.0715	78.42
2.0665	78.2196
2.0616	77.7434
2.0567	77.7235
2.0518	77.514
2.0469	77.1653
2.0421	76.7035
2.0373	76.3009
2.0325	76.1312
2.0277	75.3356
2.0229	74.9945
2.0182	74.2613
2.0135	74.0035
2.0088	73.5705
2.0042	73.3284
