Name: Lepidolite K(Li,Al)3(Si,Al)_4O_10(F,OH)_2
Type: Mineral
Class: Silicate
Subclass: Phyllosilicate
Particle Size: Medium
Sample No.: PS-13B
Owner: JPL
Wavelength Range: VSWIR
Origin: South Africa.
Description: Lavender lepidolite.Particle size was 45-125um.Collected by:  Ward's Original ASTER Spectral Library name was jpl.perkin.mineral.silicate.phyllosilicate.medium.ps13b.spectrum.txt
Measurement: Hemispherical reflectance
X Units: Wavelength (micrometers)
Y Units: Reflectance (percent)
wavelength	value
2.5	44.2826
2.494	43.3146
2.488	42.9032
2.482	42.5624
2.476	42.1649
2.47	41.751
2.464	41.0851
2.458	40.4111
2.452	39.7331
2.446	39.1492
2.44	38.7962
2.434	38.8256
2.428	39.383
2.422	40.497
2.416	41.9388
2.41	43.61
2.404	45.2133
2.398	46.4159
2.392	47.0866
2.386	47.4479
2.38	47.4859
2.374	47.4943
2.368	47.3932
2.362	46.9701
2.356	46.2599
2.35	45.5951
2.344	45.638
2.338	46.4603
2.332	48.0426
2.326	50.2525
2.32	52.7512
2.314	55.166
2.308	57.5255
2.302	59.6814
2.296	61.4753
2.29	62.8453
2.284	63.8149
2.278	64.4201
2.272	64.8065
2.266	64.9046
2.26	64.744
2.254	64.581
2.248	64.1897
2.242	63.76
2.236	62.9155
2.23	61.5062
2.224	58.9384
2.218	54.529
2.212	48.6395
2.206	42.412
2.2	38.1582
2.194	37.2704
2.188	40.2578
2.182	46.0889
2.176	53.0283
2.17	59.1365
2.164	63.7042
2.158	66.8842
2.152	69.1093
2.146	70.6971
2.14	71.6298
2.134	72.0287
2.128	71.8555
2.122	71.4539
2.116	71.3374
2.11	71.8957
2.104	72.648
2.098	73.63
2.092	74.9993
2.086	75.9881
2.08	76.9102
2.074	77.5787
2.068	78.1016
2.062	78.5732
2.056	78.8162
2.05	78.9798
2.044	79.1716
2.038	79.1945
2.032	79.3493
2.026	79.479
2.02	79.5263
2.014	79.6021
2.008	79.6359
2.002	79.6865
1.996	79.5358
1.99	79.4727
1.984	79.3582
1.978	79.3208
1.972	79.2224
1.966	79.1969
1.96	79.2552
1.954	79.2356
1.948	79.2504
1.942	79.244
1.936	79.1255
1.93	79.1171
1.924	78.9652
1.918	78.9074
1.912	78.9197
1.906	78.9251
1.9	79.0068
1.894	79.5968
1.888	80.4383
1.882	80.9073
1.876	81.2693
1.87	81.5728
1.864	81.7421
1.858	81.7889
1.852	81.8114
1.846	81.6185
1.84	81.5254
1.834	81.4835
1.828	81.8471
1.822	82.0367
1.816	82.3842
1.81	82.5446
1.804	82.621
1.798	82.5905
1.792	82.6469
1.786	82.544
1.78	82.4849
1.774	82.492
1.768	82.5371
1.762	82.4944
1.756	82.5489
1.75	82.5708
1.744	82.7418
1.738	82.7729
1.732	82.7612
1.726	82.851
1.72	82.8264
1.714	82.8125
1.708	82.7073
1.702	82.7917
1.696	82.7269
1.69	82.7081
1.684	82.7107
1.678	82.6788
1.672	82.6676
1.666	82.6023
1.66	82.548
1.654	82.5425
1.648	82.5301
1.642	82.5363
1.636	82.4634
1.63	82.4636
1.624	82.4997
1.618	82.3813
1.612	82.4719
1.606	82.3303
1.6	82.3413
1.594	82.3184
1.588	82.2113
1.582	82.2064
1.576	82.1412
1.57	82.1002
1.564	82.0693
1.558	81.9474
1.552	81.9346
1.546	81.8613
1.54	81.7858
1.534	81.6541
1.528	81.6782
1.522	81.511
1.516	81.455
1.51	81.3749
1.504	81.2431
1.498	81.2332
1.492	81.0605
1.486	80.9033
1.48	80.8469
1.474	80.6964
1.468	80.5307
1.462	80.3685
1.456	80.0411
1.45	79.7126
1.444	79.3263
1.438	78.4834
1.432	77.0773
1.426	73.5438
1.42	64.3267
1.414	52.2105
1.408	51.5556
1.402	53.8962
1.396	61.7216
1.39	69.9939
1.384	71.2666
1.378	76.2198
1.372	77.6961
1.366	78.3417
1.36	78.7959
1.354	78.9281
1.348	78.789
1.342	78.5574
1.336	78.3664
1.33	78.1082
1.324	78.0403
1.318	78.0116
1.312	78.0043
1.306	78.178
1.3	78.1555
1.294	78.2249
1.288	78.2814
1.282	78.258
1.276	78.3785
1.27	78.3262
1.264	78.1664
1.258	77.9261
1.252	77.6346
1.246	77.4168
1.24	77.5268
1.234	77.5693
1.228	77.525
1.222	77.3924
1.216	77.2408
1.21	77.1614
1.204	76.9913
1.198	76.8754
1.192	76.7838
1.186	76.6132
1.18	76.4694
1.174	76.3048
1.168	76.1871
1.162	76.0824
1.156	75.9087
1.15	75.6951
1.144	75.6077
1.138	75.4866
1.132	75.3211
1.126	75.1996
1.12	75.0073
1.114	74.8441
1.108	74.6405
1.102	74.3702
1.096	74.3089
1.09	74.1484
1.084	74.0523
1.078	73.7825
1.072	73.5761
1.066	73.3535
1.06	73.1002
1.054	73.0392
1.048	72.7654
1.042	72.6495
1.036	72.4073
1.03	72.2443
1.024	71.9115
1.018	71.7815
1.012	71.5896
1.006	71.3603
1	71.1035
0.994	70.8485
0.988	70.6355
0.982	70.3557
0.976	70.0928
0.97	69.3957
0.964	68.6805
0.958	68.6231
0.952	68.8361
0.946	68.8149
0.94	68.6241
0.934	68.5857
0.928	68.3109
0.922	68.0531
0.916	67.8116
0.91	67.581
0.904	67.3546
0.898	67.1756
0.892	66.9489
0.886	66.6605
0.88	66.5454
0.874	66.3228
0.868	66.1031
0.862	65.8974
0.856	66.0923
0.85	65.9067
0.844	65.7156
0.838	65.5821
0.832	65.4011
0.826	65.2508
0.82	65.0833
0.814	64.9688
0.808	64.8525
0.802	64.7566
0.796	64.6188
0.79	64.551
0.784	64.5077
0.778	64.3746
0.772	64.4045
0.766	64.3886
0.76	64.3733
0.754	64.4218
0.748	64.4403
0.742	64.5044
0.736	64.5839
0.73	64.6872
0.724	64.7743
0.718	64.9018
0.712	65.0257
0.706	65.1392
0.7	65.2907
0.694	65.4024
0.688	65.5068
0.682	65.6032
0.676	65.6415
0.67	65.6061
0.664	65.5028
0.658	65.2803
0.652	64.9212
0.646	64.4347
0.64	63.767
0.634	62.9635
0.628	62.0246
0.622	60.9478
0.616	59.8142
0.61	58.6058
0.604	57.396
0.598	56.2496
0.592	55.1902
0.586	54.2145
0.58	53.3995
0.574	52.7523
0.568	52.3624
0.562	52.1615
0.556	52.2082
0.55	52.4218
0.544	52.8263
0.538	53.3928
0.532	54.0035
0.526	54.6986
0.52	55.4425
0.514	56.2011
0.508	56.9284
0.502	57.5226
0.496	58.0428
0.49	58.4166
0.484	58.7115
0.478	58.8615
0.472	58.9975
0.466	59.1838
0.46	59.2596
0.454	59.2981
0.448	59.2665
0.442	59.268
0.436	59.2721
0.43	59.2997
0.424	59.2969
0.418	59.1824
0.412	59.2993
0.406	59.5126
0.4	59.5433
