Name: Alunite (potassium alunite) KAl3(SO4)2(OH)6
Type: Mineral
Class: Sulfate
Subclass: None
Particle Size: Coarse
Sample No.: alunite_2
Owner: JHU
Wavelength Range: TIR
Origin: Utah; Hunt and Salisbury Collection #295 B (purchased fromWard's Natural Science Establishment).
Description: The sample is slightly pink in color, and appears pure under the microscope. Particle size was 75 - 250 Micrometers. Original ASTER Spectral Library name was jhu.nicolet.mineral.sulfate.none.coarse.alunit2.spectrum.txt
Measurement: Bidirectional Reflectance
X Units: Wavelength (micrometers)
Y Units: Reflectance (percent)
wavelength	value
25.0442	2.7825
24.3388	3.1902
23.6719	3.6479
23.0407	3.9424
22.4422	3.5688
21.8741	2.9639
21.334	3.1614
20.8199	3.3826
20.33	3.2515
19.8627	3.3901
19.4163	3.5679
18.9896	3.8391
18.5812	3.4048
18.19	3.5742
17.815	3.9612
17.4551	4.4114
17.1094	5.4255
16.7772	8.0937
16.4576	7.0752
16.15	5.1108
15.8537	7.2759
15.568	6.4639
15.2925	3.0815
15.0265	3.6946
14.7697	5.4856
14.5214	7.1894
14.2814	7.6211
14.0492	7.4668
13.8244	5.9653
13.6067	4.2656
13.3957	2.7422
13.1912	1.6731
12.9929	1.0864
12.8004	1.0046
12.6135	1.1265
12.432	1.2266
12.2557	1.3403
12.0843	1.4578
11.9176	1.5581
11.7555	1.6362
11.5977	1.7263
11.444	1.7937
11.2944	1.8127
11.1487	1.8623
11.0067	1.9126
10.8682	1.9673
10.7332	2.0493
10.6015	2.1057
10.473	2.1692
10.3476	2.2231
10.2251	2.2822
10.1056	2.3667
9.9887	2.4868
9.8746	2.6533
9.763	3.1138
9.6539	2.8401
9.5472	3.3223
9.4429	4.0574
9.3408	6.0066
9.2409	8.2976
9.1431	8.8791
9.0474	9.2048
8.9536	9.3972
8.8618	9.2138
8.7718	8.7707
8.6837	7.4468
8.5973	7.9341
8.5126	6.9204
8.4295	4.8711
8.3481	3.7439
8.2682	2.884
8.1898	2.2312
8.1129	1.8193
8.0374	1.7021
7.9634	1.9976
7.8906	2.5488
7.8192	3.2742
7.7491	3.1814
7.6802	2.1863
7.6126	1.1294
7.5461	0.6606
7.4807	0.717
7.4165	0.874
7.3534	1.0139
7.2914	1.0762
7.2303	1.1528
7.1703	1.209
7.1113	1.2314
7.0533	1.1865
6.9962	1.1814
6.94	1.2283
6.8847	1.2651
6.8302	1.2495
6.7767	1.2163
6.7239	1.2244
6.672	1.27
6.6209	1.3318
6.5705	1.406
6.5209	1.522
6.4721	1.5857
6.424	1.5998
6.3766	1.5369
6.3299	1.5027
6.2838	1.4829
6.2385	1.4504
6.1937	1.3894
6.1496	1.3413
6.1062	1.3176
6.0633	1.311
6.0211	1.3459
5.9794	1.3621
5.9383	1.3833
5.8978	1.4712
5.8578	1.678
5.8184	1.8638
5.7794	2.0266
5.741	2.1782
5.7031	2.3052
5.6657	2.4097
5.6288	2.5227
5.5924	2.5779
5.5564	2.6221
5.5209	2.6892
5.4859	2.8452
5.4513	3.0806
5.4171	3.2497
5.3833	3.345
5.35	3.3901
5.3171	3.4106
5.2846	3.4607
5.2524	3.5298
5.2207	3.5862
5.1893	3.6003
5.1584	3.6191
5.1277	3.6543
5.0975	3.6838
5.0676	3.7146
5.038	3.7217
5.0088	3.7017
4.98	3.6597
4.9514	3.6089
4.9232	3.4692
4.8953	3.1899
4.8678	2.8882
4.8405	2.5635
4.8135	2.6768
4.7868	2.2517
4.7605	1.5095
4.7344	1.2266
4.7086	1.2407
4.6831	1.2795
4.6578	1.3
4.6328	1.1975
4.6081	1.1443
4.5837	1.1289
4.5595	1.1721
4.5356	1.1746
4.5119	1.1826
4.4884	1.1807
4.4652	1.22
4.4423	1.2488
4.4196	1.29
4.3971	1.2998
4.3748	1.2563
4.3528	1.2744
4.331	1.3489
4.3094	1.5137
4.288	1.6047
4.2668	1.6655
4.2458	1.7512
4.2251	1.842
4.2045	1.9104
4.1841	1.9214
4.164	1.9231
4.144	1.9062
4.1242	1.9092
4.1046	1.9319
4.0852	1.9582
4.066	1.9851
4.047	2.0117
4.0281	2.0354
4.0094	2.0459
3.9909	2.0627
3.9725	2.0754
3.9544	2.0825
3.9363	2.0908
3.9185	2.1089
3.9008	2.1111
3.8833	2.0854
3.8659	2.0327
3.8487	2.1064
3.8316	2.0952
3.8147	2.0828
3.7979	2.0486
3.7813	2.0232
3.7648	1.9888
3.7485	1.9556
3.7323	1.9028
3.7162	1.8564
3.7003	1.8125
3.6845	1.759
3.6689	1.7129
3.6534	1.6685
3.638	1.6257
3.6227	1.5823
3.6076	1.5354
3.5926	1.4995
3.5777	1.4612
3.563	1.4285
3.5484	1.3948
3.5338	1.3574
3.5195	1.3384
3.5052	1.3081
3.491	1.2756
3.477	1.2603
3.463	1.2417
3.4492	1.2202
3.4355	1.1999
3.4219	1.1846
3.4084	1.1609
3.395	1.1374
3.3817	1.144
3.3685	1.1374
3.3554	1.1101
3.3425	1.1003
3.3296	1.0769
3.3168	1.0684
3.3041	1.0784
3.2915	1.0679
3.279	1.0532
3.2666	1.0583
3.2543	1.0439
3.2421	1.0337
3.23	1.0278
3.218	1.0247
3.206	1.0095
3.1942	1.019
3.1824	1.0073
3.1707	0.9922
3.1591	0.9836
3.1476	0.9846
3.1362	0.9761
3.1249	0.9797
3.1136	1
3.1024	0.9744
3.0913	0.9663
3.0803	0.9636
3.0694	0.9695
3.0585	0.9592
3.0477	0.9582
3.037	0.9646
3.0264	0.978
3.0158	0.959
3.0053	0.9622
2.9949	0.9565
2.9845	0.9683
2.9743	0.9492
2.9641	0.9712
2.9539	0.9568
2.9439	0.968
2.9339	0.9902
2.9239	1.0154
2.9141	1.0583
2.9043	1.1033
2.8946	1.229
2.8849	1.4692
2.8753	2.0142
2.8658	3.5002
2.8563	1.1582
2.8469	0.7507
2.8375	0.832
2.8282	0.4031
2.819	0.4644
2.8098	0.5198
2.8007	0.584
2.7917	0.614
2.7827	0.6631
2.7738	0.7219
2.7649	0.8479
2.7561	1.0806
2.7473	1.2549
2.7386	1.6309
2.7299	2.1687
2.7213	2.5896
2.7128	3.2329
2.7043	3.8096
2.6959	4.1899
2.6875	4.1094
2.6791	4.0229
2.6709	4.3335
2.6626	4.5759
2.6545	4.8992
2.6463	5.5915
2.6382	5.5879
2.6302	5.345
2.6222	5.1704
2.6143	5.0744
2.6064	4.7419
2.5986	4.7358
2.5908	4.279
2.583	3.9892
2.5753	4.0752
2.5677	4.0959
2.5601	4.0469
2.5525	4.2654
2.545	4.1902
2.5375	3.8481
2.5301	3.6047
2.5227	2.9199
2.5154	2.3799
2.5081	2.4976
2.5008	3.2395
2.4936	3.7475
2.4864	4.345
2.4793	4.3852
2.4722	3.905
2.4651	3.7727
2.4581	4.2607
2.4511	4.5034
2.4442	4.3999
2.4373	4.032
2.4305	3.8818
2.4236	4.2483
2.4169	4.6135
2.4101	4.9831
2.4034	5.167
2.3967	5.1836
2.3901	5.55
2.3835	6.3198
2.377	7.1748
2.3704	7.7773
2.364	8.1203
2.3575	8.2732
2.3511	8.3095
2.3447	8.1845
2.3384	7.7749
2.3321	7.1604
2.3258	6.6611
2.3195	6.406
2.3133	6.9062
2.3071	7.8542
2.301	8.5705
2.2949	8.9072
2.2888	9.1152
2.2828	9.1655
2.2767	9.2505
2.2708	9.2998
2.2648	9.3093
2.2589	9.3135
2.253	9.3674
2.2471	9.3254
2.2413	9.2646
2.2355	9.1157
2.2297	8.8232
2.224	8.2241
2.2183	6.9026
2.2126	5.439
2.207	5.1533
2.2013	6.0681
2.1957	5.8369
2.1902	4.9763
2.1846	4.4929
2.1791	4.1684
2.1736	4.3755
2.1682	4.0957
2.1628	4.2248
2.1574	4.0681
2.152	4.3716
2.1466	4.7541
2.1413	4.9184
2.136	5.2002
2.1308	5.4277
2.1255	5.7563
2.1203	6.2915
2.1151	6.8286
2.11	7.2639
2.1048	7.6548
2.0997	7.9243
2.0946	8.1245
2.0895	8.3071
2.0845	8.3662
2.0795	8.3623
