Name: Sodalite Na_8Al_6Si_6O_24Cl_2
Type: Mineral
Class: Silicate
Subclass: Tectosilicate
Particle Size: Medium
Sample No.: TS-10A
Owner: JPL
Wavelength Range: VSWIR
Origin: Canada, Ontario, Hastings County, Bancroft.
Description: Particle size was 45-125um.Collected by:  JPL Original ASTER Spectral Library name was jpl.perkin.mineral.silicate.tectosilicate.medium.ts10a.spectrum.txt
Measurement: Hemispherical reflectance
X Units: Wavelength (micrometers)
Y Units: Reflectance (percent)
wavelength	value
2.5	65.973
2.494	66.0462
2.488	66.5901
2.482	67.2223
2.476	67.7093
2.47	68.2394
2.464	68.8604
2.458	69.6056
2.452	70.1808
2.446	70.5669
2.44	70.9257
2.434	71.2938
2.428	71.5369
2.422	71.7697
2.416	72.0793
2.41	72.3547
2.404	72.5809
2.398	72.6351
2.392	72.798
2.386	72.8818
2.38	72.809
2.374	72.7557
2.368	72.5885
2.362	72.3591
2.356	72.0691
2.35	71.6337
2.344	71.2089
2.338	70.8897
2.332	70.9684
2.326	71.1162
2.32	71.4567
2.314	71.8238
2.308	72.1374
2.302	72.3827
2.296	72.7
2.29	72.816
2.284	73.1205
2.278	73.4042
2.272	73.6504
2.266	73.8985
2.26	74.0263
2.254	74.3297
2.248	74.527
2.242	74.7868
2.236	75.0179
2.23	75.1855
2.224	75.3223
2.218	75.4731
2.212	75.6287
2.206	75.712
2.2	75.7882
2.194	75.9691
2.188	76.0655
2.182	76.2175
2.176	76.4229
2.17	76.509
2.164	76.6991
2.158	76.7764
2.152	76.8763
2.146	76.8949
2.14	76.9494
2.134	76.8775
2.128	76.791
2.122	76.6132
2.116	76.4838
2.11	76.3527
2.104	76.2689
2.098	76.1631
2.092	76.2836
2.086	76.3939
2.08	76.4801
2.074	76.4524
2.068	76.5153
2.062	76.5918
2.056	76.5445
2.05	76.569
2.044	76.5363
2.038	76.6426
2.032	76.6472
2.026	76.5262
2.02	76.4829
2.014	76.3487
2.008	76.2863
2.002	76.0605
1.996	75.8914
1.99	75.7845
1.984	75.6167
1.978	75.5045
1.972	75.3459
1.966	75.3333
1.96	75.1906
1.954	75.0686
1.948	74.957
1.942	74.7991
1.936	74.7414
1.93	74.7803
1.924	74.6529
1.918	74.5646
1.912	74.5512
1.906	75.0548
1.9	75.8493
1.894	76.401
1.888	76.7096
1.882	76.9392
1.876	77.0341
1.87	77.1594
1.864	77.3071
1.858	77.415
1.852	77.4547
1.846	77.5221
1.84	77.4389
1.834	77.4519
1.828	77.4361
1.822	77.4091
1.816	77.4275
1.81	77.4071
1.804	77.4361
1.798	77.3193
1.792	77.3079
1.786	77.3049
1.78	77.1617
1.774	77.1728
1.768	77.0491
1.762	77.0734
1.756	77.0021
1.75	76.911
1.744	76.95
1.738	76.8962
1.732	76.866
1.726	76.8506
1.72	76.7709
1.714	76.7103
1.708	76.677
1.702	76.5986
1.696	76.4995
1.69	76.3733
1.684	76.2762
1.678	76.1839
1.672	76.2346
1.666	76.0597
1.66	76.0778
1.654	75.9683
1.648	75.9575
1.642	75.8614
1.636	75.706
1.63	75.6099
1.624	75.6006
1.618	75.4745
1.612	75.444
1.606	75.2744
1.6	75.2143
1.594	75.0981
1.588	75.067
1.582	74.9114
1.576	74.9274
1.57	74.7761
1.564	74.5959
1.558	74.9952
1.552	74.3978
1.546	74.3365
1.54	74.238
1.534	74.1232
1.528	74.0261
1.522	73.9493
1.516	73.847
1.51	73.7509
1.504	73.5895
1.498	73.5519
1.492	73.4422
1.486	73.3295
1.48	73.1942
1.474	73.0704
1.468	72.981
1.462	72.8048
1.456	72.748
1.45	72.618
1.444	72.3696
1.438	72.3767
1.432	72.408
1.426	72.4102
1.42	72.3594
1.414	72.3393
1.408	72.3794
1.402	72.3968
1.396	72.6359
1.39	72.6916
1.384	72.7168
1.378	72.7636
1.372	72.7215
1.366	72.7387
1.36	72.6869
1.354	72.5495
1.348	72.5136
1.342	72.494
1.336	72.416
1.33	72.4715
1.324	72.3886
1.318	72.2764
1.312	72.2661
1.306	72.2199
1.3	72.2289
1.294	72.1434
1.288	72.0806
1.282	72.107
1.276	71.9601
1.27	71.936
1.264	71.8202
1.258	71.7337
1.252	71.5878
1.246	71.476
1.24	71.419
1.234	71.2987
1.228	71.2973
1.222	71.1637
1.216	71.0164
1.21	70.924
1.204	70.8027
1.198	70.6255
1.192	70.5198
1.186	70.3865
1.18	70.348
1.174	70.1781
1.168	70.0819
1.162	70
1.156	69.9218
1.15	69.7838
1.144	69.6599
1.138	69.559
1.132	69.4536
1.126	69.383
1.12	69.224
1.114	69.2583
1.108	69.0957
1.102	69.0997
1.096	69.0913
1.09	68.9333
1.084	68.9743
1.078	68.9975
1.072	68.9964
1.066	68.9374
1.06	68.9545
1.054	68.9622
1.048	69.0396
1.042	69.0249
1.036	69.1516
1.03	69.1903
1.024	69.2464
1.018	69.2789
1.012	69.3179
1.006	69.4391
1	69.4608
0.994	69.6312
0.988	69.6382
0.982	69.7008
0.976	69.8593
0.97	69.8766
0.964	69.9481
0.958	69.961
0.952	70.0765
0.946	70.1171
0.94	70.1187
0.934	70.1284
0.928	70.2049
0.922	70.2591
0.916	70.2315
0.91	70.2184
0.904	70.2921
0.898	70.2848
0.892	70.2378
0.886	70.2925
0.88	70.3043
0.874	70.296
0.868	70.2696
0.862	70.327
0.856	70.5368
0.85	70.5302
0.844	70.5738
0.838	70.5583
0.832	70.5333
0.826	70.4832
0.82	70.4051
0.814	70.3464
0.808	70.2194
0.802	70.0615
0.796	69.8543
0.79	69.7084
0.784	69.4398
0.778	69.1409
0.772	68.7388
0.766	68.2809
0.76	67.6986
0.754	67.0025
0.748	66.1283
0.742	65.1226
0.736	63.8669
0.73	62.3896
0.724	60.6343
0.718	58.656
0.712	56.4479
0.706	54.1511
0.7	51.9639
0.694	50.0049
0.688	48.3775
0.682	46.9685
0.676	45.7998
0.67	44.8807
0.664	44.1824
0.658	43.6017
0.652	43.1155
0.646	42.7726
0.64	42.5756
0.634	42.4023
0.628	42.2085
0.622	41.9475
0.616	41.665
0.61	41.339
0.604	41.0446
0.598	40.9459
0.592	41.0401
0.586	41.1777
0.58	41.3745
0.574	41.6903
0.568	42.0852
0.562	42.3985
0.556	42.7279
0.55	43.121
0.544	43.5447
0.538	43.9491
0.532	44.4307
0.526	45.0276
0.52	45.5607
0.514	46.0627
0.508	46.633
0.502	47.2578
0.496	47.8783
0.49	48.4867
0.484	49.0756
0.478	49.6418
0.472	50.2284
0.466	50.7812
0.46	51.2763
0.454	51.7098
0.448	52.0485
0.442	52.2764
0.436	52.3678
0.43	52.3413
0.424	52.2387
0.418	52.063
0.412	51.7832
0.406	51.3472
0.4	50.8236
