Name: Trona Na_3(CO_3)(HCO_3).2H_2O
Type: Mineral
Class: Carbonate
Subclass: None
Particle Size: Medium
Sample No.: C-4A
Owner: JPL
Wavelength Range: VSWIR
Origin: USA, Wyoming, Sweetwater County.
Description: particle size was 45-125um.Collected by:  Ward's Original ASTER Spectral Library name was jpl.perkin.mineral.carbonate.none.medium.c04a.spectrum.txt
Measurement: Hemispherical reflectance
X Units: Wavelength (micrometers)
Y Units: Reflectance (percent)
wavelength	value
2.5	11.2167
2.494	11.1699
2.488	11.2289
2.482	11.2381
2.476	11.2354
2.47	11.3111
2.464	11.3353
2.458	11.4253
2.452	11.3991
2.446	11.3988
2.44	11.6763
2.434	11.5576
2.428	11.6269
2.422	11.6121
2.416	11.7073
2.41	11.7628
2.404	11.7455
2.398	11.8148
2.392	11.9925
2.386	12.1289
2.38	12.5098
2.374	12.9276
2.368	13.4136
2.362	13.754
2.356	14.1762
2.35	14.4538
2.344	14.7929
2.338	15.0538
2.332	15.3775
2.326	15.6538
2.32	15.9019
2.314	16.1843
2.308	16.4782
2.302	16.7299
2.296	16.9912
2.29	17.2307
2.284	17.4968
2.278	17.7011
2.272	17.9651
2.266	18.0568
2.26	18.2698
2.254	18.2555
2.248	18.3479
2.242	18.3655
2.236	18.1788
2.23	17.9607
2.224	17.7148
2.218	17.668
2.212	17.9471
2.206	18.0946
2.2	18.2785
2.194	18.3124
2.188	18.4485
2.182	18.5127
2.176	18.6748
2.17	18.6704
2.164	18.7051
2.158	18.7192
2.152	18.6193
2.146	18.6202
2.14	18.4219
2.134	18.3446
2.128	18.1889
2.122	17.9519
2.116	17.6635
2.11	17.3777
2.104	17.0731
2.098	16.6905
2.092	16.368
2.086	16.0623
2.08	15.8195
2.074	15.4392
2.068	15.1473
2.062	14.9226
2.056	14.6761
2.05	14.5427
2.044	14.4209
2.038	14.5496
2.032	14.78
2.026	15.2161
2.02	15.724
2.014	16.1747
2.008	16.529
2.002	16.7975
1.996	16.984
1.99	16.984
1.984	16.877
1.978	16.599
1.972	16.1668
1.966	15.6014
1.96	14.7616
1.954	13.8248
1.948	13.1861
1.942	13.2256
1.936	13.9224
1.93	15.2875
1.924	17.293
1.918	19.6242
1.912	21.8337
1.906	23.8917
1.9	26.0697
1.894	27.6974
1.888	29.0941
1.882	30.2446
1.876	31.1611
1.87	32.1426
1.864	32.8951
1.858	33.5106
1.852	34.1144
1.846	34.5007
1.84	34.8384
1.834	35.0526
1.828	35.2452
1.822	35.3301
1.816	35.4696
1.81	35.5739
1.804	35.6551
1.798	35.7783
1.792	35.842
1.786	35.9791
1.78	36.1424
1.774	36.1435
1.768	36.2152
1.762	36.1916
1.756	36.2401
1.75	36.3357
1.744	36.4342
1.738	36.7849
1.732	37.1786
1.726	37.786
1.72	38.3711
1.714	38.9132
1.708	39.5803
1.702	40.1356
1.696	40.7848
1.69	41.3105
1.684	41.9931
1.678	42.7867
1.672	43.4381
1.666	44.1916
1.66	44.9151
1.654	45.6587
1.648	46.3466
1.642	47.0654
1.636	47.65
1.63	48.2104
1.624	48.6773
1.618	49.652
1.612	49.7136
1.606	50.1612
1.6	50.5761
1.594	50.9377
1.588	51.2477
1.582	51.4408
1.576	51.4426
1.57	51.2714
1.564	50.9247
1.558	50.4141
1.552	49.4007
1.546	48.3922
1.54	47.2861
1.534	46.3957
1.528	46.1145
1.522	46.2646
1.516	46.5208
1.51	46.825
1.504	47.2435
1.498	47.9342
1.492	48.7324
1.486	49.7097
1.48	50.9571
1.474	52.3996
1.468	53.7895
1.462	55.4395
1.456	57.0994
1.45	58.8484
1.444	60.9582
1.438	63.1454
1.432	65.4437
1.426	67.5605
1.42	69.3158
1.414	70.6988
1.408	71.7614
1.402	72.6544
1.396	73.3527
1.39	73.8238
1.384	74.1321
1.378	74.3845
1.372	74.5039
1.366	74.7937
1.36	74.8803
1.354	74.9509
1.348	75.0884
1.342	75.3354
1.336	75.569
1.33	75.9322
1.324	76.3444
1.318	76.6297
1.312	77.0698
1.306	77.2993
1.3	77.7021
1.294	77.946
1.288	78.1131
1.282	78.2407
1.276	78.165
1.27	78.0949
1.264	78.0577
1.258	77.9119
1.252	77.7329
1.246	77.5652
1.24	77.5436
1.234	77.5703
1.228	77.6685
1.222	77.7378
1.216	77.8692
1.21	77.9556
1.204	78.1268
1.198	78.4595
1.192	78.8121
1.186	79.2849
1.18	79.7001
1.174	80.3479
1.168	80.968
1.162	81.634
1.156	82.1411
1.15	82.6291
1.144	83.0105
1.138	83.2777
1.132	83.3819
1.126	83.4538
1.12	83.5694
1.114	83.6387
1.108	83.6705
1.102	83.7347
1.096	83.8333
1.09	83.8253
1.084	83.7105
1.078	83.7477
1.072	83.7207
1.066	83.7356
1.06	83.6002
1.054	83.7056
1.048	83.5373
1.042	83.4842
1.036	83.4197
1.03	83.2809
1.024	83.1709
1.018	83.2309
1.012	83.1321
1.006	83.1345
1	83.229
0.994	83.2717
0.988	83.3908
0.982	83.659
0.976	83.7703
0.97	83.8751
0.964	84.0947
0.958	84.1187
0.952	84.1662
0.946	84.0978
0.94	84.2128
0.934	84.2324
0.928	84.1651
0.922	84.2236
0.916	84.176
0.91	84.1363
0.904	84.1377
0.898	84.0871
0.892	83.9213
0.886	84.008
0.88	84.0104
0.874	83.9077
0.868	83.9661
0.862	83.8917
0.856	83.4928
0.85	83.5913
0.844	83.608
0.838	83.6705
0.832	83.6792
0.826	83.6087
0.82	83.5536
0.814	83.4941
0.808	83.4873
0.802	83.4065
0.796	83.2459
0.79	83.196
0.784	83.1249
0.778	83.0224
0.772	82.9534
0.766	82.8656
0.76	82.7831
0.754	82.7515
0.748	82.6772
0.742	82.5397
0.736	82.5285
0.73	82.4227
0.724	82.3067
0.718	82.2057
0.712	82.0809
0.706	81.9568
0.7	81.8718
0.694	81.6964
0.688	81.6039
0.682	81.4642
0.676	81.3484
0.67	81.1915
0.664	81.0625
0.658	80.8435
0.652	80.7068
0.646	80.5126
0.64	80.3194
0.634	80.1132
0.628	79.9347
0.622	79.7025
0.616	79.4848
0.61	79.2621
0.604	79.0238
0.598	78.8046
0.592	78.5858
0.586	78.3003
0.58	77.9869
0.574	77.6281
0.568	77.2876
0.562	76.9621
0.556	76.5688
0.55	76.2152
0.544	75.8603
0.538	75.4989
0.532	75.0969
0.526	74.6892
0.52	74.2351
0.514	73.8044
0.508	73.2936
0.502	72.7437
0.496	72.1802
0.49	71.5539
0.484	70.8811
0.478	70.3351
0.472	69.7204
0.466	69.0645
0.46	68.3635
0.454	67.6068
0.448	66.7725
0.442	65.8248
0.436	64.9301
0.43	63.9684
0.424	63.0328
0.418	62.0987
0.412	61.1755
0.406	60.3019
0.4	59.4812
