Name: Spodumene LiAlSi2O6
Type: Mineral
Class: Silicate
Subclass: Inosilicate
Particle Size: Solid
Sample No.: spodum_1
Owner: JHU
Wavelength Range: TIR
Origin: Anita Mine, Pala Chief Hill, Pala, San Diego Co., California, USAvia the Smithsonian (sample no. NMNH 12430-1)
Description: The hand sample was 3 cm x 1 cm x 1 cm, transparent, with a small amount of iron staining.  No foreign material was noted under the microscope. Sample had cleavage face.(Framework silicates); Pyroxene Group Original ASTER Spectral Library name was jhu.nicolet.mineral.silicate.inosilicate.solid.spodum1.spectrum.txt
Measurement: Bidirectional reflectance
X Units: Wavelength (micrometers)
Y Units: Reflectance (percent)
wavelength	value
25.0442	25.5859
24.3388	22.9492
23.6719	20.9306
23.0407	23.6806
22.4422	28.1073
21.8741	31.1298
21.334	40.9198
20.8199	49.576
20.33	51.1268
19.8627	40.4325
19.4163	36.039
18.9896	41.7167
18.5812	45.8798
18.19	46.2919
17.815	41.4374
17.4551	46.5233
17.1094	51.3905
16.7772	53.2713
16.4576	51.1359
16.15	45.006
15.8537	40.0568
15.568	36.1147
15.2925	31.1359
15.0265	24.6796
14.7697	15.8859
14.5214	11.5119
14.2814	12.511
14.0492	13.7121
13.8244	14.6682
13.6067	15.3752
13.3957	16.0722
13.1912	16.6591
12.9929	17.1921
12.8004	17.6679
12.6135	18.122
12.432	18.571
12.2557	19.2338
12.0843	20.0358
11.9176	21.0803
11.7555	22.8266
11.5977	23.5888
11.444	17.5288
11.2944	19.3325
11.1487	21.1186
11.0067	22.83
10.8682	25.1337
10.7332	28.3202
10.6015	30.5204
10.473	31.5619
10.3476	31.5651
10.2251	30.9482
10.1056	29.714
9.9887	27.1039
9.8746	24.8823
9.763	27.2626
9.6539	31.3857
9.5472	35.1584
9.4429	39.1513
9.3408	45.0248
9.2409	47.3485
9.1431	55.2398
9.0474	56.0379
8.9536	55.7528
8.8618	54.3285
8.7718	49.1935
8.6837	40.4664
8.5973	37.3256
8.5126	38.7291
8.4295	37.5756
8.3481	32.0453
8.2682	29.2802
8.1898	29.4467
8.1129	28.8427
8.0374	27.0912
7.9634	23.8434
7.8906	19.1228
7.8192	13.3347
7.7491	6.9228
7.6802	5.3628
7.6126	6.2317
7.5461	7.0781
7.4807	7.7182
7.4165	8.2514
7.3534	8.6787
7.2914	9.0669
7.2303	9.4121
7.1703	9.6523
7.1113	9.9482
7.0533	10.0659
6.9962	10.3457
6.94	10.5771
6.8847	10.7077
6.8302	10.8244
6.7767	11.0874
6.7239	11.1181
6.672	11.373
6.6209	11.5612
6.5705	11.5822
6.5209	11.6162
6.4721	11.862
6.424	11.7446
6.3766	11.8254
6.3299	11.997
6.2838	12.0136
6.2385	12.0747
6.1937	12.06
6.1496	12.205
6.1062	12.3735
6.0633	12.3862
6.0211	12.228
5.9794	12.3706
5.9383	12.1662
5.8978	12.2226
5.8578	12.455
5.8184	12.4882
5.7794	12.4038
5.741	12.5141
5.7031	12.5962
5.6657	12.584
5.6288	12.5976
5.5924	12.593
5.5564	12.5742
5.5209	12.6357
5.4859	12.6098
5.4513	12.6926
5.4171	12.7824
5.3833	12.7299
5.35	12.7619
5.3171	12.7986
5.2846	12.8457
5.2524	12.8552
5.2207	12.8354
5.1893	12.8977
5.1584	12.894
5.1277	12.9089
5.0975	12.9052
5.0676	12.8872
5.038	12.8935
5.0088	12.885
4.98	12.8845
4.9514	12.8994
4.9232	12.8698
4.8953	12.8798
4.8678	12.8713
4.8405	12.8623
4.8135	12.8706
4.7868	12.8615
4.7605	12.8608
4.7344	12.8965
4.7086	12.8857
4.6831	12.8999
4.6578	12.9091
4.6328	12.936
4.6081	12.9546
4.5837	12.9741
4.5595	12.9853
4.5356	12.9863
4.5119	12.9792
4.4884	12.9956
4.4652	13.0075
4.4423	13.0171
4.4196	13.0327
4.3971	13.0429
4.3748	13.0486
4.3528	13.0507
4.331	13.0642
4.3094	13.165
4.288	13.289
4.2668	13.3462
4.2458	13.2451
4.2251	13.4814
4.2045	13.165
4.1841	13.0312
4.164	13.0185
4.144	13.0319
4.1242	13.0302
4.1046	13.042
4.0852	13.0549
4.066	13.0476
4.047	13.0503
4.0281	13.0605
4.0094	13.0605
3.9909	13.0717
3.9725	13.0879
3.9544	13.0923
3.9363	13.0913
3.9185	13.1037
3.9008	13.101
3.8833	13.1108
3.8659	13.0898
3.8487	13.0825
3.8316	13.0942
3.8147	13.0747
3.7979	13.0766
3.7813	13.0942
3.7648	13.0708
3.7485	13.0874
3.7323	13.0581
3.7162	13.0551
3.7003	13.0586
3.6845	13.0483
3.6689	13.039
3.6534	13.039
3.638	13.0317
3.6227	13.0322
3.6076	13.0273
3.5926	13.0371
3.5777	13.0234
3.563	13.0258
3.5484	13.0112
3.5338	13.018
3.5195	13.0246
3.5052	13.0212
3.491	13.0171
3.477	13.0127
3.463	13.0075
3.4492	13.0102
3.4355	12.998
3.4219	13.0119
3.4084	12.9914
3.395	12.9673
3.3817	12.9538
3.3685	12.9463
3.3554	12.9196
3.3425	12.9162
3.3296	12.8972
3.3168	12.8872
3.3041	12.8755
3.2915	12.8723
3.279	12.854
3.2666	12.8269
3.2543	12.8225
3.2421	12.7978
3.23	12.809
3.218	12.7839
3.206	12.7592
3.1942	12.758
3.1824	12.7524
3.1707	12.7422
3.1591	12.7319
3.1476	12.7353
3.1362	12.7251
3.1249	12.729
3.1136	12.718
3.1024	12.7072
3.0913	12.685
3.0803	12.6904
3.0694	12.6924
3.0585	12.6623
3.0477	12.6513
3.037	12.6382
3.0264	12.6299
3.0158	12.6123
3.0053	12.6028
2.9949	12.5918
2.9845	12.549
2.9743	12.5361
2.9641	12.5188
2.9539	12.5168
2.9439	12.4934
2.9339	12.4648
2.9239	12.4336
2.9141	12.415
2.9043	12.425
2.8946	12.396
2.8849	12.3808
2.8753	12.3381
2.8658	12.3393
2.8563	12.3127
2.8469	12.3017
2.8375	12.2949
2.8282	12.2265
2.819	12.2964
2.8098	12.1965
2.8007	12.3579
2.7917	12.1933
2.7827	12.1626
2.7738	12.1777
2.7649	12.2031
2.7561	11.9067
2.7473	12.103
2.7386	12.4316
2.7299	12.0634
2.7213	11.9961
2.7128	12.0136
2.7043	12.0786
2.6959	11.9419
2.6875	12.0278
2.6791	11.9946
2.6709	11.7793
2.6626	12.1176
2.6545	12.0454
2.6463	11.9087
2.6382	12.0024
2.6302	12.0117
2.6222	11.9424
2.6143	12.1054
2.6064	11.9531
2.5986	11.8794
2.5908	11.9594
2.583	12.0986
2.5753	12.0493
2.5677	12.0224
2.5601	12.0708
2.5525	11.833
2.545	11.8515
2.5375	11.7998
2.5301	11.8872
2.5227	11.8418
2.5154	11.8227
2.5081	11.8447
2.5008	11.7993
2.4936	11.8423
2.4864	11.7646
2.4793	11.7705
2.4722	11.7622
2.4651	11.7739
2.4581	11.7212
2.4511	11.7539
2.4442	11.7177
2.4373	11.7295
2.4305	11.7231
2.4236	11.6972
2.4169	11.6977
2.4101	11.6958
2.4034	11.6704
2.3967	11.6816
2.3901	11.6347
2.3835	11.6196
2.377	11.625
2.3704	11.604
2.364	11.6528
2.3575	11.6196
2.3511	11.6059
2.3447	11.6255
2.3384	11.6367
2.3321	11.5742
2.3258	11.6406
2.3195	11.6347
2.3133	11.582
2.3071	11.6113
2.301	11.5791
2.2949	11.5752
2.2888	11.5986
2.2828	11.5556
2.2767	11.6045
2.2708	11.5586
2.2648	11.5508
2.2589	11.5957
2.253	11.58
2.2471	11.5713
2.2413	11.5859
2.2355	11.5361
2.2297	11.5849
2.224	11.5879
2.2183	11.5097
2.2126	11.5527
2.207	11.5293
2.2013	11.4629
2.1957	11.5468
2.1902	11.5332
2.1846	11.5283
2.1791	11.5879
2.1736	11.5019
2.1682	11.5644
2.1628	11.5918
2.1574	11.455
2.152	11.4853
2.1466	11.5439
2.1413	11.5244
2.136	11.5703
2.1308	11.5664
2.1255	11.6025
2.1203	11.5097
2.1151	11.5244
2.11	11.5566
2.1048	11.4375
2.0997	11.5556
2.0946	11.4922
2.0895	11.5039
2.0845	11.5078
2.0795	11.58
