Name: Tremolite Ca_2(Mg,Fe^2+)_5Si_8O_22(OH)_2
Type: Mineral
Class: Silicate
Subclass: Inosilicate
Particle Size: Medium
Sample No.: IN-5A
Owner: JPL
Wavelength Range: TIR
Origin: N/A
Description: Particle size was 45-125um.Collected by JPL Original ASTER Spectral Library name was jpl.nicolet.mineral.silicate.inosilicate.medium.in05a.spectrum.txt
Measurement: Hemispherical reflectance
X Units: Wavelength (micrometers)
Y Units: Reflectance (percent)
wavelength	value
15.3853	2.0956
15.1161	2.7877
14.8563	3.5019
14.6052	5.7884
14.3624	4.0065
14.1276	2.2968
13.9004	2.9387
13.6803	3.2039
13.4671	4.0569
13.2604	7.4019
13.06	8.7094
12.8656	2.8319
12.6769	3.4215
12.4936	4.3684
12.3155	5.037
12.1425	5.718
11.9742	6.1733
11.8106	6.4744
11.6513	6.3764
11.4963	6.739
11.3454	7.3314
11.1983	7.8835
11.0551	9.4305
10.9154	12.8786
10.7793	10.8836
10.6465	11.3158
10.5169	20.0352
10.3904	24.0792
10.267	26.6583
10.1464	32.1355
10.0287	34.5189
9.9136	30.9208
9.8012	22.4875
9.6913	16.3608
9.5838	18.2345
9.4787	19.6763
9.3758	20.4979
9.2752	21.6005
9.1767	20.1293
9.0803	16.8597
8.9858	11.5565
8.8934	11.2218
8.8028	15.2577
8.714	16.7122
8.627	13.0529
8.5417	5.379
8.4581	2.4401
8.3761	1.4674
8.2957	1.0399
8.2169	1.0002
8.1395	1.0671
8.0635	1.241
7.989	1.5246
7.9158	1.7195
7.8439	2.206
7.7734	2.443
7.7041	2.7349
7.636	3.2883
7.5691	3.6071
7.5034	3.691
7.4388	3.7386
7.3753	4.0968
7.3129	4.5323
7.2515	5.1695
7.1912	5.8589
7.1318	6.754
7.0734	8.0074
7.016	8.6308
6.9595	9.5736
6.9039	10.1667
6.8492	10.4597
6.7953	10.9788
6.7423	11.2526
6.6901	11.9258
6.6387	13.1288
6.5881	14.3339
6.5382	15.1101
6.4892	14.6532
6.4408	13.1998
6.3931	11.6815
6.3462	10.4711
6.2999	8.6036
6.2543	7.4781
6.2094	6.8697
6.1651	7.0229
6.1214	7.4501
6.0784	8.1057
6.0359	9.3694
5.994	9.9981
5.9527	8.7558
5.912	8.1552
5.8718	8.9962
5.8322	9.9788
5.7931	10.6891
5.7545	11.401
5.7165	12.3403
5.6789	12.0708
5.6418	12.3341
5.6052	12.3693
5.5691	12.3851
5.5334	13.5966
5.4982	14.0529
5.4635	13.5758
5.4291	14.4527
5.3952	15.7432
5.3618	15.5821
5.3287	14.7318
5.2961	16.0848
5.2638	16.8752
5.2319	18.0508
5.2004	20.1426
5.1693	18.4916
5.1386	16.0662
5.1082	16.0394
5.0782	16.6674
5.0485	17.3173
5.0192	18.5443
4.9902	20.0548
4.9616	21.249
4.9332	22.7833
4.9052	24.3965
4.8776	24.9877
4.8502	25.5964
4.8231	25.7373
4.7963	25.7876
4.7699	28.4052
4.7437	31.6678
4.7178	33.7808
4.6922	34.5472
4.6668	36.9687
4.6418	39.911
4.617	43.4779
4.5924	46.1397
4.5681	48.4972
4.5441	52.0624
4.5203	54.6787
4.4968	57.4878
4.4735	59.976
4.4505	61.7875
4.4277	63.1164
4.4051	63.9166
4.3828	64.5817
4.3607	64.9843
4.3388	65.1617
4.3171	65.4029
4.2956	65.7417
4.2744	66.0726
4.2534	66.1878
4.2325	66.6848
4.2119	66.6558
4.1915	66.5729
4.1712	66.6198
4.1512	66.5969
4.1313	66.4792
4.1117	66.187
4.0922	66.0476
4.0729	65.4152
4.0538	64.0978
4.0349	60.5734
4.0161	57.3013
3.9976	53.346
3.9792	51.8216
3.9609	52.6438
3.9428	55.6908
3.9249	57.3944
3.9072	58.2394
3.8896	58.72
3.8722	59.0335
3.8549	59.5888
3.8378	60.4057
3.8208	63.0442
3.804	66.1896
3.7873	70.11
3.7708	71.3602
3.7544	71.9362
3.7382	72.488
3.7221	72.8562
3.7061	72.9998
3.6903	70.2741
3.6746	72.6877
3.659	72.5117
3.6436	72.3793
3.6283	72.472
3.6131	72.3278
3.5981	71.9488
3.5832	70.791
3.5684	69.5836
3.5537	69.171
3.5391	66.9796
3.5247	62.4211
3.5104	58.3465
3.4962	56.6603
3.4821	55.2565
3.4681	56.6461
3.4543	58.5567
3.4405	58.4978
3.4269	58.0719
3.4133	56.9235
3.3999	55.7705
3.3866	54.6483
3.3733	52.9036
3.3602	51.8911
3.3472	48.8968
3.3343	54.7196
3.3215	57.0392
3.3088	56.5525
3.2961	59.0261
3.2836	63.6014
3.2712	65.8771
3.2588	66.311
3.2466	65.8776
3.2345	65.3232
3.2224	64.8657
3.2104	64.5539
3.1985	63.2649
3.1867	60.7263
3.175	58.4311
3.1634	58.767
3.1519	60.1431
3.1404	61.7491
3.129	61.3444
3.1178	60.5974
3.1065	60.3887
3.0954	60.2807
3.0844	59.889
3.0734	59.4354
3.0625	59.4258
3.0517	58.4978
3.041	58.0141
3.0303	57.8218
3.0197	57.6378
3.0092	56.847
2.9987	56.5907
2.9884	56.2198
2.9781	55.8387
2.9678	55.5778
2.9577	55.9209
2.9476	55.9993
2.9376	55.7163
2.9276	55.5347
2.9177	55.3444
2.9079	54.7936
2.8982	54.7079
2.8885	54.8733
2.8789	55.0527
2.8693	54.8895
2.8598	55.0095
2.8504	55.0817
2.841	55.843
2.8317	55.7161
2.8224	55.6509
2.8133	55.1347
2.8041	55.084
2.7951	53.9984
2.786	53.542
2.7771	52.5598
2.7682	49.164
2.7594	51.3638
2.7506	53.2883
2.7418	48.0418
2.7332	30.0181
2.7246	11.7767
2.716	29.6818
2.7075	51.0285
2.699	46.5135
2.6906	43.996
2.6823	61.647
2.674	64.4511
2.6657	75.2195
2.6575	73.6106
2.6494	74.1544
2.6413	72.2104
2.6332	71.4213
2.6252	70.954
2.6173	71.2745
2.6094	69.867
2.6015	68.7707
2.5937	69.9001
2.5859	68.1168
2.5782	67.847
2.5706	65.0811
2.5629	64.5176
2.5554	64.051
2.5478	66.3881
2.5403	66.6076
2.5329	66.2753
2.5255	67.1652
2.5181	64.4559
2.5108	64.1381
2.5035	64.2332
2.4963	62.8492
2.4891	62.8055
2.482	61.4188
2.4749	61.3585
2.4678	60.8968
2.4608	59.5866
2.4538	62.1873
2.4468	62.516
2.4399	61.3337
2.4331	67.0431
2.4262	67.0946
2.4194	63.1684
2.4127	63.951
2.4059	66.2737
2.3993	62.1606
2.3926	51.6669
2.386	45.654
2.3795	49.9314
2.3729	57.9554
2.3664	63.0645
2.36	67.5563
2.3535	67.5076
2.3471	70.235
2.3408	72.0268
2.3345	70.1332
2.3282	63.2671
2.3219	44.4046
2.3157	40.0605
2.3095	43.1351
2.3034	45.7905
2.2972	41.5834
2.2911	49.4647
2.2851	54.9624
2.279	58.2596
2.2731	62.5442
2.2671	67.0504
2.2612	72.4204
2.2553	75.1328
2.2494	76.3718
2.2435	76.6129
2.2377	77.4392
2.232	78.1441
2.2262	78.3361
2.2205	78.2775
2.2148	78.2386
2.2091	78.2976
2.2035	78.2801
2.1979	78.2336
2.1923	78.2852
2.1868	78.0236
2.1812	77.6265
2.1758	77.4055
2.1703	78.0576
2.1649	77.8989
2.1595	77.1405
2.1541	77.0683
2.1487	76.249
2.1434	76.0589
2.1381	76.8739
2.1328	74.3063
2.1275	74.5267
2.1223	74.4785
2.1171	74.6215
2.112	72.668
2.1068	74.572
2.1017	78.0454
2.0966	78.3065
2.0915	78.0285
2.0865	77.8991
2.0814	78.1608
2.0764	78.5027
2.0715	78.6393
2.0665	79.0191
2.0616	79.0446
2.0567	78.9047
2.0518	79.0505
2.0469	79.6044
2.0421	80.1422
2.0373	80.3629
2.0325	80.7551
2.0277	80.9697
2.0229	80.7435
2.0182	80.1458
2.0135	79.8768
2.0088	80.117
2.0042	80.1385
