Name: Pyrolusite MnO_2
Type: Mineral
Class: Oxide
Subclass: None
Particle Size: Coarse
Sample No.: O-6A
Owner: JPL
Wavelength Range: VSWIR
Origin: Mexico, Chihuahua
Description: Particle size was 125-500um.Collected by Grieger's Inc. Original ASTER Spectral Library name was jpl.beckman.mineral.oxide.none.coarse.o06a.spectrum.txt
Measurement: Hemispherical reflectance
X Units: Wavelength (micrometers)
Y Units: Reflectance (percent)
wavelength	value
0.4	9.53
0.403	9.48
0.406	9.41
0.409	9.53
0.412	9.59
0.415	9.46
0.418	9.5
0.421	9.4
0.424	9.53
0.427	9.61
0.43	9.57
0.433	9.63
0.436	9.57
0.439	9.64
0.442	9.64
0.445	9.6
0.448	9.59
0.451	9.47
0.454	9.64
0.457	9.57
0.46	9.56
0.463	9.52
0.466	9.58
0.469	9.54
0.472	9.6
0.475	9.52
0.478	9.46
0.481	9.61
0.484	9.54
0.487	9.52
0.49	9.4
0.493	9.44
0.496	9.5
0.499	9.54
0.502	9.39
0.505	9.45
0.508	9.37
0.511	9.48
0.514	9.45
0.517	9.43
0.52	9.4
0.523	9.38
0.526	9.51
0.529	9.4
0.532	9.32
0.535	9.29
0.538	9.17
0.541	9.33
0.544	9.21
0.547	9.15
0.55	9.15
0.553	9.02
0.556	9.13
0.559	9.12
0.562	9.15
0.565	9.11
0.568	9.08
0.571	9.1
0.574	9.1
0.577	9
0.58	9.07
0.583	9.04
0.586	8.99
0.589	8.98
0.592	8.85
0.595	8.94
0.598	8.82
0.601	8.85
0.604	8.81
0.607	8.76
0.61	8.77
0.613	8.77
0.616	8.72
0.619	8.67
0.622	8.65
0.625	8.69
0.628	8.73
0.631	8.71
0.634	8.66
0.637	8.65
0.64	8.73
0.643	8.83
0.646	8.64
0.649	8.65
0.652	8.66
0.655	8.73
0.658	8.78
0.661	8.71
0.664	8.64
0.667	8.72
0.67	8.63
0.673	8.76
0.676	8.58
0.679	8.61
0.682	8.69
0.685	8.68
0.688	8.64
0.691	8.65
0.694	8.51
0.697	8.67
0.7	8.66
0.703	8.58
0.706	8.69
0.709	8.65
0.712	8.54
0.715	8.58
0.718	8.64
0.721	8.61
0.724	8.73
0.727	8.58
0.73	8.53
0.733	8.69
0.736	8.54
0.739	8.57
0.742	8.47
0.745	8.46
0.748	8.62
0.751	8.6
0.754	8.56
0.757	8.63
0.76	8.53
0.763	8.62
0.766	8.55
0.769	8.56
0.772	8.56
0.775	8.55
0.778	8.74
0.781	8.6
0.784	8.64
0.787	8.66
0.79	8.58
0.793	8.71
0.796	8.68
0.799	8.63
0.808	9.02
0.82	8.99
0.832	8.96
0.844	8.97
0.856	8.92
0.868	8.87
0.88	8.74
0.892	8.73
0.904	8.73
0.916	8.76
0.928	8.7
0.94	8.68
0.952	8.64
0.964	8.56
0.976	8.5
0.988	8.55
1	8.52
1.012	8.6
1.024	8.58
1.036	8.47
1.048	8.44
1.06	8.52
1.072	8.64
1.084	8.65
1.096	8.66
1.108	8.55
1.12	8.63
1.132	8.67
1.144	8.81
1.156	8.84
1.168	8.92
1.18	8.95
1.192	9.08
1.204	9.12
1.216	9.2
1.228	9.35
1.24	9.43
1.252	9.55
1.264	9.66
1.276	9.78
1.288	9.88
1.3	10.08
1.312	10.14
1.324	10.29
1.336	10.54
1.348	10.65
1.36	10.77
1.372	10.91
1.384	10.94
1.396	11.04
1.408	11.16
1.42	11.2
1.432	11.23
1.444	11.25
1.456	11.22
1.468	11.3
1.48	11.28
1.492	11.28
1.504	11.36
1.516	11.43
1.528	11.41
1.54	11.42
1.552	11.42
1.564	11.45
1.576	11.45
1.588	11.43
1.6	11.43
1.612	11.41
1.624	11.46
1.636	11.41
1.648	11.49
1.66	11.49
1.672	11.47
1.684	11.45
1.696	11.4
1.708	11.51
1.72	11.57
1.732	11.49
1.744	11.5
1.756	11.44
1.768	11.41
1.78	11.47
1.792	11.54
1.804	11.6
1.816	11.55
1.828	11.56
1.84	11.51
1.852	11.47
1.864	11.49
1.876	11.47
1.888	11.5
1.9	11.49
1.912	11.49
1.924	11.5
1.936	11.51
1.948	11.5
1.96	11.56
1.972	11.55
1.984	11.53
1.996	11.51
2.008	11.52
2.02	11.49
2.032	11.53
2.044	11.56
2.056	11.52
2.068	11.54
2.08	11.64
2.092	11.58
2.104	11.59
2.116	11.58
2.128	11.56
2.14	11.59
2.152	11.57
2.164	11.48
2.176	11.52
2.188	11.5
2.2	11.54
2.212	11.46
2.224	11.58
2.236	11.55
2.248	11.58
2.26	11.55
2.272	11.58
2.284	11.55
2.296	11.56
2.308	11.51
2.32	11.45
2.332	11.38
2.344	11.44
2.356	11.46
2.368	11.48
2.38	11.44
2.392	11.48
2.404	11.44
2.416	11.41
2.428	11.46
2.44	11.52
2.452	11.5
2.464	11.52
2.476	11.56
2.488	11.66
2.5	11.71
