Name: Tschermigite (NH_4)Al(SO_4)_2.12H_2O
Type: Mineral
Class: Sulfate
Subclass: None
Particle Size: Coarse
Sample No.: SO-6A
Owner: JPL
Wavelength Range: TIR
Origin: USA, Nevada, Esmeralda County, Silver Peak
Description: Particle size was 125-500um.Collected by Burminco Original ASTER Spectral Library name was jpl.nicolet.mineral.sulfate.none.coarse.so06a.spectrum.txt
Measurement: Hemispherical reflectance
X Units: Wavelength (micrometers)
Y Units: Reflectance (percent)
wavelength	value
15.3853	3.792
15.1161	3.6684
14.8563	3.3006
14.6052	3.5007
14.3624	3.4574
14.1276	3.0012
13.9004	2.3739
13.6803	2.0676
13.4671	1.8192
13.2604	1.6957
13.06	1.4509
12.8656	1.6159
12.6769	1.5559
12.4936	1.8081
12.3155	1.9838
12.1425	1.9428
11.9742	2.2997
11.8106	2.4871
11.6513	2.7215
11.4963	2.8089
11.3454	2.8406
11.1983	2.9379
11.0551	2.9854
10.9154	3.1208
10.7793	2.6806
10.6465	2.6187
10.5169	2.479
10.3904	2.6638
10.267	2.8712
10.1464	2.9305
10.0287	3.0513
9.9136	3.6564
9.8012	4.0885
9.6913	4.6588
9.5838	5.9071
9.4787	7.4677
9.3758	8.3627
9.2752	9.726
9.1767	14.7477
9.0803	19.2792
8.9858	19.4912
8.8934	14.6896
8.8028	7.1547
8.714	1.438
8.627	0.2307
8.5417	0.2859
8.4581	0.629
8.3761	0.3151
8.2957	0.2567
8.2169	0.5194
8.1395	0.4235
8.0635	0.7091
7.989	0.7945
7.9158	0.6995
7.8439	1.0082
7.7734	0.9731
7.7041	0.9918
7.636	1.0755
7.5691	1.0578
7.5034	1.2452
7.4388	1.2056
7.3753	1.2235
7.3129	1.2798
7.2515	1.3549
7.1912	1.3636
7.1318	1.3614
7.0734	1.4556
7.016	1.473
6.9595	1.5777
6.9039	1.4843
6.8492	1.5198
6.7953	1.5469
6.7423	1.4896
6.6901	1.5607
6.6387	1.5474
6.5881	1.7451
6.5382	1.7335
6.4892	1.7662
6.4408	1.8658
6.3931	1.8033
6.3462	1.7894
6.2999	1.7895
6.2543	1.8026
6.2094	1.8262
6.1651	1.7221
6.1214	1.7155
6.0784	1.667
6.0359	1.5316
5.994	1.4286
5.9527	1.4477
5.912	1.3921
5.8718	1.3202
5.8322	1.3115
5.7931	1.2511
5.7545	1.4369
5.7165	1.4004
5.6789	1.3292
5.6418	1.434
5.6052	1.325
5.5691	1.4432
5.5334	1.3889
5.4982	1.4684
5.4635	1.4804
5.4291	1.4988
5.3952	1.4977
5.3618	1.5394
5.3287	1.4774
5.2961	1.5449
5.2638	1.6943
5.2319	1.6998
5.2004	1.7028
5.1693	1.7869
5.1386	1.6677
5.1082	1.7207
5.0782	1.6887
5.0485	1.693
5.0192	1.6362
4.9902	1.7117
4.9616	1.7489
4.9332	1.7856
4.9052	1.8882
4.8776	1.857
4.8502	1.8254
4.8231	1.8459
4.7963	1.8248
4.7699	1.8784
4.7437	1.8103
4.7178	1.8925
4.6922	1.9746
4.6668	2.0095
4.6418	1.9303
4.617	1.9286
4.5924	1.9268
4.5681	2.0061
4.5441	1.9847
4.5203	1.9953
4.4968	2.1134
4.4735	2.0321
4.4505	1.9923
4.4277	1.9306
4.4051	2.1125
4.3828	2.1113
4.3607	2.1908
4.3388	2.1443
4.3171	2.1854
4.2956	2.1828
4.2744	2.1331
4.2534	2.3006
4.2325	2.3028
4.2119	2.3417
4.1915	2.3019
4.1712	2.3493
4.1512	2.3547
4.1313	2.2556
4.1117	2.3424
4.0922	2.2597
4.0729	2.227
4.0538	2.2976
4.0349	2.2341
4.0161	2.2164
3.9976	2.0963
3.9792	2.0925
3.9609	2.194
3.9428	2.2364
3.9249	2.1482
3.9072	2.1505
3.8896	2.2224
3.8722	2.2625
3.8549	2.2213
3.8378	2.2852
3.8208	2.25
3.804	2.2917
3.7873	2.3099
3.7708	2.4061
3.7544	2.42
3.7382	2.3226
3.7221	2.4119
3.7061	2.4514
3.6903	2.5377
3.6746	2.534
3.659	2.5071
3.6436	2.4673
3.6283	2.654
3.6131	2.7362
3.5981	2.611
3.5832	2.6181
3.5684	2.6474
3.5537	2.698
3.5391	2.5659
3.5247	2.6728
3.5104	2.6544
3.4962	2.6563
3.4821	2.6413
3.4681	2.5484
3.4543	2.6097
3.4405	2.4589
3.4269	2.5559
3.4133	2.4699
3.3999	2.2876
3.3866	2.188
3.3733	2.2022
3.3602	2.016
3.3472	2.0592
3.3343	1.9088
3.3215	1.8683
3.3088	1.6146
3.2961	1.7745
3.2836	1.5531
3.2712	1.5815
3.2588	1.6063
3.2466	1.4075
3.2345	1.5561
3.2224	1.2973
3.2104	1.3406
3.1985	1.3036
3.1867	1.4473
3.175	1.3982
3.1634	1.2363
3.1519	1.5512
3.1404	1.5462
3.129	1.4846
3.1178	1.4114
3.1065	1.7434
3.0954	1.4939
3.0844	1.5394
3.0734	1.668
3.0625	1.8191
3.0517	1.8157
3.041	1.8712
3.0303	1.9494
3.0197	2.0884
3.0092	2.1167
2.9987	2.0535
2.9884	1.8553
2.9781	2.1566
2.9678	1.5736
2.9577	1.6947
2.9476	1.2136
2.9376	1.1349
2.9276	0.9545
2.9177	0.9049
2.9079	0.5702
2.8982	0.6343
2.8885	0.7241
2.8789	0.22
2.8693	0.6638
2.8598	0.5318
2.8504	0.504
2.841	0.5248
2.8317	0.4826
2.8224	0.7484
2.8133	0.4708
2.8041	0.6059
2.7951	0.625
2.786	0.339
2.7771	0.6998
2.7682	0.6163
2.7594	0.9852
2.7506	0.8699
2.7418	0.9319
2.7332	1.1045
2.7246	1.1335
2.716	1.1961
2.7075	1.2529
2.699	1.3519
2.6906	1.4159
2.6823	1.4226
2.674	1.3595
2.6657	1.5054
2.6575	1.5653
2.6494	1.6485
2.6413	1.701
2.6332	1.7426
2.6252	1.7755
2.6173	1.7433
2.6094	1.8117
2.6015	1.9479
2.5937	2.0177
2.5859	1.9565
2.5782	1.9466
2.5706	1.975
2.5629	2.1475
2.5554	2.0061
2.5478	1.908
2.5403	2.1343
2.5329	1.951
2.5255	2.0862
2.5181	2.1863
2.5108	2.1367
2.5035	2.1231
2.4963	2.0554
2.4891	2.3479
2.482	2.2297
2.4749	2.4791
2.4678	2.4062
2.4608	2.5679
2.4538	2.4775
2.4468	2.6754
2.4399	2.8284
2.4331	2.7477
2.4262	2.7986
2.4194	3.0308
2.4127	2.9322
2.4059	3.2178
2.3993	3.3593
2.3926	3.4068
2.386	3.6714
2.3795	3.5313
2.3729	3.575
2.3664	3.7723
2.36	3.5807
2.3535	3.7724
2.3471	3.5387
2.3408	3.8845
2.3345	3.7283
2.3282	3.6913
2.3219	3.9332
2.3157	3.6687
2.3095	3.6602
2.3034	3.9236
2.2972	3.7628
2.2911	3.8099
2.2851	3.6098
2.279	3.9355
2.2731	3.9244
2.2671	3.5608
2.2612	3.8245
2.2553	3.9026
2.2494	3.7658
2.2435	3.6628
2.2377	3.9312
2.232	3.8861
2.2262	3.7277
2.2205	3.8359
2.2148	3.7205
2.2091	3.8007
2.2035	3.8814
2.1979	3.7034
2.1923	3.7126
2.1868	3.7453
2.1812	3.9627
2.1758	3.689
2.1703	3.702
2.1649	3.6414
2.1595	3.7393
2.1541	3.5574
2.1487	3.589
2.1434	3.5165
2.1381	3.7215
2.1328	3.9438
2.1275	4.1649
2.1223	3.9218
2.1171	3.9942
2.112	4.1365
2.1068	3.9884
2.1017	3.8843
2.0966	3.8393
2.0915	4.1009
2.0865	3.8444
2.0814	4.0797
2.0764	4.1968
2.0715	3.9607
2.0665	4.2474
2.0616	4.2104
2.0567	3.8892
2.0518	4.0453
2.0469	3.8729
2.0421	3.7739
2.0373	3.9206
2.0325	3.7108
2.0277	3.4371
2.0229	3.6243
2.0182	3.293
2.0135	3.5147
2.0088	3.5968
2.0042	2.9804
