Name: Gypsum (selenite) CaSO4.2H2O
Type: Mineral
Class: Sulfate
Subclass: None
Particle Size: Coarse
Sample No.: gypsum_2
Owner: JHU
Wavelength Range: TIR
Origin: Washington Co., Vermont, from Hunt and Salisbury Collection#333B.
Description: The sample appears to be pure semi-transparent gypsum. Particle size was 74-250 Micrometers. Original ASTER Spectral Library name was jhu.nicolet.mineral.sulfate.none.coarse.gypsum2.spectrum.txt
Measurement: Bidirectional reflectance
X Units: Wavelength (micrometers)
Y Units: Reflectance (percent)
wavelength	value
25.0442	1.113
24.3388	1.1011
23.6719	1.1616
23.0407	1.1721
22.4422	1.2109
21.8741	1.364
21.334	1.3933
20.8199	1.4226
20.33	1.4453
19.8627	1.3838
19.4163	1.2678
18.9896	1.1777
18.5812	1.0671
18.19	1.0032
17.815	0.9558
17.4551	0.9817
17.1094	1.0105
16.7772	1.2222
16.4576	1.4336
16.15	0.8328
15.8537	0.6208
15.568	0.6956
15.2925	0.8425
15.0265	1.3101
14.7697	1.8782
14.5214	1.4351
14.2814	0.8286
14.0492	0.7107
13.8244	0.7537
13.6067	0.7981
13.3957	0.8469
13.1912	0.8762
12.9929	0.9094
12.8004	0.917
12.6135	0.9692
12.432	0.9668
12.2557	1.0085
12.0843	1.0107
11.9176	1.0334
11.7555	1.0525
11.5977	1.0664
11.444	1.052
11.2944	1.0891
11.1487	1.0696
11.0067	1.0854
10.8682	1.0952
10.7332	1.1172
10.6015	1.1274
10.473	1.1216
10.3476	1.1157
10.2251	1.1199
10.1056	1.1301
9.9887	1.1484
9.8746	1.1645
9.763	1.1941
9.6539	1.2185
9.5472	1.2498
9.4429	1.2861
9.3408	1.3391
9.2409	1.3936
9.1431	1.5293
9.0474	1.8757
8.9536	2.4145
8.8618	2.7305
8.7718	3.1199
8.6837	3.3555
8.5973	3.5222
8.5126	3.6811
8.4295	3.9814
8.3481	4.2695
8.2682	3.3625
8.1898	1.9746
8.1129	1.0493
8.0374	0.5657
7.9634	0.3486
7.8906	0.3035
7.8192	0.355
7.7491	0.4336
7.6802	0.5344
7.6126	0.6418
7.5461	0.7224
7.4807	0.8413
7.4165	0.9758
7.3534	1.1262
7.2914	1.2563
7.2303	1.3899
7.1703	1.5041
7.1113	1.6096
7.0533	1.7202
6.9962	1.8249
6.94	1.9006
6.8847	1.9424
6.8302	1.9919
6.7767	2.0327
6.7239	2.0544
6.672	2.0295
6.6209	1.9761
6.5705	1.8435
6.5209	1.7822
6.4721	1.7571
6.424	1.7314
6.3766	1.6821
6.3299	1.5869
6.2838	1.4705
6.2385	1.2939
6.1937	1.0779
6.1496	1.0444
6.1062	0.8899
6.0633	1.0759
6.0211	1.1831
5.9794	1.1016
5.9383	0.8713
5.8978	1.1289
5.8578	1.5613
5.8184	1.8423
5.7794	2.074
5.741	2.2937
5.7031	2.5268
5.6657	2.7219
5.6288	2.8931
5.5924	3.061
5.5564	3.2095
5.5209	3.4451
5.4859	3.6829
5.4513	3.8494
5.4171	3.9502
5.3833	4.0139
5.35	4.0625
5.3171	4.1318
5.2846	4.1807
5.2524	4.2522
5.2207	4.2756
5.1893	4.2351
5.1584	4.1457
5.1277	4.0835
5.0975	4.0398
5.0676	3.9875
5.038	3.9685
5.0088	3.9495
4.98	3.8032
4.9514	3.8564
4.9232	3.7871
4.8953	3.6362
4.8678	3.4634
4.8405	3.2817
4.8135	3.0334
4.7868	2.6379
4.7605	2.0344
4.7344	1.6008
4.7086	1.6257
4.6831	1.6543
4.6578	1.7432
4.6328	1.7593
4.6081	1.688
4.5837	1.5564
4.5595	1.4131
4.5356	1.3433
4.5119	1.3406
4.4884	1.3418
4.4652	1.3386
4.4423	1.3894
4.4196	1.4814
4.3971	1.6023
4.3748	1.7144
4.3528	1.8364
4.331	1.9993
4.3094	2.2434
4.288	2.5583
4.2668	2.8708
4.2458	3.1682
4.2251	3.4585
4.2045	3.73
4.1841	3.9795
4.164	4.2197
4.144	4.4387
4.1242	4.6667
4.1046	4.8899
4.0852	5.1186
4.066	5.3354
4.047	5.5622
4.0281	5.7517
4.0094	5.9172
3.9909	5.9875
3.9725	5.9209
3.9544	6.2463
3.9363	6.467
3.9185	6.6062
3.9008	6.6863
3.8833	6.6467
3.8659	6.5661
3.8487	6.8103
3.8316	6.8618
3.8147	6.8686
3.7979	6.8547
3.7813	6.8362
3.7648	6.8288
3.7485	6.8105
3.7323	6.7644
3.7162	6.729
3.7003	6.7065
3.6845	6.6355
3.6689	6.5449
3.6534	6.4372
3.638	6.3237
3.6227	6.2029
3.6076	6.0588
3.5926	5.9026
3.5777	5.7605
3.563	5.6545
3.5484	5.5461
3.5338	5.4609
3.5195	5.3701
3.5052	5.2703
3.491	5.1562
3.477	5.0332
3.463	4.9087
3.4492	4.769
3.4355	4.615
3.4219	4.4787
3.4084	4.3415
3.395	4.1814
3.3817	4.0076
3.3685	3.8279
3.3554	3.6572
3.3425	3.5066
3.3296	3.3494
3.3168	3.1775
3.3041	2.998
3.2915	2.8164
3.279	2.6599
3.2666	2.5273
3.2543	2.4009
3.2421	2.2869
3.23	2.186
3.218	2.0786
3.206	1.9834
3.1942	1.8811
3.1824	1.7876
3.1707	1.675
3.1591	1.5576
3.1476	1.4609
3.1362	1.3574
3.1249	1.2871
3.1136	1.2288
3.1024	1.1536
3.0913	1.0627
3.0803	0.9719
3.0694	0.9873
3.0585	0.9666
3.0477	0.9531
3.037	0.9265
3.0264	0.8816
3.0158	0.8623
3.0053	0.8313
2.9949	0.8166
2.9845	0.7959
2.9743	0.7971
2.9641	0.7803
2.9539	0.7839
2.9439	0.8066
2.9339	0.8486
2.9239	0.8223
2.9141	0.7192
2.9043	0.616
2.8946	0.5525
2.8849	0.5205
2.8753	0.5032
2.8658	0.4531
2.8563	0.4597
2.8469	0.4751
2.8375	0.4897
2.8282	0.5154
2.819	0.5332
2.8098	0.5437
2.8007	0.5542
2.7917	0.593
2.7827	0.5942
2.7738	0.6272
2.7649	0.6987
2.7561	0.8171
2.7473	0.9722
2.7386	1.1309
2.7299	1.3083
2.7213	1.4895
2.7128	1.7075
2.7043	1.96
2.6959	2.1814
2.6875	2.384
2.6791	2.553
2.6709	2.7251
2.6626	2.9448
2.6545	3.1223
2.6463	3.2808
2.6382	3.3999
2.6302	3.4658
2.6222	3.5332
2.6143	3.584
2.6064	3.6057
2.5986	3.6772
2.5908	3.6797
2.583	3.7126
2.5753	3.7207
2.5677	3.7383
2.5601	3.7727
2.5525	3.8425
2.545	3.9009
2.5375	3.9141
2.5301	3.9155
2.5227	3.8943
2.5154	3.8359
2.5081	3.7908
2.5008	3.7309
2.4936	3.6814
2.4864	3.6755
2.4793	3.6721
2.4722	3.7471
2.4651	3.8318
2.4581	3.926
2.4511	3.9858
2.4442	4.0037
2.4373	4.0466
2.4305	4.1265
2.4236	4.2556
2.4169	4.3606
2.4101	4.6108
2.4034	4.8979
2.3967	5.2888
2.3901	5.6548
2.3835	6.0215
2.377	6.3511
2.3704	6.643
2.364	6.8747
2.3575	7.0832
2.3511	7.2659
2.3447	7.4001
2.3384	7.5151
2.3321	7.6033
2.3258	7.6523
2.3195	7.7302
2.3133	7.7153
2.3071	7.7212
2.301	7.7239
2.2949	7.6745
2.2888	7.6408
2.2828	7.5346
2.2767	7.3652
2.2708	7.2431
2.2648	7.2226
2.2589	7.3174
2.253	7.3984
2.2471	7.4492
2.2413	7.3977
2.2355	7.3293
2.2297	7.219
2.224	6.9934
2.2183	6.8508
2.2126	6.9021
2.207	7.0315
2.2013	7.1494
2.1957	7.2673
2.1902	7.2991
2.1846	7.3376
2.1791	7.3847
2.1736	7.4175
2.1682	7.4668
2.1628	7.5574
2.1574	7.6616
2.152	7.7278
2.1466	7.811
2.1413	7.8913
2.136	7.9753
2.1308	8.0376
2.1255	8.1015
2.1203	8.1972
2.1151	8.2793
2.11	8.3994
2.1048	8.4885
2.0997	8.5464
2.0946	8.645
2.0895	8.7334
2.0845	8.7829
2.0795	8.8008
