Name: Serpentine (Mg,Fe^2+,Ni)Si_2O_5(OH)_4
Type: Mineral
Class: Silicate
Subclass: Phyllosilicate
Particle Size: Medium
Sample No.: PS-20A
Owner: JPL
Wavelength Range: TIR
Origin: USA, New York
Description: Particle size was 45-125umCollected by Ward's Original ASTER Spectral Library name was jpl.nicolet.mineral.silicate.phyllosilicate.medium.ps20a.spectrum.txt
Measurement: Hemispherical reflectance
X Units: Wavelength (micrometers)
Y Units: Reflectance (percent)
wavelength	value
15.3853	7.9909
15.1161	7.1359
14.8563	4.2876
14.6052	1.5122
14.3624	0.6072
14.1276	0.7648
13.9004	0.2704
13.6803	0.4451
13.4671	0.7974
13.2604	0.7872
13.06	1.3681
12.8656	1.4794
12.6769	1.827
12.4936	2.2031
12.3155	2.3675
12.1425	2.8125
11.9742	3.1381
11.8106	3.1448
11.6513	3.5511
11.4963	3.638
11.3454	4.0118
11.1983	4.1745
11.0551	4.501
10.9154	5.2059
10.7793	6.598
10.6465	8.3911
10.5169	9.835
10.3904	10.7218
10.267	11.0312
10.1464	11.3215
10.0287	11.1966
9.9136	10.917
9.8012	11.0909
9.6913	10.5726
9.5838	10.0776
9.4787	7.5821
9.3758	4.6288
9.2752	4.5381
9.1767	4.7485
9.0803	4.0596
8.9858	2.4311
8.8934	1.0732
8.8028	0.5752
8.714	0.5261
8.627	0.178
8.5417	0.3365
8.4581	0.4457
8.3761	0.5378
8.2957	0.6182
8.2169	0.8103
8.1395	0.7395
8.0635	0.9203
7.989	1.2355
7.9158	1.4025
7.8439	1.6796
7.7734	1.8947
7.7041	1.9483
7.636	2.1086
7.5691	2.4132
7.5034	2.5905
7.4388	2.6721
7.3753	2.9314
7.3129	3.2153
7.2515	3.2857
7.1912	3.5632
7.1318	3.679
7.0734	3.8358
7.016	4.1527
6.9595	4.2577
6.9039	4.1995
6.8492	4.2794
6.7953	4.1254
6.7423	4.3804
6.6901	4.8034
6.6387	5.0953
6.5881	4.938
6.5382	4.5554
6.4892	4.2038
6.4408	4.0353
6.3931	4.1126
6.3462	4.3413
6.2999	4.4025
6.2543	4.1383
6.2094	4.0305
6.1651	3.8106
6.1214	3.8269
6.0784	4.1877
6.0359	4.3755
5.994	4.6754
5.9527	5.0997
5.912	5.8837
5.8718	6.6018
5.8322	7.3982
5.7931	7.8008
5.7545	8.1816
5.7165	8.5956
5.6789	9.2654
5.6418	9.9562
5.6052	10.2103
5.5691	10.0421
5.5334	11.0198
5.4982	11.8444
5.4635	12.4443
5.4291	12.6695
5.3952	12.7207
5.3618	13.5282
5.3287	15.2794
5.2961	16.9997
5.2638	18.5752
5.2319	19.8691
5.2004	20.3669
5.1693	19.9655
5.1386	19.0952
5.1082	18.7439
5.0782	18.204
5.0485	17.3851
5.0192	16.7918
4.9902	17.3371
4.9616	18.7535
4.9332	18.6654
4.9052	19.3734
4.8776	21.063
4.8502	21.4836
4.8231	20.1741
4.7963	19.8767
4.7699	21.662
4.7437	23.5311
4.7178	24.9884
4.6922	25.7948
4.6668	26.2397
4.6418	26.4572
4.617	26.9394
4.5924	27.2906
4.5681	27.7523
4.5441	28.1281
4.5203	28.6499
4.4968	29.0356
4.4735	29.433
4.4505	29.6708
4.4277	29.8955
4.4051	30.0348
4.3828	30.267
4.3607	30.3866
4.3388	30.6349
4.3171	30.8842
4.2956	31.3014
4.2744	31.5894
4.2534	31.5656
4.2325	32.2515
4.2119	31.9712
4.1915	32.016
4.1712	32.2133
4.1512	32.308
4.1313	32.4992
4.1117	32.5477
4.0922	32.7475
4.0729	32.6297
4.0538	32.5523
4.0349	32.2441
4.0161	31.666
3.9976	30.6586
3.9792	30.1849
3.9609	30.1613
3.9428	30.6335
3.9249	30.815
3.9072	30.6342
3.8896	30.2499
3.8722	29.9596
3.8549	29.5212
3.8378	29.2891
3.8208	29.0694
3.804	28.7741
3.7873	28.5588
3.7708	28.1431
3.7544	27.7256
3.7382	27.1847
3.7221	26.5858
3.7061	26.2664
3.6903	25.1765
3.6746	25.4903
3.659	25.2093
3.6436	24.7985
3.6283	24.3258
3.6131	23.7106
3.5981	23.1049
3.5832	22.646
3.5684	22.1494
3.5537	21.66
3.5391	21.1424
3.5247	20.2872
3.5104	19.3333
3.4962	18.6308
3.4821	17.9809
3.4681	17.5555
3.4543	17.3138
3.4405	16.7799
3.4269	16.0982
3.4133	15.473
3.3999	15.0701
3.3866	14.5302
3.3733	14.0867
3.3602	13.6072
3.3472	13.0598
3.3343	12.7855
3.3215	12.2705
3.3088	11.8092
3.2961	11.1091
3.2836	10.7494
3.2712	10.2224
3.2588	9.7946
3.2466	9.5518
3.2345	9.0321
3.2224	8.8364
3.2104	8.793
3.1985	8.4586
3.1867	8.0187
3.175	7.718
3.1634	7.5308
3.1519	7.0381
3.1404	6.7634
3.129	6.5371
3.1178	6.3844
3.1065	6.1726
3.0954	5.8381
3.0844	6.057
3.0734	5.8614
3.0625	5.6062
3.0517	5.6287
3.041	5.4499
3.0303	5.304
3.0197	5.2572
3.0092	5.3501
2.9987	5.1243
2.9884	4.7448
2.9781	4.9973
2.9678	4.876
2.9577	4.8384
2.9476	4.5957
2.9376	4.5616
2.9276	4.4562
2.9177	4.5306
2.9079	4.4824
2.8982	4.6674
2.8885	4.4842
2.8789	4.3622
2.8693	4.3958
2.8598	4.1219
2.8504	4.1706
2.841	4.0592
2.8317	4.0589
2.8224	4.0534
2.8133	3.834
2.8041	3.6033
2.7951	3.6972
2.786	3.7125
2.7771	3.1604
2.7682	3.2462
2.7594	2.9926
2.7506	2.1641
2.7418	1.91
2.7332	2.2396
2.7246	2.195
2.716	2.4176
2.7075	1.4641
2.699	1.4961
2.6906	5.835
2.6823	13.211
2.674	22.6781
2.6657	28.7658
2.6575	29.6416
2.6494	29.3646
2.6413	35.0538
2.6332	37.0916
2.6252	37.7665
2.6173	37.54
2.6094	36.4604
2.6015	36.1846
2.5937	36.6671
2.5859	34.157
2.5782	33.1168
2.5706	31.9344
2.5629	29.8974
2.5554	28.2643
2.5478	30.0871
2.5403	29.59
2.5329	29.8465
2.5255	29.2094
2.5181	27.1608
2.5108	25.1766
2.5035	24.5426
2.4963	27.2744
2.4891	30.5664
2.482	29.4229
2.4749	31.321
2.4678	34.8261
2.4608	36.7744
2.4538	36.5989
2.4468	35.3322
2.4399	32.5718
2.4331	30.4878
2.4262	34.0869
2.4194	34.562
2.4127	34.6649
2.4059	35.0433
2.3993	34.9023
2.3926	35.6588
2.386	37.6195
2.3795	38.6906
2.3729	38.3654
2.3664	40.6773
2.36	43.6604
2.3535	42.6051
2.3471	36.1368
2.3408	27.0252
2.3345	24.9095
2.3282	26.2778
2.3219	26.0694
2.3157	30.0187
2.3095	34.0195
2.3034	37.2214
2.2972	40.1498
2.2911	41.3573
2.2851	42.5799
2.279	42.4967
2.2731	40.5747
2.2671	41.8137
2.2612	49.4949
2.2553	51.2016
2.2494	50.2947
2.2435	51.8726
2.2377	53.0372
2.232	58.4312
2.2262	61.782
2.2205	64.4806
2.2148	65.974
2.2091	66.7605
2.2035	67.007
2.1979	67.4586
2.1923	67.5981
2.1868	67.8491
2.1812	67.8127
2.1758	67.6915
2.1703	67.3382
2.1649	67.4184
2.1595	66.9741
2.1541	65.691
2.1487	64.3258
2.1434	62.509
2.1381	61.0259
2.1328	58.4212
2.1275	59.3493
2.1223	60.6911
2.1171	60.7701
2.112	59.8671
2.1068	61.028
2.1017	61.5757
2.0966	61.3167
2.0915	62.1311
2.0865	64.074
2.0814	65.2864
2.0764	67.4648
2.0715	68.3779
2.0665	68.2399
2.0616	67.6427
2.0567	67.0879
2.0518	66.0782
2.0469	64.535
2.0421	63.6159
2.0373	62.9836
2.0325	62.3092
2.0277	62.5453
2.0229	62.5233
2.0182	62.3713
2.0135	62.0319
2.0088	61.5147
2.0042	60.5713
