Name: Chromite Fe+2Cr2O4
Type: Mineral
Class: Oxide
Subclass: None
Particle Size: Solid
Sample No.: chromite_1
Owner: JHU
Wavelength Range: TIR
Origin: Smithsonian NMNH 117075; Sample from Tiebaghi Mine, NewCaledonia.
Description: The sample was one large (3.5 cm x 2 cm x 2 cm) piece with a few crystal faces showing, weighing 42 g. Minimal contamination (<1%) occurred along a few thin veins containing mostly kaolinte. Microscopic examination confirmed the substantial purity of the sample. Most of the contaminating earthy material was removed by ultrasonic cleaning of the crushed sample. Sample had fracture surface. (Spinel Group) Original ASTER Spectral Library name was jhu.nicolet.mineral.oxide.none.solid.chromi1.spectrum.txt
Measurement: Bidirectional reflectance
X Units: Wavelength (micrometers)
Y Units: Reflectance (percent)
wavelength	value
25.0442	33.7831
24.3388	35.0595
23.6719	36.7987
23.0407	38.8065
22.4422	37.5609
21.8741	38.7558
21.334	45.4667
20.8199	58.7635
20.33	69.5399
19.8627	71.2757
19.4163	69.5919
18.9896	71.0186
18.5812	69.202
18.19	61.9347
17.815	43.3595
17.4551	15.7922
17.1094	14.9152
16.7772	19.7648
16.4576	25.5493
16.15	36.8009
15.8537	58.4613
15.568	63.9564
15.2925	65.4129
15.0265	66.0167
14.7697	65.0535
14.5214	63.2904
14.2814	61.2628
14.0492	58.5406
13.8244	55.2179
13.6067	51.9383
13.3957	48.2213
13.1912	39.0297
12.9929	23.5742
12.8004	6.6838
12.6135	1.8359
12.432	3.0395
12.2557	4.2788
12.0843	5.2407
11.9176	5.9931
11.7555	6.6079
11.5977	7.1675
11.444	7.6748
11.2944	8.0986
11.1487	8.436
11.0067	8.7461
10.8682	8.9824
10.7332	9.2046
10.6015	9.3926
10.473	9.5766
10.3476	9.7971
10.2251	10.0019
10.1056	10.219
9.9887	10.3799
9.8746	10.4926
9.763	10.5698
9.6539	10.6384
9.5472	10.7514
9.4429	10.872
9.3408	10.9057
9.2409	10.9814
9.1431	11.0461
9.0474	11.186
8.9536	11.3974
8.8618	11.4338
8.7718	11.4182
8.6837	11.4699
8.5973	11.5593
8.5126	11.646
8.4295	11.7297
8.3481	11.7895
8.2682	11.8418
8.1898	11.9184
8.1129	11.9836
8.0374	12.0075
7.9634	12.0295
7.8906	12.0952
7.8192	12.1709
7.7491	12.2727
7.6802	12.3457
7.6126	12.3615
7.5461	12.3637
7.4807	12.3806
7.4165	12.4065
7.3534	12.4236
7.2914	12.4287
7.2303	12.4131
7.1703	12.4463
7.1113	12.4831
7.0533	12.4931
6.9962	12.5288
6.94	12.5244
6.8847	12.5454
6.8302	12.5993
6.7767	12.6582
6.7239	12.6633
6.672	12.6399
6.6209	12.6504
6.5705	12.6494
6.5209	12.6936
6.4721	12.6987
6.424	12.6801
6.3766	12.7136
6.3299	12.7534
6.2838	12.7734
6.2385	12.7705
6.1937	12.7436
6.1496	12.758
6.1062	12.7444
6.0633	12.7544
6.0211	12.7446
5.9794	12.7378
5.9383	12.7116
5.8978	12.7483
5.8578	12.7903
5.8184	12.7234
5.7794	12.811
5.741	12.9189
5.7031	12.9729
5.6657	12.9653
5.6288	12.9843
5.5924	12.9792
5.5564	12.9738
5.5209	12.9797
5.4859	12.9951
5.4513	12.987
5.4171	12.9817
5.3833	13.0024
5.35	12.9875
5.3171	13.0007
5.2846	13.0097
5.2524	13.0114
5.2207	13.0039
5.1893	13.0005
5.1584	13.02
5.1277	13.0153
5.0975	12.989
5.0676	12.9741
5.038	13.0022
5.0088	12.9997
4.98	12.9748
4.9514	12.9692
4.9232	12.9707
4.8953	12.9775
4.8678	12.9736
4.8405	12.9846
4.8135	12.9743
4.7868	12.9829
4.7605	12.9836
4.7344	12.9853
4.7086	12.9826
4.6831	12.9611
4.6578	12.9758
4.6328	12.9785
4.6081	12.9907
4.5837	12.9946
4.5595	12.9824
4.5356	12.9743
4.5119	12.9758
4.4884	12.9829
4.4652	12.9756
4.4423	12.9694
4.4196	12.9804
4.3971	12.9919
4.3748	12.989
4.3528	12.9697
4.331	12.9585
4.3094	12.9611
4.288	12.9609
4.2668	12.9687
4.2458	12.9653
4.2251	12.9658
4.2045	12.9665
4.1841	12.9653
4.164	12.9521
4.144	12.9414
4.1242	12.938
4.1046	12.938
4.0852	12.9592
4.066	12.9516
4.047	12.9482
4.0281	12.9438
4.0094	12.9416
3.9909	12.9392
3.9725	12.9267
3.9544	12.9257
3.9363	12.936
3.9185	12.9399
3.9008	12.9404
3.8833	12.9414
3.8659	12.9304
3.8487	12.9199
3.8316	12.9228
3.8147	12.9155
3.7979	12.9179
3.7813	12.914
3.7648	12.893
3.7485	12.8955
3.7323	12.8884
3.7162	12.8779
3.7003	12.8589
3.6845	12.854
3.6689	12.8349
3.6534	12.832
3.638	12.8369
3.6227	12.8193
3.6076	12.8056
3.5926	12.8022
3.5777	12.7998
3.563	12.7754
3.5484	12.7573
3.5338	12.7485
3.5195	12.7182
3.5052	12.7568
3.491	12.7922
3.477	12.7907
3.463	12.771
3.4492	12.7578
3.4355	12.7509
3.4219	12.8073
3.4084	12.8574
3.395	12.8423
3.3817	12.8405
3.3685	12.8969
3.3554	12.8557
3.3425	12.8076
3.3296	12.7553
3.3168	12.7282
3.3041	12.6963
3.2915	12.7004
3.279	12.6755
3.2666	12.6516
3.2543	12.6233
3.2421	12.622
3.23	12.6115
3.218	12.5742
3.206	12.5539
3.1942	12.5439
3.1824	12.5373
3.1707	12.5119
3.1591	12.4853
3.1476	12.477
3.1362	12.427
3.1249	12.3996
3.1136	12.3867
3.1024	12.3703
3.0913	12.33
3.0803	12.3022
3.0694	12.2795
3.0585	12.226
3.0477	12.2216
3.037	12.2148
3.0264	12.1994
3.0158	12.1391
3.0053	12.0991
2.9949	12.1057
2.9845	12.08
2.9743	12.0598
2.9641	12.0429
2.9539	12.0171
2.9439	11.9873
2.9339	11.9445
2.9239	11.9145
2.9141	11.8911
2.9043	11.8838
2.8946	11.8598
2.8849	11.8303
2.8753	11.7978
2.8658	11.7815
2.8563	11.7812
2.8469	11.7412
2.8375	11.7207
2.8282	11.6789
2.819	11.6526
2.8098	11.6252
2.8007	11.6191
2.7917	11.5715
2.7827	11.5342
2.7738	11.5068
2.7649	11.4795
2.7561	11.4297
2.7473	11.4321
2.7386	11.3716
2.7299	11.3828
2.7213	11.3227
2.7128	11.3071
2.7043	11.2749
2.6959	11.2417
2.6875	11.2353
2.6791	11.2163
2.6709	11.1718
2.6626	11.1631
2.6545	11.1592
2.6463	11.1064
2.6382	11.0898
2.6302	11.0395
2.6222	11.0244
2.6143	11.0014
2.6064	10.9629
2.5986	10.9658
2.5908	10.9121
2.583	10.8735
2.5753	10.8501
2.5677	10.8388
2.5601	10.7993
2.5525	10.7685
2.545	10.768
2.5375	10.7226
2.5301	10.7036
2.5227	10.6587
2.5154	10.6269
2.5081	10.6435
2.5008	10.6352
2.4936	10.6035
2.4864	10.5761
2.4793	10.5703
2.4722	10.5127
2.4651	10.5088
2.4581	10.4922
2.4511	10.4868
2.4442	10.457
2.4373	10.4555
2.4305	10.416
2.4236	10.4062
2.4169	10.4414
2.4101	10.4145
2.4034	10.3501
2.3967	10.3672
2.3901	10.3598
2.3835	10.3261
2.377	10.3222
2.3704	10.2812
2.364	10.2422
2.3575	10.2676
2.3511	10.2812
2.3447	10.2617
2.3384	10.2265
2.3321	10.2558
2.3258	10.2383
2.3195	10.2685
2.3133	10.2627
2.3071	10.1767
2.301	10.209
2.2949	10.2099
2.2888	10.1894
2.2828	10.209
2.2767	10.1718
2.2708	10.208
2.2648	10.2392
2.2589	10.2177
2.253	10.1963
2.2471	10.1416
2.2413	10.1972
2.2355	10.2041
2.2297	10.1582
2.224	10.1894
2.2183	10.2363
2.2126	10.2002
2.207	10.2031
2.2013	10.1582
2.1957	10.2187
2.1902	10.2353
2.1846	10.1914
2.1791	10.2246
2.1736	10.25
2.1682	10.2656
2.1628	10.2812
2.1574	10.3027
2.152	10.2275
2.1466	10.2236
2.1413	10.2588
2.136	10.2988
2.1308	10.2392
2.1255	10.2627
2.1203	10.2578
2.1151	10.2715
2.11	10.2588
2.1048	10.2549
2.0997	10.3379
2.0946	10.3174
2.0895	10.3613
2.0845	10.3476
2.0795	10.291
