Name: Leucite KAlSi2O6
Type: Mineral
Class: Silicate
Subclass: Tectosilicate
Particle Size: Solid
Sample No.: leucite_1
Owner: JHU
Wavelength Range: TIR
Origin: Lake Latium, Italy via the Smithsonian (sample no. NMNHB18734)
Description: The sample was a single small crystal, 1 cm in diameter and weighing 1.25 g.  It had good crystal faces and no impurities or alterations were apparent in hand sample or under the microscope.  It did contain what appeared to be fluid inclusions. Sample was unknown crystal face.(Framework Silicates); (Feldspathoid Group) Original ASTER Spectral Library name was jhu.nicolet.mineral.silicate.tectosilicate.solid.leucit1.spectrum.txt
Measurement: Bidirectional reflectance
X Units: Wavelength (micrometers)
Y Units: Reflectance (percent)
wavelength	value
25.0442	18.6953
24.3388	19.4296
23.6719	20.9145
23.0407	22.8632
22.4422	22.2863
21.8741	17.5849
21.334	15.5676
20.8199	12.3823
20.33	8.8889
19.8627	6.9912
19.4163	8.561
18.9896	8.164
18.5812	9.4155
18.19	8.8325
17.815	9.5859
17.4551	10.1748
17.1094	10.6194
16.7772	10.9682
16.4576	11.0913
16.15	11.2348
15.8537	11.73
15.568	10.9983
15.2925	10.7771
15.0265	11.3337
14.7697	11.7959
14.5214	12.384
14.2814	12.552
14.0492	12.6562
13.8244	12.2387
13.6067	11.4729
13.3957	10.8547
13.1912	10.3305
12.9929	9.6946
12.8004	8.6225
12.6135	8.1726
12.432	8.7495
12.2557	9.4033
12.0843	9.6306
11.9176	10.176
11.7555	10.664
11.5977	11.154
11.444	11.6491
11.2944	12.0891
11.1487	12.633
11.0067	13.1562
10.8682	13.7732
10.7332	14.6965
10.6015	16.2556
10.473	17.3474
10.3476	17.5781
10.2251	17.6005
10.1056	18.288
9.9887	18.9428
9.8746	19.9094
9.763	21.2734
9.6539	22.7204
9.5472	24.0173
9.4429	25.081
9.3408	25.2685
9.2409	23.3954
9.1431	21.6181
9.0474	21.3178
8.9536	21.5903
8.8618	21.696
8.7718	21.3117
8.6837	20.7202
8.5973	20.0231
8.5126	18.9101
8.4295	16.122
8.3481	11.8098
8.2682	6.7756
8.1898	2.1091
8.1129	0.5513
8.0374	1.2603
7.9634	1.9553
7.8906	2.4993
7.8192	2.9429
7.7491	3.3157
7.6802	3.6511
7.6126	3.9355
7.5461	4.1494
7.4807	4.3398
7.4165	4.5447
7.3534	4.6853
7.2914	4.7837
7.2303	4.8813
7.1703	4.9827
7.1113	5.0947
7.0533	5.187
6.9962	5.2131
6.94	5.2646
6.8847	5.292
6.8302	5.3342
6.7767	5.3257
6.7239	5.3579
6.672	5.4048
6.6209	5.4658
6.5705	5.5132
6.5209	5.6015
6.4721	5.698
6.424	5.863
6.3766	5.9236
6.3299	5.9387
6.2838	5.9856
6.2385	5.9512
6.1937	5.8855
6.1496	5.8503
6.1062	5.7678
6.0633	5.7263
6.0211	5.6631
5.9794	5.6077
5.9383	5.5222
5.8978	5.4919
5.8578	5.4973
5.8184	5.4783
5.7794	5.5398
5.741	5.5972
5.7031	5.5827
5.6657	5.5945
5.6288	5.5954
5.5924	5.6128
5.5564	5.6142
5.5209	5.6284
5.4859	5.6416
5.4513	5.6601
5.4171	5.6604
5.3833	5.6623
5.35	5.6587
5.3171	5.6816
5.2846	5.6767
5.2524	5.6836
5.2207	5.6782
5.1893	5.6882
5.1584	5.6914
5.1277	5.6914
5.0975	5.685
5.0676	5.6811
5.038	5.6728
5.0088	5.6621
4.98	5.6616
4.9514	5.6719
4.9232	5.6733
4.8953	5.6723
4.8678	5.6692
4.8405	5.6677
4.8135	5.6675
4.7868	5.6843
4.7605	5.6797
4.7344	5.6833
4.7086	5.6794
4.6831	5.6753
4.6578	5.6694
4.6328	5.6802
4.6081	5.6816
4.5837	5.6792
4.5595	5.6626
4.5356	5.664
4.5119	5.656
4.4884	5.6489
4.4652	5.6406
4.4423	5.6316
4.4196	5.6272
4.3971	5.625
4.3748	5.623
4.3528	5.6289
4.331	5.6235
4.3094	5.625
4.288	5.6243
4.2668	5.6272
4.2458	5.6184
4.2251	5.6306
4.2045	5.623
4.1841	5.6211
4.164	5.6225
4.144	5.6098
4.1242	5.612
4.1046	5.6042
4.0852	5.6113
4.066	5.5989
4.047	5.5915
4.0281	5.5835
4.0094	5.5771
3.9909	5.5642
3.9725	5.5571
3.9544	5.5549
3.9363	5.5559
3.9185	5.55
3.9008	5.5452
3.8833	5.5481
3.8659	5.5347
3.8487	5.5161
3.8316	5.5232
3.8147	5.5198
3.7979	5.5176
3.7813	5.5286
3.7648	5.5198
3.7485	5.5188
3.7323	5.5176
3.7162	5.5029
3.7003	5.4885
3.6845	5.4892
3.6689	5.479
3.6534	5.459
3.638	5.4551
3.6227	5.4607
3.6076	5.4548
3.5926	5.4514
3.5777	5.4385
3.563	5.4265
3.5484	5.4277
3.5338	5.4194
3.5195	5.4487
3.5052	5.4507
3.491	5.4158
3.477	5.4099
3.463	5.4155
3.4492	5.4131
3.4355	5.47
3.4219	5.4631
3.4084	5.3833
3.395	5.3371
3.3817	5.332
3.3685	5.3332
3.3554	5.3154
3.3425	5.2934
3.3296	5.2832
3.3168	5.2681
3.3041	5.2529
3.2915	5.2432
3.279	5.2383
3.2666	5.2239
3.2543	5.2192
3.2421	5.2002
3.23	5.1853
3.218	5.1797
3.206	5.175
3.1942	5.157
3.1824	5.1391
3.1707	5.1326
3.1591	5.1191
3.1476	5.1001
3.1362	5.0803
3.1249	5.0661
3.1136	5.0715
3.1024	5.0452
3.0913	5.0254
3.0803	5.0229
3.0694	5.0022
3.0585	4.9758
3.0477	4.9624
3.037	4.936
3.0264	4.938
3.0158	4.8979
3.0053	4.8867
2.9949	4.8725
2.9845	4.873
2.9743	4.8472
2.9641	4.8472
2.9539	4.8183
2.9439	4.7854
2.9339	4.7319
2.9239	4.7236
2.9141	4.7168
2.9043	4.7051
2.8946	4.688
2.8849	4.6445
2.8753	4.6059
2.8658	4.6099
2.8563	4.5674
2.8469	4.542
2.8375	4.5312
2.8282	4.5083
2.819	4.5112
2.8098	4.5093
2.8007	4.4619
2.7917	4.436
2.7827	4.4204
2.7738	4.4199
2.7649	4.3916
2.7561	4.3276
2.7473	4.2959
2.7386	4.2827
2.7299	4.2829
2.7213	4.2742
2.7128	4.2554
2.7043	4.2397
2.6959	4.1997
2.6875	4.21
2.6791	4.2197
2.6709	4.186
2.6626	4.2082
2.6545	4.1938
2.6463	4.1733
2.6382	4.1086
2.6302	4.1299
2.6222	4.1272
2.6143	4.1152
2.6064	4.1011
2.5986	4.1089
2.5908	4.0654
2.583	4.0539
2.5753	4.0715
2.5677	4.0381
2.5601	4.0159
2.5525	4.0166
2.545	4.0288
2.5375	4.0354
2.5301	4.0041
2.5227	3.9995
2.5154	3.9905
2.5081	3.9707
2.5008	4.0276
2.4936	4.0078
2.4864	3.9624
2.4793	3.9524
2.4722	3.9746
2.4651	3.928
2.4581	3.9805
2.4511	3.9785
2.4442	3.9385
2.4373	3.9409
2.4305	3.9248
2.4236	3.9116
2.4169	3.9463
2.4101	3.9316
2.4034	3.9141
2.3967	3.9309
2.3901	3.9416
2.3835	3.9131
2.377	3.928
2.3704	3.9416
2.364	3.937
2.3575	3.9145
2.3511	3.9512
2.3447	3.9204
2.3384	3.935
2.3321	3.9297
2.3258	3.9512
2.3195	3.9482
2.3133	3.9556
2.3071	3.9629
2.301	3.9687
2.2949	3.9546
2.2888	3.9443
2.2828	3.9287
2.2767	3.9453
2.2708	3.9482
2.2648	3.9766
2.2589	3.9336
2.253	3.9595
2.2471	3.936
2.2413	3.937
2.2355	3.9419
2.2297	3.9399
2.224	3.9556
2.2183	3.956
2.2126	3.956
2.207	3.8906
2.2013	3.9238
2.1957	3.9307
2.1902	3.9072
2.1846	3.9126
2.1791	3.9043
2.1736	3.9145
2.1682	3.9375
2.1628	3.9023
2.1574	3.9355
2.152	3.917
2.1466	3.9145
2.1413	3.8896
2.136	3.8516
2.1308	3.9141
2.1255	3.9512
2.1203	3.8808
2.1151	3.8872
2.11	3.9111
2.1048	3.8931
2.0997	3.8794
2.0946	3.897
2.0895	3.9004
2.0845	3.8867
2.0795	3.8721
