Name: Magnesite MgCO_3
Type: Mineral
Class: Carbonate
Subclass: None
Particle Size: Coarse
Sample No.: C-6A
Owner: JPL
Wavelength Range: TIR
Origin: USA, California, Riverside County
Description: Particle size was 125-500um.Collected by Ward's Original ASTER Spectral Library name was jpl.nicolet.mineral.carbonate.none.coarse.c06a.spectrum.txt
Measurement: Hemispherical reflectance
X Units: Wavelength (micrometers)
Y Units: Reflectance (percent)
wavelength	value
15.3853	0.96
15.1161	1.0057
14.8563	1.0742
14.6052	1.6766
14.3624	1.338
14.1276	1.6041
13.9004	1.6703
13.6803	1.4406
13.4671	1.8751
13.2604	0.7814
13.06	1.1897
12.8656	1.4957
12.6769	1.7654
12.4936	1.9254
12.3155	2.1924
12.1425	2.2574
11.9742	2.5287
11.8106	2.6611
11.6513	2.6711
11.4963	3.7316
11.3454	4.5132
11.1983	5.4212
11.0551	7.5426
10.9154	5.9423
10.7793	4.297
10.6465	3.3245
10.5169	2.595
10.3904	2.4388
10.267	2.4435
10.1464	2.4601
10.0287	2.3826
9.9136	2.6012
9.8012	2.8655
9.6913	2.8167
9.5838	3.0236
9.4787	2.8489
9.3758	2.6876
9.2752	2.7262
9.1767	2.6402
9.0803	2.8797
8.9858	3.3623
8.8934	3.9092
8.8028	4.1247
8.714	4.8804
8.627	5.108
8.5417	5.008
8.4581	4.898
8.3761	4.6052
8.2957	4.4376
8.2169	4.6458
8.1395	4.6836
8.0635	4.8005
7.989	5.0496
7.9158	6.2768
7.8439	7.1659
7.7734	7.3895
7.7041	7.3488
7.636	7.3871
7.5691	7.1617
7.5034	7.1354
7.4388	6.8143
7.3753	6.3851
7.3129	6.4081
7.2515	5.9752
7.1912	5.5018
7.1318	5.3595
7.0734	5.5091
7.016	6.7812
6.9595	6.9256
6.9039	6.9589
6.8492	6.803
6.7953	7.0217
6.7423	7.3982
6.6901	7.7759
6.6387	8.1367
6.5881	9.0791
6.5382	10.235
6.4892	11.4001
6.4408	13.2058
6.3931	14.6673
6.3462	15.5354
6.2999	16.3966
6.2543	15.6665
6.2094	9.6014
6.1651	6.6069
6.1214	5.8012
6.0784	4.837
6.0359	3.6923
5.994	3.0882
5.9527	2.7187
5.912	2.4501
5.8718	2.265
5.8322	2.2228
5.7931	2.2392
5.7545	2.318
5.7165	2.2948
5.6789	2.2914
5.6418	2.1588
5.6052	2.078
5.5691	1.7736
5.5334	1.3592
5.4982	1.1063
5.4635	0.96
5.4291	1.2886
5.3952	2.1638
5.3618	3.378
5.3287	4.8798
5.2961	6.165
5.2638	6.7113
5.2319	7.1708
5.2004	8.9978
5.1693	11.0607
5.1386	12.6758
5.1082	13.5784
5.0782	13.0608
5.0485	12.4472
5.0192	15.1522
4.9902	16.4339
4.9616	17.0159
4.9332	17.1882
4.9052	17.3685
4.8776	17.453
4.8502	17.5483
4.8231	17.5848
4.7963	17.3653
4.7699	17.2196
4.7437	16.9126
4.7178	16.6142
4.6922	15.9782
4.6668	15.0369
4.6418	13.5678
4.617	11.551
4.5924	10.3715
4.5681	10.2269
4.5441	10.9945
4.5203	12.0206
4.4968	12.7401
4.4735	13.12
4.4505	13.3539
4.4277	13.5403
4.4051	13.5994
4.3828	14.0781
4.3607	14.4759
4.3388	14.9817
4.3171	15.0602
4.2956	15.1707
4.2744	15.5556
4.2534	15.7352
4.2325	16.3891
4.2119	16.5961
4.1915	16.732
4.1712	16.9775
4.1512	16.9826
4.1313	16.9336
4.1117	17.0053
4.0922	16.8564
4.0729	16.6468
4.0538	15.6111
4.0349	14.1478
4.0161	11.4329
3.9976	7.7513
3.9792	4.851
3.9609	2.7451
3.9428	2.4426
3.9249	2.4783
3.9072	2.8019
3.8896	3.2128
3.8722	4.0932
3.8549	4.3853
3.8378	4.5535
3.8208	4.7899
3.804	5.0616
3.7873	5.3883
3.7708	6.1661
3.7544	7.7844
3.7382	9.7592
3.7221	12.5769
3.7061	14.6563
3.6903	14.9946
3.6746	14.8566
3.659	14.6053
3.6436	14.3644
3.6283	13.798
3.6131	13.3485
3.5981	12.9822
3.5832	12.5265
3.5684	12.0039
3.5537	11.4035
3.5391	10.7451
3.5247	9.6467
3.5104	9.249
3.4962	7.7102
3.4821	5.8731
3.4681	5
3.4543	4.4344
3.4405	3.8547
3.4269	3.6148
3.4133	3.707
3.3999	4.0087
3.3866	4.3001
3.3733	4.3548
3.3602	4.2696
3.3472	4.0766
3.3343	4.0127
3.3215	3.8321
3.3088	3.5603
3.2961	3.5443
3.2836	3.3147
3.2712	3.2124
3.2588	3.4152
3.2466	3.7958
3.2345	3.5316
3.2224	3.3584
3.2104	3.3282
3.1985	3.2373
3.1867	3.2343
3.175	3.3726
3.1634	3.1359
3.1519	3.1739
3.1404	3.0931
3.129	3.0908
3.1178	3.1654
3.1065	3.0613
3.0954	3.1576
3.0844	3.1294
3.0734	3.1679
3.0625	3.3222
3.0517	3.121
3.041	3.2249
3.0303	3.0338
3.0197	3.0748
3.0092	2.7836
2.9987	2.9102
2.9884	2.636
2.9781	2.5864
2.9678	2.9997
2.9577	2.9293
2.9476	3.1519
2.9376	3.3455
2.9276	3.5168
2.9177	3.7597
2.9079	3.9079
2.8982	4.2363
2.8885	4.6582
2.8789	4.6873
2.8693	5.1136
2.8598	5.2908
2.8504	5.9347
2.841	5.9798
2.8317	6.3002
2.8224	6.4921
2.8133	6.3225
2.8041	6.8369
2.7951	7.6736
2.786	8.2386
2.7771	8.8383
2.7682	9.4505
2.7594	10.3211
2.7506	11.8401
2.7418	13.7738
2.7332	16.867
2.7246	18.9143
2.716	17.9501
2.7075	23.114
2.699	30.3851
2.6906	32.0672
2.6823	38.2887
2.674	40.9307
2.6657	42.383
2.6575	44.9713
2.6494	46.6357
2.6413	47.8662
2.6332	48.692
2.6252	49.5195
2.6173	49.9669
2.6094	50.9045
2.6015	51.3861
2.5937	51.3115
2.5859	52.308
2.5782	52.7271
2.5706	52.7116
2.5629	52.2694
2.5554	52.4356
2.5478	52.0142
2.5403	51.1866
2.5329	49.153
2.5255	46.3796
2.5181	44.1825
2.5108	42.8137
2.5035	42.0527
2.4963	42.4015
2.4891	42.8386
2.482	43.7809
2.4749	44.4386
2.4678	45.0276
2.4608	45.7759
2.4538	46.7498
2.4468	47.8808
2.4399	49.2441
2.4331	50.6092
2.4262	52.1946
2.4194	53.495
2.4127	54.8292
2.4059	55.6694
2.3993	56.6938
2.3926	57.1833
2.386	58.3145
2.3795	59.5743
2.3729	60.75
2.3664	61.7345
2.36	62.6832
2.3535	63.4223
2.3471	64.1088
2.3408	64.2515
2.3345	63.4805
2.3282	61.6915
2.3219	59.6946
2.3157	57.5373
2.3095	56.9136
2.3034	57.619
2.2972	58.175
2.2911	58.9345
2.2851	59.57
2.279	60.625
2.2731	61.1802
2.2671	61.6671
2.2612	62.6737
2.2553	63.1406
2.2494	64.1887
2.2435	65.1182
2.2377	66.692
2.232	67.6639
2.2262	68.6977
2.2205	69.2423
2.2148	69.7998
2.2091	70.3069
2.2035	70.5184
2.1979	70.6741
2.1923	70.8125
2.1868	70.4898
2.1812	70.7986
2.1758	70.9933
2.1703	70.6476
2.1649	70.6312
2.1595	70.1526
2.1541	69.855
2.1487	69.6433
2.1434	69.2489
2.1381	68.5603
2.1328	68.3027
2.1275	68.1281
2.1223	67.7854
2.1171	67.6807
2.112	67.2094
2.1068	67.0274
2.1017	66.7608
2.0966	66.44
2.0915	66.2989
2.0865	66.0424
2.0814	66.08
2.0764	65.413
2.0715	65.3931
2.0665	65.1694
2.0616	65.1893
2.0567	64.7579
2.0518	65.063
2.0469	64.1605
2.0421	64.6325
2.0373	64.5114
2.0325	64.3748
2.0277	64.4089
2.0229	64.576
2.0182	64.4033
2.0135	64.4094
2.0088	64.5968
2.0042	64.1461
