Name: Calcite CaCO_3
Type: Mineral
Class: Carbonate
Subclass: None
Particle Size: Coarse
Sample No.: C-3A
Owner: JPL
Wavelength Range: TIR
Origin: Italy
Description: TravertineParticle size was 125-500um.Collected by Ward's Original ASTER Spectral Library name was jpl.nicolet.mineral.carbonate.none.coarse.c03a.spectrum.txt
Measurement: Hemispherical reflectance
X Units: Wavelength (micrometers)
Y Units: Reflectance (percent)
wavelength	value
15.3853	5.4794
15.1161	5.3443
14.8563	5.312
14.6052	6.5244
14.3624	5.0243
14.1276	2.5431
13.9004	1.4363
13.6803	5.7848
13.4671	9.5034
13.2604	9.7987
13.06	8.1597
12.8656	6.7133
12.6769	7.2971
12.4936	7.899
12.3155	8.3151
12.1425	8.6582
11.9742	7.8102
11.8106	3.5587
11.6513	3.7995
11.4963	5.8025
11.3454	13.2392
11.1983	15.5009
11.0551	15.183
10.9154	14.7543
10.7793	11.6982
10.6465	9.6479
10.5169	9.7378
10.3904	11.287
10.267	10.6775
10.1464	9.3647
10.0287	7.9988
9.9136	7.1057
9.8012	7.1559
9.6913	8.4289
9.5838	9.259
9.4787	9.4023
9.3758	7.5203
9.2752	7.041
9.1767	5.9047
9.0803	6.2393
8.9858	5.5619
8.8934	4.469
8.8028	3.8415
8.714	3.5067
8.627	3.277
8.5417	3.2664
8.4581	3.7358
8.3761	4.3048
8.2957	5.2835
8.2169	5.7539
8.1395	5.8581
8.0635	5.5333
7.989	5.7927
7.9158	5.5084
7.8439	5.7412
7.7734	5.4531
7.7041	5.4841
7.636	5.2824
7.5691	5.2949
7.5034	5.4177
7.4388	5.6358
7.3753	6.0847
7.3129	6.6718
7.2515	7.6798
7.1912	9.6846
7.1318	12.3365
7.0734	16.6643
7.016	16.9415
6.9595	16.8902
6.9039	17.2293
6.8492	17.9817
6.7953	19.0926
6.7423	19.754
6.6901	21.3142
6.6387	23.3905
6.5881	25.2065
6.5382	26.6159
6.4892	27.1495
6.4408	21.1075
6.3931	11.7326
6.3462	6.4844
6.2999	3.4774
6.2543	2.9572
6.2094	2.252
6.1651	1.8506
6.1214	1.6873
6.0784	1.5877
6.0359	1.6745
5.994	1.7025
5.9527	1.7051
5.912	1.7684
5.8718	1.8432
5.8322	1.6503
5.7931	1.4352
5.7545	1.395
5.7165	1.4897
5.6789	1.5867
5.6418	2.0716
5.6052	1.2453
5.5691	0.8295
5.5334	1.2647
5.4982	3.7802
5.4635	6.6485
5.4291	9.9248
5.3952	13.6621
5.3618	17.1877
5.3287	20.5136
5.2961	23.949
5.2638	26.2822
5.2319	28.5841
5.2004	30.3895
5.1693	31.7555
5.1386	33.0202
5.1082	25.9837
5.0782	33.8456
5.0485	35.9273
5.0192	35.785
4.9902	35.3814
4.9616	34.8172
4.9332	34.334
4.9052	34.4833
4.8776	34.8618
4.8502	34.8715
4.8231	34.9686
4.7963	34.5647
4.7699	33.1581
4.7437	29.1129
4.7178	20.7081
4.6922	11.9492
4.6668	10.4489
4.6418	14.3423
4.617	20.3903
4.5924	22.6205
4.5681	23.5966
4.5441	24.0319
4.5203	24.46
4.4968	25.307
4.4735	28.2522
4.4505	30.5065
4.4277	33.1165
4.4051	34.3521
4.3828	35.0382
4.3607	33.6985
4.3388	32.0696
4.3171	32.0684
4.2956	32.7304
4.2744	30.1332
4.2534	31.5322
4.2325	31.5941
4.2119	31.172
4.1915	29.8544
4.1712	28.1851
4.1512	25.8925
4.1313	22.6832
4.1117	19.2508
4.0922	15.9385
4.0729	12.425
4.0538	8.3971
4.0349	4.0549
4.0161	2.4097
3.9976	1.7991
3.9792	1.5934
3.9609	1.6533
3.9428	1.8433
3.9249	2.2877
3.9072	2.4968
3.8896	2.5772
3.8722	2.5986
3.8549	2.744
3.8378	3.0286
3.8208	4.5576
3.804	8.5055
3.7873	18.0793
3.7708	23.4198
3.7544	25.7349
3.7382	27.4163
3.7221	29.033
3.7061	29.6116
3.6903	29.8794
3.6746	29.4545
3.659	28.8041
3.6436	27.5526
3.6283	26.2387
3.6131	24.7024
3.5981	22.1233
3.5832	17.9247
3.5684	14.5742
3.5537	13.4486
3.5391	9.5813
3.5247	4.9007
3.5104	2.9181
3.4962	2.4576
3.4821	2.1941
3.4681	2.5621
3.4543	3.2748
3.4405	3.3504
3.4269	3.3399
3.4133	3.3125
3.3999	3.3856
3.3866	3.2253
3.3733	3.0342
3.3602	2.7651
3.3472	2.7129
3.3343	6.5776
3.3215	10.1868
3.3088	12.0409
3.2961	13.3183
3.2836	13.9928
3.2712	14.6405
3.2588	14.9123
3.2466	15.0126
3.2345	14.9135
3.2224	14.8912
3.2104	14.6626
3.1985	14.515
3.1867	14.0352
3.175	13.7637
3.1634	12.9507
3.1519	12.2705
3.1404	11.9955
3.129	12.0238
3.1178	11.3674
3.1065	10.9705
3.0954	11.1671
3.0844	11.3345
3.0734	11.4212
3.0625	11.4603
3.0517	11.4111
3.041	11.4667
3.0303	11.2953
3.0197	11.2198
3.0092	11.4217
2.9987	11.1775
2.9884	11.0815
2.9781	10.9647
2.9678	10.8797
2.9577	10.896
2.9476	10.7602
2.9376	10.9298
2.9276	11.0494
2.9177	11.3109
2.9079	11.35
2.8982	11.788
2.8885	11.9081
2.8789	12.4087
2.8693	12.6094
2.8598	13.0847
2.8504	13.7274
2.841	14.2275
2.8317	14.8195
2.8224	15.4211
2.8133	15.9735
2.8041	16.498
2.7951	16.5573
2.786	17.0912
2.7771	20.1693
2.7682	23.5942
2.7594	27.0849
2.7506	30.5449
2.7418	34.8212
2.7332	38.6876
2.7246	43.7936
2.716	47.995
2.7075	52.4772
2.699	56.8914
2.6906	61.1413
2.6823	64.0564
2.674	66.0595
2.6657	68.3527
2.6575	68.6364
2.6494	69.4416
2.6413	70.013
2.6332	70.6595
2.6252	70.7402
2.6173	71.223
2.6094	70.4349
2.6015	69.572
2.5937	68.9379
2.5859	65.9194
2.5782	64.2195
2.5706	61.7872
2.5629	57.1162
2.5554	48.781
2.5478	39.9982
2.5403	34.536
2.5329	34.3535
2.5255	37.9086
2.5181	41.4963
2.5108	43.3106
2.5035	44.4428
2.4963	45.1989
2.4891	46.3916
2.482	48.4858
2.4749	51.7542
2.4678	55.7303
2.4608	59.4099
2.4538	62.4255
2.4468	64.7567
2.4399	66.9712
2.4331	68.952
2.4262	70.8845
2.4194	72.4633
2.4127	73.725
2.4059	73.9438
2.3993	74.1561
2.3926	75.039
2.386	74.9912
2.3795	74.0265
2.3729	71.6537
2.3664	68.0206
2.36	61.7548
2.3535	55.7204
2.3471	51.6591
2.3408	49.8424
2.3345	50.6274
2.3282	53.1096
2.3219	55.7806
2.3157	57.7434
2.3095	58.8135
2.3034	59.6653
2.2972	60.8588
2.2911	62.1344
2.2851	64.1894
2.279	66.78
2.2731	69.2812
2.2671	71.2936
2.2612	73.0775
2.2553	74.8444
2.2494	76.1348
2.2435	77.4843
2.2377	78.6562
2.232	79.7783
2.2262	80.652
2.2205	81.4196
2.2148	82.1413
2.2091	82.5859
2.2035	83.0922
2.1979	83.1468
2.1923	83.5086
2.1868	83.5654
2.1812	83.0695
2.1758	82.581
2.1703	81.9846
2.1649	81.2528
2.1595	80.9087
2.1541	80.8278
2.1487	81.1443
2.1434	82.2106
2.1381	82.825
2.1328	83.4993
2.1275	83.768
2.1223	84.0436
2.1171	83.9574
2.112	84.3741
2.1068	84.4961
2.1017	84.5953
2.0966	84.5396
2.0915	84.835
2.0865	84.7173
2.0814	84.8613
2.0764	84.9567
2.0715	85.012
2.0665	84.8346
2.0616	84.4879
2.0567	84.517
2.0518	84.352
2.0469	84.1445
2.0421	83.796
2.0373	83.7232
2.0325	83.2851
2.0277	83.0868
2.0229	82.8201
2.0182	82.3726
2.0135	81.502
2.0088	80.7653
2.0042	79.6526
