Name: Thenardite Na2SO4
Type: Mineral
Class: Sulfate
Subclass: None
Particle Size: Coarse
Sample No.: None
Owner: USGS
Wavelength Range: All
Origin: Saline Valley, California
Description: Thenardite from Saline Valley, CaliforniaSample was Unsieved coarse powder. Original ASTER Spectral Library name was usgs.perknic.mineral.sulfate.none.coarse.thenarc.spectrum.txt
Measurement: Directional Hemispherical Reflectance
X Units: Wavelength (micrometers)
Y Units: Reflectance (percent)
wavelength	value
13.9	6.705
13.644	7.859
13.398	8.137
13.16	8.59
12.93	8.776
12.708	9.177
12.494	9.826
12.287	10.918
12.086	11.68
11.892	12.793
11.704	13.153
11.522	12.442
11.346	12.514
11.175	12.927
11.009	13.153
10.848	12.793
10.691	12.401
10.539	11.896
10.391	11.309
10.247	10.012
10.108	9.703
9.972	9.486
9.839	9.239
9.71	9.177
9.585	8.786
9.462	8.374
9.343	7.869
9.226	7.375
9.113	8.405
9.002	13.081
8.894	20.96
8.789	24.71
8.686	23.319
8.585	22.578
8.487	26.44
8.391	24.349
8.297	19.92
8.205	7.931
8.115	3.183
8.027	1.7
7.941	1.318
7.857	1.205
7.774	1.339
7.694	1.597
7.614	2.019
7.537	2.503
7.461	3.049
7.387	3.512
7.314	4.676
7.242	6.128
7.172	7.21
7.103	8.312
7.036	10.032
6.97	11
6.905	12.916
6.841	14.193
6.778	14.451
6.717	16.315
6.657	17.726
6.597	18.581
6.539	18.643
6.482	16.707
6.426	11.134
6.37	10.29
6.316	9.703
6.263	9.641
6.21	8.013
6.159	9.929
6.108	11.114
6.058	14.07
6.009	16.326
5.96	17.067
5.913	18.87
5.866	22.897
5.82	23.268
5.775	20.147
5.73	19.91
5.686	20.95
5.643	23.268
5.6	26.131
5.558	27.377
5.517	27.985
5.476	28.819
5.436	33.465
5.396	36.73
5.357	38.038
5.319	38.594
5.281	38.903
5.243	39.367
5.206	39.737
5.17	39.748
5.134	38.975
5.099	38.491
5.064	37.544
5.03	36.318
4.996	35.535
4.962	34.165
4.929	32.291
4.897	29.324
4.865	25.008
4.833	18.973
4.802	11.083
4.771	4.274
4.74	4.522
4.71	6.798
4.68	8.642
4.651	8.848
4.622	10.372
4.593	8.446
4.565	8.611
4.537	15.955
4.509	10.516
4.482	9.064
4.455	8.868
4.428	9.074
4.402	10.207
4.376	10.908
4.35	10.176
4.325	12.731
4.3	15.553
4.275	19.518
4.251	24.648
4.226	30.436
4.202	32.373
4.179	34.083
4.155	35.854
4.132	37.41
4.109	38.913
4.086	40.221
4.064	41.303
4.042	42.426
4.02	43.466
3.998	44.28
3.977	44.743
3.956	45.289
3.935	45.402
3.914	45.547
3.893	45.557
3.873	45.495
3.853	44.249
3.833	44.681
3.813	45.042
3.794	45.001
3.774	45.371
3.755	45.681
3.736	45.979
3.717	45.907
3.699	45.464
3.68	44.62
3.662	44.136
3.644	43.538
3.626	43.322
3.609	42.704
3.591	41.962
3.574	41.138
3.557	40.221
3.54	39.119
3.523	38.079
3.506	36.74
3.49	35.823
3.473	35.123
3.457	34.567
3.441	33.691
3.425	32.517
3.409	31.724
3.394	31.322
3.378	30.673
3.363	30.097
3.348	29.448
3.333	28.799
3.318	28.212
3.303	27.439
3.288	26.636
3.274	25.874
3.259	24.73
3.245	22.907
3.231	22.876
3.217	22.856
3.203	22.526
3.189	21.867
3.176	21.445
3.162	20.806
3.149	20.373
3.135	19.879
3.122	19.333
3.109	18.89
3.096	18.89
3.083	18.571
3.07	18.334
3.058	18.087
3.045	17.726
3.033	17.675
3.02	17.386
3.008	17.201
2.996	17.005
2.984	16.995
2.972	16.902
2.96	16.748
2.948	16.779
2.937	16.665
2.925	16.871
2.913	17.119
2.902	17.273
2.891	17.603
2.879	17.881
2.868	17.829
2.857	17.314
2.846	18.097
2.835	19.817
2.825	21.084
2.814	22.166
2.803	23.433
2.793	24.741
2.782	26.172
2.772	27.81
2.761	30.179
2.751	32.816
2.741	36.163
2.731	39.222
2.721	42.57
2.711	45.773
2.701	48.163
2.691	52.468
2.681	55.321
2.672	56.753
2.662	57.876
2.653	58.998
2.643	59.318
2.634	60.276
2.624	60.203
2.615	60.626
2.606	60.863
2.597	60.986
2.588	60.698
2.579	60.688
2.57	60.379
2.561	60.41
2.552	59.915
2.543	60.09
2.535	60.585
2.526	60.78
2.517	61.007
2.509	61.584
2.5	61.934
2.486	62.199
2.472	62.39
2.458	62.415
2.444	62.21
2.43	62.769
2.416	64.124
2.402	65.693
2.388	66.649
2.374	67.606
2.36	68.796
2.346	69.612
2.332	70.495
2.318	70.971
2.304	71.501
2.29	71.573
2.276	71.496
2.262	71.36
2.248	71.208
2.234	71.11
2.22	71.035
2.206	70.975
2.192	71.205
2.178	71.399
2.164	71.68
2.15	71.69
2.136	71.258
2.122	70.452
2.108	69.546
2.094	69.494
2.08	69.657
2.066	69.463
2.052	69.311
2.038	68.599
2.024	67.686
2.01	66.527
1.996	65.164
1.982	64.295
1.968	63.63
1.954	63.113
1.94	63.355
1.926	64.703
1.912	66.53
1.898	69.892
1.884	72.299
1.87	73.252
1.856	73.463
1.842	73.435
1.828	73.454
1.814	73.174
1.8	72.966
1.786	72.924
1.772	72.969
1.758	73.134
1.744	73.222
1.73	73.181
1.716	73.079
1.702	73.084
1.688	73.102
1.674	72.996
1.66	72.996
1.646	72.971
1.632	73.137
1.618	73.038
1.604	73.171
1.59	73.326
1.576	73.347
1.562	73.169
1.548	73.101
1.534	72.974
1.52	72.964
1.506	72.484
1.492	72.323
1.478	71.845
1.464	71.747
1.45	72.026
1.436	72.344
1.422	72.743
1.408	73.611
1.394	74.378
1.38	74.768
1.366	74.745
1.352	74.522
1.338	74.75
1.324	74.506
1.31	74.62
1.296	74.273
1.282	74.261
1.268	74.513
1.254	74.276
1.24	74.097
1.226	74.084
1.212	73.923
1.198	73.964
1.184	73.686
1.17	73.755
1.156	73.428
1.142	73.417
1.128	73.499
1.114	73.29
1.1	73.248
1.086	73.374
1.072	73.016
1.058	73.222
1.044	72.9
1.03	72.819
1.016	72.711
1.002	72.843
0.988	72.363
0.974	72.292
0.96	72.22
0.946	71.968
0.932	71.954
0.918	71.748
0.904	71.671
0.89	71.701
0.876	72.001
0.862	72.209
0.848	71.183
0.834	71.126
0.82	71.201
0.806	71.102
0.792	70.91
0.778	70.774
0.764	70.537
0.75	70.343
0.736	70.163
0.722	69.937
0.708	69.748
0.694	69.582
0.68	69.4
0.666	69.232
0.652	69.058
0.638	68.856
0.624	68.628
0.61	68.38
0.596	68.018
0.582	67.47
0.568	66.724
0.554	65.775
0.54	64.648
0.526	63.342
0.512	62.069
0.498	60.93
0.484	59.681
0.47	58.965
0.456	58.331
0.442	56.916
0.428	55.24
0.414	54.001
0.4	52.914
