Name: Augite (Ca,Na)(Mg,Fe,Al,Ti)(Si,Al)_2O_6
Type: Mineral
Class: Silicate
Subclass: Inosilicate
Particle Size: Fine
Sample No.: IN-15A
Owner: JPL
Wavelength Range: VSWIR
Origin: USA
Description: Particle size was 0-45um.Collected by JPL Original ASTER Spectral Library name was jpl.beckman.mineral.silicate.inosilicate.fine.in15a.spectrum.txt
Measurement: Hemispherical reflectance
X Units: Wavelength (micrometers)
Y Units: Reflectance (percent)
wavelength	value
0.4	9.94
0.403	10.17
0.406	10.27
0.409	10.67
0.412	10.91
0.415	10.98
0.418	11.19
0.421	11.44
0.424	11.78
0.427	11.95
0.43	12.3
0.433	12.49
0.436	12.45
0.439	12.57
0.442	12.76
0.445	13
0.448	13.19
0.451	13.27
0.454	13.71
0.457	13.91
0.46	14.09
0.463	14.35
0.466	14.74
0.469	14.95
0.472	15.21
0.475	15.48
0.478	15.73
0.481	16.03
0.484	16.13
0.487	16.31
0.49	16.67
0.493	16.86
0.496	17.3
0.499	17.55
0.502	17.8
0.505	18
0.508	18.38
0.511	18.69
0.514	18.71
0.517	18.83
0.52	18.98
0.523	19.09
0.526	19.15
0.529	19.32
0.532	19.53
0.535	19.48
0.538	19.63
0.541	19.6
0.544	19.63
0.547	19.65
0.55	19.55
0.553	19.7
0.556	19.64
0.559	19.5
0.562	19.59
0.565	19.44
0.568	19.39
0.571	19.3
0.574	19.26
0.577	19.02
0.58	19.02
0.583	18.94
0.586	18.63
0.589	18.51
0.592	18.45
0.595	18.41
0.598	18.14
0.601	18.05
0.604	17.93
0.607	17.74
0.61	17.58
0.613	17.47
0.616	17.29
0.619	17.12
0.622	17.06
0.625	16.95
0.628	16.71
0.631	16.49
0.634	16.39
0.637	16.33
0.64	16.01
0.643	16.01
0.646	15.91
0.649	15.63
0.652	15.54
0.655	15.37
0.658	15.3
0.661	15.1
0.664	15.05
0.667	14.94
0.67	14.67
0.673	14.52
0.676	14.36
0.679	14.25
0.682	14.15
0.685	14.03
0.688	14.06
0.691	13.81
0.694	13.59
0.697	13.51
0.7	13.47
0.703	13.28
0.706	13.21
0.709	12.97
0.712	12.93
0.715	12.78
0.718	12.75
0.721	12.66
0.724	12.54
0.727	12.44
0.73	12.31
0.733	12.32
0.736	12.27
0.739	12.15
0.742	12.12
0.745	12.01
0.748	11.91
0.751	11.72
0.754	11.77
0.757	11.71
0.76	11.62
0.763	11.63
0.766	11.61
0.769	11.53
0.772	11.41
0.775	11.54
0.778	11.43
0.781	11.48
0.784	11.4
0.787	11.46
0.79	11.34
0.793	11.41
0.796	11.55
0.799	11.54
0.808	11.98
0.82	12.2
0.832	12.53
0.844	12.89
0.856	13.3
0.868	13.57
0.88	13.6
0.892	13.84
0.904	13.8
0.916	13.69
0.928	13.7
0.94	13.55
0.952	13.45
0.964	13.44
0.976	13.43
0.988	13.47
1	13.58
1.012	13.72
1.024	13.84
1.036	13.95
1.048	14.08
1.06	14.12
1.072	14.28
1.084	14.27
1.096	14.37
1.108	14.45
1.12	14.47
1.132	14.49
1.144	14.54
1.156	14.6
1.168	14.57
1.18	14.87
1.192	14.92
1.204	15.03
1.216	15.3
1.228	15.52
1.24	15.76
1.252	16.03
1.264	16.35
1.276	16.67
1.288	17.04
1.3	17.32
1.312	17.69
1.324	18.02
1.336	18.42
1.348	18.79
1.36	19.16
1.372	19.53
1.384	19.95
1.396	20.25
1.408	20.71
1.42	21.05
1.432	21.53
1.444	22
1.456	22.31
1.468	22.71
1.48	23.05
1.492	23.57
1.504	23.94
1.516	24.3
1.528	24.69
1.54	25.13
1.552	25.51
1.564	25.93
1.576	26.36
1.588	26.78
1.6	27.12
1.612	27.56
1.624	27.87
1.636	28.32
1.648	28.73
1.66	29.08
1.672	29.57
1.684	29.94
1.696	30.2
1.708	30.68
1.72	31.1
1.732	31.47
1.744	31.78
1.756	32.2
1.768	32.66
1.78	32.89
1.792	33.33
1.804	33.71
1.816	34.06
1.828	34.38
1.84	34.76
1.852	35.18
1.864	35.43
1.876	35.8
1.888	36.03
1.9	36.25
1.912	36.47
1.924	36.95
1.936	37.3
1.948	37.67
1.96	38.03
1.972	38.47
1.984	38.89
1.996	39.22
2.008	39.62
2.02	39.88
2.032	40.3
2.044	40.63
2.056	40.98
2.068	41.3
2.08	41.62
2.092	41.89
2.104	42.23
2.116	42.65
2.128	42.81
2.14	43.13
2.152	43.34
2.164	43.51
2.176	43.72
2.188	43.84
2.2	44.06
2.212	44.25
2.224	44.53
2.236	44.7
2.248	44.94
2.26	45.2
2.272	45.36
2.284	45.61
2.296	45.87
2.308	46.19
2.32	46.51
2.332	46.74
2.344	46.95
2.356	47.22
2.368	47.46
2.38	47.64
2.392	47.71
2.404	48
2.416	48.21
2.428	48.44
2.44	48.66
2.452	48.89
2.464	49.12
2.476	49.37
2.488	49.76
2.5	50.15
