Name: Wollastonite CaSiO_3
Type: Mineral
Class: Silicate
Subclass: Inosilicate
Particle Size: Fine
Sample No.: IN-2A
Owner: JPL
Wavelength Range: VSWIR
Origin: USA, California, Inyo County, Panamint Mountains.
Description: Particle size was 0-45um.Collected by:  Burminco Original ASTER Spectral Library name was jpl.perkin.mineral.silicate.inosilicate.fine.in02a.spectrum.txt
Measurement: Hemispherical reflectance
X Units: Wavelength (micrometers)
Y Units: Reflectance (percent)
wavelength	value
2.5	77.4809
2.494	77.4763
2.488	77.4141
2.482	77.4205
2.476	77.6105
2.47	77.8721
2.464	77.905
2.458	78.1356
2.452	78.3288
2.446	78.381
2.44	78.4697
2.434	78.6942
2.428	78.7188
2.422	78.8244
2.416	78.875
2.41	78.8349
2.404	78.7655
2.398	78.7992
2.392	78.7808
2.386	78.854
2.38	78.955
2.374	78.9778
2.368	78.8682
2.362	78.6985
2.356	78.6225
2.35	78.6644
2.344	78.887
2.338	79.1258
2.332	79.3297
2.326	79.6838
2.32	80.1185
2.314	80.3268
2.308	80.5234
2.302	80.5454
2.296	80.4924
2.29	80.4797
2.284	80.4635
2.278	80.5016
2.272	80.4967
2.266	80.5748
2.26	80.6684
2.254	80.6639
2.248	80.6108
2.242	80.6103
2.236	80.6134
2.23	80.5952
2.224	80.7422
2.218	80.884
2.212	81.057
2.206	81.2268
2.2	81.5236
2.194	81.459
2.188	81.6274
2.182	81.7884
2.176	81.8583
2.17	82.0225
2.164	82.2171
2.158	82.3449
2.152	82.4757
2.146	82.5011
2.14	82.5322
2.134	82.4361
2.128	82.304
2.122	82.0215
2.116	81.8218
2.11	81.5092
2.104	81.2428
2.098	81.119
2.092	81.2252
2.086	81.2761
2.08	81.3453
2.074	81.4091
2.068	81.4469
2.062	81.5425
2.056	81.6285
2.05	81.6268
2.044	81.6766
2.038	81.7816
2.032	81.828
2.026	81.7012
2.02	81.6418
2.014	81.682
2.008	81.5565
2.002	81.6315
1.996	81.4673
1.99	81.3553
1.984	81.2652
1.978	81.18
1.972	81.0132
1.966	80.9559
1.96	80.9921
1.954	80.833
1.948	80.7842
1.942	80.7463
1.936	80.693
1.93	80.5667
1.924	80.4819
1.918	80.4594
1.912	80.6152
1.906	80.8889
1.9	81.3595
1.894	81.7142
1.888	82.0811
1.882	82.2374
1.876	82.3797
1.87	82.5457
1.864	82.6175
1.858	82.6111
1.852	82.7079
1.846	82.7155
1.84	82.7927
1.834	82.7512
1.828	82.7678
1.822	82.7719
1.816	82.8067
1.81	82.8566
1.804	82.8396
1.798	82.8519
1.792	82.8246
1.786	82.8467
1.78	82.8157
1.774	82.7819
1.768	82.8235
1.762	82.7855
1.756	82.8205
1.75	82.8107
1.744	82.8727
1.738	82.8531
1.732	82.9197
1.726	82.9812
1.72	82.9703
1.714	82.8866
1.708	82.9432
1.702	82.984
1.696	82.8989
1.69	82.8366
1.684	82.8789
1.678	82.9301
1.672	82.8363
1.666	82.8128
1.66	82.843
1.654	82.7861
1.648	82.7806
1.642	82.8651
1.636	82.8849
1.63	82.8114
1.624	82.8504
1.618	82.8196
1.612	82.8562
1.606	82.816
1.6	82.9449
1.594	82.8897
1.588	82.8831
1.582	82.9164
1.576	82.8209
1.57	82.7936
1.564	82.8507
1.558	82.8208
1.552	82.7819
1.546	82.8091
1.54	82.7554
1.534	82.713
1.528	82.7072
1.522	82.7421
1.516	82.658
1.51	82.6746
1.504	82.6235
1.498	82.6334
1.492	82.5283
1.486	82.4581
1.48	82.2881
1.474	82.3098
1.468	82.4168
1.462	82.4842
1.456	82.4485
1.45	82.5152
1.444	82.4742
1.438	82.3956
1.432	82.3345
1.426	82.3782
1.42	82.3884
1.414	82.3825
1.408	82.5343
1.402	82.5187
1.396	82.6147
1.39	82.7107
1.384	82.6972
1.378	82.6879
1.372	82.711
1.366	82.6734
1.36	82.6217
1.354	82.6718
1.348	82.5503
1.342	82.5871
1.336	82.5145
1.33	82.5506
1.324	82.4201
1.318	82.389
1.312	82.403
1.306	82.3454
1.3	82.2458
1.294	82.1994
1.288	82.1513
1.282	82.1803
1.276	82.0911
1.27	82.0332
1.264	81.959
1.258	81.9566
1.252	81.8584
1.246	81.8345
1.24	81.7838
1.234	81.695
1.228	81.6406
1.222	81.6088
1.216	81.5596
1.21	81.4625
1.204	81.4346
1.198	81.3952
1.192	81.3319
1.186	81.3385
1.18	81.2835
1.174	81.2758
1.168	81.2372
1.162	81.2478
1.156	81.2351
1.15	81.1834
1.144	81.2053
1.138	81.2067
1.132	81.2373
1.126	81.1718
1.12	81.2322
1.114	81.2457
1.108	81.2149
1.102	81.2525
1.096	81.2304
1.09	81.3057
1.084	81.2471
1.078	81.3845
1.072	81.3273
1.066	81.2832
1.06	81.4102
1.054	81.304
1.048	81.4552
1.042	81.3123
1.036	81.4237
1.03	81.4977
1.024	81.4901
1.018	81.4447
1.012	81.4666
1.006	81.4624
1	81.4969
0.994	81.4227
0.988	81.4851
0.982	81.4383
0.976	81.4625
0.97	81.4661
0.964	81.4737
0.958	81.5549
0.952	81.5196
0.946	81.565
0.94	81.599
0.934	81.6114
0.928	81.7388
0.922	81.7753
0.916	81.8299
0.91	81.9089
0.904	82.0084
0.898	82.0651
0.892	82.1704
0.886	82.2309
0.88	82.2809
0.874	82.3728
0.868	82.5038
0.862	82.5924
0.856	82.8495
0.85	82.9815
0.844	82.9556
0.838	83.07
0.832	83.0935
0.826	83.1678
0.82	83.1907
0.814	83.229
0.808	83.3323
0.802	83.433
0.796	83.3507
0.79	83.3446
0.784	83.3817
0.778	83.4076
0.772	83.399
0.766	83.4025
0.76	83.4441
0.754	83.4179
0.748	83.4136
0.742	83.4125
0.736	83.3955
0.73	83.3633
0.724	83.3453
0.718	83.3272
0.712	83.3068
0.706	83.2739
0.7	83.2328
0.694	83.1747
0.688	83.1284
0.682	83.1654
0.676	83.1277
0.67	83.0685
0.664	83.0242
0.658	83.0164
0.652	82.9701
0.646	82.9747
0.64	82.9405
0.634	82.9302
0.628	82.9014
0.622	82.909
0.616	82.8995
0.61	82.902
0.604	82.8934
0.598	82.8914
0.592	82.92
0.586	82.8929
0.58	82.8531
0.574	82.7982
0.568	82.7573
0.562	82.6883
0.556	82.5892
0.55	82.4932
0.544	82.3626
0.538	82.2554
0.532	82.1112
0.526	81.953
0.52	81.8076
0.514	81.6511
0.508	81.4648
0.502	81.2618
0.496	81.0603
0.49	80.8276
0.484	80.5759
0.478	80.3906
0.472	80.2054
0.466	79.9879
0.46	79.7885
0.454	79.5786
0.448	79.3449
0.442	79.1201
0.436	78.9143
0.43	78.6994
0.424	78.4549
0.418	78.2536
0.412	78.0004
0.406	77.7286
0.4	77.4868
