Name: Datolite CaBSiO4(OH)
Type: Mineral
Class: Silicate
Subclass: Nesosilicate
Particle Size: Fine
Sample No.: datolite_1
Owner: JHU
Wavelength Range: TIR
Origin: Hunt and Salisbury Collection #442B;  Sample fromConnecticut.
Description: White particulate samples appear to be pure datolite, with <<1% of the grains containing fluid inclusions. Particle size was less than 2 Micrometers.(Ring Silicates) (Humite Group) Original ASTER Spectral Library name was jhu.nicolet.mineral.silicate.nesosilicate.powder.datoli1.spectrum.txt
Measurement: Transmission
X Units: Wavelength (micrometers)
Y Units: Transmittance (percent)
wavelength	value
25.0442	87.8592
24.3388	83.0154
23.6719	51.9999
23.0407	85.0642
22.4422	79.8045
21.8741	76.8533
21.334	58.9959
20.8199	52.2186
20.33	24.4628
19.8627	15.7324
19.4163	28.1298
18.9896	20.1767
18.5812	38.2499
18.19	60.1571
17.815	81.575
17.4551	50.2704
17.1094	81.9969
16.7772	89.6775
16.4576	91.3171
16.15	91.6179
15.8537	92.3904
15.568	91.5759
15.2925	90.1091
15.0265	87.4021
14.7697	78.2977
14.5214	51.5253
14.2814	72.4295
14.0492	84.7742
13.8244	84.6736
13.6067	82.2425
13.3957	78.949
13.1912	73.0589
12.9929	61.1722
12.8004	30.4472
12.6135	39.3656
12.432	69.574
12.2557	65.7308
12.0843	56.5497
11.9176	41.0473
11.7555	18.6254
11.5977	28.9452
11.444	15.0551
11.2944	8.6875
11.1487	22.102
11.0067	11.2778
10.8682	5.2754
10.7332	6.5332
10.6015	6.7734
10.473	9.4922
10.3476	12.7993
10.2251	15.622
10.1056	9.2344
9.9887	7.7656
9.8746	8.7988
9.763	16.977
9.6539	5.8091
9.5472	5.0127
9.4429	8.2837
9.3408	13.8193
9.2409	17.2753
9.1431	11.4101
9.0474	11.5586
8.9536	18.8164
8.8618	29.2192
8.7718	32.4535
8.6837	22.455
8.5973	25.0947
8.5126	41.0321
8.4295	54.2499
8.3481	61.7003
8.2682	66.1085
8.1898	69.3653
8.1129	72.0486
8.0374	74.5059
7.9634	76.5896
7.8906	78.4034
7.8192	80.0108
7.7491	81.3084
7.6802	82.6612
7.6126	83.7971
7.5461	84.4004
7.4807	84.5039
7.4165	84.4424
7.3534	84.5371
7.2914	84.8506
7.2303	84.9082
7.1703	84.5686
7.1113	83.4492
7.0533	81.7156
6.9962	80.7713
6.94	80.8702
6.8847	81.493
6.8302	82.668
6.7767	84.3723
6.7239	85.9431
6.672	87.4675
6.6209	88.9187
6.5705	90.0645
6.5209	90.6199
6.4721	90.8235
6.424	91.2627
6.3766	91.9822
6.3299	92.4199
6.2838	92.8164
6.2385	93.3213
6.1937	94.1882
6.1496	94.3562
6.1062	94.4041
6.0633	94.3584
6.0211	94.2263
5.9794	94.6433
5.9383	94.8372
5.8978	95.1628
5.8578	95.3213
5.8184	95.5007
5.7794	95.96
5.741	96.3369
5.7031	96.6467
5.6657	96.7639
5.6288	96.7434
5.5924	96.5283
5.5564	96.3779
5.5209	96.3135
5.4859	96.1211
5.4513	96.0974
5.4171	95.9746
5.3833	95.8191
5.35	95.7947
5.3171	96.0867
5.2846	96.3142
5.2524	96.585
5.2207	96.8066
5.1893	96.9768
5.1584	97.2305
5.1277	97.3572
5.0975	97.4824
5.0676	97.5915
5.038	97.6472
5.0088	97.8047
4.98	97.8479
4.9514	98.0271
4.9232	98.1326
4.8953	98.2263
4.8678	98.281
4.8405	98.3396
4.8135	98.4934
4.7868	98.5823
4.7605	98.5642
4.7344	98.5915
4.7086	98.5388
4.6831	98.5383
4.6578	98.6077
4.6328	98.6877
4.6081	98.7737
4.5837	98.8337
4.5595	98.8581
4.5356	98.8538
4.5119	98.821
4.4884	98.8411
4.4652	98.8406
4.4423	98.8162
4.4196	98.7668
4.3971	98.7185
4.3748	98.8074
4.3528	98.7195
4.331	98.6824
4.3094	98.6443
4.288	98.5105
4.2668	98.4475
4.2458	98.4294
4.2251	98.5334
4.2045	98.6374
4.1841	98.6091
4.164	98.7087
4.144	98.5945
4.1242	98.5515
4.1046	98.6814
4.0852	98.5369
4.066	98.5295
4.047	98.5041
4.0281	98.3962
4.0094	98.2991
3.9909	98.3074
3.9725	98.1604
3.9544	98.1819
3.9363	98.1643
3.9185	98.2078
3.9008	98.2253
3.8833	98.0979
3.8659	98.0173
3.8487	98.1052
3.8316	98.0061
3.8147	97.9802
3.7979	97.9236
3.7813	97.9265
3.7648	97.8713
3.7485	97.8171
3.7323	97.6936
3.7162	97.6663
3.7003	97.5847
3.6845	97.5447
3.6689	97.4495
3.6534	97.4187
3.638	97.3611
3.6227	97.2595
3.6076	97.1951
3.5926	97.1423
3.5777	97.0623
3.563	96.9177
3.5484	96.7014
3.5338	96.5725
3.5195	96.385
3.5052	95.6838
3.491	96.0066
3.477	95.9241
3.463	95.8132
3.4492	95.5935
3.4355	95.2366
3.4219	94.4827
3.4084	94.6726
3.395	95.1072
3.3817	95.0823
3.3685	95.3669
3.3554	95.4666
3.3425	95.3533
3.3296	95.3147
3.3168	95.158
3.3041	95.1326
3.2915	95.0393
3.279	94.8127
3.2666	94.7009
3.2543	94.6819
3.2421	94.4744
3.23	94.3674
3.218	94.2131
3.206	94.0554
3.1942	93.9729
3.1824	93.8142
3.1707	93.635
3.1591	93.4548
3.1476	93.4031
3.1362	93.2371
3.1249	93.1169
3.1136	93.1502
3.1024	92.9109
3.0913	92.6355
3.0803	92.5037
3.0694	92.3543
3.0585	92.0525
3.0477	91.9187
3.037	91.5779
3.0264	91.5242
3.0158	91.4412
3.0053	91.3718
2.9949	91.2586
2.9845	91.2517
2.9743	91.3064
2.9641	91.3064
2.9539	91.2869
2.9439	91.1765
2.9339	90.9109
2.9239	90.0593
2.9141	88.5974
2.9043	86.9539
2.8946	83.45
2.8849	75.6873
2.8753	56.8407
2.8658	22.2773
2.8563	40.6229
2.8469	79.7078
2.8375	90.8211
2.8282	93.9539
2.819	94.9343
2.8098	95.1531
2.8007	95.238
2.7917	95.0632
2.7827	95.2507
2.7738	94.8474
2.7649	94.8875
2.7561	95.0085
2.7473	94.9685
2.7386	95.2429
2.7299	95.2742
2.7213	95.1531
2.7128	95.4382
2.7043	95.0242
2.6959	94.988
2.6875	94.8835
2.6791	95.0017
2.6709	94.9568
2.6626	94.4587
2.6545	94.6921
2.6463	94.4177
2.6382	94.3679
2.6302	94.1375
2.6222	94.0828
2.6143	93.9812
2.6064	93.9177
2.5986	93.9226
2.5908	94.1326
2.583	94.2
2.5753	93.9812
2.5677	93.6335
2.5601	93.5271
2.5525	93.5232
2.545	93.4216
2.5375	93.4822
2.5301	93.6052
2.5227	93.0173
2.5154	93.1716
2.5081	93.2771
2.5008	92.9294
2.4936	93.0134
2.4864	92.6599
2.4793	92.6502
2.4722	92.2654
2.4651	92.2205
2.4581	92.4783
2.4511	92.4705
2.4442	92.2498
2.4373	92.0798
2.4305	92.1912
2.4236	92.0857
2.4169	91.5701
2.4101	91.3748
2.4034	91.6951
2.3967	91.4607
2.3901	91.6365
2.3835	91.7263
2.377	91.949
2.3704	91.8689
2.364	91.8005
2.3575	91.8357
2.3511	91.8123
2.3447	91.7205
2.3384	91.283
2.3321	91.5349
2.3258	91.5193
2.3195	91.2966
2.3133	91.3533
2.3071	91.5857
2.301	91.156
2.2949	91.3591
2.2888	91.2283
2.2828	90.867
2.2767	90.906
2.2708	91.2205
2.2648	90.8318
2.2589	90.6091
2.253	91.1326
2.2471	90.7986
2.2413	90.658
2.2355	90.8611
2.2297	90.6795
2.224	90.3201
2.2183	90.8435
2.2126	90.5974
2.207	90.5642
2.2013	90.3748
2.1957	90.5564
2.1902	90.3357
2.1846	90.406
2.1791	90.1951
2.1736	90.2673
2.1682	90.3435
2.1628	90.1111
2.1574	90.5349
2.152	89.9021
2.1466	89.9568
2.1413	90.117
2.136	89.9256
2.1308	90.2107
2.1255	89.4763
2.1203	90.5115
2.1151	89.9256
2.11	90.3318
2.1048	90.1248
2.0997	90.117
2.0946	90.0701
2.0895	90.2888
2.0845	90.4099
2.0795	89.9568
