Name: Hemimorphite Zn_4Si_2O_7(OH)_2.H_2O
Type: Mineral
Class: Silicate
Subclass: Sorosilicate
Particle Size: Fine
Sample No.: SS-2A
Owner: JPL
Wavelength Range: TIR
Origin: Mexico, Durango, Ojuela Mine
Description: Particle size was 0-45um.Collected by Burminco Original ASTER Spectral Library name was jpl.nicolet.mineral.silicate.sorosilicate.fine.ss02a.spectrum.txt
Measurement: Hemispherical reflectance
X Units: Wavelength (micrometers)
Y Units: Reflectance (percent)
wavelength	value
15.3853	2.593
15.1161	2.7447
14.8563	3.1883
14.6052	2.1784
14.3624	2.3553
14.1276	2.6789
13.9004	3.5905
13.6803	4.7172
13.4671	5.2612
13.2604	5.8523
13.06	6.7966
12.8656	7.5761
12.6769	7.9181
12.4936	7.875
12.3155	7.8239
12.1425	7.9606
11.9742	7.8681
11.8106	6.7382
11.6513	6.2505
11.4963	7.3989
11.3454	6.0101
11.1983	5.3447
11.0551	5.6899
10.9154	6.3981
10.7793	9.2636
10.6465	9.6614
10.5169	8.5441
10.3904	9.1455
10.267	9.4794
10.1464	9.1514
10.0287	7.6504
9.9136	4.5375
9.8012	2.537
9.6913	1.837
9.5838	1.6136
9.4787	2.0725
9.3758	2.5581
9.2752	3.4011
9.1767	5.0215
9.0803	6.8023
8.9858	6.8303
8.8934	3.8073
8.8028	2.6716
8.714	2.8994
8.627	3.0801
8.5417	4.061
8.4581	5.1552
8.3761	6.3863
8.2957	7.2355
8.2169	8.2262
8.1395	9.3894
8.0635	11.085
7.989	12.3774
7.9158	13.9685
7.8439	15.7262
7.7734	16.9229
7.7041	18.1274
7.636	19.6639
7.5691	21.1468
7.5034	22.3959
7.4388	23.1559
7.3753	22.5481
7.3129	21.0944
7.2515	20.4939
7.1912	20.8998
7.1318	21.5537
7.0734	21.9512
7.016	21.4283
6.9595	21.4415
6.9039	20.9813
6.8492	21.4005
6.7953	22.2592
6.7423	22.7716
6.6901	23.6917
6.6387	25.29
6.5881	24.8702
6.5382	23.3453
6.4892	21.694
6.4408	21.9163
6.3931	23.5857
6.3462	24.7486
6.2999	22.8477
6.2543	20.1919
6.2094	15.6466
6.1651	9.3879
6.1214	3.9583
6.0784	6.4269
6.0359	12.966
5.994	18.8544
5.9527	23.4294
5.912	26.9569
5.8718	29.6102
5.8322	31.1276
5.7931	31.5566
5.7545	31.5396
5.7165	29.2488
5.6789	25.1848
5.6418	26.0635
5.6052	24.7599
5.5691	22.8816
5.5334	26.2545
5.4982	27.9924
5.4635	28.5747
5.4291	27.7862
5.3952	25.3553
5.3618	24.5906
5.3287	24.4473
5.2961	24.8663
5.2638	24.8613
5.2319	25.0975
5.2004	25.5222
5.1693	26.4016
5.1386	28.0095
5.1082	29.114
5.0782	29.8327
5.0485	30.4756
5.0192	30.7658
4.9902	30.2929
4.9616	29.766
4.9332	30.1955
4.9052	30.8695
4.8776	31.7534
4.8502	32.6045
4.8231	33.8781
4.7963	35.3867
4.7699	37.0732
4.7437	38.5334
4.7178	40.1182
4.6922	41.5573
4.6668	43.2365
4.6418	45.1947
4.617	46.9597
4.5924	48.6418
4.5681	50.254
4.5441	51.7584
4.5203	53.0375
4.4968	54.4551
4.4735	55.6409
4.4505	56.9382
4.4277	58.274
4.4051	59.498
4.3828	60.5319
4.3607	61.5892
4.3388	62.3965
4.3171	63.3103
4.2956	64.1915
4.2744	65.0485
4.2534	65.4484
4.2325	66.5262
4.2119	66.7087
4.1915	67.0099
4.1712	67.4418
4.1512	67.8922
4.1313	68.2632
4.1117	68.5057
4.0922	68.7026
4.0729	68.9127
4.0538	68.666
4.0349	67.8015
4.0161	66.4873
3.9976	63.4238
3.9792	61.5711
3.9609	62.779
3.9428	65.8437
3.9249	67.0253
3.9072	67.3824
3.8896	67.6812
3.8722	67.7987
3.8549	68.0754
3.8378	68.3726
3.8208	69.5073
3.804	70.6132
3.7873	71.2422
3.7708	71.4587
3.7544	71.3245
3.7382	71.2571
3.7221	71.0844
3.7061	70.8344
3.6903	70.3758
3.6746	70.209
3.659	69.9741
3.6436	69.6753
3.6283	69.3235
3.6131	68.871
3.5981	68.3492
3.5832	67.7712
3.5684	67.1097
3.5537	66.5122
3.5391	65.6236
3.5247	64.1886
3.5104	62.1589
3.4962	60.7585
3.4821	59.494
3.4681	59.5048
3.4543	59.5153
3.4405	58.5974
3.4269	57.4674
3.4133	56.2463
3.3999	55.1867
3.3866	53.9331
3.3733	52.6643
3.3602	51.0232
3.3472	49.5484
3.3343	49.1782
3.3215	47.6108
3.3088	46.1095
3.2961	44.2412
3.2836	42.4264
3.2712	40.5295
3.2588	38.6781
3.2466	36.8388
3.2345	34.8686
3.2224	33.0095
3.2104	31.0979
3.1985	29.0804
3.1867	27.2258
3.175	25.0686
3.1634	23.2467
3.1519	21.3452
3.1404	19.5219
3.129	17.6367
3.1178	15.9072
3.1065	13.9746
3.0954	12.4487
3.0844	11.5125
3.0734	11.6448
3.0625	11.1495
3.0517	10.4653
3.041	9.6041
3.0303	8.8136
3.0197	8.4223
3.0092	7.7091
2.9987	7.3384
2.9884	6.8323
2.9781	6.4787
2.9678	5.9778
2.9577	5.6721
2.9476	5.1919
2.9376	4.747
2.9276	4.4197
2.9177	4.2649
2.9079	3.9119
2.8982	3.7983
2.8885	3.5671
2.8789	3.5528
2.8693	3.6162
2.8598	3.5046
2.8504	3.5444
2.841	3.6598
2.8317	4.0691
2.8224	3.9027
2.8133	4.0008
2.8041	4.1817
2.7951	4.3385
2.786	4.5349
2.7771	4.577
2.7682	5.293
2.7594	5.7283
2.7506	7.3452
2.7418	9.8807
2.7332	12.0012
2.7246	15.5945
2.716	18.5796
2.7075	21.7879
2.699	24.7671
2.6906	27.8751
2.6823	30.3397
2.674	32.7258
2.6657	35.7154
2.6575	36.0863
2.6494	37.6926
2.6413	39.2573
2.6332	40.6237
2.6252	41.8431
2.6173	43.5158
2.6094	44.0198
2.6015	44.9265
2.5937	46.9421
2.5859	46.724
2.5782	47.4462
2.5706	48.2581
2.5629	49.4089
2.5554	49.5725
2.5478	50.7435
2.5403	51.0529
2.5329	52.1818
2.5255	52.9285
2.5181	53.8716
2.5108	54.8566
2.5035	55.9993
2.4963	57.0416
2.4891	57.9635
2.482	59.0657
2.4749	59.8872
2.4678	60.9759
2.4608	61.5849
2.4538	62.2352
2.4468	62.6356
2.4399	63
2.4331	63.5498
2.4262	64.0109
2.4194	64.7471
2.4127	65.273
2.4059	65.8707
2.3993	66.4855
2.3926	67.1724
2.386	67.7989
2.3795	68.6816
2.3729	69.5232
2.3664	70.721
2.36	72.1332
2.3535	73.3775
2.3471	74.6778
2.3408	75.8813
2.3345	76.9354
2.3282	77.9905
2.3219	78.4413
2.3157	79.036
2.3095	79.3242
2.3034	79.8196
2.2972	80.0454
2.2911	80.1193
2.2851	80.1601
2.279	80.3482
2.2731	80.466
2.2671	80.301
2.2612	80.2009
2.2553	80.1021
2.2494	80.0296
2.2435	79.5929
2.2377	79.2684
2.232	78.9958
2.2262	78.6828
2.2205	78.6571
2.2148	78.8847
2.2091	79.0091
2.2035	79.3474
2.1979	79.8262
2.1923	80.2169
2.1868	80.4814
2.1812	81.339
2.1758	81.888
2.1703	82.2929
2.1649	82.8147
2.1595	83.2476
2.1541	83.4731
2.1487	83.7138
2.1434	84.3409
2.1381	84.6149
2.1328	84.8622
2.1275	85.0293
2.1223	85.3654
2.1171	85.581
2.112	85.859
2.1068	85.942
2.1017	86.1959
2.0966	85.9956
2.0915	86.0725
2.0865	86.0353
2.0814	86.118
2.0764	86.2399
2.0715	85.8076
2.0665	86.1054
2.0616	85.965
2.0567	86.0075
2.0518	85.5966
2.0469	85.4008
2.0421	85.0487
2.0373	84.8051
2.0325	84.6313
2.0277	84.422
2.0229	83.5605
2.0182	83.332
2.0135	82.6999
2.0088	82.2192
2.0042	81.3394
