Name: Azurite Cu_3(CO_3)_2(OH)_2
Type: Mineral
Class: Carbonate
Subclass: None
Particle Size: Coarse
Sample No.: C-12A
Owner: JPL
Wavelength Range: VSWIR
Origin: USA, California, San Bernadino County, Near Valley Wells.
Description: Particle size was 125-500um.Collected by:  Burminco Original ASTER Spectral Library name was jpl.perkin.mineral.carbonate.none.coarse.c12a.spectrum.txt
Measurement: Hemispherical reflectance
X Units: Wavelength (micrometers)
Y Units: Reflectance (percent)
wavelength	value
2.5	7.5577
2.494	7.4746
2.488	7.6336
2.482	7.8681
2.476	7.9958
2.47	8.1241
2.464	8.39
2.458	8.6004
2.452	8.6296
2.446	8.7316
2.44	8.8717
2.434	8.9765
2.428	9.1484
2.422	9.1868
2.416	9.2555
2.41	9.3482
2.404	9.4426
2.398	9.4943
2.392	9.5963
2.386	9.7018
2.38	9.9693
2.374	10.0887
2.368	10.0636
2.362	9.9751
2.356	9.8909
2.35	10.1199
2.344	10.648
2.338	11.4585
2.332	12.4009
2.326	13.1728
2.32	13.8008
2.314	13.9387
2.308	13.8859
2.302	13.3579
2.296	12.548
2.29	11.6302
2.284	10.9696
2.278	10.8465
2.272	11.1991
2.266	11.7236
2.26	12.3424
2.254	12.8925
2.248	13.6976
2.242	14.8593
2.236	16.064
2.23	16.978
2.224	17.6159
2.218	17.879
2.212	18.0063
2.206	18.4713
2.2	19.4392
2.194	20.4252
2.188	21.0877
2.182	21.6131
2.176	21.9415
2.17	22.3844
2.164	22.7301
2.158	23.1791
2.152	23.5352
2.146	23.6289
2.14	23.7769
2.134	23.7658
2.128	23.6084
2.122	23.3751
2.116	23.0155
2.11	22.7228
2.104	22.4578
2.098	22.2612
2.092	22.018
2.086	21.7761
2.08	21.4433
2.074	21.0561
2.068	20.5647
2.062	20.0566
2.056	19.5891
2.05	19.1303
2.044	18.5857
2.038	18.1738
2.032	17.8207
2.026	17.2156
2.02	16.8088
2.014	16.299
2.008	15.8486
2.002	15.3182
1.996	14.6639
1.99	14.1802
1.984	13.5194
1.978	13.0465
1.972	12.5877
1.966	12.2008
1.96	11.8784
1.954	11.5126
1.948	11.197
1.942	10.8323
1.936	10.5495
1.93	10.2331
1.924	9.9352
1.918	9.5533
1.912	9.3252
1.906	9.6885
1.9	11.1432
1.894	13.5339
1.888	16.6517
1.882	19.7807
1.876	22.5483
1.87	25.0835
1.864	26.6046
1.858	27.4868
1.852	28.0452
1.846	28.3027
1.84	28.3841
1.834	28.5166
1.828	28.477
1.822	28.4326
1.816	28.2918
1.81	28.1622
1.804	28.0098
1.798	27.8345
1.792	27.7436
1.786	27.5777
1.78	27.5348
1.774	27.4256
1.768	27.3756
1.762	27.3486
1.756	27.367
1.75	27.2463
1.744	27.2155
1.738	27.1235
1.732	26.9755
1.726	26.9081
1.72	26.7717
1.714	26.6596
1.708	26.4905
1.702	26.3583
1.696	26.1219
1.69	25.9452
1.684	25.7727
1.678	25.6349
1.672	25.4192
1.666	25.1925
1.66	24.9829
1.654	24.7405
1.648	24.4596
1.642	24.3119
1.636	23.9725
1.63	23.6454
1.624	23.4269
1.618	23.2181
1.612	22.9095
1.606	22.7003
1.6	22.3778
1.594	22.1131
1.588	21.8468
1.582	21.5401
1.576	21.2968
1.57	20.9552
1.564	20.6725
1.558	20.3074
1.552	20
1.546	19.6779
1.54	19.2264
1.534	18.8472
1.528	18.4103
1.522	17.9702
1.516	17.4796
1.51	16.9036
1.504	16.1286
1.498	15.7739
1.492	15.4947
1.486	15.3339
1.48	15.1916
1.474	14.9854
1.468	14.7862
1.462	14.5618
1.456	14.456
1.45	14.2918
1.444	14.0708
1.438	13.7579
1.432	13.3768
1.426	12.8709
1.42	12.3718
1.414	11.4826
1.408	12.2499
1.402	13.6431
1.396	14.7537
1.39	15.3818
1.384	15.6581
1.378	15.9769
1.372	16.1582
1.366	16.2063
1.36	16.1111
1.354	16.008
1.348	15.8483
1.342	15.6479
1.336	15.5485
1.33	15.5165
1.324	15.2729
1.318	15.1642
1.312	15.0001
1.306	14.8617
1.3	14.754
1.294	14.588
1.288	14.3636
1.282	14.2262
1.276	14.0853
1.27	13.8875
1.264	13.6807
1.258	13.5157
1.252	13.391
1.246	13.2268
1.24	13.0185
1.234	12.8737
1.228	12.7204
1.222	12.5308
1.216	12.3202
1.21	12.2366
1.204	12.083
1.198	11.8511
1.192	11.7014
1.186	11.5365
1.18	11.3403
1.174	11.2119
1.168	11.0527
1.162	10.8983
1.156	10.6886
1.15	10.5569
1.144	10.4521
1.138	10.2491
1.132	10.1081
1.126	9.9739
1.12	9.808
1.114	9.6281
1.108	9.4634
1.102	9.2799
1.096	9.1134
1.09	8.9314
1.084	8.7045
1.078	8.5171
1.072	8.3569
1.066	8.1511
1.06	8.0104
1.054	7.8331
1.048	7.5524
1.042	7.396
1.036	7.2382
1.03	7.0309
1.024	6.8123
1.018	6.6068
1.012	6.4214
1.006	6.2154
1	6.0359
0.994	5.8512
0.988	5.6742
0.982	5.5233
0.976	5.324
0.97	5.1408
0.964	5.0158
0.958	4.8692
0.952	4.6803
0.946	4.5594
0.94	4.4376
0.934	4.3268
0.928	4.1925
0.922	4.0435
0.916	3.9761
0.91	3.864
0.904	3.8264
0.898	3.7038
0.892	3.6641
0.886	3.6185
0.88	3.6252
0.874	3.4773
0.868	3.5278
0.862	3.4633
0.856	3.7518
0.85	3.7045
0.844	3.6818
0.838	3.6537
0.832	3.6199
0.826	3.598
0.82	3.5755
0.814	3.5635
0.808	3.5465
0.802	3.5292
0.796	3.5147
0.79	3.5053
0.784	3.4987
0.778	3.4858
0.772	3.4785
0.766	3.4788
0.76	3.4801
0.754	3.4858
0.748	3.4918
0.742	3.5067
0.736	3.5204
0.73	3.5452
0.724	3.5733
0.718	3.6087
0.712	3.6486
0.706	3.6984
0.7	3.755
0.694	3.8255
0.688	3.908
0.682	4.0016
0.676	4.1109
0.67	4.2414
0.664	4.3826
0.658	4.5633
0.652	4.7743
0.646	5.024
0.64	5.3134
0.634	5.6553
0.628	6.0541
0.622	6.5263
0.616	7.0756
0.61	7.7132
0.604	8.4481
0.598	9.2739
0.592	10.2222
0.586	11.2675
0.58	12.3982
0.574	13.5834
0.568	14.789
0.562	15.9519
0.556	17.0075
0.55	17.8605
0.544	18.5474
0.538	18.9898
0.532	19.1954
0.526	19.1952
0.52	19.0485
0.514	18.7856
0.508	18.444
0.502	18.0511
0.496	17.6737
0.49	17.2597
0.484	16.8261
0.478	16.4551
0.472	16.0521
0.466	15.6032
0.46	15.1298
0.454	14.5841
0.448	13.9513
0.442	13.2317
0.436	12.4748
0.43	11.6921
0.424	10.9559
0.418	10.2269
0.412	9.5001
0.406	8.7732
0.4	8.0017
