Name: Actinolite Ca_2(Mg,Fe^2+)_5Si_8O_22(OH)_2
Type: Mineral
Class: Silicate
Subclass: Inosilicate
Particle Size: Coarse
Sample No.: IN-4A
Owner: JPL
Wavelength Range: VSWIR
Origin: USA, California, San Bernadino County, Wrightwood.
Description: Particle size was 125-500um.Collected by:  Burminco Original ASTER Spectral Library name was jpl.perkin.mineral.silicate.inosilicate.coarse.in04a.spectrum.txt
Measurement: Hemispherical reflectance
X Units: Wavelength (micrometers)
Y Units: Reflectance (percent)
wavelength	value
2.5	28.489
2.494	27.8692
2.488	27.8372
2.482	27.6617
2.476	27.5648
2.47	27.4751
2.464	27.5054
2.458	27.5757
2.452	27.8758
2.446	28.1605
2.44	28.4127
2.434	28.7497
2.428	28.8784
2.422	28.4674
2.416	27.9398
2.41	27.2474
2.404	26.0876
2.398	24.2554
2.392	22.4424
2.386	21.6164
2.38	22.4818
2.374	24.6854
2.368	27.1528
2.362	28.94
2.356	29.9974
2.35	30.3438
2.344	29.8645
2.338	28.2485
2.332	25.4195
2.326	21.9535
2.32	19.2031
2.314	17.8602
2.308	17.9171
2.302	18.7529
2.296	20.1219
2.29	22.3709
2.284	25.0552
2.278	27.6033
2.272	30.0778
2.266	32.478
2.26	34.1858
2.254	34.9453
2.248	35.2805
2.242	36.126
2.236	37.8844
2.23	39.3678
2.224	40.2397
2.218	40.6676
2.212	41.1152
2.206	41.3972
2.2	41.7634
2.194	42.0934
2.188	42.4255
2.182	42.6913
2.176	42.9876
2.17	43.3677
2.164	43.4489
2.158	43.5465
2.152	43.6345
2.146	43.7659
2.14	43.7958
2.134	43.5656
2.128	43.4668
2.122	43.4494
2.116	43.5059
2.11	44.2246
2.104	45.6356
2.098	46.6095
2.092	47.0419
2.086	47.487
2.08	48.1783
2.074	48.7135
2.068	49.2144
2.062	49.6059
2.056	50.0302
2.05	50.6258
2.044	51.3591
2.038	51.9577
2.032	52.3354
2.026	52.4273
2.02	52.5288
2.014	52.6677
2.008	52.9537
2.002	53.2712
1.996	53.7103
1.99	54.1763
1.984	54.6719
1.978	55.2352
1.972	55.6054
1.966	56.0619
1.96	56.3937
1.954	56.7834
1.948	57.0918
1.942	57.4169
1.936	57.7144
1.93	57.8703
1.924	58.1589
1.918	58.5099
1.912	58.7814
1.906	58.9487
1.9	59.2347
1.894	59.4834
1.888	59.8336
1.882	60.2629
1.876	60.5145
1.87	60.6123
1.864	60.9632
1.858	61.1687
1.852	61.4946
1.846	61.8004
1.84	62.1348
1.834	62.3716
1.828	62.5682
1.822	62.807
1.816	63.0749
1.81	63.2899
1.804	63.3966
1.798	63.5476
1.792	63.6457
1.786	63.6543
1.78	63.7212
1.774	63.7409
1.768	63.7674
1.762	63.7591
1.756	63.7493
1.75	63.7458
1.744	63.8353
1.738	63.8502
1.732	63.859
1.726	63.8079
1.72	63.8768
1.714	63.7542
1.708	63.7337
1.702	63.579
1.696	63.562
1.69	63.4453
1.684	63.363
1.678	63.3422
1.672	63.1798
1.666	63.0467
1.66	62.9455
1.654	62.7791
1.648	62.6933
1.642	62.5403
1.636	62.3356
1.63	62.1719
1.624	62.1003
1.618	61.8795
1.612	61.6632
1.606	61.4408
1.6	61.326
1.594	61.082
1.588	60.9232
1.582	60.6859
1.576	60.3854
1.57	60.1199
1.564	59.9054
1.558	59.6326
1.552	59.2965
1.546	58.9589
1.54	58.7059
1.534	58.4278
1.528	58.1925
1.522	58.0097
1.516	57.7072
1.51	57.4176
1.504	57.0343
1.498	56.6939
1.492	56.4259
1.486	56.055
1.48	55.6707
1.474	55.2719
1.468	54.8956
1.462	54.5335
1.456	54.0973
1.45	53.6196
1.444	53.1896
1.438	52.792
1.432	52.2308
1.426	51.4346
1.42	49.8939
1.414	47.1704
1.408	42.8733
1.402	37.2693
1.396	30.4966
1.39	40.1719
1.384	47.0211
1.378	46.5973
1.372	46.5269
1.366	46.5382
1.36	45.8747
1.354	45.3111
1.348	44.6693
1.342	43.9699
1.336	43.2379
1.33	42.6302
1.324	41.7805
1.318	41.1193
1.312	40.3992
1.306	39.5679
1.3	38.7444
1.294	38.1247
1.288	37.3531
1.282	36.5154
1.276	35.7189
1.27	35.1321
1.264	34.3895
1.258	33.7119
1.252	33.0052
1.246	32.2631
1.24	31.5704
1.234	30.8402
1.228	30.1809
1.222	29.4989
1.216	28.8956
1.21	28.3049
1.204	27.5989
1.198	27.0287
1.192	26.5274
1.186	26.0075
1.18	25.4233
1.174	24.838
1.168	24.3685
1.162	23.768
1.156	23.216
1.15	22.732
1.144	22.1633
1.138	21.5468
1.132	20.9583
1.126	20.3238
1.12	19.7008
1.114	19.0323
1.108	18.4082
1.102	17.6161
1.096	16.9454
1.09	16.2333
1.084	15.4384
1.078	14.7267
1.072	14.004
1.066	13.552
1.06	13.0344
1.054	12.5456
1.048	12.2169
1.042	12.0298
1.036	11.91
1.03	11.867
1.024	11.8697
1.018	11.9112
1.012	12.1062
1.006	12.1963
1	12.4743
0.994	12.6912
0.988	12.8846
0.982	13.2372
0.976	13.5383
0.97	13.8799
0.964	14.2037
0.958	14.4619
0.952	14.779
0.946	15.1499
0.94	15.4338
0.934	15.7794
0.928	16.008
0.922	16.3413
0.916	16.5486
0.91	16.8015
0.904	17.0479
0.898	17.3344
0.892	17.4675
0.886	17.6672
0.88	17.9035
0.874	18.1452
0.868	18.4129
0.862	18.632
0.856	19.3134
0.85	19.6335
0.844	19.9071
0.838	20.212
0.832	20.4441
0.826	20.74
0.82	20.9702
0.814	21.1935
0.808	21.369
0.802	21.4878
0.796	21.5531
0.79	21.5598
0.784	21.5423
0.778	21.4535
0.772	21.35
0.766	21.2121
0.76	21.0754
0.754	20.9099
0.748	20.7511
0.742	20.5627
0.736	20.3727
0.73	20.1936
0.724	19.986
0.718	19.7677
0.712	19.5519
0.706	19.3048
0.7	19.0449
0.694	18.8527
0.688	18.9202
0.682	18.927
0.676	18.7491
0.67	18.6149
0.664	18.5572
0.658	18.5763
0.652	18.686
0.646	18.8108
0.64	18.9275
0.634	19.1469
0.628	19.4381
0.622	19.7798
0.616	20.1598
0.61	20.5713
0.604	21.011
0.598	21.4703
0.592	21.9442
0.586	22.4052
0.58	22.855
0.574	23.2769
0.568	23.6636
0.562	23.9933
0.556	24.2173
0.55	24.3078
0.544	24.4703
0.538	24.6197
0.532	24.6057
0.526	24.4867
0.52	24.2893
0.514	23.8505
0.508	23.1689
0.502	22.9372
0.496	22.3024
0.49	21.7321
0.484	21.2397
0.478	20.6375
0.472	19.9589
0.466	19.3154
0.46	18.7634
0.454	18.2614
0.448	17.8276
0.442	17.4856
0.436	17.5252
0.43	17.2074
0.424	16.7292
0.418	16.2117
0.412	15.6976
0.406	15.2415
0.4	14.8203
