Name: Pyrolusite MnO_2
Type: Mineral
Class: Oxide
Subclass: none
Particle Size: Fine
Sample No.: O-6A
Owner: JPL
Wavelength Range: VSWIR
Origin: Mexico, Chihuahua.
Description: Particle size was 0-45umCollected by:  Grieger's Inc. Original ASTER Spectral Library name was jpl.perkin.mineral.oxide.none.fine.o06a.spectrum.txt
Measurement: Hemispherical reflectance
X Units: Wavelength (micrometers)
Y Units: Reflectance (percent)
wavelength	value
2.5	11.7816
2.494	11.8994
2.488	11.8616
2.482	11.8931
2.476	11.8149
2.47	11.8187
2.464	11.7341
2.458	11.7205
2.452	11.766
2.446	11.7052
2.44	11.7603
2.434	11.668
2.428	11.6909
2.422	11.7216
2.416	11.6805
2.41	11.6166
2.404	11.617
2.398	11.5243
2.392	11.5372
2.386	11.5422
2.38	11.6474
2.374	11.6511
2.368	11.5245
2.362	11.4484
2.356	11.5039
2.35	11.4841
2.344	11.4542
2.338	11.5158
2.332	11.4433
2.326	11.4316
2.32	11.4312
2.314	11.3432
2.308	11.3276
2.302	11.3414
2.296	11.335
2.29	11.2416
2.284	11.2401
2.278	11.2234
2.272	11.075
2.266	11.1794
2.26	11.1694
2.254	11.147
2.248	11.0769
2.242	11.0633
2.236	11.0075
2.23	11.0298
2.224	11.041
2.218	10.9948
2.212	11.0882
2.206	11.0535
2.2	10.9108
2.194	10.965
2.188	11.002
2.182	10.9942
2.176	10.9881
2.17	10.9318
2.164	10.9516
2.158	10.9982
2.152	10.9944
2.146	10.9253
2.14	10.9386
2.134	10.8824
2.128	10.8858
2.122	10.7483
2.116	10.7225
2.11	10.7226
2.104	10.5793
2.098	10.6639
2.092	10.6307
2.086	10.5829
2.08	10.5729
2.074	10.5978
2.068	10.5462
2.062	10.5237
2.056	10.5511
2.05	10.5172
2.044	10.4593
2.038	10.4515
2.032	10.4728
2.026	10.4444
2.02	10.3805
2.014	10.3565
2.008	10.3344
2.002	10.362
1.996	10.3161
1.99	10.3025
1.984	10.2935
1.978	10.2793
1.972	10.2297
1.966	10.156
1.96	10.2133
1.954	10.0825
1.948	10.1246
1.942	10.15
1.936	10.1254
1.93	10.0139
1.924	10.0109
1.918	10.0097
1.912	10.0516
1.906	10.0159
1.9	9.9826
1.894	9.9998
1.888	9.9503
1.882	9.9043
1.876	9.9301
1.87	9.8216
1.864	9.8749
1.858	9.88
1.852	9.8243
1.846	9.8258
1.84	9.7975
1.834	9.6868
1.828	9.6705
1.822	9.6739
1.816	9.6279
1.81	9.6006
1.804	9.6068
1.798	9.5661
1.792	9.5149
1.786	9.5335
1.78	9.44
1.774	9.4181
1.768	9.4439
1.762	9.424
1.756	9.3705
1.75	9.3631
1.744	9.3072
1.738	9.3223
1.732	9.252
1.726	9.2173
1.72	9.2083
1.714	9.2022
1.708	9.1857
1.702	9.1855
1.696	9.1124
1.69	9.0782
1.684	8.9967
1.678	8.9177
1.672	8.9372
1.666	8.9874
1.66	8.9368
1.654	8.9465
1.648	8.8272
1.642	8.9023
1.636	8.8321
1.63	8.7802
1.624	8.7486
1.618	8.678
1.612	8.7674
1.606	8.6649
1.6	8.6819
1.594	8.6281
1.588	8.6887
1.582	8.5938
1.576	8.6197
1.57	8.5387
1.564	8.5184
1.558	8.4812
1.552	8.448
1.546	8.5071
1.54	8.4141
1.534	8.4231
1.528	8.3844
1.522	8.3488
1.516	8.3312
1.51	8.3359
1.504	8.2252
1.498	8.2406
1.492	8.1717
1.486	8.2077
1.48	8.1034
1.474	8.1409
1.468	8.1184
1.462	8.097
1.456	8.0567
1.45	8.0105
1.444	7.9238
1.438	7.9667
1.432	7.9456
1.426	7.8474
1.42	7.8713
1.414	7.7855
1.408	7.7445
1.402	7.7649
1.396	7.69
1.39	7.5903
1.384	7.5562
1.378	7.4252
1.372	7.3848
1.366	7.3225
1.36	7.1983
1.354	7.1794
1.348	7.0427
1.342	6.9967
1.336	6.9623
1.33	6.8946
1.324	6.8017
1.318	6.6539
1.312	6.5528
1.306	6.457
1.3	6.3902
1.294	6.249
1.288	6.2195
1.282	6.1221
1.276	5.9818
1.27	5.9633
1.264	5.8811
1.258	5.7756
1.252	5.7159
1.246	5.6186
1.24	5.5501
1.234	5.4755
1.228	5.4305
1.222	5.3872
1.216	5.2737
1.21	5.2536
1.204	5.1902
1.198	5.1374
1.192	5.0323
1.186	5.0476
1.18	4.8529
1.174	4.8183
1.168	4.8477
1.162	4.7557
1.156	4.7353
1.15	4.6677
1.144	4.6469
1.138	4.6181
1.132	4.5365
1.126	4.4952
1.12	4.5027
1.114	4.4571
1.108	4.3413
1.102	4.3821
1.096	4.3582
1.09	4.2989
1.084	4.1951
1.078	4.2333
1.072	4.1878
1.066	4.1327
1.06	4.1855
1.054	4.1337
1.048	4.0358
1.042	4.0603
1.036	4.1441
1.03	4.072
1.024	4.0909
1.018	3.9921
1.012	4.016
1.006	3.9074
1	3.9013
0.994	3.9223
0.988	4.0381
0.982	3.9008
0.976	3.9378
0.97	3.9137
0.964	3.9805
0.958	3.9599
0.952	3.9158
0.946	3.8811
0.94	3.8697
0.934	3.886
0.928	3.9407
0.922	3.8716
0.916	3.8973
0.91	3.8894
0.904	3.8215
0.898	3.8028
0.892	3.8846
0.886	3.848
0.88	3.8024
0.874	3.8958
0.868	3.7979
0.862	3.8356
0.856	3.9734
0.85	3.964
0.844	3.9705
0.838	3.9621
0.832	3.9543
0.826	3.9518
0.82	3.942
0.814	3.9438
0.808	3.9334
0.802	3.9339
0.796	3.9305
0.79	3.9232
0.784	3.9235
0.778	3.9143
0.772	3.9111
0.766	3.9043
0.76	3.9016
0.754	3.8924
0.748	3.8973
0.742	3.8951
0.736	3.8973
0.73	3.8943
0.724	3.8946
0.718	3.8925
0.712	3.896
0.706	3.9015
0.7	3.9033
0.694	3.9062
0.688	3.9069
0.682	3.9126
0.676	3.9169
0.67	3.9238
0.664	3.93
0.658	3.9374
0.652	3.9469
0.646	3.9546
0.64	3.9643
0.634	3.9741
0.628	3.9867
0.622	3.9981
0.616	4.0108
0.61	4.0224
0.604	4.0402
0.598	4.0512
0.592	4.0693
0.586	4.0822
0.58	4.0985
0.574	4.1164
0.568	4.1308
0.562	4.1474
0.556	4.1638
0.55	4.1844
0.544	4.1944
0.538	4.2134
0.532	4.2351
0.526	4.2595
0.52	4.2817
0.514	4.3129
0.508	4.342
0.502	4.3725
0.496	4.4006
0.49	4.4264
0.484	4.4395
0.478	4.4579
0.472	4.4825
0.466	4.51
0.46	4.5401
0.454	4.5656
0.448	4.5918
0.442	4.6164
0.436	4.6323
0.43	4.6547
0.424	4.6794
0.418	4.7019
0.412	4.728
0.406	4.7514
0.4	4.7758
