Name: Clinochlore (Fe+2,Mg)5Al(Si3Al)O10(OH)8
Type: Mineral
Class: Silicate
Subclass: Phyllosilicate
Particle Size: Solid
Sample No.: clinochl_2
Owner: JHU
Wavelength Range: TIR
Origin: Hunt and Salisbury Collection (from the Clay Mineral SocietyRepository #CCA-1); orign, Flagstaff Hill, El Dorado Co., California.
Description: The sample was made up of green chunks of coarsely crystalline material.  Microscopic examination indicated that it was pure.(sheet silicates) (Chlorite Group)Sampled measured had cleavage face.  Original ASTER Spectral Library name was jhu.nicolet.mineral.silicate.phyllosilicate.solid.clinoc2.spectrum.txt
Measurement: Bidirectional reflectance
X Units: Wavelength (micrometers)
Y Units: Reflectance (percent)
wavelength	value
25.044	21.759
24.339	22.667
23.672	24.843
23.041	30.85
22.442	30.825
21.874	33.551
21.334	37.43
20.82	37.768
20.33	36.511
19.863	34.901
19.416	32.063
18.99	24.305
18.581	18.71
18.19	19.89
17.815	20.41
17.455	12.22
17.109	8.541
16.777	8.894
16.458	9.9336
16.15	11.147
15.854	12.246
15.568	13.522
15.292	14.239
15.027	13.44
14.77	13.091
14.521	11.592
14.281	10.303
14.049	10.279
13.824	10.509
13.607	10.906
13.396	12.018
13.191	13.036
12.993	12.652
12.8	11.341
12.614	10.017
12.432	9.3677
12.256	9.2351
12.084	8.833
11.918	8.7221
11.755	9.4302
11.598	10.107
11.444	10.632
11.294	11.175
11.149	11.792
11.007	12.513
10.868	13.484
10.733	15.053
10.602	17.198
10.473	18.848
10.348	20.552
10.225	22.639
10.106	26.439
9.9887	29.224
9.8746	30.74
9.763	31.281
9.6539	29.382
9.5472	28.135
9.4429	29.704
9.3408	29.813
9.2409	24.548
9.1431	19.318
9.0474	14.917
8.9536	10.42
8.8618	6.313
8.7718	3.4751
8.6837	3.0666
8.5973	3.3083
8.5126	3.6008
8.4295	3.9004
8.3481	4.1614
8.2682	4.4082
8.1898	4.6167
8.1129	4.7995
8.0374	4.9719
7.9634	5.1369
7.8906	5.2988
7.8192	5.4707
7.7491	5.6316
7.6802	5.7878
7.6126	5.9143
7.5461	6.0185
7.4807	6.1262
7.4165	6.2295
7.3534	6.3347
7.2914	6.4065
7.2303	6.4739
7.1703	6.5412
7.1113	6.6252
7.0533	6.6767
6.9962	6.7441
6.94	6.7925
6.8847	6.8257
6.8302	6.886
6.7767	6.9321
6.7239	6.9602
6.672	6.9631
6.6209	6.9787
6.5705	6.968
6.5209	6.9978
6.4721	7.0085
6.424	7
6.3766	7.0022
6.3299	7.0193
6.2838	7.0349
6.2385	7.0451
6.1937	7.0542
6.1496	7.0752
6.1062	7.1015
6.0633	7.1404
6.0211	7.1572
5.9794	7.1736
5.9383	7.1404
5.8978	7.1684
5.8578	7.1997
5.8184	7.1838
5.7794	7.2998
5.741	7.4065
5.7031	7.446
5.6657	7.4597
5.6288	7.4785
5.5924	7.5024
5.5564	7.5327
5.5209	7.5727
5.4859	7.6062
5.4513	7.6687
5.4171	7.6709
5.3833	7.6914
5.35	7.7075
5.3171	7.7385
5.2846	7.7619
5.2524	7.7978
5.2207	7.8154
5.1893	7.864
5.1584	7.8887
5.1277	7.9018
5.0975	7.9221
5.0676	7.9341
5.038	7.9404
5.0088	7.9441
4.98	7.9612
4.9514	7.9822
4.9232	8.0288
4.8953	8.0727
4.8678	8.1609
4.8405	8.2138
4.8135	8.2641
4.7868	8.3379
4.7605	8.4104
4.7344	8.5022
4.7086	8.583
4.6831	8.6733
4.6578	8.7534
4.6328	8.7993
4.6081	8.8652
4.5837	8.9895
4.5595	9.0542
4.5356	9.0928
4.5119	9.1426
4.4884	9.2026
4.4652	9.2563
4.4423	9.2861
4.4196	9.3464
4.3971	9.3901
4.3748	9.4424
4.3528	9.4697
4.331	9.5075
4.3094	9.5268
4.288	9.5666
4.2668	9.602
4.2458	9.646
4.2251	9.6709
4.2045	9.6904
4.1841	9.7287
4.164	9.7595
4.144	9.7734
4.1242	9.7827
4.1046	9.8012
4.0852	9.8308
4.066	9.8525
4.047	9.8652
4.0281	9.8698
4.0094	9.8918
3.9909	9.9048
3.9725	9.9004
3.9544	9.928
3.9363	9.9206
3.9185	9.9326
3.9008	9.9375
3.8833	9.9641
3.8659	9.946
3.8487	9.9326
3.8316	9.9309
3.8147	9.928
3.7979	9.9087
3.7813	9.9243
3.7648	9.9143
3.7485	9.8884
3.7323	9.8728
3.7162	9.8757
3.7003	9.8462
3.6845	9.8305
3.6689	9.8032
3.6534	9.8091
3.638	9.7781
3.6227	9.7295
3.6076	9.7026
3.5926	9.6638
3.5777	9.6216
3.563	9.5791
3.5484	9.5405
3.5338	9.4917
3.5195	9.4536
3.5052	9.4179
3.491	9.4297
3.477	9.4084
3.463	9.3994
3.4492	9.3318
3.4355	9.3215
3.4219	9.2844
3.4084	9.2639
3.395	9.2588
3.3817	9.2265
3.3685	9.2544
3.3554	9.2109
3.3425	9.1679
3.3296	9.1264
3.3168	9.1035
3.3041	9.0779
3.2915	9.0398
3.279	8.9885
3.2666	8.9516
3.2543	8.8813
3.2421	8.8594
3.23	8.7727
3.218	8.6965
3.206	8.626
3.1942	8.5351
3.1824	8.4719
3.1707	8.4011
3.1591	8.3069
3.1476	8.2236
3.1362	8.1255
3.1249	8.0346
3.1136	7.9487
3.1024	7.8459
3.0913	7.7622
3.0803	7.6692
3.0694	7.5593
3.0585	7.4546
3.0477	7.375
3.037	7.2932
3.0264	7.2109
3.0158	7.1269
3.0053	7.0356
2.9949	6.9599
2.9845	6.9013
2.9743	6.8174
2.9641	6.772
2.9539	6.709
2.9439	6.6701
2.9339	6.6316
2.9239	6.5972
2.9141	6.5718
2.9043	6.562
2.8946	6.5962
2.8849	6.6279
2.8753	6.6767
2.8658	6.7065
2.8563	6.706
2.8469	6.664
2.8375	6.6113
2.8282	6.5742
2.819	6.54
2.8098	6.5283
2.8007	6.5161
2.7917	6.539
2.7827	6.6743
2.7738	7.0351
2.7649	7.2295
2.7561	7.2217
2.7473	7.2656
2.7386	7.3247
2.7299	7.48
2.7213	7.8222
2.7128	8.716
2.7043	9.6074
2.6959	9.8381
2.6875	10.046
2.6791	10.154
2.6709	10.206
2.6626	10.336
2.6545	10.373
2.6463	10.425
2.6382	10.456
2.6302	10.451
2.6222	10.498
2.6143	10.494
2.6064	10.495
2.5986	10.511
2.5908	10.538
2.583	10.469
2.5753	10.531
2.5677	10.525
2.5601	10.542
2.5525	10.57
2.545	10.563
2.5375	10.625
2.5301	10.648
2.5227	10.648
2.5154	10.661
2.5081	10.692
2.5008	10.702
2.4936	10.74
2.4864	10.752
2.4793	10.801
2.4722	10.86
2.4651	10.894
2.4581	10.987
2.4511	11.063
2.4442	11.05
2.4373	11.093
2.4305	11.085
2.4236	11.069
2.4169	11.071
2.4101	11.052
2.4034	11.003
2.3967	10.972
2.3901	10.906
2.3835	10.856
2.377	10.778
2.3704	10.594
2.364	10.393
2.3575	10.229
2.3511	10.18
2.3447	10.162
2.3384	10.198
2.3321	10.297
2.3258	10.392
2.3195	10.504
2.3133	10.53
2.3071	10.629
2.301	10.683
2.2949	10.79
2.2888	10.926
2.2828	10.978
2.2767	10.99
2.2708	10.934
2.2648	10.804
2.2589	10.756
2.253	10.68
2.2471	10.877
2.2413	11.247
2.2355	11.533
2.2297	11.776
2.224	11.926
2.2183	12.01
2.2126	12.123
2.207	12.158
2.2013	12.186
2.1957	12.278
2.1902	12.3
2.1846	12.305
2.1791	12.367
2.1736	12.392
2.1682	12.49
2.1628	12.494
2.1574	12.508
2.152	12.5
2.1466	12.505
2.1413	12.532
2.136	12.557
2.1308	12.521
2.1255	12.55
2.1203	12.577
2.1151	12.563
2.11	12.598
2.1048	12.606
2.0997	12.67
2.0946	12.688
2.0895	12.737
2.0845	12.752
2.0795	12.738
