Name: Talc Mg_3Si_4O_10(OH)_2
Type: Mineral
Class: Silicate
Subclass: Phyllosilicate
Particle Size: Medium
Sample No.: PS-14A
Owner: JPL
Wavelength Range: VSWIR
Origin: USA, Georgia, Cherokee County, Holly Springs
Description: Particle size was 45-125um.Collected by Burminco Original ASTER Spectral Library name was jpl.beckman.mineral.silicate.phyllosilicate.medium.ps14a.spectrum.txt
Measurement: Hemispherical reflectance
X Units: Wavelength (micrometers)
Y Units: Reflectance (percent)
wavelength	value
0.4	83.32
0.403	83.61
0.406	83.95
0.409	83.9
0.412	84.58
0.415	84.4
0.418	84.98
0.421	85.27
0.424	85.09
0.427	85.83
0.43	85.72
0.433	85.72
0.436	86.23
0.439	86.17
0.442	86.35
0.445	86.58
0.448	86.12
0.451	86.46
0.454	86.59
0.457	86.36
0.46	86.71
0.463	87
0.466	86.88
0.469	86.66
0.472	87.18
0.475	87.19
0.478	87.2
0.481	87.55
0.484	87.21
0.487	87.6
0.49	87.67
0.493	87.74
0.496	87.97
0.499	87.63
0.502	88.09
0.505	88.38
0.508	88.09
0.511	88.55
0.514	88.26
0.517	88.44
0.52	88.83
0.523	88.32
0.526	88.77
0.529	88.55
0.532	88.49
0.535	88.77
0.538	88.49
0.541	88.83
0.544	88.44
0.547	88.49
0.55	88.89
0.553	88.66
0.556	88.89
0.559	88.77
0.562	88.66
0.565	88.94
0.568	88.55
0.571	88.61
0.574	88.32
0.577	87.86
0.58	88.49
0.583	87.92
0.586	87.86
0.589	88.03
0.592	87.69
0.595	87.86
0.598	87.58
0.601	87.17
0.604	87.58
0.607	87.06
0.61	87.23
0.613	86.9
0.616	86.61
0.619	86.84
0.622	86.32
0.625	86.26
0.628	86.26
0.631	85.8
0.634	85.92
0.637	85.98
0.64	85.69
0.643	85.86
0.646	85.52
0.649	85.52
0.652	85.63
0.655	85.4
0.658	85.69
0.661	85.35
0.664	85.18
0.667	85.8
0.67	85.35
0.673	85.57
0.676	85.69
0.679	85.18
0.682	85.63
0.685	85.4
0.688	85.63
0.691	85.8
0.694	85.3
0.697	85.52
0.7	85.3
0.703	84.9
0.706	85.4
0.709	85.07
0.712	85.07
0.715	85.4
0.718	84.84
0.721	85.13
0.724	84.9
0.727	84.38
0.73	84.84
0.733	84.49
0.736	84.67
0.739	84.55
0.742	84.21
0.745	84.44
0.748	84.26
0.751	83.86
0.754	84.21
0.757	83.58
0.76	83.8
0.763	83.64
0.766	83.24
0.769	83.35
0.772	82.95
0.775	83.07
0.778	83.01
0.781	82.38
0.784	82.67
0.787	82.38
0.79	82.15
0.793	82.15
0.796	81.64
0.799	81.76
0.808	81.53
0.82	80.67
0.832	80.16
0.844	80.04
0.856	79.7
0.868	79.76
0.88	79.64
0.892	79.93
0.904	79.93
0.916	80.22
0.928	80.22
0.94	80.1
0.952	79.18
0.964	80.16
0.976	79.93
0.988	79.64
1	79.58
1.012	79.76
1.024	79.76
1.036	79.81
1.048	80.22
1.06	80.44
1.072	80.95
1.084	81.3
1.096	81.81
1.108	82.38
1.12	83.13
1.132	83.53
1.144	84.21
1.156	84.77
1.168	85.26
1.18	85.81
1.192	86.14
1.204	86.75
1.216	87.09
1.228	87.26
1.24	87.54
1.252	87.94
1.264	87.97
1.276	86.99
1.288	88.28
1.3	88.2
1.312	88.64
1.324	88.55
1.336	88.76
1.348	89.02
1.36	88.9
1.372	89.02
1.384	84.13
1.396	71.66
1.408	87.61
1.42	89.17
1.432	89.18
1.444	89.39
1.456	89.45
1.468	89.63
1.48	89.63
1.492	89.86
1.504	89.86
1.516	89.96
1.528	89.74
1.54	89.74
1.552	90.02
1.564	90.19
1.576	90.07
1.588	90.07
1.6	90.19
1.612	90.11
1.624	90.03
1.636	89.96
1.648	90.1
1.66	90.08
1.672	90.07
1.684	89.92
1.696	90.02
1.708	90.01
1.72	90.12
1.732	89.84
1.744	89.95
1.756	89.95
1.768	89.89
1.78	89.89
1.792	89.78
1.804	89.53
1.816	89.27
1.828	88.9
1.84	88.64
1.852	88.63
1.864	88.38
1.876	88.18
1.888	87.59
1.9	87.23
1.912	87.11
1.924	87.31
1.936	87.29
1.948	87.37
1.96	87.38
1.972	87.31
1.984	87.14
1.996	86.56
2.008	86.07
2.02	86.22
2.032	86.37
2.044	86.33
2.056	85.17
2.068	83.22
2.08	81.78
2.092	81.68
2.104	82.3
2.116	81.92
2.128	81.09
2.14	81.27
2.152	81.89
2.164	82.03
2.176	82.05
2.188	83.12
2.2	83.78
2.212	83.06
2.224	81.16
2.236	79.99
2.248	78.44
2.26	73.99
2.272	65.68
2.284	55.86
2.296	47.88
2.308	45.79
2.32	52.64
2.332	62.29
2.344	68.83
2.356	68.13
2.368	62.95
2.38	57.96
2.392	57.68
2.404	61.26
2.416	64.51
2.428	65.15
2.44	64.15
2.452	63.03
2.464	62.95
2.476	63.83
2.488	64.53
2.5	64.84
