Name: Amblygonite (Li,Na)Al(PO_4)(F,OH)
Type: Mineral
Class: Phosphate
Subclass: None
Particle Size: Coarse
Sample No.: P-3A
Owner: JPL
Wavelength Range: TIR
Origin: USA, California, San Diego County, Pala
Description: Particle size was 125-500um.Collected by Burminco Original ASTER Spectral Library name was jpl.nicolet.mineral.phosphate.none.coarse.p03a.spectrum.txt
Measurement: Hemispherical reflectance
X Units: Wavelength (micrometers)
Y Units: Reflectance (percent)
wavelength	value
15.3853	7.794
15.1161	7.1988
14.8563	6.947
14.6052	3.6678
14.3624	1.3447
14.1276	0.6876
13.9004	0.6928
13.6803	0.8821
13.4671	1.095
13.2604	1.1902
13.06	2.1214
12.8656	2.3246
12.6769	2.8386
12.4936	3.4679
12.3155	4.2672
12.1425	5.168
11.9742	4.5742
11.8106	2.4962
11.6513	1.9192
11.4963	2.1733
11.3454	2.4457
11.1983	2.9743
11.0551	3.1188
10.9154	3.3713
10.7793	3.9675
10.6465	4.2199
10.5169	4.6513
10.3904	4.9043
10.267	5.7822
10.1464	6.7118
10.0287	8.559
9.9136	10.7079
9.8012	13.0463
9.6913	11.7649
9.5838	8.9383
9.4787	12.3482
9.3758	18.7761
9.2752	25.4326
9.1767	31.3975
9.0803	34.9873
8.9858	34.572
8.8934	33.3113
8.8028	31.3106
8.714	24.7594
8.627	22.0701
8.5417	21.7309
8.4581	20.2538
8.3761	15.658
8.2957	12.6244
8.2169	11.7709
8.1395	7.5633
8.0635	2.8103
7.989	1.1684
7.9158	0.5413
7.8439	0.3092
7.7734	0.2829
7.7041	0.2721
7.636	0.295
7.5691	0.3332
7.5034	0.3953
7.4388	0.4573
7.3753	0.4471
7.3129	0.562
7.2515	0.6651
7.1912	0.8085
7.1318	0.8208
7.0734	0.9131
7.016	0.9807
6.9595	1.1001
6.9039	1.0502
6.8492	1.1703
6.7953	1.3179
6.7423	1.3082
6.6901	1.4174
6.6387	1.7271
6.5881	1.6174
6.5382	1.7013
6.4892	1.9977
6.4408	1.8654
6.3931	1.9355
6.3462	2.0129
6.2999	1.899
6.2543	1.8631
6.2094	1.7977
6.1651	1.9693
6.1214	1.9974
6.0784	2.1011
6.0359	2.3076
5.994	2.5347
5.9527	2.7748
5.912	2.8501
5.8718	3.1695
5.8322	3.2953
5.7931	3.4667
5.7545	3.8316
5.7165	4.1558
5.6789	4.5665
5.6418	5.0162
5.6052	5.2776
5.5691	5.5799
5.5334	5.8528
5.4982	6.0266
5.4635	6.2293
5.4291	6.2364
5.3952	6.0524
5.3618	5.8674
5.3287	6.0788
5.2961	6.2517
5.2638	6.6486
5.2319	7.012
5.2004	7.3374
5.1693	7.3174
5.1386	7.5557
5.1082	7.475
5.0782	7.0537
5.0485	6.3246
5.0192	5.1519
4.9902	4.3529
4.9616	3.8605
4.9332	3.6657
4.9052	3.5785
4.8776	3.3182
4.8502	3.1636
4.8231	3.1457
4.7963	3.079
4.7699	2.9736
4.7437	2.9444
4.7178	2.895
4.6922	3.079
4.6668	3.0973
4.6418	3.2237
4.617	3.2928
4.5924	3.4883
4.5681	3.4434
4.5441	3.4825
4.5203	3.5715
4.4968	3.6883
4.4735	3.7636
4.4505	3.7523
4.4277	3.8219
4.4051	3.8531
4.3828	3.9369
4.3607	4.3245
4.3388	4.7133
4.3171	4.9468
4.2956	5.0814
4.2744	5.0525
4.2534	5.1205
4.2325	5.3434
4.2119	5.217
4.1915	5.159
4.1712	5.2295
4.1512	5.5514
4.1313	6.4018
4.1117	7.5103
4.0922	8.7656
4.0729	9.7333
4.0538	10.3408
4.0349	10.7606
4.0161	11.0049
3.9976	10.9895
3.9792	11.257
3.9609	11.4624
3.9428	11.5596
3.9249	11.6511
3.9072	11.9866
3.8896	11.8135
3.8722	12.1061
3.8549	12.205
3.8378	12.3869
3.8208	12.7017
3.804	12.9596
3.7873	12.9971
3.7708	13.0786
3.7544	13.1288
3.7382	13.1883
3.7221	13.1457
3.7061	13.125
3.6903	13.1857
3.6746	13.0715
3.659	12.9633
3.6436	12.778
3.6283	12.5578
3.6131	12.414
3.5981	12.2136
3.5832	11.9963
3.5684	11.8043
3.5537	11.4748
3.5391	11.2254
3.5247	10.8826
3.5104	10.7459
3.4962	10.349
3.4821	10.1419
3.4681	10.0315
3.4543	9.6747
3.4405	9.5882
3.4269	9.5531
3.4133	9.3052
3.3999	9.0815
3.3866	8.6281
3.3733	8.4824
3.3602	8.1373
3.3472	7.8528
3.3343	7.3806
3.3215	6.9284
3.3088	6.7097
3.2961	6.4527
3.2836	6.0917
3.2712	5.7819
3.2588	5.9441
3.2466	5.6484
3.2345	5.57
3.2224	5.3182
3.2104	5.3199
3.1985	5.2865
3.1867	5.0196
3.175	5.0586
3.1634	4.8648
3.1519	4.6592
3.1404	4.6282
3.129	4.4034
3.1178	4.5657
3.1065	4.1449
3.0954	4.3029
3.0844	4.299
3.0734	4.2689
3.0625	4.2705
3.0517	4.2646
3.041	4.2801
3.0303	4.3668
3.0197	4.0808
3.0092	4.3701
2.9987	4.326
2.9884	4.2133
2.9781	4.167
2.9678	4.0038
2.9577	3.6166
2.9476	3.5964
2.9376	3.1438
2.9276	3.3778
2.9177	3.4342
2.9079	3.6138
2.8982	3.9094
2.8885	4.0055
2.8789	3.8665
2.8693	3.9114
2.8598	3.9805
2.8504	3.9351
2.841	4.2578
2.8317	4.3689
2.8224	4.6266
2.8133	4.9558
2.8041	5.4655
2.7951	5.632
2.786	6.0862
2.7771	6.1964
2.7682	6.3772
2.7594	6.9758
2.7506	7.87
2.7418	8.7192
2.7332	9.2802
2.7246	10.2764
2.716	10.6871
2.7075	11.1481
2.699	12.6257
2.6906	14.4638
2.6823	15.7095
2.674	16.4401
2.6657	17.4169
2.6575	16.8347
2.6494	16.7312
2.6413	16.3106
2.6332	16.3681
2.6252	16.0837
2.6173	16.405
2.6094	16.2214
2.6015	16.6194
2.5937	17.626
2.5859	17.6608
2.5782	17.8211
2.5706	18.3749
2.5629	18.9206
2.5554	18.6225
2.5478	19.419
2.5403	20.0711
2.5329	20.9759
2.5255	21.5716
2.5181	22.3509
2.5108	22.9479
2.5035	23.7902
2.4963	24.4957
2.4891	25.4662
2.482	26.7358
2.4749	28.4057
2.4678	30.4345
2.4608	32.3249
2.4538	34.5657
2.4468	36.3752
2.4399	37.7303
2.4331	38.5852
2.4262	38.6851
2.4194	38.3517
2.4127	37.4131
2.4059	35.5612
2.3993	31.543
2.3926	25.0659
2.386	18.9111
2.3795	15.5199
2.3729	15.5857
2.3664	19.0718
2.36	26.0144
2.3535	35.8912
2.3471	42.5253
2.3408	45.6815
2.3345	47.0797
2.3282	47.7419
2.3219	47.5961
2.3157	47.2489
2.3095	46.3232
2.3034	45.1762
2.2972	44.1187
2.2911	42.567
2.2851	41.4558
2.279	40.356
2.2731	39.4841
2.2671	38.7735
2.2612	38.1541
2.2553	37.053
2.2494	35.5839
2.2435	33.9339
2.2377	32.4375
2.232	30.5724
2.2262	28.9248
2.2205	27.1224
2.2148	25.1662
2.2091	22.3337
2.2035	20.019
2.1979	17.9693
2.1923	15.6687
2.1868	14.3836
2.1812	13.0798
2.1758	12.6731
2.1703	14.2873
2.1649	19.6393
2.1595	28.1204
2.1541	35.9484
2.1487	41.1244
2.1434	43.7666
2.1381	45.6345
2.1328	46.4128
2.1275	47.1845
2.1223	47.9133
2.1171	49.0989
2.112	49.9159
2.1068	50.7945
2.1017	51.983
2.0966	53.3065
2.0915	53.131
2.0865	52.8112
2.0814	52.7685
2.0764	51.989
2.0715	51.6253
2.0665	52.1699
2.0616	51.8901
2.0567	51.8618
2.0518	52.5045
2.0469	53.0682
2.0421	53.7328
2.0373	54.7357
2.0325	55.5374
2.0277	55.7135
2.0229	55.5079
2.0182	54.7049
2.0135	53.2195
2.0088	50.2194
2.0042	45.3182
