Name: Plumbojarosite PbFe_3^3+(SO_4)_4(OH)_12
Type: Mineral
Class: Sulfate
Subclass: None
Particle Size: Fine
Sample No.: SO-7B
Owner: JPL
Wavelength Range: TIR
Origin: Mexico, Hidalgo, Zimapan, Lomo De Toro Mine
Description: Particle size was 0-45um.Collected by Burminco Original ASTER Spectral Library name was jpl.nicolet.mineral.sulfate.none.fine.so07b.spectrum.txt
Measurement: Hemispherical reflectance
X Units: Wavelength (micrometers)
Y Units: Reflectance (percent)
wavelength	value
15.3853	0.2788
15.1161	0.74
14.8563	0.8009
14.6052	0.9919
14.3624	1.1487
14.1276	1.1841
13.9004	1.1494
13.6803	1.0933
13.4671	1.6127
13.2604	1.3973
13.06	1.9411
12.8656	2.0218
12.6769	1.9384
12.4936	1.9524
12.3155	1.8576
12.1425	1.8981
11.9742	2.6362
11.8106	3.0246
11.6513	3.5089
11.4963	3.842
11.3454	4.0896
11.1983	4.5014
11.0551	5.3065
10.9154	5.9289
10.7793	6.7701
10.6465	6.9314
10.5169	6.549
10.3904	5.9461
10.267	5.779
10.1464	3.9986
10.0287	2.6915
9.9136	2.3165
9.8012	2.001
9.6913	1.9488
9.5838	0.8594
9.4787	1.0854
9.3758	1.5548
9.2752	2.1679
9.1767	2.0317
9.0803	1.2887
8.9858	1.5875
8.8934	1.9702
8.8028	1.8409
8.714	1.9842
8.627	1.7108
8.5417	1.8752
8.4581	1.7031
8.3761	1.2688
8.2957	0.9865
8.2169	0.971
8.1395	0.9778
8.0635	1.0189
7.989	1.4793
7.9158	3.3686
7.8439	5.6982
7.7734	7.4008
7.7041	8.2952
7.636	8.6776
7.5691	8.9075
7.5034	9.1303
7.4388	9.2243
7.3753	9.3941
7.3129	9.5563
7.2515	9.8815
7.1912	10.2177
7.1318	10.5361
7.0734	10.7483
7.016	11.3866
6.9595	12.3025
6.9039	12.8322
6.8492	13.7
6.7953	14.8468
6.7423	15.8003
6.6901	17.0584
6.6387	18.7757
6.5881	18.9976
6.5382	19.4442
6.4892	20.394
6.4408	20.1452
6.3931	20.2572
6.3462	20.7415
6.2999	20.5643
6.2543	21.0342
6.2094	21.0461
6.1651	21.0233
6.1214	21.2997
6.0784	22.9458
6.0359	24.2602
5.994	26.138
5.9527	27.6406
5.912	28.665
5.8718	29.9484
5.8322	31.2257
5.7931	31.3731
5.7545	32.3737
5.7165	33.681
5.6789	34.1303
5.6418	34.8785
5.6052	34.8333
5.5691	35.3388
5.5334	35.8663
5.4982	36.4989
5.4635	37.4121
5.4291	37.9231
5.3952	38.2514
5.3618	38.5077
5.3287	38.3924
5.2961	38.0697
5.2638	37.1425
5.2319	35.8044
5.2004	33.7905
5.1693	30.8375
5.1386	27.2484
5.1082	23.5886
5.0782	23.0669
5.0485	23.6671
5.0192	24.0789
4.9902	23.0422
4.9616	21.8817
4.9332	21.0193
4.9052	21.791
4.8776	22.9732
4.8502	23.0609
4.8231	24.8021
4.7963	26.4933
4.7699	26.9158
4.7437	27.251
4.7178	28.5015
4.6922	29.7278
4.6668	30.8682
4.6418	31.8822
4.617	32.4582
4.5924	32.7369
4.5681	33.5533
4.5441	35.0218
4.5203	36.6636
4.4968	38.2547
4.4735	39.8134
4.4505	41.4762
4.4277	42.9373
4.4051	43.8717
4.3828	44.5971
4.3607	45.3732
4.3388	45.8719
4.3171	46.0577
4.2956	45.7527
4.2744	45.6571
4.2534	46.3365
4.2325	46.3559
4.2119	47.0776
4.1915	47.6741
4.1712	47.8712
4.1512	47.8204
4.1313	48.1899
4.1117	48.3039
4.0922	48.5352
4.0729	48.5675
4.0538	48.4581
4.0349	48.2901
4.0161	48.0424
3.9976	47.9231
3.9792	47.6952
3.9609	47.4524
3.9428	47.0747
3.9249	46.676
3.9072	46.2653
3.8896	45.7746
3.8722	45.1539
3.8549	44.6721
3.8378	44.1268
3.8208	43.4307
3.804	42.6359
3.7873	42.1295
3.7708	41.4043
3.7544	40.6288
3.7382	39.9357
3.7221	39.2241
3.7061	38.5368
3.6903	37.626
3.6746	36.981
3.659	36.1018
3.6436	35.4089
3.6283	34.5999
3.6131	33.993
3.5981	33.1563
3.5832	32.4892
3.5684	31.6964
3.5537	31.1267
3.5391	30.2633
3.5247	29.5934
3.5104	28.9785
3.4962	28.2385
3.4821	27.5862
3.4681	26.9786
3.4543	26.2839
3.4405	25.7488
3.4269	25.0981
3.4133	24.6209
3.3999	24.1323
3.3866	23.7421
3.3733	23.223
3.3602	22.6035
3.3472	22.206
3.3343	21.713
3.3215	21.3372
3.3088	20.7189
3.2961	20.0852
3.2836	19.4742
3.2712	18.8244
3.2588	18.2236
3.2466	17.6494
3.2345	16.9118
3.2224	16.1079
3.2104	15.1746
3.1985	14.4982
3.1867	13.6938
3.175	12.9396
3.1634	12.5796
3.1519	11.8115
3.1404	11.0333
3.129	10.5593
3.1178	9.611
3.1065	8.8618
3.0954	8.101
3.0844	7.2444
3.0734	6.5246
3.0625	5.6208
3.0517	4.9469
3.041	4.3708
3.0303	3.7338
3.0197	3.3941
3.0092	2.7378
2.9987	2.3801
2.9884	1.7742
2.9781	1.3813
2.9678	1.4117
2.9577	1.4917
2.9476	1.82
2.9376	2.0448
2.9276	2.4443
2.9177	2.8168
2.9079	2.9609
2.8982	3.7558
2.8885	4.3204
2.8789	5.1239
2.8693	6.8249
2.8598	8.4333
2.8504	10.6067
2.841	12.9731
2.8317	15.8707
2.8224	18.8367
2.8133	21.9673
2.8041	25.2358
2.7951	28.4362
2.786	32.0824
2.7771	35.4759
2.7682	39.2286
2.7594	43.1242
2.7506	46.7749
2.7418	50.9648
2.7332	53.2295
2.7246	56.4723
2.716	57.0616
2.7075	58.0646
2.699	58.3391
2.6906	58.6812
2.6823	58.8609
2.674	59.1291
2.6657	60.054
2.6575	58.5063
2.6494	58.0161
2.6413	57.655
2.6332	57.5614
2.6252	57.598
2.6173	58.3318
2.6094	58.3031
2.6015	58.5803
2.5937	60.4274
2.5859	60.3831
2.5782	61.5564
2.5706	63.1009
2.5629	64.7692
2.5554	65.2757
2.5478	66.374
2.5403	66.9518
2.5329	67.6261
2.5255	67.9747
2.5181	68.1614
2.5108	68.9825
2.5035	70.1382
2.4963	70.994
2.4891	71.7893
2.482	72.188
2.4749	72.2683
2.4678	72.4899
2.4608	72.346
2.4538	72.1749
2.4468	71.6746
2.4399	71.1256
2.4331	70.9776
2.4262	70.9811
2.4194	70.6129
2.4127	70.6276
2.4059	70.74
2.3993	71.765
2.3926	72.5415
2.386	73.4495
2.3795	74.275
2.3729	74.9663
2.3664	75.5162
2.36	75.7863
2.3535	76.1536
2.3471	76.2009
2.3408	76.2411
2.3345	75.8643
2.3282	75.2684
2.3219	74.1716
2.3157	73.2399
2.3095	72.914
2.3034	72.3235
2.2972	71.59
2.2911	71.1282
2.2851	70.7618
2.279	70.9834
2.2731	71.7497
2.2671	72.1668
2.2612	72.1208
2.2553	72.1084
2.2494	72.824
2.2435	73.5563
2.2377	74.8656
2.232	76.2516
2.2262	77.0947
2.2205	77.8193
2.2148	78.5939
2.2091	79.2027
2.2035	79.6625
2.1979	80.209
2.1923	80.7177
2.1868	81.2582
2.1812	81.5361
2.1758	81.7965
2.1703	82.1876
2.1649	82.3735
2.1595	82.9335
2.1541	83.0279
2.1487	83.0223
2.1434	83.6608
2.1381	83.5298
2.1328	83.9179
2.1275	83.841
2.1223	83.9454
2.1171	83.9057
2.112	84.0659
2.1068	84.2969
2.1017	84.2801
2.0966	84.0708
2.0915	84.3942
2.0865	84.3686
2.0814	84.3247
2.0764	84.4722
2.0715	84.1539
2.0665	84.3856
2.0616	84.0321
2.0567	84.1131
2.0518	83.9674
2.0469	84.0991
2.0421	84.2558
2.0373	84.2446
2.0325	84.2021
2.0277	84.3771
2.0229	84.658
2.0182	84.8448
2.0135	84.937
2.0088	85.0221
2.0042	85.319
