Name: Anhydrite CaSO_4
Type: Mineral
Class: Sulfate
Subclass: None
Particle Size: Medium
Sample No.: SO-1A
Owner: JPL
Wavelength Range: VSWIR
Origin: Canada, Nova Scotia
Description: Particle size was 45-125um.Collected by Ward's Original ASTER Spectral Library name was jpl.beckman.mineral.sulfate.none.medium.so01a.spectrum.txt
Measurement: Hemispherical reflectance
X Units: Wavelength (micrometers)
Y Units: Reflectance (percent)
wavelength	value
0.4	61.1
0.403	61.32
0.406	61.64
0.409	61.73
0.412	62.17
0.415	62.36
0.418	62.62
0.421	62.84
0.424	63.02
0.427	63.23
0.43	63.41
0.433	63.61
0.436	63.81
0.439	64.15
0.442	64.19
0.445	64.51
0.448	64.53
0.451	64.76
0.454	64.94
0.457	65.02
0.46	65.16
0.463	65.34
0.466	65.44
0.469	65.48
0.472	65.74
0.475	65.94
0.478	65.98
0.481	66.12
0.484	66.17
0.487	66.29
0.49	66.22
0.493	66.29
0.496	66.43
0.499	66.45
0.502	66.62
0.505	66.51
0.508	66.59
0.511	66.76
0.514	66.65
0.517	66.81
0.52	66.86
0.523	66.84
0.526	66.7
0.529	66.75
0.532	66.83
0.535	66.78
0.538	66.8
0.541	66.74
0.544	66.64
0.547	66.79
0.55	66.79
0.553	66.78
0.556	66.71
0.559	66.8
0.562	66.97
0.565	66.82
0.568	66.95
0.571	66.84
0.574	66.81
0.577	66.74
0.58	66.75
0.583	66.66
0.586	66.77
0.589	66.65
0.592	66.67
0.595	66.79
0.598	66.72
0.601	66.85
0.604	67.05
0.607	67.09
0.61	67.1
0.613	67.1
0.616	67.2
0.619	67.22
0.622	67.33
0.625	67.49
0.628	67.56
0.631	67.74
0.634	67.82
0.637	68.02
0.64	68.24
0.643	68.35
0.646	68.49
0.649	68.66
0.652	68.94
0.655	68.97
0.658	69.24
0.661	69.33
0.664	69.54
0.667	69.81
0.67	70.07
0.673	70.33
0.676	70.36
0.679	70.54
0.682	70.65
0.685	71.04
0.688	71.19
0.691	71.43
0.694	71.53
0.697	71.73
0.7	71.87
0.703	72.21
0.706	72.47
0.709	72.7
0.712	72.95
0.715	73.24
0.718	73.33
0.721	73.53
0.724	73.81
0.727	74.16
0.73	74.35
0.733	74.69
0.736	74.69
0.739	74.99
0.742	75.27
0.745	75.55
0.748	75.75
0.751	75.94
0.754	76.14
0.757	76.4
0.76	76.53
0.763	76.67
0.766	76.82
0.769	76.9
0.772	77.18
0.775	77.16
0.778	77.25
0.781	77.53
0.784	77.57
0.787	77.66
0.79	77.76
0.793	77.8
0.796	77.92
0.799	77.96
0.808	78.47
0.82	78.7
0.832	78.99
0.844	79.11
0.856	79.25
0.868	79.43
0.88	79.53
0.892	79.47
0.904	79.59
0.916	79.67
0.928	79.77
0.94	79.94
0.952	79.99
0.964	80.13
0.976	80.06
0.988	80.07
1	80.08
1.012	80.29
1.024	80.39
1.036	80.47
1.048	80.66
1.06	80.59
1.072	80.63
1.084	80.76
1.096	80.89
1.108	80.93
1.12	81.14
1.132	81.23
1.144	81.22
1.156	81.15
1.168	81.01
1.18	81.03
1.192	81.12
1.204	81.28
1.216	81.43
1.228	81.52
1.24	81.68
1.252	81.79
1.264	81.84
1.276	81.94
1.288	81.99
1.3	81.97
1.312	81.92
1.324	81.87
1.336	81.76
1.348	81.68
1.36	81.64
1.372	81.44
1.384	81.29
1.396	80.6
1.408	79.53
1.42	78.19
1.432	76.91
1.444	75.88
1.456	76.99
1.468	77.59
1.48	77.8
1.492	78.27
1.504	79.28
1.516	79.67
1.528	79.66
1.54	79.96
1.552	80.57
1.564	81.18
1.576	81.42
1.588	81.73
1.6	81.95
1.612	82.18
1.624	82.35
1.636	82.57
1.648	82.68
1.66	82.77
1.672	82.8
1.684	82.77
1.696	82.62
1.708	82.33
1.72	81.89
1.732	81.26
1.744	80.72
1.756	80.87
1.768	80.98
1.78	81.19
1.792	81.43
1.804	81.66
1.816	81.78
1.828	81.7
1.84	81.55
1.852	81.08
1.864	80.03
1.876	78.02
1.888	75.06
1.9	71.2
1.912	67.05
1.924	63.17
1.936	60.78
1.948	61.55
1.96	63.63
1.972	65.19
1.984	67.48
1.996	70.66
2.008	73.3
2.02	75.03
2.032	75.95
2.044	76.64
2.056	77.07
2.068	77.26
2.08	77.47
2.092	77.49
2.104	77.55
2.116	77.38
2.128	77.15
2.14	76.88
2.152	76.42
2.164	76.09
2.176	75.74
2.188	75.58
2.2	75.16
2.212	74.97
2.224	75.48
2.236	75.9
2.248	76.06
2.26	75.98
2.272	76.2
2.284	76.23
2.296	76.3
2.308	76.02
2.32	75.75
2.332	75.11
2.344	74.25
2.356	73.4
2.368	72.13
2.38	70.66
2.392	68.85
2.404	67.23
2.416	65.88
2.428	64.88
2.44	64.09
2.452	63.39
2.464	62.9
2.476	62.49
2.488	62.64
2.5	63.09
