Name: Lepidolite K(Li,Al)3(Si,Al)_4O_10(F,OH)_2
Type: Mineral
Class: Silicate
Subclass: Phyllosilicate
Particle Size: Fine
Sample No.: PS-13B
Owner: JPL
Wavelength Range: VSWIR
Origin: South Africa
Description: Lavender lepidolite. Particle size was 0-45um.Collected by Ward's Original ASTER Spectral Library name was jpl.beckman.mineral.silicate.phyllosilicate.fine.ps13b.spectrum.txt
Measurement: Hemispherical reflectance
X Units: Wavelength (micrometers)
Y Units: Reflectance (percent)
wavelength	value
0.4	71.24
0.403	71.06
0.406	71.64
0.409	71.74
0.412	71.74
0.415	72.26
0.418	71.86
0.421	72.09
0.424	72.26
0.427	71.97
0.43	72.55
0.433	72.55
0.436	72.55
0.439	72.95
0.442	72.66
0.445	72.95
0.448	72.95
0.451	72.89
0.454	73.18
0.457	73.01
0.46	73.19
0.463	72.91
0.466	73.2
0.469	72.98
0.472	73.37
0.475	73.09
0.478	72.99
0.481	73.62
0.484	73.23
0.487	73.34
0.49	73.52
0.493	73.18
0.496	73.47
0.499	73.13
0.502	73.13
0.505	73.42
0.508	72.9
0.511	73.25
0.514	72.9
0.517	72.73
0.52	73.08
0.523	72.33
0.526	72.62
0.529	72.27
0.532	71.88
0.535	72.1
0.538	71.54
0.541	71.76
0.544	71.54
0.547	71.19
0.55	71.71
0.553	71.54
0.556	71.54
0.559	71.71
0.562	71.59
0.565	71.76
0.568	71.76
0.571	71.54
0.574	71.88
0.577	71.65
0.58	71.94
0.583	72.5
0.586	72.21
0.589	72.56
0.592	72.9
0.595	72.85
0.598	73.48
0.601	73.48
0.604	73.76
0.607	74.21
0.61	74.1
0.613	74.73
0.616	74.73
0.619	74.73
0.622	75.41
0.625	75.25
0.628	75.58
0.631	75.81
0.634	75.7
0.637	76.27
0.64	76.04
0.643	76.16
0.646	76.67
0.649	76.27
0.652	76.5
0.655	76.85
0.658	76.39
0.661	76.85
0.664	76.73
0.667	76.73
0.67	77.12
0.673	76.67
0.676	77.02
0.679	76.96
0.682	76.85
0.685	77.35
0.688	76.73
0.691	77.18
0.694	77.02
0.697	76.9
0.7	76.96
0.703	76.67
0.706	77.12
0.709	77.12
0.712	77.12
0.715	77.58
0.718	77.24
0.721	77.47
0.724	77.53
0.727	77.02
0.73	77.47
0.733	77.12
0.736	77.35
0.739	77.58
0.742	76.9
0.745	77.47
0.748	77.3
0.751	77.02
0.754	77.64
0.757	77.3
0.76	77.53
0.763	77.47
0.766	77.18
0.769	77.64
0.772	77.53
0.775	77.53
0.778	77.87
0.781	77.3
0.784	77.64
0.787	77.64
0.79	77.41
0.793	77.81
0.796	77.47
0.799	77.87
0.808	77.99
0.82	77.99
0.832	78.22
0.844	78.33
0.856	78.5
0.868	78.67
0.88	78.67
0.892	78.89
0.904	78.84
0.916	79.07
0.928	79.12
0.94	79.3
0.952	79.12
0.964	79.35
0.976	79.81
0.988	79.87
1	79.99
1.012	80.22
1.024	80.16
1.036	80.55
1.048	80.38
1.06	80.49
1.072	80.49
1.084	80.78
1.096	80.61
1.108	80.9
1.12	80.95
1.132	81.01
1.144	81.07
1.156	81.23
1.168	81.09
1.18	80.96
1.192	81.34
1.204	81.39
1.216	81.45
1.228	81.45
1.24	81.33
1.252	81.5
1.264	81.47
1.276	81.57
1.288	81.49
1.3	81.59
1.312	81.4
1.324	81.55
1.336	81.47
1.348	81.56
1.36	81.45
1.372	80.77
1.384	78.32
1.396	71.49
1.408	70.93
1.42	79.37
1.432	81.33
1.444	81.81
1.456	81.87
1.468	82.1
1.48	82.22
1.492	82.28
1.504	82.39
1.516	82.33
1.528	82.45
1.54	82.5
1.552	82.5
1.564	82.5
1.576	82.67
1.588	82.45
1.6	82.67
1.612	82.66
1.624	82.69
1.636	82.56
1.648	82.53
1.66	82.51
1.672	82.73
1.684	82.53
1.696	82.62
1.708	82.57
1.72	82.57
1.732	82.67
1.744	82.51
1.756	82.51
1.768	82.51
1.78	82.51
1.792	82.57
1.804	82.54
1.816	82.34
1.828	82.26
1.84	82.24
1.852	82.23
1.864	81.98
1.876	81.68
1.888	81.14
1.9	80.56
1.912	80.43
1.924	80.52
1.936	80.67
1.948	80.93
1.96	80.88
1.972	81.22
1.984	81.33
1.996	81.49
2.008	81.62
2.02	81.73
2.032	81.77
2.044	81.8
2.056	81.49
2.068	81.39
2.08	81.12
2.092	80.52
2.104	79.86
2.116	79.76
2.128	79.32
2.14	78.57
2.152	76.62
2.164	72.4
2.176	66.42
2.188	62.52
2.2	64.41
2.212	69.76
2.224	73.92
2.236	75.61
2.248	76.25
2.26	76.18
2.272	76.05
2.284	75.29
2.296	73.92
2.308	71.63
2.32	69.53
2.332	67.64
2.344	66.99
2.356	67.03
2.368	67.49
2.38	67.42
2.392	66.8
2.404	65.41
2.416	63.9
2.428	62.72
2.44	62.44
2.452	62.7
2.464	63.29
2.476	63.94
2.488	64.69
2.5	65.17
