Name: Vermiculite (Mg,Fe^2+,Al)_3(Al,Si)_4O_10(OH)_2.4H_2O
Type: Mineral
Class: Silicate
Subclass: Phyllosilicate
Particle Size: Medium
Sample No.: PS-18A
Owner: JPL
Wavelength Range: TIR
Origin: USA, Texas, Llano County, Llano
Description: Particle size was 45-125um.Collected by Clay Mineral Society Original ASTER Spectral Library name was jpl.nicolet.mineral.silicate.phyllosilicate.medium.ps18a.spectrum.txt
Measurement: Hemispherical reflectance
X Units: Wavelength (micrometers)
Y Units: Reflectance (percent)
wavelength	value
15.3853	5.0318
15.1161	5.0283
14.8563	5.0214
14.6052	4.776
14.3624	4.0586
14.1276	2.8527
13.9004	2.1862
13.6803	2.3882
13.4671	3.4841
13.2604	3.6364
13.06	4.8125
12.8656	5.8776
12.6769	6.767
12.4936	7.3879
12.3155	7.8836
12.1425	8.0641
11.9742	8.3897
11.8106	6.8985
11.6513	6.1025
11.4963	5.2689
11.3454	7.1901
11.1983	10.3058
11.0551	10.0597
10.9154	7.4189
10.7793	7.018
10.6465	6.7727
10.5169	6.9856
10.3904	7.2412
10.267	7.5047
10.1464	7.8291
10.0287	8.234
9.9136	8.6355
9.8012	8.7303
9.6913	8.4865
9.5838	8.5914
9.4787	8.1656
9.3758	7.2554
9.2752	6.338
9.1767	6.0521
9.0803	6.1413
8.9858	6.5334
8.8934	6.768
8.8028	6.612
8.714	6.5503
8.627	6.1723
8.5417	5.9829
8.4581	5.3711
8.3761	5.2034
8.2957	5.4216
8.2169	5.6373
8.1395	5.2866
8.0635	5.2739
7.989	5.4408
7.9158	5.532
7.8439	5.7275
7.7734	5.6311
7.7041	5.471
7.636	5.403
7.5691	5.3334
7.5034	5.2907
7.4388	5.307
7.3753	5.4529
7.3129	5.753
7.2515	6.3326
7.1912	6.9896
7.1318	8.0532
7.0734	9.6982
7.016	11.3281
6.9595	12.1359
6.9039	12.1902
6.8492	12.5208
6.7953	13.0292
6.7423	14.0813
6.6901	15.1579
6.6387	16.3494
6.5881	18.345
6.5382	20.0906
6.4892	20.6936
6.4408	21.3771
6.3931	19.3809
6.3462	16.347
6.2999	13.4325
6.2543	8.2544
6.2094	4.7721
6.1651	3.2014
6.1214	2.5468
6.0784	2.2959
6.0359	2.2186
5.994	2.3675
5.9527	2.5373
5.912	2.9621
5.8718	3.3775
5.8322	3.8192
5.7931	4.3046
5.7545	4.6027
5.7165	4.9746
5.6789	5.3728
5.6418	5.5274
5.6052	4.6908
5.5691	3.6852
5.5334	3.6965
5.4982	4.8072
5.4635	6.2283
5.4291	8.4762
5.3952	10.9289
5.3618	13.6862
5.3287	16.3456
5.2961	18.4048
5.2638	20.0022
5.2319	21.2346
5.2004	23.4648
5.1693	25.2291
5.1386	26.429
5.1082	26.7554
5.0782	26.4782
5.0485	26.6672
5.0192	28.2732
4.9902	29.3416
4.9616	30.2357
4.9332	30.5609
4.9052	30.9399
4.8776	31.5434
4.8502	31.9344
4.8231	31.9778
4.7963	32.0505
4.7699	32.3181
4.7437	31.9791
4.7178	31.0272
4.6922	29.2577
4.6668	27.5586
4.6418	26.8289
4.617	26.5633
4.5924	26.5466
4.5681	27.273
4.5441	28.4948
4.5203	29.8052
4.4968	30.8822
4.4735	31.4938
4.4505	31.7498
4.4277	32.1411
4.4051	32.7472
4.3828	33.4325
4.3607	33.975
4.3388	33.9935
4.3171	33.9648
4.2956	34.229
4.2744	34.4074
4.2534	34.8595
4.2325	35.2708
4.2119	35.4287
4.1915	35.5251
4.1712	35.1772
4.1512	34.6363
4.1313	33.8756
4.1117	33.036
4.0922	31.7725
4.0729	29.6122
4.0538	25.8765
4.0349	20.5794
4.0161	15.1992
3.9976	11.3289
3.9792	8.6087
3.9609	7.2401
3.9428	7.3338
3.9249	8.2616
3.9072	8.9244
3.8896	9.8137
3.8722	10.6239
3.8549	11.3626
3.8378	12.1915
3.8208	12.6927
3.804	13.6712
3.7873	16.2205
3.7708	19.2711
3.7544	22.7747
3.7382	26.0505
3.7221	29.3515
3.7061	31.6081
3.6903	32.0834
3.6746	31.9497
3.659	31.9082
3.6436	31.2561
3.6283	30.4737
3.6131	29.7487
3.5981	28.7014
3.5832	27.4863
3.5684	25.5577
3.5537	23.6579
3.5391	21.2105
3.5247	17.938
3.5104	15.381
3.4962	12.1815
3.4821	9.0348
3.4681	7.9189
3.4543	8.0372
3.4405	7.9938
3.4269	7.965
3.4133	8.1378
3.3999	8.4453
3.3866	8.5521
3.3733	8.4376
3.3602	8.0892
3.3472	7.3825
3.3343	7.8756
3.3215	8.5698
3.3088	8.7743
3.2961	9.4791
3.2836	10.0687
3.2712	9.8516
3.2588	10.8824
3.2466	12.8284
3.2345	12.995
3.2224	12.9253
3.2104	12.6438
3.1985	12.4255
3.1867	12.0448
3.175	11.7734
3.1634	11.4752
3.1519	11.1927
3.1404	10.8835
3.129	10.5238
3.1178	10.345
3.1065	10.2112
3.0954	9.9418
3.0844	10.0214
3.0734	9.7821
3.0625	9.7793
3.0517	9.7971
3.041	9.6821
3.0303	9.6469
3.0197	9.6701
3.0092	9.6942
2.9987	9.5901
2.9884	9.3214
2.9781	9.3664
2.9678	9.3043
2.9577	9.2075
2.9476	9.4007
2.9376	9.2722
2.9276	9.1222
2.9177	9.0746
2.9079	9.5225
2.8982	9.3494
2.8885	9.4589
2.8789	9.5957
2.8693	9.6358
2.8598	9.7287
2.8504	9.7134
2.841	9.8627
2.8317	9.7016
2.8224	9.8341
2.8133	9.7978
2.8041	9.66
2.7951	10.1048
2.786	10.46
2.7771	10.2748
2.7682	10.5759
2.7594	10.9783
2.7506	10.7693
2.7418	10.2805
2.7332	10.8881
2.7246	10.1978
2.716	9.2604
2.7075	9.5989
2.699	13.2079
2.6906	20.964
2.6823	28.7756
2.674	37.5609
2.6657	41.9605
2.6575	44.7177
2.6494	46.1334
2.6413	48.6891
2.6332	50.0616
2.6252	50.7908
2.6173	50.7288
2.6094	51.1609
2.6015	51.1537
2.5937	50.1355
2.5859	50.2162
2.5782	49.7277
2.5706	48.9785
2.5629	48.2218
2.5554	47.8187
2.5478	47.8141
2.5403	46.5226
2.5329	45.1818
2.5255	43.9517
2.5181	43.1027
2.5108	42.7851
2.5035	42.7403
2.4963	44.0996
2.4891	45.454
2.482	46.5237
2.4749	47.5766
2.4678	48.8093
2.4608	49.6745
2.4538	49.9539
2.4468	50.5831
2.4399	51.2746
2.4331	51.5582
2.4262	52.7451
2.4194	53.648
2.4127	54.6238
2.4059	55.3038
2.3993	55.4683
2.3926	55.9337
2.386	56.3501
2.3795	56.9227
2.3729	58.3985
2.3664	59.631
2.36	60.3343
2.3535	59.2009
2.3471	56.3803
2.3408	52.2702
2.3345	49.8596
2.3282	48.9118
2.3219	48.1661
2.3157	49.194
2.3095	51.1952
2.3034	53.6438
2.2972	55.1717
2.2911	56.3916
2.2851	57.9109
2.279	59.115
2.2731	59.1219
2.2671	60.5123
2.2612	63.0647
2.2553	63.9742
2.2494	64.2552
2.2435	64.9843
2.2377	66.514
2.232	68.9346
2.2262	70.4792
2.2205	71.5119
2.2148	72.2127
2.2091	72.818
2.2035	73.039
2.1979	73.5346
2.1923	73.9039
2.1868	73.8765
2.1812	73.9977
2.1758	74.2521
2.1703	74.1716
2.1649	73.9751
2.1595	74.0182
2.1541	73.927
2.1487	73.3935
2.1434	72.5296
2.1381	71.9936
2.1328	71.6993
2.1275	71.8529
2.1223	72.3553
2.1171	71.9655
2.112	71.7321
2.1068	71.8229
2.1017	71.9687
2.0966	71.9198
2.0915	71.889
2.0865	72.1348
2.0814	72.6374
2.0764	73.1725
2.0715	73.2018
2.0665	73.4942
2.0616	72.7854
2.0567	72.9565
2.0518	72.5449
2.0469	72.354
2.0421	71.7293
2.0373	71.5538
2.0325	71.2757
2.0277	71.1515
2.0229	70.6588
2.0182	70.2307
2.0135	70.0856
2.0088	69.3978
2.0042	69.4879
