Name: Acmite NaFe+3 Si2O6
Type: Mineral
Class: Silicate
Subclass: Inosilicate
Particle Size: Solid
Sample No.: acmite_1
Owner: JHU
Wavelength Range: TIR
Origin: Narsarsuk, Greenland via the Smithsonian (sample no. NMNH95506).
Description: The sample consisted of black radiating acicular crystals with some contaminating brown coating, which dissolved in dilute HCl.  Sample size was 2 cm x 2 cm x 1 cm.  Contamination was largely eliminated by hand picking and the little remaining was dissolved with dilute HCl.(Pyroxene Group - single chain) Original ASTER Spectral Library name was jhu.nicolet.mineral.silicate.inosilicate.solid.acmite1.spectrum.txt
Measurement: Bidirectional reflectance
X Units: Wavelength (micrometers)
Y Units: Reflectance (percent)
wavelength	value
25.0442	3.1133
24.3388	16.4555
23.6719	18.5478
23.0407	22.0634
22.4422	25.5453
21.8741	28.0922
21.334	30.2675
20.8199	31.4982
20.33	33.6259
19.8627	36.0893
19.4163	32.2143
18.9896	31.2585
18.5812	30.4975
18.19	26.6552
17.815	28.4042
17.4551	27.5666
17.1094	22.8862
16.7772	16.8503
16.4576	11.2324
16.15	12.1794
15.8537	13.2065
15.568	14.0664
15.2925	12.9599
15.0265	12.3813
14.7697	12.8867
14.5214	13.1518
14.2814	13.458
14.0492	13.6425
13.8244	13.916
13.6067	13.7258
13.3957	13.7927
13.1912	14.1738
12.9929	14.563
12.8004	14.9282
12.6135	15.1562
12.432	15.3503
12.2557	15.5236
12.0843	15.6313
11.9176	15.7712
11.7555	16.2334
11.5977	15.655
11.444	15.696
11.2944	16.3735
11.1487	17.1648
11.0067	17.9226
10.8682	18.5598
10.7332	19.3144
10.6015	20.3393
10.473	22.6557
10.3476	24.5532
10.2251	26.1037
10.1056	28.1889
9.9887	30.1733
9.8746	30.4074
9.763	28.1095
9.6539	27.4521
9.5472	27.0517
9.4429	27.0405
9.3408	27.3808
9.2409	26.9123
9.1431	26.8273
9.0474	26.3532
8.9536	25.0732
8.8618	23.8403
8.7718	22.0825
8.6837	19.8024
8.5973	17.9357
8.5126	16.3486
8.4295	13.8305
8.3481	11.2212
8.2682	9.4299
8.1898	9.6748
8.1129	10.1081
8.0374	9.5952
7.9634	8.2939
7.8906	7.4465
7.8192	7.1943
7.7491	7.2248
7.6802	7.4109
7.6126	7.6662
7.5461	7.8974
7.4807	8.1052
7.4165	8.3579
7.3534	8.5508
7.2914	8.7219
7.2303	8.8584
7.1703	8.9563
7.1113	9.1032
7.0533	9.1567
6.9962	9.2993
6.94	9.4114
6.8847	9.5027
6.8302	9.5678
6.7767	9.6758
6.7239	9.7185
6.672	9.9006
6.6209	9.9809
6.5705	10.1621
6.5209	10.1611
6.4721	10.3154
6.424	10.3891
6.3766	10.4148
6.3299	10.5031
6.2838	10.5515
6.2385	10.5969
6.1937	10.6201
6.1496	10.6374
6.1062	10.6511
6.0633	10.5422
6.0211	10.299
5.9794	10.2849
5.9383	10.1841
5.8978	10.1032
5.8578	10.2026
5.8184	10.2466
5.7794	10.1821
5.741	10.2309
5.7031	10.2478
5.6657	10.2505
5.6288	10.2859
5.5924	10.2939
5.5564	10.3327
5.5209	10.3784
5.4859	10.3593
5.4513	10.4043
5.4171	10.4743
5.3833	10.4189
5.35	10.4289
5.3171	10.4082
5.2846	10.4211
5.2524	10.4109
5.2207	10.3908
5.1893	10.406
5.1584	10.3982
5.1277	10.3901
5.0975	10.3716
5.0676	10.3447
5.038	10.3354
5.0088	10.3152
4.98	10.3142
4.9514	10.3303
4.9232	10.3022
4.8953	10.3044
4.8678	10.3
4.8405	10.2883
4.8135	10.2712
4.7868	10.2663
4.7605	10.279
4.7344	10.3025
4.7086	10.3071
4.6831	10.3618
4.6578	10.4582
4.6328	10.5776
4.6081	10.7485
4.5837	10.8745
4.5595	10.9697
4.5356	11.0363
4.5119	11.0754
4.4884	11.1108
4.4652	11.1394
4.4423	11.1386
4.4196	11.144
4.3971	11.1587
4.3748	11.133
4.3528	11.0195
4.331	10.8301
4.3094	10.6201
4.288	10.469
4.2668	10.3088
4.2458	10.2697
4.2251	10.3452
4.2045	10.7795
4.1841	11.0852
4.164	11.0644
4.144	11.0686
4.1242	11.0551
4.1046	11.052
4.0852	11.0661
4.066	11.0639
4.047	11.0527
4.0281	11.0613
4.0094	11.0613
3.9909	11.0583
3.9725	11.0715
3.9544	11.0683
3.9363	11.0659
3.9185	11.0588
3.9008	11.0454
3.8833	11.0144
3.8659	10.9748
3.8487	10.9326
3.8316	10.9109
3.8147	10.8806
3.7979	10.8645
3.7813	10.8352
3.7648	10.8073
3.7485	10.7793
3.7323	10.7556
3.7162	10.7151
3.7003	10.6904
3.6845	10.6579
3.6689	10.6235
3.6534	10.5998
3.638	10.561
3.6227	10.5227
3.6076	10.4902
3.5926	10.4497
3.5777	10.3962
3.563	10.3662
3.5484	10.3188
3.5338	10.2817
3.5195	10.2207
3.5052	10.0796
3.491	10.0473
3.477	10.0327
3.463	10.0041
3.4492	9.928
3.4355	9.8696
3.4219	9.759
3.4084	9.6628
3.395	9.666
3.3817	9.624
3.3685	9.581
3.3554	9.5793
3.3425	9.5302
3.3296	9.4753
3.3168	9.4258
3.3041	9.3789
3.2915	9.3274
3.279	9.2734
3.2666	9.2275
3.2543	9.1723
3.2421	9.1162
3.23	9.083
3.218	9.0263
3.206	8.9892
3.1942	8.9407
3.1824	8.8833
3.1707	8.8432
3.1591	8.7746
3.1476	8.7615
3.1362	8.7163
3.1249	8.6833
3.1136	8.634
3.1024	8.5903
3.0913	8.5525
3.0803	8.5239
3.0694	8.5029
3.0585	8.4565
3.0477	8.4065
3.037	8.3794
3.0264	8.3462
3.0158	8.3154
3.0053	8.2959
2.9949	8.2549
2.9845	8.1855
2.9743	8.1665
2.9641	8.124
2.9539	8.0752
2.9439	8.0151
2.9339	7.9736
2.9239	7.9616
2.9141	7.9033
2.9043	7.9038
2.8946	7.8359
2.8849	7.8069
2.8753	7.7507
2.8658	7.7417
2.8563	7.6985
2.8469	7.6677
2.8375	7.6516
2.8282	7.5928
2.819	7.6438
2.8098	7.5942
2.8007	7.6679
2.7917	7.5935
2.7827	7.6064
2.7738	7.6262
2.7649	7.6992
2.7561	7.7268
2.7473	7.7917
2.7386	8.2158
2.7299	8.0349
2.7213	8.2392
2.7128	8.2944
2.7043	8.3528
2.6959	8.4494
2.6875	8.468
2.6791	8.4944
2.6709	8.4472
2.6626	8.5285
2.6545	8.5022
2.6463	8.4595
2.6382	8.4387
2.6302	8.6328
2.6222	8.4031
2.6143	8.4631
2.6064	8.4687
2.5986	8.3059
2.5908	8.334
2.583	8.4033
2.5753	8.3557
2.5677	8.2617
2.5601	8.3157
2.5525	8.1848
2.545	8.1438
2.5375	8.0908
2.5301	8.1174
2.5227	8.0422
2.5154	7.9995
2.5081	7.9778
2.5008	7.9612
2.4936	7.9302
2.4864	7.9082
2.4793	7.8701
2.4722	7.8511
2.4651	7.845
2.4581	7.8059
2.4511	7.7617
2.4442	7.7268
2.4373	7.7065
2.4305	7.6936
2.4236	7.6282
2.4169	7.6094
2.4101	7.5805
2.4034	7.5659
2.3967	7.5283
2.3901	7.5185
2.3835	7.4504
2.377	7.4319
2.3704	7.3838
2.364	7.3828
2.3575	7.3391
2.3511	7.2851
2.3447	7.2295
2.3384	7.2121
2.3321	7.1496
2.3258	7.1406
2.3195	7.1155
2.3133	7.0576
2.3071	7.0571
2.301	7.0049
2.2949	6.9824
2.2888	6.9595
2.2828	6.9292
2.2767	6.873
2.2708	6.8584
2.2648	6.8076
2.2589	6.8218
2.253	6.7759
2.2471	6.7041
2.2413	6.6528
2.2355	6.5962
2.2297	6.6172
2.224	6.5688
2.2183	6.5088
2.2126	6.4971
2.207	6.4033
2.2013	6.3862
2.1957	6.3647
2.1902	6.3286
2.1846	6.3242
2.1791	6.3056
2.1736	6.1753
2.1682	6.1885
2.1628	6.168
2.1574	6.0688
2.152	6.1269
2.1466	6.0342
2.1413	6.0351
2.136	5.9731
2.1308	5.9653
2.1255	5.8945
2.1203	5.8911
2.1151	5.7778
2.11	5.8188
2.1048	5.6543
2.0997	5.7637
2.0946	5.6484
2.0895	5.6528
2.0845	5.6255
2.0795	5.5766
