Name: Titanite (Sphene) CaTiSiO_5
Type: Mineral
Class: Silicate
Subclass: Nesosilicate
Particle Size: Coarse
Sample No.: NS-7A
Owner: JPL
Wavelength Range: TIR
Origin: Brazil, Minas Gerais, Capelinha
Description: Particle size was 125-500um.Collected by JPL Original ASTER Spectral Library name was jpl.nicolet.mineral.silicate.nesosilicate.coarse.ns07a.spectrum.txt
Measurement: Hemispherical reflectance
X Units: Wavelength (micrometers)
Y Units: Reflectance (percent)
wavelength	value
15.3853	10.0601
15.1161	10.9019
14.8563	11.2097
14.6052	11.6645
14.3624	12.0454
14.1276	12.2037
13.9004	12.5575
13.6803	12.5762
13.4671	12.5144
13.2604	11.959
13.06	10.6929
12.8656	9.1375
12.6769	8.4227
12.4936	8.4495
12.3155	9.5922
12.1425	12.0546
11.9742	16.168
11.8106	21.2737
11.6513	26.5294
11.4963	32.0578
11.3454	32.0381
11.1983	33.4433
11.0551	37.7316
10.9154	37.3327
10.7793	40.6951
10.6465	41.7235
10.5169	43.0193
10.3904	42.633
10.267	39.9199
10.1464	34.2602
10.0287	25.9081
9.9136	20.2101
9.8012	11.0629
9.6913	4.0624
9.5838	1.0137
9.4787	0.2919
9.3758	0.0772
9.2752	0.3578
9.1767	0.1344
9.0803	0.3675
8.9858	0.3903
8.8934	0.6191
8.8028	0.6011
8.714	0.7374
8.627	0.8813
8.5417	0.8552
8.4581	1.1591
8.3761	1.1716
8.2957	1.2292
8.2169	1.3244
8.1395	1.495
8.0635	1.4939
7.989	1.553
7.9158	1.9859
7.8439	2.0081
7.7734	2.1719
7.7041	2.2255
7.636	2.3865
7.5691	2.4035
7.5034	2.4913
7.4388	2.6452
7.3753	2.8342
7.3129	2.98
7.2515	3.071
7.1912	3.1606
7.1318	3.3411
7.0734	3.2919
7.016	3.3897
6.9595	3.6662
6.9039	3.7577
6.8492	4.0692
6.7953	4.5406
6.7423	4.7752
6.6901	5.2902
6.6387	6.2411
6.5881	6.4615
6.5382	6.7215
6.4892	7.3185
6.4408	6.92
6.3931	6.759
6.3462	6.7094
6.2999	6.618
6.2543	6.9051
6.2094	7.0826
6.1651	7.1174
6.1214	7.0464
6.0784	6.6558
6.0359	6.1891
5.994	5.8816
5.9527	5.4606
5.912	4.9557
5.8718	4.4414
5.8322	4.1555
5.7931	3.8108
5.7545	3.6749
5.7165	3.8554
5.6789	4.04
5.6418	4.3338
5.6052	4.5622
5.5691	4.9085
5.5334	5.1766
5.4982	5.3007
5.4635	5.3753
5.4291	5.3099
5.3952	5.2969
5.3618	5.5298
5.3287	6.3884
5.2961	7.287
5.2638	9.0798
5.2319	11.4809
5.2004	14.3239
5.1693	17.3446
5.1386	19.0984
5.1082	19.6249
5.0782	18.7808
5.0485	17.8236
5.0192	18.8352
4.9902	21.9713
4.9616	25.8501
4.9332	29.6021
4.9052	33.329
4.8776	36.5268
4.8502	39.0255
4.8231	41.0918
4.7963	42.8638
4.7699	44.2807
4.7437	45.7229
4.7178	46.6228
4.6922	46.6525
4.6668	46.7063
4.6418	47.8722
4.617	49.5099
4.5924	51.0679
4.5681	52.639
4.5441	54.0733
4.5203	55.0928
4.4968	55.8784
4.4735	56.3709
4.4505	56.8746
4.4277	57.2349
4.4051	57.8703
4.3828	58.5384
4.3607	59.1489
4.3388	59.7667
4.3171	60.3925
4.2956	60.9375
4.2744	61.418
4.2534	61.8996
4.2325	62.3875
4.2119	62.6365
4.1915	62.7914
4.1712	62.7414
4.1512	62.6652
4.1313	62.8558
4.1117	62.9024
4.0922	63.0957
4.0729	63.012
4.0538	62.846
4.0349	62.3163
4.0161	61.7525
3.9976	60.9085
3.9792	60.0633
3.9609	59.2176
3.9428	58.6105
3.9249	57.9282
3.9072	57.5
3.8896	57.1998
3.8722	57.1527
3.8549	57.8788
3.8378	58.7461
3.8208	59.6911
3.804	60.7129
3.7873	61.755
3.7708	62.7455
3.7544	63.3899
3.7382	63.7572
3.7221	63.8851
3.7061	63.7989
3.6903	63.7231
3.6746	63.448
3.659	63.5287
3.6436	63.5455
3.6283	63.4955
3.6131	62.9992
3.5981	62.2531
3.5832	62.1163
3.5684	62.8949
3.5537	64.215
3.5391	65.5046
3.5247	65.9398
3.5104	65.6923
3.4962	65.3665
3.4821	65.6062
3.4681	65.6371
3.4543	65.4076
3.4405	64.8169
3.4269	63.9622
3.4133	63.1555
3.3999	63.3354
3.3866	63.0804
3.3733	62.5055
3.3602	63.251
3.3472	63.1824
3.3343	63.1109
3.3215	62.6058
3.3088	62.0364
3.2961	61.5553
3.2836	61.0194
3.2712	60.1782
3.2588	59.1505
3.2466	58.0223
3.2345	56.5709
3.2224	55.5012
3.2104	54.7466
3.1985	54.0852
3.1867	52.9657
3.175	52.0814
3.1634	51.2997
3.1519	50.3124
3.1404	49.1876
3.129	48.2816
3.1178	47.0418
3.1065	46.0836
3.0954	44.968
3.0844	43.9866
3.0734	42.7454
3.0625	41.4003
3.0517	40.2646
3.041	39.3536
3.0303	38.5487
3.0197	37.7503
3.0092	36.6547
2.9987	35.5793
2.9884	34.446
2.9781	33.5412
2.9678	32.2423
2.9577	30.6281
2.9476	28.4913
2.9376	25.9618
2.9276	23.9145
2.9177	22.0233
2.9079	18.392
2.8982	13.7152
2.8885	9.1494
2.8789	5.911
2.8693	5.1673
2.8598	6.0923
2.8504	9.4642
2.841	16.8924
2.8317	23.1958
2.8224	26.5336
2.8133	27.6946
2.8041	29.1946
2.7951	31.007
2.786	33.4666
2.7771	34.5859
2.7682	36.6139
2.7594	37.3284
2.7506	38.4671
2.7418	40.0241
2.7332	39.5172
2.7246	40.925
2.716	40.4145
2.7075	41.3801
2.699	42.5223
2.6906	43.8411
2.6823	44.7326
2.674	45.4265
2.6657	47.6522
2.6575	46.2783
2.6494	46.7343
2.6413	47.7373
2.6332	48.3133
2.6252	48.0862
2.6173	48.4095
2.6094	47.5392
2.6015	47.4933
2.5937	48.7331
2.5859	47.5013
2.5782	48.5222
2.5706	51.1626
2.5629	53.357
2.5554	52.7152
2.5478	52.1968
2.5403	51.234
2.5329	51.1887
2.5255	51.7157
2.5181	52.0485
2.5108	51.9132
2.5035	51.7946
2.4963	51.0984
2.4891	50.9435
2.482	52.0481
2.4749	53.9031
2.4678	55.0132
2.4608	55.874
2.4538	56.6523
2.4468	57.4585
2.4399	57.2428
2.4331	55.0282
2.4262	50.8397
2.4194	45.3756
2.4127	40.0765
2.4059	37.0141
2.3993	36.165
2.3926	39.1735
2.386	46.0765
2.3795	53.792
2.3729	59.5532
2.3664	62.9382
2.36	64.5662
2.3535	65.2067
2.3471	65.5575
2.3408	65.5018
2.3345	65.0282
2.3282	63.753
2.3219	62.1292
2.3157	60.1065
2.3095	58.0359
2.3034	56.9645
2.2972	56.8567
2.2911	57.5304
2.2851	57.5423
2.279	55.6814
2.2731	52.1185
2.2671	47.3995
2.2612	46.6678
2.2553	50.5611
2.2494	52.9546
2.2435	53.3755
2.2377	52.991
2.232	52.2381
2.2262	51.4121
2.2205	51.2671
2.2148	52.2732
2.2091	49.9129
2.2035	42.5772
2.1979	41.6987
2.1923	49.895
2.1868	57.2998
2.1812	61.5312
2.1758	65.2885
2.1703	67.2121
2.1649	68.0451
2.1595	68.8506
2.1541	69.4212
2.1487	69.819
2.1434	70.279
2.1381	70.632
2.1328	70.5948
2.1275	70.4555
2.1223	70.6812
2.1171	70.4748
2.112	70.8292
2.1068	70.5629
2.1017	70.6263
2.0966	70.4661
2.0915	70.2086
2.0865	70.5817
2.0814	70.4674
2.0764	70.1356
2.0715	70.5834
2.0665	69.8424
2.0616	69.8952
2.0567	69.7992
2.0518	69.6577
2.0469	69.7999
2.0421	69.5777
2.0373	69.5598
2.0325	69.8862
2.0277	69.4611
2.0229	69.512
2.0182	69.4981
2.0135	70.1079
2.0088	69.7739
2.0042	69.7121
