Name: Kernite Na_2B_4O_6(OH)_2.3H_2O
Type: Mineral
Class: Borate
Subclass: None
Particle Size: Coarse
Sample No.: B-2A
Owner: JPL
Wavelength Range: TIR
Origin: USA, California, Kern County, Boron
Description: Particle size was 125-500um.Collected by JPL Original ASTER Spectral Library name was jpl.nicolet.mineral.borate.none.coarse.b02a.spectrum.txt
Measurement: Hemispherical reflectance
X Units: Wavelength (micrometers)
Y Units: Reflectance (percent)
wavelength	value
15.3853	3.7748
15.1161	3.2715
14.8563	3.4099
14.6052	4.5871
14.3624	3.6356
14.1276	2.8486
13.9004	3.5797
13.6803	2.6762
13.4671	2.8964
13.2604	2.979
13.06	3.2125
12.8656	3.049
12.6769	3.3564
12.4936	3.6172
12.3155	3.6548
12.1425	4.2236
11.9742	4.1926
11.8106	3.7377
11.6513	3.6194
11.4963	3.6067
11.3454	3.2056
11.1983	3.184
11.0551	4.1944
10.9154	5.183
10.7793	5.6907
10.6465	6.3902
10.5169	7.8345
10.3904	7.4457
10.267	8.7582
10.1464	9.2395
10.0287	7.6603
9.9136	9.0281
9.8012	13.1866
9.6913	13.6877
9.5838	15.0479
9.4787	12.8254
9.3758	9.1219
9.2752	5.516
9.1767	3.3265
9.0803	2.5072
8.9858	1.544
8.8934	0.7917
8.8028	0.5305
8.714	0.6949
8.627	0.7316
8.5417	0.6446
8.4581	0.6722
8.3761	0.9812
8.2957	1.2489
8.2169	1.4817
8.1395	1.7832
8.0635	2.1508
7.989	2.3329
7.9158	2.7579
7.8439	3.127
7.7734	3.1286
7.7041	3.5008
7.636	3.6898
7.5691	4.0402
7.5034	5.5125
7.4388	6.1433
7.3753	6.865
7.3129	7.8056
7.2515	9.6509
7.1912	10.5267
7.1318	9.8085
7.0734	8.9823
7.016	6.615
6.9595	5.0486
6.9039	2.2964
6.8492	1.1778
6.7953	0.9415
6.7423	0.6017
6.6901	0.441
6.6387	0.3046
6.5881	0.3001
6.5382	0.4864
6.4892	0.4885
6.4408	0.5584
6.3931	0.6796
6.3462	0.6678
6.2999	0.746
6.2543	0.8978
6.2094	0.9033
6.1651	0.8744
6.1214	0.9615
6.0784	1.0652
6.0359	1.1033
5.994	1.1123
5.9527	1.1024
5.912	1.1872
5.8718	1.1286
5.8322	1.2341
5.7931	1.4108
5.7545	1.8295
5.7165	2.0072
5.6789	2.4289
5.6418	2.9866
5.6052	3.2749
5.5691	3.6805
5.5334	3.9495
5.4982	4.1696
5.4635	4.6855
5.4291	4.944
5.3952	5.2443
5.3618	5.643
5.3287	5.9329
5.2961	6.1886
5.2638	6.2165
5.2319	6.1807
5.2004	6.2299
5.1693	6.4662
5.1386	6.4625
5.1082	6.5613
5.0782	6.6422
5.0485	6.6009
5.0192	6.5856
4.9902	6.3425
4.9616	6.2741
4.9332	6.0447
4.9052	5.7789
4.8776	5.6775
4.8502	5.5408
4.8231	5.5383
4.7963	5.3044
4.7699	5.1748
4.7437	4.8792
4.7178	4.6926
4.6922	4.6816
4.6668	4.5302
4.6418	4.4068
4.617	4.3155
4.5924	4.1877
4.5681	3.992
4.5441	4.0334
4.5203	3.8035
4.4968	3.8163
4.4735	3.9806
4.4505	3.9763
4.4277	4.0676
4.4051	4.2388
4.3828	4.1892
4.3607	4.4309
4.3388	4.5427
4.3171	4.5073
4.2956	4.6368
4.2744	4.7617
4.2534	4.8027
4.2325	5.1741
4.2119	5.64
4.1915	6.2861
4.1712	6.6575
4.1512	6.9819
4.1313	7.1295
4.1117	7.0572
4.0922	7.0932
4.0729	7.076
4.0538	7.2237
4.0349	7.8006
4.0161	8.4669
3.9976	8.9007
3.9792	9.3275
3.9609	9.5024
3.9428	9.6698
3.9249	9.7201
3.9072	9.7499
3.8896	9.798
3.8722	9.8725
3.8549	9.7515
3.8378	9.7005
3.8208	9.4855
3.804	9.2501
3.7873	9.0426
3.7708	9.141
3.7544	9.0465
3.7382	9.0124
3.7221	8.8248
3.7061	8.5844
3.6903	8.3602
3.6746	7.8856
3.659	7.461
3.6436	7.096
3.6283	6.878
3.6131	6.8954
3.5981	6.5533
3.5832	6.452
3.5684	6.4096
3.5537	6.1854
3.5391	5.9405
3.5247	5.757
3.5104	5.6583
3.4962	5.4886
3.4821	5.3246
3.4681	5.2747
3.4543	5.0577
3.4405	4.779
3.4269	4.7422
3.4133	4.3444
3.3999	4.3031
3.3866	3.7406
3.3733	3.7146
3.3602	3.4112
3.3472	3.2402
3.3343	3.1419
3.3215	2.9476
3.3088	2.814
3.2961	2.8561
3.2836	2.7578
3.2712	2.6955
3.2588	2.6745
3.2466	2.5314
3.2345	2.5466
3.2224	2.5218
3.2104	2.32
3.1985	2.2531
3.1867	2.3011
3.175	2.2434
3.1634	2.0543
3.1519	2.2803
3.1404	2.1158
3.129	2.1363
3.1178	2.2211
3.1065	2.0276
3.0954	1.978
3.0844	1.9918
3.0734	1.9589
3.0625	1.9898
3.0517	1.7645
3.041	1.9853
3.0303	1.694
3.0197	1.6976
3.0092	1.2142
2.9987	1.0652
2.9884	1.0351
2.9781	1.077
2.9678	0.9693
2.9577	0.9815
2.9476	0.9887
2.9376	0.8154
2.9276	0.9553
2.9177	1.0227
2.9079	0.7044
2.8982	0.8159
2.8885	0.8079
2.8789	0.9904
2.8693	0.9607
2.8598	1.2021
2.8504	1.1131
2.841	1.4285
2.8317	1.7276
2.8224	1.7412
2.8133	0.9275
2.8041	0.7594
2.7951	1.1446
2.786	1.3804
2.7771	2.3146
2.7682	3.0042
2.7594	4.359
2.7506	5.5872
2.7418	7.5361
2.7332	9.8566
2.7246	12.4723
2.716	14.4353
2.7075	16.3113
2.699	18.0153
2.6906	19.4849
2.6823	20.9745
2.674	22.7598
2.6657	24.851
2.6575	25.3825
2.6494	26.4184
2.6413	27.3651
2.6332	28.0775
2.6252	29.1326
2.6173	30.4229
2.6094	30.1272
2.6015	30.3788
2.5937	31.2615
2.5859	30.6159
2.5782	30.0539
2.5706	28.8341
2.5629	28.407
2.5554	27.6211
2.5478	28.0015
2.5403	27.9327
2.5329	28.4519
2.5255	28.646
2.5181	28.6245
2.5108	28.4987
2.5035	28.9238
2.4963	29.0353
2.4891	29.1431
2.482	29.2534
2.4749	29.1915
2.4678	29.2261
2.4608	29.4182
2.4538	29.6279
2.4468	29.584
2.4399	29.2485
2.4331	29.6892
2.4262	29.7764
2.4194	30.64
2.4127	31.3954
2.4059	31.961
2.3993	32.633
2.3926	33.5578
2.386	34.7638
2.3795	36.258
2.3729	37.8078
2.3664	39.1569
2.36	40.0251
2.3535	40.9216
2.3471	41.637
2.3408	42.4723
2.3345	43.3977
2.3282	44.2364
2.3219	44.7934
2.3157	44.9494
2.3095	45.2693
2.3034	44.7706
2.2972	44.0729
2.2911	43.3948
2.2851	42.5302
2.279	42.0069
2.2731	41.7871
2.2671	41.6363
2.2612	41.3062
2.2553	40.8306
2.2494	40.979
2.2435	40.5171
2.2377	39.7588
2.232	38.3341
2.2262	37.3912
2.2205	36.417
2.2148	35.0431
2.2091	33.0306
2.2035	31.6262
2.1979	28.5718
2.1923	26.2862
2.1868	26.6709
2.1812	29.1943
2.1758	33.0744
2.1703	35.6181
2.1649	37.2853
2.1595	37.5861
2.1541	38.4577
2.1487	38.6287
2.1434	38.6741
2.1381	39.1381
2.1328	39.4109
2.1275	39.5253
2.1223	39.5198
2.1171	39.4166
2.112	39.2783
2.1068	38.8028
2.1017	38.5133
2.0966	38.5763
2.0915	38.0435
2.0865	37.2712
2.0814	37.07
2.0764	36.4615
2.0715	36.2764
2.0665	35.8239
2.0616	34.373
2.0567	32.9957
2.0518	31.9318
2.0469	31.9865
2.0421	32.2488
2.0373	31.6567
2.0325	31.7149
2.0277	31.781
2.0229	31.4669
2.0182	31.0442
2.0135	30.3759
2.0088	29.9107
2.0042	29.6705
