Name: Fayalite Fe_2SiO_4
Type: Mineral
Class: Silicate
Subclass: Nesosilicate
Particle Size: Fine
Sample No.: NS-1A
Owner: JPL
Wavelength Range: VSWIR
Description: Particle size was 0-45um.Collected by JPL Original ASTER Spectral Library name was jpl.beckman.mineral.silicate.nesosilicate.fine.ns01a.spectrum.txt
Measurement: Hemispherical reflectance
X Units: Wavelength (micrometers)
Y Units: Reflectance (percent)
wavelength	value
0.4	6.03
0.403	6.4
0.406	6.58
0.409	6.35
0.412	6.58
0.415	6.81
0.418	6.82
0.421	6.93
0.424	7.1
0.427	7.33
0.43	7.54
0.433	7.57
0.436	7.81
0.439	7.99
0.442	7.93
0.445	8.13
0.448	8.21
0.451	8.46
0.454	8.53
0.457	8.54
0.46	8.72
0.463	8.85
0.466	8.86
0.469	9.13
0.472	9.18
0.475	9.25
0.478	9.33
0.481	9.33
0.484	9.67
0.487	9.64
0.49	9.74
0.493	10.1
0.496	10.36
0.499	10.56
0.502	10.64
0.505	10.63
0.508	10.75
0.511	10.72
0.514	10.95
0.517	11.14
0.52	11.57
0.523	11.77
0.526	12.01
0.529	12.08
0.532	12.43
0.535	12.57
0.538	12.58
0.541	12.76
0.544	12.99
0.547	12.99
0.55	12.98
0.553	12.95
0.556	13.2
0.559	13.49
0.562	13.76
0.565	13.93
0.568	14
0.571	14.02
0.574	14.01
0.577	14.31
0.58	14.18
0.583	14.14
0.586	14.27
0.589	14.37
0.592	14.33
0.595	14.34
0.598	14.29
0.601	14.43
0.604	14.51
0.607	14.43
0.61	14.34
0.613	14.44
0.616	14.43
0.619	14.47
0.622	14.51
0.625	14.36
0.628	14.48
0.631	14.41
0.634	14.42
0.637	14.48
0.64	14.6
0.643	14.53
0.646	14.51
0.649	14.42
0.652	14.41
0.655	14.66
0.658	14.57
0.661	14.4
0.664	14.58
0.667	14.52
0.67	14.66
0.673	14.45
0.676	14.48
0.679	14.61
0.682	14.54
0.685	14.51
0.688	14.5
0.691	14.6
0.694	14.56
0.697	14.61
0.7	14.55
0.703	14.59
0.706	14.67
0.709	14.62
0.712	14.67
0.715	14.62
0.718	14.64
0.721	14.56
0.724	14.53
0.727	14.68
0.73	14.55
0.733	14.49
0.736	14.59
0.739	14.56
0.742	14.64
0.745	14.54
0.748	14.43
0.751	14.6
0.754	14.49
0.757	14.34
0.76	14.35
0.763	14.38
0.766	14.36
0.769	14.34
0.772	14.25
0.775	14.23
0.778	14.29
0.781	14.16
0.784	13.93
0.787	14.05
0.79	14.06
0.793	13.95
0.796	13.95
0.799	13.88
0.808	14.24
0.82	13.88
0.832	13.43
0.844	12.93
0.856	12.45
0.868	11.81
0.88	11.34
0.892	10.76
0.904	10.23
0.916	9.76
0.928	9.28
0.94	8.8
0.952	8.56
0.964	8.2
0.976	7.95
0.988	7.84
1	7.79
1.012	7.8
1.024	7.87
1.036	7.99
1.048	8.13
1.06	8.62
1.072	9.1
1.084	9.76
1.096	10.34
1.108	10.82
1.12	11.25
1.132	11.66
1.144	11.99
1.156	12.24
1.168	12.52
1.18	12.69
1.192	12.83
1.204	12.96
1.216	13.07
1.228	13.31
1.24	13.39
1.252	13.48
1.264	13.75
1.276	13.9
1.288	14.14
1.3	14.28
1.312	14.35
1.324	14.57
1.336	14.76
1.348	14.96
1.36	15.11
1.372	15.36
1.384	15.48
1.396	15.72
1.408	15.48
1.42	15.83
1.432	16.19
1.444	16.4
1.456	16.59
1.468	16.84
1.48	17.14
1.492	17.3
1.504	17.44
1.516	17.67
1.528	17.91
1.54	18.1
1.552	18.19
1.564	18.46
1.576	18.63
1.588	18.79
1.6	18.96
1.612	19.05
1.624	19.22
1.636	19.35
1.648	19.47
1.66	19.64
1.672	19.85
1.684	19.94
1.696	20.06
1.708	20.18
1.72	20.29
1.732	20.29
1.744	20.39
1.756	20.41
1.768	20.47
1.78	20.49
1.792	20.56
1.804	20.73
1.816	20.79
1.828	20.79
1.84	20.86
1.852	20.79
1.864	20.81
1.876	20.83
1.888	20.76
1.9	20.78
1.912	20.7
1.924	20.73
1.936	20.79
1.948	20.78
1.96	20.85
1.972	20.85
1.984	20.87
1.996	20.84
2.008	20.8
2.02	20.88
2.032	20.79
2.044	20.84
2.056	20.82
2.068	20.79
2.08	20.72
2.092	20.74
2.104	20.7
2.116	20.74
2.128	20.77
2.14	20.66
2.152	20.51
2.164	20.44
2.176	20.31
2.188	20.19
2.2	20.08
2.212	20.01
2.224	20.03
2.236	19.94
2.248	19.79
2.26	19.66
2.272	19.5
2.284	19.38
2.296	19.14
2.308	18.93
2.32	18.78
2.332	18.69
2.344	18.65
2.356	18.63
2.368	18.61
2.38	18.61
2.392	18.45
2.404	18.41
2.416	18.37
2.428	18.19
2.44	18.13
2.452	18.06
2.464	17.94
2.476	17.83
2.488	17.8
2.5	17.87
