Name: Borax Na_2B_4O_5(OH)_4.8H_2O
Type: Mineral
Class: Borate
Subclass: None
Particle Size: Medium
Sample No.: B-6A
Owner: JPL
Wavelength Range: VSWIR
Origin: USA, California, Kern County, Boron.
Description: Particle size was 45-125um.Collected by:  Burminco Original ASTER Spectral Library name was jpl.perkin.mineral.borate.none.medium.b06a.spectrum.txt
Measurement: Hemispherical reflectance
X Units: Wavelength (micrometers)
Y Units: Reflectance (percent)
wavelength	value
2.5	15.7752
2.494	16.3244
2.488	17.0043
2.482	17.6804
2.476	18.1973
2.47	18.6965
2.464	19.2376
2.458	19.6399
2.452	19.9546
2.446	20.169
2.44	20.3458
2.434	20.5888
2.428	21.0234
2.422	21.5869
2.416	22.2084
2.41	22.8238
2.404	23.5452
2.398	24.3123
2.392	25.1291
2.386	26.0118
2.38	26.6898
2.374	27.436
2.368	28.0409
2.362	28.5648
2.356	28.9405
2.35	29.1914
2.344	29.4245
2.338	29.5247
2.332	29.662
2.326	29.7109
2.32	29.7427
2.314	29.8022
2.308	29.7636
2.302	29.7531
2.296	29.7669
2.29	29.7158
2.284	29.7973
2.278	29.7804
2.272	29.7838
2.266	29.7622
2.26	29.7896
2.254	29.8125
2.248	29.8412
2.242	29.8966
2.236	30.0283
2.23	30.2191
2.224	30.3518
2.218	30.5934
2.212	30.9152
2.206	31.1678
2.2	31.3708
2.194	31.4761
2.188	31.4044
2.182	31.2111
2.176	30.7824
2.17	30.1762
2.164	29.5077
2.158	29.0853
2.152	28.8794
2.146	29.327
2.14	30.0088
2.134	30.6876
2.128	31.0261
2.122	31.0052
2.116	30.7962
2.11	30.5232
2.104	30.3073
2.098	30.1664
2.092	30.2733
2.086	30.2304
2.08	30.2455
2.074	30.1168
2.068	30.0969
2.062	29.8949
2.056	29.7706
2.05	29.5208
2.044	29.3531
2.038	29.1871
2.032	29.0479
2.026	28.8262
2.02	28.5363
2.014	28.2791
2.008	27.9999
2.002	27.7288
1.996	27.4808
1.99	27.1993
1.984	26.9895
1.978	26.8305
1.972	26.6042
1.966	26.2853
1.96	25.8068
1.954	25.2485
1.948	24.5686
1.942	23.8445
1.936	23.2966
1.93	23.0617
1.924	23.2147
1.918	23.6427
1.912	24.3025
1.906	25.9235
1.9	29.2254
1.894	32.8198
1.888	36.0202
1.882	38.2649
1.876	39.9526
1.87	41.4311
1.864	42.3391
1.858	42.9392
1.852	43.5537
1.846	43.8727
1.84	44.1942
1.834	44.4508
1.828	44.6462
1.822	44.8681
1.816	45.1427
1.81	45.3635
1.804	45.6586
1.798	45.9545
1.792	46.3135
1.786	46.5821
1.78	47.02
1.774	47.4327
1.768	47.762
1.762	48.1288
1.756	48.3886
1.75	48.5751
1.744	48.7123
1.738	48.8651
1.732	48.7868
1.726	48.8236
1.72	48.772
1.714	48.7149
1.708	48.7244
1.702	48.7476
1.696	48.8936
1.69	49.0753
1.684	49.2443
1.678	49.5366
1.672	49.7579
1.666	50.0871
1.66	50.3884
1.654	50.7425
1.648	51.1776
1.642	51.5425
1.636	51.8753
1.63	52.1576
1.624	52.5521
1.618	52.8492
1.612	53.1028
1.606	53.3303
1.6	53.5474
1.594	53.6617
1.588	53.7551
1.582	53.7202
1.576	53.654
1.57	53.5232
1.564	53.4279
1.558	53.4467
1.552	53.5699
1.546	53.8895
1.54	54.3773
1.534	54.8671
1.528	55.3709
1.522	55.7484
1.516	55.8499
1.51	55.7247
1.504	55.1003
1.498	54.062
1.492	52.8843
1.486	52.0153
1.48	51.6655
1.474	52.0496
1.468	52.5961
1.462	53.5063
1.456	54.7514
1.45	55.6886
1.444	56.4426
1.438	57.0014
1.432	56.4148
1.426	55.6324
1.42	57.4204
1.414	61.4085
1.408	65.0511
1.402	67.9576
1.396	70.1756
1.39	72.0383
1.384	73.4347
1.378	74.3491
1.372	75.039
1.366	75.6759
1.36	76.3034
1.354	76.9766
1.348	77.7176
1.342	78.3646
1.336	78.9549
1.33	79.5038
1.324	79.9439
1.318	80.2955
1.312	80.4646
1.306	80.5826
1.3	80.5795
1.294	80.3135
1.288	80.0449
1.282	80.0122
1.276	80.1848
1.27	80.242
1.264	80.3385
1.258	80.4103
1.252	80.5095
1.246	80.5691
1.24	80.6343
1.234	80.7617
1.228	80.8077
1.222	80.9105
1.216	81.0045
1.21	81.0449
1.204	81.0653
1.198	81.0876
1.192	81.0416
1.186	81.1867
1.18	81.1303
1.174	81.1599
1.168	81.091
1.162	80.8301
1.156	81.3198
1.15	82.5228
1.144	83.3117
1.138	83.7889
1.132	83.9065
1.126	83.9927
1.12	84.1505
1.114	84.3057
1.108	84.3125
1.102	84.4765
1.096	84.4667
1.09	84.5601
1.084	84.6208
1.078	84.6601
1.072	84.669
1.066	84.7666
1.06	84.5677
1.054	84.6056
1.048	84.5528
1.042	84.4861
1.036	84.3949
1.03	84.3731
1.024	84.3528
1.018	84.2581
1.012	84.1595
1.006	84.0757
1	83.9847
0.994	83.9941
0.988	83.8985
0.982	83.9484
0.976	83.8134
0.97	83.9318
0.964	84.3813
0.958	84.6709
0.952	84.8451
0.946	84.9757
0.94	85.0481
0.934	85.1659
0.928	85.2249
0.922	85.3151
0.916	85.324
0.91	85.3123
0.904	85.2838
0.898	85.3409
0.892	85.3681
0.886	85.3726
0.88	85.4182
0.874	85.4254
0.868	85.3618
0.862	85.3982
0.856	85.3621
0.85	85.6268
0.844	85.5254
0.838	85.4818
0.832	85.6064
0.826	85.6033
0.82	85.5932
0.814	85.5849
0.808	85.6749
0.802	85.6193
0.796	85.6039
0.79	85.5747
0.784	85.5414
0.778	85.5122
0.772	85.4729
0.766	85.4871
0.76	85.5347
0.754	85.4942
0.748	85.447
0.742	85.4741
0.736	85.5245
0.73	85.5296
0.724	85.5591
0.718	85.5564
0.712	85.5694
0.706	85.5506
0.7	85.5537
0.694	85.5404
0.688	85.5373
0.682	85.557
0.676	85.5458
0.67	85.5379
0.664	85.5264
0.658	85.529
0.652	85.5232
0.646	85.5221
0.64	85.5041
0.634	85.5117
0.628	85.5038
0.622	85.5001
0.616	85.4975
0.61	85.4602
0.604	85.4683
0.598	85.5005
0.592	85.5444
0.586	85.5287
0.58	85.5148
0.574	85.504
0.568	85.4869
0.562	85.4958
0.556	85.4309
0.55	85.4202
0.544	85.4127
0.538	85.373
0.532	85.3593
0.526	85.3415
0.52	85.3071
0.514	85.2673
0.508	85.2101
0.502	85.1507
0.496	85.0394
0.49	84.9705
0.484	84.8209
0.478	84.7781
0.472	84.721
0.466	84.6559
0.46	84.5795
0.454	84.5123
0.448	84.372
0.442	84.2721
0.436	84.2248
0.43	84.1277
0.424	84.0753
0.418	84.0117
0.412	83.964
0.406	83.8887
0.4	83.828
