Name: Cordierite Mg_2Al_3(Si_5Al)O_18
Type: Mineral
Class: Silicate
Subclass: Cyclosilicate
Particle Size: Coarse
Sample No.: CS-3A
Owner: JPL
Wavelength Range: VSWIR
Origin: Canada, Northwest Territories, Mackenzie District, Great Bear Lake.
Description: Particle size was 125-500um.Collected by:  Ward's Original ASTER Spectral Library name was jpl.perkin.mineral.silicate.cyclosilicate.coarse.cs03a.spectrum.txt
Measurement: Hemispherical reflectance
X Units: Wavelength (micrometers)
Y Units: Reflectance (percent)
wavelength	value
2.5	34.4167
2.494	35.8294
2.488	37.619
2.482	38.9223
2.476	40.3502
2.47	41.6618
2.464	42.9154
2.458	43.9346
2.452	44.956
2.446	46.1503
2.44	47.0147
2.434	47.7915
2.428	48.6324
2.422	49.1818
2.416	49.9284
2.41	50.5959
2.404	51.1068
2.398	51.5188
2.392	51.8928
2.386	52.2218
2.38	52.4841
2.374	52.7557
2.368	52.9605
2.362	52.9922
2.356	53.0985
2.35	53.1567
2.344	53.3151
2.338	53.5141
2.332	53.573
2.326	53.613
2.32	53.6558
2.314	53.6937
2.308	53.7698
2.302	53.7357
2.296	53.712
2.29	53.7241
2.284	53.5535
2.278	53.5595
2.272	53.4466
2.266	53.2296
2.26	53.1592
2.254	53.1256
2.248	53.3239
2.242	53.4453
2.236	53.7686
2.23	53.9338
2.224	54.0605
2.218	53.988
2.212	53.9049
2.206	53.8368
2.2	54.1062
2.194	54.4509
2.188	54.7233
2.182	55.0719
2.176	55.286
2.17	55.5585
2.164	56.0305
2.158	56.6262
2.152	57.3249
2.146	57.7858
2.14	58.0897
2.134	58.2241
2.128	58.2889
2.122	58.119
2.116	57.9084
2.11	57.5857
2.104	57.2634
2.098	57.0394
2.092	57.2381
2.086	57.3921
2.08	57.4123
2.074	58.0218
2.068	58.818
2.062	59.0487
2.056	59.2254
2.05	59.343
2.044	59.4826
2.038	59.5207
2.032	59.4069
2.026	59.2387
2.02	58.1232
2.014	56.3018
2.008	57.6634
2.002	57.9633
1.996	57.1857
1.99	56.1662
1.984	55.2279
1.978	54.4787
1.972	52.9149
1.966	51.8485
1.96	52.5288
1.954	52.4206
1.948	52.1892
1.942	52.0463
1.936	51.5429
1.93	50.8992
1.924	49.9514
1.918	47.3839
1.912	41.3671
1.906	30.6196
1.9	20.5163
1.894	29.2294
1.888	44.389
1.882	50.5946
1.876	52.8809
1.87	53.2965
1.864	53.0326
1.858	52.4234
1.852	51.7375
1.846	51.5634
1.84	51.6291
1.834	51.7944
1.828	52.5639
1.822	53.3167
1.816	54.9163
1.81	57.2627
1.804	59.3196
1.798	60.6773
1.792	61.5286
1.786	62.2526
1.78	63.0299
1.774	63.6691
1.768	64.2267
1.762	64.6195
1.756	64.9049
1.75	65.0625
1.744	65.205
1.738	65.3232
1.732	65.3627
1.726	65.4063
1.72	65.4093
1.714	65.4007
1.708	65.3614
1.702	65.2283
1.696	65.1649
1.69	65.0581
1.684	64.9831
1.678	64.9274
1.672	64.8252
1.666	64.7359
1.66	64.6247
1.654	64.4591
1.648	64.3835
1.642	64.271
1.636	64.1212
1.63	63.9627
1.624	63.7935
1.618	63.5907
1.612	63.3645
1.606	63.152
1.6	62.9282
1.594	62.7036
1.588	62.4086
1.582	61.9919
1.576	61.7183
1.57	61.3854
1.564	60.978
1.558	60.5915
1.552	60.0843
1.546	59.6175
1.54	59.1151
1.534	58.5718
1.528	57.9663
1.522	57.2967
1.516	56.619
1.51	55.8399
1.504	55.1279
1.498	54.3256
1.492	53.538
1.486	52.6333
1.48	51.6721
1.474	49.8277
1.468	46.0166
1.462	47.8872
1.456	47.4764
1.45	46.2632
1.444	45.0259
1.438	43.6686
1.432	42.2414
1.426	40.3329
1.42	38.0048
1.414	36.3466
1.408	30.9632
1.402	28.363
1.396	35.0673
1.39	35.376
1.384	34.5616
1.378	33.592
1.372	32.5073
1.366	31.6139
1.36	30.7616
1.354	30.2695
1.348	29.4894
1.342	28.6405
1.336	27.7007
1.33	26.8825
1.324	26.0162
1.318	25.2565
1.312	24.4065
1.306	23.6239
1.3	22.8412
1.294	22.2312
1.288	21.5531
1.282	20.9148
1.276	20.3772
1.27	19.7808
1.264	19.2474
1.258	18.8076
1.252	18.3328
1.246	17.9372
1.24	17.6032
1.234	17.222
1.228	16.946
1.222	16.6346
1.216	16.4378
1.21	16.1691
1.204	15.9574
1.198	15.7831
1.192	15.6099
1.186	15.5256
1.18	15.394
1.174	15.2253
1.168	15.1616
1.162	14.9996
1.156	14.9206
1.15	14.772
1.144	14.8624
1.138	14.7592
1.132	14.7194
1.126	14.5582
1.12	14.4844
1.114	14.4044
1.108	14.1856
1.102	14.0957
1.096	13.9019
1.09	13.715
1.084	13.5606
1.078	13.3606
1.072	13.0999
1.066	12.8223
1.06	12.5502
1.054	12.3314
1.048	12.0879
1.042	11.7264
1.036	11.5096
1.03	11.2342
1.024	11.093
1.018	10.9491
1.012	10.7646
1.006	10.5965
1	10.4456
0.994	10.3841
0.988	10.3819
0.982	10.4085
0.976	10.3784
0.97	10.4611
0.964	10.6149
0.958	10.7
0.952	10.8958
0.946	11.1291
0.94	11.4757
0.934	11.7588
0.928	12.1245
0.922	12.5365
0.916	12.9715
0.91	13.5241
0.904	14.0482
0.898	14.6372
0.892	15.2704
0.886	15.9715
0.88	16.7135
0.874	17.6049
0.868	18.4417
0.862	19.2982
0.856	20.7577
0.85	21.8237
0.844	22.8832
0.838	23.9894
0.832	25.0929
0.826	26.2537
0.82	27.4119
0.814	28.5209
0.808	29.6529
0.802	30.7369
0.796	31.7419
0.79	32.6084
0.784	33.4191
0.778	34.113
0.772	34.6646
0.766	35.0949
0.76	35.3531
0.754	35.4608
0.748	35.4841
0.742	35.3658
0.736	35.1582
0.73	34.8861
0.724	34.5425
0.718	34.1852
0.712	33.7254
0.706	33.2654
0.7	32.7509
0.694	32.2473
0.688	31.721
0.682	31.1817
0.676	30.6531
0.67	30.13
0.664	29.6365
0.658	29.198
0.652	28.8226
0.646	28.5
0.64	28.2184
0.634	27.9731
0.628	27.7411
0.622	27.5277
0.616	27.3155
0.61	27.1094
0.604	26.9034
0.598	26.6962
0.592	26.5595
0.586	26.428
0.58	26.3584
0.574	26.3313
0.568	26.3336
0.562	26.3539
0.556	26.3831
0.55	26.4386
0.544	26.5262
0.538	26.6232
0.532	26.7677
0.526	26.9189
0.52	27.052
0.514	27.2154
0.508	27.4391
0.502	27.603
0.496	27.6265
0.49	27.7732
0.484	28.2345
0.478	28.5743
0.472	28.9615
0.466	29.3976
0.46	29.6605
0.454	29.9531
0.448	30.1001
0.442	29.806
0.436	29.7722
0.43	29.7677
0.424	29.3071
0.418	29.1985
0.412	29.4989
0.406	29.6428
0.4	29.3061
