Name: Sodalite Na8Al6Si6O24Cl2
Type: Mineral
Class: Silicate
Subclass: Tectosilicate
Particle Size: Coarse
Sample No.: sodalite_1
Owner: JHU
Wavelength Range: TIR
Origin: Bancroft, Ontario, Canada via Norma Vergo.
Description: The hand sample was a large chunk of vivid blue sodalite that appeared quite pure. Microscopic examination showed about 2% contamination with either a colorless mineral with 1 degree yellow birefringence, or another colorless mineral with slight brownish staining, 2 degrees birefringence, and 2 directions of cleavage. One observed contaminant was a carbonate. Particle size was 75 - 250  Micrometers. (Framework silicates); Feldspathoid Group Original ASTER Spectral Library name was jhu.nicolet.mineral.silicate.tectosilicate.coarse.sodali1.spectrum.txt
Measurement: Bidirectional reflectance
X Units: Wavelength (micrometers)
Y Units: Reflectance (percent)
wavelength	value
25.0442	1.4932
24.3388	1.6421
23.6719	2.2397
23.0407	5.383
22.4422	3.9473
21.8741	1.54
21.334	4.8887
20.8199	5.5044
20.33	3.4138
19.8627	0.3296
19.4163	0.178
18.9896	0.3557
18.5812	0.5669
18.19	0.7087
17.815	0.8108
17.4551	0.9145
17.1094	0.9319
16.7772	0.9707
16.4576	0.9607
16.15	0.9355
15.8537	0.9265
15.568	0.9351
15.2925	1.0352
15.0265	1.6741
14.7697	0.4705
14.5214	0.6599
14.2814	0.8874
14.0492	1.1882
13.8244	0.9228
13.6067	2.2634
13.3957	0.5486
13.1912	0.3303
12.9929	0.4951
12.8004	0.5996
12.6135	0.6643
12.432	0.7419
12.2557	0.7795
12.0843	0.8606
11.9176	0.9155
11.7555	0.9722
11.5977	1.0176
11.444	1.0608
11.2944	1.1226
11.1487	1.2129
11.0067	1.3144
10.8682	1.4751
10.7332	1.7043
10.6015	2.074
10.473	2.7593
10.3476	4.3506
10.2251	6.9338
10.1056	7.1584
9.9887	7.3974
9.8746	7.2141
9.763	7.094
9.6539	7.0993
9.5472	7.4324
9.4429	7.2673
9.3408	5.676
9.2409	4.1282
9.1431	2.9502
9.0474	2.0569
8.9536	1.3469
8.8618	0.7251
8.7718	0.3044
8.6837	0.104
8.5973	0.04
8.5126	0.0593
8.4295	0.0889
8.3481	0.1401
8.2682	0.2026
8.1898	0.2529
8.1129	0.2578
8.0374	0.2903
7.9634	0.3596
7.8906	0.427
7.8192	0.4473
7.7491	0.4819
7.6802	0.5176
7.6126	0.5295
7.5461	0.5205
7.4807	0.2959
7.4165	0.6162
7.3534	0.7329
7.2914	0.8108
7.2303	0.7869
7.1703	0.7444
7.1113	0.7454
7.0533	0.7847
6.9962	0.7197
6.94	0.5474
6.8847	0.5422
6.8302	0.7104
6.7767	0.949
6.7239	1.0647
6.672	1.1111
6.6209	0.9592
6.5705	0.8784
6.5209	1.0413
6.4721	0.9573
6.424	0.8757
6.3766	0.8633
6.3299	0.9597
6.2838	0.9705
6.2385	0.8845
6.1937	0.7915
6.1496	0.7834
6.1062	0.6824
6.0633	0.7449
6.0211	0.7026
5.9794	0.7424
5.9383	0.5994
5.8978	0.5229
5.8578	0.4172
5.8184	0.8137
5.7794	1.2798
5.741	1.4216
5.7031	1.4319
5.6657	1.5659
5.6288	1.8921
5.5924	2.1455
5.5564	2.033
5.5209	2.0915
5.4859	2.2869
5.4513	2.6121
5.4171	3.2366
5.3833	3.6982
5.35	3.9111
5.3171	3.9836
5.2846	4.0193
5.2524	4.0093
5.2207	3.7507
5.1893	3.0454
5.1584	1.9656
5.1277	1.2002
5.0975	2.2649
5.0676	2.7234
5.038	2.9656
5.0088	3.0351
4.98	3.2424
4.9514	2.9036
4.9232	2.0535
4.8953	2.1128
4.8678	2.124
4.8405	2.7519
4.8135	3.3784
4.7868	3.8223
4.7605	4.3909
4.7344	4.6619
4.7086	4.6001
4.6831	4.5622
4.6578	4.7971
4.6328	5.1177
4.6081	5.3415
4.5837	5.4763
4.5595	5.5652
4.5356	5.6157
4.5119	5.6636
4.4884	5.7175
4.4652	5.7744
4.4423	5.8201
4.4196	5.8352
4.3971	5.8081
4.3748	5.9038
4.3528	5.9375
4.331	5.9187
4.3094	5.8918
4.288	5.7629
4.2668	5.3855
4.2458	5.8962
4.2251	6.0434
4.2045	6.0974
4.1841	6.1203
4.164	6.1267
4.144	6.1116
4.1242	6.1091
4.1046	6.1448
4.0852	6.1894
4.066	6.219
4.047	6.2358
4.0281	6.2493
4.0094	6.2356
3.9909	6.2109
3.9725	6.1887
3.9544	6.1799
3.9363	6.1723
3.9185	6.1789
3.9008	6.2092
3.8833	6.2275
3.8659	6.2278
3.8487	6.2119
3.8316	6.199
3.8147	6.1689
3.7979	6.0849
3.7813	5.9514
3.7648	5.7934
3.7485	5.9145
3.7323	6.0383
3.7162	6.081
3.7003	6.0903
3.6845	6.0808
3.6689	6.0674
3.6534	6.0698
3.638	6.0586
3.6227	6.0293
3.6076	6.0119
3.5926	5.989
3.5777	5.9621
3.563	5.9272
3.5484	5.8716
3.5338	5.8491
3.5195	5.831
3.5052	5.7908
3.491	5.7566
3.477	5.7287
3.463	5.6794
3.4492	5.6511
3.4355	5.612
3.4219	5.5742
3.4084	5.5307
3.395	5.5022
3.3817	5.4863
3.3685	5.4387
3.3554	5.4287
3.3425	5.4197
3.3296	5.3752
3.3168	5.2883
3.3041	5.0469
3.2915	4.8611
3.279	5.1582
3.2666	5.2053
3.2543	5.2102
3.2421	5.1789
3.23	5.1496
3.218	5.1211
3.206	5.0903
3.1942	5.0493
3.1824	5.0205
3.1707	4.97
3.1591	4.9311
3.1476	4.8862
3.1362	4.8357
3.1249	4.7886
3.1136	4.7517
3.1024	4.7036
3.0913	4.6545
3.0803	4.6096
3.0694	4.5676
3.0585	4.5246
3.0477	4.4712
3.037	4.4177
3.0264	4.3872
3.0158	4.345
3.0053	4.3025
2.9949	4.2583
2.9845	4.2261
2.9743	4.1904
2.9641	4.134
2.9539	4.0766
2.9439	4.0071
2.9339	3.9778
2.9239	3.9243
2.9141	3.8716
2.9043	3.8381
2.8946	3.7993
2.8849	3.7656
2.8753	3.7231
2.8658	3.6521
2.8563	3.54
2.8469	3.3955
2.8375	3.2414
2.8282	3.1594
2.819	3.335
2.8098	3.7261
2.8007	4.0535
2.7917	4.3091
2.7827	4.4656
2.7738	4.5913
2.7649	4.7073
2.7561	4.7373
2.7473	4.8042
2.7386	4.8974
2.7299	5.366
2.7213	5.7117
2.7128	5.906
2.7043	6.0669
2.6959	6.2097
2.6875	6.3044
2.6791	6.3828
2.6709	6.4216
2.6626	6.5022
2.6545	6.5547
2.6463	6.5959
2.6382	6.6196
2.6302	6.6172
2.6222	6.6159
2.6143	6.6323
2.6064	6.6267
2.5986	6.6416
2.5908	6.6047
2.583	6.5849
2.5753	6.6094
2.5677	6.6098
2.5601	6.623
2.5525	6.6328
2.545	6.6426
2.5375	6.6435
2.5301	6.6216
2.5227	6.613
2.5154	6.594
2.5081	6.6172
2.5008	6.6023
2.4936	6.6023
2.4864	6.5781
2.4793	6.531
2.4722	6.5486
2.4651	6.5207
2.4581	6.5068
2.4511	6.48
2.4442	6.4404
2.4373	6.4316
2.4305	6.4121
2.4236	6.4355
2.4169	6.4604
2.4101	6.5107
2.4034	6.5359
2.3967	6.5471
2.3901	6.5722
2.3835	6.5459
2.377	6.5967
2.3704	6.6035
2.364	6.6052
2.3575	6.5974
2.3511	6.6247
2.3447	6.6059
2.3384	6.6123
2.3321	6.5869
2.3258	6.6326
2.3195	6.6186
2.3133	6.6174
2.3071	6.6284
2.301	6.605
2.2949	6.6177
2.2888	6.605
2.2828	6.603
2.2767	6.6333
2.2708	6.6482
2.2648	6.6162
2.2589	6.6184
2.253	6.625
2.2471	6.6362
2.2413	6.6299
2.2355	6.6211
2.2297	6.6357
2.224	6.6196
2.2183	6.6372
2.2126	6.636
2.207	6.6362
2.2013	6.6084
2.1957	6.6167
2.1902	6.6196
2.1846	6.6357
2.1791	6.6216
2.1736	6.6347
2.1682	6.6245
2.1628	6.6421
2.1574	6.6792
2.152	6.6538
2.1466	6.625
2.1413	6.6318
2.136	6.646
2.1308	6.6396
2.1255	6.6626
2.1203	6.7095
2.1151	6.7012
2.11	6.7143
2.1048	6.7292
2.0997	6.7263
2.0946	6.7239
2.0895	6.7283
2.0845	6.7483
2.0795	6.7466
