Name: Chalcocite Cu_2S
Type: Mineral
Class: Sulfide
Subclass: None
Particle Size: Coarse
Sample No.: S-8A
Owner: JPL
Wavelength Range: TIR
Origin: USA, Alaska, Kennecott
Description: particle size was 125-500um.Collected by Burmico Original ASTER Spectral Library name was jpl.nicolet.mineral.sulfide.none.coarse.s08a.spectrum.txt
Measurement: Hemispherical reflectance
X Units: Wavelength (micrometers)
Y Units: Reflectance (percent)
wavelength	value
15.3853	12.4909
15.1161	12.3619
14.8563	12.0864
14.6052	12.1199
14.3624	12.2209
14.1276	12.5032
13.9004	12.2115
13.6803	12.2896
13.4671	12.1628
13.2604	12.3565
13.06	12.1101
12.8656	12.1166
12.6769	12.0502
12.4936	12.1886
12.3155	12.1296
12.1425	12.0684
11.9742	11.9325
11.8106	12.0282
11.6513	12.0667
11.4963	11.9653
11.3454	11.9838
11.1983	12.0374
11.0551	12.136
10.9154	12.0416
10.7793	12.1472
10.6465	11.9103
10.5169	12.1465
10.3904	12.0674
10.267	12.2608
10.1464	12.2822
10.0287	12.3744
9.9136	12.3374
9.8012	12.4872
9.6913	12.5504
9.5838	12.9112
9.4787	12.7125
9.3758	12.8425
9.2752	12.9405
9.1767	13.0384
9.0803	13.0538
8.9858	13.1495
8.8934	12.803
8.8028	12.7502
8.714	12.6156
8.627	12.2876
8.5417	12.382
8.4581	12.1904
8.3761	12.1969
8.2957	12.2102
8.2169	12.0434
8.1395	12.1869
8.0635	11.9091
7.989	11.8198
7.9158	11.7336
7.8439	11.667
7.7734	11.7154
7.7041	11.7145
7.636	11.6737
7.5691	11.6814
7.5034	11.6099
7.4388	11.5954
7.3753	11.5527
7.3129	11.5182
7.2515	11.5769
7.1912	11.4942
7.1318	11.6919
7.0734	11.6552
7.016	11.6108
6.9595	11.6087
6.9039	11.6095
6.8492	11.4433
6.7953	11.5232
6.7423	11.3351
6.6901	11.4823
6.6387	11.6837
6.5881	11.4729
6.5382	11.3465
6.4892	11.6193
6.4408	11.3434
6.3931	11.4257
6.3462	11.4474
6.2999	11.3798
6.2543	11.3263
6.2094	11.3098
6.1651	11.3961
6.1214	11.3817
6.0784	11.4596
6.0359	11.3208
5.994	11.3436
5.9527	11.2126
5.912	11.1183
5.8718	11.2317
5.8322	11.1443
5.7931	11.1601
5.7545	11.1577
5.7165	11.1493
5.6789	11.0502
5.6418	11.0039
5.6052	10.9358
5.5691	10.8578
5.5334	10.7759
5.4982	10.8721
5.4635	10.8689
5.4291	10.7716
5.3952	10.7915
5.3618	10.8338
5.3287	10.8208
5.2961	10.6775
5.2638	10.7233
5.2319	10.7234
5.2004	10.5767
5.1693	10.7065
5.1386	10.7283
5.1082	10.6837
5.0782	10.7278
5.0485	10.6586
5.0192	10.6473
4.9902	10.6087
4.9616	10.6121
4.9332	10.6635
4.9052	10.5936
4.8776	10.6076
4.8502	10.6262
4.8231	10.5625
4.7963	10.5435
4.7699	10.5237
4.7437	10.5688
4.7178	10.4646
4.6922	10.5585
4.6668	10.5118
4.6418	10.4518
4.617	10.5038
4.5924	10.4121
4.5681	10.4991
4.5441	10.3485
4.5203	10.2853
4.4968	10.349
4.4735	10.324
4.4505	10.2746
4.4277	10.2387
4.4051	10.3258
4.3828	10.2096
4.3607	10.2209
4.3388	10.2858
4.3171	10.2382
4.2956	10.1977
4.2744	10.1752
4.2534	10.1801
4.2325	10.2568
4.2119	10.1927
4.1915	10.018
4.1712	10.198
4.1512	10.0406
4.1313	10.1284
4.1117	9.9843
4.0922	10.0157
4.0729	9.9874
4.0538	10.0137
4.0349	9.9259
4.0161	9.9223
3.9976	10.0396
3.9792	9.9664
3.9609	9.8961
3.9428	9.9594
3.9249	9.8477
3.9072	9.8311
3.8896	9.9111
3.8722	9.8686
3.8549	9.819
3.8378	9.687
3.8208	9.9325
3.804	9.7668
3.7873	9.7713
3.7708	9.7175
3.7544	9.749
3.7382	9.7655
3.7221	9.7105
3.7061	9.6564
3.6903	9.7123
3.6746	9.5557
3.659	9.7172
3.6436	9.6456
3.6283	9.5189
3.6131	9.6639
3.5981	9.6062
3.5832	9.7222
3.5684	9.6016
3.5537	9.4459
3.5391	9.7005
3.5247	9.4351
3.5104	9.579
3.4962	9.4974
3.4821	9.5008
3.4681	9.448
3.4543	9.5265
3.4405	9.4048
3.4269	9.57
3.4133	9.4602
3.3999	9.4634
3.3866	9.5596
3.3733	9.4465
3.3602	9.3669
3.3472	9.407
3.3343	9.4375
3.3215	9.3782
3.3088	9.4591
3.2961	9.3448
3.2836	9.2955
3.2712	9.2653
3.2588	9.3446
3.2466	9.4172
3.2345	9.2463
3.2224	9.1479
3.2104	9.2508
3.1985	9.165
3.1867	9.2272
3.175	9.2651
3.1634	9.1859
3.1519	9.1373
3.1404	9.3068
3.129	9.106
3.1178	9.0967
3.1065	9.0891
3.0954	9.0089
3.0844	9.1962
3.0734	9.0046
3.0625	9.0342
3.0517	9.0123
3.041	9.1257
3.0303	8.9532
3.0197	9.0321
3.0092	9.0318
2.9987	9.0866
2.9884	9.018
2.9781	9.3516
2.9678	8.9692
2.9577	9.1408
2.9476	8.9865
2.9376	9.1555
2.9276	9.0931
2.9177	8.9391
2.9079	8.8175
2.8982	8.8904
2.8885	8.9419
2.8789	8.901
2.8693	9.0084
2.8598	8.8845
2.8504	8.8252
2.841	8.9041
2.8317	8.8795
2.8224	8.7219
2.8133	8.6653
2.8041	8.7602
2.7951	8.6141
2.786	8.5928
2.7771	8.5726
2.7682	8.6201
2.7594	8.5083
2.7506	8.6117
2.7418	8.5477
2.7332	8.5556
2.7246	8.6753
2.716	8.5682
2.7075	8.4805
2.699	8.676
2.6906	8.4787
2.6823	8.6193
2.674	8.4546
2.6657	8.7191
2.6575	8.4617
2.6494	8.606
2.6413	8.4916
2.6332	8.3822
2.6252	8.6439
2.6173	8.6121
2.6094	8.5474
2.6015	8.508
2.5937	8.5274
2.5859	8.5627
2.5782	8.3774
2.5706	8.4212
2.5629	8.5256
2.5554	8.1393
2.5478	8.3665
2.5403	8.3144
2.5329	8.2886
2.5255	8.0645
2.5181	8.288
2.5108	8.2187
2.5035	8.1207
2.4963	8.2495
2.4891	8.1112
2.482	8.1217
2.4749	8.2378
2.4678	8.1706
2.4608	8.1477
2.4538	8.2185
2.4468	7.8886
2.4399	8.0933
2.4331	8.2594
2.4262	8.1442
2.4194	7.9491
2.4127	8.154
2.4059	8.198
2.3993	8.0906
2.3926	8.0146
2.386	8.0287
2.3795	8.0658
2.3729	7.9913
2.3664	8.1547
2.36	7.966
2.3535	8.0165
2.3471	7.967
2.3408	7.9719
2.3345	8.1514
2.3282	7.9846
2.3219	7.8745
2.3157	7.7053
2.3095	7.8967
2.3034	7.7534
2.2972	7.972
2.2911	7.7265
2.2851	7.858
2.279	7.737
2.2731	7.7017
2.2671	7.8948
2.2612	7.8555
2.2553	7.8823
2.2494	7.8241
2.2435	7.7368
2.2377	7.8476
2.232	7.7467
2.2262	7.7863
2.2205	7.6509
2.2148	7.8944
2.2091	7.7653
2.2035	7.451
2.1979	7.6046
2.1923	7.4761
2.1868	7.5743
2.1812	7.7286
2.1758	7.6092
2.1703	7.9459
2.1649	7.6602
2.1595	7.8844
2.1541	7.3086
2.1487	7.4939
2.1434	7.7499
2.1381	7.6378
2.1328	7.6642
2.1275	7.6111
2.1223	7.715
2.1171	7.4746
2.112	7.4499
2.1068	7.3655
2.1017	7.6707
2.0966	7.4401
2.0915	7.3636
2.0865	7.4326
2.0814	7.3917
2.0764	7.7007
2.0715	7.4106
2.0665	7.8278
2.0616	7.4154
2.0567	7.5352
2.0518	7.5987
2.0469	7.3651
2.0421	7.3699
2.0373	7.4306
2.0325	7.7703
2.0277	7.7825
2.0229	7.4599
2.0182	7.3418
2.0135	7.647
2.0088	7.5018
2.0042	7.4813
