Name: Fayalite Fe_2SiO_4
Type: Mineral
Class: Silicate
Subclass: Nesosilicate
Particle Size: Coarse
Sample No.: NS-1A
Owner: JPL
Wavelength Range: VSWIR
Description: Particle size was 125-500um.Collected by JPL Original ASTER Spectral Library name was jpl.beckman.mineral.silicate.nesosilicate.coarse.ns01a.spectrum.txt
Measurement: Hemispherical reflectance
X Units: Wavelength (micrometers)
Y Units: Reflectance (percent)
wavelength	value
0.4	3.44
0.403	3.42
0.406	3.54
0.409	3.58
0.412	3.53
0.415	3.54
0.418	3.58
0.421	3.76
0.424	3.7
0.427	3.75
0.43	3.8
0.433	3.76
0.436	3.87
0.439	3.82
0.442	3.82
0.445	3.82
0.448	4.05
0.451	3.98
0.454	3.92
0.457	4
0.46	3.99
0.463	4.11
0.466	3.97
0.469	4.15
0.472	4.16
0.475	4.1
0.478	4.22
0.481	4.17
0.484	4.02
0.487	4.31
0.49	4.24
0.493	4.16
0.496	4.49
0.499	4.54
0.502	4.58
0.505	4.58
0.508	4.47
0.511	4.42
0.514	4.56
0.517	4.52
0.52	4.73
0.523	4.9
0.526	4.97
0.529	5.07
0.532	5.02
0.535	5.1
0.538	5.3
0.541	5.23
0.544	5.11
0.547	5.25
0.55	5.29
0.553	5.26
0.556	5.28
0.559	5.22
0.562	5.5
0.565	5.72
0.568	5.64
0.571	5.65
0.574	5.82
0.577	5.69
0.58	5.58
0.583	5.66
0.586	5.57
0.589	5.62
0.592	5.68
0.595	5.56
0.598	5.69
0.601	5.75
0.604	5.65
0.607	5.58
0.61	5.58
0.613	5.57
0.616	5.7
0.619	5.62
0.622	5.58
0.625	5.74
0.628	5.65
0.631	5.56
0.634	5.63
0.637	5.58
0.64	5.65
0.643	5.63
0.646	5.51
0.649	5.57
0.652	5.6
0.655	5.58
0.658	5.52
0.661	5.58
0.664	5.58
0.667	5.75
0.67	5.85
0.673	5.69
0.676	5.75
0.679	5.59
0.682	5.51
0.685	5.45
0.688	5.45
0.691	5.47
0.694	5.56
0.697	5.52
0.7	5.48
0.703	5.5
0.706	5.45
0.709	5.51
0.712	5.57
0.715	5.45
0.718	5.38
0.721	5.52
0.724	5.55
0.727	5.54
0.73	5.45
0.733	5.38
0.736	5.5
0.739	5.32
0.742	5.32
0.745	5.44
0.748	5.43
0.751	5.39
0.754	5.32
0.757	5.26
0.76	5.5
0.763	5.48
0.766	5.37
0.769	5.5
0.772	5.48
0.775	5.42
0.778	5.38
0.781	5.25
0.784	5.24
0.787	5.31
0.79	5.07
0.793	5.12
0.796	5.15
0.799	5.14
0.808	5.44
0.82	5.25
0.832	5.14
0.844	4.86
0.856	4.73
0.868	4.62
0.88	4.27
0.892	4.15
0.904	4.05
0.916	3.92
0.928	3.8
0.94	3.63
0.952	3.57
0.964	3.5
0.976	3.44
0.988	3.44
1	3.41
1.012	3.44
1.024	3.45
1.036	3.55
1.048	3.5
1.06	3.55
1.072	3.72
1.084	3.87
1.096	3.95
1.108	4.1
1.12	4.22
1.132	4.32
1.144	4.45
1.156	4.48
1.168	4.55
1.18	4.52
1.192	4.55
1.204	4.67
1.216	4.69
1.228	4.84
1.24	4.85
1.252	4.87
1.264	4.87
1.276	4.97
1.288	5.05
1.3	5.18
1.312	5.22
1.324	5.19
1.336	5.16
1.348	5.27
1.36	5.39
1.372	5.57
1.384	5.59
1.396	5.63
1.408	5.47
1.42	5.68
1.432	5.74
1.444	5.92
1.456	5.91
1.468	6.03
1.48	6.11
1.492	6.19
1.504	6.3
1.516	6.31
1.528	6.37
1.54	6.42
1.552	6.53
1.564	6.6
1.576	6.75
1.588	6.81
1.6	6.98
1.612	7
1.624	7.07
1.636	7.13
1.648	7.16
1.66	7.22
1.672	7.34
1.684	7.43
1.696	7.58
1.708	7.56
1.72	7.66
1.732	7.66
1.744	7.65
1.756	7.71
1.768	7.81
1.78	7.8
1.792	7.77
1.804	7.81
1.816	7.88
1.828	7.9
1.84	7.89
1.852	7.95
1.864	8.01
1.876	7.94
1.888	7.87
1.9	7.79
1.912	7.71
1.924	7.73
1.936	7.74
1.948	7.74
1.96	7.77
1.972	7.82
1.984	7.84
1.996	7.83
2.008	7.77
2.02	7.78
2.032	7.76
2.044	7.82
2.056	7.83
2.068	7.83
2.08	7.77
2.092	7.77
2.104	7.76
2.116	7.7
2.128	7.58
2.14	7.57
2.152	7.62
2.164	7.56
2.176	7.55
2.188	7.45
2.2	7.41
2.212	7.29
2.224	7.29
2.236	7.29
2.248	7.18
2.26	7.16
2.272	7.04
2.284	6.89
2.296	6.83
2.308	6.74
2.32	6.73
2.332	6.72
2.344	6.67
2.356	6.62
2.368	6.65
2.38	6.64
2.392	6.56
2.404	6.5
2.416	6.43
2.428	6.43
2.44	6.43
2.452	6.38
2.464	6.32
2.476	6.33
2.488	6.26
2.5	6.2
