Name: Titanite (Sphene) CaTiSiO_5
Type: Mineral
Class: Silicate
Subclass: Nesosilicate
Particle Size: Fine
Sample No.: NS-7A
Owner: JPL
Wavelength Range: TIR
Origin: Brazil, Minas Gerais, Capelinha
Description: Particle size was 0-45um.Collected by JPL Original ASTER Spectral Library name was jpl.nicolet.mineral.silicate.nesosilicate.fine.ns07a.spectrum.txt
Measurement: Hemispherical reflectance
X Units: Wavelength (micrometers)
Y Units: Reflectance (percent)
wavelength	value
15.3853	5.9874
15.1161	6.4034
14.8563	6.5055
14.6052	6.4369
14.3624	6.5281
14.1276	6.1719
13.9004	6.5065
13.6803	6.7791
13.4671	6.8315
13.2604	6.879
13.06	6.3894
12.8656	5.899
12.6769	5.8559
12.4936	5.8691
12.3155	5.6211
12.1425	6.4043
11.9742	7.3641
11.8106	9.011
11.6513	9.9123
11.4963	10.9529
11.3454	10.4646
11.1983	10.67
11.0551	11.5365
10.9154	11.4764
10.7793	12.1283
10.6465	12.3059
10.5169	12.6472
10.3904	12.5134
10.267	12.2705
10.1464	12.6857
10.0287	12.7065
9.9136	11.2391
9.8012	7.8928
9.6913	4.1364
9.5838	1.9872
9.4787	0.8511
9.3758	0.3146
9.2752	0.5182
9.1767	0.7695
9.0803	1.0206
8.9858	1.7269
8.8934	2.4919
8.8028	3.4353
8.714	4.6168
8.627	5.6069
8.5417	6.8792
8.4581	8.2776
8.3761	9.5587
8.2957	10.6755
8.2169	11.5174
8.1395	12.2654
8.0635	13.4169
7.989	15.0169
7.9158	17.0205
7.8439	18.7605
7.7734	20.2088
7.7041	21.4032
7.636	21.9533
7.5691	22.3902
7.5034	23.1039
7.4388	23.7746
7.3753	24.6851
7.3129	25.9592
7.2515	26.3908
7.1912	26.7074
7.1318	26.706
7.0734	26.6475
7.016	27.0632
6.9595	28.1719
6.9039	27.9002
6.8492	28.892
6.7953	30.1279
6.7423	30.8785
6.6901	32.8089
6.6387	36.4227
6.5881	36.6922
6.5382	37.7637
6.4892	41.3086
6.4408	40.1025
6.3931	40.0206
6.3462	41.0016
6.2999	40.0237
6.2543	40.8315
6.2094	41.2264
6.1651	41.4458
6.1214	41.3303
6.0784	40.9977
6.0359	39.6483
5.994	39.2257
5.9527	37.6078
5.912	35.7502
5.8718	34.116
5.8322	31.8043
5.7931	29.263
5.7545	29.4034
5.7165	30.9864
5.6789	32.3264
5.6418	34.4911
5.6052	35.2297
5.5691	36.8623
5.5334	38.2937
5.4982	38.9022
5.4635	39.3121
5.4291	38.9873
5.3952	38.9501
5.3618	40.4307
5.3287	42.9566
5.2961	45.577
5.2638	49.1215
5.2319	53.1367
5.2004	56.7272
5.1693	59.6576
5.1386	61.1587
5.1082	61.5517
5.0782	61.0669
5.0485	60.3253
5.0192	61.3134
4.9902	63.6841
4.9616	66.2015
4.9332	68.2657
4.9052	70.104
4.8776	71.4279
4.8502	72.431
4.8231	73.1647
4.7963	73.7943
4.7699	74.2059
4.7437	74.6774
4.7178	74.9678
4.6922	74.8697
4.6668	74.9955
4.6418	75.3174
4.617	75.735
4.5924	76.049
4.5681	76.3734
4.5441	76.7659
4.5203	76.8306
4.4968	76.9498
4.4735	77.112
4.4505	77.0413
4.4277	77.1287
4.4051	77.2861
4.3828	77.4068
4.3607	77.5255
4.3388	77.4953
4.3171	77.5689
4.2956	77.5502
4.2744	77.7071
4.2534	77.8486
4.2325	77.6395
4.2119	77.9133
4.1915	77.9821
4.1712	78.0397
4.1512	77.8937
4.1313	77.8829
4.1117	77.8935
4.0922	77.941
4.0729	77.9024
4.0538	77.7289
4.0349	77.6322
4.0161	77.3905
3.9976	77.0725
3.9792	76.7015
3.9609	76.4674
3.9428	76.3741
3.9249	76.1734
3.9072	76.0176
3.8896	75.8958
3.8722	75.7894
3.8549	75.7273
3.8378	75.8507
3.8208	75.768
3.804	75.7145
3.7873	75.5671
3.7708	75.5389
3.7544	75.3572
3.7382	75.2701
3.7221	75.0493
3.7061	74.7761
3.6903	74.613
3.6746	74.2622
3.659	73.992
3.6436	73.6838
3.6283	73.4765
3.6131	73.2364
3.5981	73.0085
3.5832	72.5681
3.5684	72.3599
3.5537	72.123
3.5391	71.8501
3.5247	71.4526
3.5104	70.7953
3.4962	70.3159
3.4821	70.3212
3.4681	70.0203
3.4543	69.6608
3.4405	69.2131
3.4269	68.54
3.4133	68.0353
3.3999	68.2555
3.3866	68.124
3.3733	67.8312
3.3602	67.9359
3.3472	67.7465
3.3343	67.6479
3.3215	67.4102
3.3088	67.2371
3.2961	66.9235
3.2836	66.5081
3.2712	66.3277
3.2588	65.9968
3.2466	65.7335
3.2345	65.3051
3.2224	65.0328
3.2104	64.7563
3.1985	64.5225
3.1867	64.166
3.175	63.7828
3.1634	63.5484
3.1519	63.26
3.1404	62.9361
3.129	62.6474
3.1178	62.4171
3.1065	62.1779
3.0954	61.8628
3.0844	61.5959
3.0734	61.285
3.0625	61.3075
3.0517	60.8026
3.041	60.7877
3.0303	60.5435
3.0197	60.2997
3.0092	60.0104
2.9987	59.7371
2.9884	59.3069
2.9781	58.9871
2.9678	58.6808
2.9577	58.4921
2.9476	57.8703
2.9376	57.2835
2.9276	56.3343
2.9177	55.4192
2.9079	53.48
2.8982	49.0031
2.8885	41.4817
2.8789	29.9462
2.8693	24.0851
2.8598	29.5166
2.8504	41.9855
2.841	53.1835
2.8317	57.9126
2.8224	59.8597
2.8133	60.855
2.8041	62.2216
2.7951	62.9488
2.786	64.8947
2.7771	65.6639
2.7682	67.4787
2.7594	67.8102
2.7506	69.5544
2.7418	71.9372
2.7332	71.8094
2.7246	74.285
2.716	73.3903
2.7075	73.8007
2.699	74.6796
2.6906	76.606
2.6823	78.154
2.674	79.0369
2.6657	82.083
2.6575	79.667
2.6494	79.819
2.6413	80.2526
2.6332	80.8351
2.6252	80.8214
2.6173	82.0657
2.6094	80.8558
2.6015	80.7198
2.5937	82.9737
2.5859	81.0825
2.5782	81.0797
2.5706	82.0966
2.5629	83.2758
2.5554	81.9839
2.5478	82.1
2.5403	81.6813
2.5329	81.7566
2.5255	81.7724
2.5181	81.9949
2.5108	81.8981
2.5035	81.9428
2.4963	81.7892
2.4891	81.8004
2.482	82.0334
2.4749	82.5115
2.4678	82.9404
2.4608	82.9865
2.4538	83.2332
2.4468	83.5123
2.4399	83.6006
2.4331	82.8616
2.4262	81.7392
2.4194	80.0515
2.4127	78.0677
2.4059	76.8215
2.3993	76.4077
2.3926	77.8453
2.386	80.3644
2.3795	82.6314
2.3729	84.1856
2.3664	84.9115
2.36	85.2862
2.3535	85.5447
2.3471	85.5786
2.3408	85.4662
2.3345	85.4316
2.3282	85.0726
2.3219	84.8259
2.3157	84.5308
2.3095	84.1103
2.3034	83.7651
2.2972	83.7048
2.2911	83.9692
2.2851	83.9558
2.279	83.5168
2.2731	82.4454
2.2671	81.1425
2.2612	80.7881
2.2553	81.9793
2.2494	82.8956
2.2435	82.956
2.2377	82.7804
2.232	82.7817
2.2262	82.2978
2.2205	82.3001
2.2148	82.4753
2.2091	81.985
2.2035	79.4142
2.1979	79.0879
2.1923	81.9492
2.1868	83.7565
2.1812	85.1403
2.1758	85.8829
2.1703	86.2566
2.1649	86.2415
2.1595	86.5837
2.1541	86.5642
2.1487	86.6325
2.1434	86.8323
2.1381	86.952
2.1328	86.7784
2.1275	86.8138
2.1223	86.8374
2.1171	86.9102
2.112	87.0081
2.1068	86.7368
2.1017	86.9333
2.0966	87.0773
2.0915	86.5593
2.0865	86.7916
2.0814	86.8231
2.0764	86.6038
2.0715	87.1714
2.0665	86.5776
2.0616	86.9782
2.0567	86.6177
2.0518	86.6462
2.0469	86.5101
2.0421	86.5928
2.0373	86.5198
2.0325	86.527
2.0277	86.4687
2.0229	86.4743
2.0182	86.2436
2.0135	86.804
2.0088	86.5923
2.0042	86.3473
