Name: Hematite alpha Fe_2O_3
Type: Mineral
Class: Oxide
Subclass: None
Particle Size: Fine
Sample No.: O-1A
Owner: JPL
Wavelength Range: TIR
Origin: USA, Alabama, Birmingham
Description: Particle size was 0-45um.Collected by Burminco Original ASTER Spectral Library name was jpl.nicolet.mineral.oxide.none.fine.o01a.spectrum.txt
Measurement: Hemispherical reflectance
X Units: Wavelength (micrometers)
Y Units: Reflectance (percent)
wavelength	value
15.3853	3.0056
15.1161	2.7865
14.8563	2.5916
14.6052	2.5534
14.3624	1.9464
14.1276	2.4256
13.9004	2.4758
13.6803	3.71
13.4671	4.5795
13.2604	5.1252
13.06	5.2516
12.8656	5.4257
12.6769	5.2735
12.4936	5.5804
12.3155	5.8025
12.1425	6.6866
11.9742	7.7139
11.8106	7.7755
11.6513	8.0788
11.4963	6.5017
11.3454	6.5964
11.1983	8.3085
11.0551	7.806
10.9154	7.5801
10.7793	7.7624
10.6465	7.5938
10.5169	7.5408
10.3904	7.2597
10.267	6.5426
10.1464	5.7036
10.0287	5.3918
9.9136	4.8122
9.8012	4.6788
9.6913	4.3829
9.5838	4.2629
9.4787	4.635
9.3758	5.7457
9.2752	6.7324
9.1767	7.7775
9.0803	8.9362
8.9858	10.1642
8.8934	11.2067
8.8028	12.7505
8.714	13.7189
8.627	13.4133
8.5417	15.5433
8.4581	17.1392
8.3761	18.8392
8.2957	20.6921
8.2169	23.4014
8.1395	25.0845
8.0635	25.3206
7.989	26.021
7.9158	25.8808
7.8439	25.7079
7.7734	25.9058
7.7041	25.9956
7.636	25.1571
7.5691	24.3578
7.5034	24.0124
7.4388	22.7452
7.3753	21.1891
7.3129	19.151
7.2515	16.951
7.1912	15.6489
7.1318	15.1172
7.0734	14.7891
7.016	13.8965
6.9595	13.5602
6.9039	13.4056
6.8492	13.6012
6.7953	14.206
6.7423	14.6237
6.6901	15.5336
6.6387	17.2734
6.5881	18.2059
6.5382	19.5531
6.4892	22.0789
6.4408	23.7438
6.3931	24.3745
6.3462	24.006
6.2999	22.6097
6.2543	22.4309
6.2094	22.35
6.1651	22.5867
6.1214	23.6037
6.0784	24.9992
6.0359	26.0492
5.994	27.3085
5.9527	27.7331
5.912	28.4275
5.8718	29.564
5.8322	30.2722
5.7931	30.7275
5.7545	31.3472
5.7165	31.883
5.6789	31.6372
5.6418	31.5457
5.6052	29.4101
5.5691	24.3043
5.5334	29.0639
5.4982	31.0996
5.4635	32.4122
5.4291	32.4948
5.3952	31.4686
5.3618	30.2741
5.3287	30.2365
5.2961	30.6931
5.2638	31.4839
5.2319	32.5004
5.2004	33.1693
5.1693	33.2173
5.1386	33.0082
5.1082	32.8954
5.0782	32.6201
5.0485	32.5288
5.0192	32.2594
4.9902	32.3812
4.9616	33.0009
4.9332	33.4478
4.9052	33.8738
4.8776	34.2712
4.8502	34.4823
4.8231	34.4499
4.7963	34.4226
4.7699	34.5307
4.7437	34.4101
4.7178	34.4513
4.6922	34.0008
4.6668	34.0309
4.6418	34.1954
4.617	34.3977
4.5924	34.476
4.5681	34.6601
4.5441	34.6272
4.5203	34.6499
4.4968	34.7485
4.4735	34.8032
4.4505	34.9189
4.4277	34.9062
4.4051	35.1338
4.3828	35.1208
4.3607	35.071
4.3388	35.1313
4.3171	35.0965
4.2956	35.0024
4.2744	34.9657
4.2534	34.8639
4.2325	34.9853
4.2119	34.9057
4.1915	34.9083
4.1712	34.8923
4.1512	34.7842
4.1313	34.662
4.1117	34.556
4.0922	34.4114
4.0729	34.2657
4.0538	33.8723
4.0349	32.847
4.0161	31.472
3.9976	29.2505
3.9792	27.8307
3.9609	28.4314
3.9428	30.287
3.9249	31.16
3.9072	31.5014
3.8896	31.5779
3.8722	31.7048
3.8549	31.7182
3.8378	31.8517
3.8208	32.3055
3.804	32.8501
3.7873	33.2858
3.7708	33.3206
3.7544	33.4118
3.7382	33.2876
3.7221	33.2545
3.7061	33.1142
3.6903	32.9868
3.6746	32.8526
3.659	32.778
3.6436	32.6838
3.6283	32.5537
3.6131	32.4903
3.5981	32.2059
3.5832	31.9657
3.5684	31.7115
3.5537	31.4742
3.5391	30.9196
3.5247	30.2048
3.5104	29.0144
3.4962	28.2724
3.4821	27.703
3.4681	28.1616
3.4543	28.7355
3.4405	28.6493
3.4269	28.272
3.4133	27.8931
3.3999	27.8097
3.3866	27.8747
3.3733	27.6633
3.3602	27.5706
3.3472	27.6696
3.3343	28.6019
3.3215	28.8646
3.3088	28.9202
3.2961	28.8539
3.2836	28.6308
3.2712	28.6154
3.2588	28.5165
3.2466	28.2043
3.2345	28.1097
3.2224	27.9854
3.2104	27.7149
3.1985	27.5871
3.1867	27.3211
3.175	27.1439
3.1634	27.0315
3.1519	26.6109
3.1404	26.4624
3.129	26.1683
3.1178	25.9491
3.1065	25.6599
3.0954	25.5085
3.0844	25.1171
3.0734	25.0008
3.0625	24.7868
3.0517	24.619
3.041	24.3075
3.0303	24.0361
3.0197	23.7945
3.0092	23.7556
2.9987	23.2311
2.9884	23.0725
2.9781	22.7264
2.9678	22.6022
2.9577	22.2653
2.9476	22.1405
2.9376	21.98
2.9276	22.0301
2.9177	22.1062
2.9079	22.1495
2.8982	22.3137
2.8885	22.5151
2.8789	22.2939
2.8693	22.4137
2.8598	22.4775
2.8504	22.4674
2.841	22.1408
2.8317	21.8522
2.8224	21.5697
2.8133	21.3895
2.8041	21.4003
2.7951	21.4562
2.786	21.0891
2.7771	19.8959
2.7682	19.6347
2.7594	20.5367
2.7506	21.7617
2.7418	23.3307
2.7332	24.5737
2.7246	26.3617
2.716	27.4086
2.7075	28.5339
2.699	29.0541
2.6906	29.5487
2.6823	29.7877
2.674	29.8227
2.6657	30.4574
2.6575	29.8391
2.6494	29.8191
2.6413	29.8117
2.6332	30.0781
2.6252	29.8867
2.6173	30.1767
2.6094	29.8122
2.6015	29.6422
2.5937	30.366
2.5859	29.7066
2.5782	29.7895
2.5706	29.7615
2.5629	29.7393
2.5554	29.3106
2.5478	29.5148
2.5403	29.1764
2.5329	29.2427
2.5255	29.1211
2.5181	29.1543
2.5108	29.0607
2.5035	29.1305
2.4963	28.9945
2.4891	28.9858
2.482	28.8894
2.4749	28.9277
2.4678	28.8722
2.4608	28.8449
2.4538	28.9159
2.4468	28.6458
2.4399	28.6601
2.4331	28.915
2.4262	28.6452
2.4194	28.7648
2.4127	28.5903
2.4059	28.6603
2.3993	28.5279
2.3926	28.5383
2.386	28.5157
2.3795	28.6236
2.3729	28.5009
2.3664	28.5456
2.36	28.2445
2.3535	28.3757
2.3471	28.1307
2.3408	28.2208
2.3345	28.2591
2.3282	27.9202
2.3219	28.3438
2.3157	28.0588
2.3095	28.1536
2.3034	27.9938
2.2972	27.965
2.2911	28.1732
2.2851	27.9633
2.279	27.9158
2.2731	27.9321
2.2671	27.9595
2.2612	27.6972
2.2553	27.8334
2.2494	27.7538
2.2435	27.6336
2.2377	27.7051
2.232	27.5189
2.2262	27.7294
2.2205	27.6196
2.2148	27.4631
2.2091	27.8178
2.2035	27.5416
2.1979	27.7282
2.1923	27.5209
2.1868	27.5903
2.1812	27.5088
2.1758	27.2023
2.1703	27.2921
2.1649	27.4448
2.1595	27.2534
2.1541	27.4929
2.1487	27.27
2.1434	27.2874
2.1381	27.2044
2.1328	27.2237
2.1275	27.2176
2.1223	27.0242
2.1171	27.2169
2.112	27.0811
2.1068	26.9935
2.1017	26.7998
2.0966	26.7062
2.0915	27.0583
2.0865	27.0979
2.0814	26.9875
2.0764	26.792
2.0715	26.8309
2.0665	26.9352
2.0616	26.8177
2.0567	26.3828
2.0518	26.7891
2.0469	26.5984
2.0421	26.565
2.0373	26.6405
2.0325	26.7063
2.0277	26.6882
2.0229	26.7166
2.0182	26.4883
2.0135	26.5475
2.0088	26.7483
2.0042	26.7878
