Name: Epidote Ca_2(Al,Fe^3+)_3O.SiO_4.Si_2O_7.OH
Type: Mineral
Class: Silicate
Subclass: Sorosilicate
Particle Size: Coarse
Sample No.: SS-1A
Owner: JPL
Wavelength Range: VSWIR
Origin: Mexico, Baja California Norte, Valle De La Trinidad
Description: Particle size was 125-500um.Collected by Burminco Original ASTER Spectral Library name was jpl.beckman.mineral.silicate.sorosilicate.coarse.ss01a.spectrum.txt
Measurement: Hemispherical reflectance
X Units: Wavelength (micrometers)
Y Units: Reflectance (percent)
wavelength	value
0.4	3.24
0.403	3.11
0.406	3.23
0.409	3.23
0.412	3.29
0.415	3.46
0.418	3.53
0.421	3.75
0.424	3.88
0.427	4.05
0.43	4.36
0.433	4.52
0.436	4.83
0.439	5
0.442	5
0.445	4.98
0.448	4.76
0.451	4.35
0.454	4.33
0.457	4.53
0.46	4.71
0.463	4.69
0.466	4.64
0.469	4.34
0.472	4.58
0.475	4.52
0.478	4.87
0.481	5.28
0.484	5.66
0.487	6.11
0.49	6.5
0.493	6.99
0.496	7.41
0.499	7.74
0.502	8.06
0.505	8.29
0.508	8.59
0.511	8.89
0.514	9.04
0.517	9.18
0.52	9.41
0.523	9.56
0.526	9.64
0.529	9.72
0.532	9.73
0.535	9.85
0.538	9.99
0.541	9.98
0.544	10.08
0.547	9.97
0.55	10.03
0.553	9.98
0.556	9.86
0.559	9.95
0.562	9.9
0.565	9.88
0.568	9.86
0.571	9.85
0.574	9.85
0.577	9.83
0.58	9.69
0.583	9.79
0.586	9.64
0.589	9.79
0.592	9.78
0.595	9.67
0.598	9.78
0.601	9.73
0.604	9.81
0.607	9.89
0.61	9.83
0.613	9.9
0.616	9.93
0.619	10.07
0.622	10.05
0.625	10.06
0.628	10.22
0.631	10.32
0.634	10.43
0.637	10.5
0.64	10.69
0.643	10.69
0.646	10.86
0.649	11.06
0.652	11.25
0.655	11.37
0.658	11.55
0.661	11.81
0.664	11.92
0.667	12.14
0.67	12.28
0.673	12.39
0.676	12.72
0.679	12.8
0.682	13.07
0.685	13.18
0.688	13.32
0.691	13.5
0.694	13.7
0.697	13.89
0.7	13.97
0.703	14.15
0.706	14.42
0.709	14.61
0.712	14.67
0.715	14.8
0.718	15
0.721	15.06
0.724	15.35
0.727	15.34
0.73	15.4
0.733	15.53
0.736	15.62
0.739	15.8
0.742	15.76
0.745	15.84
0.748	15.99
0.751	16.04
0.754	16.08
0.757	16.12
0.76	16.1
0.763	16.19
0.766	16.19
0.769	16.31
0.772	16.29
0.775	16.31
0.778	16.37
0.781	16.39
0.784	16.49
0.787	16.46
0.79	16.48
0.793	16.53
0.796	16.56
0.799	16.69
0.808	17.31
0.82	17.42
0.832	17.7
0.844	18.24
0.856	18.85
0.868	19.54
0.88	20.22
0.892	20.82
0.904	21.29
0.916	21.53
0.928	21.74
0.94	21.89
0.952	21.82
0.964	21.65
0.976	21.51
0.988	21.29
1	21.12
1.012	20.99
1.024	20.89
1.036	20.81
1.048	20.91
1.06	21.04
1.072	21.42
1.084	21.75
1.096	22.27
1.108	22.85
1.12	23.67
1.132	24.52
1.144	25.49
1.156	26.45
1.168	27.5
1.18	28.56
1.192	29.82
1.204	31.15
1.216	32.29
1.228	33.34
1.24	34.23
1.252	34.96
1.264	35.66
1.276	36.21
1.288	36.6
1.3	36.92
1.312	37.11
1.324	37.44
1.336	37.87
1.348	38.26
1.36	38.69
1.372	39.04
1.384	39.21
1.396	39.22
1.408	39.32
1.42	39.53
1.432	39.62
1.444	39.61
1.456	39.5
1.468	39.32
1.48	38.77
1.492	38.13
1.504	37.13
1.516	35.87
1.528	34.66
1.54	33.81
1.552	34.1
1.564	35.34
1.576	36.2
1.588	36.88
1.6	37.45
1.612	37.92
1.624	38.2
1.636	38.47
1.648	38.78
1.66	38.94
1.672	39.09
1.684	39.32
1.696	39.63
1.708	39.98
1.72	40.33
1.732	40.71
1.744	41.06
1.756	41.42
1.768	41.82
1.78	42.13
1.792	42.45
1.804	42.61
1.816	41.88
1.828	41.39
1.84	42.65
1.852	43.96
1.864	44.43
1.876	44.54
1.888	45.4
1.9	46.22
1.912	46.72
1.924	46.85
1.936	46.41
1.948	46.43
1.96	47.58
1.972	48.84
1.984	49.71
1.996	50.12
2.008	50.61
2.02	51.15
2.032	51.63
2.044	52.21
2.056	52.48
2.068	52.81
2.08	53.07
2.092	53.22
2.104	53.27
2.116	53.32
2.128	53.14
2.14	53.1
2.152	52.81
2.164	52.16
2.176	51.22
2.188	50.09
2.2	48.85
2.212	46.44
2.224	41.47
2.236	33.71
2.248	27.94
2.26	27.93
2.272	29.01
2.284	27.04
2.296	22.22
2.308	16.28
2.32	12.27
2.332	10.63
2.344	12.68
2.356	19.39
2.368	28.41
2.38	35.83
2.392	40.61
2.404	43.48
2.416	45.07
2.428	45.52
2.44	45.26
2.452	44.43
2.464	43.35
2.476	42.1
2.488	40.75
2.5	39.59
