Name: Albite NaAlSi3O8
Type: Mineral
Class: Silicate
Subclass: Tectosilicate
Particle Size: Coarse
Sample No.: albite_1
Owner: JHU
Wavelength Range: TIR
Origin: Sample from Rutherford, Virginia, USA via the Smithsonian(sample no. NMNHC5390) and Bruce Hemingway.
Description: The sample was a large (2 cm x 2 cm x 2 cm) fragment of a twinned crystal.  The sample appeared very fresh.  It was translucent and light gray to white in color Ñ a sample of the classic Amelia albite.(Framework silicates) (Feldspar Group)Particle size was 74-250 Micrometers. Original ASTER Spectral Library name was jhu.nicolet.mineral.silicate.tectosilicate.coarse.albite1.spectrum.txt
Measurement: Bidirectional reflectance
X Units: Wavelength (micrometers)
Y Units: Reflectance (percent)
wavelength	value
25.0442	6.1909
24.3388	6.3218
23.6719	8.2197
23.0407	6.1157
22.4422	6.043
21.8741	4.0015
21.334	4.2153
20.8199	4.9761
20.33	4.1308
19.8627	2.4018
19.4163	2.9097
18.9896	3.7788
18.5812	4.4624
18.19	2.739
17.815	2.9121
17.4551	3.6038
17.1094	4.6091
16.7772	5.5159
16.4576	5.6255
16.15	4.4116
15.8537	3.4358
15.568	2.8718
15.2925	4.5735
15.0265	3.6052
14.7697	2.3679
14.5214	2.4282
14.2814	2.6401
14.0492	2.8823
13.8244	3.3125
13.6067	2.8672
13.3957	3.5261
13.1912	3.1792
12.9929	3.5405
12.8004	2.2427
12.6135	2.7068
12.432	1.9663
12.2557	2.2366
12.0843	2.4119
11.9176	2.5247
11.7555	2.6189
11.5977	2.72
11.444	2.7974
11.2944	2.9023
11.1487	2.9907
11.0067	3.0791
10.8682	3.2139
10.7332	3.4199
10.6015	3.657
10.473	3.9739
10.3476	4.5056
10.2251	5.4626
10.1056	6.7229
9.9887	8.0996
9.8746	8.6037
9.763	7.3779
9.6539	10.4145
9.5472	10.1701
9.4429	7.0278
9.3408	6.438
9.2409	5.7449
9.1431	6.4416
9.0474	5.8218
8.9536	5.3786
8.8618	5.9624
8.7718	7.105
8.6837	8.3991
8.5973	8.8364
8.5126	8.5959
8.4295	8.5151
8.3481	8.4599
8.2682	8.2287
8.1898	7.7436
8.1129	6.5088
8.0374	5.0952
7.9634	3.73
7.8906	2.49
7.8192	1.3931
7.7491	0.5803
7.6802	0.3281
7.6126	0.3809
7.5461	0.5088
7.4807	0.6121
7.4165	0.6831
7.3534	0.7559
7.2914	0.8337
7.2303	0.8933
7.1703	0.9734
7.1113	1.0898
7.0533	1.1523
6.9962	1.1843
6.94	1.2251
6.8847	1.2949
6.8302	1.3347
6.7767	1.3345
6.7239	1.3496
6.672	1.3784
6.6209	1.3723
6.5705	1.4236
6.5209	1.4663
6.4721	1.5312
6.424	1.5967
6.3766	1.5771
6.3299	1.5195
6.2838	1.48
6.2385	1.4434
6.1937	1.4311
6.1496	1.5002
6.1062	1.5923
6.0633	1.6269
6.0211	1.6362
5.9794	1.6619
5.9383	1.6284
5.8978	1.5955
5.8578	1.6189
5.8184	1.5959
5.7794	1.551
5.741	1.5161
5.7031	1.5115
5.6657	1.5371
5.6288	1.5923
5.5924	1.5959
5.5564	1.5876
5.5209	1.7327
5.4859	1.8694
5.4513	1.9534
5.4171	2.125
5.3833	2.4131
5.35	2.5867
5.3171	2.5544
5.2846	2.4885
5.2524	2.417
5.2207	2.417
5.1893	2.4978
5.1584	2.6567
5.1277	2.8125
5.0975	3.0264
5.0676	3.3135
5.038	3.4199
5.0088	3.4975
4.98	3.6711
4.9514	4.2659
4.9232	4.1929
4.8953	3.8967
4.8678	4.1514
4.8405	4.5371
4.8135	4.5303
4.7868	4.1042
4.7605	4.198
4.7344	4.522
4.7086	4.8164
4.6831	5.0273
4.6578	5.1518
4.6328	5.4255
4.6081	5.8777
4.5837	6.1755
4.5595	6.4482
4.5356	6.7107
4.5119	7.0747
4.4884	7.5112
4.4652	7.8684
4.4423	8.0657
4.4196	8.1819
4.3971	8.3655
4.3748	8.5898
4.3528	8.7776
4.331	9.0317
4.3094	9.3506
4.288	9.6316
4.2668	9.8669
4.2458	10.072
4.2251	10.2773
4.2045	10.49
4.1841	10.612
4.164	10.6987
4.144	10.7483
4.1242	10.8047
4.1046	10.8423
4.0852	10.8708
4.066	10.8994
4.047	10.915
4.0281	10.925
4.0094	10.9145
3.9909	10.9052
3.9725	10.9104
3.9544	10.9475
3.9363	10.9992
3.9185	11.0412
3.9008	11.0915
3.8833	11.1159
3.8659	11.1296
3.8487	11.1592
3.8316	11.1804
3.8147	11.2065
3.7979	11.2697
3.7813	11.3215
3.7648	11.3654
3.7485	11.4126
3.7323	11.4475
3.7162	11.4548
3.7003	11.4785
3.6845	11.4831
3.6689	11.5007
3.6534	11.549
3.638	11.5752
3.6227	11.5818
3.6076	11.601
3.5926	11.6001
3.5777	11.6025
3.563	11.5991
3.5484	11.573
3.5338	11.5554
3.5195	11.5351
3.5052	11.4931
3.491	11.4824
3.477	11.4499
3.463	11.4162
3.4492	11.3598
3.4355	11.3088
3.4219	11.2126
3.4084	11.1469
3.395	11.103
3.3817	11.0471
3.3685	10.9812
3.3554	10.9228
3.3425	10.8552
3.3296	10.7817
3.3168	10.6797
3.3041	10.6003
3.2915	10.5544
3.279	10.5124
3.2666	10.4824
3.2543	10.4638
3.2421	10.4492
3.23	10.447
3.218	10.4265
3.206	10.4111
3.1942	10.3991
3.1824	10.374
3.1707	10.3445
3.1591	10.3257
3.1476	10.2954
3.1362	10.2773
3.1249	10.2663
3.1136	10.2383
3.1024	10.2185
3.0913	10.196
3.0803	10.1587
3.0694	10.1435
3.0585	10.1352
3.0477	10.1247
3.037	10.1279
3.0264	10.1037
3.0158	10.073
3.0053	10.0542
2.9949	10.0241
2.9845	9.9563
2.9743	9.9551
2.9641	9.9697
2.9539	9.9914
2.9439	9.9807
2.9339	9.9092
2.9239	9.9106
2.9141	9.924
2.9043	9.9248
2.8946	9.9382
2.8849	9.9387
2.8753	9.8652
2.8658	9.8718
2.8563	9.5947
2.8469	9.102
2.8375	10.0154
2.8282	10.2019
2.819	10.3073
2.8098	10.3886
2.8007	10.4587
2.7917	10.5403
2.7827	10.5
2.7738	10.5527
2.7649	10.6684
2.7561	10.8069
2.7473	11.0368
2.7386	11.1843
2.7299	11.3618
2.7213	11.5344
2.7128	11.6726
2.7043	11.7478
2.6959	11.8523
2.6875	11.8904
2.6791	11.9619
2.6709	11.9609
2.6626	12.0195
2.6545	12.007
2.6463	12.0027
2.6382	12.0232
2.6302	11.9621
2.6222	11.9875
2.6143	11.9638
2.6064	11.9585
2.5986	11.9831
2.5908	11.9785
2.583	11.945
2.5753	11.9336
2.5677	11.9087
2.5601	11.8896
2.5525	11.8847
2.545	11.886
2.5375	11.8906
2.5301	11.8628
2.5227	11.8491
2.5154	11.8667
2.5081	11.8435
2.5008	11.8125
2.4936	11.8369
2.4864	11.8127
2.4793	11.8071
2.4722	11.7734
2.4651	11.7368
2.4581	11.7436
2.4511	11.7273
2.4442	11.7456
2.4373	11.7007
2.4305	11.6909
2.4236	11.6926
2.4169	11.7226
2.4101	11.6401
2.4034	11.6499
2.3967	11.6401
2.3901	11.6115
2.3835	11.6338
2.377	11.5898
2.3704	11.6081
2.364	11.5874
2.3575	11.5581
2.3511	11.5844
2.3447	11.5722
2.3384	11.5205
2.3321	11.4917
2.3258	11.4809
2.3195	11.5195
2.3133	11.5171
2.3071	11.5188
2.301	11.4966
2.2949	11.4792
2.2888	11.4743
2.2828	11.4428
2.2767	11.4236
2.2708	11.4314
2.2648	11.4279
2.2589	11.4133
2.253	11.4238
2.2471	11.3694
2.2413	11.3491
2.2355	11.4221
2.2297	11.4211
2.224	11.3786
2.2183	11.3945
2.2126	11.4043
2.207	11.3745
2.2013	11.3794
2.1957	11.3667
2.1902	11.3918
2.1846	11.3584
2.1791	11.3808
2.1736	11.4072
2.1682	11.4126
2.1628	11.4267
2.1574	11.4572
2.152	11.3889
2.1466	11.4482
2.1413	11.4038
2.136	11.4184
2.1308	11.498
2.1255	11.4504
2.1203	11.4795
2.1151	11.4853
2.11	11.4614
2.1048	11.5129
2.0997	11.4697
2.0946	11.5229
2.0895	11.5537
2.0845	11.581
2.0795	11.593
