Name: Barite BaSO_4
Type: Mineral
Class: Sulfate
Subclass: None
Particle Size: Medium
Sample No.: SO-3A
Owner: JPL
Wavelength Range: TIR
Origin: USA, South Carolina, Cherokee County, Kings Creek
Description: Particle size was 45-125um.Collected by Ward's Original ASTER Spectral Library name was jpl.nicolet.mineral.sulfate.none.medium.so03a.spectrum.txt
Measurement: Hemispherical reflectance
X Units: Wavelength (micrometers)
Y Units: Reflectance (percent)
wavelength	value
15.3853	3.8513
15.1161	1.5401
14.8563	5.2459
14.6052	10.7518
14.3624	11.1304
14.1276	11.828
13.9004	15.0003
13.6803	17.0369
13.4671	18.6539
13.2604	20.1602
13.06	19.0155
12.8656	15.7054
12.6769	14.6786
12.4936	14.6012
12.3155	15.0208
12.1425	16.6913
11.9742	20.1304
11.8106	25.5049
11.6513	27.9914
11.4963	25.4815
11.3454	21.4992
11.1983	18.2237
11.0551	16.1161
10.9154	14.6505
10.7793	14.5205
10.6465	14.4045
10.5169	12.6489
10.3904	9.5513
10.267	6.9736
10.1464	4.6696
10.0287	7.1908
9.9136	7.1047
9.8012	7.0773
9.6913	7.4484
9.5838	8.5704
9.4787	10.4997
9.3758	14.6074
9.2752	18.7356
9.1767	23.5092
9.0803	28.3931
8.9858	31.4648
8.8934	33.0896
8.8028	31.946
8.714	23.6509
8.627	17.5046
8.5417	14.1396
8.4581	9.649
8.3761	8.4648
8.2957	8.9701
8.2169	9.8573
8.1395	10.0638
8.0635	4.801
7.989	1.536
7.9158	0.5915
7.8439	0.6291
7.7734	1.0552
7.7041	1.8708
7.636	3.2649
7.5691	4.9809
7.5034	6.96
7.4388	8.0175
7.3753	10.9244
7.3129	15.1207
7.2515	21.4682
7.1912	27.9788
7.1318	29.69
7.0734	38.2082
7.016	40.7486
6.9595	34.4532
6.9039	42.2368
6.8492	44.9433
6.7953	48.6111
6.7423	49.2789
6.6901	48.5187
6.6387	43.1298
6.5881	29.217
6.5382	19.282
6.4892	17.245
6.4408	16.8553
6.3931	21.0097
6.3462	26.0489
6.2999	20.0494
6.2543	17.7299
6.2094	20.7837
6.1651	25.3981
6.1214	33.4616
6.0784	44.2496
6.0359	47.4553
5.994	50.7757
5.9527	52.5299
5.912	52.6541
5.8718	52.0493
5.8322	50.9965
5.7931	52.4875
5.7545	54.5233
5.7165	55.2237
5.6789	55.0732
5.6418	56.5441
5.6052	56.6876
5.5691	56.6349
5.5334	57.0198
5.4982	57.7727
5.4635	59.2884
5.4291	60.7548
5.3952	63.4059
5.3618	66.4238
5.3287	68.3349
5.2961	69.2149
5.2638	68.9689
5.2319	68.907
5.2004	67.3019
5.1693	65.6596
5.1386	60.7869
5.1082	45.5746
5.0782	27.0196
5.0485	53.989
5.0192	52.5175
4.9902	47.7985
4.9616	40.0575
4.9332	28.4898
4.9052	14.4035
4.8776	7.835
4.8502	6.524
4.8231	6.9709
4.7963	8.3762
4.7699	8.7947
4.7437	10.2929
4.7178	8.7579
4.6922	7.8228
4.6668	7.7071
4.6418	10.8341
4.617	11.0045
4.5924	11.1672
4.5681	10.0238
4.5441	10.4607
4.5203	12.8121
4.4968	15.2407
4.4735	16.4365
4.4505	16.6754
4.4277	17.8424
4.4051	19.3891
4.3828	20.836
4.3607	22.2479
4.3388	23.5138
4.3171	22.3379
4.2956	19.3394
4.2744	18.6532
4.2534	20.1399
4.2325	22.5203
4.2119	27.6033
4.1915	34
4.1712	42.7111
4.1512	50.2551
4.1313	55.8903
4.1117	60.4149
4.0922	64.1928
4.0729	67.8064
4.0538	70.6286
4.0349	72.9196
4.0161	74.6112
3.9976	75.1452
3.9792	75.2647
3.9609	76.4555
3.9428	78.1811
3.9249	79.9493
3.9072	80.5204
3.8896	77.4314
3.8722	77.9681
3.8549	79.7051
3.8378	81.4965
3.8208	83.9356
3.804	85.3878
3.7873	85.7003
3.7708	85.568
3.7544	85.1055
3.7382	85.1042
3.7221	85.2916
3.7061	85.524
3.6903	85.6265
3.6746	85.7502
3.659	85.4726
3.6436	85.1029
3.6283	84.5951
3.6131	84.2428
3.5981	83.8494
3.5832	83.4747
3.5684	83.3967
3.5537	83.0053
3.5391	82.7723
3.5247	82.26
3.5104	81.2547
3.4962	80.3663
3.4821	80.3665
3.4681	80.2821
3.4543	80.1058
3.4405	79.3712
3.4269	78.3365
3.4133	77.3129
3.3999	75.9065
3.3866	76.8246
3.3733	76.6493
3.3602	76.3068
3.3472	75.6885
3.3343	74.3621
3.3215	71.3081
3.3088	66.3072
3.2961	66.4484
3.2836	66.265
3.2712	67.0907
3.2588	66.687
3.2466	67.0401
3.2345	66.2002
3.2224	64.392
3.2104	63.0093
3.1985	62.0335
3.1867	61.5168
3.175	60.7079
3.1634	60.0621
3.1519	59.3809
3.1404	58.9534
3.129	58.3143
3.1178	57.5787
3.1065	56.8096
3.0954	56.3933
3.0844	56.217
3.0734	55.9325
3.0625	55.444
3.0517	55.2606
3.041	55.0381
3.0303	54.8989
3.0197	54.7831
3.0092	54.7127
2.9987	54.4132
2.9884	54.2964
2.9781	54.1287
2.9678	54.067
2.9577	53.8705
2.9476	53.7858
2.9376	53.9271
2.9276	54.0365
2.9177	54.4348
2.9079	54.6953
2.8982	55.0747
2.8885	55.6501
2.8789	56.1274
2.8693	56.6469
2.8598	57.4477
2.8504	58.2776
2.841	58.9072
2.8317	60.04
2.8224	61.1156
2.8133	62.31
2.8041	63.6494
2.7951	64.6797
2.786	66.0752
2.7771	66.7841
2.7682	68.6726
2.7594	70.1654
2.7506	71.9992
2.7418	75.2245
2.7332	76.8207
2.7246	80.4736
2.716	81.6657
2.7075	82.7582
2.699	81.9621
2.6906	84.2779
2.6823	86.7305
2.674	88.416
2.6657	90.8374
2.6575	89.4368
2.6494	89.6337
2.6413	90.0779
2.6332	90.4441
2.6252	90.5228
2.6173	91.6873
2.6094	90.9802
2.6015	90.9223
2.5937	92.2919
2.5859	91.1183
2.5782	90.8957
2.5706	91.0917
2.5629	91.4917
2.5554	90.5917
2.5478	90.7716
2.5403	90.6528
2.5329	90.6742
2.5255	90.6367
2.5181	90.6958
2.5108	90.6676
2.5035	90.634
2.4963	90.76
2.4891	90.6461
2.482	90.9483
2.4749	90.8738
2.4678	90.9353
2.4608	90.9193
2.4538	91.1322
2.4468	91.043
2.4399	91.2943
2.4331	91.2225
2.4262	91.3453
2.4194	91.1783
2.4127	91.3825
2.4059	91.3201
2.3993	91.435
2.3926	91.3792
2.386	91.5464
2.3795	91.6154
2.3729	91.6123
2.3664	91.6519
2.36	91.7344
2.3535	91.8243
2.3471	91.8343
2.3408	91.647
2.3345	91.8914
2.3282	91.8181
2.3219	91.9414
2.3157	91.8999
2.3095	91.8641
2.3034	92.08
2.2972	91.8868
2.2911	91.8774
2.2851	92.1161
2.279	92.004
2.2731	91.9764
2.2671	91.9378
2.2612	92.1303
2.2553	92.0912
2.2494	92.1731
2.2435	92.1203
2.2377	92.1884
2.232	92.1699
2.2262	92.1326
2.2205	92.1869
2.2148	92.3197
2.2091	92.3101
2.2035	92.1867
2.1979	92.188
2.1923	92.3835
2.1868	92.0485
2.1812	92.2907
2.1758	92.4288
2.1703	92.1797
2.1649	92.3626
2.1595	92.2487
2.1541	92.2073
2.1487	92.1381
2.1434	92.236
2.1381	92.0742
2.1328	92.3341
2.1275	92.4513
2.1223	92.3141
2.1171	92.3072
2.112	92.2549
2.1068	92.4638
2.1017	92.1639
2.0966	92.3394
2.0915	92.3303
2.0865	92.1367
2.0814	92.4308
2.0764	92.5578
2.0715	92.2396
2.0665	92.1508
2.0616	92.2572
2.0567	92.1354
2.0518	92.3225
2.0469	92.0836
2.0421	92.4631
2.0373	92.0899
2.0325	91.7654
2.0277	92.164
2.0229	92.4347
2.0182	91.9999
2.0135	91.9376
2.0088	92.3589
2.0042	91.9883
