Name: Leucite KAlSi2O6
Type: Mineral
Class: Silicate
Subclass: Tectosilicate
Particle Size: Fine
Sample No.: leucite_1
Owner: JHU
Wavelength Range: TIR
Origin: Lake Latium, Italy via the Smithsonian (sample no. NMNHB18734)
Description: The sample was a single small crystal, 1 cm in diameter and weighing 1.25 g.  It had good crystal faces and no impurities or alterations were apparent in hand sample or under the microscope.  It did contain what appeared to be fluid inclusions. Particle size was Less than 2 micrometers.(Framework Silicates); (Feldspathoid Group) Original ASTER Spectral Library name was jhu.nicolet.mineral.silicate.tectosilicate.powder.leucit1.spectrum.txt
Measurement: Transmission
X Units: Wavelength (micrometers)
Y Units: Transmittance (percent)
wavelength	value
25.0442	61.1131
24.3388	54.3436
23.6719	46.3632
23.0407	39.9061
22.4422	43.0712
21.8741	52.7655
21.334	57.5204
20.8199	63.5506
20.33	71.1717
19.8627	81.6307
19.4163	83.5008
18.9896	84.5471
18.5812	81.4871
18.19	88.4417
17.815	92.3616
17.4551	91.678
17.1094	89.3674
16.7772	85.2801
16.4576	80.1141
16.15	81.1746
15.8537	75.0408
15.568	73.9647
15.2925	83.5125
15.0265	81.2976
14.7697	76.1658
14.5214	68.6014
14.2814	61.575
14.0492	56.5482
13.8244	55.2713
13.6067	56.9974
13.3957	57.9535
13.1912	60.3497
12.9929	61.8263
12.8004	67.9476
12.6135	78.2608
12.432	86.5525
12.2557	87.9004
12.0843	87.7107
11.9176	89.4363
11.7555	85.7129
11.5977	81.2166
11.444	76.4129
11.2944	72.9864
11.1487	67.6925
11.0067	62.4452
10.8682	56.2479
10.7332	49.4198
10.6015	38.6808
10.473	30.2485
10.3476	26.5014
10.2251	25.0656
10.1056	23.0898
9.9887	21.8574
9.8746	21.5346
9.763	21.0266
9.6539	21.4641
9.5472	22.5883
9.4429	24.5234
9.3408	27.7765
9.2409	32.4589
9.1431	35.7423
9.0474	37.8769
8.9536	39.9279
8.8618	42.9017
8.7718	46.2821
8.6837	50.4464
8.5973	54.7081
8.5126	59.1131
8.4295	62.9178
8.3481	66.1158
8.2682	68.7845
8.1898	70.8924
8.1129	72.7471
8.0374	74.2537
7.9634	75.5057
7.8906	76.761
7.8192	77.8401
7.7491	78.6487
7.6802	79.4241
7.6126	80.2923
7.5461	80.9285
7.4807	81.5999
7.4165	82.1155
7.3534	82.6861
7.2914	83.2027
7.2303	83.5008
7.1703	83.7771
7.1113	84.1609
7.0533	84.5847
6.9962	84.8411
6.94	84.2459
6.8847	84.7268
6.8302	85.5554
6.7767	85.8274
6.7239	86.0574
6.672	86.4114
6.6209	86.8108
6.5705	86.971
6.5209	86.9583
6.4721	87.0425
6.424	87.0217
6.3766	86.9285
6.3299	86.8435
6.2838	86.5398
6.2385	85.616
6.1937	84.3108
6.1496	83.8875
6.1062	84.8233
6.0633	85.5667
6.0211	85.0203
5.9794	85.2678
5.9383	87.5745
5.8978	88.7356
5.8578	89.0974
5.8184	89.1799
5.7794	89.3147
5.741	89.364
5.7031	89.5051
5.6657	89.5974
5.6288	89.676
5.5924	89.8391
5.5564	90.0256
5.5209	90.1716
5.4859	90.2849
5.4513	90.5059
5.4171	90.6961
5.3833	90.7566
5.35	90.9314
5.3171	91.0989
5.2846	91.198
5.2524	91.4002
5.2207	91.4895
5.1893	91.6394
5.1584	91.7009
5.1277	91.8377
5.0975	91.8684
5.0676	91.9734
5.038	92.0025
5.0088	92.1045
4.98	92.1887
4.9514	92.2681
4.9232	92.332
4.8953	92.4121
4.8678	92.4385
4.8405	92.4981
4.8135	92.5586
4.7868	92.6338
4.7605	92.7378
4.7344	92.7791
4.7086	92.792
4.6831	92.8975
4.6578	92.9373
4.6328	93.0569
4.6081	93.1304
4.5837	93.217
4.5595	93.2129
4.5356	93.3037
4.5119	93.2734
4.4884	93.3611
4.4652	93.4463
4.4423	93.4868
4.4196	93.5388
4.3971	93.6189
4.3748	93.6428
4.3528	93.7556
4.331	93.8137
4.3094	93.7683
4.288	93.8801
4.2668	93.8928
4.2458	93.9102
4.2251	93.9502
4.2045	93.9446
4.1841	94.0584
4.164	94.0652
4.144	94.124
4.1242	94.1387
4.1046	94.2141
4.0852	94.2119
4.066	94.2097
4.047	94.3513
4.0281	94.3506
4.0094	94.3604
3.9909	94.3772
3.9725	94.3796
3.9544	94.4219
3.9363	94.4583
3.9185	94.582
3.9008	94.5754
3.8833	94.4941
3.8659	94.5173
3.8487	94.5002
3.8316	94.6165
3.8147	94.6082
3.7979	94.6123
3.7813	94.7148
3.7648	94.678
3.7485	94.6487
3.7323	94.6953
3.7162	94.7217
3.7003	94.655
3.6845	94.7224
3.6689	94.7197
3.6534	94.7617
3.638	94.8408
3.6227	94.7205
3.6076	94.6965
3.5926	94.6973
3.5777	94.7966
3.563	94.7209
3.5484	94.7646
3.5338	94.7959
3.5195	94.8962
3.5052	94.7585
3.491	94.9258
3.477	94.9932
3.463	95.0779
3.4492	95.0928
3.4355	95.0029
3.4219	94.7119
3.4084	94.6892
3.395	94.8379
3.3817	94.6025
3.3685	94.6523
3.3554	94.4636
3.3425	94.3357
3.3296	94.4424
3.3168	94.3494
3.3041	94.3357
3.2915	94.3015
3.279	94.3367
3.2666	94.2937
3.2543	94.2664
3.2421	94.2595
3.23	94.0645
3.218	94.0217
3.206	93.988
3.1942	93.9231
3.1824	93.8591
3.1707	93.7703
3.1591	93.6326
3.1476	93.3787
3.1362	93.22
3.1249	92.8889
3.1136	92.7229
3.1024	92.7239
3.0913	92.717
3.0803	92.5857
3.0694	92.4983
3.0585	92.4343
3.0477	92.6702
3.037	92.4939
3.0264	92.2146
3.0158	91.7029
3.0053	91.2727
2.9949	90.7981
2.9845	90.363
2.9743	89.6448
2.9641	88.7366
2.9539	87.8884
2.9439	87.3611
2.9339	86.6277
2.9239	86.1795
2.9141	85.9314
2.9043	86.1443
2.8946	86.5213
2.8849	87.0535
2.8753	87.367
2.8658	87.8709
2.8563	88.4422
2.8469	88.8206
2.8375	89.1257
2.8282	89.4304
2.819	89.8513
2.8098	90.0139
2.8007	90.3655
2.7917	90.7615
2.7827	91.2888
2.7738	91.6018
2.7649	92.0647
2.7561	92.5901
2.7473	93.1091
2.7386	93.2498
2.7299	93.5584
2.7213	93.8337
2.7128	93.6897
2.7043	93.8084
2.6959	93.9534
2.6875	94.0867
2.6791	94.0647
2.6709	94.1794
2.6626	93.9968
2.6545	94.0647
2.6463	93.865
2.6382	93.9998
2.6302	94.0017
2.6222	94.0212
2.6143	93.8303
2.6064	93.9607
2.5986	93.7756
2.5908	94.0759
2.583	94.1316
2.5753	93.6834
2.5677	93.7205
2.5601	93.8777
2.5525	93.7527
2.545	93.7752
2.5375	93.7322
2.5301	93.7566
2.5227	93.8005
2.5154	93.7478
2.5081	93.6873
2.5008	93.6492
2.4936	93.6736
2.4864	93.615
2.4793	93.8171
2.4722	93.4832
2.4651	93.4802
2.4581	93.6404
2.4511	93.7029
2.4442	93.4539
2.4373	93.4334
2.4305	93.5369
2.4236	93.6892
2.4169	93.5554
2.4101	93.6091
2.4034	93.4646
2.3967	93.5789
2.3901	93.3357
2.3835	93.3337
2.377	93.5232
2.3704	93.3513
2.364	93.2586
2.3575	93.4187
2.3511	93.3591
2.3447	93.3767
2.3384	93.0701
2.3321	93.114
2.3258	93.1111
2.3195	93.2927
2.3133	93.2507
2.3071	93.2693
2.301	93.2068
2.2949	93.1482
2.2888	93.157
2.2828	93.0603
2.2767	93.1375
2.2708	93.4109
2.2648	93.2459
2.2589	92.9578
2.253	93.2693
2.2471	93.1414
2.2413	92.9773
2.2355	93.0046
2.2297	93.1951
2.224	93.1462
2.2183	93.239
2.2126	92.8757
2.207	92.8474
2.2013	93.0203
2.1957	93.1755
2.1902	92.9841
2.1846	92.6912
2.1791	92.8396
2.1736	93.0544
2.1682	92.8884
2.1628	93.0603
2.1574	92.9392
2.152	92.5662
2.1466	92.8943
2.1413	92.8923
2.136	92.6248
2.1308	92.9666
2.1255	92.9177
2.1203	92.9216
2.1151	92.7009
2.11	92.9216
2.1048	92.8025
2.0997	92.7224
2.0946	92.8845
2.0895	92.8904
2.0845	93.2185
2.0795	92.8279
