Name: Polyhalite K2Ca2Mg(SO4)4 * 2H2O
Type: Mineral
Class: Sulfate
Subclass: None
Particle Size: Coarse
Sample No.: NMNH92669-4
Owner: Smithsonian Institute, National Museum of Nat. History
Wavelength Range: All
Origin: Carlsbad, New Mexico
Description: Polyhalite powder from Carlsbad, New MexicoSample was Unsieved coarse powder. Original ASTER Spectral Library name was usgs.perknic.mineral.sulfate.none.coarse.polyhac.spectrum.txt
Measurement: Directional Hemispherical Reflectance
X Units: Wavelength (micrometers)
Y Units: Reflectance (percent)
wavelength	value
13.9	2.266
13.644	2.153
13.398	2.07
13.16	1.854
12.93	1.432
12.708	1.236
12.494	1.463
12.287	1.957
12.086	2.513
11.892	3.059
11.704	3.512
11.522	4.048
11.346	4.501
11.175	4.954
11.009	5.531
10.848	5.933
10.691	5.912
10.539	5.789
10.391	5.315
10.247	4.872
10.108	3.337
9.972	3.729
9.839	3.79
9.71	4.748
9.585	4.614
9.462	4.367
9.343	4.254
9.226	6.18
9.113	7.612
9.002	6.891
8.894	2.936
8.789	4.46
8.686	7.447
8.585	9.754
8.487	10.063
8.391	7.869
8.297	5.459
8.205	5.14
8.115	5.696
8.027	3.471
7.941	1.267
7.857	0.556
7.774	0.525
7.694	0.577
7.614	0.567
7.537	0.68
7.461	0.865
7.387	0.968
7.314	1.123
7.242	1.38
7.172	1.514
7.103	1.689
7.036	1.916
6.97	2.142
6.905	2.441
6.841	2.657
6.778	2.925
6.717	3.121
6.657	3.348
6.597	3.502
6.539	3.667
6.482	3.801
6.426	3.77
6.37	3.636
6.316	3.409
6.263	3.028
6.21	2.513
6.159	1.947
6.108	1.524
6.058	1.638
6.009	2.482
5.96	3.667
5.913	5.068
5.866	6.427
5.82	7.519
5.775	8.353
5.73	9.064
5.686	9.703
5.643	10.279
5.6	10.702
5.558	11.072
5.517	11.186
5.476	11.392
5.436	11.588
5.396	11.927
5.357	12.288
5.319	12.545
5.281	12.7
5.243	12.803
5.206	12.762
5.17	12.659
5.134	12.422
5.099	11.732
5.064	8.116
5.03	11.68
4.996	12.236
4.962	12.01
4.929	10.887
4.897	10.094
4.865	7.097
4.833	7.169
4.802	7.107
4.771	6.973
4.74	6.582
4.71	5.737
4.68	5.665
4.651	5.212
4.622	5.428
4.593	5.768
4.565	6.026
4.537	5.995
4.509	6.159
4.482	6.417
4.455	6.479
4.428	6.973
4.402	7.56
4.376	7.777
4.35	7.54
4.325	7.756
4.3	7.849
4.275	8.405
4.251	8.755
4.226	9.239
4.202	9.394
4.179	9.919
4.155	10.485
4.132	10.413
4.109	9.651
4.086	8.621
4.064	8.271
4.042	8.714
4.02	10.176
3.998	11.588
3.977	12.968
3.956	13.812
3.935	14.43
3.914	15.265
3.893	15.79
3.873	16.274
3.853	16.604
3.833	17.067
3.813	17.407
3.794	17.695
3.774	17.819
3.755	17.819
3.736	17.901
3.717	17.922
3.699	17.912
3.68	17.767
3.662	17.726
3.644	17.623
3.626	17.314
3.609	16.902
3.591	16.326
3.574	15.8
3.557	15.368
3.54	14.863
3.523	14.327
3.506	14.07
3.49	13.555
3.473	13.205
3.457	12.607
3.441	12.051
3.425	11.598
3.409	11.165
3.394	10.846
3.378	10.259
3.363	9.744
3.348	8.992
3.333	8.415
3.318	7.591
3.303	7.035
3.288	6.613
3.274	6.304
3.259	6.108
3.245	5.716
3.231	5.377
3.217	5.057
3.203	4.656
3.189	4.213
3.176	3.79
3.162	3.574
3.149	3.193
3.135	3.162
3.122	3.111
3.109	2.987
3.096	2.905
3.083	2.503
3.07	2.287
3.058	2.009
3.045	1.813
3.033	1.545
3.02	1.73
3.008	1.576
2.996	1.833
2.984	1.833
2.972	1.658
2.96	1.607
2.948	1.895
2.937	1.844
2.925	1.792
2.913	1.864
2.902	1.761
2.891	1.463
2.879	1.524
2.868	1.741
2.857	1.71
2.846	2.153
2.835	2.431
2.825	2.987
2.814	3.203
2.803	4.192
2.793	4.831
2.782	6.005
2.772	7.2
2.761	8.024
2.751	9.105
2.741	10.001
2.731	11.206
2.721	12.113
2.711	13.503
2.701	15.357
2.691	16.748
2.681	17.953
2.672	18.571
2.662	19.096
2.653	19.107
2.643	19.065
2.634	18.911
2.624	18.952
2.615	19.014
2.606	19.457
2.597	19.416
2.588	18.859
2.579	19.055
2.57	19.034
2.561	18.767
2.552	18.386
2.543	18.118
2.535	17.86
2.526	17.448
2.517	16.799
2.509	15.944
2.5	15.666
2.486	15.78
2.472	14.941
2.458	14.528
2.444	15.318
2.43	16.718
2.416	17.211
2.402	16.086
2.388	14.504
2.374	16.491
2.36	20.574
2.346	24.031
2.332	26.366
2.318	27.985
2.304	28.896
2.29	29.064
2.276	28.547
2.262	26.107
2.248	23.912
2.234	26.105
2.22	26.427
2.206	26.808
2.192	27.443
2.178	27.42
2.164	27.607
2.15	28.294
2.136	28.272
2.122	27.153
2.108	25.687
2.094	24.137
2.08	23.004
2.066	22.41
2.052	20.655
2.038	18.69
2.024	19.067
2.01	19.601
1.996	18.196
1.982	17.563
1.968	20.55
1.954	18.332
1.94	19.281
1.926	24.635
1.912	29.424
1.898	33.727
1.884	37.34
1.87	40.017
1.856	41.806
1.842	43.203
1.828	42.824
1.814	41.907
1.8	40.283
1.786	39.511
1.772	40.088
1.758	40.783
1.744	41.718
1.73	41.196
1.716	40.167
1.702	39.457
1.688	39.621
1.674	39.304
1.66	38.35
1.646	37.343
1.632	36.521
1.618	35.527
1.604	35.453
1.59	35.991
1.576	36.269
1.562	36.524
1.548	35.871
1.534	35.04
1.52	34.119
1.506	34.472
1.492	31.99
1.478	32.223
1.464	36.633
1.45	41.697
1.436	46.049
1.422	48.747
1.408	50.063
1.394	50.376
1.38	51.336
1.366	51.604
1.352	51.502
1.338	52.87
1.324	54.299
1.31	54.52
1.296	54.457
1.282	53.827
1.268	53.094
1.254	52.797
1.24	52.643
1.226	52.085
1.212	52.203
1.198	53.406
1.184	54.711
1.17	55.72
1.156	56.19
1.142	56.339
1.128	56.467
1.114	56.267
1.1	56.202
1.086	56.1
1.072	55.96
1.058	55.65
1.044	55.131
1.03	54.624
1.016	54.222
1.002	54.098
0.988	53.878
0.974	53.4
0.96	52.831
0.946	52.329
0.932	51.661
0.918	51.041
0.904	50.559
0.89	50.421
0.876	49.92
0.862	49.823
0.848	50.08
0.834	50.138
0.82	50.343
0.806	50.613
0.792	50.944
0.778	51.228
0.764	51.355
0.75	51.309
0.736	51.008
0.722	50.38
0.708	49.475
0.694	48.423
0.68	47.348
0.666	46.218
0.652	45.117
0.638	43.92
0.624	42.461
0.61	40.419
0.596	37.42
0.582	33.431
0.568	29.383
0.554	26.492
0.54	24.923
0.526	24.064
0.512	23.416
0.498	22.755
0.484	22.365
0.47	21.977
0.456	21.417
0.442	20.901
0.428	20.45
0.414	20.149
0.4	19.938
