Name: Kaolinite Al_2Si_2O_5(OH)_4
Type: Mineral
Class: Silicate
Subclass: Phyllosilicate
Particle Size: Fine
Sample No.: PS-1A
Owner: JPL
Wavelength Range: VSWIR
Origin: USA, Georgia, Washington County.
Description: Well-ordered Kaolinite.Particle size was 0-45um.Collected by:  Clay Mineral Society Original ASTER Spectral Library name was jpl.perkin.mineral.silicate.phyllosilicate.fine.ps01a.spectrum.txt
Measurement: Hemispherical reflectance
X Units: Wavelength (micrometers)
Y Units: Reflectance (percent)
wavelength	value
2.5	35.0713
2.494	35.0054
2.488	35.5062
2.482	36.1717
2.476	36.909
2.47	37.4365
2.464	37.9734
2.458	38.3364
2.452	38.7003
2.446	39.3334
2.44	40.1435
2.434	41.2399
2.428	42.5312
2.422	43.5569
2.416	44.3391
2.41	44.9428
2.404	45.0896
2.398	44.6506
2.392	43.983
2.386	43.3507
2.38	43.2615
2.374	43.9188
2.368	44.8151
2.362	45.5026
2.356	45.9269
2.35	46.5538
2.344	47.4075
2.338	48.0367
2.332	48.2403
2.326	47.9391
2.32	47.9788
2.314	48.2788
2.308	49.0643
2.302	50.0868
2.296	51.0193
2.29	51.7359
2.284	52.4099
2.278	53.3444
2.272	54.3265
2.266	55.1669
2.26	55.9788
2.254	56.46
2.248	56.8043
2.242	57.0067
2.236	57.2266
2.23	56.9667
2.224	55.1384
2.218	49.9909
2.212	42.3278
2.206	39.2699
2.2	42.3541
2.194	45.2018
2.188	46.6021
2.182	47.5411
2.176	47.6931
2.17	47.1039
2.164	46.651
2.158	47.5021
2.152	50.2714
2.146	54.597
2.14	58.9551
2.134	62.0508
2.128	63.6239
2.122	64.3257
2.116	64.5735
2.11	65.4922
2.104	66.8242
2.098	67.418
2.092	67.7803
2.086	68.4033
2.08	69.4831
2.074	70.2591
2.068	71.1849
2.062	71.9856
2.056	72.6566
2.05	73.0407
2.044	73.4909
2.038	73.8239
2.032	74.1039
2.026	74.3903
2.02	74.6789
2.014	74.935
2.008	75.0252
2.002	75.1778
1.996	75.2017
1.99	75.1688
1.984	75.2151
1.978	75.1085
1.972	74.9577
1.966	74.7448
1.96	74.6678
1.954	74.4994
1.948	74.3939
1.942	74.2144
1.936	74.2488
1.93	74.2326
1.924	74.2609
1.918	74.2467
1.912	74.3777
1.906	75.3891
1.9	76.8389
1.894	78.2501
1.888	79.3342
1.882	80.1574
1.876	80.9885
1.87	82.2666
1.864	82.791
1.858	82.9845
1.852	82.5158
1.846	81.1768
1.84	81.3099
1.834	81.8066
1.828	81.4412
1.822	80.9863
1.816	81.0284
1.81	81.5707
1.804	81.887
1.798	82.0829
1.792	82.319
1.786	82.9015
1.78	83.595
1.774	84.1324
1.768	84.4657
1.762	84.816
1.756	85.2145
1.75	85.373
1.744	85.5136
1.738	85.7366
1.732	85.9477
1.726	86.0664
1.72	86.3081
1.714	86.5229
1.708	86.6084
1.702	86.6846
1.696	86.8168
1.69	86.9034
1.684	87.0882
1.678	87.0909
1.672	87.1744
1.666	87.2782
1.66	87.3794
1.654	87.411
1.648	87.4536
1.642	87.4746
1.636	87.547
1.63	87.5744
1.624	87.525
1.618	87.5201
1.612	87.6225
1.606	87.64
1.6	87.7051
1.594	87.6281
1.588	87.6315
1.582	87.4758
1.576	87.434
1.57	87.3916
1.564	87.3802
1.558	87.3312
1.552	87.2879
1.546	87.2155
1.54	87.1917
1.534	87.0432
1.528	86.9842
1.522	86.9183
1.516	86.8091
1.51	86.6018
1.504	86.2704
1.498	85.5968
1.492	85.7986
1.486	85.8107
1.48	85.54
1.474	85.2614
1.468	84.8873
1.462	84.6761
1.456	84.1704
1.45	83.4918
1.444	83.1994
1.438	82.3235
1.432	80.5411
1.426	77.6207
1.42	67.058
1.414	56.6838
1.408	62.5302
1.402	60.8358
1.396	58.3533
1.39	63.5177
1.384	68.8506
1.378	72.8915
1.372	75.1463
1.366	75.3007
1.36	74.6603
1.354	75.8036
1.348	79.5368
1.342	80.101
1.336	80.0344
1.33	80.2457
1.324	80.8093
1.318	81.3913
1.312	81.7081
1.306	82.1776
1.3	83.128
1.294	83.8711
1.288	85.0108
1.282	86.2512
1.276	86.6507
1.27	86.8593
1.264	86.8618
1.258	86.5161
1.252	86.453
1.246	85.9612
1.24	85.5028
1.234	85.8594
1.228	86.7567
1.222	87.3459
1.216	87.6598
1.21	87.7279
1.204	87.8421
1.198	87.8928
1.192	87.9779
1.186	88.0766
1.18	88.0142
1.174	88.0611
1.168	88.0438
1.162	87.9969
1.156	88.0079
1.15	88.095
1.144	88.097
1.138	88.0128
1.132	88.0627
1.126	88.0422
1.12	88.0036
1.114	88.0182
1.108	87.9928
1.102	88.0164
1.096	87.9491
1.09	88.0311
1.084	88.0359
1.078	88.0001
1.072	87.9469
1.066	87.8632
1.06	87.9705
1.054	87.909
1.048	87.8343
1.042	87.7829
1.036	87.7749
1.03	87.8437
1.024	87.785
1.018	87.7195
1.012	87.7337
1.006	87.7181
1	87.7618
0.994	87.6222
0.988	87.5411
0.982	87.3717
0.976	87.0542
0.97	84.9379
0.964	85.2385
0.958	85.5078
0.952	85.4729
0.946	86.0251
0.94	86.4388
0.934	86.7265
0.928	86.6347
0.922	86.7194
0.916	86.6074
0.91	86.7252
0.904	86.797
0.898	86.8475
0.892	86.8367
0.886	86.8022
0.88	86.8197
0.874	86.7219
0.868	86.7103
0.862	86.7195
0.856	86.6917
0.85	86.7185
0.844	86.5853
0.838	86.567
0.832	86.5402
0.826	86.4638
0.82	86.3824
0.814	86.3403
0.808	86.287
0.802	86.2228
0.796	86.0372
0.79	85.9955
0.784	85.8938
0.778	85.767
0.772	85.6721
0.766	85.5553
0.76	85.4353
0.754	85.2645
0.748	85.1028
0.742	84.9
0.736	84.7702
0.73	84.5484
0.724	84.3348
0.718	84.0869
0.712	83.8392
0.706	83.5109
0.7	83.3006
0.694	83.002
0.688	82.7506
0.682	82.4695
0.676	82.1892
0.67	81.9328
0.664	81.6397
0.658	81.3587
0.652	81.086
0.646	80.8282
0.64	80.5577
0.634	80.2804
0.628	79.9717
0.622	79.6691
0.616	79.3494
0.61	79.0004
0.604	78.6799
0.598	78.3482
0.592	78.0248
0.586	77.6278
0.58	77.2369
0.574	76.8432
0.568	76.4513
0.562	76.0655
0.556	75.6274
0.55	75.2167
0.544	74.7709
0.538	74.3148
0.532	73.8382
0.526	73.3383
0.52	72.8038
0.514	72.2454
0.508	71.644
0.502	71.0313
0.496	70.4063
0.49	69.864
0.484	69.2443
0.478	68.7034
0.472	68.0988
0.466	67.4307
0.46	66.7523
0.454	66.0706
0.448	65.3206
0.442	64.4077
0.436	63.4276
0.43	62.3404
0.424	61.1583
0.418	59.9329
0.412	58.6853
0.406	57.3454
0.4	55.8342
