Name: Diopside CaMgSi2O6
Type: Mineral
Class: Silicate
Subclass: Inosilicate
Particle Size: Coarse
Sample No.: diopside_1
Owner: JHU
Wavelength Range: TIR
Origin: Sample from St. Lawrence Co., New York via the Smithsonian(sample no. NMNH C2393).
Description: Sample consisted of two green subhedral crystals 1-2 cm in length and width. Both crystals appeared pure in hand specimen.  Under the petrographic microscope, the powdered sample displayed one small, moderately birefringent grain with parallel extinction. There may be minor exsolution. Very little alteration, but a trace amount (<< 1%) of sericite can be seen along cleavage planes. Particle size was 74-250 Micrometers.(Chain Silicates) (Pyroxene Group) Original ASTER Spectral Library name was jhu.nicolet.mineral.silicate.inosilicate.coarse.diopsi1.spectrum.txt
Measurement: Bidirectional reflectance
X Units: Wavelength (micrometers)
Y Units: Reflectance (percent)
wavelength	value
25.0442	6.4472
24.3388	6.8176
23.6719	5.206
23.0407	6.1528
22.4422	5.8252
21.8741	6.9043
21.334	8.0014
20.8199	8.9853
20.33	8.4497
19.8627	9.4502
19.4163	9.9778
18.9896	8.5698
18.5812	8.9944
18.19	10.0495
17.815	10.573
17.4551	10.0193
17.1094	7.2834
16.7772	4.1294
16.4576	1.9016
16.15	1.6201
15.8537	2.1426
15.568	2.4783
15.2925	1.5239
15.0265	1.9014
14.7697	2.1016
14.5214	1.6269
14.2814	1.8462
14.0492	1.9714
13.8244	2.113
13.6067	2.2498
13.3957	2.3818
13.1912	2.4092
12.9929	2.5466
12.8004	2.6826
12.6135	2.7764
12.432	2.9558
12.2557	3.1565
12.0843	3.4621
11.9176	3.9812
11.7555	5.1206
11.5977	6.5185
11.444	7.2153
11.2944	7.6719
11.1487	8.0386
11.0067	8.4673
10.8682	9.3174
10.7332	7.9392
10.6015	8.0146
10.473	8.8362
10.3476	9.7927
10.2251	7.6076
10.1056	4.6514
9.9887	3.864
9.8746	4.4128
9.763	4.3999
9.6539	3.9321
9.5472	3.9294
9.4429	4.8843
9.3408	6.54
9.2409	7.0693
9.1431	7.321
9.0474	7.7173
8.9536	8.196
8.8618	8.6013
8.7718	8.8701
8.6837	6.9387
8.5973	4.6963
8.5126	2.5439
8.4295	0.9905
8.3481	0.4985
8.2682	0.6074
8.1898	0.7385
8.1129	0.8555
8.0374	0.9731
7.9634	1.1084
7.8906	1.2366
7.8192	1.3611
7.7491	1.4961
7.6802	1.6233
7.6126	1.7432
7.5461	1.791
7.4807	1.897
7.4165	1.9529
7.3534	1.9734
7.2914	1.9736
7.2303	2.0298
7.1703	2.1558
7.1113	2.3328
7.0533	2.564
6.9962	2.7407
6.94	2.8398
6.8847	2.8809
6.8302	2.7497
6.7767	2.6267
6.7239	2.5054
6.672	2.356
6.6209	2.3384
6.5705	2.2463
6.5209	2.1221
6.4721	2.0908
6.424	2.1457
6.3766	2.3015
6.3299	2.4302
6.2838	2.477
6.2385	2.5576
6.1937	2.635
6.1496	2.5752
6.1062	2.4123
6.0633	2.5527
6.0211	2.7615
5.9794	3.1506
5.9383	3.8325
5.8978	4.4678
5.8578	4.4724
5.8184	4.654
5.7794	5.1626
5.741	5.5403
5.7031	5.8337
5.6657	6.0537
5.6288	6.1201
5.5924	6.0815
5.5564	5.9753
5.5209	5.7583
5.4859	5.3738
5.4513	4.821
5.4171	4.2246
5.3833	3.9553
5.35	3.7764
5.3171	3.6665
5.2846	3.4853
5.2524	3.5039
5.2207	3.5779
5.1893	3.4089
5.1584	3.1851
5.1277	2.9258
5.0975	2.6113
5.0676	2.4714
5.038	2.6606
5.0088	2.9897
4.98	3.1042
4.9514	3.1262
4.9232	3.2153
4.8953	3.2742
4.8678	3.373
4.8405	3.6387
4.8135	3.9492
4.7868	4.2241
4.7605	4.3066
4.7344	4.5073
4.7086	5.0593
4.6831	5.5691
4.6578	5.8035
4.6328	6.2021
4.6081	6.6008
4.5837	7.1247
4.5595	7.6355
4.5356	8.1509
4.5119	8.8037
4.4884	9.1269
4.4652	9.313
4.4423	9.456
4.4196	9.5678
4.3971	9.6792
4.3748	9.7712
4.3528	9.8579
4.331	9.9338
4.3094	10.0217
4.288	10.1035
4.2668	10.1914
4.2458	10.2693
4.2251	10.3445
4.2045	10.3916
4.1841	10.4333
4.164	10.4668
4.144	10.4978
4.1242	10.5354
4.1046	10.5569
4.0852	10.5854
4.066	10.6054
4.047	10.6321
4.0281	10.6306
4.0094	10.6479
3.9909	10.6645
3.9725	10.6909
3.9544	10.7165
3.9363	10.7514
3.9185	10.7878
3.9008	10.8081
3.8833	10.8384
3.8659	10.8481
3.8487	10.8659
3.8316	10.8728
3.8147	10.8894
3.7979	10.8999
3.7813	10.9106
3.7648	10.9316
3.7485	10.9304
3.7323	10.9348
3.7162	10.9328
3.7003	10.9326
3.6845	10.9265
3.6689	10.9223
3.6534	10.9155
3.638	10.9099
3.6227	10.8906
3.6076	10.8703
3.5926	10.8659
3.5777	10.8474
3.563	10.8552
3.5484	10.8186
3.5338	10.8042
3.5195	10.768
3.5052	10.6894
3.491	10.6919
3.477	10.6789
3.463	10.6679
3.4492	10.633
3.4355	10.6032
3.4219	10.529
3.4084	10.5207
3.395	10.6035
3.3817	10.6001
3.3685	10.6252
3.3554	10.6374
3.3425	10.6814
3.3296	10.7055
3.3168	10.7058
3.3041	10.7356
3.2915	10.7485
3.279	10.7512
3.2666	10.7351
3.2543	10.716
3.2421	10.7155
3.23	10.7004
3.218	10.6587
3.206	10.6457
3.1942	10.6301
3.1824	10.6081
3.1707	10.6072
3.1591	10.5825
3.1476	10.563
3.1362	10.5202
3.1249	10.4963
3.1136	10.469
3.1024	10.4238
3.0913	10.3725
3.0803	10.3733
3.0694	10.3518
3.0585	10.3083
3.0477	10.2881
3.037	10.2534
3.0264	10.2243
3.0158	10.1643
3.0053	10.1025
2.9949	10.0371
2.9845	9.978
2.9743	9.9306
2.9641	9.9092
2.9539	9.9009
2.9439	9.8501
2.9339	9.8327
2.9239	9.8303
2.9141	9.7907
2.9043	9.7297
2.8946	9.6653
2.8849	9.6255
2.8753	9.6123
2.8658	9.6491
2.8563	9.6523
2.8469	9.5718
2.8375	9.5456
2.8282	9.5151
2.819	9.4702
2.8098	9.4375
2.8007	9.3979
2.7917	9.2639
2.7827	9.1257
2.7738	9.0974
2.7649	9.0818
2.7561	8.958
2.7473	8.6721
2.7386	8.9128
2.7299	8.7781
2.7213	8.0954
2.7128	9.3991
2.7043	9.7414
2.6959	9.8178
2.6875	9.8635
2.6791	9.8686
2.6709	9.8379
2.6626	9.8637
2.6545	9.8093
2.6463	9.7539
2.6382	9.6611
2.6302	9.5664
2.6222	9.4973
2.6143	9.4136
2.6064	9.3388
2.5986	9.2571
2.5908	9.174
2.583	9.0949
2.5753	8.9963
2.5677	8.9416
2.5601	8.8418
2.5525	8.7685
2.545	8.699
2.5375	8.6057
2.5301	8.5444
2.5227	8.4297
2.5154	8.2991
2.5081	8.2441
2.5008	8.1675
2.4936	8.0757
2.4864	7.9302
2.4793	7.8484
2.4722	7.7534
2.4651	7.6526
2.4581	7.6347
2.4511	7.5752
2.4442	7.4809
2.4373	7.4096
2.4305	7.3847
2.4236	7.3232
2.4169	7.272
2.4101	7.2627
2.4034	7.1855
2.3967	7.1465
2.3901	7.1103
2.3835	7.0727
2.377	7.0571
2.3704	7.0552
2.364	7.0176
2.3575	7.0046
2.3511	7.0298
2.3447	6.999
2.3384	6.9678
2.3321	6.9441
2.3258	6.9499
2.3195	6.949
2.3133	6.9338
2.3071	6.9551
2.301	7.0097
2.2949	6.988
2.2888	6.9978
2.2828	7.0046
2.2767	6.9946
2.2708	7.0386
2.2648	7.0864
2.2589	7.1272
2.253	7.1177
2.2471	7.1269
2.2413	7.1572
2.2355	7.1841
2.2297	7.2153
2.224	7.2124
2.2183	7.2966
2.2126	7.2871
2.207	7.303
2.2013	7.3603
2.1957	7.374
2.1902	7.3706
2.1846	7.4067
2.1791	7.436
2.1736	7.5151
2.1682	7.5752
2.1628	7.6133
2.1574	7.6711
2.152	7.6313
2.1466	7.6704
2.1413	7.7229
2.136	7.7436
2.1308	7.7954
2.1255	7.8371
2.1203	7.8196
2.1151	7.9419
2.11	7.9756
2.1048	7.9658
2.0997	8.0293
2.0946	8.0869
2.0895	8.1396
2.0845	8.1828
2.0795	8.2004
