Name: Clinozoisite Ca2Al3(SiO4)3(OH)
Type: Mineral
Class: Silicate
Subclass: Sorosilicate
Particle Size: Fine
Sample No.: clinozo_1
Owner: JHU
Wavelength Range: TIR
Origin: Sample from Baja California, Mexico via Smithsonian (sampleno. NMNH 112513-2.
Description: The sample was one large (2.5 cm x 2 cm x 2 cm) crystal with good crystal faces, weighing 19 g.  It was dark gray in color, with <<1% limonitic surface contamination, which was easily removed.  Under the microscope the sample appears to be pure and free from alteration. Sample was in Epidote Group and particle size was less than 2 micrometers. Original ASTER Spectral Library name was jhu.nicolet.mineral.silicate.sorosilicate.powder.clinoz1p.spectrum.txt
Measurement: Transmission
X Units: Wavelength (micrometers)
Y Units: Transmittance (percent)
wavelength	value
25.044	28.328
24.339	18.441
23.672	25.133
23.041	29.098
22.442	35.515
21.874	20.601
21.334	33.924
20.82	31.703
20.33	36.572
19.863	34.117
19.416	21.305
18.99	23.957
18.581	22.02
18.19	17.258
17.815	15.525
17.455	18.414
17.109	25.488
16.777	31.189
16.458	40.587
16.15	50.66
15.854	36.793
15.568	21.239
15.292	18.359
15.027	23.621
14.77	25.9
14.521	35.204
14.281	46.548
14.049	61.514
13.824	70.268
13.607	67.368
13.396	78.244
13.191	81.186
12.993	82.052
12.8	81.534
12.614	79.991
12.432	75.606
12.256	70.28
12.084	59.993
11.918	41.492
11.755	39.715
11.598	30.319
11.444	26.502
11.294	11.941
11.149	11.083
11.007	13.727
10.868	16.916
10.733	11.421
10.602	4.582
10.473	3.5322
10.348	5.7988
10.225	10.723
10.106	22.004
9.9887	35.153
9.8746	44.797
9.763	45.845
9.6539	30.601
9.5472	27.559
9.4429	40.617
9.3408	39.944
9.2409	31.557
9.1431	24.539
9.0474	20.344
8.9536	19.461
8.8618	16.869
8.7718	29.022
8.6837	47.752
8.5973	59.944
8.5126	67.485
8.4295	72.645
8.3481	76.952
8.2682	81.086
8.1898	84.184
8.1129	86.645
8.0374	88.467
7.9634	89.816
7.8906	91.056
7.8192	92.126
7.7491	92.817
7.6802	93.518
7.6126	94.318
7.5461	94.997
7.4807	95.543
7.4165	95.835
7.3534	96.225
7.2914	96.652
7.2303	96.833
7.1703	96.891
7.1113	97.011
7.0533	97.314
6.9962	97.605
6.94	97.663
6.8847	97.786
6.8302	97.926
6.7767	97.851
6.7239	97.862
6.672	98.085
6.6209	98.246
6.5705	98.067
6.5209	97.939
6.4721	97.719
6.424	97.508
6.3766	97.458
6.3299	97.075
6.2838	96.695
6.2385	96.033
6.1937	94.747
6.1496	93.909
6.1062	93.72
6.0633	94.178
6.0211	95.515
5.9794	96.34
5.9383	96.91
5.8978	97.375
5.8578	97.793
5.8184	97.849
5.7794	97.981
5.741	98.063
5.7031	98.004
5.6657	97.88
5.6288	97.937
5.5924	97.985
5.5564	98.114
5.5209	98.273
5.4859	98.423
5.4513	98.593
5.4171	98.65
5.3833	98.637
5.35	98.587
5.3171	98.584
5.2846	98.528
5.2524	98.507
5.2207	98.41
5.1893	98.363
5.1584	98.396
5.1277	98.463
5.0975	98.367
5.0676	98.317
5.038	98.213
5.0088	98.152
4.98	97.884
4.9514	97.617
4.9232	97.321
4.8953	97.228
4.8678	97.147
4.8405	97.21
4.8135	97.492
4.7868	97.683
4.7605	97.809
4.7344	97.994
4.7086	97.948
4.6831	97.89
4.6578	97.892
4.6328	97.855
4.6081	97.814
4.5837	97.799
4.5595	97.735
4.5356	97.808
4.5119	97.71
4.4884	97.707
4.4652	97.712
4.4423	97.588
4.4196	97.59
4.3971	97.512
4.3748	97.5
4.3528	97.4
4.331	97.309
4.3094	97.239
4.288	97.166
4.2668	97.028
4.2458	96.989
4.2251	96.942
4.2045	96.846
4.1841	96.695
4.164	96.751
4.144	96.576
4.1242	96.551
4.1046	96.573
4.0852	96.366
4.066	96.301
4.047	96.188
4.0281	96.122
4.0094	96.05
3.9909	95.867
3.9725	95.778
3.9544	95.716
3.9363	95.594
3.9185	95.63
3.9008	95.47
3.8833	95.295
3.8659	95.118
3.8487	95.055
3.8316	94.901
3.8147	94.797
3.7979	94.669
3.7813	94.497
3.7648	94.366
3.7485	94.148
3.7323	94.138
3.7162	93.94
3.7003	93.828
3.6845	93.638
3.6689	93.405
3.6534	93.267
3.638	93.23
3.6227	92.929
3.6076	92.758
3.5926	92.565
3.5777	92.617
3.563	92.313
3.5484	92.101
3.5338	92.031
3.5195	92.034
3.5052	91.861
3.491	91.695
3.477	91.402
3.463	91.33
3.4492	91.153
3.4355	90.947
3.4219	90.763
3.4084	90.354
3.395	89.986
3.3817	89.568
3.3685	89.25
3.3554	88.804
3.3425	88.424
3.3296	88.216
3.3168	87.789
3.3041	87.5
3.2915	87.256
3.279	86.823
3.2666	86.498
3.2543	86.065
3.2421	85.725
3.23	85.244
3.218	84.819
3.206	84.236
3.1942	83.614
3.1824	83.219
3.1707	82.707
3.1591	82.015
3.1476	81.231
3.1362	80.26
3.1249	79.403
3.1136	78.362
3.1024	77.378
3.0913	76.469
3.0803	75.322
3.0694	74.317
3.0585	73.294
3.0477	71.857
3.037	69.273
3.0264	65.398
3.0158	59.474
3.0053	52.79
2.9949	48.344
2.9845	46.898
2.9743	48.7
2.9641	53.824
2.9539	60.314
2.9439	65.558
2.9339	68.814
2.9239	70.144
2.9141	70.513
2.9043	71.051
2.8946	71.993
2.8849	73.446
2.8753	74.641
2.8658	75.627
2.8563	76.74
2.8469	77.394
2.8375	78.098
2.8282	78.412
2.819	79.169
2.8098	79.828
2.8007	80.602
2.7917	81.588
2.7827	82.597
2.7738	83.414
2.7649	84.36
2.7561	85.328
2.7473	86.192
2.7386	86.685
2.7299	87.137
2.7213	87.302
2.7128	87.145
2.7043	87.449
2.6959	87.407
2.6875	87.398
2.6791	87.441
2.6709	87.343
2.6626	87.258
2.6545	86.988
2.6463	86.876
2.6382	86.742
2.6302	86.676
2.6222	86.437
2.6143	86.266
2.6064	86.048
2.5986	85.879
2.5908	85.941
2.583	85.904
2.5753	85.607
2.5677	85.48
2.5601	85.41
2.5525	85.306
2.545	85.076
2.5375	85.035
2.5301	84.84
2.5227	84.572
2.5154	84.59
2.5081	84.582
2.5008	84.289
2.4936	84.314
2.4864	84.144
2.4793	83.986
2.4722	83.871
2.4651	83.75
2.4581	83.625
2.4511	83.566
2.4442	83.218
2.4373	83.213
2.4305	83.054
2.4236	83.121
2.4169	83.004
2.4101	82.996
2.4034	82.644
2.3967	82.353
2.3901	82.273
2.3835	82.095
2.377	82.058
2.3704	81.855
2.364	81.687
2.3575	81.531
2.3511	81.572
2.3447	81.347
2.3384	81.301
2.3321	81
2.3258	81.023
2.3195	80.922
2.3133	80.945
2.3071	80.695
2.301	80.879
2.2949	80.689
2.2888	80.408
2.2828	80.595
2.2767	80.252
2.2708	80.369
2.2648	80.056
2.2589	79.978
2.253	79.758
2.2471	79.986
2.2413	79.554
2.2355	79.463
2.2297	79.703
2.224	79.236
2.2183	79.158
2.2126	79.205
2.207	78.838
2.2013	78.828
2.1957	78.848
2.1902	78.613
2.1846	78.754
2.1791	78.265
2.1736	78.207
2.1682	78.367
2.1628	78.304
2.1574	78.164
2.152	77.828
2.1466	77.535
2.1413	77.504
2.136	77.379
2.1308	77.453
2.1255	77.351
2.1203	77.359
2.1151	77.172
2.11	76.883
2.1048	76.801
2.0997	76.789
2.0946	76.66
2.0895	76.492
2.0845	76.918
2.0795	76.679
