Name: Corundum Al_2O_3
Type: Mineral
Class: Oxide
Subclass: None
Particle Size: Coarse
Sample No.: O-15A
Owner: JPL
Wavelength Range: VSWIR
Description: Synthetic corundum. Particle size was 125-500um.Collected by JPL Original ASTER Spectral Library name was jpl.beckman.mineral.oxide.none.coarse.o15a.spectrum.txt
Measurement: Hemispherical reflectance
X Units: Wavelength (micrometers)
Y Units: Reflectance (percent)
wavelength	value
0.4	94.63
0.403	94.69
0.406	94.93
0.409	94.87
0.412	95.17
0.415	95.05
0.418	95.05
0.421	95.29
0.424	95.17
0.427	95.41
0.43	95.35
0.433	95.23
0.436	95.35
0.439	95.28
0.442	95.46
0.445	95.47
0.448	95.28
0.451	95.52
0.454	95.53
0.457	95.63
0.46	95.7
0.463	95.61
0.466	95.61
0.469	95.73
0.472	95.86
0.475	95.8
0.478	95.94
0.481	95.93
0.484	95.99
0.487	95.86
0.49	95.75
0.493	95.92
0.496	95.91
0.499	95.98
0.502	96.03
0.505	96.03
0.508	96.03
0.511	95.91
0.514	96.09
0.517	96.04
0.52	96.04
0.523	96.04
0.526	96.1
0.529	96.1
0.532	95.97
0.535	95.77
0.538	96.01
0.541	95.88
0.544	96.11
0.547	96.04
0.55	95.97
0.553	96.09
0.556	96.22
0.559	96.14
0.562	96.44
0.565	96.32
0.568	96.32
0.571	96.1
0.574	95.84
0.577	95.92
0.58	95.79
0.583	95.8
0.586	95.92
0.589	95.8
0.592	95.92
0.595	95.86
0.598	95.89
0.601	96.21
0.604	95.97
0.607	96.09
0.61	96.08
0.613	95.73
0.616	96.02
0.619	95.67
0.622	95.79
0.625	95.67
0.628	95.67
0.631	95.85
0.634	95.74
0.637	95.79
0.64	95.73
0.643	95.61
0.646	95.91
0.649	95.73
0.652	95.55
0.655	95.67
0.658	95.68
0.661	95.73
0.664	95.62
0.667	95.67
0.67	95.5
0.673	95.61
0.676	95.73
0.679	95.5
0.682	95.56
0.685	95.56
0.688	95.67
0.691	95.67
0.694	95.38
0.697	95.45
0.7	95.53
0.703	95.5
0.706	95.67
0.709	95.55
0.712	95.67
0.715	95.5
0.718	95.26
0.721	95.49
0.724	95.56
0.727	95.61
0.73	95.55
0.733	95.38
0.736	95.55
0.739	95.44
0.742	95.55
0.745	95.38
0.748	95.49
0.751	95.44
0.754	95.5
0.757	95.43
0.76	95.26
0.763	95.32
0.766	95.26
0.769	95.32
0.772	95.32
0.775	95.21
0.778	95.32
0.781	95.26
0.784	95.32
0.787	95.15
0.79	95.26
0.793	95.31
0.796	95.26
0.799	95.33
0.808	94.71
0.82	94.84
0.832	94.78
0.844	94.78
0.856	94.84
0.868	94.78
0.88	94.54
0.892	94.54
0.904	94.54
0.916	94.54
0.928	94.6
0.94	94.36
0.952	94.36
0.964	94.24
0.976	94.12
0.988	94.12
1	94.18
1.012	94.24
1.024	94.24
1.036	94.24
1.048	94.06
1.06	94
1.072	93.88
1.084	93.88
1.096	93.94
1.108	93.88
1.12	93.88
1.132	93.82
1.144	93.64
1.156	93.52
1.168	93.55
1.18	93.35
1.192	93.21
1.204	93.19
1.216	93.07
1.228	93.14
1.24	93.09
1.252	92.97
1.264	92.77
1.276	92.76
1.288	92.55
1.3	92.37
1.312	92.12
1.324	91.97
1.336	91.72
1.348	91.59
1.36	91.05
1.372	89.34
1.384	87.57
1.396	87.34
1.408	86.76
1.42	86.46
1.432	86.22
1.444	86.19
1.456	86.18
1.468	86.41
1.48	86.55
1.492	86.61
1.504	86.71
1.516	86.93
1.528	87.06
1.54	87.13
1.552	87
1.564	86.88
1.576	86.66
1.588	86.53
1.6	86.47
1.612	86.26
1.624	86.21
1.636	86.21
1.648	86.22
1.66	86.15
1.672	86.03
1.684	85.96
1.696	85.97
1.708	85.82
1.72	85.69
1.732	85.46
1.744	85.27
1.756	85.16
1.768	85.13
1.78	85.03
1.792	84.95
1.804	84.73
1.816	84.63
1.828	84.34
1.84	83.83
1.852	83.11
1.864	81.07
1.876	77.85
1.888	76.82
1.9	75.73
1.912	74.59
1.924	73.69
1.936	73.16
1.948	73.12
1.96	73.19
1.972	73.39
1.984	73.77
1.996	74.13
2.008	74.45
2.02	74.81
2.032	74.98
2.044	75.25
2.056	75.56
2.068	75.92
2.08	76.28
2.092	76.48
2.104	76.73
2.116	76.96
2.128	77.02
2.14	76.81
2.152	76.59
2.164	76.35
2.176	76.04
2.188	75.68
2.2	75.13
2.212	74.51
2.224	74.08
2.236	73.63
2.248	73.22
2.26	73
2.272	72.84
2.284	72.48
2.296	71.96
2.308	71.34
2.32	71.1
2.332	70.5
2.344	69.82
2.356	69.43
2.368	69.51
2.38	69.47
2.392	68.92
2.404	68.42
2.416	67.88
2.428	67.28
2.44	66.68
2.452	66.03
2.464	65.35
2.476	64.8
2.488	64.62
2.5	64.53
