Name: Pyrrhotite Fe(1-x)S
Type: Mineral
Class: Sulfide
Subclass: None
Particle Size: Coarse
Sample No.: pyroph_1
Owner: JHU
Wavelength Range: TIR
Origin: Stoneham, Maine, USA via the Smithsonian (sample no. NMNH85267)
Description: The sample consisted of two large fragments and many small pieces from the same specimen.  Total weight was 23 g.  Fragments had a bronze color, no obvious impurities, but some brownish surficial alteration, which was easily removed.  Under the microscope there appeared to be contamination by <5% of a transparent mineral which could be separated magnetically. Particle size was 75 - 250 micrometers. Original ASTER Spectral Library name was jhu.nicolet.mineral.sulfide.none.coarse.pyrrho1.spectrum.txt
Measurement: Bidirectional reflectance
X Units: Wavelength (micrometers)
Y Units: Reflectance (percent)
wavelength	value
25.0442	8.3078
24.3388	8.395
23.6719	8.4678
23.0407	8.4077
22.4422	8.2893
21.8741	8.2756
21.334	8.2795
20.8199	8.279
20.33	8.2387
19.8627	8.2273
19.4163	8.1894
18.9896	8.1728
18.5812	8.1501
18.19	8.1438
17.815	8.143
17.4551	8.0945
17.1094	8.0254
16.7772	7.9773
16.4576	7.935
16.15	7.8904
15.8537	7.8852
15.568	7.883
15.2925	7.853
15.0265	7.8506
14.7697	7.8662
14.5214	7.8584
14.2814	7.8486
14.0492	7.8679
13.8244	7.8298
13.6067	7.8208
13.3957	7.8252
13.1912	7.8345
12.9929	7.8227
12.8004	7.7929
12.6135	7.7671
12.432	7.749
12.2557	7.7187
12.0843	7.686
11.9176	7.6743
11.7555	7.6726
11.5977	7.6535
11.444	7.6892
11.2944	7.6335
11.1487	7.6072
11.0067	7.5964
10.8682	7.5959
10.7332	7.5752
10.6015	7.5596
10.473	7.5415
10.3476	7.5173
10.2251	7.479
10.1056	7.4551
9.9887	7.4187
9.8746	7.3825
9.763	7.3469
9.6539	7.3198
9.5472	7.2908
9.4429	7.2605
9.3408	7.2358
9.2409	7.2258
9.1431	7.2195
9.0474	7.1909
8.9536	7.1863
8.8618	7.1914
8.7718	7.1985
8.6837	7.2173
8.5973	7.2214
8.5126	7.2007
8.4295	7.199
8.3481	7.1982
8.2682	7.1977
8.1898	7.209
8.1129	7.2212
8.0374	7.2231
7.9634	7.2214
7.8906	7.2099
7.8192	7.1926
7.7491	7.1633
7.6802	7.1326
7.6126	7.1072
7.5461	7.0845
7.4807	7.0635
7.4165	7.0471
7.3534	7.0307
7.2914	7.0107
7.2303	7.0005
7.1703	6.9885
7.1113	6.9812
7.0533	6.9587
6.9962	6.9433
6.94	6.9297
6.8847	6.9077
6.8302	6.9038
6.7767	6.9057
6.7239	6.8896
6.672	6.8823
6.6209	6.8738
6.5705	6.8742
6.5209	6.8689
6.4721	6.8628
6.424	6.8515
6.3766	6.8345
6.3299	6.8044
6.2838	6.78
6.2385	6.7612
6.1937	6.7422
6.1496	6.7217
6.1062	6.7129
6.0633	6.6977
6.0211	6.7048
5.9794	6.7119
5.9383	6.7024
5.8978	6.698
5.8578	6.7007
5.8184	6.6775
5.7794	6.6638
5.741	6.6628
5.7031	6.6611
5.6657	6.6667
5.6288	6.6557
5.5924	6.6465
5.5564	6.6384
5.5209	6.6223
5.4859	6.6164
5.4513	6.6128
5.4171	6.6111
5.3833	6.6057
5.35	6.5996
5.3171	6.5937
5.2846	6.5937
5.2524	6.5825
5.2207	6.5715
5.1893	6.5632
5.1584	6.5486
5.1277	6.541
5.0975	6.5349
5.0676	6.5305
5.038	6.5251
5.0088	6.5188
4.98	6.5144
4.9514	6.5107
4.9232	6.5019
4.8953	6.5005
4.8678	6.4934
4.8405	6.4848
4.8135	6.477
4.7868	6.4787
4.7605	6.4663
4.7344	6.4629
4.7086	6.4595
4.6831	6.4477
4.6578	6.4431
4.6328	6.4365
4.6081	6.4302
4.5837	6.4226
4.5595	6.4148
4.5356	6.4045
4.5119	6.3972
4.4884	6.3952
4.4652	6.3857
4.4423	6.3852
4.4196	6.3813
4.3971	6.3777
4.3748	6.3657
4.3528	6.3547
4.331	6.3428
4.3094	6.333
4.288	6.3188
4.2668	6.3171
4.2458	6.303
4.2251	6.3
4.2045	6.2915
4.1841	6.2844
4.164	6.2756
4.144	6.261
4.1242	6.2483
4.1046	6.2363
4.0852	6.2273
4.066	6.2151
4.047	6.2087
4.0281	6.1948
4.0094	6.1848
3.9909	6.1748
3.9725	6.1672
3.9544	6.157
3.9363	6.1538
3.9185	6.1528
3.9008	6.1428
3.8833	6.1333
3.8659	6.1216
3.8487	6.113
3.8316	6.1079
3.8147	6.0981
3.7979	6.0908
3.7813	6.0886
3.7648	6.0779
3.7485	6.0671
3.7323	6.0588
3.7162	6.0459
3.7003	6.0342
3.6845	6.021
3.6689	6.0137
3.6534	5.9995
3.638	5.9883
3.6227	5.9817
3.6076	5.9709
3.5926	5.9634
3.5777	5.9468
3.563	5.9346
3.5484	5.9253
3.5338	5.9167
3.5195	5.896
3.5052	5.8813
3.491	5.8828
3.477	5.8813
3.463	5.8635
3.4492	5.8633
3.4355	5.8391
3.4219	5.8345
3.4084	5.8345
3.395	5.8298
3.3817	5.8125
3.3685	5.813
3.3554	5.7988
3.3425	5.7869
3.3296	5.7727
3.3168	5.7727
3.3041	5.7615
3.2915	5.7529
3.279	5.7414
3.2666	5.7202
3.2543	5.7126
3.2421	5.6999
3.23	5.6831
3.218	5.6789
3.206	5.6609
3.1942	5.6587
3.1824	5.6516
3.1707	5.6357
3.1591	5.6333
3.1476	5.6098
3.1362	5.6064
3.1249	5.6006
3.1136	5.5923
3.1024	5.5874
3.0913	5.5762
3.0803	5.5759
3.0694	5.563
3.0585	5.5588
3.0477	5.5576
3.037	5.5459
3.0264	5.53
3.0158	5.5227
3.0053	5.5083
2.9949	5.5041
2.9845	5.501
2.9743	5.4839
2.9641	5.4712
2.9539	5.4595
2.9439	5.4519
2.9339	5.4419
2.9239	5.4333
2.9141	5.428
2.9043	5.4223
2.8946	5.4233
2.8849	5.4236
2.8753	5.4114
2.8658	5.4126
2.8563	5.4033
2.8469	5.3933
2.8375	5.3887
2.8282	5.3818
2.819	5.3728
2.8098	5.3755
2.8007	5.3584
2.7917	5.3647
2.7827	5.3591
2.7738	5.3406
2.7649	5.3418
2.7561	5.3352
2.7473	5.3384
2.7386	5.3352
2.7299	5.3244
2.7213	5.312
2.7128	5.3044
2.7043	5.2898
2.6959	5.2751
2.6875	5.2837
2.6791	5.2605
2.6709	5.2576
2.6626	5.2388
2.6545	5.2361
2.6463	5.2346
2.6382	5.2278
2.6302	5.2134
2.6222	5.2099
2.6143	5.2031
2.6064	5.1882
2.5986	5.1875
2.5908	5.1863
2.583	5.176
2.5753	5.1755
2.5677	5.1487
2.5601	5.1455
2.5525	5.1465
2.545	5.1279
2.5375	5.123
2.5301	5.1162
2.5227	5.0998
2.5154	5.0884
2.5081	5.0976
2.5008	5.0874
2.4936	5.0901
2.4864	5.0715
2.4793	5.0696
2.4722	5.0583
2.4651	5.053
2.4581	5.0344
2.4511	5.0459
2.4442	5.0478
2.4373	5.0364
2.4305	5.0224
2.4236	4.9944
2.4169	5.0117
2.4101	5.0029
2.4034	4.9905
2.3967	4.9932
2.3901	4.97
2.3835	4.9641
2.377	4.9802
2.3704	4.9651
2.364	4.9751
2.3575	4.9631
2.3511	4.949
2.3447	4.9607
2.3384	4.9414
2.3321	4.9394
2.3258	4.9287
2.3195	4.9245
2.3133	4.9231
2.3071	4.9072
2.301	4.9216
2.2949	4.9248
2.2888	4.9121
2.2828	4.906
2.2767	4.8811
2.2708	4.8779
2.2648	4.8723
2.2589	4.8938
2.253	4.8796
2.2471	4.8772
2.2413	4.8469
2.2355	4.8762
2.2297	4.8599
2.224	4.8555
2.2183	4.8513
2.2126	4.853
2.207	4.8401
2.2013	4.8323
2.1957	4.8374
2.1902	4.8198
2.1846	4.8196
2.1791	4.8381
2.1736	4.8279
2.1682	4.8174
2.1628	4.8284
2.1574	4.8179
2.152	4.7995
2.1466	4.7891
2.1413	4.802
2.136	4.7739
2.1308	4.7912
2.1255	4.792
2.1203	4.7798
2.1151	4.7839
2.11	4.771
2.1048	4.7776
2.0997	4.7661
2.0946	4.7634
2.0895	4.7788
2.0845	4.7488
2.0795	4.7432
