Name: Glauberite Na_2Ca(SO_4)_2
Type: Mineral
Class: Sulfate
Subclass: None
Particle Size: Medium
Sample No.: SO-8A
Owner: JPL
Wavelength Range: TIR
Origin: USA, Arizona, Yavapai County, Campe Verde
Description: Particle size was 45-125um.Collected by Burminco Original ASTER Spectral Library name was jpl.nicolet.mineral.sulfate.none.medium.so08a.spectrum.txt
Measurement: Hemispherical reflectance
X Units: Wavelength (micrometers)
Y Units: Reflectance (percent)
wavelength	value
15.3853	8.9172
15.1161	1.2515
14.8563	2.6526
14.6052	4.6581
14.3624	7.2101
14.1276	8.2602
13.9004	9.3049
13.6803	10.4306
13.4671	10.5975
13.2604	10.7726
13.06	11.4207
12.8656	13.3673
12.6769	15.1737
12.4936	16.6287
12.3155	18.031
12.1425	18.3142
11.9742	18.1996
11.8106	18.086
11.6513	18.3403
11.4963	18.5707
11.3454	18.0622
11.1983	17.8764
11.0551	15.8637
10.9154	14.7494
10.7793	13.9845
10.6465	13.7368
10.5169	12.9384
10.3904	12.0181
10.267	10.1593
10.1464	8.2754
10.0287	6.9985
9.9136	7.1394
9.8012	6.9242
9.6913	6.9912
9.5838	7.3206
9.4787	7.8582
9.3758	9.2605
9.2752	11.8445
9.1767	16.6572
9.0803	22.2061
8.9858	22.4388
8.8934	30.5317
8.8028	40.6036
8.714	33.8899
8.627	41.3341
8.5417	36.8532
8.4581	27.56
8.3761	26.0643
8.2957	25.1125
8.2169	18.3951
8.1395	8.0669
8.0635	2.9964
7.989	1.0204
7.9158	0.3942
7.8439	0.1112
7.7734	0.124
7.7041	0.3241
7.636	0.5017
7.5691	0.9254
7.5034	1.4641
7.4388	2.62
7.3753	4.1287
7.3129	5.6278
7.2515	7.0903
7.1912	8.965
7.1318	10.7942
7.0734	13.6789
7.016	17.346
6.9595	20.9369
6.9039	22.5656
6.8492	24.5378
6.7953	23.358
6.7423	22.4881
6.6901	28.2001
6.6387	31.6888
6.5881	33.2691
6.5382	32.2018
6.4892	25.9046
6.4408	22.6793
6.3931	21.7528
6.3462	19.061
6.2999	16.8667
6.2543	15.8324
6.2094	13.7772
6.1651	17.4649
6.1214	19.1727
6.0784	19.2182
6.0359	29.5754
5.994	37.5675
5.9527	40.2093
5.912	44.4377
5.8718	46.4041
5.8322	45.1463
5.7931	43.1781
5.7545	39.5786
5.7165	38.7524
5.6789	37.9904
5.6418	38.8964
5.6052	38.6341
5.5691	42.7924
5.5334	45.6246
5.4982	45.8622
5.4635	48.0905
5.4291	50.7668
5.3952	54.7855
5.3618	59.1858
5.3287	61.2799
5.2961	62.0007
5.2638	62.4082
5.2319	62.6531
5.2004	62.8079
5.1693	62.5443
5.1386	62.0448
5.1082	60.7843
5.0782	59.8852
5.0485	57.0537
5.0192	44.2907
4.9902	48.1819
4.9616	51.2333
4.9332	49.151
4.9052	45.5958
4.8776	40.6866
4.8502	33.5702
4.8231	23.4459
4.7963	10.3822
4.7699	5.4259
4.7437	4.6516
4.7178	3.9531
4.6922	4.3443
4.6668	6.3395
4.6418	8.2668
4.617	8.4464
4.5924	10.1319
4.5681	8.9085
4.5441	8.4798
4.5203	9.6257
4.4968	11.7036
4.4735	12.3986
4.4505	11.5773
4.4277	10.6901
4.4051	10.9372
4.3828	12.2133
4.3607	11.8483
4.3388	12.6595
4.3171	14.2195
4.2956	16.2254
4.2744	19.5684
4.2534	23.7171
4.2325	28.1372
4.2119	34.3038
4.1915	39.8295
4.1712	44.4875
4.1512	49.7759
4.1313	53.9419
4.1117	57.2787
4.0922	60.0247
4.0729	62.6927
4.0538	64.938
4.0349	67.1147
4.0161	69.1749
3.9976	70.9385
3.9792	71.9765
3.9609	72.6429
3.9428	73.082
3.9249	73.6167
3.9072	74.4687
3.8896	74.7221
3.8722	74.9721
3.8549	75.062
3.8378	74.5828
3.8208	75.5412
3.804	75.484
3.7873	75.8922
3.7708	78.1695
3.7544	79.5813
3.7382	80.0521
3.7221	80.182
3.7061	80.1776
3.6903	79.9944
3.6746	79.7638
3.659	79.3885
3.6436	79.1597
3.6283	79.1546
3.6131	79.1018
3.5981	79.0155
3.5832	78.9094
3.5684	78.5978
3.5537	78.1384
3.5391	77.6997
3.5247	77.0085
3.5104	75.9701
3.4962	75.166
3.4821	74.7801
3.4681	74.4176
3.4543	73.9313
3.4405	73.3501
3.4269	72.662
3.4133	71.9366
3.3999	72.2058
3.3866	72.2718
3.3733	71.8342
3.3602	71.8875
3.3472	71.4784
3.3343	71.4433
3.3215	71.0529
3.3088	70.537
3.2961	69.7565
3.2836	68.8678
3.2712	67.8743
3.2588	66.1598
3.2466	62.9581
3.2345	61.7143
3.2224	61.0937
3.2104	60.2703
3.1985	60.3304
3.1867	60.849
3.175	60.5804
3.1634	59.6316
3.1519	58.8232
3.1404	57.5198
3.129	56.5274
3.1178	55.8544
3.1065	55.2062
3.0954	54.582
3.0844	54.0654
3.0734	53.6245
3.0625	53.4724
3.0517	53.2319
3.041	52.8261
3.0303	52.7074
3.0197	52.1984
3.0092	51.9558
2.9987	51.4913
2.9884	51.1116
2.9781	50.5539
2.9678	50.2993
2.9577	49.6628
2.9476	49.2915
2.9376	49.1116
2.9276	48.9305
2.9177	48.9482
2.9079	48.9693
2.8982	48.849
2.8885	48.8829
2.8789	48.4462
2.8693	48.4264
2.8598	48.7292
2.8504	49.4268
2.841	49.8675
2.8317	50.2258
2.8224	51.6429
2.8133	53.0449
2.8041	54.4206
2.7951	54.875
2.786	55.6744
2.7771	56.0966
2.7682	57.2084
2.7594	57.6903
2.7506	59.4132
2.7418	61.8807
2.7332	63.2573
2.7246	65.8039
2.716	66.0764
2.7075	68.6316
2.699	71.8966
2.6906	76.1056
2.6823	79.4825
2.674	81.5295
2.6657	83.536
2.6575	82.5559
2.6494	82.7877
2.6413	82.9804
2.6332	83.3349
2.6252	83.436
2.6173	84.3109
2.6094	83.8269
2.6015	83.7108
2.5937	84.9633
2.5859	83.7149
2.5782	83.6033
2.5706	83.7283
2.5629	84.1211
2.5554	83.2837
2.5478	83.4019
2.5403	83.384
2.5329	83.4246
2.5255	83.4658
2.5181	83.3924
2.5108	83.2862
2.5035	83.4648
2.4963	83.3435
2.4891	83.4497
2.482	83.5011
2.4749	83.5883
2.4678	83.6145
2.4608	83.6659
2.4538	83.7373
2.4468	83.8837
2.4399	83.837
2.4331	83.9378
2.4262	84.2455
2.4194	84.0723
2.4127	84.4206
2.4059	84.5188
2.3993	84.531
2.3926	84.5984
2.386	84.7276
2.3795	84.9323
2.3729	85.0295
2.3664	84.9907
2.36	84.9971
2.3535	85.1367
2.3471	85.1983
2.3408	85.2818
2.3345	85.3864
2.3282	85.2864
2.3219	85.2478
2.3157	85.1478
2.3095	85.4115
2.3034	85.3504
2.2972	85.505
2.2911	85.5106
2.2851	85.5096
2.279	85.5759
2.2731	85.6296
2.2671	85.3975
2.2612	85.7094
2.2553	85.5008
2.2494	85.7347
2.2435	85.4585
2.2377	85.6988
2.232	85.6367
2.2262	85.6699
2.2205	85.5599
2.2148	85.6582
2.2091	85.5508
2.2035	85.5911
2.1979	85.7037
2.1923	85.6984
2.1868	85.8936
2.1812	85.8522
2.1758	85.7633
2.1703	86.0947
2.1649	85.9554
2.1595	86.0552
2.1541	86.1268
2.1487	86.0717
2.1434	86.2131
2.1381	86.0522
2.1328	86.175
2.1275	86.0666
2.1223	86.1867
2.1171	86.104
2.112	86.1607
2.1068	86.1903
2.1017	86.0877
2.0966	86.1841
2.0915	86.1955
2.0865	85.9919
2.0814	86.0856
2.0764	85.9697
2.0715	86.1236
2.0665	86.4435
2.0616	86.0447
2.0567	86.0981
2.0518	86.2348
2.0469	86.1868
2.0421	86.1955
2.0373	85.9433
2.0325	85.8406
2.0277	85.8019
2.0229	85.9405
2.0182	86.0404
2.0135	86.0931
2.0088	85.8391
2.0042	85.6801
