Name: Graphite C
Type: Mineral
Class: Element
Subclass: None
Particle Size: Medium
Sample No.: E-1A
Owner: JPL
Wavelength Range: TIR
Origin: Mexico, Sonora, Morelos, San Jose Mine
Description: Particle size was 45-125um.Collected by Burminco Original ASTER Spectral Library name was jpl.nicolet.mineral.element.none.medium.e01a.spectrum.txt
Measurement: Hemispherical reflectance
X Units: Wavelength (micrometers)
Y Units: Reflectance (percent)
wavelength	value
15.3853	12.7849
15.1161	12.3524
14.8563	12.5556
14.6052	12.383
14.3624	11.8913
14.1276	12.3651
13.9004	12.1188
13.6803	11.8312
13.4671	12.0475
13.2604	12.0546
13.06	11.9067
12.8656	11.6403
12.6769	11.8195
12.4936	11.8212
12.3155	11.6057
12.1425	11.599
11.9742	11.6459
11.8106	11.5327
11.6513	11.4301
11.4963	11.3078
11.3454	11.3343
11.1983	11.2511
11.0551	11.2862
10.9154	11.1458
10.7793	11.2017
10.6465	11.0712
10.5169	11.0474
10.3904	11.0787
10.267	11.0907
10.1464	11.0869
10.0287	11.1849
9.9136	11.0653
9.8012	11.2228
9.6913	11.2988
9.5838	11.3307
9.4787	11.2198
9.3758	11.1553
9.2752	11.1477
9.1767	11.1576
9.0803	11.0343
8.9858	11.0028
8.8934	10.8338
8.8028	10.6262
8.714	10.8171
8.627	10.6258
8.5417	10.7114
8.4581	10.5995
8.3761	10.6553
8.2957	10.6788
8.2169	10.3928
8.1395	10.4316
8.0635	10.3365
7.989	10.1195
7.9158	10.0976
7.8439	10.0486
7.7734	9.9491
7.7041	9.9608
7.636	9.9315
7.5691	9.8879
7.5034	9.8947
7.4388	9.8353
7.3753	9.7937
7.3129	9.8542
7.2515	9.8315
7.1912	9.7034
7.1318	9.6811
7.0734	9.6907
7.016	9.7668
6.9595	9.8231
6.9039	9.7388
6.8492	9.6463
6.7953	9.5947
6.7423	9.5123
6.6901	9.4806
6.6387	9.6866
6.5881	9.6078
6.5382	9.4908
6.4892	9.8323
6.4408	9.4698
6.3931	9.4439
6.3462	9.5224
6.2999	9.2982
6.2543	9.3056
6.2094	9.3448
6.1651	9.2674
6.1214	9.3046
6.0784	9.1787
6.0359	9.1991
5.994	9.2906
5.9527	9.18
5.912	9.1598
5.8718	9.1465
5.8322	9.1195
5.7931	9.0758
5.7545	9.0584
5.7165	8.9891
5.6789	9.0149
5.6418	9.0242
5.6052	8.9676
5.5691	8.9343
5.5334	8.8014
5.4982	8.8076
5.4635	8.7702
5.4291	8.7432
5.3952	8.7844
5.3618	8.7013
5.3287	8.7432
5.2961	8.7167
5.2638	8.7196
5.2319	8.7692
5.2004	8.6829
5.1693	8.7305
5.1386	8.6082
5.1082	8.5836
5.0782	8.6366
5.0485	8.673
5.0192	8.5752
4.9902	8.5755
4.9616	8.4417
4.9332	8.5445
4.9052	8.5104
4.8776	8.5973
4.8502	8.5235
4.8231	8.5751
4.7963	8.3041
4.7699	8.3758
4.7437	8.5296
4.7178	8.4664
4.6922	8.477
4.6668	8.4008
4.6418	8.3968
4.617	8.3366
4.5924	8.3111
4.5681	8.2692
4.5441	8.3659
4.5203	8.2265
4.4968	8.27
4.4735	8.2307
4.4505	8.2598
4.4277	8.2348
4.4051	8.1696
4.3828	8.2111
4.3607	8.2684
4.3388	8.1624
4.3171	8.1423
4.2956	8.1765
4.2744	8.2158
4.2534	8.1257
4.2325	8.1508
4.2119	8.0744
4.1915	8.1447
4.1712	8.1019
4.1512	7.9718
4.1313	8.0515
4.1117	7.9899
4.0922	7.9828
4.0729	7.9569
4.0538	8.0002
4.0349	7.8828
4.0161	8.0112
3.9976	7.9915
3.9792	7.8639
3.9609	7.9421
3.9428	7.7764
3.9249	7.8117
3.9072	7.9248
3.8896	7.9164
3.8722	7.8089
3.8549	7.7992
3.8378	7.8377
3.8208	7.8027
3.804	7.7821
3.7873	7.7804
3.7708	7.758
3.7544	7.7469
3.7382	7.7129
3.7221	7.6821
3.7061	7.7457
3.6903	7.7623
3.6746	7.8078
3.659	7.6343
3.6436	7.7505
3.6283	7.6985
3.6131	7.6996
3.5981	7.6683
3.5832	7.6595
3.5684	7.5588
3.5537	7.527
3.5391	7.6981
3.5247	7.6157
3.5104	7.4981
3.4962	7.6445
3.4821	7.6367
3.4681	7.5005
3.4543	7.542
3.4405	7.6368
3.4269	7.834
3.4133	7.5662
3.3999	7.5406
3.3866	7.4706
3.3733	7.5928
3.3602	7.5268
3.3472	7.3888
3.3343	7.4643
3.3215	7.5042
3.3088	7.3861
3.2961	7.4267
3.2836	7.3997
3.2712	7.5397
3.2588	7.3793
3.2466	7.4637
3.2345	7.4247
3.2224	7.4204
3.2104	7.2952
3.1985	7.1422
3.1867	7.3373
3.175	7.3159
3.1634	7.4685
3.1519	7.24
3.1404	7.2456
3.129	7.1727
3.1178	7.2618
3.1065	7.2498
3.0954	7.2909
3.0844	7.338
3.0734	7.1175
3.0625	7.1725
3.0517	7.3014
3.041	7.2518
3.0303	7.2235
3.0197	7.3665
3.0092	7.3852
2.9987	7.1764
2.9884	7.124
2.9781	7.2133
2.9678	7.1417
2.9577	7.3038
2.9476	7.3043
2.9376	7.0784
2.9276	7.0883
2.9177	6.9598
2.9079	7.0914
2.8982	7.154
2.8885	7.0377
2.8789	7.1284
2.8693	7.1334
2.8598	7.1006
2.8504	7.0298
2.841	7.1737
2.8317	6.856
2.8224	7.0301
2.8133	6.8554
2.8041	7.0937
2.7951	6.835
2.786	6.9168
2.7771	6.9422
2.7682	6.9734
2.7594	6.8789
2.7506	6.8807
2.7418	6.8247
2.7332	6.8627
2.7246	6.831
2.716	6.7101
2.7075	6.724
2.699	6.8775
2.6906	6.6274
2.6823	6.9607
2.674	6.7965
2.6657	6.8297
2.6575	6.777
2.6494	6.7185
2.6413	6.7138
2.6332	6.8441
2.6252	6.6526
2.6173	6.7229
2.6094	6.8103
2.6015	6.6658
2.5937	6.7129
2.5859	6.6397
2.5782	6.7403
2.5706	6.676
2.5629	6.7106
2.5554	6.7928
2.5478	6.6834
2.5403	6.9299
2.5329	6.59
2.5255	6.8857
2.5181	6.6523
2.5108	6.6265
2.5035	6.7321
2.4963	6.4986
2.4891	6.7455
2.482	6.7134
2.4749	6.5684
2.4678	6.4806
2.4608	6.7367
2.4538	6.5778
2.4468	6.5296
2.4399	6.6828
2.4331	6.5556
2.4262	6.3236
2.4194	6.4433
2.4127	6.607
2.4059	6.4886
2.3993	6.6064
2.3926	6.5309
2.386	6.4754
2.3795	6.545
2.3729	6.44
2.3664	6.4666
2.36	6.4709
2.3535	6.4226
2.3471	6.4454
2.3408	6.3832
2.3345	6.4786
2.3282	6.5168
2.3219	6.3114
2.3157	6.3924
2.3095	6.3914
2.3034	6.6268
2.2972	6.5638
2.2911	6.3922
2.2851	6.5055
2.279	6.4795
2.2731	6.249
2.2671	6.4558
2.2612	6.3936
2.2553	6.5185
2.2494	6.3829
2.2435	6.312
2.2377	6.1311
2.232	6.449
2.2262	6.2153
2.2205	6.517
2.2148	6.203
2.2091	6.4987
2.2035	6.2237
2.1979	6.4868
2.1923	6.3708
2.1868	6.4183
2.1812	6.3979
2.1758	6.4341
2.1703	6.2292
2.1649	6.5396
2.1595	6.1739
2.1541	6.4303
2.1487	6.4672
2.1434	6.3318
2.1381	6.3468
2.1328	6.2559
2.1275	6.1869
2.1223	5.9649
2.1171	6.317
2.112	6.2837
2.1068	6.4431
2.1017	6.2433
2.0966	6.3683
2.0915	6.1165
2.0865	6.3436
2.0814	5.9622
2.0764	6.739
2.0715	5.7177
2.0665	6.68
2.0616	6.2501
2.0567	6.1554
2.0518	6.505
2.0469	6.3009
2.0421	6.186
2.0373	6.2649
2.0325	6.0157
2.0277	6.0754
2.0229	6.4381
2.0182	6.047
2.0135	6.3159
2.0088	6.0974
2.0042	6.2043
