Name: Calcite CaCO_3
Type: Mineral
Class: Carbonate
Subclass: None
Particle Size: Coarse
Sample No.: C-3E
Owner: JPL
Wavelength Range: TIR
Origin: N/A
Description: Particle size was 125-500um.Collected by JPL Original ASTER Spectral Library name was jpl.nicolet.mineral.carbonate.none.coarse.c03e.spectrum.txt
Measurement: Hemispherical reflectance
X Units: Wavelength (micrometers)
Y Units: Reflectance (percent)
wavelength	value
15.3853	10.0063
15.1161	12.0316
14.8563	13.6129
14.6052	13.2679
14.3624	8.4392
14.1276	4.042
13.9004	2.1801
13.6803	10.8891
13.4671	17.9308
13.2604	18.0118
13.06	13.0972
12.8656	10.2934
12.6769	10.7463
12.4936	12.2247
12.3155	12.7342
12.1425	14.3152
11.9742	13.22
11.8106	7.0145
11.6513	7.9051
11.4963	8.311
11.3454	22.3507
11.1983	9.8457
11.0551	10.604
10.9154	11.6112
10.7793	9.0864
10.6465	7.8411
10.5169	8.0207
10.3904	9.7139
10.267	9.1781
10.1464	8.4058
10.0287	7.344
9.9136	6.6345
9.8012	6.8587
9.6913	8.2396
9.5838	9.6642
9.4787	10.235
9.3758	9.0593
9.2752	9.5688
9.1767	9.3786
9.0803	9.9942
8.9858	9.4995
8.8934	8.7145
8.8028	7.5439
8.714	6.2496
8.627	5.2297
8.5417	5.14
8.4581	5.192
8.3761	5.5537
8.2957	5.8491
8.2169	6.0815
8.1395	6.0724
8.0635	5.9332
7.989	6.3629
7.9158	6.2599
7.8439	6.4012
7.7734	6.6171
7.7041	6.8784
7.636	6.9235
7.5691	7.2943
7.5034	7.782
7.4388	8.391
7.3753	9.1884
7.3129	10.3875
7.2515	12.1147
7.1912	15.1291
7.1318	19.2099
7.0734	25.1204
7.016	26.5677
6.9595	27.3649
6.9039	28.1761
6.8492	30.0728
6.7953	32.5924
6.7423	35.885
6.6901	42.0305
6.6387	46.2944
6.5881	47.9879
6.5382	49.0389
6.4892	48.1343
6.4408	30.8708
6.3931	13.2145
6.3462	5.7514
6.2999	2.0328
6.2543	0.8537
6.2094	0.3222
6.1651	0.3034
6.1214	0.3944
6.0784	0.3337
6.0359	0.3829
5.994	0.5915
5.9527	0.6109
5.912	0.7754
5.8718	1.0204
5.8322	0.924
5.7931	0.9102
5.7545	1.0691
5.7165	1.2024
5.6789	1.4089
5.6418	2.0264
5.6052	1.3879
5.5691	1.1065
5.5334	1.2754
5.4982	3.518
5.4635	6.4434
5.4291	10.072
5.3952	14.2268
5.3618	18.3907
5.3287	22.4808
5.2961	26.8486
5.2638	29.88
5.2319	32.9344
5.2004	35.5003
5.1693	37.3746
5.1386	39.2336
5.1082	29.8617
5.0782	40.6683
5.0485	43.7044
5.0192	43.6827
4.9902	43.1869
4.9616	42.3122
4.9332	41.8335
4.9052	42.0712
4.8776	42.5759
4.8502	43.1123
4.8231	43.4106
4.7963	43.2929
4.7699	41.4504
4.7437	35.6133
4.7178	24.2994
4.6922	13.1645
4.6668	11.3244
4.6418	16.2511
4.617	24.4242
4.5924	27.5277
4.5681	28.2636
4.5441	28.5721
4.5203	28.6994
4.4968	29.8667
4.4735	34.1218
4.4505	37.7447
4.4277	41.8982
4.4051	43.9807
4.3828	45.2362
4.3607	42.981
4.3388	39.8234
4.3171	39.3995
4.2956	40.7898
4.2744	40.8514
4.2534	39.2903
4.2325	37.7051
4.2119	36.4208
4.1915	34.4438
4.1712	32.0075
4.1512	29.0933
4.1313	25.0958
4.1117	20.9395
4.0922	17.1133
4.0729	13.2415
4.0538	9.1452
4.0349	4.3518
4.0161	2.8529
3.9976	2.36
3.9792	2.1462
3.9609	2.2423
3.9428	2.4135
3.9249	2.7369
3.9072	2.9023
3.8896	2.9391
3.8722	3.0999
3.8549	3.1037
3.8378	3.3785
3.8208	4.9773
3.804	8.8902
3.7873	20.0359
3.7708	27.0775
3.7544	30.4282
3.7382	33.4325
3.7221	36.233
3.7061	37.6761
3.6903	38.5371
3.6746	38.5249
3.659	37.7941
3.6436	36.6277
3.6283	34.8814
3.6131	32.678
3.5981	28.8505
3.5832	22.3639
3.5684	17.3319
3.5537	16.036
3.5391	11.0562
3.5247	5.3213
3.5104	3.2672
3.4962	2.9431
3.4821	2.5778
3.4681	3.0102
3.4543	3.6721
3.4405	3.8967
3.4269	3.836
3.4133	3.7611
3.3999	3.7465
3.3866	3.5971
3.3733	3.4561
3.3602	3.2017
3.3472	3.1962
3.3343	8.1857
3.3215	15.0777
3.3088	19.6412
3.2961	23.2874
3.2836	26.6422
3.2712	29.9575
3.2588	32.5231
3.2466	34.7236
3.2345	36.9732
3.2224	39.1206
3.2104	40.9603
3.1985	42.6399
3.1867	43.4279
3.175	42.8678
3.1634	38.4841
3.1519	34.4876
3.1404	36.0613
3.129	38.221
3.1178	35.0994
3.1065	33.349
3.0954	36.9405
3.0844	41.9611
3.0734	45.6737
3.0625	47.5269
3.0517	50.5267
3.041	53.0426
3.0303	55.6126
3.0197	57.592
3.0092	59.7888
2.9987	61.6667
2.9884	62.9943
2.9781	63.7427
2.9678	63.9255
2.9577	63.9095
2.9476	64.168
2.9376	64.7116
2.9276	65.1654
2.9177	65.2706
2.9079	65.4221
2.8982	65.3588
2.8885	65.6028
2.8789	65.4835
2.8693	65.2457
2.8598	64.6808
2.8504	63.7711
2.841	61.7832
2.8317	58.5185
2.8224	54.3688
2.8133	49.403
2.8041	43.7781
2.7951	35.9247
2.786	32.0072
2.7771	39.1222
2.7682	47.8191
2.7594	54.0954
2.7506	56.0172
2.7418	57.9229
2.7332	59.1994
2.7246	61.892
2.716	63.9074
2.7075	68.1382
2.699	72.6781
2.6906	76.4444
2.6823	79.1257
2.674	80.7091
2.6657	82.7888
2.6575	82.1878
2.6494	82.5216
2.6413	82.5967
2.6332	82.4185
2.6252	81.733
2.6173	81.4188
2.6094	79.6875
2.6015	77.6771
2.5937	75.9406
2.5859	70.7466
2.5782	68.0029
2.5706	64.6529
2.5629	58.4969
2.5554	48.2991
2.5478	38.2855
2.5403	31.8195
2.5329	31.6147
2.5255	35.6008
2.5181	39.4567
2.5108	41.6583
2.5035	42.6263
2.4963	43.6973
2.4891	44.8795
2.482	47.1292
2.4749	50.8733
2.4678	55.4886
2.4608	60.0051
2.4538	63.875
2.4468	66.6773
2.4399	69.4933
2.4331	72.1164
2.4262	74.561
2.4194	76.6992
2.4127	78.0118
2.4059	78.0627
2.3993	77.7596
2.3926	78.8275
2.386	78.3626
2.3795	76.3609
2.3729	73.2033
2.3664	68.2681
2.36	60.6874
2.3535	53.3566
2.3471	48.4589
2.3408	46.4151
2.3345	47.2509
2.3282	50.0468
2.3219	53.0654
2.3157	55.22
2.3095	56.3189
2.3034	57.231
2.2972	58.2845
2.2911	59.9479
2.2851	62.2158
2.279	65.1085
2.2731	68.1397
2.2671	70.5226
2.2612	72.7266
2.2553	74.8623
2.2494	76.6494
2.2435	78.2085
2.2377	79.7212
2.232	81.0545
2.2262	82.4112
2.2205	83.5214
2.2148	84.5188
2.2091	85.2182
2.2035	86.061
2.1979	86.3939
2.1923	86.6323
2.1868	86.761
2.1812	86.2216
2.1758	85.637
2.1703	84.5632
2.1649	83.7273
2.1595	83.3793
2.1541	83.092
2.1487	83.655
2.1434	85.3045
2.1381	86.8171
2.1328	87.6538
2.1275	88.2118
2.1223	88.8755
2.1171	89.0271
2.112	89.5754
2.1068	89.8256
2.1017	90.6232
2.0966	90.6943
2.0915	91.0829
2.0865	91.0985
2.0814	91.5418
2.0764	91.4052
2.0715	91.6967
2.0665	92.0054
2.0616	91.4927
2.0567	91.761
2.0518	91.5337
2.0469	91.6298
2.0421	91.6138
2.0373	91.1444
2.0325	90.6774
2.0277	90.4227
2.0229	89.8472
2.0182	89.4378
2.0135	88.5033
2.0088	87.5219
2.0042	85.5661
