Name: Sphalerite (Zn,Fe)S
Type: Mineral
Class: Sulfide
Subclass: None
Particle Size: Medium
Sample No.: S-1A
Owner: JPL
Wavelength Range: TIR
Origin: USA, Oklahoma, Ottawa County, Picher
Description: Particle size was 45-125um.Collected by JPL Original ASTER Spectral Library name was jpl.nicolet.mineral.sulfide.none.medium.s01a.spectrum.txt
Measurement: Hemispherical reflectance
X Units: Wavelength (micrometers)
Y Units: Reflectance (percent)
wavelength	value
15.3853	27.0514
15.1161	31.4759
14.8563	27.1783
14.6052	35.1802
14.3624	39.3778
14.1276	42.9303
13.9004	43.9216
13.6803	45.2108
13.4671	46.3975
13.2604	46.8988
13.06	47.2759
12.8656	47.697
12.6769	47.935
12.4936	48.571
12.3155	49.4636
12.1425	50.3706
11.9742	50.9636
11.8106	51.1782
11.6513	51.2651
11.4963	50.9569
11.3454	51.0542
11.1983	50.9237
11.0551	50.896
10.9154	50.7414
10.7793	50.7813
10.6465	50.5785
10.5169	50.3349
10.3904	49.8941
10.267	49.6639
10.1464	49.3583
10.0287	49.3415
9.9136	49.3184
9.8012	49.3484
9.6913	49.4716
9.5838	49.3988
9.4787	49.2378
9.3758	49.4317
9.2752	49.5867
9.1767	49.3536
9.0803	49.6573
8.9858	49.7144
8.8934	49.9755
8.8028	50.258
8.714	50.6917
8.627	51.1154
8.5417	51.3081
8.4581	51.4557
8.3761	51.9786
8.2957	52.4704
8.2169	53.1442
8.1395	53.8262
8.0635	54.4321
7.989	54.6592
7.9158	55.0815
7.8439	55.172
7.7734	55.2891
7.7041	55.3505
7.636	55.3334
7.5691	55.5535
7.5034	55.5277
7.4388	55.6484
7.3753	55.6783
7.3129	55.4261
7.2515	55.3522
7.1912	55.4223
7.1318	55.2601
7.0734	55.1868
7.016	54.9321
6.9595	55.207
6.9039	54.9728
6.8492	55.1469
6.7953	55.2454
6.7423	55.1097
6.6901	55.3091
6.6387	55.5812
6.5881	55.2455
6.5382	54.7416
6.4892	54.7369
6.4408	54.0949
6.3931	54.0672
6.3462	54.3979
6.2999	53.9382
6.2543	54.061
6.2094	54.136
6.1651	54.1817
6.1214	54.1393
6.0784	54.236
6.0359	54.1641
5.994	54.2506
5.9527	54.3087
5.912	54.3891
5.8718	54.3991
5.8322	54.4362
5.7931	54.3054
5.7545	54.3457
5.7165	54.4187
5.6789	54.5253
5.6418	54.6462
5.6052	54.3127
5.5691	54.2742
5.5334	54.2346
5.4982	54.2801
5.4635	54.3285
5.4291	54.269
5.3952	54.1464
5.3618	54.0468
5.3287	53.8989
5.2961	53.9445
5.2638	53.8267
5.2319	53.6388
5.2004	53.5485
5.1693	53.4614
5.1386	53.2835
5.1082	53.0635
5.0782	52.8991
5.0485	52.6373
5.0192	52.3996
4.9902	52.1505
4.9616	51.8889
4.9332	51.5505
4.9052	51.1757
4.8776	50.7973
4.8502	50.4149
4.8231	49.948
4.7963	49.4401
4.7699	48.8558
4.7437	48.3017
4.7178	47.6938
4.6922	47.0443
4.6668	46.3644
4.6418	45.5485
4.617	44.7984
4.5924	43.9618
4.5681	43.2164
4.5441	42.2963
4.5203	41.4921
4.4968	40.3961
4.4735	39.4868
4.4505	38.4847
4.4277	37.5132
4.4051	36.4993
4.3828	35.45
4.3607	34.4796
4.3388	33.5045
4.3171	32.4441
4.2956	31.4518
4.2744	30.5045
4.2534	29.5132
4.2325	28.5156
4.2119	27.4101
4.1915	26.4145
4.1712	25.5037
4.1512	24.5586
4.1313	23.767
4.1117	22.875
4.0922	22.1121
4.0729	21.3038
4.0538	20.404
4.0349	19.712
4.0161	18.9527
3.9976	18.3304
3.9792	17.6203
3.9609	17.0754
3.9428	16.5717
3.9249	15.9697
3.9072	15.2391
3.8896	14.8988
3.8722	14.2982
3.8549	13.8946
3.8378	13.4088
3.8208	12.863
3.804	12.5704
3.7873	12.2311
3.7708	11.7854
3.7544	11.4661
3.7382	11.1231
3.7221	10.9032
3.7061	10.5204
3.6903	10.3319
3.6746	10.144
3.659	9.7814
3.6436	9.7917
3.6283	9.4607
3.6131	9.239
3.5981	9.0572
3.5832	9.0215
3.5684	8.7551
3.5537	8.7865
3.5391	8.7841
3.5247	8.6852
3.5104	8.6046
3.4962	8.518
3.4821	8.5903
3.4681	8.4325
3.4543	8.579
3.4405	8.5861
3.4269	8.4485
3.4133	8.4591
3.3999	8.4009
3.3866	8.5445
3.3733	8.3669
3.3602	8.3692
3.3472	8.3242
3.3343	8.3697
3.3215	8.2589
3.3088	8.256
3.2961	8.2752
3.2836	8.1945
3.2712	8.2666
3.2588	8.2773
3.2466	8.2213
3.2345	8.2469
3.2224	8.1449
3.2104	8.0874
3.1985	8.1618
3.1867	8.0799
3.175	8.1727
3.1634	8.1024
3.1519	8.0721
3.1404	8.0682
3.129	7.9953
3.1178	8.1003
3.1065	8.1804
3.0954	7.9678
3.0844	8.075
3.0734	7.9925
3.0625	7.9034
3.0517	7.9034
3.041	7.8366
3.0303	7.9672
3.0197	7.8813
3.0092	7.8137
2.9987	7.7555
2.9884	7.8841
2.9781	7.6431
2.9678	7.6797
2.9577	7.782
2.9476	7.6034
2.9376	7.4853
2.9276	7.4965
2.9177	7.3982
2.9079	7.447
2.8982	7.5682
2.8885	7.2599
2.8789	7.4137
2.8693	7.595
2.8598	7.5109
2.8504	7.4184
2.841	7.5398
2.8317	7.354
2.8224	7.3598
2.8133	7.1776
2.8041	7.5309
2.7951	7.4863
2.786	7.3587
2.7771	7.3572
2.7682	7.3321
2.7594	7.328
2.7506	7.6171
2.7418	7.6138
2.7332	7.3826
2.7246	7.3482
2.716	7.3461
2.7075	7.5033
2.699	7.504
2.6906	7.3828
2.6823	7.3731
2.674	7.4061
2.6657	7.6209
2.6575	7.5835
2.6494	7.6228
2.6413	7.5869
2.6332	7.604
2.6252	7.3971
2.6173	7.6506
2.6094	7.5039
2.6015	7.5062
2.5937	7.7736
2.5859	7.5861
2.5782	7.5685
2.5706	7.813
2.5629	7.6086
2.5554	7.8747
2.5478	7.7116
2.5403	7.8477
2.5329	7.805
2.5255	7.86
2.5181	7.8958
2.5108	8.0221
2.5035	7.9731
2.4963	8.1996
2.4891	8.0809
2.482	8.3011
2.4749	8.1655
2.4678	8.2747
2.4608	8.5519
2.4538	8.6185
2.4468	8.3484
2.4399	8.5887
2.4331	8.6185
2.4262	8.7182
2.4194	8.9379
2.4127	9.1188
2.4059	8.9653
2.3993	9.3629
2.3926	9.4474
2.386	9.373
2.3795	9.4848
2.3729	9.949
2.3664	10.0086
2.36	10.0755
2.3535	10.3531
2.3471	10.3489
2.3408	10.555
2.3345	10.8223
2.3282	10.6323
2.3219	11.1739
2.3157	11.5235
2.3095	11.5441
2.3034	11.7406
2.2972	11.9877
2.2911	12.0715
2.2851	12.4601
2.279	12.8473
2.2731	12.9315
2.2671	13.238
2.2612	13.7538
2.2553	13.8087
2.2494	14.1488
2.2435	14.5189
2.2377	14.8732
2.232	15.0238
2.2262	15.7135
2.2205	15.8098
2.2148	16.4344
2.2091	16.7554
2.2035	17.1994
2.1979	17.3575
2.1923	17.8303
2.1868	18.2069
2.1812	18.4382
2.1758	19.3056
2.1703	19.3867
2.1649	19.99
2.1595	20.4526
2.1541	20.777
2.1487	21.4574
2.1434	21.9141
2.1381	22.4519
2.1328	22.8286
2.1275	23.6916
2.1223	24.1499
2.1171	24.6848
2.112	25.0374
2.1068	25.8913
2.1017	26.1589
2.0966	26.7719
2.0915	27.4068
2.0865	28.0941
2.0814	28.46
2.0764	29.2908
2.0715	29.2772
2.0665	30.346
2.0616	30.9274
2.0567	31.2913
2.0518	32.2099
2.0469	32.6146
2.0421	33.3833
2.0373	33.5639
2.0325	34.2295
2.0277	34.7757
2.0229	35.4595
2.0182	35.9349
2.0135	36.1844
2.0088	36.9762
2.0042	37.5858
