Name: Fluorite CaF_2
Type: Mineral
Class: Halide
Subclass: None
Particle Size: Fine
Sample No.: H-2B
Owner: JPL
Wavelength Range: TIR
Origin: United Kingdom, England, Durham County, Weardal
Description: Particle size was 0-45um.Collected by Ward's Original ASTER Spectral Library name was jpl.nicolet.mineral.halide.none.fine.h02b.spectrum.txt
Measurement: Hemispherical reflectance
X Units: Wavelength (micrometers)
Y Units: Reflectance (percent)
wavelength	value
15.3853	2.8209
15.1161	3.9448
14.8563	4.0338
14.6052	4.9524
14.3624	4.4569
14.1276	5.692
13.9004	6.1941
13.6803	7.2184
13.4671	8.6615
13.2604	9.9209
13.06	10.6103
12.8656	10.7047
12.6769	11.7488
12.4936	12.8605
12.3155	15.9318
12.1425	19.2788
11.9742	22.0207
11.8106	23.656
11.6513	25.446
11.4963	23.7796
11.3454	21.9877
11.1983	28.9987
11.0551	30.1833
10.9154	31.0778
10.7793	31.8455
10.6465	32.199
10.5169	32.5505
10.3904	32.3869
10.267	32.1598
10.1464	31.2852
10.0287	30.4915
9.9136	29.9835
9.8012	29.2531
9.6913	28.5107
9.5838	27.7512
9.4787	27.4741
9.3758	29.2702
9.2752	30.0277
9.1767	28.8272
9.0803	28.7073
8.9858	28.8229
8.8934	29.2413
8.8028	29.7352
8.714	30.6743
8.627	30.9127
8.5417	33.5782
8.4581	35.0287
8.3761	36.15
8.2957	37.7228
8.2169	40.6751
8.1395	42.2496
8.0635	42.8981
7.989	43.7589
7.9158	44.5782
7.8439	45.1054
7.7734	45.7095
7.7041	46.1385
7.636	46.2289
7.5691	45.8981
7.5034	46.426
7.4388	46.0466
7.3753	45.0997
7.3129	43.0584
7.2515	40.1524
7.1912	36.7902
7.1318	33.7176
7.0734	32.727
7.016	32.1105
6.9595	32.8836
6.9039	32.4837
6.8492	32.7356
6.7953	33.4866
6.7423	32.9227
6.6901	33.761
6.6387	36.6672
6.5881	37.7214
6.5382	40.5738
6.4892	46.7864
6.4408	46.3181
6.3931	47.0929
6.3462	48.7247
6.2999	46.5068
6.2543	46.2519
6.2094	46.4288
6.1651	46.9345
6.1214	47.9633
6.0784	48.8905
6.0359	48.932
5.994	50.327
5.9527	50.1407
5.912	50.6414
5.8718	52.4139
5.8322	53.7159
5.7931	53.6232
5.7545	54.5808
5.7165	55.3989
5.6789	54.9969
5.6418	55.733
5.6052	53.6442
5.5691	51.8796
5.5334	53.6782
5.4982	54.5977
5.4635	55.6387
5.4291	55.2135
5.3952	54.1747
5.3618	53.377
5.3287	53.331
5.2961	53.8265
5.2638	54.1694
5.2319	55.0236
5.2004	55.5396
5.1693	55.3834
5.1386	55.3878
5.1082	55.2931
5.0782	55.153
5.0485	55.0779
5.0192	55.1678
4.9902	55.1364
4.9616	55.5305
4.9332	55.8016
4.9052	56.0792
4.8776	56.2662
4.8502	56.4006
4.8231	56.5709
4.7963	56.6026
4.7699	56.5403
4.7437	56.5406
4.7178	56.6104
4.6922	56.5847
4.6668	56.5832
4.6418	56.6839
4.617	56.6965
4.5924	56.848
4.5681	56.8415
4.5441	56.8845
4.5203	56.9274
4.4968	56.8414
4.4735	56.8973
4.4505	56.946
4.4277	57.083
4.4051	57.1064
4.3828	57.1858
4.3607	57.1943
4.3388	57.3017
4.3171	57.509
4.2956	57.7932
4.2744	57.7949
4.2534	57.6132
4.2325	58.2045
4.2119	57.7779
4.1915	57.461
4.1712	57.5648
4.1512	57.6429
4.1313	57.5565
4.1117	57.5217
4.0922	57.548
4.0729	57.4652
4.0538	57.4127
4.0349	57.2366
4.0161	56.9224
3.9976	56.3268
3.9792	55.8384
3.9609	56.0469
3.9428	56.732
3.9249	57.0638
3.9072	57.1287
3.8896	57.1932
3.8722	57.2366
3.8549	57.2333
3.8378	57.3014
3.8208	57.4415
3.804	57.6663
3.7873	57.827
3.7708	57.7866
3.7544	57.8692
3.7382	57.8245
3.7221	57.8524
3.7061	57.6819
3.6903	57.7976
3.6746	57.7714
3.659	57.7803
3.6436	57.7088
3.6283	57.726
3.6131	57.7372
3.5981	57.5957
3.5832	57.6558
3.5684	57.5193
3.5537	57.4999
3.5391	57.2585
3.5247	57.0524
3.5104	56.8024
3.4962	56.4158
3.4821	56.2059
3.4681	56.2921
3.4543	56.3591
3.4405	56.4021
3.4269	56.1997
3.4133	55.9469
3.3999	55.914
3.3866	56.0523
3.3733	55.8297
3.3602	55.8813
3.3472	55.9005
3.3343	56.1671
3.3215	56.1985
3.3088	56.0633
3.2961	56.0638
3.2836	55.9119
3.2712	55.7163
3.2588	55.5969
3.2466	55.3466
3.2345	55.1045
3.2224	54.9416
3.2104	54.6912
3.1985	54.4321
3.1867	53.9318
3.175	53.8116
3.1634	53.3276
3.1519	53.0927
3.1404	52.7531
3.129	52.4278
3.1178	52.0984
3.1065	51.6927
3.0954	51.3821
3.0844	51.155
3.0734	51.068
3.0625	50.6921
3.0517	50.5145
3.041	50.279
3.0303	50.0599
3.0197	49.7535
3.0092	49.4655
2.9987	49.2561
2.9884	49.0363
2.9781	48.7137
2.9678	48.449
2.9577	48.3494
2.9476	48.3138
2.9376	48.2398
2.9276	48.234
2.9177	48.4641
2.9079	48.5071
2.8982	48.83
2.8885	49.0902
2.8789	49.1536
2.8693	49.143
2.8598	49.901
2.8504	50.4553
2.841	50.864
2.8317	51.4831
2.8224	51.9927
2.8133	52.6004
2.8041	53.6678
2.7951	53.6535
2.786	54.9045
2.7771	54.8303
2.7682	56.0274
2.7594	56.0434
2.7506	56.66
2.7418	58.7707
2.7332	58.0108
2.7246	60.1701
2.716	58.7554
2.7075	59.1848
2.699	59.2325
2.6906	59.3327
2.6823	59.8387
2.674	60.0676
2.6657	62.3912
2.6575	59.6695
2.6494	59.5919
2.6413	59.8171
2.6332	60.2142
2.6252	60.1729
2.6173	61.4834
2.6094	60.5573
2.6015	60.3028
2.5937	62.3389
2.5859	60.4882
2.5782	60.1222
2.5706	60.4127
2.5629	61.0296
2.5554	59.8129
2.5478	60.0424
2.5403	59.7752
2.5329	59.9509
2.5255	59.8518
2.5181	59.8064
2.5108	59.8349
2.5035	59.7961
2.4963	59.9181
2.4891	59.8833
2.482	59.8766
2.4749	59.8398
2.4678	59.9384
2.4608	59.9222
2.4538	59.9129
2.4468	59.9223
2.4399	59.9255
2.4331	59.8586
2.4262	59.9561
2.4194	59.889
2.4127	60.042
2.4059	59.9932
2.3993	60.1209
2.3926	60.0447
2.386	60.1599
2.3795	60.127
2.3729	59.9449
2.3664	60.1681
2.36	60.1698
2.3535	60.1172
2.3471	60.1658
2.3408	60.286
2.3345	60.308
2.3282	60.2118
2.3219	60.1492
2.3157	60.4371
2.3095	60.1623
2.3034	60.0865
2.2972	60.2297
2.2911	60.3121
2.2851	60.2081
2.279	60.1408
2.2731	60.4207
2.2671	60.2247
2.2612	60.2601
2.2553	60.3275
2.2494	60.2185
2.2435	60.4148
2.2377	60.2708
2.232	60.3538
2.2262	60.2708
2.2205	60.1804
2.2148	60.4454
2.2091	60.2622
2.2035	60.502
2.1979	60.3756
2.1923	60.5095
2.1868	60.5757
2.1812	60.6129
2.1758	60.5367
2.1703	60.4144
2.1649	60.3342
2.1595	60.3627
2.1541	60.5056
2.1487	60.4999
2.1434	60.3636
2.1381	60.3776
2.1328	60.2974
2.1275	60.5691
2.1223	60.4925
2.1171	60.3684
2.112	60.4113
2.1068	60.4869
2.1017	60.5246
2.0966	60.463
2.0915	60.7141
2.0865	60.7833
2.0814	60.3573
2.0764	60.4507
2.0715	60.7218
2.0665	60.8194
2.0616	60.5376
2.0567	60.447
2.0518	60.6201
2.0469	60.4174
2.0421	60.6163
2.0373	60.4568
2.0325	60.5228
2.0277	60.6854
2.0229	60.5078
2.0182	60.5498
2.0135	60.6186
2.0088	60.6115
2.0042	60.6575
