Name: Kaolinite Al_2Si_2O_5(OH)_4
Type: Mineral
Class: Silicate
Subclass: Phyllosilicate
Particle Size: Fine
Sample No.: PS-1B
Owner: JPL
Wavelength Range: VSWIR
Origin: USA, Georgia, Warren County.
Description: Disordered kaolinite.Particle size was 0-45um.Collected by:  Clay Mineral Society Original ASTER Spectral Library name was jpl.perkin.mineral.silicate.phyllosilicate.fine.ps01b.spectrum.txt
Measurement: Hemispherical reflectance
X Units: Wavelength (micrometers)
Y Units: Reflectance (percent)
wavelength	value
2.5	35.9453
2.494	35.8852
2.488	36.473
2.482	37.1435
2.476	37.8324
2.47	38.5181
2.464	39.1315
2.458	39.5803
2.452	39.9573
2.446	40.4915
2.44	41.2579
2.434	42.2997
2.428	43.5762
2.422	44.5994
2.416	45.4267
2.41	45.9566
2.404	46.1178
2.398	45.7151
2.392	45.076
2.386	44.5001
2.38	44.5568
2.374	45.2516
2.368	46.2295
2.362	46.8767
2.356	47.3124
2.35	48.0544
2.344	49.0964
2.338	49.9515
2.332	50.3137
2.326	50.3764
2.32	50.3521
2.314	50.8582
2.308	51.5643
2.302	52.5969
2.296	53.7196
2.29	54.6457
2.284	55.5475
2.278	56.4879
2.272	57.2946
2.266	57.9963
2.26	58.5558
2.254	58.9201
2.248	59.1121
2.242	58.7683
2.236	58.7232
2.23	58.5131
2.224	56.586
2.218	51.449
2.212	43.8869
2.206	40.5401
2.2	43.9611
2.194	47.1667
2.188	48.4155
2.182	49.2018
2.176	49.4564
2.17	49.4495
2.164	49.7838
2.158	51.1632
2.152	54.0298
2.146	58.4091
2.14	62.5271
2.134	65.3474
2.128	66.8545
2.122	67.5336
2.116	67.676
2.11	68.3477
2.104	69.4119
2.098	70.096
2.092	70.4797
2.086	71.0779
2.08	71.8646
2.074	72.4916
2.068	73.1386
2.062	73.6407
2.056	74.1548
2.05	74.4834
2.044	74.7675
2.038	74.9799
2.032	75.158
2.026	75.2852
2.02	75.3401
2.014	75.4424
2.008	75.324
2.002	75.2603
1.996	75.1636
1.99	75.0447
1.984	74.8791
1.978	74.5092
1.972	74.2918
1.966	73.9742
1.96	73.845
1.954	73.4494
1.948	73.2517
1.942	72.9992
1.936	72.8267
1.93	72.66
1.924	72.3627
1.918	72.3911
1.912	72.5075
1.906	73.3942
1.9	74.9396
1.894	76.5994
1.888	77.7948
1.882	78.5809
1.876	79.7977
1.87	81.5068
1.864	82.4441
1.858	82.8397
1.852	82.6899
1.846	81.9469
1.84	82.1238
1.834	82.5245
1.828	82.4908
1.822	82.352
1.816	82.4901
1.81	82.7764
1.804	82.9718
1.798	83.1012
1.792	83.2792
1.786	83.6914
1.78	84.0789
1.774	84.3832
1.768	84.6919
1.762	84.9054
1.756	85.1924
1.75	85.3365
1.744	85.4532
1.738	85.6441
1.732	85.8484
1.726	85.9532
1.72	86.1321
1.714	86.2712
1.708	86.2603
1.702	86.4072
1.696	86.4486
1.69	86.6105
1.684	86.6944
1.678	86.7344
1.672	86.7918
1.666	86.8499
1.66	86.9192
1.654	86.9803
1.648	86.999
1.642	87.0624
1.636	87.1321
1.63	87.1021
1.624	87.1298
1.618	87.058
1.612	87.264
1.606	87.1954
1.6	87.2211
1.594	87.1848
1.588	87.1916
1.582	87.1338
1.576	87.0612
1.57	87.03
1.564	86.9749
1.558	86.9873
1.552	86.8668
1.546	86.8309
1.54	86.7049
1.534	86.6261
1.528	86.5853
1.522	86.4901
1.516	86.3954
1.51	86.1948
1.504	85.8835
1.498	85.2647
1.492	85.4505
1.486	85.4744
1.48	85.2585
1.474	85.0031
1.468	84.6858
1.462	84.487
1.456	84.0564
1.45	83.5445
1.444	83.1904
1.438	82.435
1.432	81.0133
1.426	77.5659
1.42	69.3777
1.414	59.262
1.408	68.3266
1.402	67.373
1.396	65.5651
1.39	67.9656
1.384	71.7042
1.378	75.7518
1.372	78.5695
1.366	79.5185
1.36	79.583
1.354	80.4723
1.348	82.8099
1.342	83.1737
1.336	83.2768
1.33	83.3841
1.324	83.7921
1.318	84.1538
1.312	84.3609
1.306	84.6915
1.3	85.4681
1.294	86.0486
1.288	86.9004
1.282	87.6038
1.276	87.9323
1.27	88.0128
1.264	88.0508
1.258	87.8305
1.252	87.7978
1.246	87.4889
1.24	87.2751
1.234	87.4882
1.228	88.0247
1.222	88.3203
1.216	88.502
1.21	88.5611
1.204	88.5735
1.198	88.6029
1.192	88.6652
1.186	88.665
1.18	88.62
1.174	88.6276
1.168	88.5384
1.162	88.559
1.156	88.4926
1.15	88.5351
1.144	88.5047
1.138	88.5308
1.132	88.492
1.126	88.4023
1.12	88.3755
1.114	88.3953
1.108	88.1766
1.102	88.1469
1.096	88.1706
1.09	88.1149
1.084	88.0106
1.078	87.9226
1.072	87.8027
1.066	87.7234
1.06	87.6552
1.054	87.5859
1.048	87.5265
1.042	87.5245
1.036	87.4127
1.03	87.3357
1.024	87.2048
1.018	87.0826
1.012	87.0858
1.006	87.0077
1	86.9269
0.994	86.8669
0.988	86.7413
0.982	86.6119
0.976	86.3959
0.97	85.3121
0.964	85.4238
0.958	85.6529
0.952	85.4868
0.946	85.7442
0.94	85.9529
0.934	86.1116
0.928	85.976
0.922	86.0307
0.916	85.9259
0.91	85.9864
0.904	86.0263
0.898	85.9527
0.892	85.8882
0.886	85.9032
0.88	85.89
0.874	85.7733
0.868	85.7534
0.862	85.7226
0.856	85.3965
0.85	85.3963
0.844	85.2887
0.838	85.2295
0.832	85.237
0.826	85.2714
0.82	85.2495
0.814	85.1859
0.808	85.1269
0.802	85.0738
0.796	84.9318
0.79	84.8438
0.784	84.8172
0.778	84.7066
0.772	84.5956
0.766	84.4654
0.76	84.3702
0.754	84.2303
0.748	84.0579
0.742	83.9203
0.736	83.9345
0.73	83.7421
0.724	83.5615
0.718	83.3694
0.712	83.2072
0.706	83.0133
0.7	82.8907
0.694	82.7435
0.688	82.6263
0.682	82.4647
0.676	82.3308
0.67	82.1893
0.664	82.0366
0.658	81.8928
0.652	81.7474
0.646	81.5954
0.64	81.4481
0.634	81.2915
0.628	81.0785
0.622	80.9023
0.616	80.6688
0.61	80.4256
0.604	80.1384
0.598	79.8389
0.592	79.4823
0.586	79.0257
0.58	78.4978
0.574	77.8678
0.568	77.1543
0.562	76.3597
0.556	75.4612
0.55	74.4505
0.544	73.3538
0.538	72.1345
0.532	70.8564
0.526	69.5329
0.52	68.1697
0.514	66.8332
0.508	65.5235
0.502	64.2519
0.496	63.047
0.49	61.9556
0.484	61.0216
0.478	60.1454
0.472	59.3825
0.466	58.7058
0.46	58.0288
0.454	57.3225
0.448	56.3594
0.442	55.0345
0.436	53.4462
0.43	51.831
0.424	50.3787
0.418	49.0183
0.412	47.7287
0.406	46.4269
0.4	45.0108
