Name: Hornblende Ca2(Fe+2,Mg)4Al(Si7Al)O22(OH,F)2
Type: Mineral
Class: Silicate
Subclass: Inosilicate
Particle Size: Coarse
Sample No.: hornblen_3
Owner: JHU
Wavelength Range: TIR
Origin: Calumet Island, Ottowa River, Canada via the Smithsaonian(sample no. NMNH 78662)
Description: Sample was a cluster of several large, deep green crystals. A small amount of contamination was found in thin veins along cleavage planes. Microscopic examination revealed newr purity with less than 1% impurities of low index veins. An index of refraction of <1.64 and pleochroism (green to greenish brown) indicated that this is probably magnesian hornblende. Particle size was 75-250 micrometers. (Amphibole Group) Original ASTER Spectral Library name was jhu.nicolet.mineral.silicate.inosilicate.coarse.hornbl3.spectrum.txt
Measurement: Bidirectional reflectance
X Units: Wavelength (micrometers)
Y Units: Reflectance (percent)
wavelength	value
25.044	4.5586
24.339	4.5513
23.672	4.9787
23.041	5.8384
22.442	7.7563
21.874	8.217
21.334	7.6941
20.82	7.789
20.33	7.2866
19.863	7.8747
19.416	8.7058
18.99	9.7727
18.581	9.6736
18.19	8.4829
17.815	8.716
17.455	7.1401
17.109	4.5781
16.777	2.2168
16.458	1.0115
16.15	1.0898
15.854	1.2964
15.568	1.5659
15.292	1.5352
15.027	1.6614
14.77	1.9287
14.521	2.3206
14.281	1.6602
14.049	1.5322
13.824	1.6621
13.607	1.7715
13.396	2.1416
13.191	3.0945
12.993	1.6091
12.8	1.3806
12.614	1.6123
12.432	1.7466
12.256	1.8262
12.084	1.9629
11.918	2.051
11.755	2.1306
11.598	2.2683
11.444	2.4341
11.294	2.6479
11.149	2.9109
11.007	3.3745
10.868	3.8176
10.733	3.2659
10.602	4.4629
10.473	5.8132
10.348	6.4529
10.225	7.1799
10.106	8.4026
9.9887	8.4482
9.8746	7.7383
9.763	5.5076
9.6539	5.7356
9.5472	5.3171
9.4429	5.467
9.3408	6.0019
9.2409	6.6289
9.1431	6.0642
9.0474	5.0671
8.9536	5.0488
8.8618	5.3515
8.7718	6.1428
8.6837	5.9026
8.5973	4.3061
8.5126	2.7375
8.4295	1.8057
8.3481	1.0937
8.2682	0.6208
8.1898	0.4707
8.1129	0.5027
8.0374	0.5977
7.9634	0.7026
7.8906	0.7888
7.8192	0.8496
7.7491	0.9197
7.6802	1.0112
7.6126	1.114
7.5461	1.1531
7.4807	1.146
7.4165	1.175
7.3534	1.2368
7.2914	1.3599
7.2303	1.4995
7.1703	1.6084
7.1113	1.7407
7.0533	1.8643
6.9962	2.0066
6.94	2.147
6.8847	2.2068
6.8302	2.272
6.7767	2.3645
6.7239	2.4651
6.672	2.6006
6.6209	2.7937
6.5705	2.9905
6.5209	2.9377
6.4721	2.7737
6.424	2.5923
6.3766	2.3843
6.3299	2.115
6.2838	1.8708
6.2385	1.7144
6.1937	1.6462
6.1496	1.6623
6.1062	1.7212
6.0633	1.8638
6.0211	2.0132
5.9794	1.8784
5.9383	1.7268
5.8978	1.7742
5.8578	1.9519
5.8184	2.0859
5.7794	2.1858
5.741	2.3147
5.7031	2.3186
5.6657	2.2844
5.6288	2.3235
5.5924	2.4331
5.5564	2.5513
5.5209	2.6511
5.4859	2.564
5.4513	2.5815
5.4171	2.8442
5.3833	2.9243
5.35	2.8396
5.3171	2.8992
5.2846	3.0915
5.2524	3.1575
5.2207	3.5708
5.1893	3.5837
5.1584	3.2488
5.1277	3.1328
5.0975	3.2187
5.0676	3.2998
5.038	3.4448
5.0088	3.6782
4.98	3.8967
4.9514	4.1028
4.9232	4.3718
4.8953	4.5688
4.8678	4.6638
4.8405	4.7056
4.8135	4.6924
4.7868	4.9919
4.7605	5.5327
4.7344	5.988
4.7086	6.2395
4.6831	6.6067
4.6578	7.0395
4.6328	7.4868
4.6081	7.9565
4.5837	8.2829
4.5595	8.7048
4.5356	9.0791
4.5119	9.3708
4.4884	9.6479
4.4652	9.8645
4.4423	10.016
4.4196	10.14
4.3971	10.24
4.3748	10.304
4.3528	10.332
4.331	10.375
4.3094	10.409
4.288	10.465
4.2668	10.502
4.2458	10.536
4.2251	10.571
4.2045	10.601
4.1841	10.628
4.164	10.655
4.144	10.683
4.1242	10.724
4.1046	10.77
4.0852	10.828
4.066	10.876
4.047	10.91
4.0281	10.945
4.0094	10.971
3.9909	10.989
3.9725	11.011
3.9544	11.046
3.9363	11.076
3.9185	11.127
3.9008	11.166
3.8833	11.197
3.8659	11.22
3.8487	11.217
3.8316	11.222
3.8147	11.226
3.7979	11.233
3.7813	11.245
3.7648	11.258
3.7485	11.265
3.7323	11.278
3.7162	11.244
3.7003	11.201
3.6845	11.216
3.6689	11.206
3.6534	11.192
3.638	11.191
3.6227	11.182
3.6076	11.163
3.5926	11.14
3.5777	11.106
3.563	11.063
3.5484	10.993
3.5338	10.927
3.5195	10.848
3.5052	10.712
3.491	10.676
3.477	10.627
3.463	10.587
3.4492	10.482
3.4355	10.358
3.4219	10.123
3.4084	9.8862
3.395	9.7585
3.3817	9.5547
3.3685	9.3525
3.3554	9.0366
3.3425	8.9375
3.3296	9.1977
3.3168	9.2009
3.3041	9.2724
3.2915	9.5503
3.279	9.872
3.2666	9.9399
3.2543	9.8493
3.2421	9.7273
3.23	9.5881
3.218	9.4531
3.206	9.2458
3.1942	8.9792
3.1824	8.6758
3.1707	8.4763
3.1591	8.5158
3.1476	8.5383
3.1362	8.4712
3.1249	8.3152
3.1136	8.1594
3.1024	8.0542
3.0913	7.9128
3.0803	7.7966
3.0694	7.6523
3.0585	7.5293
3.0477	7.4016
3.037	7.2624
3.0264	7.1545
3.0158	7.0005
3.0053	6.8572
2.9949	6.7158
2.9845	6.6003
2.9743	6.469
2.9641	6.3677
2.9539	6.2991
2.9439	6.2229
2.9339	6.1599
2.9239	6.1238
2.9141	6.1106
2.9043	6.124
2.8946	6.154
2.8849	6.1982
2.8753	6.2168
2.8658	6.2182
2.8563	6.2524
2.8469	6.2485
2.8375	6.2246
2.8282	6.1775
2.819	6.1059
2.8098	6.0486
2.8007	5.9905
2.7917	5.9126
2.7827	5.6892
2.7738	4.9485
2.7649	4.1601
2.7561	3.3469
2.7473	2.4973
2.7386	2.2527
2.7299	1.9917
2.7213	1.8616
2.7128	5.0295
2.7043	5.6579
2.6959	6.5049
2.6875	7.9909
2.6791	9.3227
2.6709	9.9958
2.6626	10.1
2.6545	10.021
2.6463	9.9468
2.6382	9.8032
2.6302	9.7226
2.6222	9.6701
2.6143	9.6643
2.6064	9.5725
2.5986	9.5754
2.5908	9.5014
2.583	9.437
2.5753	9.3427
2.5677	9.1797
2.5601	9.2077
2.5525	9.3137
2.545	9.4033
2.5375	9.3667
2.5301	9.3091
2.5227	9.1987
2.5154	8.9829
2.5081	8.9768
2.5008	8.8789
2.4936	8.8115
2.4864	8.8061
2.4793	8.6733
2.4722	8.6958
2.4651	8.6025
2.4581	8.5893
2.4511	8.7466
2.4442	8.7368
2.4373	8.9001
2.4305	8.9624
2.4236	8.8086
2.4169	8.5737
2.4101	8.5581
2.4034	8.1128
2.3967	7.3388
2.3901	6.7998
2.3835	6.8149
2.377	7.6714
2.3704	8.4131
2.364	8.7846
2.3575	8.9638
2.3511	9.0168
2.3447	8.9182
2.3384	8.4678
2.3321	7.5307
2.3258	6.458
2.3195	5.7324
2.3133	5.7529
2.3071	6.0488
2.301	6.0713
2.2949	6.3716
2.2888	7.3288
2.2828	7.7497
2.2767	8.2505
2.2708	8.7368
2.2648	9.1494
2.2589	9.3193
2.253	9.3052
2.2471	9.29
2.2413	9.5112
2.2355	9.6394
2.2297	9.7143
2.224	9.7055
2.2183	9.7273
2.2126	9.7199
2.207	9.6982
2.2013	9.6831
2.1957	9.7055
2.1902	9.7024
2.1846	9.6885
2.1791	9.6482
2.1736	9.6611
2.1682	9.6877
2.1628	9.6953
2.1574	9.6135
2.152	9.6201
2.1466	9.5844
2.1413	9.549
2.136	9.5283
2.1308	9.4052
2.1255	9.468
2.1203	9.4621
2.1151	9.4367
2.11	9.4775
2.1048	9.6526
2.0997	9.7392
2.0946	9.8
2.0895	9.7632
2.0845	9.8569
2.0795	9.8218
