Name: Antlerite Cu_3(SO_4)(OH)_4
Type: Mineral
Class: Sulfate
Subclass: None
Particle Size: Fine
Sample No.: SO-11A
Owner: JPL
Wavelength Range: VSWIR
Origin: USA, Arizona, Greenlee County, Morenci
Description: Particle size was 0-45um.Collected by Burminco Original ASTER Spectral Library name was jpl.beckman.mineral.sulfate.none.fine.so11a.spectrum.txt
Measurement: Hemispherical reflectance
X Units: Wavelength (micrometers)
Y Units: Reflectance (percent)
wavelength	value
0.4	27.92
0.403	28.63
0.406	29.22
0.409	29.63
0.412	30.23
0.415	30.84
0.418	31.46
0.421	32.06
0.424	32.78
0.427	33.54
0.43	34.32
0.433	35.13
0.436	36.01
0.439	36.81
0.442	37.47
0.445	38.47
0.448	39.26
0.451	40.01
0.454	40.85
0.457	41.67
0.46	42.31
0.463	43.48
0.466	44.21
0.469	45.22
0.472	46.2
0.475	47.21
0.478	48.06
0.481	49.18
0.484	50.07
0.487	51.01
0.49	51.88
0.493	52.67
0.496	53.62
0.499	54.39
0.502	54.99
0.505	55.62
0.508	56.07
0.511	56.6
0.514	56.9
0.517	57.25
0.52	57.43
0.523	57.51
0.526	57.32
0.529	57.19
0.532	56.76
0.535	56.41
0.538	56.03
0.541	55.19
0.544	54.44
0.547	53.57
0.55	52.54
0.553	51.38
0.556	50.3
0.559	49.27
0.562	47.67
0.565	46.18
0.568	44.74
0.571	43.2
0.574	41.47
0.577	39.88
0.58	38.26
0.583	36.68
0.586	35.16
0.589	33.57
0.592	32.18
0.595	30.71
0.598	29.5
0.601	28.17
0.604	27.05
0.607	25.8
0.61	24.78
0.613	23.62
0.616	22.63
0.619	21.61
0.622	20.83
0.625	20.02
0.628	19.28
0.631	18.55
0.634	17.83
0.637	17.34
0.64	16.84
0.643	16.36
0.646	15.92
0.649	15.48
0.652	14.95
0.655	14.65
0.658	14.32
0.661	14.07
0.664	13.86
0.667	13.57
0.67	13.33
0.673	13.18
0.676	12.89
0.679	12.88
0.682	12.76
0.685	12.6
0.688	12.53
0.691	12.52
0.694	12.32
0.697	12.37
0.7	12.36
0.703	12.25
0.706	12.36
0.709	12.26
0.712	12.35
0.715	12.4
0.718	12.48
0.721	12.46
0.724	12.59
0.727	12.55
0.73	12.72
0.733	12.73
0.736	12.9
0.739	12.99
0.742	13.19
0.745	13.14
0.748	13.32
0.751	13.48
0.754	13.57
0.757	13.68
0.76	13.83
0.763	13.89
0.766	13.95
0.769	14.12
0.772	14.27
0.775	14.33
0.778	14.48
0.781	14.49
0.784	14.53
0.787	14.62
0.79	14.69
0.793	14.71
0.796	14.79
0.799	15.02
0.808	15.47
0.82	15.39
0.832	15.13
0.844	14.85
0.856	14.66
0.868	14.39
0.88	14.22
0.892	14.12
0.904	14.09
0.916	14.21
0.928	14.39
0.94	14.67
0.952	15.12
0.964	15.56
0.976	16.12
0.988	16.79
1	17.36
1.012	18.22
1.024	18.93
1.036	19.77
1.048	20.51
1.06	21.35
1.072	22.21
1.084	23.08
1.096	23.99
1.108	24.93
1.12	25.85
1.132	27.06
1.144	28.19
1.156	29.28
1.168	30.51
1.18	31.84
1.192	33.13
1.204	34.53
1.216	35.93
1.228	37.34
1.24	38.72
1.252	40.19
1.264	41.63
1.276	43.03
1.288	44.36
1.3	45.85
1.312	47.11
1.324	48.48
1.336	49.79
1.348	50.91
1.36	52.13
1.372	53.1
1.384	53.98
1.396	54.35
1.408	53.74
1.42	54.06
1.432	47.57
1.444	56.88
1.456	56.32
1.468	50.57
1.48	56.2
1.492	60.08
1.504	61.31
1.516	62.2
1.528	62.79
1.54	63.45
1.552	63.75
1.564	64.15
1.576	64.4
1.588	64.68
1.6	65
1.612	65.33
1.624	65.33
1.636	65.53
1.648	65.71
1.66	65.82
1.672	65.86
1.684	65.97
1.696	65.97
1.708	66.02
1.72	66.02
1.732	66.15
1.744	66.2
1.756	66.12
1.768	66.17
1.78	66.24
1.792	66.3
1.804	66.28
1.816	66.23
1.828	66.14
1.84	66.12
1.852	66.04
1.864	65.83
1.876	65.41
1.888	65.13
1.9	64.47
1.912	63.96
1.924	63.83
1.936	63.52
1.948	63.14
1.96	62.95
1.972	63.46
1.984	64.14
1.996	64.46
2.008	64.57
2.02	64.68
2.032	64.94
2.044	64.99
2.056	64.8
2.068	64.59
2.08	64.38
2.092	63.81
2.104	62.69
2.116	62.11
2.128	61.55
2.14	60.08
2.152	60.03
2.164	60.93
2.176	60.45
2.188	59.39
2.2	58.99
2.212	56.99
2.224	52.36
2.236	47.78
2.248	47.28
2.26	49.01
2.272	46.82
2.284	39.88
2.296	32.19
2.308	30.17
2.32	32.29
2.332	32.37
2.344	30.63
2.356	32.81
2.368	38.63
2.38	43.97
2.392	47.41
2.404	49.55
2.416	49.94
2.428	48.17
2.44	46.37
2.452	46.08
2.464	47.39
2.476	48.51
2.488	48.52
2.5	47.61
