Name: Microcline (Feldspar) (K,Na)AlSi_3O_8
Type: Mineral
Class: Silicate
Subclass: Tectosilicate
Particle Size: Fine
Sample No.: TS-17A
Owner: JPL
Wavelength Range: TIR
Description: Particle size was 0-45um.Collected by JPL Original ASTER Spectral Library name was jpl.nicolet.mineral.silicate.tectosilicate.fine.ts17a.spectrum.txt
Measurement: Hemispherical reflectance
X Units: Wavelength (micrometers)
Y Units: Reflectance (percent)
wavelength	value
15.3853	3.4019
15.1161	4.2303
14.8563	5.8153
14.6052	6.7207
14.3624	6.2158
14.1276	5.229
13.9004	3.7504
13.6803	3.0633
13.4671	3.0335
13.2604	3.6769
13.06	3.6452
12.8656	2.7735
12.6769	3.2827
12.4936	5.7455
12.3155	9.1349
12.1425	12.393
11.9742	13.7855
11.8106	14.3784
11.6513	14.9242
11.4963	13.5752
11.3454	12.8422
11.1983	13.0235
11.0551	11.5526
10.9154	10.9472
10.7793	10.1187
10.6465	9.1592
10.5169	8.2539
10.3904	7.3295
10.267	6.8627
10.1464	6.9388
10.0287	7.9635
9.9136	8.3619
9.8012	8.412
9.6913	8.0237
9.5838	7.9496
9.4787	8.3918
9.3758	7.6169
9.2752	8.3571
9.1767	8.2261
9.0803	7.0058
8.9858	6.2134
8.8934	6.781
8.8028	7.3277
8.714	8.2512
8.627	8.4916
8.5417	9.1101
8.4581	8.954
8.3761	8.816
8.2957	7.5594
8.2169	6.1428
8.1395	5.0507
8.0635	3.8262
7.989	3.4539
7.9158	3.1987
7.8439	3.3723
7.7734	3.3771
7.7041	3.8173
7.636	4.097
7.5691	4.4966
7.5034	5.1106
7.4388	5.5144
7.3753	5.8641
7.3129	5.9466
7.2515	6.1666
7.1912	6.3897
7.1318	6.9132
7.0734	7.4361
7.016	7.5171
6.9595	7.4785
6.9039	7.4372
6.8492	7.6322
6.7953	8.0901
6.7423	8.5664
6.6901	9.6341
6.6387	11.116
6.5881	12.1373
6.5382	13.3175
6.4892	15.0278
6.4408	15.2799
6.3931	15.0365
6.3462	14.8629
6.2999	14.0115
6.2543	13.7316
6.2094	13.698
6.1651	14.4625
6.1214	15.4085
6.0784	16.4688
6.0359	17.3125
5.994	17.9148
5.9527	17.9443
5.912	17.8921
5.8718	18.2387
5.8322	18.4447
5.7931	17.9669
5.7545	17.6765
5.7165	17.6018
5.6789	16.9452
5.6418	16.7503
5.6052	17.2848
5.5691	16.5888
5.5334	19.0784
5.4982	21.9217
5.4635	23.2845
5.4291	24.1008
5.3952	24.9387
5.3618	25.2459
5.3287	26.1918
5.2961	27.4632
5.2638	28.8193
5.2319	30.3019
5.2004	33.0406
5.1693	35.4279
5.1386	37.7727
5.1082	40.3068
5.0782	42.4846
5.0485	42.9026
5.0192	44.2934
4.9902	45.3156
4.9616	46.2434
4.9332	45.7793
4.9052	46.2295
4.8776	48.1169
4.8502	48.8586
4.8231	48.9641
4.7963	48.4424
4.7699	48.371
4.7437	49.2658
4.7178	49.2007
4.6922	48.5867
4.6668	48.7398
4.6418	49.7519
4.617	51.3217
4.5924	52.6181
4.5681	53.9564
4.5441	55.8266
4.5203	57.3363
4.4968	58.6368
4.4735	60.0197
4.4505	61.5061
4.4277	62.6086
4.4051	63.7175
4.3828	64.8862
4.3607	66.0061
4.3388	66.8637
4.3171	67.8026
4.2956	68.2302
4.2744	68.534
4.2534	69.4116
4.2325	70.1597
4.2119	71.1491
4.1915	71.563
4.1712	71.9508
4.1512	72.0484
4.1313	72.0329
4.1117	72.0128
4.0922	71.8615
4.0729	71.5014
4.0538	70.7273
4.0349	68.1557
4.0161	64.9582
3.9976	59.8949
3.9792	56.6133
3.9609	57.8829
3.9428	62.2528
3.9249	64.411
3.9072	65.3137
3.8896	65.9193
3.8722	66.1759
3.8549	66.7236
3.8378	67.6978
3.8208	69.4119
3.804	70.9081
3.7873	72.3659
3.7708	73.0551
3.7544	73.2045
3.7382	73.2567
3.7221	73.25
3.7061	73.2602
3.6903	73.065
3.6746	73.0644
3.659	72.8807
3.6436	72.7032
3.6283	72.4802
3.6131	72.1495
3.5981	71.8815
3.5832	71.2794
3.5684	70.6685
3.5537	70.0811
3.5391	69.0748
3.5247	66.9107
3.5104	63.4535
3.4962	61.6679
3.4821	60.302
3.4681	61.3012
3.4543	62.7285
3.4405	62.4566
3.4269	61.6778
3.4133	60.9432
3.3999	61.0842
3.3866	61.0349
3.3733	60.5124
3.3602	60.1834
3.3472	59.869
3.3343	62.5212
3.3215	62.8932
3.3088	62.6087
3.2961	62.4636
3.2836	62.0596
3.2712	61.562
3.2588	61.0016
3.2466	60.4516
3.2345	59.8612
3.2224	59.2588
3.2104	58.7584
3.1985	57.9872
3.1867	57.3698
3.175	56.4868
3.1634	55.8646
3.1519	55.0967
3.1404	54.346
3.129	53.6957
3.1178	53.0225
3.1065	52.3137
3.0954	51.7248
3.0844	51.1922
3.0734	50.6331
3.0625	50.2782
3.0517	49.7279
3.041	49.2414
3.0303	48.6334
3.0197	47.844
3.0092	47.2019
2.9987	46.6191
2.9884	46.2615
2.9781	45.7807
2.9678	45.6084
2.9577	45.3257
2.9476	45.2139
2.9376	45.1438
2.9276	45.0259
2.9177	45.0488
2.9079	45.1282
2.8982	45.3548
2.8885	45.6235
2.8789	46.2486
2.8693	46.7624
2.8598	47.4781
2.8504	47.8853
2.841	48.3097
2.8317	48.7553
2.8224	49.0314
2.8133	49.045
2.8041	48.6583
2.7951	46.9022
2.786	44.0551
2.7771	39.5006
2.7682	35.302
2.7594	32.4393
2.7506	33.8286
2.7418	36.2197
2.7332	38.8144
2.7246	45.0616
2.716	53.7866
2.7075	57.7248
2.699	64.4847
2.6906	71.4002
2.6823	74.3933
2.674	75.9097
2.6657	78.5274
2.6575	77.7206
2.6494	77.9513
2.6413	78.484
2.6332	78.6224
2.6252	78.8527
2.6173	79.4836
2.6094	79.041
2.6015	79.1395
2.5937	80.3995
2.5859	79.5346
2.5782	79.4581
2.5706	79.6515
2.5629	79.8964
2.5554	79.3314
2.5478	79.2343
2.5403	79.0142
2.5329	79.176
2.5255	79.0115
2.5181	79.233
2.5108	79.099
2.5035	78.9612
2.4963	78.9773
2.4891	78.9281
2.482	78.9958
2.4749	79.0731
2.4678	78.92
2.4608	78.9988
2.4538	78.9544
2.4468	78.9347
2.4399	78.8846
2.4331	78.9937
2.4262	79.2803
2.4194	79.462
2.4127	79.7326
2.4059	79.9807
2.3993	80.2312
2.3926	80.1704
2.386	80.2966
2.3795	80.3716
2.3729	80.3751
2.3664	80.3592
2.36	80.1143
2.3535	79.8233
2.3471	79.818
2.3408	79.9347
2.3345	80.1233
2.3282	80.2284
2.3219	80.5277
2.3157	80.9257
2.3095	81.0876
2.3034	81.2269
2.2972	81.3837
2.2911	81.5484
2.2851	81.6575
2.279	81.7901
2.2731	81.6386
2.2671	81.6306
2.2612	81.5888
2.2553	81.6357
2.2494	81.5095
2.2435	81.4285
2.2377	81.5037
2.232	81.4606
2.2262	81.4571
2.2205	81.0979
2.2148	80.4709
2.2091	79.8824
2.2035	79.4229
2.1979	79.2539
2.1923	79.4316
2.1868	80.2293
2.1812	80.7592
2.1758	81.2142
2.1703	81.9113
2.1649	81.8817
2.1595	82.1492
2.1541	82.2763
2.1487	82.2422
2.1434	82.2373
2.1381	82.5643
2.1328	82.4154
2.1275	82.5315
2.1223	82.4443
2.1171	82.4259
2.112	82.6701
2.1068	82.6842
2.1017	82.5752
2.0966	82.7065
2.0915	82.8059
2.0865	82.8148
2.0814	82.5567
2.0764	82.8697
2.0715	82.5605
2.0665	82.8045
2.0616	82.6839
2.0567	82.8575
2.0518	82.9494
2.0469	82.7103
2.0421	82.5373
2.0373	82.6266
2.0325	82.8827
2.0277	82.7244
2.0229	82.7343
2.0182	82.7046
2.0135	82.9356
2.0088	82.7431
2.0042	82.5533
