Name: Clinoptilolite (Na,K,Ca)2-3Al3(Al,Si)2Si13O36.12H2O
Type: Mineral
Class: Silicate
Subclass: Tectosilicate
Particle Size: Coarse
Sample No.: clinopt_1
Owner: JHU
Wavelength Range: TIR
Origin: Donated by W. J. Ehmann ;  Sample #7 from Castle Creek,Idaho.
Description: The sample is a cream-colored earthy mass.  Because of the earthy nature of this mineral sample, there is little difference between the spectra of different particle size ranges. Petrographically it is clean and pure clinoptilolite. Particle size was 74-250 Micrometers.(Framework silicates) (Zeolite Group) Original ASTER Spectral Library name was jhu.nicolet.mineral.silicate.tectosilicate.coarse.clinop1.spectrum.txt
Measurement: Bidirectional reflectance
X Units: Wavelength (micrometers)
Y Units: Reflectance (percent)
wavelength	value
25.044	2.3293
24.339	2.6731
23.672	2.3894
23.041	2.5864
22.442	2.8193
21.874	3.1164
21.334	3.3716
20.82	3.4451
20.33	2.8686
19.863	2.1311
19.416	1.7969
18.99	1.7165
18.581	1.3586
18.19	1.1191
17.815	1.124
17.455	1.1526
17.109	1.1562
16.777	1.259
16.458	1.2861
16.15	1.0915
15.854	0.8374
15.568	0.8538
15.292	0.9199
15.027	0.9258
14.77	0.9031
14.521	0.9324
14.281	0.9785
14.049	0.99
13.824	0.9746
13.607	0.9622
13.396	0.9958
13.191	1.0271
12.993	1.0691
12.8	1.0891
12.614	1.0994
12.432	1.1536
12.256	1.4009
12.084	1.7886
11.918	2.1079
11.755	2.2568
11.598	2.3135
11.444	2.3315
11.294	2.457
11.149	2.5911
11.007	2.5781
10.868	2.5342
10.733	2.4944
10.602	2.3921
10.473	2.2373
10.348	2.0603
10.225	1.8635
10.106	1.7126
9.9887	1.6802
9.8746	1.7109
9.763	1.7864
9.6539	1.8647
9.5472	1.937
9.4429	2.01
9.3408	2.1511
9.2409	2.3752
9.1431	2.52
9.0474	2.4399
8.9536	2.2781
8.8618	2.1101
8.7718	1.9631
8.6837	1.8418
8.5973	1.7519
8.5126	1.6753
8.4295	1.5749
8.3481	1.5137
8.2682	1.6103
8.1898	1.9653
8.1129	2.2436
8.0374	1.8242
7.9634	1.0161
7.8906	0.3755
7.8192	0.1448
7.7491	0.1389
7.6802	0.2048
7.6126	0.3064
7.5461	0.4473
7.4807	0.5833
7.4165	0.727
7.3534	0.8816
7.2914	1.0212
7.2303	1.1645
7.1703	1.3018
7.1113	1.4329
7.0533	1.5574
6.9962	1.6782
6.94	1.8025
6.8847	1.9243
6.8302	2.05
6.7767	2.1851
6.7239	2.3003
6.672	2.3857
6.6209	2.4556
6.5705	2.4936
6.5209	2.5334
6.4721	2.5542
6.424	2.5154
6.3766	2.4348
6.3299	2.2605
6.2838	1.9604
6.2385	1.5122
6.1937	1.051
6.1496	0.7742
6.1062	0.6685
6.0633	0.677
6.0211	0.7988
5.9794	1.0752
5.9383	1.5134
5.8978	2.0566
5.8578	2.6316
5.8184	3.0981
5.7794	3.4624
5.741	3.7114
5.7031	3.864
5.6657	3.9597
5.6288	4.0181
5.5924	4.0659
5.5564	4.0766
5.5209	4.1167
5.4859	4.1714
5.4513	4.2876
5.4171	4.4556
5.3833	4.676
5.35	4.8738
5.3171	5.0486
5.2846	5.1526
5.2524	5.2073
5.2207	5.2231
5.1893	5.2493
5.1584	5.3074
5.1277	5.4016
5.0975	5.5539
5.0676	5.7414
5.038	5.9546
5.0088	6.1733
4.98	6.3769
4.9514	6.5447
4.9232	6.6609
4.8953	6.7348
4.8678	6.7803
4.8405	6.821
4.8135	6.8816
4.7868	6.9531
4.7605	7.0154
4.7344	7.0925
4.7086	7.1655
4.6831	7.2414
4.6578	7.2912
4.6328	7.3496
4.6081	7.3984
4.5837	7.466
4.5595	7.5322
4.5356	7.6067
4.5119	7.6919
4.4884	7.7927
4.4652	7.9118
4.4423	8.0295
4.4196	8.1584
4.3971	8.2663
4.3748	8.3955
4.3528	8.5168
4.331	8.626
4.3094	8.7356
4.288	8.8467
4.2668	8.9707
4.2458	9.1067
4.2251	9.2612
4.2045	9.4136
4.1841	9.55
4.164	9.7021
4.144	9.8484
4.1242	10.003
4.1046	10.158
4.0852	10.311
4.066	10.448
4.047	10.613
4.0281	10.758
4.0094	10.884
3.9909	10.991
3.9725	11.085
3.9544	11.175
3.9363	11.241
3.9185	11.296
3.9008	11.337
3.8833	11.356
3.8659	11.366
3.8487	11.361
3.8316	11.354
3.8147	11.327
3.7979	11.303
3.7813	11.262
3.7648	11.216
3.7485	11.163
3.7323	11.09
3.7162	11.014
3.7003	10.922
3.6845	10.825
3.6689	10.707
3.6534	10.605
3.638	10.472
3.6227	10.348
3.6076	10.2
3.5926	10.038
3.5777	9.876
3.563	9.6938
3.5484	9.5115
3.5338	9.3044
3.5195	9.0342
3.5052	8.7143
3.491	8.5639
3.477	8.3813
3.463	8.199
3.4492	7.9421
3.4355	7.6579
3.4219	7.3235
3.4084	7.0879
3.395	6.9211
3.3817	6.6665
3.3685	6.447
3.3554	6.2366
3.3425	5.9975
3.3296	5.7407
3.3168	5.4861
3.3041	5.2344
3.2915	4.9761
3.279	4.7309
3.2666	4.4758
3.2543	4.2449
3.2421	4.0034
3.23	3.7793
3.218	3.5544
3.206	3.3328
3.1942	3.1348
3.1824	2.9258
3.1707	2.7336
3.1591	2.5537
3.1476	2.3691
3.1362	2.2173
3.1249	2.0735
3.1136	1.9424
3.1024	1.8328
3.0913	1.7461
3.0803	1.6899
3.0694	1.6694
3.0585	1.6489
3.0477	1.6387
3.037	1.6025
3.0264	1.5603
3.0158	1.5134
3.0053	1.4631
2.9949	1.3994
2.9845	1.3394
2.9743	1.2761
2.9641	1.2456
2.9539	1.2114
2.9439	1.1733
2.9339	1.1572
2.9239	1.1428
2.9141	1.1165
2.9043	1.0967
2.8946	1.0967
2.8849	1.0708
2.8753	1.0681
2.8658	1.0564
2.8563	1.0449
2.8469	1.0398
2.8375	1.0166
2.8282	1.0056
2.819	0.9734
2.8098	0.9443
2.8007	0.9297
2.7917	0.9163
2.7827	0.9099
2.7738	0.8965
2.7649	0.886
2.7561	0.9141
2.7473	1.0176
2.7386	1.2234
2.7299	1.5935
2.7213	2.1518
2.7128	2.9573
2.7043	3.915
2.6959	4.7734
2.6875	5.5261
2.6791	6.0305
2.6709	6.5005
2.6626	7.2158
2.6545	7.561
2.6463	7.8589
2.6382	8.0886
2.6302	8.2429
2.6222	8.3991
2.6143	8.5324
2.6064	8.583
2.5986	8.6972
2.5908	8.7334
2.583	8.7407
2.5753	8.8069
2.5677	8.8337
2.5601	8.8637
2.5525	8.8972
2.545	8.9763
2.5375	9.0373
2.5301	9.0954
2.5227	9.1782
2.5154	9.2505
2.5081	9.3716
2.5008	9.4487
2.4936	9.563
2.4864	9.6506
2.4793	9.7688
2.4722	9.8757
2.4651	9.9963
2.4581	10.139
2.4511	10.299
2.4442	10.445
2.4373	10.608
2.4305	10.764
2.4236	10.9
2.4169	11.069
2.4101	11.238
2.4034	11.357
2.3967	11.494
2.3901	11.618
2.3835	11.769
2.377	11.92
2.3704	12.093
2.364	12.229
2.3575	12.378
2.3511	12.559
2.3447	12.65
2.3384	12.787
2.3321	12.878
2.3258	12.994
2.3195	13.066
2.3133	13.13
2.3071	13.117
2.301	13.165
2.2949	13.191
2.2888	13.288
2.2828	13.373
2.2767	13.448
2.2708	13.537
2.2648	13.627
2.2589	13.683
2.253	13.707
2.2471	13.733
2.2413	13.739
2.2355	13.756
2.2297	13.802
2.224	13.787
2.2183	13.823
2.2126	13.823
2.207	13.828
2.2013	13.809
2.1957	13.867
2.1902	13.877
2.1846	13.877
2.1791	13.889
2.1736	13.927
2.1682	13.928
2.1628	13.977
2.1574	13.97
2.152	13.949
2.1466	13.934
2.1413	13.917
2.136	13.937
2.1308	13.948
2.1255	13.913
2.1203	13.899
2.1151	13.879
2.11	13.863
2.1048	13.842
2.0997	13.805
2.0946	13.834
2.0895	13.836
2.0845	13.812
2.0795	13.761
