Name: Montmorillonite (Na,Ca)0.33(Al,Mg)2Si4O10(OH)2.nH2O
Type: Mineral
Class: Silicate
Subclass: Phyllosilicate
Particle Size: Coarse
Sample No.: montmor_1
Owner: JHU
Wavelength Range: TIR
Origin: San Diego, California via Clay Mineral Society, Source ClayMineral Repository (#SCa-2CMS)
Description: The sample was a tan, earthy clay. The bulk sample contains a trace of quartz, but <2 micrometers separate is pure montmorillonite. Particle size was 0-2 micrometers, but packed powder simulates coarse.(Sheet Silicates); (SmectiteGroup) Original ASTER Spectral Library name was jhu.nicolet.mineral.silicate.phyllosilicate.packed.montmo1.spectrum.txt
Measurement: Bidirectional reflectance
X Units: Wavelength (micrometers)
Y Units: Reflectance (percent)
wavelength	value
25.0442	7.978
24.3388	8.2737
23.6719	8.7417
23.0407	8.9448
22.4422	9.2451
21.8741	9.7177
21.334	10.8955
20.8199	10.9153
20.33	8.6675
19.8627	8.1033
19.4163	9.2536
18.9896	10.5229
18.5812	10.4087
18.19	9.946
17.815	9.3103
17.4551	8.615
17.1094	7.8655
16.7772	6.845
16.4576	5.8027
16.15	5.1257
15.8537	4.5945
15.568	3.5688
15.2925	3.2493
15.0265	3.1741
14.7697	3.2126
14.5214	3.3345
14.2814	3.3809
14.0492	3.4277
13.8244	3.5337
13.6067	3.6611
13.3957	3.8183
13.1912	3.9729
12.9929	4.1033
12.8004	4.1435
12.6135	4.2234
12.432	4.3345
12.2557	4.4558
12.0843	4.5459
11.9176	4.4387
11.7555	4.437
11.5977	4.5947
11.444	4.7612
11.2944	4.8799
11.1487	5.0464
11.0067	5.1523
10.8682	5.0393
10.7332	5.1308
10.6015	5.404
10.473	5.74
10.3476	6.1509
10.2251	6.656
10.1056	7.196
9.9887	7.8159
9.8746	8.5222
9.763	9.4665
9.6539	10.7636
9.5472	12.3354
9.4429	13.7971
9.3408	14.3867
9.2409	13.3647
9.1431	11.4382
9.0474	10.3098
8.9536	10.4763
8.8618	10.7136
8.7718	10.5847
8.6837	10.1787
8.5973	9.5105
8.5126	8.591
8.4295	7.2063
8.3481	4.852
8.2682	2.3171
8.1898	1.1233
8.1129	1.0908
8.0374	1.3689
7.9634	1.7026
7.8906	2.0185
7.8192	2.3513
7.7491	2.6421
7.6802	2.9133
7.6126	3.158
7.5461	3.3725
7.4807	3.5615
7.4165	3.729
7.3534	3.8955
7.2914	4.0395
7.2303	4.1916
7.1703	4.3098
7.1113	4.435
7.0533	4.4922
6.9962	4.5945
6.94	4.7126
6.8847	4.813
6.8302	4.9123
6.7767	4.9993
6.7239	5.1035
6.672	5.1748
6.6209	5.2417
6.5705	5.2456
6.5209	5.2671
6.4721	5.2363
6.424	5.156
6.3766	5.0244
6.3299	4.7866
6.2838	4.4077
6.2385	3.8484
6.1937	3.2886
6.1496	2.8997
6.1062	2.6597
6.0633	2.6289
6.0211	2.7624
5.9794	2.9836
5.9383	3.2886
5.8978	3.7666
5.8578	4.3245
5.8184	4.8003
5.7794	5.2388
5.741	5.6235
5.7031	5.907
5.6657	6.081
5.6288	6.1562
5.5924	6.156
5.5564	6.0886
5.5209	5.9971
5.4859	5.9316
5.4513	5.9582
5.4171	6.0627
5.3833	6.237
5.35	6.4001
5.3171	6.5615
5.2846	6.6621
5.2524	6.7292
5.2207	6.7878
5.1893	6.8606
5.1584	6.9482
5.1277	7.0696
5.0975	7.1975
5.0676	7.3591
5.038	7.521
5.0088	7.6748
4.98	7.8042
4.9514	7.9328
4.9232	8.0317
4.8953	8.1257
4.8678	8.2136
4.8405	8.2827
4.8135	8.3491
4.7868	8.4404
4.7605	8.5112
4.7344	8.5803
4.7086	8.6484
4.6831	8.7112
4.6578	8.7646
4.6328	8.8188
4.6081	8.8642
4.5837	8.8987
4.5595	8.9153
4.5356	8.9328
4.5119	8.9546
4.4884	8.9841
4.4652	9.0034
4.4423	9.0312
4.4196	9.062
4.3971	9.0888
4.3748	9.1352
4.3528	9.1755
4.331	9.228
4.3094	9.291
4.288	9.3686
4.2668	9.4819
4.2458	9.582
4.2251	9.6989
4.2045	9.8259
4.1841	9.969
4.164	10.1167
4.144	10.2688
4.1242	10.4255
4.1046	10.582
4.0852	10.7627
4.066	10.9294
4.047	11.0842
4.0281	11.238
4.0094	11.3952
3.9909	11.52
3.9725	11.6186
3.9544	11.7129
3.9363	11.7846
3.9185	11.8322
3.9008	11.8816
3.8833	11.882
3.8659	11.8808
3.8487	11.862
3.8316	11.8195
3.8147	11.7663
3.7979	11.6965
3.7813	11.6169
3.7648	11.5041
3.7485	11.3823
3.7323	11.2556
3.7162	11.0971
3.7003	10.948
3.6845	10.8117
3.6689	10.6518
3.6534	10.4948
3.638	10.3098
3.6227	10.1245
3.6076	9.9355
3.5926	9.7236
3.5777	9.5063
3.563	9.2722
3.5484	9.0368
3.5338	8.8039
3.5195	8.5495
3.5052	8.3034
3.491	8.1008
3.477	7.8569
3.463	7.6054
3.4492	7.3364
3.4355	7.0967
3.4219	6.8347
3.4084	6.6223
3.395	6.3828
3.3817	6.1611
3.3685	5.9433
3.3554	5.7146
3.3425	5.488
3.3296	5.2688
3.3168	5.0586
3.3041	4.8535
3.2915	4.6614
3.279	4.4748
3.2666	4.292
3.2543	4.1123
3.2421	3.9421
3.23	3.7903
3.218	3.6321
3.206	3.4988
3.1942	3.3462
3.1824	3.2371
3.1707	3.1091
3.1591	3.0093
3.1476	2.8906
3.1362	2.8086
3.1249	2.709
3.1136	2.6267
3.1024	2.573
3.0913	2.5281
3.0803	2.4841
3.0694	2.4548
3.0585	2.4331
3.0477	2.4226
3.037	2.3955
3.0264	2.3589
3.0158	2.3335
3.0053	2.2895
2.9949	2.2495
2.9845	2.2288
2.9743	2.1877
2.9641	2.1638
2.9539	2.1194
2.9439	2.093
2.9339	2.0767
2.9239	2.0664
2.9141	2.0706
2.9043	2.0547
2.8946	2.0232
2.8849	2.0256
2.8753	1.9868
2.8658	1.9932
2.8563	1.9697
2.8469	1.9499
2.8375	1.9441
2.8282	1.9231
2.819	1.918
2.8098	1.895
2.8007	1.8696
2.7917	1.7839
2.7827	1.7507
2.7738	1.6768
2.7649	1.5859
2.7561	1.5269
2.7473	1.562
2.7386	1.6208
2.7299	1.7422
2.7213	2.0247
2.7128	2.5813
2.7043	3.3975
2.6959	4.4895
2.6875	5.6448
2.6791	6.4751
2.6709	7.0976
2.6626	7.6355
2.6545	8.0134
2.6463	8.3264
2.6382	8.5766
2.6302	8.7553
2.6222	8.9328
2.6143	9.062
2.6064	9.1599
2.5986	9.2634
2.5908	9.343
2.583	9.3806
2.5753	9.4472
2.5677	9.4692
2.5601	9.5127
2.5525	9.562
2.545	9.6308
2.5375	9.6665
2.5301	9.7358
2.5227	9.8296
2.5154	9.915
2.5081	10.0527
2.5008	10.1767
2.4936	10.2798
2.4864	10.3596
2.4793	10.4277
2.4722	10.4953
2.4651	10.5029
2.4581	10.5383
2.4511	10.6181
2.4442	10.6728
2.4373	10.771
2.4305	10.9284
2.4236	10.9946
2.4169	11.0962
2.4101	11.1779
2.4034	11.2558
2.3967	11.3252
2.3901	11.4587
2.3835	11.6089
2.377	11.7661
2.3704	11.9253
2.364	12.0881
2.3575	12.2534
2.3511	12.4048
2.3447	12.5503
2.3384	12.6704
2.3321	12.8296
2.3258	12.9946
2.3195	13.1762
2.3133	13.4008
2.3071	13.6425
2.301	13.8051
2.2949	14.0258
2.2888	14.2099
2.2828	14.3095
2.2767	14.416
2.2708	14.395
2.2648	14.3222
2.2589	14.0962
2.253	13.8169
2.2471	13.5383
2.2413	13.2783
2.2355	13.0412
2.2297	12.8195
2.224	12.5908
2.2183	12.2822
2.2126	12.2702
2.207	12.7177
2.2013	13.3933
2.1957	14.113
2.1902	14.5952
2.1846	14.9726
2.1791	15.2258
2.1736	15.4201
2.1682	15.5681
2.1628	15.6928
2.1574	15.6962
2.152	15.7365
2.1466	15.6848
2.1413	15.7287
2.136	15.7766
2.1308	15.7546
2.1255	15.7241
2.1203	15.7448
2.1151	15.7212
2.11	15.7421
2.1048	15.7365
2.0997	15.7268
2.0946	15.7915
2.0895	15.7895
2.0845	15.757
2.0795	15.7885
