Name: Dolomite CaMg(CO3)2
Type: Mineral
Class: Carbonate
Subclass: None
Particle Size: Coarse
Sample No.: dolomite_2
Owner: JHU
Wavelength Range: TIR
Origin: Hunt and Salisbury Collection #102B;  Sample from Lee,Massachusetts.
Description: The sample appeared to be pure white dolomite in hand specimen and under the microscope. Particle size was 74-250 Micrometers. Original ASTER Spectral Library name was jhu.nicolet.mineral.carbonate.none.coarse.dolomi2.spectrum.txt
Measurement: Bidirectional reflectance
X Units: Wavelength (micrometers)
Y Units: Reflectance (percent)
wavelength	value
25.0442	5.6914
24.3388	5.9787
23.6719	5.8948
23.0407	5.7832
22.4422	4.8008
21.8741	3.3984
21.334	2.1489
20.8199	1.4119
20.33	1.0742
19.8627	0.9702
19.4163	1.0478
18.9896	1.2957
18.5812	1.4211
18.19	1.3638
17.815	1.3103
17.4551	1.2429
17.1094	1.2432
16.7772	1.179
16.4576	1.1619
16.15	1.2095
15.8537	1.176
15.568	1.1055
15.2925	1.1353
15.0265	1.2498
14.7697	1.3655
14.5214	1.4019
14.2814	1.4424
14.0492	1.2441
13.8244	1.1597
13.6067	0.7087
13.3957	1.3445
13.1912	2.1089
12.9929	2.792
12.8004	2.9875
12.6135	3.218
12.432	3.2642
12.2557	3.2456
12.0843	3.0788
11.9176	2.7712
11.7555	1.8213
11.5977	1.9089
11.444	1.8005
11.2944	2.9656
11.1487	5.4341
11.0067	3.1711
10.8682	2.4263
10.7332	2.3777
10.6015	2.4018
10.473	2.5395
10.3476	2.6089
10.2251	2.6111
10.1056	2.5405
9.9887	2.585
9.8746	2.5564
9.763	2.5056
9.6539	2.5789
9.5472	2.79
9.4429	2.8213
9.3408	2.5173
9.2409	2.5632
9.1431	2.5688
9.0474	2.3701
8.9536	2.3533
8.8618	2.2815
8.7718	2.2615
8.6837	2.1018
8.5973	1.9568
8.5126	1.7248
8.4295	1.5757
8.3481	1.5784
8.2682	1.6682
8.1898	1.6052
8.1129	1.54
8.0374	1.6069
7.9634	1.6506
7.8906	1.6894
7.8192	1.7246
7.7491	1.6914
7.6802	1.7275
7.6126	1.7974
7.5461	1.8403
7.4807	1.855
7.4165	1.929
7.3534	1.9751
7.2914	2.03
7.2303	2.0815
7.1703	2.1875
7.1113	2.3652
7.0533	2.8367
6.9962	3.4324
6.94	3.4094
6.8847	3.4665
6.8302	3.6255
6.7767	3.8352
6.7239	4.0984
6.672	4.4245
6.6209	4.9465
6.5705	5.5022
6.5209	6.1658
6.4721	6.9646
6.424	7.698
6.3766	8.1648
6.3299	6.3606
6.2838	4.7139
6.2385	3.4927
6.1937	2.8144
6.1496	2.031
6.1062	1.1704
6.0633	0.6733
6.0211	0.4927
5.9794	0.501
5.9383	0.5471
5.8978	0.606
5.8578	0.6587
5.8184	0.709
5.7794	0.7437
5.741	0.7678
5.7031	0.8394
5.6657	0.8374
5.6288	0.8091
5.5924	0.7869
5.5564	0.7361
5.5209	0.6638
5.4859	0.6379
5.4513	0.8489
5.4171	1.4377
5.3833	2.0249
5.35	2.4746
5.3171	2.7478
5.2846	3.0845
5.2524	3.6057
5.2207	4.1518
5.1893	4.5745
5.1584	5.0144
5.1277	5.3171
5.0975	5.5139
5.0676	4.6365
5.038	5.685
5.0088	6.197
4.98	6.345
4.9514	6.4336
4.9232	6.5132
4.8953	6.5793
4.8678	6.6372
4.8405	6.6535
4.8135	6.6614
4.7868	6.6369
4.7605	6.595
4.7344	6.4787
4.7086	6.1455
4.6831	5.4194
4.6578	4.0889
4.6328	3.6802
4.6081	3.6753
4.5837	4.258
4.5595	4.8525
4.5356	5.2629
4.5119	5.6326
4.4884	6.3147
4.4652	6.0359
4.4423	5.4634
4.4196	5.7029
4.3971	6.292
4.3748	6.7942
4.3528	7.0561
4.331	6.2566
4.3094	5.9187
4.288	5.8274
4.2668	5.9604
4.2458	6.1401
4.2251	6.1931
4.2045	6.3801
4.1841	6.4319
4.164	6.1662
4.144	5.8432
4.1242	5.8154
4.1046	5.6369
4.0852	5.3098
4.066	4.7847
4.047	4.1169
4.0281	3.3118
4.0094	2.4392
3.9909	1.8044
3.9725	1.4167
3.9544	1.3311
3.9363	1.3445
3.9185	1.3845
3.9008	1.5212
3.8833	1.6108
3.8659	1.6814
3.8487	2.0964
3.8316	2.2417
3.8147	1.8337
3.7979	1.7427
3.7813	2.1028
3.7648	2.6921
3.7485	3.8606
3.7323	5.1316
3.7162	5.6365
3.7003	6.0166
3.6845	6.4328
3.6689	6.6701
3.6534	6.8127
3.638	6.8935
3.6227	6.9092
3.6076	6.8906
3.5926	6.8325
3.5777	6.6999
3.563	6.282
3.5484	5.1106
3.5338	5.3408
3.5195	4.407
3.5052	2.9651
3.491	2.0176
3.477	1.7502
3.463	1.646
3.4492	1.592
3.4355	1.7078
3.4219	1.9311
3.4084	2.0149
3.395	2.0901
3.3817	2.2224
3.3685	2.3003
3.3554	2.0544
3.3425	1.9185
3.3296	1.9272
3.3168	1.8249
3.3041	1.7803
3.2915	3.0095
3.279	4.3196
3.2666	4.9678
3.2543	5.4023
3.2421	5.7688
3.23	6.0503
3.218	6.2536
3.206	6.4177
3.1942	6.5229
3.1824	6.5942
3.1707	6.6711
3.1591	6.6689
3.1476	6.4126
3.1362	6.187
3.1249	6.1604
3.1136	6.1609
3.1024	6.1335
3.0913	5.9675
3.0803	5.8818
3.0694	6.0137
3.0585	6.1892
3.0477	6.2463
3.037	6.2878
3.0264	6.4512
3.0158	6.5984
3.0053	6.7065
2.9949	6.7182
2.9845	6.7124
2.9743	6.7234
2.9641	6.7519
2.9539	6.7561
2.9439	6.7178
2.9339	6.7012
2.9239	6.6814
2.9141	6.698
2.9043	6.7226
2.8946	6.7605
2.8849	6.8103
2.8753	6.8655
2.8658	6.925
2.8563	6.9785
2.8469	6.9853
2.8375	6.9909
2.8282	6.9665
2.819	6.895
2.8098	6.7153
2.8007	6.3369
2.7917	5.7536
2.7827	5.2109
2.7738	4.8215
2.7649	4.7175
2.7561	4.9624
2.7473	5.3161
2.7386	5.6379
2.7299	6.0207
2.7213	6.4734
2.7128	7.2358
2.7043	7.893
2.6959	8.0759
2.6875	8.2219
2.6791	8.5759
2.6709	8.8418
2.6626	9.0454
2.6545	9.1867
2.6463	9.2676
2.6382	9.2903
2.6302	9.2976
2.6222	9.3042
2.6143	9.3332
2.6064	9.3232
2.5986	9.365
2.5908	9.3496
2.583	9.3147
2.5753	9.2827
2.5677	9.1836
2.5601	9.0425
2.5525	8.8801
2.545	8.4792
2.5375	7.77
2.5301	7.1658
2.5227	6.7529
2.5154	6.5989
2.5081	6.6753
2.5008	6.8349
2.4936	7.0451
2.4864	7.2866
2.4793	7.4792
2.4722	7.5615
2.4651	7.5737
2.4581	7.646
2.4511	7.8098
2.4442	8.0346
2.4373	8.3252
2.4305	8.5202
2.4236	8.7336
2.4169	8.9516
2.4101	9.0722
2.4034	9.1177
2.3967	9.207
2.3901	9.2693
2.3835	9.3132
2.377	9.3662
2.3704	9.3784
2.364	9.3659
2.3575	9.2846
2.3511	9.0903
2.3447	8.7842
2.3384	8.436
2.3321	8.0864
2.3258	7.8984
2.3195	7.9277
2.3133	8.031
2.3071	8.1523
2.301	8.2817
2.2949	8.374
2.2888	8.541
2.2828	8.6421
2.2767	8.6609
2.2708	8.6758
2.2648	8.8037
2.2589	8.9385
2.253	9.0722
2.2471	9.2124
2.2413	9.2837
2.2355	9.3281
2.2297	9.2871
2.224	9.2558
2.2183	9.209
2.2126	9.2109
2.207	9.2925
2.2013	9.4023
2.1957	9.5342
2.1902	9.6518
2.1846	9.7588
2.1791	9.8261
2.1736	9.8906
2.1682	9.9111
2.1628	9.9057
2.1574	9.9204
2.152	9.8672
2.1466	9.8677
2.1413	9.8613
2.136	9.8821
2.1308	9.8637
2.1255	9.9145
2.1203	9.9179
2.1151	9.9218
2.11	9.9531
2.1048	9.9663
2.0997	9.9992
2.0946	10.0151
2.0895	9.9865
2.0845	10.0637
2.0795	10.0483
