Name: Cerussite PbCO_3
Type: Mineral
Class: Carbonate
Subclass: None
Particle Size: Fine
Sample No.: C-10A
Owner: JPL
Wavelength Range: VSWIR
Origin: USA, Arizona, Flux Mine
Description: Particle size was 0-45um.Collected by JPL Original ASTER Spectral Library name was jpl.beckman.mineral.carbonate.none.fine.c10a.spectrum.txt
Measurement: Hemispherical reflectance
X Units: Wavelength (micrometers)
Y Units: Reflectance (percent)
wavelength	value
0.4	84.87
0.403	85.12
0.406	85.37
0.409	85.43
0.412	85.5
0.415	85.62
0.418	85.67
0.421	85.81
0.424	85.91
0.427	86.13
0.43	86.35
0.433	86.45
0.436	86.59
0.439	86.71
0.442	86.83
0.445	87.02
0.448	86.92
0.451	87.15
0.454	87.22
0.457	87.41
0.46	87.39
0.463	87.49
0.466	87.48
0.469	87.66
0.472	87.61
0.475	87.89
0.478	87.91
0.481	87.98
0.484	88.11
0.487	88.08
0.49	88.29
0.493	88.33
0.496	88.54
0.499	88.45
0.502	88.63
0.505	88.69
0.508	88.98
0.511	88.97
0.514	89.11
0.517	89.22
0.52	89.29
0.523	89.45
0.526	89.49
0.529	89.62
0.532	89.61
0.535	89.67
0.538	89.78
0.541	90.08
0.544	90.05
0.547	90.07
0.55	90.2
0.553	90.31
0.556	90.41
0.559	90.48
0.562	91.01
0.565	91.06
0.568	91.07
0.571	90.96
0.574	90.8
0.577	90.93
0.58	90.99
0.583	91.1
0.586	91.09
0.589	91.28
0.592	91.4
0.595	91.57
0.598	91.47
0.601	91.64
0.604	91.66
0.607	91.89
0.61	91.94
0.613	91.84
0.616	91.83
0.619	91.78
0.622	92
0.625	91.95
0.628	91.94
0.631	91.94
0.634	92
0.637	92.06
0.64	91.99
0.643	92.11
0.646	92.12
0.649	92.23
0.652	92.17
0.655	92.34
0.658	92.29
0.661	92.35
0.664	92.35
0.667	92.4
0.67	92.41
0.673	92.46
0.676	92.64
0.679	92.52
0.682	92.52
0.685	92.52
0.688	92.64
0.691	92.52
0.694	92.58
0.697	92.58
0.7	92.56
0.703	92.87
0.706	92.75
0.709	92.75
0.712	92.7
0.715	92.81
0.718	92.76
0.721	92.87
0.724	92.82
0.727	92.87
0.73	92.87
0.733	92.75
0.736	92.87
0.739	92.76
0.742	92.87
0.745	92.87
0.748	92.99
0.751	92.99
0.754	92.99
0.757	92.93
0.76	92.93
0.763	92.99
0.766	92.99
0.769	93.16
0.772	92.99
0.775	92.93
0.778	92.99
0.781	93.05
0.784	93.05
0.787	93.1
0.79	93.11
0.793	93.11
0.796	93.16
0.799	93.16
0.808	93.08
0.82	93.14
0.832	93.2
0.844	93.37
0.856	93.43
0.868	93.49
0.88	93.37
0.892	93.37
0.904	93.49
0.916	93.43
0.928	93.49
0.94	93.66
0.952	93.66
0.964	93.72
0.976	93.78
0.988	93.72
1	93.72
1.012	93.84
1.024	93.84
1.036	93.96
1.048	93.96
1.06	93.96
1.072	94.02
1.084	94.02
1.096	94.07
1.108	94.08
1.12	94.13
1.132	94.19
1.144	94.02
1.156	94.01
1.168	94.1
1.18	94.03
1.192	94.07
1.204	94.17
1.216	94.11
1.228	94.16
1.24	94.1
1.252	94.16
1.264	94.19
1.276	94.17
1.288	94.14
1.3	94.06
1.312	94.04
1.324	93.95
1.336	94
1.348	93.91
1.36	93.97
1.372	93.91
1.384	93.86
1.396	93.8
1.408	93.76
1.42	93.78
1.432	93.74
1.444	93.82
1.456	93.77
1.468	93.94
1.48	93.77
1.492	93.89
1.504	93.94
1.516	94.06
1.528	94.06
1.54	94.12
1.552	94
1.564	94.06
1.576	94.12
1.588	94
1.6	94.06
1.612	94.04
1.624	94.18
1.636	94.1
1.648	94.19
1.66	94.29
1.672	94.33
1.684	94.25
1.696	94.34
1.708	94.27
1.72	94.28
1.732	94.21
1.744	94.1
1.756	93.98
1.768	93.98
1.78	93.93
1.792	93.93
1.804	93.9
1.816	93.81
1.828	93.89
1.84	93.85
1.852	93.72
1.864	93.75
1.876	93.55
1.888	93.24
1.9	92.89
1.912	92.64
1.924	92.37
1.936	92.11
1.948	92.14
1.96	92.15
1.972	92.38
1.984	92.6
1.996	93.04
2.008	93.26
2.02	93.47
2.032	93.48
2.044	93.38
2.056	93.15
2.068	92.98
2.08	92.98
2.092	93.2
2.104	93.82
2.116	94.29
2.128	94.41
2.14	94.55
2.152	94.36
2.164	94.11
2.176	93.88
2.188	93.65
2.2	93.31
2.212	92.99
2.224	92.78
2.236	92.5
2.248	92.3
2.26	92.37
2.272	92.41
2.284	92.19
2.296	91.78
2.308	91.34
2.32	91.01
2.332	90.55
2.344	89.89
2.356	89.27
2.368	88.55
2.38	87.86
2.392	87.01
2.404	86.34
2.416	85.61
2.428	85.14
2.44	84.75
2.452	84.4
2.464	84.27
2.476	84.78
2.488	85.87
2.5	87.16
