Name: Richterite Na2Ca(Mg,Fe+2)5Si8O22(OH)2
Type: Mineral
Class: Silicate
Subclass: Inosilicate
Particle Size: Coarse
Sample No.: richter_1
Owner: JHU
Wavelength Range: TIR
Origin: Wilberforce, Ontario, Canada via the Smithsonian (sample no.NMNH 150800)
Description: The sample consisted of two large (6.49 and 6.45 g) pieces and 2 smaller fragments, black in color. All fragments were parts of single crystals. One fragment had significant calcite contamination; all fragments had about 1% contamination with small blotchy inclusions of calcite. The crushed sample was treated with HCl, after which all grains appeared pure under the microscope. Particle size was 75 - 250  Micrometers.(chain silicates); (Amphibole Group) Original ASTER Spectral Library name was jhu.nicolet.mineral.silicate.inosilicate.coarse.richte1.spectrum.txt
Measurement: Bidirectional reflectance
X Units: Wavelength (micrometers)
Y Units: Reflectance (percent)
wavelength	value
25.0442	9.2158
24.3388	9.6059
23.6719	10.8047
23.0407	12.8156
22.4422	15.4465
21.8741	17.799
21.334	15.7734
20.8199	15.8784
20.33	17.9248
19.8627	20.1276
19.4163	20.4841
18.9896	21.7543
18.5812	23.217
18.19	20.0415
17.815	18.7456
17.4551	15.446
17.1094	9.053
16.7772	3.8638
16.4576	2.6479
16.15	2.7856
15.8537	2.9648
15.568	3.4263
15.2925	4.02
15.0265	4.8174
14.7697	3.7168
14.5214	3.4224
14.2814	3.616
14.0492	3.8154
13.8244	3.9658
13.6067	4.4534
13.3957	4.9463
13.1912	4.2537
12.9929	3.9778
12.8004	4.3142
12.6135	4.5398
12.432	4.7646
12.2557	4.9626
12.0843	5.2571
11.9176	5.5925
11.7555	5.9426
11.5977	6.3005
11.444	6.7844
11.2944	7.5268
11.1487	8.2827
11.0067	9.4062
10.8682	10.145
10.7332	9.9531
10.6015	10.7209
10.473	13.3894
10.3476	17.04
10.2251	20.3
10.1056	22.1227
9.9887	21.8769
9.8746	19.3605
9.763	14.5805
9.6539	11.6174
9.5472	12.3591
9.4429	14.1467
9.3408	14.956
9.2409	14.8198
9.1431	13.5046
9.0474	11.7146
8.9536	11.7824
8.8618	11.4253
8.7718	12.3227
8.6837	13.4736
8.5973	11.5915
8.5126	7.218
8.4295	3.6826
8.3481	1.7925
8.2682	0.8489
8.1898	0.8967
8.1129	1.1614
8.0374	1.4458
7.9634	1.7266
7.8906	2.0015
7.8192	2.2798
7.7491	2.4775
7.6802	2.6667
7.6126	2.8501
7.5461	3.0068
7.4807	3.1597
7.4165	3.2944
7.3534	3.4502
7.2914	3.6162
7.2303	3.7798
7.1703	3.9509
7.1113	4.168
7.0533	4.3747
6.9962	4.5198
6.94	4.6308
6.8847	4.7571
6.8302	4.8828
6.7767	5.0627
6.7239	5.2229
6.672	5.4465
6.6209	5.6531
6.5705	5.7312
6.5209	5.6091
6.4721	5.3249
6.424	4.9665
6.3766	4.6528
6.3299	4.4226
6.2838	4.2649
6.2385	4.1853
6.1937	4.1892
6.1496	4.2744
6.1062	4.3972
6.0633	4.5188
6.0211	4.5747
5.9794	4.5539
5.9383	4.5586
5.8978	4.6184
5.8578	4.7222
5.8184	4.8181
5.7794	4.8889
5.741	4.9399
5.7031	4.9748
5.6657	5.0354
5.6288	5.115
5.5924	5.2124
5.5564	5.3074
5.5209	5.4309
5.4859	5.6758
5.4513	6.0535
5.4171	6.4743
5.3833	6.8865
5.35	7.1982
5.3171	7.4006
5.2846	7.6445
5.2524	7.8703
5.2207	7.8686
5.1893	7.6125
5.1584	7.2124
5.1277	6.8218
5.0975	6.5698
5.0676	6.4668
5.038	6.4973
5.0088	6.6487
4.98	6.8633
4.9514	7.1318
4.9232	7.4013
4.8953	7.7097
4.8678	8.0005
4.8405	8.2807
4.8135	8.5427
4.7868	8.8713
4.7605	9.2961
4.7344	9.7422
4.7086	10.1482
4.6831	10.4634
4.6578	10.7676
4.6328	11.1252
4.6081	11.612
4.5837	12.1506
4.5595	12.7331
4.5356	13.3589
4.5119	13.9419
4.4884	14.499
4.4652	14.9726
4.4423	15.3193
4.4196	15.5822
4.3971	15.771
4.3748	15.9216
4.3528	16.03
4.331	16.1157
4.3094	16.1767
4.288	16.2143
4.2668	16.2634
4.2458	16.302
4.2251	16.3527
4.2045	16.3962
4.1841	16.457
4.164	16.497
4.144	16.5222
4.1242	16.5644
4.1046	16.6335
4.0852	16.698
4.066	16.7531
4.047	16.8083
4.0281	16.8569
4.0094	16.9084
3.9909	16.9638
3.9725	17.0207
3.9544	17.0725
3.9363	17.1379
3.9185	17.1909
3.9008	17.2573
3.8833	17.3037
3.8659	17.3288
3.8487	17.3442
3.8316	17.3689
3.8147	17.3833
3.7979	17.3979
3.7813	17.4155
3.7648	17.4213
3.7485	17.4113
3.7323	17.4248
3.7162	17.4121
3.7003	17.3923
3.6845	17.3947
3.6689	17.3718
3.6534	17.3896
3.638	17.3952
3.6227	17.4062
3.6076	17.4191
3.5926	17.435
3.5777	17.4311
3.563	17.413
3.5484	17.3935
3.5338	17.3891
3.5195	17.3772
3.5052	17.3894
3.491	17.3925
3.477	17.3659
3.463	17.3557
3.4492	17.3164
3.4355	17.2959
3.4219	17.2902
3.4084	17.2502
3.395	17.1643
3.3817	17.0878
3.3685	17.0446
3.3554	16.9113
3.3425	16.8383
3.3296	16.7929
3.3168	16.7832
3.3041	16.8215
3.2915	16.7973
3.279	16.7592
3.2666	16.6645
3.2543	16.5429
3.2421	16.5388
3.23	16.6247
3.218	16.7841
3.206	16.893
3.1942	16.854
3.1824	16.8186
3.1707	16.7922
3.1591	16.7614
3.1476	16.7092
3.1362	16.5888
3.1249	16.4773
3.1136	16.5058
3.1024	16.6289
3.0913	16.695
3.0803	16.7089
3.0694	16.7326
3.0585	16.6982
3.0477	16.6801
3.037	16.6118
3.0264	16.5664
3.0158	16.5146
3.0053	16.4287
2.9949	16.413
2.9845	16.3833
2.9743	16.2973
2.9641	16.2592
2.9539	16.2385
2.9439	16.2124
2.9339	16.1792
2.9239	16.1547
2.9141	16.125
2.9043	16.1162
2.8946	16.0805
2.8849	16.0471
2.8753	16.0332
2.8658	15.9868
2.8563	15.9458
2.8469	15.893
2.8375	15.8066
2.8282	15.6953
2.819	15.6606
2.8098	15.666
2.8007	15.7094
2.7917	15.7236
2.7827	15.7407
2.7738	15.6079
2.7649	15.1469
2.7561	14.5385
2.7473	13.6201
2.7386	11.0671
2.7299	7.3362
2.7213	5.3628
2.7128	8.0642
2.7043	5.4836
2.6959	5.2759
2.6875	7.5361
2.6791	11.0288
2.6709	14.5595
2.6626	16.1064
2.6545	16.1318
2.6463	16.1081
2.6382	16.2319
2.6302	16.2685
2.6222	16.2544
2.6143	16.2297
2.6064	16.1367
2.5986	16.0935
2.5908	16.0036
2.583	15.9126
2.5753	15.8313
2.5677	15.707
2.5601	15.6994
2.5525	15.6543
2.545	15.625
2.5375	15.6523
2.5301	15.6828
2.5227	15.6796
2.5154	15.6464
2.5081	15.6269
2.5008	15.5571
2.4936	15.3977
2.4864	15.2978
2.4793	15.2275
2.4722	15.1259
2.4651	15.021
2.4581	14.9882
2.4511	14.9983
2.4442	14.9348
2.4373	14.9575
2.4305	14.9953
2.4236	15.0058
2.4169	14.9992
2.4101	15.082
2.4034	14.9228
2.3967	14.5048
2.3901	13.9311
2.3835	13.3877
2.377	12.886
2.3704	13.5263
2.364	14.2649
2.3575	14.7307
2.3511	14.9174
2.3447	14.9936
2.3384	14.9492
2.3321	14.7285
2.3258	14.1709
2.3195	12.8803
2.3133	11.9966
2.3071	12.4384
2.301	13.4799
2.2949	14.1342
2.2888	14.6269
2.2828	14.8437
2.2767	15.0366
2.2708	15.3271
2.2648	15.4951
2.2589	15.6084
2.253	15.6845
2.2471	15.7231
2.2413	15.7553
2.2355	15.8379
2.2297	15.8086
2.224	15.8325
2.2183	15.8554
2.2126	15.8613
2.207	15.8134
2.2013	15.8339
2.1957	15.8144
2.1902	15.8925
2.1846	15.8481
2.1791	15.8286
2.1736	15.8403
2.1682	15.8598
2.1628	15.9047
2.1574	15.9052
2.152	15.8422
2.1466	15.789
2.1413	15.7744
2.136	15.8559
2.1308	15.7402
2.1255	15.686
2.1203	15.7295
2.1151	15.7465
2.11	15.7524
2.1048	15.7797
2.0997	15.8007
2.0946	15.854
2.0895	15.8808
2.0845	15.9257
2.0795	15.9062
