Name: Mimetite Pb_5(AsO_4)_3Cl
Type: Mineral
Class: Arsenate
Subclass: None
Particle Size: Medium
Sample No.: A-1A
Owner: JPL
Wavelength Range: TIR
Origin: Mexico, Chihuahua, Ingla Tierra Mine
Description: Particle size was 45-125um.Collected by JPL Original ASTER Spectral Library name was jpl.nicolet.mineral.arsenate.none.medium.a01a.spectrum.txt
Measurement: Hemispherical reflectance
X Units: Wavelength (micrometers)
Y Units: Reflectance (percent)
wavelength	value
15.3853	9.0622
15.1161	8.8738
14.8563	8.2726
14.6052	8.0123
14.3624	7.5952
14.1276	7.8381
13.9004	7.8297
13.6803	8.5476
13.4671	9.9485
13.2604	11.6393
13.06	14.9824
12.8656	21.8717
12.6769	21.1357
12.4936	17.2302
12.3155	18.2154
12.1425	22.1872
11.9742	17.2732
11.8106	10.884
11.6513	3.3698
11.4963	0.2662
11.3454	0.521
11.1983	0.9354
11.0551	1.286
10.9154	2.0545
10.7793	3.0906
10.6465	3.6364
10.5169	3.4272
10.3904	3.9164
10.267	5.0944
10.1464	5.3194
10.0287	5.5445
9.9136	6.0561
9.8012	8.1043
9.6913	9.2571
9.5838	9.8438
9.4787	14.2756
9.3758	16.2629
9.2752	14.0402
9.1767	12.1355
9.0803	11.7858
8.9858	13.6026
8.8934	16.2692
8.8028	18.3042
8.714	19.129
8.627	19.4448
8.5417	20.5916
8.4581	21.5875
8.3761	22.6356
8.2957	24.4288
8.2169	27.123
8.1395	30.4377
8.0635	32.7966
7.989	33.7531
7.9158	32.6675
7.8439	28.7898
7.7734	23.1358
7.7041	19.2021
7.636	16.5344
7.5691	16.3357
7.5034	18.9073
7.4388	20.9314
7.3753	20.6134
7.3129	20.3236
7.2515	19.7048
7.1912	19.2042
7.1318	18.8199
7.0734	18.35
7.016	17.8963
6.9595	18.661
6.9039	20.199
6.8492	24.0421
6.7953	27.267
6.7423	27.7178
6.6901	27.875
6.6387	26.8018
6.5881	21.074
6.5382	14.7584
6.4892	12.9368
6.4408	11.9848
6.3931	10.6193
6.3462	9.8313
6.2999	9.0945
6.2543	9.8815
6.2094	11.3364
6.1651	12.7912
6.1214	14.5476
6.0784	16.4953
6.0359	20.2426
5.994	26.2629
5.9527	32.4106
5.912	38.1428
5.8718	42.5996
5.8322	48.3067
5.7931	50.451
5.7545	54.3265
5.7165	58.2287
5.6789	61.298
5.6418	64.7701
5.6052	65.0791
5.5691	66.6255
5.5334	68.6147
5.4982	70.1593
5.4635	71.7999
5.4291	72.2141
5.3952	72.2492
5.3618	72.0609
5.3287	72.464
5.2961	73.0958
5.2638	72.6191
5.2319	72.4014
5.2004	72.2076
5.1693	72.6777
5.1386	73.241
5.1082	73.1595
5.0782	73.1917
5.0485	73.1395
5.0192	73.0512
4.9902	73.3488
4.9616	74.028
4.9332	74.6926
4.9052	74.7612
4.8776	74.6759
4.8502	74.8715
4.8231	75.459
4.7963	76.0761
4.7699	76.7725
4.7437	76.9316
4.7178	76.7157
4.6922	76.6151
4.6668	76.4409
4.6418	76.8155
4.617	77.2354
4.5924	77.0883
4.5681	77.0328
4.5441	76.8029
4.5203	76.6893
4.4968	76.5144
4.4735	76.1672
4.4505	75.7702
4.4277	74.9229
4.4051	73.807
4.3828	72.3471
4.3607	71.0276
4.3388	70.0871
4.3171	68.7073
4.2956	67.4828
4.2744	66.3803
4.2534	66.2737
4.2325	68.0503
4.2119	68.5294
4.1915	69.0079
4.1712	69.57
4.1512	69.8879
4.1313	70.3421
4.1117	70.8224
4.0922	71.3085
4.0729	71.6326
4.0538	72.1161
4.0349	72.704
4.0161	73.859
3.9976	74.7507
3.9792	75.4222
3.9609	76.1063
3.9428	76.5779
3.9249	76.9333
3.9072	76.9412
3.8896	77.0003
3.8722	76.9172
3.8549	76.5736
3.8378	76.6939
3.8208	76.8291
3.804	76.9768
3.7873	77.1145
3.7708	76.8534
3.7544	76.6005
3.7382	76.1723
3.7221	75.5608
3.7061	74.9876
3.6903	74.2515
3.6746	73.5368
3.659	73.1097
3.6436	72.8187
3.6283	72.7763
3.6131	72.8135
3.5981	72.8991
3.5832	72.9924
3.5684	72.9474
3.5537	72.7823
3.5391	72.5728
3.5247	72.0272
3.5104	71.3549
3.4962	70.9361
3.4821	70.6881
3.4681	70.6092
3.4543	70.5613
3.4405	70.1367
3.4269	69.5855
3.4133	69.0958
3.3999	68.9512
3.3866	68.7524
3.3733	68.03
3.3602	67.8829
3.3472	67.6684
3.3343	67.6308
3.3215	67.3825
3.3088	66.8091
3.2961	66.3282
3.2836	65.6241
3.2712	64.9882
3.2588	64.4039
3.2466	63.7083
3.2345	63.1058
3.2224	62.4586
3.2104	61.6395
3.1985	60.8752
3.1867	60.2132
3.175	59.4547
3.1634	58.7228
3.1519	57.9584
3.1404	57.2062
3.129	56.6868
3.1178	56.1259
3.1065	55.6518
3.0954	55.143
3.0844	54.7767
3.0734	54.4275
3.0625	53.8441
3.0517	53.3281
3.041	52.7736
3.0303	52.1996
3.0197	51.6616
3.0092	51.0758
2.9987	50.4156
2.9884	49.5643
2.9781	48.812
2.9678	47.7704
2.9577	46.6684
2.9476	46.8777
2.9376	47.5473
2.9276	48.2493
2.9177	48.8521
2.9079	49.255
2.8982	49.6338
2.8885	49.5848
2.8789	49.1975
2.8693	48.9531
2.8598	48.0917
2.8504	48.6859
2.841	50.2142
2.8317	52.1133
2.8224	55.7964
2.8133	59.0264
2.8041	62.1395
2.7951	63.6332
2.786	67.0219
2.7771	68.5675
2.7682	70.7653
2.7594	71.8875
2.7506	73.3611
2.7418	76.3402
2.7332	76.8648
2.7246	80.3706
2.716	79.953
2.7075	81.6027
2.699	81.9229
2.6906	82.8333
2.6823	83.2825
2.674	83.7169
2.6657	86.2498
2.6575	83.4342
2.6494	83.3483
2.6413	83.7123
2.6332	84.2753
2.6252	84.1713
2.6173	85.6734
2.6094	84.6994
2.6015	84.6103
2.5937	86.8466
2.5859	84.9742
2.5782	84.5863
2.5706	84.8026
2.5629	85.5636
2.5554	84.0827
2.5478	84.3981
2.5403	84.1252
2.5329	84.2483
2.5255	84.1688
2.5181	84.0493
2.5108	84.2229
2.5035	84.3454
2.4963	84.357
2.4891	84.5311
2.482	84.3987
2.4749	84.6142
2.4678	84.6463
2.4608	84.7345
2.4538	84.6892
2.4468	84.8303
2.4399	84.7564
2.4331	84.7607
2.4262	84.8184
2.4194	84.9635
2.4127	84.8142
2.4059	84.9383
2.3993	85.0929
2.3926	85.122
2.386	85.0997
2.3795	85.2184
2.3729	85.3235
2.3664	85.2922
2.36	85.3146
2.3535	85.1749
2.3471	84.9408
2.3408	84.9146
2.3345	84.8814
2.3282	84.9809
2.3219	85.0091
2.3157	85.3328
2.3095	85.3515
2.3034	85.4232
2.2972	85.628
2.2911	85.3952
2.2851	85.5226
2.279	85.4197
2.2731	85.2206
2.2671	85.1913
2.2612	85.2362
2.2553	85.5343
2.2494	85.7293
2.2435	85.6795
2.2377	85.992
2.232	86.0033
2.2262	86.1266
2.2205	86.1704
2.2148	86.191
2.2091	86.2264
2.2035	86.1896
2.1979	86.2105
2.1923	86.2315
2.1868	86.2981
2.1812	86.2918
2.1758	86.3553
2.1703	86.332
2.1649	86.2823
2.1595	86.2145
2.1541	86.2433
2.1487	86.4052
2.1434	86.3652
2.1381	86.3695
2.1328	86.2822
2.1275	86.3258
2.1223	86.4861
2.1171	86.388
2.112	86.4747
2.1068	86.3335
2.1017	86.376
2.0966	86.3973
2.0915	86.5185
2.0865	86.3692
2.0814	86.4546
2.0764	86.5587
2.0715	86.4735
2.0665	86.6846
2.0616	86.5985
2.0567	86.3
2.0518	86.5104
2.0469	86.4601
2.0421	86.553
2.0373	86.5224
2.0325	86.6454
2.0277	86.5504
2.0229	86.5369
2.0182	86.4311
2.0135	86.4891
2.0088	86.6508
2.0042	86.7055
