Name: Talc Mg_3Si_4O_10(OH)_2
Type: Mineral
Class: Silicate
Subclass: Phyllosilicate
Particle Size: Coarse
Sample No.: PS-14A
Owner: JPL
Wavelength Range: TIR
Origin: USA, Georgia, Cherokee County, Holly Springs
Description: Particle size was 125-500um.Collected by Burminco Original ASTER Spectral Library name was jpl.nicolet.mineral.silicate.phyllosilicate.coarse.ps14a.spectrum.txt
Measurement: Hemispherical reflectance
X Units: Wavelength (micrometers)
Y Units: Reflectance (percent)
wavelength	value
15.3853	8.5403
15.1161	12.507
14.8563	33.4163
14.6052	28.0298
14.3624	3.8285
14.1276	0.2152
13.9004	1.3581
13.6803	3.3209
13.4671	5.5897
13.2604	7.0421
13.06	8.066
12.8656	8.0371
12.6769	8.868
12.4936	11.0475
12.3155	12.3601
12.1425	13.7818
11.9742	14.7635
11.8106	15.4244
11.6513	16.0076
11.4963	15.7447
11.3454	16.1456
11.1983	16.3321
11.0551	16.6218
10.9154	17.218
10.7793	18.0123
10.6465	18.2408
10.5169	18.6069
10.3904	19.4711
10.267	20.4928
10.1464	22.3121
10.0287	25.8858
9.9136	36.0368
9.8012	55.3005
9.6913	59.1991
9.5838	58.7054
9.4787	48.4288
9.3758	57.6568
9.2752	61.0699
9.1767	61.3301
9.0803	60.7872
8.9858	58.633
8.8934	53.8468
8.8028	49.2129
8.714	40.659
8.627	25.7288
8.5417	16.1219
8.4581	9.8152
8.3761	5.8541
8.2957	3.4551
8.2169	1.89
8.1395	0.8406
8.0635	0.3551
7.989	0.1545
7.9158	0.2305
7.8439	0.4632
7.7734	0.8867
7.7041	1.394
7.636	1.8215
7.5691	2.2883
7.5034	3.1704
7.4388	3.8267
7.3753	4.2833
7.3129	5.1535
7.2515	5.7213
7.1912	5.6931
7.1318	6.1185
7.0734	6.7996
7.016	7.7631
6.9595	8.7462
6.9039	10.3735
6.8492	11.0683
6.7953	12.8047
6.7423	14.1068
6.6901	15.7651
6.6387	16.1452
6.5881	15.315
6.5382	15.3227
6.4892	16.957
6.4408	17.7121
6.3931	18.4241
6.3462	19.0437
6.2999	19.2053
6.2543	19.9543
6.2094	18.4633
6.1651	17.0857
6.1214	13.5883
6.0784	10.2234
6.0359	10.1449
5.994	8.8522
5.9527	10.1946
5.912	13.8437
5.8718	11.568
5.8322	11.7605
5.7931	14.4581
5.7545	14.8853
5.7165	14.1436
5.6789	12.9094
5.6418	13.7863
5.6052	13.6126
5.5691	12.0545
5.5334	11.4999
5.4982	11.3248
5.4635	12.3276
5.4291	15.5717
5.3952	15.3801
5.3618	15.0412
5.3287	15.8843
5.2961	17.2241
5.2638	16.7421
5.2319	15.1205
5.2004	14.7004
5.1693	16.8251
5.1386	17.3962
5.1082	19.7179
5.0782	26.9113
5.0485	31.6392
5.0192	33.0494
4.9902	33.1636
4.9616	32.5398
4.9332	31.7035
4.9052	35.0099
4.8776	38.0529
4.8502	39.1266
4.8231	39.5267
4.7963	40.4973
4.7699	42.492
4.7437	45.014
4.7178	42.777
4.6922	42.9087
4.6668	43.878
4.6418	44.3904
4.617	50.7081
4.5924	55.8669
4.5681	57.7211
4.5441	58.9252
4.5203	59.1826
4.4968	58.9299
4.4735	59.1018
4.4505	59.4916
4.4277	63.4398
4.4051	65.7695
4.3828	68.3795
4.3607	69.2029
4.3388	69.5114
4.3171	69.695
4.2956	69.9713
4.2744	70.5609
4.2534	71.3289
4.2325	71.229
4.2119	71.1982
4.1915	71.2011
4.1712	71.089
4.1512	71.3129
4.1313	71.3205
4.1117	71.3031
4.0922	70.8239
4.0729	70.5711
4.0538	70.4886
4.0349	70.9693
4.0161	72.273
3.9976	73.2245
3.9792	73.4261
3.9609	73.5089
3.9428	73.3138
3.9249	72.8787
3.9072	73.0868
3.8896	73.4474
3.8722	74.1735
3.8549	75.0011
3.8378	75.4043
3.8208	75.9787
3.804	76.8767
3.7873	78.0064
3.7708	79.0505
3.7544	79.7865
3.7382	79.9827
3.7221	80.0832
3.7061	79.8909
3.6903	74.0305
3.6746	79.5058
3.659	79.1985
3.6436	78.553
3.6283	78.8062
3.6131	79.4929
3.5981	80.0249
3.5832	80.4635
3.5684	80.6923
3.5537	80.5416
3.5391	80.293
3.5247	79.6582
3.5104	77.0724
3.4962	74.5887
3.4821	74.8107
3.4681	77.0309
3.4543	77.2997
3.4405	75.4695
3.4269	72.1338
3.4133	69.9206
3.3999	69.5193
3.3866	66.5397
3.3733	60.9624
3.3602	52.2018
3.3472	56.3062
3.3343	62.9161
3.3215	51.4581
3.3088	47.3021
3.2961	61.4525
3.2836	66.7595
3.2712	73.7345
3.2588	77.6898
3.2466	77.9385
3.2345	76.7425
3.2224	74.8287
3.2104	74.252
3.1985	71.7724
3.1867	67.5335
3.175	65.6395
3.1634	64.2269
3.1519	64.5132
3.1404	69.257
3.129	73.7059
3.1178	73.2684
3.1065	71.5788
3.0954	68.3305
3.0844	69.2074
3.0734	68.2814
3.0625	67.988
3.0517	67.3618
3.041	66.6645
3.0303	65.7854
3.0197	69.6235
3.0092	69.4963
2.9987	67.7041
2.9884	66.3618
2.9781	67.9449
2.9678	66.976
2.9577	66.1203
2.9476	66.1594
2.9376	66.3316
2.9276	66.3008
2.9177	66.5225
2.9079	64.5553
2.8982	64.3558
2.8885	64.2801
2.8789	63.7873
2.8693	64.9634
2.8598	65.3699
2.8504	64.2712
2.841	66.7134
2.8317	66.1409
2.8224	65.7249
2.8133	62.2462
2.8041	58.6174
2.7951	54.2408
2.786	55.7536
2.7771	60.46
2.7682	64.0572
2.7594	63.4414
2.7506	59.7386
2.7418	52.3726
2.7332	32.5484
2.7246	34.8933
2.716	33.369
2.7075	54.5705
2.699	64.1584
2.6906	67.9333
2.6823	72.8677
2.674	76.4789
2.6657	78.8329
2.6575	76.7231
2.6494	74.2312
2.6413	73.1928
2.6332	73.6647
2.6252	72.5287
2.6173	71.4514
2.6094	71.7986
2.6015	68.118
2.5937	68.2333
2.5859	65.1132
2.5782	61.7426
2.5706	62.9646
2.5629	64.1717
2.5554	62.3262
2.5478	65.4815
2.5403	63.2345
2.5329	62.0057
2.5255	61.9827
2.5181	60.5825
2.5108	62.2006
2.5035	62.8784
2.4963	60.0222
2.4891	63.7536
2.482	64.9369
2.4749	59.907
2.4678	52.716
2.4608	54.579
2.4538	57.213
2.4468	59.0296
2.4399	58.8786
2.4331	59.8307
2.4262	56.8085
2.4194	64.0715
2.4127	65.4807
2.4059	63.6062
2.3993	52.5712
2.3926	44.8495
2.386	46.6989
2.3795	49.4669
2.3729	54.2453
2.3664	61.1883
2.36	64.1466
2.3535	64.3176
2.3471	69.3942
2.3408	70.6668
2.3345	64.6281
2.3282	52.3578
2.3219	42.3103
2.3157	31.4313
2.3095	30.8908
2.3034	39.9808
2.2972	47.5443
2.2911	36.6627
2.2851	44.3492
2.279	55.3379
2.2731	62.4406
2.2671	68.1555
2.2612	72.7516
2.2553	76.7114
2.2494	80.1808
2.2435	81.5596
2.2377	78.9932
2.232	73.5248
2.2262	76.2417
2.2205	83.805
2.2148	84.4205
2.2091	84.4178
2.2035	84.3948
2.1979	84.1515
2.1923	83.6686
2.1868	83.0466
2.1812	80.6363
2.1758	79.6193
2.1703	79.3763
2.1649	80.82
2.1595	81.337
2.1541	81.6796
2.1487	80.6547
2.1434	79.0309
2.1381	78.4926
2.1328	78.1357
2.1275	77.3473
2.1223	80.588
2.1171	79.7862
2.112	81.5857
2.1068	82.1779
2.1017	82.059
2.0966	81.3163
2.0915	80.6021
2.0865	80.0553
2.0814	78.5094
2.0764	77.17
2.0715	81.2662
2.0665	84.3838
2.0616	85.1714
2.0567	85.9055
2.0518	86.3141
2.0469	87.1163
2.0421	87.3819
2.0373	88.1381
2.0325	88.4605
2.0277	88.2942
2.0229	87.5906
2.0182	86.4101
2.0135	85.8503
2.0088	86.6663
2.0042	87.7807
