Name: Biotite K(Mg,Fe+2)3(Al,Fe+3)Si3O10(OH,F)2
Type: Mineral
Class: Silicate
Subclass: Phyllosilicate
Particle Size: Fine
Sample No.: biotite_2
Owner: JHU
Wavelength Range: TIR
Origin: Hunt and Salisbury Collection #28B (purchased from Ward'sNatural Science Establishment).; Sample from Ontario, Canada.
Description: No solid sample was available.  The particulate samples appeared to be pure brown biotite showing neither inclusions nor impurities under the microscope.(Mica Group)Particle size was less than 2 Micrometers. Original ASTER Spectral Library name was jhu.nicolet.mineral.silicate.phyllosilicate.powder.biotit2.spectrum.txt
Measurement: Transmission
X Units: Wavelength (micrometers)
Y Units: Transmittance (percent)
wavelength	value
25.0442	55.3827
24.3388	50.0077
23.6719	42.9296
23.0407	33.7343
22.4422	23.6347
21.8741	16.6992
21.334	19.5722
20.8199	27.455
20.33	34.7616
19.8627	42.9667
19.4163	51.4178
18.9896	59.5985
18.5812	65.6326
18.19	70.8865
17.815	74.6541
17.4551	76.701
17.1094	76.9666
16.7772	76.6297
16.4576	76.7225
16.15	76.7967
15.8537	76.2479
15.568	75.076
15.2925	75.3318
15.0265	75.8064
14.7697	73.5975
14.5214	73.5906
14.2814	79.3592
14.0492	78.2684
13.8244	76.2703
13.6067	77.91
13.3957	79.1936
13.1912	79.18
12.9929	79.1189
12.8004	79.4905
12.6135	81.0257
12.432	82.7049
12.2557	84.9768
12.0843	84.7093
11.9176	82.3015
11.7555	79.2488
11.5977	75.2566
11.444	70.2615
11.2944	66.1854
11.1487	61.971
11.0067	57.3421
10.8682	51.9432
10.7332	45.223
10.6015	36.7216
10.473	25.8993
10.3476	17.2016
10.2252	14.313
10.1056	11.5849
9.9887	8.1567
9.8746	9.084
9.763	15.0888
9.6539	23.1704
9.5472	31.9242
9.4429	38.2177
9.3408	42.4872
9.2409	46.7762
9.1431	52.4086
9.0474	59.8558
8.9536	66.8494
8.8618	71.6776
8.7718	75.4012
8.6837	78.2142
8.5973	80.6863
8.5126	83.1057
8.4295	85.1385
8.3481	86.9509
8.2682	88.322
8.1898	89.387
8.1129	90.2903
8.0374	90.9151
7.9634	91.4277
7.8906	91.9275
7.8192	92.363
7.7491	92.7129
7.6802	92.9971
7.6126	93.3057
7.5461	93.4685
7.4807	93.6228
7.4165	93.78
7.3534	93.833
7.2914	93.7744
7.2303	93.5967
7.1703	93.2048
7.1113	92.335
7.0533	91.2461
6.9962	90.6619
6.94	90.7412
6.8847	91.1152
6.8302	91.8555
6.7767	92.6748
6.7239	93.3679
6.672	94.0261
6.6209	94.5584
6.5705	94.8943
6.5209	94.9922
6.4721	95.1689
6.424	95.2468
6.3766	95.2842
6.3299	95.3044
6.2838	95.0125
6.2385	94.5603
6.1937	93.8445
6.1496	93.1345
6.1062	93.1484
6.0633	93.5664
6.0211	94.3516
5.9794	95.2139
5.9383	95.7793
5.8978	96.1433
5.8578	96.374
5.8184	96.6218
5.7794	96.7178
5.741	96.79
5.7031	96.9092
5.6657	96.9207
5.6288	96.9905
5.5924	97.0417
5.5564	97.0146
5.5209	97.0781
5.4859	97.1389
5.4513	97.2353
5.4171	97.3381
5.3833	97.3552
5.35	97.4563
5.3171	97.5608
5.2846	97.5986
5.2524	97.6667
5.2207	97.7236
5.1893	97.7263
5.1584	97.7566
5.1277	97.7949
5.0975	97.7673
5.0676	97.7275
5.038	97.74
5.0088	97.7361
4.98	97.7571
4.9514	97.8162
4.9232	97.8059
4.8953	97.7712
4.8678	97.7541
4.8405	97.7751
4.8135	97.8591
4.7868	97.8835
4.7605	97.9089
4.7344	97.8972
4.7086	97.8918
4.6831	97.8772
4.6578	97.947
4.6328	97.9709
4.6081	97.9719
4.5837	98.0154
4.5595	98.0007
4.5356	97.9792
4.5119	97.969
4.4884	97.9236
4.4652	97.9099
4.4423	97.9172
4.4196	97.9197
4.3971	97.8655
4.3748	97.8943
4.3528	97.9143
4.331	97.9338
4.3094	97.8948
4.288	97.8557
4.2668	97.8933
4.2458	97.8791
4.2251	97.9387
4.2045	97.8811
4.1841	97.9241
4.164	97.8928
4.144	97.8264
4.1242	97.8542
4.1046	97.905
4.0852	97.8035
4.066	97.8162
4.047	97.8269
4.0281	97.7961
4.0094	97.8074
3.9909	97.6941
3.9725	97.7078
3.9544	97.76
3.9363	97.7151
3.9185	97.7639
3.9008	97.7517
3.8833	97.7073
3.8659	97.5886
3.8487	97.6091
3.8316	97.5925
3.8147	97.6077
3.7979	97.5535
3.7813	97.4983
3.7648	97.4646
3.7485	97.4529
3.7323	97.3406
3.7162	97.2634
3.7003	97.2507
3.6845	97.2058
3.6689	97.0901
3.6534	97.0896
3.638	97.0413
3.6227	96.9314
3.6076	96.8533
3.5926	96.8337
3.5777	96.8147
3.563	96.7595
3.5484	96.6584
3.5338	96.5857
3.5195	96.4553
3.5052	96.342
3.491	96.2683
3.477	96.2058
3.463	96.1345
3.4492	96.0789
3.4355	95.9089
3.4219	95.7541
3.4084	95.6541
3.395	95.6526
3.3817	95.5178
3.3685	95.4807
3.3554	95.3621
3.3425	95.3201
3.3296	95.2986
3.3168	95.1233
3.3041	95.0359
3.2915	94.9065
3.279	94.7639
3.2666	94.6409
3.2543	94.49
3.2421	94.3591
3.23	94.1834
3.218	93.9963
3.206	93.8362
3.1942	93.6951
3.1824	93.4919
3.1707	93.3347
3.1591	93.114
3.1476	92.8357
3.1362	92.532
3.1249	92.2253
3.1136	92.0916
3.1024	91.7332
3.0913	91.3963
3.0803	91.0095
3.0694	90.822
3.0585	90.5916
3.0477	90.2761
3.037	89.9812
3.0264	89.6785
3.0158	89.242
3.0053	88.8035
2.9949	88.3269
2.9845	87.8718
2.9743	87.1648
2.9641	86.5037
2.9539	85.9783
2.9439	85.533
2.9339	85.1863
2.9239	84.8924
2.9141	84.8836
2.9043	84.9978
2.8946	85.2224
2.8849	85.4412
2.8753	85.8015
2.8658	86.1609
2.8563	86.4392
2.8469	86.8679
2.8375	87.3865
2.8282	87.8406
2.819	88.3054
2.8098	88.9373
2.8007	89.7312
2.7917	90.3787
2.7827	91.2009
2.7738	91.9685
2.7649	92.574
2.7561	93.4138
2.7473	94.0085
2.7386	94.238
2.7299	94.2781
2.7213	94.4382
2.7128	94.2283
2.7043	95.1209
2.6959	96.0876
2.6875	96.7976
2.6791	97.1804
2.6709	97.1892
2.6626	97.1638
2.6545	97.3513
2.6463	97.238
2.6382	97.2654
2.6302	97.2341
2.6222	97.2537
2.6143	97.3484
2.6064	97.2742
2.5986	97.1716
2.5908	97.2693
2.583	97.4275
2.5753	97.2986
2.5677	97.1189
2.5601	97.3943
2.5525	97.1716
2.545	97.1775
2.5375	97.2732
2.5301	97.3005
2.5227	97.197
2.5154	97.2517
2.5081	97.4001
2.5008	97.2419
2.4936	97.3396
2.4864	97.2693
2.4793	97.2576
2.4722	97.1345
2.4651	97.1013
2.4581	97.2673
2.4511	97.2068
2.4442	97.3318
2.4373	97.3396
2.4305	97.2224
2.4236	97.363
2.4169	97.2537
2.4101	97.3083
2.4034	97.2615
2.3967	97.0583
2.3901	97.1736
2.3835	97.2751
2.377	97.1013
2.3704	97.113
2.364	97.0017
2.3575	97.0662
2.3511	97.1091
2.3447	97.2185
2.3384	97.0564
2.3321	96.9333
2.3258	97.156
2.3195	97.408
2.3133	97.0876
2.3071	97.0876
2.301	96.9724
2.2949	97.156
2.2888	97.1248
2.2828	97.1248
2.2767	97.0486
2.2708	96.9392
2.2648	96.9626
2.2589	97.0701
2.253	97.2517
2.2471	97.0798
2.2413	96.8669
2.2355	96.947
2.2297	97.2576
2.224	96.9763
2.2183	96.8845
2.2126	97.0251
2.207	97.1267
2.2013	96.947
2.1957	96.8669
2.1902	96.9705
2.1846	96.8533
2.1791	96.7029
2.1736	97.0232
2.1682	96.8123
2.1628	97.0076
2.1574	96.9412
2.152	96.406
2.1466	96.7146
2.1413	96.8005
2.136	96.3669
2.1308	96.8787
2.1255	96.8201
2.1203	96.7888
2.1151	96.4412
2.11	96.6951
2.1048	96.6873
2.0997	96.5662
2.0946	96.8748
2.0895	96.8162
2.0845	96.6873
2.0795	96.7693
