Name: Ferroaxinite Ca_2Fe^2+Al_2BSi_4O_15(OH)
Type: Mineral
Class: Silicate
Subclass: Cyclosilicate
Particle Size: Fine
Sample No.: CS-4A
Owner: JPL
Wavelength Range: TIR
Origin: Mexico, Baja California Norte, Los Gavelontos
Description: Particle size was 0-45um.Collected by Ward's Original ASTER Spectral Library name was jpl.nicolet.mineral.silicate.cyclosilicate.fine.cs04a.spectrum.txt
Measurement: Hemispherical reflectance
X Units: Wavelength (micrometers)
Y Units: Reflectance (percent)
wavelength	value
15.3853	1.702
15.1161	2.8768
14.8563	2.3515
14.6052	2.4385
14.3624	4.3126
14.1276	6.5928
13.9004	7.6504
13.6803	8.5431
13.4671	8.7777
13.2604	8.2244
13.06	7.303
12.8656	5.9078
12.6769	5.8308
12.4936	7.245
12.3155	6.8438
12.1425	6.1644
11.9742	5.9643
11.8106	7.1382
11.6513	7.5799
11.4963	8.7895
11.3454	9.8527
11.1983	10.0274
11.0551	6.7877
10.9154	8.2106
10.7793	9.7568
10.6465	12.0394
10.5169	12.3404
10.3904	7.9946
10.267	5.0703
10.1464	4.7613
10.0287	4.4582
9.9136	5.5503
9.8012	3.648
9.6913	4.9111
9.5838	8.5332
9.4787	8.8832
9.3758	11.0882
9.2752	11.4156
9.1767	12.0639
9.0803	11.7744
8.9858	8.6479
8.8934	6.7179
8.8028	5.3631
8.714	5.1373
8.627	3.1375
8.5417	1.5321
8.4581	0.7442
8.3761	0.7433
8.2957	0.6971
8.2169	0.8003
8.1395	1.2123
8.0635	1.6557
7.989	2.2397
7.9158	3.1645
7.8439	4.0504
7.7734	5.031
7.7041	6.3559
7.636	7.3707
7.5691	8.4848
7.5034	9.8984
7.4388	11.1511
7.3753	12.1093
7.3129	12.8715
7.2515	13.7305
7.1912	14.5597
7.1318	15.3171
7.0734	15.9329
7.016	16.4012
6.9595	17.2253
6.9039	17.2132
6.8492	17.7049
6.7953	18.413
6.7423	18.4174
6.6901	19.1734
6.6387	20.9137
6.5881	20.7992
6.5382	21.1703
6.4892	22.8578
6.4408	22.1256
6.3931	22.2121
6.3462	23.7081
6.2999	23.066
6.2543	23.3009
6.2094	23.9418
6.1651	24.6752
6.1214	25.381
6.0784	26.0475
6.0359	25.9311
5.994	25.9317
5.9527	24.7857
5.912	23.256
5.8718	21.2602
5.8322	18.7554
5.7931	16.573
5.7545	16.0428
5.7165	17.0941
5.6789	19.2393
5.6418	22.2879
5.6052	23.0929
5.5691	23.9077
5.5334	25.0924
5.4982	25.3069
5.4635	25.4504
5.4291	25.4256
5.3952	26.0493
5.3618	26.5502
5.3287	27.1094
5.2961	28.2187
5.2638	28.7451
5.2319	28.8195
5.2004	28.979
5.1693	29.0759
5.1386	29.6072
5.1082	30.5902
5.0782	31.4574
5.0485	32.1818
5.0192	33.2557
4.9902	33.9088
4.9616	34.7418
4.9332	35.6846
4.9052	36.6737
4.8776	38.1084
4.8502	39.2937
4.8231	40.2703
4.7963	41.3001
4.7699	42.7821
4.7437	43.9994
4.7178	45.1061
4.6922	46.2284
4.6668	47.9483
4.6418	49.3692
4.617	50.909
4.5924	51.9157
4.5681	52.253
4.5441	52.4347
4.5203	52.4749
4.4968	52.729
4.4735	54.0959
4.4505	55.3357
4.4277	56.7989
4.4051	57.959
4.3828	59.2877
4.3607	60.4421
4.3388	61.1136
4.3171	61.8302
4.2956	62.3877
4.2744	62.6414
4.2534	62.816
4.2325	63.4183
4.2119	63.3278
4.1915	63.2598
4.1712	63.4804
4.1512	63.5231
4.1313	63.5105
4.1117	63.3456
4.0922	63.2578
4.0729	62.9883
4.0538	62.8623
4.0349	62.6995
4.0161	62.8128
3.9976	62.7519
3.9792	61.8408
3.9609	62.9041
3.9428	63.4226
3.9249	63.6637
3.9072	63.9556
3.8896	64.2056
3.8722	64.0675
3.8549	63.4018
3.8378	62.7831
3.8208	62.2509
3.804	61.9201
3.7873	61.7355
3.7708	61.9032
3.7544	62.1612
3.7382	62.301
3.7221	62.1581
3.7061	61.7034
3.6903	61.1533
3.6746	60.4414
3.659	60.0123
3.6436	59.9316
3.6283	60.1686
3.6131	60.4057
3.5981	60.4811
3.5832	60.1466
3.5684	59.7836
3.5537	59.3904
3.5391	58.8186
3.5247	58.2778
3.5104	57.163
3.4962	56.4175
3.4821	56.5309
3.4681	56.0249
3.4543	55.5379
3.4405	54.7837
3.4269	53.9342
3.4133	53.329
3.3999	53.2776
3.3866	52.1445
3.3733	50.107
3.3602	48.9702
3.3472	48.8613
3.3343	49.3672
3.3215	49.6544
3.3088	49.6646
3.2961	49.4316
3.2836	48.28
3.2712	46.9887
3.2588	45.1037
3.2466	43.5515
3.2345	42.1643
3.2224	41.0697
3.2104	40.4429
3.1985	40.2249
3.1867	39.5058
3.175	38.4163
3.1634	37.816
3.1519	37.7983
3.1404	37.5149
3.129	37.0056
3.1178	35.7539
3.1065	33.6537
3.0954	30.5905
3.0844	27.8657
3.0734	26.109
3.0625	24.8096
3.0517	24.0439
3.041	24.4763
3.0303	24.6083
3.0197	24.3546
3.0092	22.3369
2.9987	19.1092
2.9884	15.1912
2.9781	11.437
2.9678	7.9977
2.9577	6.3568
2.9476	5.8219
2.9376	7.5089
2.9276	11.4642
2.9177	15.8443
2.9079	18.9685
2.8982	20.1591
2.8885	21.1452
2.8789	21.4819
2.8693	22.7552
2.8598	24.3485
2.8504	26.6645
2.841	29.0774
2.8317	31.4171
2.8224	33.7167
2.8133	35.2839
2.8041	36.3183
2.7951	36.1286
2.786	36.8088
2.7771	37.6169
2.7682	40.0198
2.7594	41.4355
2.7506	43.5699
2.7418	45.6325
2.7332	46.1947
2.7246	50.6901
2.716	52.4933
2.7075	55.891
2.699	57.9082
2.6906	59.816
2.6823	60.9355
2.674	61.1572
2.6657	62.9519
2.6575	61.1577
2.6494	62.9456
2.6413	64.5441
2.6332	65.4296
2.6252	65.6213
2.6173	66.9986
2.6094	66.2615
2.6015	65.876
2.5937	67.6554
2.5859	65.5387
2.5782	65.1426
2.5706	65.2536
2.5629	65.0594
2.5554	63.2073
2.5478	62.8886
2.5403	62.2203
2.5329	61.9387
2.5255	61.4429
2.5181	61.3043
2.5108	61.1301
2.5035	60.8145
2.4963	60.4324
2.4891	60.2266
2.482	60.1388
2.4749	60.056
2.4678	59.7042
2.4608	59.1672
2.4538	58.7223
2.4468	58.096
2.4399	57.3995
2.4331	56.8871
2.4262	55.956
2.4194	55.513
2.4127	54.634
2.4059	53.7837
2.3993	53.0409
2.3926	51.9713
2.386	50.691
2.3795	48.1771
2.3729	45.8181
2.3664	45.6086
2.36	46.2178
2.3535	46.2296
2.3471	45.4517
2.3408	44.1183
2.3345	41.9442
2.3282	39.0028
2.3219	38.1922
2.3157	39.1811
2.3095	39.634
2.3034	39.6996
2.2972	40.1163
2.2911	40.7875
2.2851	41.021
2.279	41.0733
2.2731	41.0577
2.2671	41.0955
2.2612	41.3662
2.2553	41.6042
2.2494	41.6499
2.2435	41.5399
2.2377	41.3826
2.232	41.049
2.2262	41.0915
2.2205	40.5938
2.2148	40.5834
2.2091	40.3608
2.2035	40.333
2.1979	40.3359
2.1923	39.9239
2.1868	39.8407
2.1812	39.5879
2.1758	39.3727
2.1703	39.2907
2.1649	39.1373
2.1595	38.963
2.1541	38.8716
2.1487	38.9228
2.1434	39.0064
2.1381	38.8276
2.1328	38.7631
2.1275	38.5237
2.1223	38.6123
2.1171	38.5658
2.112	38.2631
2.1068	38.2797
2.1017	38.295
2.0966	38.6128
2.0915	38.1124
2.0865	38.5165
2.0814	38.5285
2.0764	38.2935
2.0715	38.3606
2.0665	38.5152
2.0616	38.5777
2.0567	38.7449
2.0518	38.7482
2.0469	38.3027
2.0421	38.9969
2.0373	38.7559
2.0325	38.7004
2.0277	38.6653
2.0229	38.7735
2.0182	39.2501
2.0135	39.0562
2.0088	39.2051
2.0042	39.2492
