Name: Hypersthene (Mg,Fe^2+)_2Si_2O_6
Type: Mineral
Class: Silicate
Subclass: Inosilicate
Particle Size: Fine
Sample No.: IN-14A
Owner: JPL
Wavelength Range: VSWIR
Origin: France, Martinique, Caribbean, Mount Pelee
Description: Particle size was  0-45um.Collected by JPL Original ASTER Spectral Library name was jpl.beckman.mineral.silicate.inosilicate.fine.in14a.spectrum.txt
Measurement: Hemispherical reflectance
X Units: Wavelength (micrometers)
Y Units: Reflectance (percent)
wavelength	value
0.4	31.92
0.403	32.63
0.406	32.98
0.409	33.51
0.412	33.9
0.415	34.35
0.418	34.58
0.421	34.76
0.424	34.77
0.427	34.86
0.43	35.21
0.433	35.47
0.436	35.61
0.439	35.58
0.442	35.38
0.445	35.32
0.448	35.43
0.451	35.75
0.454	36.18
0.457	36.28
0.46	36.38
0.463	36.55
0.466	36.64
0.469	36.87
0.472	36.79
0.475	36.54
0.478	36.87
0.481	36.87
0.484	37.18
0.487	37.44
0.49	37.57
0.493	37.68
0.496	37.83
0.499	37.99
0.502	37.98
0.505	37.99
0.508	38.26
0.511	38.35
0.514	38.46
0.517	38.61
0.52	38.83
0.523	38.94
0.526	39.07
0.529	38.85
0.532	39.04
0.535	39.05
0.538	39.24
0.541	39.22
0.544	39.28
0.547	39.29
0.55	39.35
0.553	39.69
0.556	39.75
0.559	39.83
0.562	40.28
0.565	40.5
0.568	40.45
0.571	40.54
0.574	40.55
0.577	40.72
0.58	40.75
0.583	40.93
0.586	40.94
0.589	41.1
0.592	41.22
0.595	41.41
0.598	41.4
0.601	41.44
0.604	41.74
0.607	41.78
0.61	41.93
0.613	42.01
0.616	42.05
0.619	41.97
0.622	42.23
0.625	42.29
0.628	42.34
0.631	42.55
0.634	42.58
0.637	42.66
0.64	42.79
0.643	42.99
0.646	43.05
0.649	43.24
0.652	43.36
0.655	43.47
0.658	43.54
0.661	43.79
0.664	43.77
0.667	43.93
0.67	44.07
0.673	44.18
0.676	44.3
0.679	44.53
0.682	44.53
0.685	44.76
0.688	44.9
0.691	45.02
0.694	45.08
0.697	45.16
0.7	45.31
0.703	45.67
0.706	45.56
0.709	45.62
0.712	45.84
0.715	46.02
0.718	46.07
0.721	46.19
0.724	46.11
0.727	46.19
0.73	46.39
0.733	46.42
0.736	46.39
0.739	46.56
0.742	46.51
0.745	46.48
0.748	46.53
0.751	46.36
0.754	46.39
0.757	46.36
0.76	46.45
0.763	46.28
0.766	46.19
0.769	46.11
0.772	46.02
0.775	45.93
0.778	45.73
0.781	45.49
0.784	45.32
0.787	45.12
0.79	44.86
0.793	44.58
0.796	44.41
0.799	44.08
0.808	43.23
0.82	41.77
0.832	40.09
0.844	38.7
0.856	37.17
0.868	36.01
0.88	35.05
0.892	34.34
0.904	34.14
0.916	34.1
0.928	34.7
0.94	35.48
0.952	36.75
0.964	38.18
0.976	39.71
0.988	41.55
1	42.85
1.012	44.58
1.024	46.1
1.036	47.21
1.048	48.15
1.06	48.88
1.072	49.39
1.084	49.89
1.096	50.08
1.108	50.42
1.12	50.55
1.132	50.62
1.144	50.64
1.156	50.71
1.168	50.66
1.18	50.69
1.192	50.63
1.204	50.61
1.216	50.54
1.228	50.55
1.24	50.47
1.252	50.37
1.264	50.37
1.276	50.3
1.288	50.29
1.3	50.08
1.312	50.03
1.324	49.9
1.336	49.8
1.348	49.67
1.36	49.53
1.372	49.26
1.384	49.08
1.396	48.88
1.408	48.79
1.42	48.56
1.432	48.29
1.444	48.04
1.456	47.81
1.468	47.47
1.48	47.3
1.492	46.92
1.504	46.66
1.516	46.38
1.528	46.09
1.54	45.63
1.552	45.37
1.564	45.06
1.576	44.7
1.588	44.33
1.6	44.1
1.612	43.67
1.624	43.28
1.636	43.04
1.648	42.66
1.66	42.38
1.672	42.15
1.684	42
1.696	41.62
1.708	41.39
1.72	41.3
1.732	40.96
1.744	40.84
1.756	40.64
1.768	40.49
1.78	40.48
1.792	40.37
1.804	40.44
1.816	40.27
1.828	40.33
1.84	40.32
1.852	40.49
1.864	40.52
1.876	40.6
1.888	40.73
1.9	40.96
1.912	41.12
1.924	41.25
1.936	41.6
1.948	41.89
1.96	42.12
1.972	42.45
1.984	42.79
1.996	43.17
2.008	43.5
2.02	43.88
2.032	44.18
2.044	44.59
2.056	44.91
2.068	45.24
2.08	45.66
2.092	45.97
2.104	46.28
2.116	46.71
2.128	46.97
2.14	47.15
2.152	47.3
2.164	47.5
2.176	47.65
2.188	47.89
2.2	48.02
2.212	48.14
2.224	48.32
2.236	48.51
2.248	48.72
2.26	48.83
2.272	48.99
2.284	49.12
2.296	49.22
2.308	49.24
2.32	49.55
2.332	49.68
2.344	49.73
2.356	49.89
2.368	49.77
2.38	49.93
2.392	49.9
2.404	49.98
2.416	50.01
2.428	50.07
2.44	50.03
2.452	50.11
2.464	50.01
2.476	50.08
2.488	50.24
2.5	50.51
