Name: Barite, BaSO4
Type: Mineral
Class: Sulfate
Subclass: None
Particle Size: Coarse
Sample No.: barite_1
Owner: JHU
Wavelength Range: TIR
Origin: Norma Vergo Sample from Carterville, Georgia.
Description: The pure white sample appeared to be pure barite with many grains showing what apear to be fluid inclusions.Particle size was 74-250 Micrometers. Original ASTER Spectral Library name was jhu.nicolet.mineral.sulfate.none.coarse.barite1.spectrum.txt
Measurement: Bidirectional reflectance
X Units: Wavelength (micrometers)
Y Units: Reflectance (percent)
wavelength	value
25.0442	5.2778
24.3388	5.978
23.6719	6.6164
23.0407	6.9387
22.4422	6.6753
21.8741	6.5007
21.334	4.8765
20.8199	6.5176
20.33	7.124
19.8627	6.7363
19.4163	6.083
18.9896	5.521
18.5812	4.7395
18.19	4.0818
17.815	3.6228
17.4551	2.9324
17.1094	2.1182
16.7772	2.0098
16.4576	3.2478
16.15	2.8318
15.8537	1.4482
15.568	1.6982
15.2925	1.0718
15.0265	0.8152
14.7697	1.8862
14.5214	2.5373
14.2814	2.4687
14.0492	2.7266
13.8244	3.2786
13.6067	3.4919
13.3957	3.7915
13.1912	3.883
12.9929	3.5078
12.8004	3.1074
12.6135	3.0151
12.432	3.0146
12.2557	3.1079
12.0843	3.4761
11.9176	4.189
11.7555	4.9055
11.5977	5.0369
11.444	4.386
11.2944	3.7236
11.1487	3.3684
11.0067	3.0371
10.8682	2.7954
10.7332	2.8884
10.6015	2.7356
10.473	2.3992
10.3476	1.7971
10.2251	1.5183
10.1056	1.374
9.9887	1.709
9.8746	1.6809
9.763	1.7126
9.6539	1.8555
9.5472	2.1072
9.4429	2.604
9.3408	3.3064
9.2409	3.8992
9.1431	4.6597
9.0474	5.3623
8.9536	5.865
8.8618	6.0764
8.7718	5.8379
8.6837	4.7283
8.5973	3.9805
8.5126	3.2913
8.4295	2.6997
8.3481	2.3284
8.2682	2.2231
8.1898	2.4099
8.1129	2.4643
8.0374	1.6941
7.9634	1.0347
7.8906	0.5481
7.8192	0.4397
7.7491	0.6018
7.6802	0.8962
7.6126	1.2495
7.5461	1.6606
7.4807	1.9614
7.4165	2.2356
7.3534	2.8149
7.2914	3.5627
7.2303	4.5818
7.1703	5.2222
7.1113	5.7681
7.0533	6.6719
6.9962	6.7773
6.94	6.4089
6.8847	7.2888
6.8302	7.6111
6.7767	7.8498
6.7239	7.8298
6.672	7.498
6.6209	6.3567
6.5705	4.5962
6.5209	3.425
6.4721	3.3259
6.424	3.4993
6.3766	4.2546
6.3299	4.7178
6.2838	3.3437
6.2385	3.4617
6.1937	4.2927
6.1496	4.967
6.1062	6.3638
6.0633	7.4438
6.0211	7.8391
5.9794	8.2178
5.9383	8.4306
5.8978	8.4582
5.8578	8.3105
5.8184	8.2842
5.7794	8.5027
5.741	8.5969
5.7031	8.6177
5.6657	8.6802
5.6288	8.8034
5.5924	8.8926
5.5564	8.9089
5.5209	8.9255
5.4859	9.0127
5.4513	9.1316
5.4171	9.3271
5.3833	9.6755
5.35	9.9416
5.3171	10.1257
5.2846	10.1714
5.2524	10.1447
5.2207	10.1135
5.1893	9.8337
5.1584	9.6911
5.1277	8.9699
5.0975	5.8645
5.0676	6.9492
5.038	8.675
5.0088	8.3027
4.98	7.5774
4.9514	6.2781
4.9232	4.3935
4.8953	2.3281
4.8678	1.7803
4.8405	1.4834
4.8135	1.7576
4.7868	1.8284
4.7605	2.0105
4.7344	2.0696
4.7086	1.7903
4.6831	1.6743
4.6578	1.8401
4.6328	2.2742
4.6081	2.2932
4.5837	2.2273
4.5595	2.0745
4.5356	2.2859
4.5119	2.7117
4.4884	3.0786
4.4652	3.1997
4.4423	3.3081
4.4196	3.5266
4.3971	3.8183
4.3748	4.0427
4.3528	4.3406
4.331	4.5308
4.3094	4.364
4.288	4.1196
4.2668	4.1882
4.2458	4.3808
4.2251	4.8017
4.2045	5.5012
4.1841	6.4975
4.164	7.7004
4.144	8.5403
4.1242	9.145
4.1046	9.6255
4.0852	9.9963
4.066	10.353
4.047	10.6006
4.0281	10.7695
4.0094	10.9045
3.9909	10.9558
3.9725	10.9878
3.9544	11.0874
3.9363	11.2082
3.9185	11.3393
3.9008	11.3044
3.8833	11.115
3.8659	11.1716
3.8487	11.3383
3.8316	11.4836
3.8147	11.6457
3.7979	11.7102
3.7813	11.7197
3.7648	11.7072
3.7485	11.695
3.7323	11.7107
3.7162	11.7182
3.7003	11.7141
3.6845	11.7173
3.6689	11.705
3.6534	11.6831
3.638	11.6411
3.6227	11.603
3.6076	11.5737
3.5926	11.542
3.5777	11.5215
3.563	11.4944
3.5484	11.4416
3.5338	11.4023
3.5195	11.3537
3.5052	11.323
3.491	11.2888
3.477	11.2761
3.463	11.2309
3.4492	11.2068
3.4355	11.1667
3.4219	11.1274
3.4084	11.0588
3.395	10.9297
3.3817	11.0686
3.3685	11.0566
3.3554	11.0329
3.3425	10.9511
3.3296	10.7859
3.3168	10.426
3.3041	10.0478
3.2915	10.1291
3.279	10.1589
3.2666	10.2405
3.2543	10.2424
3.2421	10.271
3.23	10.1562
3.218	9.9734
3.206	9.876
3.1942	9.8193
3.1824	9.758
3.1707	9.678
3.1591	9.6252
3.1476	9.583
3.1362	9.5134
3.1249	9.4516
3.1136	9.3764
3.1024	9.3135
3.0913	9.2563
3.0803	9.2319
3.0694	9.1963
3.0585	9.1506
3.0477	9.1152
3.037	9.0744
3.0264	9.0595
3.0158	9.0417
3.0053	9.0271
2.9949	8.9968
2.9845	8.9624
2.9743	8.9367
2.9641	8.8979
2.9539	8.8728
2.9439	8.855
2.9339	8.8305
2.9239	8.8347
2.9141	8.8198
2.9043	8.8418
2.8946	8.8462
2.8849	8.8755
2.8753	8.9018
2.8658	8.9331
2.8563	8.9721
2.8469	9.0263
2.8375	9.1174
2.8282	9.1963
2.819	9.3022
2.8098	9.4287
2.8007	9.5595
2.7917	9.7187
2.7827	9.8613
2.7738	10.0542
2.7649	10.2568
2.7561	10.4453
2.7473	10.6421
2.7386	10.79
2.7299	10.9531
2.7213	11.0532
2.7128	11.1831
2.7043	11.2749
2.6959	11.355
2.6875	11.4443
2.6791	11.4887
2.6709	11.499
2.6626	11.5549
2.6545	11.5749
2.6463	11.5791
2.6382	11.5835
2.6302	11.5405
2.6222	11.561
2.6143	11.541
2.6064	11.5244
2.5986	11.5478
2.5908	11.521
2.583	11.4875
2.5753	11.4753
2.5677	11.4428
2.5601	11.438
2.5525	11.4472
2.545	11.4267
2.5375	11.4248
2.5301	11.427
2.5227	11.3789
2.5154	11.3574
2.5081	11.3457
2.5008	11.3249
2.4936	11.3261
2.4864	11.3571
2.4793	11.3308
2.4722	11.3
2.4651	11.3354
2.4581	11.3093
2.4511	11.2917
2.4442	11.2895
2.4373	11.2737
2.4305	11.2514
2.4236	11.2827
2.4169	11.2475
2.4101	11.2519
2.4034	11.2373
2.3967	11.2446
2.3901	11.2202
2.3835	11.2075
2.377	11.1943
2.3704	11.1836
2.364	11.1718
2.3575	11.1858
2.3511	11.144
2.3447	11.1474
2.3384	11.1167
2.3321	11.0891
2.3258	11.1533
2.3195	11.1135
2.3133	11.1172
2.3071	11.1245
2.301	11.1064
2.2949	11.0908
2.2888	11.1438
2.2828	11.1025
2.2767	11.0725
2.2708	11.0942
2.2648	11.0918
2.2589	11.1006
2.253	11.1194
2.2471	11.0891
2.2413	11.1152
2.2355	11.1115
2.2297	11.1045
2.224	11.1777
2.2183	11.1418
2.2126	11.0988
2.207	11.1543
2.2013	11.174
2.1957	11.1623
2.1902	11.1877
2.1846	11.218
2.1791	11.2197
2.1736	11.1709
2.1682	11.1396
2.1628	11.2182
2.1574	11.1987
2.152	11.2632
2.1466	11.2539
2.1413	11.2334
2.136	11.2485
2.1308	11.2573
2.1255	11.2885
2.1203	11.2763
2.1151	11.3183
2.11	11.3867
2.1048	11.3877
2.0997	11.3803
2.0946	11.4394
2.0895	11.4887
2.0845	11.4575
2.0795	11.5053
