Name: Stilbite NaCa_2Al_5Si_3O_36.14H_2O
Type: Mineral
Class: Silicate
Subclass: Tectosilicate
Particle Size: Fine
Sample No.: TS-9A
Owner: JPL
Wavelength Range: TIR
Origin: India
Description: Particle size was 0-45um.Collected by Grieger's Inc. Original ASTER Spectral Library name was jpl.nicolet.mineral.silicate.tectosilicate.fine.ts09a.spectrum.txt
Measurement: Hemispherical reflectance
X Units: Wavelength (micrometers)
Y Units: Reflectance (percent)
wavelength	value
15.3853	0.9202
15.1161	1.1827
14.8563	0.9952
14.6052	1.4815
14.3624	1.4944
14.1276	1.3669
13.9004	1.2032
13.6803	1.5364
13.4671	1.4575
13.2604	1.5978
13.06	2.0694
12.8656	1.9301
12.6769	2.1501
12.4936	2.4655
12.3155	3.361
12.1425	5.356
11.9742	6.8511
11.8106	8.1292
11.6513	8.9435
11.4963	9.6645
11.3454	10.1644
11.1983	10.3381
11.0551	10.3495
10.9154	9.9231
10.7793	9.2
10.6465	8.1932
10.5169	7.0449
10.3904	5.8154
10.267	5.2843
10.1464	5.066
10.0287	5.4574
9.9136	5.7083
9.8012	6.3599
9.6913	6.7759
9.5838	7.3517
9.4787	7.6597
9.3758	8.0268
9.2752	7.0496
9.1767	5.0881
9.0803	3.6951
8.9858	2.9938
8.8934	2.6312
8.8028	2.6694
8.714	2.4803
8.627	2.56
8.5417	2.2325
8.4581	2.0981
8.3761	2.0385
8.2957	1.8463
8.2169	1.0235
8.1395	0.6191
8.0635	0.2186
7.989	0.1353
7.9158	0.0725
7.8439	0.2772
7.7734	0.4261
7.7041	0.6857
7.636	0.9589
7.5691	1.2008
7.5034	1.5569
7.4388	1.8666
7.3753	2.3553
7.3129	2.7349
7.2515	3.2035
7.1912	3.6087
7.1318	4.1194
7.0734	4.4847
7.016	4.8559
6.9595	5.3171
6.9039	5.7575
6.8492	6.0304
6.7953	6.3917
6.7423	6.6903
6.6901	6.9124
6.6387	7.1372
6.5881	7.2419
6.5382	7.3905
6.4892	7.3464
6.4408	7.1402
6.3931	6.8869
6.3462	6.2922
6.2999	5.6787
6.2543	4.5035
6.2094	3.097
6.1651	1.8382
6.1214	1.1905
6.0784	1.0465
6.0359	1.0294
5.994	1.1568
5.9527	1.4773
5.912	2.3276
5.8718	3.629
5.8322	5.7974
5.7931	7.8278
5.7545	9.6075
5.7165	10.9177
5.6789	11.8073
5.6418	12.5601
5.6052	13.2475
5.5691	13.8225
5.5334	14.5931
5.4982	15.5221
5.4635	16.4984
5.4291	17.5385
5.3952	18.3998
5.3618	19.198
5.3287	19.7521
5.2961	20.1806
5.2638	20.6325
5.2319	20.9896
5.2004	21.577
5.1693	22.1446
5.1386	22.8925
5.1082	23.5695
5.0782	24.3224
5.0485	25.0753
5.0192	25.5278
4.9902	25.7488
4.9616	25.7915
4.9332	25.7598
4.9052	25.3906
4.8776	25.1795
4.8502	24.7904
4.8231	24.2952
4.7963	23.9223
4.7699	23.3183
4.7437	22.7883
4.7178	22.1136
4.6922	21.537
4.6668	21.1026
4.6418	20.6413
4.617	20.3298
4.5924	20.1394
4.5681	20.0813
4.5441	20.1047
4.5203	20.0949
4.4968	20.2924
4.4735	20.4969
4.4505	20.9739
4.4277	21.4885
4.4051	22.1782
4.3828	22.8707
4.3607	23.882
4.3388	24.771
4.3171	25.7056
4.2956	26.5542
4.2744	27.6657
4.2534	29.8278
4.2325	30.1023
4.2119	32.8495
4.1915	35.0906
4.1712	36.6391
4.1512	38.0801
4.1313	39.4961
4.1117	40.9432
4.0922	42.2644
4.0729	43.659
4.0538	44.8021
4.0349	46.0083
4.0161	46.9668
3.9976	47.9093
3.9792	48.714
3.9609	49.3252
3.9428	49.8277
3.9249	50.2066
3.9072	50.4262
3.8896	50.5926
3.8722	50.5978
3.8549	50.5695
3.8378	50.3666
3.8208	50.1205
3.804	49.6669
3.7873	49.257
3.7708	48.787
3.7544	48.0535
3.7382	47.4843
3.7221	46.8311
3.7061	46.0686
3.6903	45.218
3.6746	44.4291
3.659	43.5541
3.6436	42.6542
3.6283	41.4624
3.6131	40.4827
3.5981	39.329
3.5832	38.135
3.5684	37.0223
3.5537	35.8521
3.5391	34.5588
3.5247	33.2486
3.5104	32.0098
3.4962	30.6431
3.4821	29.1769
3.4681	27.7685
3.4543	26.425
3.4405	25.0168
3.4269	23.4841
3.4133	22.2292
3.3999	20.742
3.3866	19.3925
3.3733	17.9778
3.3602	16.8979
3.3472	15.7634
3.3343	14.5822
3.3215	13.3821
3.3088	12.3852
3.2961	11.3555
3.2836	10.667
3.2712	9.6277
3.2588	8.9149
3.2466	8.0837
3.2345	7.5712
3.2224	6.8263
3.2104	6.246
3.1985	5.7708
3.1867	5.242
3.175	4.8426
3.1634	4.5816
3.1519	4.0967
3.1404	3.7287
3.129	3.4078
3.1178	3.124
3.1065	2.9092
3.0954	2.6665
3.0844	2.6214
3.0734	2.5659
3.0625	2.3867
3.0517	2.5742
3.041	2.4983
3.0303	2.3712
3.0197	2.5192
3.0092	2.1812
2.9987	2.432
2.9884	2.068
2.9781	2.0574
2.9678	2.0267
2.9577	2.0113
2.9476	1.9728
2.9376	2.0429
2.9276	1.9244
2.9177	1.9594
2.9079	1.7426
2.8982	1.7407
2.8885	1.6175
2.8789	1.6372
2.8693	1.6825
2.8598	1.6882
2.8504	1.7427
2.841	1.3536
2.8317	1.3688
2.8224	1.7099
2.8133	1.3483
2.8041	1.5269
2.7951	1.3781
2.786	1.4803
2.7771	1.2308
2.7682	1.5567
2.7594	1.4882
2.7506	1.727
2.7418	2.2491
2.7332	3.4498
2.7246	5.27
2.716	7.77
2.7075	10.6508
2.699	13.355
2.6906	15.6431
2.6823	17.7424
2.674	19.8705
2.6657	21.4549
2.6575	22.9551
2.6494	24.0527
2.6413	25.3064
2.6332	26.2
2.6252	27.0437
2.6173	27.8159
2.6094	28.2342
2.6015	28.946
2.5937	29.5624
2.5859	29.9133
2.5782	30.3187
2.5706	30.9928
2.5629	31.3816
2.5554	32.0766
2.5478	32.5157
2.5403	33.1792
2.5329	33.8043
2.5255	34.4778
2.5181	35.4205
2.5108	35.9714
2.5035	36.5205
2.4963	37.1945
2.4891	38.0121
2.482	38.7367
2.4749	39.1916
2.4678	39.6183
2.4608	40.0817
2.4538	40.8306
2.4468	41.2595
2.4399	41.7718
2.4331	42.8933
2.4262	43.8172
2.4194	45.0953
2.4127	46.1774
2.4059	47.6792
2.3993	49.5376
2.3926	51.3378
2.386	53.0883
2.3795	55.0084
2.3729	56.8429
2.3664	58.6048
2.36	60.3092
2.3535	62.0213
2.3471	63.2726
2.3408	64.5663
2.3345	65.7437
2.3282	66.6918
2.3219	67.6411
2.3157	68.3649
2.3095	69.1507
2.3034	69.6316
2.2972	70.2465
2.2911	70.6693
2.2851	71.1822
2.279	71.4101
2.2731	71.7221
2.2671	72.2502
2.2612	72.485
2.2553	72.6911
2.2494	72.9583
2.2435	73.0778
2.2377	73.0452
2.232	73.1034
2.2262	73.182
2.2205	73.4096
2.2148	73.3967
2.2091	73.3102
2.2035	73.4356
2.1979	73.2774
2.1923	73.2914
2.1868	73.3566
2.1812	73.3243
2.1758	73.1968
2.1703	73.1747
2.1649	73.4085
2.1595	73.0193
2.1541	73.2282
2.1487	72.7638
2.1434	72.9719
2.1381	72.7751
2.1328	72.6604
2.1275	72.205
2.1223	72.3275
2.1171	71.8189
2.112	71.7341
2.1068	71.3844
2.1017	71.337
2.0966	71.0548
2.0915	70.95
2.0865	70.5606
2.0814	70.0923
2.0764	69.6794
2.0715	69.9682
2.0665	69.8645
2.0616	69.2822
2.0567	69.1485
2.0518	68.8496
2.0469	68.2356
2.0421	67.7696
2.0373	67.1549
2.0325	66.222
2.0277	65.315
2.0229	64.5774
2.0182	63.5871
2.0135	62.6566
2.0088	61.4805
2.0042	60.2982
