Name: Chlorite
Type: Mineral
Class: Silicate
Subclass: Phyllosilicate
Particle Size: Medium
Sample No.: PS-12F
Owner: JPL
Wavelength Range: VSWIR
Origin: USA, New Mexico
Description: Particle size was 45-125um.Collected by Ward's Original ASTER Spectral Library name was jpl.beckman.mineral.silicate.phyllosilicate.medium.ps12f.spectrum.txt
Measurement: Hemispherical reflectance
X Units: Wavelength (micrometers)
Y Units: Reflectance (percent)
wavelength	value
0.4	6.64
0.403	6.64
0.406	6.86
0.409	6.86
0.412	6.92
0.415	7.29
0.418	7.34
0.421	7.47
0.424	7.68
0.427	7.81
0.43	8.21
0.433	8.27
0.436	8.48
0.439	8.51
0.442	8.73
0.445	8.86
0.448	9.06
0.451	8.94
0.454	9.08
0.457	9.16
0.46	9.23
0.463	9.29
0.466	9.34
0.469	9.68
0.472	9.81
0.475	9.82
0.478	10.15
0.481	10.29
0.484	10.45
0.487	10.49
0.49	10.57
0.493	10.76
0.496	10.94
0.499	11.09
0.502	11.29
0.505	11.42
0.508	11.66
0.511	11.68
0.514	11.86
0.517	11.94
0.52	12.01
0.523	11.99
0.526	12.19
0.529	12.29
0.532	12.36
0.535	12.36
0.538	12.32
0.541	12.43
0.544	12.48
0.547	12.41
0.55	12.65
0.553	12.56
0.556	12.56
0.559	12.67
0.562	12.75
0.565	12.62
0.568	12.5
0.571	12.53
0.574	12.35
0.577	12.34
0.58	12.29
0.583	12.23
0.586	12.1
0.589	12.03
0.592	12.13
0.595	11.97
0.598	11.93
0.601	11.86
0.604	11.7
0.607	11.86
0.61	11.72
0.613	11.57
0.616	11.49
0.619	11.41
0.622	11.37
0.625	11.28
0.628	11.26
0.631	11.07
0.634	11.1
0.637	10.96
0.64	10.99
0.643	10.85
0.646	10.76
0.649	10.72
0.652	10.59
0.655	10.63
0.658	10.62
0.661	10.42
0.664	10.53
0.667	10.33
0.67	10.31
0.673	10.25
0.676	10.14
0.679	10.2
0.682	10.04
0.685	10.01
0.688	10.01
0.691	9.91
0.694	10.05
0.697	9.92
0.7	9.86
0.703	9.82
0.706	9.78
0.709	9.77
0.712	9.8
0.715	9.7
0.718	9.72
0.721	9.72
0.724	9.78
0.727	9.82
0.73	9.7
0.733	9.79
0.736	9.74
0.739	9.76
0.742	9.72
0.745	9.69
0.748	9.93
0.751	9.94
0.754	9.86
0.757	10.03
0.76	10.11
0.763	9.97
0.766	9.97
0.769	10.04
0.772	10.07
0.775	9.85
0.778	9.93
0.781	10.07
0.784	10.08
0.787	10.09
0.79	10.06
0.793	10.08
0.796	10.22
0.799	10.33
0.808	10.41
0.82	10.36
0.832	10.24
0.844	10.08
0.856	10.07
0.868	9.97
0.88	9.8
0.892	9.74
0.904	9.82
0.916	9.82
0.928	10
0.94	10.1
0.952	10.35
0.964	10.62
0.976	10.76
0.988	10.71
1	10.91
1.012	11.08
1.024	11.06
1.036	11.05
1.048	11.08
1.06	11.01
1.072	11.05
1.084	11.04
1.096	11.16
1.108	11.27
1.12	11.4
1.132	11.53
1.144	11.76
1.156	12
1.168	12.2
1.18	12.62
1.192	12.97
1.204	13.39
1.216	13.92
1.228	14.37
1.24	14.89
1.252	15.44
1.264	15.92
1.276	16.55
1.288	17.06
1.3	17.59
1.312	18.21
1.324	18.88
1.336	19.55
1.348	20.19
1.36	20.83
1.372	21.31
1.384	21.9
1.396	21.47
1.408	19.95
1.42	22.72
1.432	23.74
1.444	24.08
1.456	24.77
1.468	25.32
1.48	25.92
1.492	26.54
1.504	26.95
1.516	27.48
1.528	27.96
1.54	28.43
1.552	28.89
1.564	29.42
1.576	30.08
1.588	30.75
1.6	31.5
1.612	32.18
1.624	32.92
1.636	33.55
1.648	34.15
1.66	34.85
1.672	35.5
1.684	36.08
1.696	36.8
1.708	37.55
1.72	38.1
1.732	38.52
1.744	39.01
1.756	39.51
1.768	40.1
1.78	40.62
1.792	41.02
1.804	41.26
1.816	41.56
1.828	41.92
1.84	42.23
1.852	42.49
1.864	42.54
1.876	42.57
1.888	42.73
1.9	42.98
1.912	43.36
1.924	43.87
1.936	44.1
1.948	44.06
1.96	43.81
1.972	43.57
1.984	43.15
1.996	42.84
2.008	43.03
2.02	43.96
2.032	45.32
2.044	46.71
2.056	47.72
2.068	48.5
2.08	49.09
2.092	49.55
2.104	49.77
2.116	49.87
2.128	49.67
2.14	49.81
2.152	49.8
2.164	49.63
2.176	49.37
2.188	49
2.2	48.11
2.212	46.91
2.224	44.55
2.236	40.24
2.248	35.31
2.26	33.66
2.272	35.49
2.284	37.09
2.296	37.09
2.308	35.78
2.32	34.27
2.332	32.56
2.344	31.05
2.356	30.64
2.368	31.99
2.38	34.63
2.392	36.96
2.404	38.18
2.416	38.51
2.428	38.48
2.44	38.26
2.452	37.81
2.464	36.91
2.476	35.88
2.488	35.06
2.5	34.37
