Name: Atacamite Cu_2Cl(OH)_3
Type: Mineral
Class: Halide
Subclass: None
Particle Size: Medium
Sample No.: H-4A
Owner: JPL
Wavelength Range: TIR
Origin: Chile, Atacama, Copiapo
Description: Particle size was 45-125um.Collected by Grieger's Inc. Original ASTER Spectral Library name was jpl.nicolet.mineral.halide.none.medium.h04a.spectrum.txt
Measurement: Hemispherical reflectance
X Units: Wavelength (micrometers)
Y Units: Reflectance (percent)
wavelength	value
15.3853	1.2483
15.1161	1.184
14.8563	1.2751
14.6052	1.221
14.3624	1.434
14.1276	1.276
13.9004	1.3994
13.6803	1.5151
13.4671	1.6094
13.2604	1.6499
13.06	1.6243
12.8656	1.5145
12.6769	1.59
12.4936	1.5826
12.3155	1.8135
12.1425	1.424
11.9742	1.8502
11.8106	2.066
11.6513	1.5865
11.4963	1.5517
11.3454	1.8428
11.1983	2.1681
11.0551	1.9773
10.9154	2.4259
10.7793	1.931
10.6465	1.9517
10.5169	2.2839
10.3904	2.4758
10.267	2.8157
10.1464	3.939
10.0287	3.992
9.9136	5.013
9.8012	5.8628
9.6913	6.6959
9.5838	7.0846
9.4787	6.9117
9.3758	5.3941
9.2752	3.8344
9.1767	2.6102
9.0803	1.901
8.9858	1.4575
8.8934	1.3556
8.8028	1.146
8.714	1.0322
8.627	1.0579
8.5417	0.96
8.4581	1.2212
8.3761	1.063
8.2957	1.2254
8.2169	1.2559
8.1395	1.5914
8.0635	1.5751
7.989	1.877
7.9158	1.851
7.8439	1.9543
7.7734	2.1089
7.7041	2.0175
7.636	2.2261
7.5691	2.4633
7.5034	2.4705
7.4388	2.44
7.3753	2.5297
7.3129	2.8172
7.2515	2.7801
7.1912	2.8447
7.1318	2.8176
7.0734	2.8879
7.016	2.8704
6.9595	2.9458
6.9039	2.8416
6.8492	2.8506
6.7953	2.8324
6.7423	3.2235
6.6901	3.2528
6.6387	3.0029
6.5881	3.1912
6.5382	3.2027
6.4892	2.9228
6.4408	3.0633
6.3931	2.8144
6.3462	2.4137
6.2999	2.1692
6.2543	1.9348
6.2094	1.6117
6.1651	1.409
6.1214	1.3128
6.0784	1.1821
6.0359	1.2355
5.994	1.1612
5.9527	1.3419
5.912	1.3653
5.8718	1.5875
5.8322	1.7257
5.7931	2.1103
5.7545	2.403
5.7165	2.689
5.6789	2.8014
5.6418	2.8663
5.6052	2.9741
5.5691	3.0773
5.5334	3.1411
5.4982	3.3122
5.4635	3.3675
5.4291	3.2985
5.3952	3.5149
5.3618	3.6517
5.3287	3.8804
5.2961	3.9108
5.2638	4.114
5.2319	4.2053
5.2004	4.3094
5.1693	4.2069
5.1386	4.2124
5.1082	4.1132
5.0782	4.5311
5.0485	4.8955
5.0192	5.0645
4.9902	5.5529
4.9616	5.7659
4.9332	5.8614
4.9052	6.0375
4.8776	6.0697
4.8502	6.1382
4.8231	6.1109
4.7963	6.2505
4.7699	6.4082
4.7437	6.4314
4.7178	6.5706
4.6922	6.8607
4.6668	7.214
4.6418	7.3243
4.617	7.5584
4.5924	7.8862
4.5681	8.0756
4.5441	8.3104
4.5203	8.7318
4.4968	8.9286
4.4735	9.0993
4.4505	9.3435
4.4277	9.4855
4.4051	9.8288
4.3828	10.0695
4.3607	10.3142
4.3388	10.5064
4.3171	10.7711
4.2956	11.135
4.2744	11.3654
4.2534	11.6503
4.2325	11.8904
4.2119	12.0219
4.1915	12.0314
4.1712	12.2213
4.1512	12.2827
4.1313	12.4052
4.1117	12.4495
4.0922	12.6396
4.0729	12.6142
4.0538	12.7136
4.0349	12.664
4.0161	12.3916
3.9976	12.7945
3.9792	12.6543
3.9609	12.389
3.9428	12.0191
3.9249	11.4187
3.9072	12.0651
3.8896	11.9923
3.8722	11.9625
3.8549	11.8297
3.8378	11.6653
3.8208	11.3931
3.804	11.3319
3.7873	10.998
3.7708	10.6781
3.7544	10.2189
3.7382	9.9695
3.7221	9.6992
3.7061	9.3414
3.6903	8.9216
3.6746	8.5411
3.659	8.2561
3.6436	7.7684
3.6283	7.3879
3.6131	7.0107
3.5981	6.7911
3.5832	6.3636
3.5684	6.0508
3.5537	5.5282
3.5391	5.0801
3.5247	4.509
3.5104	4.1975
3.4962	4.1344
3.4821	4.1353
3.4681	3.9424
3.4543	3.9755
3.4405	3.652
3.4269	3.6856
3.4133	3.5047
3.3999	3.2208
3.3866	3.0629
3.3733	2.9056
3.3602	2.5565
3.3472	2.467
3.3343	2.5911
3.3215	2.4985
3.3088	2.2811
3.2961	2.1942
3.2836	2.0754
3.2712	2.1264
3.2588	1.9664
3.2466	1.8842
3.2345	1.8871
3.2224	1.8975
3.2104	1.9343
3.1985	1.873
3.1867	1.819
3.175	1.7087
3.1634	1.6936
3.1519	1.7805
3.1404	1.7348
3.129	1.8312
3.1178	1.7294
3.1065	1.6033
3.0954	1.7109
3.0844	1.7076
3.0734	1.7386
3.0625	1.7568
3.0517	1.7506
3.041	1.8555
3.0303	1.9542
3.0197	1.9941
3.0092	2.4762
2.9987	3.299
2.9884	3.8639
2.9781	2.9791
2.9678	1.7979
2.9577	0.9467
2.9476	1.0764
2.9376	1.0491
2.9276	1.3734
2.9177	1.6657
2.9079	2.0268
2.8982	2.2891
2.8885	1.234
2.8789	1.0409
2.8693	0.8792
2.8598	0.7657
2.8504	1.0337
2.841	1.3185
2.8317	1.0031
2.8224	1.0793
2.8133	1.2089
2.8041	1.122
2.7951	1.2859
2.786	1.0571
2.7771	1.2795
2.7682	1.526
2.7594	1.6814
2.7506	2.122
2.7418	2.0424
2.7332	2.5253
2.7246	2.8174
2.716	3.2162
2.7075	3.7205
2.699	4.494
2.6906	5.7495
2.6823	7.1714
2.674	8.4183
2.6657	8.9827
2.6575	10.5389
2.6494	11.4643
2.6413	11.8062
2.6332	11.9282
2.6252	12.6194
2.6173	12.8752
2.6094	13.3504
2.6015	13.7396
2.5937	13.5433
2.5859	14.8206
2.5782	15.5592
2.5706	16.0047
2.5629	15.8389
2.5554	16.1845
2.5478	17.2234
2.5403	18.1953
2.5329	19.2612
2.5255	20.209
2.5181	21.1571
2.5108	22.3781
2.5035	23.079
2.4963	23.5415
2.4891	23.4597
2.482	22.272
2.4749	20.4487
2.4678	17.9279
2.4608	20.2925
2.4538	24.2982
2.4468	25.9575
2.4399	27.3362
2.4331	28.3799
2.4262	28.8699
2.4194	29.1381
2.4127	29.1042
2.4059	28.5276
2.3993	28.3082
2.3926	29.1617
2.386	29.5831
2.3795	29.0118
2.3729	29.1667
2.3664	30.0231
2.36	30.5404
2.3535	30.9462
2.3471	30.5284
2.3408	29.4355
2.3345	29.9188
2.3282	32.2239
2.3219	33.3434
2.3157	33.212
2.3095	33.7429
2.3034	34.3753
2.2972	34.9648
2.2911	34.7498
2.2851	33.9112
2.279	33.5219
2.2731	33.8626
2.2671	33.5521
2.2612	33.4491
2.2553	33.1632
2.2494	34.1617
2.2435	35.6832
2.2377	38.2189
2.232	40.0304
2.2262	41.2988
2.2205	41.9901
2.2148	41.8198
2.2091	41.3553
2.2035	42.1713
2.1979	42.7427
2.1923	42.982
2.1868	43.5577
2.1812	43.5828
2.1758	43.2348
2.1703	42.068
2.1649	40.1386
2.1595	37.7896
2.1541	39.5174
2.1487	42.3331
2.1434	44.7814
2.1381	46.281
2.1328	47.0384
2.1275	47.5902
2.1223	47.5364
2.1171	47.6693
2.112	47.7312
2.1068	47.1691
2.1017	46.8697
2.0966	47.0733
2.0915	47.1622
2.0865	46.7951
2.0814	46.6627
2.0764	46.445
2.0715	46.3389
2.0665	45.6581
2.0616	45.5825
2.0567	44.9014
2.0518	44.5316
2.0469	43.8538
2.0421	43.3057
2.0373	42.3334
2.0325	41.4837
2.0277	40.5109
2.0229	39.5614
2.0182	38.9987
2.0135	38.1749
2.0088	36.4565
2.0042	34.7699
