Name: Biotite K(Mg,Fe+2)3(Al,Fe+3)Si3O10(OH,F)2
Type: Mineral
Class: Silicate
Subclass: Phyllosilicate
Particle Size: Solid
Sample No.: biotite_1
Owner: JHU
Wavelength Range: TIR
Origin: Source Smithsonian NMNH 78303 Sample from Wakefield,Quebec, Canada.
Description: Sample consisted of four large (5 cm x 5 cm x 3 cm) pieces of a single hexagonal "book" weighing 15.7 g. A 1 mm sample was dark brown in color, while a thin cleavage flake was tan. Despite the high magnesium content (see ancillary file), cleavage surfaces do not display the coppery glint typical of phlogopite. Sample was pure except for a very few (much less than 1%) opaque inclusions. (Mica Group) Original ASTER Spectral Library name was jhu.nicolet.mineral.silicate.phyllosilicate.solid.biotit1.spectrum.txt
Measurement: Bidirectional reflectance
X Units: Wavelength (micrometers)
Y Units: Reflectance (percent)
wavelength	value
25.0442	33.6484
24.3388	35.4921
23.6719	38.454
23.0407	43.247
22.4422	49.3007
21.8741	56.0003
21.334	61.1429
20.8199	59.7967
20.33	60.4906
19.8627	62.2406
19.4163	61.3416
18.9896	60.4864
18.5812	60.6493
18.19	55.4286
17.815	41.0792
17.4551	25.0969
17.1094	18.0805
16.7772	16.9614
16.4576	16.7944
16.15	16.3068
15.8537	15.4331
15.568	15.1049
15.2925	15.1753
15.0265	14.8252
14.7697	14.935
14.5214	15.111
14.2814	15.4782
14.0492	15.3999
13.8244	15.123
13.6067	14.3967
13.3957	13.9763
13.1912	14.4436
12.9929	14.7893
12.8004	15.2419
12.6135	15.9023
12.432	16.4155
12.2557	16.8076
12.0843	17.2944
11.9176	18.0285
11.7555	19.0986
11.5977	19.3764
11.444	19.7753
11.2944	21.7329
11.1487	21.83
11.0067	22.5038
10.8682	23.7621
10.7332	25.1572
10.6015	27.8451
10.473	31.7699
10.3476	35.4994
10.2251	37.0795
10.1056	40.7538
9.9887	50.2972
9.8746	60.8138
9.763	57.6234
9.6539	51.9481
9.5472	49.0472
9.4429	48.4574
9.3408	49.9208
9.2409	51.3763
9.1431	48.2836
9.0474	40.4713
8.9536	33.5727
8.8618	26.9931
8.7718	18.7985
8.6837	11.1416
8.5973	6.3584
8.5126	6.477
8.4295	7.1606
8.3481	7.968
8.2682	8.508
8.1898	8.9226
8.1129	9.4114
8.0374	9.9824
7.9634	10.4323
7.8906	10.8044
7.8192	11.1272
7.7491	11.4328
7.6802	11.7016
7.6126	11.893
7.5461	12.049
7.4807	12.1284
7.4165	12.2014
7.3534	12.2312
7.2914	12.2932
7.2303	12.5486
7.1703	12.8884
7.1113	13.3957
7.0533	13.7546
6.9962	14.0188
6.94	14.1567
6.8847	14.2443
6.8302	14.2717
6.7767	14.4414
6.7239	14.6533
6.672	15.0078
6.6209	15.3061
6.5705	15.538
6.5209	15.8154
6.4721	15.9262
6.424	15.757
6.3766	15.5354
6.3299	15.0908
6.2838	14.6809
6.2385	14.3435
6.1937	14.0456
6.1496	13.8689
6.1062	13.6772
6.0633	13.6496
6.0211	13.7173
5.9794	13.7671
5.9383	13.7932
5.8978	13.9194
5.8578	14.0754
5.8184	14.0876
5.7794	14.2602
5.741	14.435
5.7031	14.5979
5.6657	14.7692
5.6288	14.861
5.5924	14.781
5.5564	14.7097
5.5209	14.7324
5.4859	14.6865
5.4513	14.7592
5.4171	14.7707
5.3833	14.8093
5.35	14.8457
5.3171	14.9531
5.2846	15.0693
5.2524	15.1862
5.2207	15.3252
5.1893	15.4575
5.1584	15.6106
5.1277	15.7426
5.0975	15.8115
5.0676	15.9148
5.038	15.9699
5.0088	15.9931
4.98	15.9902
4.9514	15.9326
4.9232	15.8674
4.8953	15.8203
4.8678	15.8147
4.8405	15.7963
4.8135	15.7924
4.7868	15.8037
4.7605	15.8291
4.7344	15.8442
4.7086	15.8261
4.6831	15.8059
4.6578	15.8361
4.6328	15.9262
4.6081	16.0241
4.5837	16.1333
4.5595	16.1982
4.5356	16.2763
4.5119	16.3344
4.4884	16.4228
4.4652	16.4814
4.4423	16.529
4.4196	16.5791
4.3971	16.6401
4.3748	16.7085
4.3528	16.77
4.331	16.8198
4.3094	16.8708
4.288	16.9213
4.2668	16.9731
4.2458	16.9821
4.2251	16.9777
4.2045	16.9538
4.1841	16.9094
4.164	16.8461
4.144	16.737
4.1242	16.6452
4.1046	16.5302
4.0852	16.4289
4.066	16.3139
4.047	16.1999
4.0281	16.0888
4.0094	16.039
3.9909	16.0253
3.9725	16.0888
3.9544	16.1943
3.9363	16.3203
3.9185	16.4545
3.9008	16.604
3.8833	16.7226
3.8659	16.8049
3.8487	16.8896
3.8316	16.9585
3.8147	17.0083
3.7979	17.0307
3.7813	17.041
3.7648	17.0063
3.7485	16.9228
3.7323	16.8447
3.7162	16.7849
3.7003	16.7065
3.6845	16.6184
3.6689	16.5366
3.6534	16.5092
3.638	16.5166
3.6227	16.4838
3.6076	16.4819
3.5926	16.4956
3.5777	16.4992
3.563	16.5039
3.5484	16.5029
3.5338	16.4736
3.5195	16.4604
3.5052	16.458
3.491	16.4912
3.477	16.4743
3.463	16.4458
3.4492	16.3911
3.4355	16.3342
3.4219	16.3086
3.4084	16.3117
3.395	16.258
3.3817	16.2482
3.3685	16.3237
3.3554	16.3264
3.3425	16.3767
3.3296	16.414
3.3168	16.4509
3.3041	16.5273
3.2915	16.5432
3.279	16.5795
3.2666	16.5927
3.2543	16.5771
3.2421	16.582
3.23	16.5588
3.218	16.5529
3.206	16.5219
3.1942	16.4961
3.1824	16.4585
3.1707	16.4338
3.1591	16.3823
3.1476	16.3361
3.1362	16.2851
3.1249	16.2544
3.1136	16.2324
3.1024	16.2148
3.0913	16.1945
3.0803	16.1806
3.0694	16.1584
3.0585	16.1154
3.0477	16.1066
3.037	16.0422
3.0264	16.0048
3.0158	15.9179
3.0053	15.8486
2.9949	15.799
2.9845	15.7746
2.9743	15.6943
2.9641	15.6347
2.9539	15.5666
2.9439	15.5439
2.9339	15.5048
2.9239	15.4709
2.9141	15.4309
2.9043	15.4126
2.8946	15.427
2.8849	15.4336
2.8753	15.3596
2.8658	15.3691
2.8563	15.3557
2.8469	15.3173
2.8375	15.2724
2.8282	15.2119
2.819	15.144
2.8098	15.0354
2.8007	14.9541
2.7917	14.8271
2.7827	14.7089
2.7738	14.718
2.7649	14.6015
2.7561	14.5615
2.7473	14.7363
2.7386	14.6035
2.7299	14.5327
2.7213	14.4057
2.7128	14.2788
2.7043	14.0185
2.6959	14.0063
2.6875	14.6635
2.6791	15.206
2.6709	15.2475
2.6626	15.2392
2.6545	15.2099
2.6463	15.1562
2.6382	15.1333
2.6302	15.0581
2.6222	15.061
2.6143	15.0263
2.6064	14.8955
2.5986	14.8989
2.5908	14.8271
2.583	14.7529
2.5753	14.7016
2.5677	14.645
2.5601	14.6123
2.5525	14.5322
2.545	14.5097
2.5375	14.4497
2.5301	14.4087
2.5227	14.3672
2.5154	14.3403
2.5081	14.3359
2.5008	14.3076
2.4936	14.2519
2.4864	14.2617
2.4793	14.1816
2.4722	14.1367
2.4651	14.1054
2.4581	14.083
2.4511	14.0669
2.4442	14.0058
2.4373	13.9961
2.4305	13.9531
2.4236	13.9399
2.4169	13.8955
2.4101	13.8789
2.4034	13.8437
2.3967	13.7871
2.3901	13.75
2.3835	13.7719
2.377	13.7876
2.3704	13.7778
2.364	13.8261
2.3575	13.7705
2.3511	13.6377
2.3447	13.6152
2.3384	13.5976
2.3321	13.5283
2.3258	13.5429
2.3195	13.5586
2.3133	13.5214
2.3071	13.58
2.301	13.6289
2.2949	13.8506
2.2888	13.9951
2.2828	14.0625
2.2767	14.1923
2.2708	14.2597
2.2648	14.3769
2.2589	14.5576
2.253	14.5839
2.2471	14.6767
2.2413	14.7978
2.2355	14.9668
2.2297	14.9736
2.224	15.0351
2.2183	15.082
2.2126	15.0839
2.207	15.0019
2.2013	15.0244
2.1957	15.0517
2.1902	15.0996
2.1846	15.0683
2.1791	15.0507
2.1736	15.1601
2.1682	15.125
2.1628	15.1416
2.1574	15.1953
2.152	15.0918
2.1466	15.1181
2.1413	15.2197
2.136	15.247
2.1308	15.2968
2.1255	15.2714
2.1203	15.3281
2.1151	15.3007
2.11	15.3759
2.1048	15.4892
2.0997	15.5
2.0946	15.5791
2.0895	15.5908
2.0845	15.6445
2.0795	15.6025
