Name: Antlerite Cu_3(SO_4)(OH)_4
Type: Mineral
Class: Sulfate
Subclass: None
Particle Size: Medium
Sample No.: SO-11A
Owner: JPL
Wavelength Range: VSWIR
Origin: USA, Arizona, Greenlee County, Morenci.
Description: Particle size was 45-125um. Collected by:  Burminco Original ASTER Spectral Library name was jpl.perkin.mineral.sulfate.none.medium.so11a.spectrum.txt
Measurement: Hemispherical reflectance
X Units: Wavelength (micrometers)
Y Units: Reflectance (percent)
wavelength	value
2.5	20.6095
2.494	22.3176
2.488	23.325
2.482	23.745
2.476	23.1581
2.47	22.193
2.464	21.1199
2.458	19.8429
2.452	18.9546
2.446	18.7571
2.44	19.6392
2.434	20.9879
2.428	22.3463
2.422	23.3918
2.416	23.8982
2.41	24.0037
2.404	23.5159
2.398	22.2031
2.392	20.4712
2.386	19.2136
2.38	18.0179
2.374	16.3715
2.368	14.0719
2.362	11.9451
2.356	10.3656
2.35	9.6213
2.344	9.9129
2.338	10.7829
2.332	11.5857
2.326	11.8278
2.32	11.1101
2.314	9.7951
2.308	8.9012
2.302	9.4353
2.296	11.4493
2.29	14.1518
2.284	17.333
2.278	20.1577
2.272	22.4625
2.266	23.7426
2.26	23.6829
2.254	21.8222
2.248	19.926
2.242	19.9652
2.236	22.0012
2.23	24.7109
2.224	27.916
2.218	30.8008
2.212	33.0432
2.206	34.0893
2.2	34.2177
2.194	33.7525
2.188	33.7596
2.182	35.1096
2.176	36.0632
2.17	36.4468
2.164	36.0704
2.158	34.5023
2.152	33.0277
2.146	33.7003
2.14	35.2421
2.134	35.9199
2.128	36.4733
2.122	36.6775
2.116	35.9889
2.11	36.219
2.104	37.5555
2.098	38.8119
2.092	39.2403
2.086	39.3213
2.08	39.4384
2.074	39.5458
2.068	39.7782
2.062	40.0863
2.056	40.28
2.05	40.3771
2.044	40.4274
2.038	40.4465
2.032	40.2725
2.026	40.1461
2.02	40.1141
2.014	40.0168
2.008	39.947
2.002	40
1.996	39.8985
1.99	39.7119
1.984	39.4656
1.978	39.0173
1.972	38.3157
1.966	37.8223
1.96	37.8858
1.954	38.2691
1.948	38.6173
1.942	38.9535
1.936	39.3211
1.93	39.3949
1.924	39.5407
1.918	39.6232
1.912	39.6991
1.906	40.1877
1.9	40.6212
1.894	40.9934
1.888	41.1681
1.882	41.2347
1.876	41.419
1.87	41.6513
1.864	41.7982
1.858	41.9045
1.852	41.8719
1.846	41.8781
1.84	42.0324
1.834	42.0546
1.828	42.0165
1.822	42.0296
1.816	42.0755
1.81	42.0347
1.804	42.0824
1.798	42.1217
1.792	42.1002
1.786	42.088
1.78	42.0247
1.774	41.9643
1.768	41.9029
1.762	41.892
1.756	41.7789
1.75	41.7547
1.744	41.7494
1.738	41.6392
1.732	41.5652
1.726	41.5581
1.72	41.4418
1.714	41.3891
1.708	41.4299
1.702	41.3796
1.696	41.3409
1.69	41.2819
1.684	41.2636
1.678	41.1653
1.672	41.0485
1.666	41.0107
1.66	40.9423
1.654	40.9356
1.648	40.7881
1.642	40.7711
1.636	40.439
1.63	40.4367
1.624	40.3347
1.618	40.2177
1.612	39.9667
1.606	39.9255
1.6	39.7358
1.594	39.5688
1.588	39.3685
1.582	39.1155
1.576	38.9545
1.57	38.7798
1.564	38.513
1.558	38.2895
1.552	37.9842
1.546	37.6895
1.54	37.4644
1.534	37.0667
1.528	36.7548
1.522	36.361
1.516	35.8573
1.51	35.2418
1.504	34.6414
1.498	34.0002
1.492	32.9014
1.486	30.9438
1.48	25.3428
1.474	22.0064
1.468	27.2724
1.462	29.3332
1.456	30.2278
1.45	30.3289
1.444	29.5447
1.438	25.421
1.432	16.407
1.426	27.9458
1.42	28.0707
1.414	26.0403
1.408	28.0499
1.402	27.8866
1.396	27.3743
1.39	27.4424
1.384	26.9304
1.378	26.5543
1.372	26.1593
1.366	25.6301
1.36	25.1076
1.354	24.5258
1.348	24.1154
1.342	23.5595
1.336	22.9535
1.33	22.4609
1.324	21.9026
1.318	21.3017
1.312	20.7372
1.306	20.2938
1.3	19.7848
1.294	19.2455
1.288	18.7372
1.282	18.2685
1.276	17.806
1.27	17.3755
1.264	16.8986
1.258	16.4228
1.252	16.0544
1.246	15.614
1.24	15.1823
1.234	14.7959
1.228	14.412
1.222	13.9841
1.216	13.6771
1.21	13.2574
1.204	12.9692
1.198	12.6465
1.192	12.3094
1.186	12.0898
1.18	11.7944
1.174	11.5096
1.168	11.2742
1.162	11.0445
1.156	10.7652
1.15	10.5038
1.144	10.3871
1.138	10.108
1.132	9.971
1.126	9.7492
1.12	9.5308
1.114	9.409
1.108	9.2388
1.102	9.0461
1.096	8.9421
1.09	8.8678
1.084	8.7672
1.078	8.5883
1.072	8.4776
1.066	8.3156
1.06	8.1682
1.054	8.1076
1.048	7.9668
1.042	7.811
1.036	7.7691
1.03	7.7149
1.024	7.6014
1.018	7.4938
1.012	7.4949
1.006	7.3424
1	7.2631
0.994	7.1507
0.988	7.1316
0.982	7.0698
0.976	6.9378
0.97	6.9419
0.964	6.8664
0.958	6.8756
0.952	6.8813
0.946	6.7916
0.94	6.7459
0.934	6.7794
0.928	6.7302
0.922	6.8089
0.916	6.6735
0.91	6.7434
0.904	6.7408
0.898	6.7367
0.892	6.7314
0.886	6.7907
0.88	6.8367
0.874	6.8292
0.868	6.9149
0.862	6.8912
0.856	7.1554
0.85	7.2179
0.844	7.2511
0.838	7.273
0.832	7.3008
0.826	7.3147
0.82	7.3364
0.814	7.3537
0.808	7.3567
0.802	7.3504
0.796	7.3538
0.79	7.3217
0.784	7.3056
0.778	7.2813
0.772	7.2533
0.766	7.2273
0.76	7.194
0.754	7.1557
0.748	7.1274
0.742	7.1047
0.736	7.0751
0.73	7.0606
0.724	7.0495
0.718	7.0386
0.712	7.0433
0.706	7.0515
0.7	7.0728
0.694	7.0985
0.688	7.1404
0.682	7.1923
0.676	7.2682
0.67	7.3533
0.664	7.4639
0.658	7.5911
0.652	7.7531
0.646	7.9482
0.64	8.1787
0.634	8.4682
0.628	8.7989
0.622	9.236
0.616	9.7775
0.61	10.4502
0.604	11.2831
0.598	12.3151
0.592	13.5655
0.586	15.0529
0.58	16.7802
0.574	18.6759
0.568	20.7624
0.562	22.9117
0.556	25.0511
0.55	26.9977
0.544	28.6455
0.538	29.9364
0.532	30.7937
0.526	31.213
0.52	31.2034
0.514	30.7826
0.508	30.0093
0.502	28.904
0.496	27.5672
0.49	26.0782
0.484	24.5056
0.478	23.0329
0.472	21.6466
0.466	20.3583
0.46	19.2082
0.454	18.1626
0.448	17.252
0.442	16.3576
0.436	15.531
0.43	14.7851
0.424	14.121
0.418	13.5709
0.412	13.1124
0.406	12.7223
0.4	12.3743
