Name: Meyerhofferite Ca2B6O6(OH)10 * H2O
Type: Mineral
Class: Borate
Subclass: None
Particle Size: Coarse
Sample No.: NMNH96075-3
Owner: Smithsonian Institute, National Museum of Nat. History
Wavelength Range: All
Origin: Inyo County, CA
Description: Meyerhofferite from Inyo County, CASample was Unsieved coarse powder. Original ASTER Spectral Library name was usgs.perknic.mineral.borate.none.coarse.meyerhc.spectrum.txt
Measurement: Directional Hemispherical Reflectance
X Units: Wavelength (micrometers)
Y Units: Reflectance (percent)
wavelength	value
13.9	2.678
13.644	3.018
13.398	2.184
13.16	2.163
12.93	2.565
12.708	2.802
12.494	3.018
12.287	2.462
12.086	2.204
11.892	2.565
11.704	2.451
11.522	2.441
11.346	2.791
11.175	2.76
11.009	2.915
10.848	2.554
10.691	3.018
10.539	3.378
10.391	3.646
10.247	3.996
10.108	2.771
9.972	2.513
9.839	3.718
9.71	4.862
9.585	5.253
9.462	3.811
9.343	3.142
9.226	3.718
9.113	4.614
9.002	4.398
8.894	3.45
8.789	3.687
8.686	4.007
8.585	3.44
8.487	2.513
8.391	2.184
8.297	1.823
8.205	1.463
8.115	1.339
8.027	1.123
7.941	1.123
7.857	1.205
7.774	1.36
7.694	1.504
7.614	1.617
7.537	1.782
7.461	1.957
7.387	2.431
7.314	2.936
7.242	2.493
7.172	2.184
7.103	2.966
7.036	2.894
6.97	1.143
6.905	1.957
6.841	1.916
6.778	0.958
6.717	0.855
6.657	0.958
6.597	0.968
6.539	1.051
6.482	0.999
6.426	1.071
6.37	1.112
6.316	1.195
6.263	1.226
6.21	1.349
6.159	1.267
6.108	1.329
6.058	1.463
6.009	1.648
5.96	1.658
5.913	1.864
5.866	1.885
5.82	2.05
5.775	2.307
5.73	2.451
5.686	2.637
5.643	2.76
5.6	2.966
5.558	3.059
5.517	3.317
5.476	3.43
5.436	3.677
5.396	3.852
5.357	3.986
5.319	4.089
5.281	4.182
5.243	4.233
5.206	4.274
5.17	4.398
5.134	4.378
5.099	4.367
5.064	4.378
5.03	4.378
4.996	4.378
4.962	4.388
4.929	4.419
4.897	4.419
4.865	4.398
4.833	4.408
4.802	4.398
4.771	4.47
4.74	4.47
4.71	4.408
4.68	4.378
4.651	4.295
4.622	4.12
4.593	4.007
4.565	4.038
4.537	4.069
4.509	4.141
4.482	4.202
4.455	4.254
4.428	4.408
4.402	4.583
4.376	4.676
4.35	4.851
4.325	4.975
4.3	5.243
4.275	5.304
4.251	5.274
4.226	5.366
4.202	5.057
4.179	4.975
4.155	5.026
4.132	5.129
4.109	5.304
4.086	5.665
4.064	5.923
4.042	6.118
4.02	6.293
3.998	6.283
3.977	6.231
3.956	6.427
3.935	6.695
3.914	6.983
3.893	7.004
3.873	7.097
3.853	7.107
3.833	7.169
3.813	7.179
3.794	7.2
3.774	7.117
3.755	7.014
3.736	6.901
3.717	6.674
3.699	6.355
3.68	6.036
3.662	5.706
3.644	5.253
3.626	5.006
3.609	4.717
3.591	4.47
3.574	4.316
3.557	4.223
3.54	3.924
3.523	3.76
3.506	3.584
3.49	3.502
3.473	3.42
3.457	3.481
3.441	3.348
3.425	3.224
3.409	3.049
3.394	2.966
3.378	2.853
3.363	2.699
3.348	2.678
3.333	2.451
3.318	2.369
3.303	2.132
3.288	2.029
3.274	1.936
3.259	1.833
3.245	1.782
3.231	1.813
3.217	1.772
3.203	1.782
3.189	1.792
3.176	1.802
3.162	1.71
3.149	1.7
3.135	1.679
3.122	1.689
3.109	1.597
3.096	1.638
3.083	1.627
3.07	1.627
3.058	1.597
3.045	1.524
3.033	1.524
3.02	1.36
3.008	1.442
2.996	1.545
2.984	1.38
2.972	1.524
2.96	1.617
2.948	1.349
2.937	1.597
2.925	1.72
2.913	1.854
2.902	1.916
2.891	1.566
2.879	1.391
2.868	1.318
2.857	0.979
2.846	0.999
2.835	1.04
2.825	1.257
2.814	1.432
2.803	1.658
2.793	1.823
2.782	2.019
2.772	1.967
2.761	2.173
2.751	2.843
2.741	3.42
2.731	4.697
2.721	5.49
2.711	6.427
2.701	7.735
2.691	9.208
2.681	10.125
2.672	10.176
2.662	11.896
2.653	12.041
2.643	12.422
2.634	13.987
2.624	15.12
2.615	15.223
2.606	15.553
2.597	15.986
2.588	15.728
2.579	16.511
2.57	16.944
2.561	16.583
2.552	17.098
2.543	17.026
2.535	16.439
2.526	16.418
2.517	16.686
2.509	17.283
2.5	17.232
2.486	16.797
2.472	16.559
2.458	15.655
2.444	14.823
2.43	15.623
2.416	15.796
2.402	16.02
2.388	17.992
2.374	19.227
2.36	19.777
2.346	19.985
2.332	20.979
2.318	21.367
2.304	21.787
2.29	22.112
2.276	20.997
2.262	17.9
2.248	14.238
2.234	15.474
2.22	15.841
2.206	14.463
2.192	14.467
2.178	16.184
2.164	16.966
2.15	16.59
2.136	16.785
2.122	19.304
2.108	20.613
2.094	21.83
2.08	21.539
2.066	22.442
2.052	24.168
2.038	25.5
2.024	26.573
2.01	26.947
1.996	26.905
1.982	27.237
1.968	27.958
1.954	29.119
1.94	30.135
1.926	30.454
1.912	30.534
1.898	32.887
1.884	35.609
1.87	36.7
1.856	37.004
1.842	37.062
1.828	36.94
1.814	36.501
1.8	36.335
1.786	36.095
1.772	36.419
1.758	36.84
1.744	37.089
1.73	37.43
1.716	38.04
1.702	38.875
1.688	39.55
1.674	40.313
1.66	40.628
1.646	41.095
1.632	41.159
1.618	40.842
1.604	40.182
1.59	38.92
1.576	36.636
1.562	34.234
1.548	32.425
1.534	30.859
1.52	30.726
1.506	30.395
1.492	29.912
1.478	30.143
1.464	31.232
1.45	32.414
1.436	33.466
1.422	26.285
1.408	38.465
1.394	45.825
1.38	50.849
1.366	51.67
1.352	51.545
1.338	53.038
1.324	53.826
1.31	55.429
1.296	56.185
1.282	56.039
1.268	56.797
1.254	57.775
1.24	58.719
1.226	59.677
1.212	60.746
1.198	61.376
1.184	61.869
1.17	62.342
1.156	62.476
1.142	62.965
1.128	63.297
1.114	63.212
1.1	63.445
1.086	63.436
1.072	63.367
1.058	62.895
1.044	62.279
1.03	61.744
1.016	61.109
1.002	61.325
0.988	61.207
0.974	59.233
0.96	61.608
0.946	62.636
0.932	63.28
0.918	63.03
0.904	63.044
0.89	63.339
0.876	62.95
0.862	63.039
0.848	62.357
0.834	62.103
0.82	61.9
0.806	61.606
0.792	61.265
0.778	60.943
0.764	60.611
0.75	60.217
0.736	59.881
0.722	59.499
0.708	59.08
0.694	58.589
0.68	58.043
0.666	57.508
0.652	56.908
0.638	56.294
0.624	55.65
0.61	54.962
0.596	54.261
0.582	53.554
0.568	52.839
0.554	52.139
0.54	51.439
0.526	50.75
0.512	50.063
0.498	49.444
0.484	48.686
0.47	48.087
0.456	47.59
0.442	46.947
0.428	46.4
0.414	45.848
0.4	45.312
