Name: Andesine (Feldspar) (NaSi,CaAl)AlSi_2O_8
Type: Mineral
Class: Silicate
Subclass: Tectosilicate
Particle Size: Medium
Sample No.: TS-4A
Owner: JPL
Wavelength Range: TIR
Description: Particle size was 45-125um.Collected by JPL Original ASTER Spectral Library name was jpl.nicolet.mineral.silicate.tectosilicate.medium.ts04a.spectrum.txt
Measurement: Hemispherical reflectance
X Units: Wavelength (micrometers)
Y Units: Reflectance (percent)
wavelength	value
15.3853	4.2947
15.1161	1.9619
14.8563	1.3812
14.6052	1.9662
14.3624	2.1641
14.1276	2.4663
13.9004	2.6433
13.6803	2.842
13.4671	2.7418
13.2604	2.749
13.06	2.6276
12.8656	2.4841
12.6769	2.2595
12.4936	2.1056
12.3155	2.5182
12.1425	3.6469
11.9742	4.2147
11.8106	4.1641
11.6513	4.3159
11.4963	4.3725
11.3454	4.9174
11.1983	5.252
11.0551	5.8295
10.9154	6.295
10.7793	7.1573
10.6465	7.8445
10.5169	8.2117
10.3904	8.9998
10.267	10.1498
10.1464	11.866
10.0287	13.2248
9.9136	14.4068
9.8012	14.5373
9.6913	14.2342
9.5838	13.0804
9.4787	10.465
9.3758	8.6047
9.2752	8.146
9.1767	8.341
9.0803	8.8338
8.9858	9.4114
8.8934	9.9437
8.8028	10.7276
8.714	11.3413
8.627	11.1972
8.5417	11.1653
8.4581	11.0654
8.3761	10.5476
8.2957	9.0343
8.2169	5.3385
8.1395	2.4157
8.0635	1.0295
7.989	0.2841
7.9158	0.174
7.8439	0.246
7.7734	0.103
7.7041	0.2008
7.636	0.392
7.5691	0.5205
7.5034	0.5562
7.4388	0.7644
7.3753	0.9856
7.3129	1.1122
7.2515	1.4776
7.1912	1.8358
7.1318	2.0267
7.0734	2.3487
7.016	2.6511
6.9595	2.8166
6.9039	3.0257
6.8492	3.1594
6.7953	3.4053
6.7423	3.5582
6.6901	3.6213
6.6387	3.8837
6.5881	4.0387
6.5382	4.0725
6.4892	4.3773
6.4408	4.431
6.3931	4.2841
6.3462	4.3138
6.2999	4.1545
6.2543	4.112
6.2094	4.2016
6.1651	4.3107
6.1214	4.557
6.0784	4.6447
6.0359	4.7923
5.994	4.8754
5.9527	4.8899
5.912	4.8936
5.8718	4.9279
5.8322	4.9941
5.7931	5.0929
5.7545	5.1621
5.7165	5.1605
5.6789	5.2652
5.6418	5.3324
5.6052	5.6203
5.5691	5.9834
5.5334	6.3776
5.4982	7.0772
5.4635	7.6983
5.4291	8.4479
5.3952	9.3353
5.3618	9.869
5.3287	10.4365
5.2961	10.9431
5.2638	11.2178
5.2319	11.663
5.2004	12.5505
5.1693	13.5667
5.1386	14.6596
5.1082	15.8872
5.0782	17.229
5.0485	18.7794
5.0192	20.1196
4.9902	21.266
4.9616	22.3568
4.9332	23.0999
4.9052	23.6451
4.8776	24.0582
4.8502	24.7264
4.8231	25.3082
4.7963	25.6734
4.7699	26.0465
4.7437	26.6446
4.7178	27.4975
4.6922	28.4476
4.6668	29.7343
4.6418	31.2417
4.617	32.9434
4.5924	34.7059
4.5681	36.4558
4.5441	38.5536
4.5203	40.4293
4.4968	42.4434
4.4735	44.4044
4.4505	46.3921
4.4277	48.0793
4.4051	49.9267
4.3828	51.6972
4.3607	53.6769
4.3388	55.6795
4.3171	57.6316
4.2956	59.4986
4.2744	61.2682
4.2534	62.9941
4.2325	64.6143
4.2119	66.0788
4.1915	67.4171
4.1712	68.3466
4.1512	69.1664
4.1313	69.7737
4.1117	70.1693
4.0922	70.3751
4.0729	70.7221
4.0538	70.8993
4.0349	70.7773
4.0161	70.6851
3.9976	70.2432
3.9792	70.0793
3.9609	70.5453
3.9428	71.4631
3.9249	71.9552
3.9072	72.4585
3.8896	72.6921
3.8722	72.9969
3.8549	73.3339
3.8378	73.7376
3.8208	74.2465
3.804	74.8027
3.7873	75.2012
3.7708	75.5938
3.7544	75.8413
3.7382	76.0145
3.7221	76.2017
3.7061	76.3093
3.6903	76.3525
3.6746	76.4175
3.659	76.5251
3.6436	76.5422
3.6283	76.4047
3.6131	76.3206
3.5981	76.1511
3.5832	75.8814
3.5684	75.5444
3.5537	75.1711
3.5391	74.7089
3.5247	74.1123
3.5104	72.8718
3.4962	71.9492
3.4821	71.6051
3.4681	71.6802
3.4543	71.562
3.4405	70.9033
3.4269	69.9282
3.4133	68.829
3.3999	68.837
3.3866	68.6483
3.3733	68.0187
3.3602	68.043
3.3472	67.7336
3.3343	67.8683
3.3215	67.4898
3.3088	67.0682
3.2961	66.4788
3.2836	66.0594
3.2712	65.2554
3.2588	64.6211
3.2466	63.9072
3.2345	63.1609
3.2224	62.7074
3.2104	61.7732
3.1985	61.0484
3.1867	60.2733
3.175	59.3905
3.1634	58.4592
3.1519	57.5474
3.1404	56.6842
3.129	55.8249
3.1178	54.9864
3.1065	54.2965
3.0954	53.5947
3.0844	53.019
3.0734	52.2863
3.0625	51.9041
3.0517	51.4606
3.041	51.0077
3.0303	50.4591
3.0197	49.9866
3.0092	49.4443
2.9987	49.0477
2.9884	48.4463
2.9781	47.9073
2.9678	47.5629
2.9577	47.1642
2.9476	47.0608
2.9376	46.7694
2.9276	46.7149
2.9177	46.7305
2.9079	46.6692
2.8982	46.6984
2.8885	46.9664
2.8789	47.0703
2.8693	47.0736
2.8598	47.3167
2.8504	47.2932
2.841	47.2859
2.8317	47.2003
2.8224	47.389
2.8133	47.2497
2.8041	46.9677
2.7951	45.9346
2.786	44.1638
2.7771	41.1991
2.7682	38.3023
2.7594	36.0142
2.7506	36.8419
2.7418	38.6161
2.7332	40.9055
2.7246	45.5608
2.716	52.6579
2.7075	60.8234
2.699	67.2166
2.6906	73.7125
2.6823	77.7058
2.674	79.5077
2.6657	81.1125
2.6575	81.0956
2.6494	81.3899
2.6413	81.856
2.6332	82.1054
2.6252	82.1666
2.6173	82.5821
2.6094	82.4991
2.6015	82.521
2.5937	83.2157
2.5859	82.8415
2.5782	82.7852
2.5706	82.9265
2.5629	83.2757
2.5554	82.9111
2.5478	83.0975
2.5403	82.9217
2.5329	82.9672
2.5255	82.9362
2.5181	82.9099
2.5108	82.8847
2.5035	83.017
2.4963	82.8589
2.4891	82.7243
2.482	82.8264
2.4749	82.9078
2.4678	82.846
2.4608	82.7072
2.4538	82.7224
2.4468	82.5523
2.4399	82.7632
2.4331	82.5902
2.4262	82.9777
2.4194	83.0456
2.4127	83.4262
2.4059	83.5953
2.3993	83.7353
2.3926	83.6274
2.386	83.67
2.3795	83.7734
2.3729	83.7459
2.3664	83.8377
2.36	83.7997
2.3535	83.484
2.3471	83.6259
2.3408	83.6976
2.3345	83.7374
2.3282	84.0482
2.3219	84.2955
2.3157	84.4599
2.3095	84.6942
2.3034	84.8034
2.2972	85.0281
2.2911	84.827
2.2851	85.1189
2.279	84.9209
2.2731	85.0559
2.2671	85.0196
2.2612	84.9051
2.2553	84.8379
2.2494	84.8184
2.2435	84.8888
2.2377	84.8619
2.232	84.6819
2.2262	84.4403
2.2205	84.3176
2.2148	84.1724
2.2091	83.7437
2.2035	83.2888
2.1979	83.0682
2.1923	83.3058
2.1868	83.6826
2.1812	84.3028
2.1758	84.4416
2.1703	85.0311
2.1649	85.128
2.1595	85.1017
2.1541	85.1776
2.1487	85.3331
2.1434	85.2942
2.1381	85.6724
2.1328	85.4335
2.1275	85.5577
2.1223	85.4284
2.1171	85.2478
2.112	85.2776
2.1068	85.3359
2.1017	85.4118
2.0966	85.6032
2.0915	85.2847
2.0865	85.3825
2.0814	85.5086
2.0764	85.9717
2.0715	85.5507
2.0665	85.6064
2.0616	85.3695
2.0567	85.5549
2.0518	85.1611
2.0469	85.2631
2.0421	85.2868
2.0373	85.4101
2.0325	85.231
2.0277	84.9644
2.0229	85.1849
2.0182	85.0371
2.0135	85.1603
2.0088	85.2083
2.0042	85.0326
