Name: Chalcocite Cu_2S
Type: Mineral
Class: Sulfide
Subclass: None
Particle Size: Fine
Sample No.: S-8A
Owner: JPL
Wavelength Range: VSWIR
Origin: USA, Alaska, Kennecott
Description: Particle size was 0-45um.Collected by Burmico Original ASTER Spectral Library name was jpl.beckman.mineral.sulfide.none.fine.s08a.spectrum.txt
Measurement: Hemispherical reflectance
X Units: Wavelength (micrometers)
Y Units: Reflectance (percent)
wavelength	value
0.4	3.42
0.403	3.4
0.406	3.33
0.409	3.34
0.412	3.21
0.415	3.33
0.418	3.28
0.421	3.21
0.424	3.21
0.427	3.08
0.43	3.21
0.433	3.16
0.436	3.15
0.439	3.15
0.442	3.03
0.445	3.08
0.448	3.08
0.451	2.96
0.454	3.02
0.457	2.95
0.46	2.99
0.463	3.08
0.466	2.96
0.469	2.96
0.472	2.84
0.475	2.9
0.478	2.9
0.481	2.89
0.484	2.83
0.487	2.76
0.49	2.82
0.493	2.8
0.496	2.85
0.499	2.84
0.502	2.66
0.505	2.77
0.508	2.83
0.511	2.82
0.514	2.75
0.517	2.76
0.52	2.7
0.523	2.69
0.526	2.69
0.529	2.77
0.532	2.65
0.535	2.59
0.538	2.71
0.541	2.64
0.544	2.59
0.547	2.63
0.55	2.62
0.553	2.65
0.556	2.66
0.559	2.63
0.562	2.65
0.565	2.7
0.568	2.75
0.571	2.76
0.574	2.61
0.577	2.65
0.58	2.72
0.583	2.73
0.586	2.73
0.589	2.67
0.592	2.61
0.595	2.61
0.598	2.72
0.601	2.62
0.604	2.71
0.607	2.64
0.61	2.69
0.613	2.69
0.616	2.69
0.619	2.69
0.622	2.68
0.625	2.63
0.628	2.69
0.631	2.63
0.634	2.63
0.637	2.74
0.64	2.64
0.643	2.58
0.646	2.63
0.649	2.57
0.652	2.69
0.655	2.64
0.658	2.69
0.661	2.51
0.664	2.57
0.667	2.63
0.67	2.62
0.673	2.63
0.676	2.57
0.679	2.52
0.682	2.57
0.685	2.63
0.688	2.69
0.691	2.58
0.694	2.51
0.697	2.52
0.7	2.67
0.703	2.62
0.706	2.57
0.709	2.69
0.712	2.51
0.715	2.52
0.718	2.57
0.721	2.58
0.724	2.62
0.727	2.57
0.73	2.57
0.733	2.51
0.736	2.63
0.739	2.62
0.742	2.57
0.745	2.51
0.748	2.62
0.751	2.62
0.754	2.57
0.757	2.5
0.76	2.51
0.763	2.5
0.766	2.56
0.769	2.56
0.772	2.5
0.775	2.5
0.778	2.5
0.781	2.5
0.784	2.55
0.787	2.5
0.79	2.45
0.793	2.5
0.796	2.57
0.799	2.7
0.808	2.77
0.82	2.78
0.832	2.71
0.844	2.67
0.856	2.55
0.868	2.67
0.88	2.61
0.892	2.49
0.904	2.49
0.916	2.44
0.928	2.49
0.94	2.39
0.952	2.39
0.964	2.33
0.976	2.27
0.988	2.38
1	2.31
1.012	2.32
1.024	2.15
1.036	2.2
1.048	2.14
1.06	2.13
1.072	2.07
1.084	2.05
1.096	2.1
1.108	2.03
1.12	1.98
1.132	2.12
1.144	2.02
1.156	2.07
1.168	2.07
1.18	2.01
1.192	2.02
1.204	2
1.216	2.02
1.228	2.07
1.24	2.06
1.252	2.04
1.264	2.14
1.276	2.09
1.288	2.03
1.3	2.08
1.312	2.06
1.324	2.13
1.336	2.13
1.348	2.18
1.36	2.12
1.372	2.19
1.384	2.16
1.396	2.2
1.408	2.19
1.42	2.25
1.432	2.31
1.444	2.25
1.456	2.29
1.468	2.31
1.48	2.31
1.492	2.36
1.504	2.37
1.516	2.47
1.528	2.48
1.54	2.48
1.552	2.41
1.564	2.47
1.576	2.54
1.588	2.6
1.6	2.65
1.612	2.65
1.624	2.65
1.636	2.71
1.648	2.75
1.66	2.69
1.672	2.87
1.684	2.81
1.696	2.86
1.708	2.86
1.72	2.92
1.732	2.99
1.744	2.99
1.756	2.97
1.768	2.99
1.78	3.1
1.792	3.09
1.804	3.15
1.816	3.08
1.828	3.14
1.84	3.18
1.852	3.25
1.864	3.31
1.876	3.33
1.888	3.29
1.9	3.4
1.912	3.42
1.924	3.47
1.936	3.4
1.948	3.5
1.96	3.59
1.972	3.55
1.984	3.63
1.996	3.67
2.008	3.65
2.02	3.72
2.032	3.77
2.044	3.83
2.056	3.88
2.068	3.88
2.08	3.92
2.092	3.97
2.104	4.06
2.116	4.07
2.128	4.12
2.14	4.08
2.152	4.07
2.164	4.11
2.176	4.09
2.188	4.17
2.2	4.21
2.212	4.29
2.224	4.39
2.236	4.35
2.248	4.38
2.26	4.43
2.272	4.39
2.284	4.43
2.296	4.51
2.308	4.56
2.32	4.63
2.332	4.61
2.344	4.65
2.356	4.68
2.368	4.66
2.38	4.76
2.392	4.76
2.404	4.82
2.416	4.87
2.428	4.86
2.44	4.97
2.452	4.96
2.464	4.92
2.476	5.06
2.488	5.08
2.5	5.17
