Name: Halite NaCl
Type: Mineral
Class: Halide
Subclass: None
Particle Size: Coarse
Sample No.: H-3A
Owner: JPL
Wavelength Range: TIR
Origin: USA, Michigan, Wayne County, Detroit
Description: Particle size was 125-500um.Collected by Ward's Original ASTER Spectral Library name was jpl.nicolet.mineral.halide.none.coarse.h03a.spectrum.txt
Measurement: Hemispherical reflectance
X Units: Wavelength (micrometers)
Y Units: Reflectance (percent)
wavelength	value
15.3853	45.676
15.1161	46.7382
14.8563	47.3736
14.6052	48.2837
14.3624	48.9483
14.1276	49.7346
13.9004	50.6458
13.6803	51.3563
13.4671	52.4632
13.2604	53.2296
13.06	54.189
12.8656	55.3073
12.6769	56.3363
12.4936	57.6813
12.3155	58.6027
12.1425	60.0121
11.9742	61.3182
11.8106	62.4869
11.6513	63.5224
11.4963	64.5573
11.3454	65.5131
11.1983	66.4557
11.0551	67.2719
10.9154	67.9561
10.7793	68.4994
10.6465	68.4195
10.5169	67.3808
10.3904	69.43
10.267	69.9789
10.1464	69.9414
10.0287	69.8475
9.9136	69.6434
9.8012	69.6222
9.6913	69.2735
9.5838	69.579
9.4787	69.6449
9.3758	69.7178
9.2752	69.5013
9.1767	69.2601
9.0803	68.6671
8.9858	68.7402
8.8934	68.4882
8.8028	69.087
8.714	69.728
8.627	69.3352
8.5417	70.3394
8.4581	71.281
8.3761	71.6458
8.2957	71.896
8.2169	72.0834
8.1395	72.1707
8.0635	72.1048
7.989	72.0811
7.9158	72.0288
7.8439	71.9487
7.7734	71.5887
7.7041	71.2291
7.636	70.966
7.5691	71.1165
7.5034	71.4421
7.4388	71.0735
7.3753	71.0836
7.3129	70.3798
7.2515	70.0673
7.1912	70.7819
7.1318	70.9475
7.0734	70.4775
7.016	70.6568
6.9595	72.7519
6.9039	71.2939
6.8492	71.495
6.7953	72.8009
6.7423	71.7567
6.6901	72.9961
6.6387	77.3462
6.5881	74.047
6.5382	72.0747
6.4892	75.5554
6.4408	69.9208
6.3931	67.8813
6.3462	67.6726
6.2999	62.7385
6.2543	59.7781
6.2094	56.6634
6.1651	54.6468
6.1214	53.8351
6.0784	54.3532
6.0359	54.6666
5.994	57.8577
5.9527	60.2891
5.912	63.8202
5.8718	68.7757
5.8322	72.4698
5.7931	73.853
5.7545	76.8876
5.7165	79.3054
5.6789	79.8197
5.6418	82.2976
5.6052	80.7563
5.5691	81.198
5.5334	81.2376
5.4982	81.433
5.4635	82.6879
5.4291	82.2963
5.3952	81.7627
5.3618	81.9855
5.3287	81.7279
5.2961	81.9729
5.2638	81.5217
5.2319	81.5551
5.2004	81.5698
5.1693	81.1088
5.1386	80.9033
5.1082	80.4463
5.0782	80.1875
5.0485	79.7691
5.0192	79.6148
4.9902	79.0826
4.9616	78.7144
4.9332	78.3605
4.9052	78.0521
4.8776	77.7095
4.8502	77.6074
4.8231	77.5268
4.7963	77.4725
4.7699	77.4266
4.7437	77.4518
4.7178	77.4826
4.6922	77.5633
4.6668	77.7686
4.6418	77.9175
4.617	78.0651
4.5924	78.2085
4.5681	78.4327
4.5441	78.4686
4.5203	78.7819
4.4968	78.8552
4.4735	78.8943
4.4505	79.1358
4.4277	79.2445
4.4051	79.458
4.3828	79.5821
4.3607	79.7294
4.3388	79.992
4.3171	80.3303
4.2956	80.7761
4.2744	80.9992
4.2534	81.0643
4.2325	81.7114
4.2119	81.6115
4.1915	81.5951
4.1712	81.7649
4.1512	82.0383
4.1313	82.3594
4.1117	82.5093
4.0922	82.8854
4.0729	83.1146
4.0538	83.2974
4.0349	83.5504
4.0161	83.6727
3.9976	83.9023
3.9792	84.0364
3.9609	84.1524
3.9428	84.282
3.9249	84.4667
3.9072	84.5746
3.8896	84.6305
3.8722	84.5382
3.8549	84.5984
3.8378	84.6688
3.8208	84.5196
3.804	84.5012
3.7873	84.4689
3.7708	84.2606
3.7544	84.1705
3.7382	84.0745
3.7221	83.9118
3.7061	83.6104
3.6903	83.3784
3.6746	83.0347
3.659	82.8348
3.6436	82.5705
3.6283	82.1916
3.6131	81.792
3.5981	81.4027
3.5832	80.9125
3.5684	80.4099
3.5537	79.8229
3.5391	79.0912
3.5247	78.2452
3.5104	77.0489
3.4962	75.9134
3.4821	75.2685
3.4681	74.4623
3.4543	73.7507
3.4405	72.8427
3.4269	71.5514
3.4133	70.2509
3.3999	70.0469
3.3866	69.4878
3.3733	67.3606
3.3602	66.3109
3.3472	66.812
3.3343	66.3376
3.3215	65.3978
3.3088	64.4028
3.2961	63.2119
3.2836	61.9842
3.2712	60.9316
3.2588	59.7211
3.2466	58.5471
3.2345	57.2423
3.2224	56.1784
3.2104	55.0333
3.1985	53.8496
3.1867	52.679
3.175	51.462
3.1634	50.4953
3.1519	49.3603
3.1404	48.4754
3.129	47.5139
3.1178	46.7286
3.1065	45.9348
3.0954	45.1518
3.0844	44.6863
3.0734	44.2955
3.0625	43.8592
3.0517	43.4892
3.041	43.1081
3.0303	42.7678
3.0197	42.3264
3.0092	41.9325
2.9987	41.4611
2.9884	40.9238
2.9781	40.8388
2.9678	40.5636
2.9577	40.4728
2.9476	40.5999
2.9376	40.6376
2.9276	40.8155
2.9177	41.2325
2.9079	41.5936
2.8982	41.8601
2.8885	42.615
2.8789	43.0196
2.8693	43.7799
2.8598	44.3677
2.8504	45.3178
2.841	46.0616
2.8317	46.9963
2.8224	48.1239
2.8133	49.1057
2.8041	51.1083
2.7951	51.5171
2.786	53.9387
2.7771	54.8383
2.7682	57.3581
2.7594	58.49
2.7506	61.0935
2.7418	65.9181
2.7332	67.7191
2.7246	73.2519
2.716	73.9568
2.7075	76.829
2.699	78.7177
2.6906	80.3947
2.6823	81.9115
2.674	83.0319
2.6657	86.8911
2.6575	83.2612
2.6494	83.357
2.6413	83.9012
2.6332	84.8275
2.6252	84.9101
2.6173	86.9342
2.6094	85.51
2.6015	85.3042
2.5937	88.2516
2.5859	85.6815
2.5782	85.0623
2.5706	85.4079
2.5629	86.4036
2.5554	84.5404
2.5478	84.9014
2.5403	84.7033
2.5329	84.8866
2.5255	84.6666
2.5181	84.7926
2.5108	84.7253
2.5035	84.8776
2.4963	84.9567
2.4891	85.1523
2.482	85.1681
2.4749	85.1279
2.4678	85.3735
2.4608	85.4191
2.4538	85.6836
2.4468	85.7278
2.4399	85.7685
2.4331	85.867
2.4262	86.0062
2.4194	86.1599
2.4127	86.1903
2.4059	86.2614
2.3993	86.2701
2.3926	86.4366
2.386	86.4283
2.3795	86.7044
2.3729	86.54
2.3664	86.8628
2.36	86.8354
2.3535	86.8608
2.3471	86.8428
2.3408	87.0315
2.3345	87.2029
2.3282	87.0798
2.3219	87.2665
2.3157	87.1892
2.3095	87.1393
2.3034	87.1748
2.2972	87.2501
2.2911	87.2943
2.2851	87.3558
2.279	87.2822
2.2731	87.4528
2.2671	87.3779
2.2612	87.3466
2.2553	87.4857
2.2494	87.3918
2.2435	87.6073
2.2377	87.4678
2.232	87.5129
2.2262	87.549
2.2205	87.5945
2.2148	87.632
2.2091	87.3175
2.2035	87.6163
2.1979	87.5328
2.1923	87.711
2.1868	87.6695
2.1812	87.3955
2.1758	87.4881
2.1703	87.4545
2.1649	87.5758
2.1595	87.4038
2.1541	87.4161
2.1487	87.2892
2.1434	87.3355
2.1381	87.1299
2.1328	87.2206
2.1275	87.3758
2.1223	87.3997
2.1171	87.4311
2.112	87.2459
2.1068	87.2094
2.1017	87.1924
2.0966	87.1767
2.0915	87.2387
2.0865	87.1143
2.0814	86.9558
2.0764	86.7572
2.0715	87.0435
2.0665	86.7031
2.0616	86.6942
2.0567	86.6682
2.0518	86.8158
2.0469	86.4811
2.0421	86.4968
2.0373	86.3516
2.0325	86.4191
2.0277	86.2035
2.0229	85.9653
2.0182	85.9269
2.0135	85.8914
2.0088	85.5388
2.0042	85.6003
