Name: Malachite Cu_2(CO_3)(OH)_2
Type: Mineral
Class: Carbonate
Subclass: None
Particle Size: Coarse
Sample No.: C-7A
Owner: JPL
Wavelength Range: VSWIR
Origin: USA, California, San Bernadino County, Near Valley Wells
Description: Particle size was 125-500um.Collected by Burminco Original ASTER Spectral Library name was jpl.beckman.mineral.carbonate.none.coarse.c07a.spectrum.txt
Measurement: Hemispherical reflectance
X Units: Wavelength (micrometers)
Y Units: Reflectance (percent)
wavelength	value
0.4	11.61
0.403	13
0.406	13.93
0.409	14.73
0.412	15.48
0.415	16.36
0.418	17.06
0.421	17.68
0.424	18.29
0.427	18.86
0.43	19.42
0.433	20.01
0.436	20.56
0.439	21.02
0.442	21.6
0.445	22.21
0.448	22.84
0.451	23.41
0.454	24.04
0.457	24.75
0.46	25.26
0.463	26.26
0.466	26.98
0.469	27.87
0.472	28.66
0.475	29.46
0.478	30.24
0.481	31.01
0.484	31.74
0.487	32.53
0.49	33.07
0.493	33.78
0.496	34.26
0.499	34.8
0.502	35.24
0.505	35.7
0.508	36
0.511	36.27
0.514	36.42
0.517	36.57
0.52	36.64
0.523	36.56
0.526	36.35
0.529	35.95
0.532	35.52
0.535	34.9
0.538	34.39
0.541	33.63
0.544	32.82
0.547	31.8
0.55	30.93
0.553	29.81
0.556	28.81
0.559	27.93
0.562	26.64
0.565	25.36
0.568	24.22
0.571	23.01
0.574	21.92
0.577	20.81
0.58	19.79
0.583	18.66
0.586	17.75
0.589	16.76
0.592	15.93
0.595	15.22
0.598	14.46
0.601	13.67
0.604	12.95
0.607	12.27
0.61	11.68
0.613	11.05
0.616	10.46
0.619	9.95
0.622	9.49
0.625	9.13
0.628	8.66
0.631	8.39
0.634	7.93
0.637	7.59
0.64	7.34
0.643	7.07
0.646	6.79
0.649	6.56
0.652	6.23
0.655	6.14
0.658	5.87
0.661	5.7
0.664	5.54
0.667	5.4
0.67	5.29
0.673	5.11
0.676	5.07
0.679	4.89
0.682	4.71
0.685	4.7
0.688	4.6
0.691	4.54
0.694	4.36
0.697	4.31
0.7	4.27
0.703	4.14
0.706	4.18
0.709	4.03
0.712	4.02
0.715	3.91
0.718	3.91
0.721	3.8
0.724	3.79
0.727	3.67
0.73	3.63
0.733	3.73
0.736	3.68
0.739	3.56
0.742	3.5
0.745	3.5
0.748	3.56
0.751	3.55
0.754	3.55
0.757	3.44
0.76	3.49
0.763	3.44
0.766	3.44
0.769	3.43
0.772	3.38
0.775	3.43
0.778	3.38
0.781	3.49
0.784	3.48
0.787	3.43
0.79	3.48
0.793	3.49
0.796	3.72
0.799	3.72
0.808	4.24
0.82	4.23
0.832	4.31
0.844	4.37
0.856	4.5
0.868	4.57
0.88	4.69
0.892	4.82
0.904	5
0.916	5.29
0.928	5.65
0.94	5.94
0.952	6.35
0.964	6.72
0.976	7.12
0.988	7.49
1	7.74
1.012	8.16
1.024	8.61
1.036	8.82
1.048	9.11
1.06	9.38
1.072	9.55
1.084	9.72
1.096	9.84
1.108	9.91
1.12	9.97
1.132	10.05
1.144	10.09
1.156	10.17
1.168	10.2
1.18	10.27
1.192	10.33
1.204	10.4
1.216	10.53
1.228	10.65
1.24	10.76
1.252	10.87
1.264	11.05
1.276	11.2
1.288	11.43
1.3	11.59
1.312	11.73
1.324	11.99
1.336	12.13
1.348	12.33
1.36	12.51
1.372	12.64
1.384	12.59
1.396	12.4
1.408	11.85
1.42	12.29
1.432	12.82
1.444	13.32
1.456	13.71
1.468	14.14
1.48	14.63
1.492	15.11
1.504	15.64
1.516	16.07
1.528	16.52
1.54	17.03
1.552	17.55
1.564	18.13
1.576	18.62
1.588	19.19
1.6	19.77
1.612	20.31
1.624	20.98
1.636	21.61
1.648	22.21
1.66	22.87
1.672	23.35
1.684	23.73
1.696	24.38
1.708	25.03
1.72	25.53
1.732	26.12
1.744	26.74
1.756	27.25
1.768	27.93
1.78	28.45
1.792	29.04
1.804	29.52
1.816	29.99
1.828	30.43
1.84	30.69
1.852	30.74
1.864	29.89
1.876	27.24
1.888	23.05
1.9	18.97
1.912	17.49
1.924	17.99
1.936	18.96
1.948	19.92
1.96	21
1.972	22.07
1.984	23.26
1.996	24.4
2.008	25.38
2.02	26.31
2.032	27.25
2.044	28.05
2.056	28.67
2.068	29.16
2.08	29.76
2.092	30.25
2.104	30.73
2.116	31.23
2.128	31.64
2.14	31.63
2.152	31.2
2.164	30.45
2.176	29.3
2.188	27.59
2.2	25.47
2.212	23.63
2.224	22.41
2.236	20.68
2.248	18.36
2.26	16.53
2.272	16.3
2.284	17.21
2.296	18.37
2.308	19.38
2.32	19.63
2.332	18.81
2.344	17.47
2.356	16.64
2.368	16.19
2.38	15.74
2.392	15.13
2.404	14.58
2.416	14.38
2.428	14.37
2.44	14.39
2.452	14.41
2.464	14.49
2.476	14.46
2.488	14.49
2.5	14.37
