Name: Quartz SiO_2
Type: Mineral
Class: Silicate
Subclass: Tectosilicate
Particle Size: Coarse
Sample No.: TS-1D
Owner: JPL
Wavelength Range: VSWIR
Origin: USA, Coloradi, Buffalo
Description: Milky quartz. Particle size was 125-500um.Collected by Ward's Original ASTER Spectral Library name was jpl.beckman.mineral.silicate.tectosilicate.coarse.ts01d.spectrum.txt
Measurement: Hemispherical reflectance
X Units: Wavelength (micrometers)
Y Units: Reflectance (percent)
wavelength	value
0.4	82.02
0.403	82.05
0.406	82.24
0.409	82.38
0.412	82.27
0.415	82.44
0.418	82.5
0.421	82.69
0.424	82.52
0.427	82.47
0.43	82.71
0.433	82.93
0.436	82.72
0.439	82.9
0.442	83.16
0.445	83.05
0.448	83.04
0.451	83.26
0.454	83.46
0.457	83.35
0.46	83.35
0.463	83.61
0.466	83.54
0.469	83.54
0.472	83.81
0.475	83.88
0.478	83.73
0.481	83.9
0.484	83.9
0.487	83.84
0.49	83.87
0.493	83.91
0.496	83.9
0.499	83.93
0.502	84.24
0.505	84.14
0.508	84.18
0.511	84.18
0.514	84.31
0.517	84.27
0.52	84.31
0.523	84.59
0.526	84.37
0.529	84.35
0.532	84.45
0.535	84.38
0.538	84.46
0.541	84.45
0.544	84.51
0.547	84.55
0.55	84.6
0.553	84.91
0.556	84.73
0.559	84.77
0.562	85.32
0.565	85.04
0.568	85.03
0.571	85
0.574	84.79
0.577	84.64
0.58	84.78
0.583	84.69
0.586	84.68
0.589	84.79
0.592	84.82
0.595	84.85
0.598	84.78
0.601	84.81
0.604	84.86
0.607	84.95
0.61	84.97
0.613	84.74
0.616	84.9
0.619	84.89
0.622	84.75
0.625	84.81
0.628	84.94
0.631	84.79
0.634	84.73
0.637	84.73
0.64	85
0.643	84.68
0.646	84.8
0.649	84.91
0.652	84.9
0.655	84.76
0.658	84.78
0.661	84.91
0.664	84.8
0.667	84.82
0.67	84.98
0.673	84.95
0.676	84.79
0.679	84.99
0.682	84.98
0.685	84.85
0.688	84.86
0.691	84.83
0.694	84.98
0.697	84.89
0.7	84.83
0.703	84.79
0.706	84.87
0.709	84.97
0.712	84.84
0.715	84.81
0.718	84.98
0.721	84.96
0.724	84.93
0.727	84.98
0.73	84.99
0.733	84.86
0.736	84.8
0.739	84.99
0.742	84.97
0.745	84.84
0.748	84.84
0.751	84.97
0.754	84.89
0.757	84.77
0.76	84.81
0.763	84.91
0.766	84.85
0.769	84.71
0.772	84.95
0.775	84.9
0.778	84.92
0.781	84.9
0.784	85.09
0.787	84.83
0.79	85.03
0.793	85.08
0.796	85.11
0.799	84.99
0.808	85.13
0.82	85.24
0.832	85.28
0.844	85.23
0.856	85.38
0.868	85.44
0.88	85.38
0.892	85.44
0.904	85.33
0.916	85.37
0.928	85.38
0.94	85.43
0.952	85.47
0.964	85.48
0.976	85.48
0.988	85.4
1	85.43
1.012	85.43
1.024	85.48
1.036	85.57
1.048	85.43
1.06	85.51
1.072	85.56
1.084	85.6
1.096	85.59
1.108	85.66
1.12	85.76
1.132	85.73
1.144	85.69
1.156	85.6
1.168	85.6
1.18	85.72
1.192	85.64
1.204	85.71
1.216	85.66
1.228	85.62
1.24	85.52
1.252	85.56
1.264	85.58
1.276	85.63
1.288	85.67
1.3	85.57
1.312	85.62
1.324	85.59
1.336	85.52
1.348	85.51
1.36	85.52
1.372	85.47
1.384	85.36
1.396	85.23
1.408	85.04
1.42	85.1
1.432	85.1
1.444	85.17
1.456	85.08
1.468	85.21
1.48	85.36
1.492	85.34
1.504	85.25
1.516	85.32
1.528	85.39
1.54	85.36
1.552	85.47
1.564	85.51
1.576	85.47
1.588	85.54
1.6	85.57
1.612	85.59
1.624	85.59
1.636	85.67
1.648	85.74
1.66	85.76
1.672	85.83
1.684	85.78
1.696	85.79
1.708	85.9
1.72	85.92
1.732	85.75
1.744	85.73
1.756	85.71
1.768	85.7
1.78	85.71
1.792	85.76
1.804	85.72
1.816	85.78
1.828	85.69
1.84	85.66
1.852	85.61
1.864	85.45
1.876	85.26
1.888	84.67
1.9	84.2
1.912	83.77
1.924	83.67
1.936	83.56
1.948	83.73
1.96	83.88
1.972	84.3
1.984	84.56
1.996	84.86
2.008	84.95
2.02	85.43
2.032	85.48
2.044	85.64
2.056	85.74
2.068	85.78
2.08	85.95
2.092	86
2.104	86.27
2.116	86.44
2.128	86.56
2.14	86.46
2.152	86.19
2.164	85.98
2.176	85.84
2.188	85.61
2.2	85.59
2.212	85.54
2.224	85.65
2.236	85.62
2.248	85.65
2.26	85.75
2.272	85.83
2.284	85.81
2.296	85.76
2.308	85.83
2.32	85.95
2.332	85.98
2.344	85.86
2.356	85.86
2.368	85.66
2.38	85.62
2.392	85.54
2.404	85.42
2.416	85.25
2.428	85.11
2.44	85.1
2.452	84.96
2.464	84.67
2.476	84.53
2.488	84.8
2.5	85.08
