Name: Zircon ZrSiO_4
Type: Mineral
Class: Silicate
Subclass: Nesosilicate
Particle Size: Medium
Sample No.: NS-9A
Owner: JPL
Wavelength Range: TIR
Origin: Malawi, Southern Malawi, Blantyre-Limbe District
Description: Particle size was 45-125um.Collected by Burminco Original ASTER Spectral Library name was jpl.nicolet.mineral.silicate.nesosilicate.medium.ns09a.spectrum.txt
Measurement: Hemispherical reflectance
X Units: Wavelength (micrometers)
Y Units: Reflectance (percent)
wavelength	value
15.3853	3.8814
15.1161	3.8595
14.8563	3.8317
14.6052	4.0561
14.3624	4.3553
14.1276	4.7939
13.9004	4.9873
13.6803	5.3448
13.4671	5.8194
13.2604	6.3075
13.06	6.6521
12.8656	7.4383
12.6769	7.5808
12.4936	7.9065
12.3155	8.9527
12.1425	10.3367
11.9742	11.8909
11.8106	14.3767
11.6513	17.8142
11.4963	20.5955
11.3454	21.8149
11.1983	22.3384
11.0551	22.8713
10.9154	23.0251
10.7793	24.2524
10.6465	24.1559
10.5169	24.275
10.3904	24.1288
10.267	23.1313
10.1464	21.4022
10.0287	19.2201
9.9136	17.323
9.8012	15.0627
9.6913	10.62
9.5838	7.8602
9.4787	6.8993
9.3758	6.3713
9.2752	5.8959
9.1767	4.7389
9.0803	2.5487
8.9858	1.2442
8.8934	0.7269
8.8028	0.2042
8.714	0.3835
8.627	0.191
8.5417	0.6468
8.4581	0.5177
8.3761	0.7824
8.2957	1.0086
8.2169	1.1273
8.1395	1.3775
8.0635	1.5451
7.989	1.7597
7.9158	2.0009
7.8439	2.1721
7.7734	2.5021
7.7041	2.7096
7.636	3.0422
7.5691	3.3992
7.5034	3.6733
7.4388	3.9005
7.3753	4.3244
7.3129	4.7699
7.2515	5.0059
7.1912	5.4051
7.1318	5.9298
7.0734	6.684
7.016	7.4107
6.9595	8.1932
6.9039	8.9559
6.8492	10.1794
6.7953	11.1496
6.7423	11.4563
6.6901	11.4979
6.6387	11.7806
6.5881	11.1706
6.5382	11.1809
6.4892	12.8231
6.4408	13.2871
6.3931	13.8404
6.3462	13.95
6.2999	13.1162
6.2543	13.6905
6.2094	15.0987
6.1651	16.8765
6.1214	19.1643
6.0784	20.8609
6.0359	21.4612
5.994	22.3803
5.9527	22.3248
5.912	22.2594
5.8718	22.5228
5.8322	21.921
5.7931	20.9524
5.7545	20.0423
5.7165	18.3668
5.6789	15.7492
5.6418	13.439
5.6052	11.682
5.5691	11.6734
5.5334	11.8841
5.4982	11.7933
5.4635	12.3644
5.4291	12.7113
5.3952	12.4153
5.3618	12.0486
5.3287	12.321
5.2961	12.6475
5.2638	12.8666
5.2319	13.1741
5.2004	13.0887
5.1693	12.9356
5.1386	13.7163
5.1082	15
5.0782	16.4457
5.0485	17.8032
5.0192	18.9816
4.9902	20.2288
4.9616	21.8623
4.9332	23.9103
4.9052	26.1448
4.8776	28.6662
4.8502	31.6461
4.8231	34.7146
4.7963	37.1963
4.7699	39.3746
4.7437	41.2637
4.7178	42.8149
4.6922	44.0495
4.6668	45.2894
4.6418	46.5239
4.617	47.6619
4.5924	48.7057
4.5681	49.77
4.5441	50.764
4.5203	51.7221
4.4968	52.5508
4.4735	53.3359
4.4505	53.9704
4.4277	54.5489
4.4051	55.0023
4.3828	55.3248
4.3607	55.5822
4.3388	55.557
4.3171	54.9628
4.2956	53.4077
4.2744	52.4681
4.2534	53.7452
4.2325	55.2454
4.2119	56.8505
4.1915	57.7092
4.1712	58.0886
4.1512	58.3732
4.1313	58.6029
4.1117	58.6044
4.0922	58.6889
4.0729	58.6639
4.0538	58.5516
4.0349	58.5985
4.0161	58.3679
3.9976	58.2505
3.9792	57.9852
3.9609	57.9192
3.9428	57.7434
3.9249	57.4722
3.9072	57.1301
3.8896	56.8279
3.8722	56.4124
3.8549	56.0599
3.8378	55.8751
3.8208	55.336
3.804	54.7524
3.7873	54.2729
3.7708	53.7867
3.7544	53.2194
3.7382	52.656
3.7221	52.1117
3.7061	51.6483
3.6903	51.2089
3.6746	50.6046
3.659	50.1975
3.6436	49.6492
3.6283	49.3359
3.6131	48.9217
3.5981	48.5298
3.5832	48.1655
3.5684	47.6797
3.5537	47.1393
3.5391	46.8582
3.5247	46.3215
3.5104	45.6499
3.4962	45.0441
3.4821	44.6229
3.4681	44.2337
3.4543	43.6575
3.4405	43.061
3.4269	42.3427
3.4133	41.7298
3.3999	41.2707
3.3866	40.6842
3.3733	40.0636
3.3602	39.5436
3.3472	39.0652
3.3343	38.4795
3.3215	37.7705
3.3088	37.0178
3.2961	36.419
3.2836	35.6909
3.2712	35.0564
3.2588	34.1918
3.2466	33.3897
3.2345	32.855
3.2224	32.159
3.2104	31.5279
3.1985	30.8677
3.1867	30.371
3.175	29.646
3.1634	29.315
3.1519	28.6117
3.1404	28.0737
3.129	27.5436
3.1178	26.9415
3.1065	26.371
3.0954	25.7524
3.0844	25.2461
3.0734	24.6185
3.0625	24.2625
3.0517	23.934
3.041	23.6675
3.0303	23.6815
3.0197	23.7355
3.0092	23.9231
2.9987	24.5053
2.9884	24.6692
2.9781	25.0566
2.9678	25.3939
2.9577	25.819
2.9476	26.3762
2.9376	26.9204
2.9276	27.7164
2.9177	28.5617
2.9079	29.731
2.8982	30.9047
2.8885	32.2766
2.8789	33.625
2.8693	35.0055
2.8598	36.3959
2.8504	37.6371
2.841	39.0879
2.8317	40.441
2.8224	41.6314
2.8133	42.8824
2.8041	44.516
2.7951	45.2472
2.786	46.8025
2.7771	47.5208
2.7682	48.3113
2.7594	47.0366
2.7506	50.5584
2.7418	52.2011
2.7332	51.936
2.7246	54.253
2.716	53.3542
2.7075	51.1603
2.699	54.1951
2.6906	61.1785
2.6823	65.3525
2.674	67.4971
2.6657	71.0367
2.6575	69.035
2.6494	69.4112
2.6413	70.0248
2.6332	70.8107
2.6252	71.1941
2.6173	72.5481
2.6094	71.6146
2.6015	71.6218
2.5937	74.0552
2.5859	72.147
2.5782	71.6145
2.5706	72.0826
2.5629	72.8006
2.5554	71.4728
2.5478	71.8551
2.5403	71.8362
2.5329	72.1089
2.5255	72.0109
2.5181	72.1067
2.5108	72.3043
2.5035	72.6181
2.4963	72.6606
2.4891	72.9379
2.482	72.9448
2.4749	73.2468
2.4678	73.4096
2.4608	73.3988
2.4538	73.4884
2.4468	73.5701
2.4399	73.858
2.4331	73.917
2.4262	73.8706
2.4194	74.0014
2.4127	73.8682
2.4059	74.1591
2.3993	73.9259
2.3926	73.9656
2.386	73.8395
2.3795	73.9327
2.3729	73.9103
2.3664	74.061
2.36	73.9896
2.3535	74.0568
2.3471	74.1785
2.3408	74.2573
2.3345	74.3397
2.3282	74.3359
2.3219	74.2791
2.3157	74.4203
2.3095	74.3181
2.3034	74.2949
2.2972	74.2303
2.2911	74.5372
2.2851	74.3934
2.279	74.4303
2.2731	74.2822
2.2671	74.2707
2.2612	74.1984
2.2553	74.5809
2.2494	74.1018
2.2435	74.2522
2.2377	74.2262
2.232	74.4321
2.2262	74.3154
2.2205	74.3209
2.2148	74.1569
2.2091	73.6023
2.2035	73.5706
2.1979	73.8825
2.1923	74.0159
2.1868	73.8342
2.1812	74.2683
2.1758	74.026
2.1703	74.198
2.1649	73.7431
2.1595	74.0054
2.1541	73.9179
2.1487	74.0159
2.1434	74.0871
2.1381	74.2857
2.1328	74.3976
2.1275	73.9552
2.1223	73.9253
2.1171	73.848
2.112	73.7652
2.1068	73.4036
2.1017	73.0103
2.0966	73.0502
2.0915	72.2518
2.0865	72.1181
2.0814	71.4701
2.0764	71.7501
2.0715	71.4186
2.0665	71.319
2.0616	71.9857
2.0567	72.1142
2.0518	72.8042
2.0469	72.8626
2.0421	73.3808
2.0373	73.7832
2.0325	73.8409
2.0277	74.2963
2.0229	74.2949
2.0182	74.2181
2.0135	74.638
2.0088	75.0114
2.0042	74.8927
