Name: Saponite (Ca/2,Na)_0.33(Mg,Fe^2+)_3(Si,Al)_4O_10(OH)_2.4H_2O
Type: Mineral
Class: Silicate
Subclass: Phyllosilicate
Particle Size: Fine
Sample No.: PS-24A
Owner: JPL
Wavelength Range: TIR
Origin: USA, California, Ballarat
Description: Particle size was 0-45um.Collected by Clay Mineral Society Original ASTER Spectral Library name was jpl.nicolet.mineral.silicate.phyllosilicate.fine.ps24a.spectrum.txt
Measurement: Hemispherical reflectance
X Units: Wavelength (micrometers)
Y Units: Reflectance (percent)
wavelength	value
15.3853	1.2281
15.1161	1.8916
14.8563	1.0346
14.6052	1.1328
14.3624	1.2365
14.1276	1.1455
13.9004	1.1806
13.6803	1.7158
13.4671	1.7846
13.2604	2.1172
13.06	2.2757
12.8656	2.1479
12.6769	2.252
12.4936	2.7383
12.3155	3.0511
12.1425	4.175
11.9742	5.5281
11.8106	5.8182
11.6513	6.3412
11.4963	6.4057
11.3454	6.154
11.1983	5.4636
11.0551	4.6188
10.9154	3.7132
10.7793	3.5159
10.6465	3.7149
10.5169	3.9798
10.3904	4.0121
10.267	4.3307
10.1464	5.23
10.0287	6.0584
9.9136	7.0924
9.8012	8.1989
9.6913	9.4021
9.5838	9.5323
9.4787	9.0529
9.3758	7.3444
9.2752	5.8049
9.1767	4.7014
9.0803	4.4296
8.9858	4.0936
8.8934	3.8485
8.8028	3.7314
8.714	3.5705
8.627	2.7294
8.5417	2.1606
8.4581	1.8382
8.3761	1.6327
8.2957	1.7224
8.2169	1.8823
8.1395	2.0499
8.0635	2.3115
7.989	2.5714
7.9158	2.8815
7.8439	3.2941
7.7734	3.6511
7.7041	4.2402
7.636	4.5237
7.5691	4.7558
7.5034	4.8245
7.4388	4.6758
7.3753	4.5555
7.3129	4.2886
7.2515	4.4939
7.1912	4.6261
7.1318	4.6765
7.0734	4.6109
7.016	5.3864
6.9595	6.2513
6.9039	7.8063
6.8492	9.3825
6.7953	10.6566
6.7423	12.16
6.6901	13.2792
6.6387	13.773
6.5881	14.7866
6.5382	15.2047
6.4892	14.6191
6.4408	14.4977
6.3931	13.6876
6.3462	11.9375
6.2999	9.6944
6.2543	6.9146
6.2094	4.1788
6.1651	2.6534
6.1214	2.1243
6.0784	2.1582
6.0359	2.7256
5.994	3.8151
5.9527	5.5911
5.912	7.9059
5.8718	10.399
5.8322	13.0601
5.7931	15.1405
5.7545	15.7854
5.7165	16.6848
5.6789	17.3155
5.6418	17.8082
5.6052	19.0464
5.5691	20.0834
5.5334	21.4862
5.4982	22.4317
5.4635	22.5879
5.4291	23.181
5.3952	23.458
5.3618	23.33
5.3287	23.1067
5.2961	23.3056
5.2638	23.4386
5.2319	24.368
5.2004	25.8875
5.1693	27.5016
5.1386	28.2465
5.1082	29.0615
5.0782	29.516
5.0485	29.7311
5.0192	29.9331
4.9902	30.255
4.9616	30.5687
4.9332	30.8968
4.9052	31.2433
4.8776	31.5091
4.8502	31.7403
4.8231	31.8274
4.7963	32.1143
4.7699	32.7211
4.7437	33.6022
4.7178	34.4463
4.6922	35.2316
4.6668	36.2288
4.6418	37.1261
4.617	38.0732
4.5924	38.9428
4.5681	39.8777
4.5441	40.733
4.5203	41.5788
4.4968	42.4264
4.4735	43.357
4.4505	44.1467
4.4277	44.9939
4.4051	45.5939
4.3828	46.3251
4.3607	46.9746
4.3388	47.6378
4.3171	48.3786
4.2956	49.1274
4.2744	49.8668
4.2534	50.6616
4.2325	51.2957
4.2119	51.9286
4.1915	52.6256
4.1712	53.2785
4.1512	53.9242
4.1313	54.629
4.1117	55.4154
4.0922	56.1215
4.0729	56.835
4.0538	57.9047
4.0349	58.8613
4.0161	59.7249
3.9976	60.1939
3.9792	60.6191
3.9609	61.3562
3.9428	62.0154
3.9249	62.3916
3.9072	62.7761
3.8896	62.9153
3.8722	63.0509
3.8549	63.2587
3.8378	63.225
3.8208	63.2957
3.804	63.2606
3.7873	63.16
3.7708	62.9669
3.7544	62.7289
3.7382	62.3965
3.7221	62.0155
3.7061	61.5313
3.6903	60.7769
3.6746	60.1669
3.659	59.4387
3.6436	58.788
3.6283	57.9893
3.6131	57.1378
3.5981	56.2386
3.5832	55.1691
3.5684	54.3166
3.5537	53.0754
3.5391	51.8908
3.5247	50.3546
3.5104	48.7154
3.4962	47.0158
3.4821	45.9532
3.4681	44.8915
3.4543	43.361
3.4405	41.7585
3.4269	39.9202
3.4133	37.7616
3.3999	36.7439
3.3866	35.2668
3.3733	33.586
3.3602	32.0848
3.3472	30.3341
3.3343	28.8279
3.3215	27.4026
3.3088	25.6148
3.2961	24.0742
3.2836	22.5594
3.2712	21.1012
3.2588	19.787
3.2466	18.4436
3.2345	17.0459
3.2224	15.763
3.2104	14.4035
3.1985	13.1774
3.1867	11.9403
3.175	10.8583
3.1634	9.7902
3.1519	8.771
3.1404	7.9651
3.129	7.4235
3.1178	6.6547
3.1065	6.0689
3.0954	5.683
3.0844	5.3808
3.0734	5.1675
3.0625	4.9939
3.0517	4.7401
3.041	4.4999
3.0303	4.3332
3.0197	4.1104
3.0092	3.896
2.9987	3.5645
2.9884	3.4902
2.9781	3.175
2.9678	2.9695
2.9577	3.0563
2.9476	3.0676
2.9376	2.9181
2.9276	2.7916
2.9177	2.9657
2.9079	2.6242
2.8982	2.9635
2.8885	2.8375
2.8789	2.6941
2.8693	2.9574
2.8598	2.946
2.8504	2.9334
2.841	3.1281
2.8317	3.3208
2.8224	3.4665
2.8133	3.7255
2.8041	3.517
2.7951	3.4825
2.786	3.7275
2.7771	3.2837
2.7682	3.3507
2.7594	3.0581
2.7506	3.2049
2.7418	3.2998
2.7332	3.6111
2.7246	3.8453
2.716	3.876
2.7075	8.561
2.699	16.9996
2.6906	22.2127
2.6823	26.5688
2.674	30.5375
2.6657	32.8114
2.6575	36.3035
2.6494	38.4597
2.6413	40.3434
2.6332	41.4086
2.6252	42.7284
2.6173	43.0746
2.6094	44.4295
2.6015	45.0344
2.5937	44.5659
2.5859	46.109
2.5782	46.6025
2.5706	46.7925
2.5629	47.0771
2.5554	48.0079
2.5478	48.4286
2.5403	49.1919
2.5329	49.5453
2.5255	49.9531
2.5181	50.5433
2.5108	51.1975
2.5035	51.9013
2.4963	52.3432
2.4891	53.1105
2.482	53.8173
2.4749	53.7285
2.4678	53.9855
2.4608	54.636
2.4538	55.6304
2.4468	56.7785
2.4399	57.6044
2.4331	58.3857
2.4262	59.0193
2.4194	60.4582
2.4127	61.7259
2.4059	61.7853
2.3993	59.9039
2.3926	57.9268
2.386	58.2101
2.3795	60.4432
2.3729	63.4707
2.3664	65.8954
2.36	67.254
2.3535	67.5553
2.3471	68.5793
2.3408	68.2597
2.3345	66.9438
2.3282	63.3383
2.3219	56.6107
2.3157	52.5196
2.3095	55.3913
2.3034	61.0675
2.2972	61.1416
2.2911	61.7248
2.2851	65.8587
2.279	70.7888
2.2731	73.974
2.2671	75.5413
2.2612	76.8092
2.2553	77.6838
2.2494	78.1624
2.2435	78.3776
2.2377	78.5145
2.232	78.7805
2.2262	79.0743
2.2205	79.6539
2.2148	79.6239
2.2091	79.5772
2.2035	79.6835
2.1979	79.7036
2.1923	79.8939
2.1868	79.8957
2.1812	79.6203
2.1758	79.6935
2.1703	79.5441
2.1649	79.5634
2.1595	79.6482
2.1541	79.6783
2.1487	80.0157
2.1434	79.3185
2.1381	79.1776
2.1328	79.1184
2.1275	78.8703
2.1223	78.8674
2.1171	78.9319
2.112	78.6508
2.1068	78.8234
2.1017	78.7711
2.0966	78.8372
2.0915	78.3418
2.0865	78.3841
2.0814	78.5916
2.0764	79.0804
2.0715	78.5055
2.0665	78.2621
2.0616	78.125
2.0567	78.0861
2.0518	77.4701
2.0469	77.3187
2.0421	77.0247
2.0373	76.3181
2.0325	76.4055
2.0277	75.2843
2.0229	74.6939
2.0182	73.9456
2.0135	73.1954
2.0088	72.4936
2.0042	71.6094
