Name: Quartz SiO_2
Type: Mineral
Class: Silicate
Subclass: Tectosilicate
Particle Size: Fine
Sample No.: TS-1E
Owner: JPL
Wavelength Range: TIR
Description: CrysopraseParticle size was 0-45um.Collected by JPL Original ASTER Spectral Library name was jpl.nicolet.mineral.silicate.tectosilicate.fine.ts01e.spectrum.txt
Measurement: Hemispherical reflectance
X Units: Wavelength (micrometers)
Y Units: Reflectance (percent)
wavelength	value
15.3853	12.6169
15.1161	11.8896
14.8563	10.0347
14.6052	7.4128
14.3624	2.8599
14.1276	7.0357
13.9004	10.586
13.6803	11.8581
13.4671	11.7069
13.2604	10.1307
13.06	6.8807
12.8656	5.2597
12.6769	4.2018
12.4936	3.9061
12.3155	1.1667
12.1425	3.354
11.9742	7.4063
11.8106	10.8485
11.6513	12.647
11.4963	13.3559
11.3454	14.1702
11.1983	13.7497
11.0551	13.9687
10.9154	13.8901
10.7793	13.531
10.6465	13.0241
10.5169	12.7218
10.3904	11.9091
10.267	11.0025
10.1464	10.2258
10.0287	9.3124
9.9136	8.9919
9.8012	8.644
9.6913	8.2713
9.5838	7.9351
9.4787	9.4062
9.3758	13.8858
9.2752	16.9482
9.1767	16.2174
9.0803	15.8427
8.9858	15.4234
8.8934	14.8688
8.8028	13.7458
8.714	12.5653
8.627	9.3185
8.5417	12.5607
8.4581	13.2135
8.3761	13.6581
8.2957	15.088
8.2169	17.7429
8.1395	17.5459
8.0635	13.2368
7.989	9.8346
7.9158	6.663
7.8439	4.2998
7.7734	3.0771
7.7041	2.2459
7.636	1.5915
7.5691	0.9857
7.5034	0.648
7.4388	0.6692
7.3753	0.5886
7.3129	0.7027
7.2515	0.874
7.1912	1.3792
7.1318	1.99
7.0734	2.5275
7.016	3.1994
6.9595	4.1765
6.9039	4.8449
6.8492	5.1781
6.7953	5.3056
6.7423	4.812
6.6901	4.9156
6.6387	6.0521
6.5881	5.7767
6.5382	5.8937
6.4892	9.8337
6.4408	12.1981
6.3931	12.1883
6.3462	10.1276
6.2999	7.5014
6.2543	5.6942
6.2094	4.8514
6.1651	6.2601
6.1214	9.5358
6.0784	12.2046
6.0359	12.7193
5.994	12.0369
5.9527	9.9631
5.912	10.9024
5.8718	14.3795
5.8322	17.8436
5.7931	20.7906
5.7545	23.3537
5.7165	25.0311
5.6789	23.1997
5.6418	17.4202
5.6052	13.617
5.5691	13.163
5.5334	14.7098
5.4982	17.8695
5.4635	20.4283
5.4291	18.6159
5.3952	12.1695
5.3618	7.7079
5.3287	7.3113
5.2961	8.3791
5.2638	11.0497
5.2319	16.4469
5.2004	20.9795
5.1693	20.9278
5.1386	20.1868
5.1082	19.9707
5.0782	18.0373
5.0485	17.2157
5.0192	16.974
4.9902	17.8456
4.9616	22.3576
4.9332	25.8589
4.9052	32.3505
4.8776	42.0733
4.8502	47.7047
4.8231	50.8713
4.7963	53.0344
4.7699	54.7207
4.7437	55.7077
4.7178	55.8569
4.6922	54.1454
4.6668	54.8774
4.6418	57.5882
4.617	59.3429
4.5924	60.1392
4.5681	60.2165
4.5441	59.1846
4.5203	56.498
4.4968	53.07
4.4735	51.7713
4.4505	52.7752
4.4277	54.1781
4.4051	55.9296
4.3828	58.0981
4.3607	60.0436
4.3388	61.5263
4.3171	61.6578
4.2956	61.5033
4.2744	61.3296
4.2534	62.7933
4.2325	62.4627
4.2119	62.9463
4.1915	63.373
4.1712	63.9484
4.1512	64.5348
4.1313	65.104
4.1117	65.7842
4.0922	66.4021
4.0729	66.7979
4.0538	66.9491
4.0349	67.0019
4.0161	66.9423
3.9976	67.0249
3.9792	67.2134
3.9609	67.4917
3.9428	67.7022
3.9249	67.9175
3.9072	67.7507
3.8896	67.6282
3.8722	67.4413
3.8549	67.1848
3.8378	67.1756
3.8208	67.2052
3.804	67.1867
3.7873	66.9287
3.7708	66.6435
3.7544	66.2859
3.7382	66.0606
3.7221	65.9534
3.7061	66.0969
3.6903	66.0951
3.6746	65.9962
3.659	65.9347
3.6436	65.6419
3.6283	65.3668
3.6131	64.9657
3.5981	64.557
3.5832	64.3072
3.5684	63.8536
3.5537	63.3671
3.5391	62.7304
3.5247	62.1617
3.5104	60.7673
3.4962	60.1646
3.4821	59.9149
3.4681	59.3912
3.4543	58.5727
3.4405	57.6979
3.4269	55.9941
3.4133	55.0879
3.3999	55.1294
3.3866	54.7097
3.3733	53.9968
3.3602	53.5454
3.3472	52.942
3.3343	52.2793
3.3215	51.4394
3.3088	50.7551
3.2961	49.6994
3.2836	49.0059
3.2712	48.0694
3.2588	47.2652
3.2466	46.3919
3.2345	45.4744
3.2224	44.5169
3.2104	43.8052
3.1985	42.8352
3.1867	41.9688
3.175	41.1321
3.1634	40.1712
3.1519	39.3454
3.1404	38.477
3.129	37.7034
3.1178	36.9089
3.1065	36.0789
3.0954	35.5115
3.0844	34.6983
3.0734	34.2116
3.0625	33.5728
3.0517	32.966
3.041	32.576
3.0303	31.8815
3.0197	31.4488
3.0092	30.803
2.9987	30.4589
2.9884	29.7693
2.9781	29.3538
2.9678	29.0143
2.9577	28.4886
2.9476	28.3162
2.9376	27.8741
2.9276	27.7549
2.9177	27.589
2.9079	27.6296
2.8982	27.5821
2.8885	27.9927
2.8789	28.5039
2.8693	29.1921
2.8598	30.0283
2.8504	31.0118
2.841	31.8808
2.8317	32.839
2.8224	33.4924
2.8133	33.3693
2.8041	32.6376
2.7951	31.7431
2.786	31.5491
2.7771	32.7154
2.7682	33.9139
2.7594	32.6517
2.7506	37.0815
2.7418	39.919
2.7332	46.5248
2.7246	52.2379
2.716	57.1251
2.7075	61.8185
2.699	64.9416
2.6906	67.317
2.6823	69.1371
2.674	70.3308
2.6657	72.9851
2.6575	72.376
2.6494	72.9505
2.6413	73.322
2.6332	73.5552
2.6252	73.8978
2.6173	74.5469
2.6094	74.2802
2.6015	74.2493
2.5937	75.187
2.5859	74.2302
2.5782	74.3871
2.5706	74.6722
2.5629	74.8918
2.5554	74.5355
2.5478	74.5845
2.5403	74.525
2.5329	74.7954
2.5255	74.7657
2.5181	74.8842
2.5108	74.998
2.5035	74.9904
2.4963	75.0843
2.4891	75.2109
2.482	75.361
2.4749	75.5106
2.4678	75.5201
2.4608	75.9671
2.4538	75.8703
2.4468	76.1256
2.4399	76.2063
2.4331	76.3843
2.4262	76.5504
2.4194	76.809
2.4127	76.8014
2.4059	76.8091
2.3993	77.0409
2.3926	77.1022
2.386	77.1062
2.3795	77.1928
2.3729	77.3243
2.3664	77.3954
2.36	77.2102
2.3535	77.2965
2.3471	77.2786
2.3408	76.872
2.3345	76.8614
2.3282	76.8286
2.3219	76.5414
2.3157	76.7657
2.3095	76.581
2.3034	76.5808
2.2972	76.7033
2.2911	76.8607
2.2851	76.829
2.279	76.8999
2.2731	76.9071
2.2671	76.8169
2.2612	76.7648
2.2553	76.8082
2.2494	77.0042
2.2435	76.7125
2.2377	76.9072
2.232	76.8216
2.2262	76.9531
2.2205	76.8566
2.2148	76.9753
2.2091	76.9861
2.2035	77.125
2.1979	77.2751
2.1923	77.3443
2.1868	77.7248
2.1812	77.9935
2.1758	78.0526
2.1703	78.1142
2.1649	78.3636
2.1595	78.0837
2.1541	78.2521
2.1487	78.6483
2.1434	78.4836
2.1381	78.5704
2.1328	78.5547
2.1275	78.64
2.1223	78.7028
2.1171	78.602
2.112	78.5095
2.1068	78.5613
2.1017	78.3332
2.0966	78.7931
2.0915	78.4295
2.0865	78.8264
2.0814	78.7078
2.0764	78.4794
2.0715	78.5741
2.0665	78.7876
2.0616	78.7711
2.0567	78.8511
2.0518	78.8724
2.0469	78.7875
2.0421	78.9058
2.0373	78.6529
2.0325	78.8827
2.0277	78.7441
2.0229	78.7502
2.0182	78.7864
2.0135	78.9494
2.0088	78.846
2.0042	78.627
