Name: Tourmaline Na(Mg_3,Fe_3^2+)Al_6(BO_3)_3Si_6O_18(OH)_4
Type: Mineral
Class: Silicate
Subclass: Cyclosilicate
Particle Size: Fine
Sample No.: CS-1A
Owner: JPL
Wavelength Range: TIR
Origin: USA, New York, Overlook
Description: Particle size was 0-45um.Collected by Ward's Original ASTER Spectral Library name was jpl.nicolet.mineral.silicate.cyclosilicate.fine.cs01a.spectrum.txt
Measurement: Hemispherical reflectance
X Units: Wavelength (micrometers)
Y Units: Reflectance (percent)
wavelength	value
15.3853	1.9621
15.1161	2.0346
14.8563	2.212
14.6052	2.494
14.3624	2.7017
14.1276	3.1898
13.9004	2.5161
13.6803	1.8113
13.4671	1.8933
13.2604	2.4564
13.06	2.7971
12.8656	3.3622
12.6769	3.9639
12.4936	4.0015
12.3155	4.2335
12.1425	4.5469
11.9742	5.9105
11.8106	6.5055
11.6513	7.1428
11.4963	7.9236
11.3454	7.6287
11.1983	6.3925
11.0551	5.8306
10.9154	5.7926
10.7793	5.6105
10.6465	5.6071
10.5169	5.8205
10.3904	6.2916
10.267	6.9751
10.1464	7.2053
10.0287	6.5104
9.9136	5.6512
9.8012	5.7911
9.6913	6.1028
9.5838	6.4291
9.4787	5.251
9.3758	4.053
9.2752	4.2612
9.1767	4.8546
9.0803	4.8921
8.9858	3.713
8.8934	2.1961
8.8028	1.8545
8.714	2.208
8.627	3.1582
8.5417	3.7914
8.4581	4.386
8.3761	4.7158
8.2957	4.1738
8.2169	3.8001
8.1395	3.6958
8.0635	3.8507
7.989	3.7268
7.9158	3.6761
7.8439	3.6002
7.7734	3.4011
7.7041	3.2481
7.636	2.9695
7.5691	2.7023
7.5034	2.3506
7.4388	2.5411
7.3753	2.6237
7.3129	2.4553
7.2515	2.0838
7.1912	1.6336
7.1318	1.4288
7.0734	1.4661
7.016	1.6938
6.9595	2.6321
6.9039	3.9231
6.8492	5.5184
6.7953	6.8455
6.7423	7.8643
6.6901	9.0538
6.6387	10.5065
6.5881	11.3275
6.5382	12.2325
6.4892	13.7437
6.4408	14.1788
6.3931	14.8598
6.3462	15.7042
6.2999	15.6302
6.2543	16.0693
6.2094	16.2321
6.1651	16.5443
6.1214	16.8118
6.0784	16.9346
6.0359	16.9027
5.994	17.5251
5.9527	17.9547
5.912	18.3938
5.8718	19.3653
5.8322	20.1472
5.7931	20.4951
5.7545	21.1896
5.7165	21.6208
5.6789	21.5648
5.6418	21.7047
5.6052	21.0257
5.5691	21.156
5.5334	21.5879
5.4982	22.7788
5.4635	24.034
5.4291	24.9714
5.3952	25.4732
5.3618	25.9556
5.3287	26.2401
5.2961	26.35
5.2638	26.3517
5.2319	26.296
5.2004	26.1226
5.1693	25.9218
5.1386	25.7975
5.1082	25.8092
5.0782	25.9465
5.0485	26.2709
5.0192	26.6623
4.9902	26.9798
4.9616	27.4519
4.9332	27.9197
4.9052	28.3879
4.8776	29.0924
4.8502	29.8037
4.8231	30.5294
4.7963	31.2508
4.7699	32.0021
4.7437	32.726
4.7178	33.1905
4.6922	33.6237
4.6668	34.0082
4.6418	33.9425
4.617	33.7922
4.5924	33.178
4.5681	32.238
4.5441	31.3196
4.5203	30.485
4.4968	29.7629
4.4735	29.2213
4.4505	28.8999
4.4277	28.6729
4.4051	28.7203
4.3828	28.8315
4.3607	29.1949
4.3388	29.5728
4.3171	30.1562
4.2956	30.9282
4.2744	31.7314
4.2534	32.1048
4.2325	33.3785
4.2119	33.6426
4.1915	34.1652
4.1712	35.2039
4.1512	35.9693
4.1313	36.719
4.1117	37.2277
4.0922	37.6031
4.0729	37.5288
4.0538	37.5052
4.0349	37.3415
4.0161	37.2155
3.9976	36.9676
3.9792	36.78
3.9609	36.2788
3.9428	35.7329
3.9249	34.9125
3.9072	33.9086
3.8896	32.6657
3.8722	31.5501
3.8549	30.6556
3.8378	30.1832
3.8208	30.5309
3.804	31.3032
3.7873	32.2383
3.7708	33.0612
3.7544	33.5414
3.7382	33.7821
3.7221	33.8851
3.7061	34.0488
3.6903	34.4146
3.6746	34.991
3.659	35.6852
3.6436	36.4795
3.6283	37.3942
3.6131	38.0584
3.5981	38.4875
3.5832	38.8935
3.5684	39.0299
3.5537	39.1836
3.5391	39.4537
3.5247	39.5154
3.5104	39.5206
3.4962	39.6456
3.4821	39.818
3.4681	39.7588
3.4543	39.7522
3.4405	39.5614
3.4269	39.5703
3.4133	39.5337
3.3999	39.6897
3.3866	39.7081
3.3733	39.7263
3.3602	39.5908
3.3472	39.7503
3.3343	39.5869
3.3215	39.5787
3.3088	39.532
3.2961	39.4601
3.2836	39.323
3.2712	39.2455
3.2588	38.9963
3.2466	39.0685
3.2345	38.7943
3.2224	38.7782
3.2104	38.6475
3.1985	38.5059
3.1867	38.3703
3.175	38.2591
3.1634	38.1228
3.1519	37.8911
3.1404	37.7466
3.129	37.6029
3.1178	37.4457
3.1065	37.0976
3.0954	36.897
3.0844	36.6301
3.0734	36.5591
3.0625	36.3817
3.0517	36.0852
3.041	35.9101
3.0303	35.7608
3.0197	35.5443
3.0092	35.2445
2.9987	34.5959
2.9884	34.2726
2.9781	33.8888
2.9678	33.1371
2.9577	32.6245
2.9476	31.765
2.9376	30.9669
2.9276	30.2124
2.9177	29.3192
2.9079	27.8764
2.8982	25.9081
2.8885	23.0237
2.8789	19.7604
2.8693	16.6674
2.8598	14.0221
2.8504	11.936
2.841	9.9972
2.8317	8.9833
2.8224	7.9011
2.8133	7.1291
2.8041	6.93
2.7951	7.3007
2.786	9.6225
2.7771	15.1005
2.7682	23.6668
2.7594	25.7272
2.7506	25.5889
2.7418	32.8464
2.7332	36.4147
2.7246	38.876
2.716	38.6763
2.7075	38.5354
2.699	37.1986
2.6906	32.7554
2.6823	30.687
2.674	33.6976
2.6657	39.0481
2.6575	38.6226
2.6494	39.8073
2.6413	40.4585
2.6332	40.5097
2.6252	40.2443
2.6173	40.7762
2.6094	40.1392
2.6015	39.8587
2.5937	40.7835
2.5859	39.857
2.5782	39.7362
2.5706	39.696
2.5629	39.9592
2.5554	39.4817
2.5478	39.5124
2.5403	39.4306
2.5329	39.4156
2.5255	39.338
2.5181	39.3298
2.5108	39.0825
2.5035	39.2026
2.4963	39.143
2.4891	39.2765
2.482	39.1314
2.4749	39.2607
2.4678	39.0468
2.4608	39.3691
2.4538	39.3681
2.4468	39.5154
2.4399	39.3362
2.4331	39.5548
2.4262	39.5181
2.4194	39.4946
2.4127	39.3465
2.4059	39.3407
2.3993	39.2347
2.3926	38.9917
2.386	38.4242
2.3795	37.8007
2.3729	37.0597
2.3664	36.7935
2.36	36.724
2.3535	37.1043
2.3471	37.805
2.3408	38.0553
2.3345	38.2573
2.3282	38.3336
2.3219	38.247
2.3157	38.5346
2.3095	38.5915
2.3034	38.2908
2.2972	38.3369
2.2911	38.2216
2.2851	38.5482
2.279	38.6646
2.2731	38.6033
2.2671	38.5498
2.2612	38.1494
2.2553	37.7692
2.2494	36.8254
2.2435	36.235
2.2377	36.9861
2.232	37.4082
2.2262	37.1222
2.2205	37.0236
2.2148	36.1699
2.2091	35.3376
2.2035	35.701
2.1979	36.4529
2.1923	36.8335
2.1868	36.9979
2.1812	36.9577
2.1758	37.0408
2.1703	36.7095
2.1649	36.7709
2.1595	36.8761
2.1541	36.6076
2.1487	36.6255
2.1434	36.5299
2.1381	36.5983
2.1328	36.1668
2.1275	36.1624
2.1223	36.2501
2.1171	35.9872
2.112	35.8857
2.1068	35.8113
2.1017	35.3346
2.0966	35.548
2.0915	35.2224
2.0865	35.1916
2.0814	35.3
2.0764	34.7198
2.0715	34.3238
2.0665	34.8882
2.0616	34.4351
2.0567	34.3457
2.0518	34.6037
2.0469	34.1115
2.0421	33.6336
2.0373	34.1027
2.0325	33.7399
2.0277	33.5554
2.0229	33.0297
2.0182	33.4363
2.0135	32.9641
2.0088	33.1685
2.0042	32.9131
