Name: Rutile TiO2
Type: Mineral
Class: Oxide
Subclass: None
Particle Size: Coarse
Sample No.: rutile_1
Owner: JHU
Wavelength Range: TIR
Origin: White Plains, Alexander County, North Carolina vie theSmithsonian (sample no. NMNH 83192)
Description: The sample was composed of three small crystals with a total weight of 3.83 g.  Some reddish-brown clay mineral and muscovite coating one surface was scraped away.  Veining inside crystals showed limonitic staining.  The crushed sample was given an HCl and HF bath to remove stain, after which microscopic examination indicated a pure sample. Particle size was 75 - 250  Micrometers. (Rutile Group) Original ASTER Spectral Library name was jhu.nicolet.mineral.oxide.none.coarse.rutile1.spectrum.txt
Measurement: Bidirectional reflectance
X Units: Wavelength (micrometers)
Y Units: Reflectance (percent)
wavelength	value
25.0442	12.5317
24.3388	12.7973
23.6719	12.0693
23.0407	10.1704
22.4422	6.6108
21.8741	6.1672
21.334	7.4936
20.8199	9.269
20.33	11.3247
19.8627	13.3476
19.4163	14.6274
18.9896	14.986
18.5812	14.9275
18.19	14.6091
17.815	14.4433
17.4551	14.51
17.1094	14.6084
16.7772	14.812
16.4576	15.0598
16.15	15.2741
15.8537	15.3293
15.568	15.4426
15.2925	15.3332
15.0265	15.1923
14.7697	15.1245
14.5214	14.9875
14.2814	14.8244
14.0492	14.8317
13.8244	14.758
13.6067	14.5669
13.3957	14.2238
13.1912	13.6533
12.9929	12.8142
12.8004	11.6677
12.6135	10.2981
12.432	8.9421
12.2557	7.666
12.0843	6.3384
11.9176	4.9148
11.7555	3.5161
11.5977	2.2812
11.444	1.3672
11.2944	0.8381
11.1487	0.6189
11.0067	0.6006
10.8682	0.647
10.7332	0.7634
10.6015	0.8804
10.473	0.9773
10.3476	1.093
10.2251	1.1914
10.1056	1.291
9.9887	1.3796
9.8746	1.4617
9.763	1.5437
9.6539	1.6248
9.5472	1.6797
9.4429	1.7424
9.3408	1.8003
9.2409	1.8735
9.1431	1.9416
9.0474	1.9978
8.9536	2.0571
8.8618	2.0898
8.7718	2.1201
8.6837	2.1728
8.5973	2.2053
8.5126	2.2331
8.4295	2.2693
8.3481	2.3103
8.2682	2.3503
8.1898	2.3972
8.1129	2.4353
8.0374	2.4739
7.9634	2.5388
7.8906	2.6047
7.8192	2.7004
7.7491	2.8213
7.6802	2.9517
7.6126	3.0915
7.5461	3.2361
7.4807	3.3826
7.4165	3.5154
7.3534	3.6382
7.2914	3.7725
7.2303	3.8948
7.1703	4.0146
7.1113	4.147
7.0533	4.2764
6.9962	4.4316
6.94	4.5908
6.8847	4.7554
6.8302	4.9224
6.7767	5.0766
6.7239	5.2261
6.672	5.3904
6.6209	5.5542
6.5705	5.7068
6.5209	5.8808
6.4721	6.0539
6.424	6.2295
6.3766	6.4182
6.3299	6.6028
6.2838	6.7932
6.2385	6.9848
6.1937	7.1885
6.1496	7.4243
6.1062	7.6894
6.0633	7.9883
6.0211	8.2822
5.9794	8.5986
5.9383	8.8979
5.8978	9.2121
5.8578	9.5173
5.8184	9.789
5.7794	10.0747
5.741	10.3423
5.7031	10.6274
5.6657	10.8987
5.6288	11.1491
5.5924	11.3957
5.5564	11.6237
5.5209	11.834
5.4859	12.0378
5.4513	12.2304
5.4171	12.4238
5.3833	12.6242
5.35	12.8305
5.3171	13.0495
5.2846	13.2575
5.2524	13.4463
5.2207	13.6225
5.1893	13.7819
5.1584	13.9297
5.1277	14.0749
5.0975	14.2104
5.0676	14.3315
5.038	14.456
5.0088	14.5979
4.98	14.7263
4.9514	14.8466
4.9232	14.9533
4.8953	15.0747
4.8678	15.1733
4.8405	15.2397
4.8135	15.2539
4.7868	15.1618
4.7605	14.8706
4.7344	14.4929
4.7086	14.5185
4.6831	14.9116
4.6578	15.3144
4.6328	15.6464
4.6081	15.8518
4.5837	15.9921
4.5595	16.0822
4.5356	16.1587
4.5119	16.2348
4.4884	16.3232
4.4652	16.4191
4.4423	16.5073
4.4196	16.5859
4.3971	16.6496
4.3748	16.7011
4.3528	16.7221
4.331	16.7294
4.3094	16.7041
4.288	16.611
4.2668	16.0461
4.2458	16.665
4.2251	16.9377
4.2045	17.0312
4.1841	17.0883
4.164	17.1272
4.144	17.1484
4.1242	17.1657
4.1046	17.1901
4.0852	17.2197
4.066	17.2587
4.047	17.2724
4.0281	17.2832
4.0094	17.2907
3.9909	17.2827
3.9725	17.2793
3.9544	17.2876
3.9363	17.3093
3.9185	17.3286
3.9008	17.3413
3.8833	17.3435
3.8659	17.3447
3.8487	17.343
3.8316	17.3449
3.8147	17.3608
3.7979	17.3674
3.7813	17.3686
3.7648	17.3779
3.7485	17.3664
3.7323	17.3598
3.7162	17.3386
3.7003	17.3134
3.6845	17.2766
3.6689	17.2419
3.6534	17.2292
3.638	17.1955
3.6227	17.1535
3.6076	17.1076
3.5926	17.0573
3.5777	16.9921
3.563	16.9345
3.5484	16.8432
3.5338	16.7685
3.5195	16.6731
3.5052	16.5412
3.491	16.4477
3.477	16.384
3.463	16.3093
3.4492	16.2033
3.4355	16.0883
3.4219	15.9526
3.4084	15.8691
3.395	15.8471
3.3817	15.7675
3.3685	15.6767
3.3554	15.614
3.3425	15.5332
3.3296	15.4099
3.3168	15.2321
3.3041	15.0195
3.2915	14.8393
3.279	14.674
3.2666	14.486
3.2543	14.3093
3.2421	14.2075
3.23	14.143
3.218	14.1115
3.206	14.0661
3.1942	14.0207
3.1824	13.9528
3.1707	13.7985
3.1591	13.6472
3.1476	13.466
3.1362	13.3047
3.1249	13.1513
3.1136	12.8662
3.1024	12.3176
3.0913	11.3596
3.0803	9.947
3.0694	7.9431
3.0585	5.5251
3.0477	4.3894
3.037	4.6489
3.0264	5.334
3.0158	6.7619
3.0053	7.4436
2.9949	9.3098
2.9845	10.9441
2.9743	11.7822
2.9641	12.0979
2.9539	12.3899
2.9439	12.6528
2.9339	12.8462
2.9239	13.0232
2.9141	13.2331
2.9043	13.5
2.8946	13.7246
2.8849	13.9511
2.8753	14.1428
2.8658	14.311
2.8563	14.4758
2.8469	14.6201
2.8375	14.7014
2.8282	14.7895
2.819	14.9155
2.8098	15.0105
2.8007	15.1189
2.7917	15.2402
2.7827	15.3452
2.7738	15.4228
2.7649	15.5293
2.7561	15.643
2.7473	15.8361
2.7386	15.9838
2.7299	16.1565
2.7213	16.3107
2.7128	16.4382
2.7043	16.5161
2.6959	16.7446
2.6875	16.9668
2.6791	17.1069
2.6709	17.1975
2.6626	17.3398
2.6545	17.4267
2.6463	17.5122
2.6382	17.5737
2.6302	17.5976
2.6222	17.6503
2.6143	17.6989
2.6064	17.7089
2.5986	17.768
2.5908	17.8139
2.583	17.8403
2.5753	17.8496
2.5677	17.8447
2.5601	17.8398
2.5525	17.8168
2.545	17.8012
2.5375	17.7412
2.5301	17.6313
2.5227	17.4536
2.5154	17.2993
2.5081	17.2148
2.5008	17.1792
2.4936	17.1464
2.4864	17.1694
2.4793	17.185
2.4722	17.1953
2.4651	17.2104
2.4581	17.2954
2.4511	17.4282
2.4442	17.5585
2.4373	17.6892
2.4305	17.7814
2.4236	17.851
2.4169	17.9475
2.4101	18.0197
2.4034	18.008
2.3967	18.0209
2.3901	18.048
2.3835	18.0864
2.377	18.0952
2.3704	18.1281
2.364	18.1279
2.3575	18.0961
2.3511	18.1242
2.3447	18.1123
2.3384	18.093
2.3321	18.0454
2.3258	17.9653
2.3195	17.8437
2.3133	17.5698
2.3071	17.0947
2.301	16.7373
2.2949	16.9184
2.2888	17.3078
2.2828	17.6562
2.2767	17.8115
2.2708	17.9497
2.2648	18.1308
2.2589	18.2519
2.253	18.3654
2.2471	18.3852
2.2413	18.3928
2.2355	18.4826
2.2297	18.5109
2.224	18.5195
2.2183	18.5627
2.2126	18.6379
2.207	18.6523
2.2013	18.6479
2.1957	18.7368
2.1902	18.7109
2.1846	18.718
2.1791	18.7578
2.1736	18.7668
2.1682	18.8515
2.1628	18.8544
2.1574	18.8837
2.152	18.873
2.1466	18.9038
2.1413	18.8928
2.136	18.958
2.1308	18.9924
2.1255	19.0158
2.1203	19.0434
2.1151	19.0842
2.11	19.091
2.1048	19.1799
2.0997	19.2092
2.0946	19.215
2.0895	19.2597
2.0845	19.3178
2.0795	19.3178
