Name: Fluorite CaF_2
Type: Mineral
Class: Halide
Subclass: None
Particle Size: Medium
Sample No.: H-2B
Owner: JPL
Wavelength Range: TIR
Origin: United Kingdom, England, Durham County, Weardal
Description: Particle size was 45-125um.Collected by Ward's Original ASTER Spectral Library name was jpl.nicolet.mineral.halide.none.medium.h02b.spectrum.txt
Measurement: Hemispherical reflectance
X Units: Wavelength (micrometers)
Y Units: Reflectance (percent)
wavelength	value
15.3853	0.503
15.1161	0.6751
14.8563	0.8011
14.6052	0.9096
14.3624	1.1754
14.1276	1.3317
13.9004	1.8491
13.6803	2.0894
13.4671	2.5501
13.2604	3.3403
13.06	4.1381
12.8656	5.613
12.6769	6.7625
12.4936	8.7256
12.3155	9.9397
12.1425	12.0231
11.9742	14.3477
11.8106	16.2107
11.6513	18.3061
11.4963	19.5988
11.3454	21.3793
11.1983	23.7417
11.0551	25.4312
10.9154	27.0797
10.7793	28.3277
10.6465	29.6068
10.5169	30.5366
10.3904	31.0123
10.267	31.1593
10.1464	31.0835
10.0287	30.3484
9.9136	29.5663
9.8012	29.2175
9.6913	29.1898
9.5838	29.3969
9.4787	29.0234
9.3758	29.6101
9.2752	30.1165
9.1767	30.7832
9.0803	32.0725
8.9858	33.0636
8.8934	33.0671
8.8028	32.7586
8.714	34.3633
8.627	35.7327
8.5417	40.5613
8.4581	43.6665
8.3761	45.1031
8.2957	46.1035
8.2169	46.4385
8.1395	45.6729
8.0635	44.6751
7.989	44.3871
7.9158	44.9623
7.8439	45.4971
7.7734	46.4742
7.7041	47.6785
7.636	48.6972
7.5691	49.1882
7.5034	49.4165
7.4388	49.0216
7.3753	48.7724
7.3129	47.9749
7.2515	46.4734
7.1912	43.6691
7.1318	40.474
7.0734	39.5794
7.016	40.1968
6.9595	42.4859
6.9039	43.185
6.8492	44.0298
6.7953	44.3352
6.7423	41.6114
6.6901	40.8768
6.6387	42.6798
6.5881	41.1893
6.5382	42.1413
6.4892	47.7092
6.4408	45.9616
6.3931	45.1463
6.3462	45.1795
6.2999	41.5297
6.2543	39.521
6.2094	37.5417
6.1651	36.1653
6.1214	35.6729
6.0784	36.4954
6.0359	37.2229
5.994	39.8377
5.9527	41.8501
5.912	45.1716
5.8718	49.8871
5.8322	53.6758
5.7931	55.5011
5.7545	58.1514
5.7165	60.2885
5.6789	60.0134
5.6418	59.3783
5.6052	56.6823
5.5691	56.3976
5.5334	57.3747
5.4982	58.8427
5.4635	60.7057
5.4291	59.7694
5.3952	56.7736
5.3618	55.1568
5.3287	54.9302
5.2961	55.4904
5.2638	56.3319
5.2319	58.4265
5.2004	59.9531
5.1693	59.521
5.1386	59.0514
5.1082	58.6904
5.0782	57.7374
5.0485	57.2627
5.0192	57.0544
4.9902	56.917
4.9616	58.1411
4.9332	58.7948
4.9052	60.2669
4.8776	62.1157
4.8502	62.9005
4.8231	63.2424
4.7963	63.3967
4.7699	63.5277
4.7437	63.6291
4.7178	63.7056
4.6922	63.4736
4.6668	63.6467
4.6418	64.1714
4.617	64.6918
4.5924	64.9598
4.5681	65.2139
4.5441	65.3019
4.5203	65.123
4.4968	64.6767
4.4735	64.6841
4.4505	65.0706
4.4277	65.4911
4.4051	65.9976
4.3828	66.464
4.3607	67.0088
4.3388	67.3696
4.3171	67.7174
4.2956	67.837
4.2744	66.2007
4.2534	67.3444
4.2325	68.8305
4.2119	68.7858
4.1915	68.7116
4.1712	68.9864
4.1512	69.2308
4.1313	69.4423
4.1117	69.5592
4.0922	69.7283
4.0729	69.7946
4.0538	69.7244
4.0349	69.6679
4.0161	69.526
3.9976	69.3806
3.9792	69.3572
3.9609	69.5054
3.9428	69.7547
3.9249	69.9802
3.9072	69.9569
3.8896	69.9579
3.8722	69.8679
3.8549	69.8775
3.8378	69.9343
3.8208	70.0539
3.804	70.0387
3.7873	70.1865
3.7708	70.0942
3.7544	70.0205
3.7382	69.8856
3.7221	69.6667
3.7061	69.5264
3.6903	69.416
3.6746	69.1587
3.659	68.9718
3.6436	68.7094
3.6283	68.4287
3.6131	68.118
3.5981	67.7935
3.5832	67.4488
3.5684	67.0157
3.5537	66.5183
3.5391	66.0156
3.5247	65.3984
3.5104	64.7364
3.4962	64.0609
3.4821	63.4731
3.4681	62.9748
3.4543	62.4341
3.4405	61.7944
3.4269	60.8886
3.4133	59.9786
3.3999	59.4341
3.3866	58.9046
3.3733	57.8495
3.3602	57.1253
3.3472	56.2451
3.3343	55.5997
3.3215	54.5958
3.3088	53.602
3.2961	52.4596
3.2836	51.2036
3.2712	50.1203
3.2588	48.9114
3.2466	47.6609
3.2345	46.33
3.2224	45.0807
3.2104	43.7945
3.1985	42.4786
3.1867	41.2044
3.175	39.8954
3.1634	38.6579
3.1519	37.4749
3.1404	36.2421
3.129	35.2697
3.1178	34.2658
3.1065	33.2397
3.0954	32.4474
3.0844	31.8189
3.0734	31.304
3.0625	30.7301
3.0517	30.3534
3.041	29.7756
3.0303	29.3065
3.0197	28.7301
3.0092	28.2235
2.9987	27.8906
2.9884	27.2334
2.9781	26.8973
2.9678	26.6057
2.9577	26.172
2.9476	26.1084
2.9376	26.0035
2.9276	26.0788
2.9177	26.2554
2.9079	26.2301
2.8982	26.8196
2.8885	27.1368
2.8789	27.6496
2.8693	28.054
2.8598	28.8821
2.8504	29.5815
2.841	30.4403
2.8317	31.329
2.8224	32.5746
2.8133	33.5963
2.8041	35.082
2.7951	35.9478
2.786	38.0623
2.7771	39.3059
2.7682	41.7107
2.7594	43.4689
2.7506	46.0697
2.7418	50.5342
2.7332	53.2493
2.7246	58.9268
2.716	61.0352
2.7075	64.3996
2.699	66.6448
2.6906	68.3538
2.6823	69.8228
2.674	70.9504
2.6657	74.061
2.6575	71.5524
2.6494	71.8098
2.6413	72.3216
2.6332	72.9953
2.6252	73.236
2.6173	74.8234
2.6094	73.8162
2.6015	73.7475
2.5937	76.0731
2.5859	73.9073
2.5782	73.5261
2.5706	73.8584
2.5629	74.5125
2.5554	73.0825
2.5478	73.4401
2.5403	73.1354
2.5329	73.3468
2.5255	73.1251
2.5181	73.2775
2.5108	73.2785
2.5035	73.2534
2.4963	73.4447
2.4891	73.5483
2.482	73.6985
2.4749	73.6379
2.4678	73.8056
2.4608	74.0003
2.4538	74.1722
2.4468	74.116
2.4399	74.2145
2.4331	74.4286
2.4262	74.5375
2.4194	74.7097
2.4127	74.7109
2.4059	74.8901
2.3993	74.7806
2.3926	75.0025
2.386	75.0223
2.3795	75.1741
2.3729	75.1233
2.3664	75.227
2.36	75.3198
2.3535	75.3424
2.3471	75.32
2.3408	75.4361
2.3345	75.6013
2.3282	75.528
2.3219	75.7585
2.3157	75.8191
2.3095	75.5573
2.3034	75.4655
2.2972	75.6309
2.2911	75.6631
2.2851	75.7274
2.279	75.5958
2.2731	75.9126
2.2671	75.7716
2.2612	75.8424
2.2553	75.8444
2.2494	75.8278
2.2435	75.8708
2.2377	75.7827
2.232	75.7047
2.2262	75.815
2.2205	75.7607
2.2148	75.7433
2.2091	75.877
2.2035	75.9512
2.1979	75.75
2.1923	75.7861
2.1868	75.7956
2.1812	75.71
2.1758	75.8904
2.1703	75.7318
2.1649	75.8201
2.1595	75.5958
2.1541	75.7846
2.1487	75.6961
2.1434	75.6164
2.1381	75.5678
2.1328	75.4573
2.1275	75.6967
2.1223	75.5626
2.1171	75.5543
2.112	75.4759
2.1068	75.482
2.1017	75.5369
2.0966	75.4753
2.0915	75.4557
2.0865	75.6839
2.0814	75.2865
2.0764	75.2998
2.0715	75.5059
2.0665	75.4129
2.0616	75.2377
2.0567	75.1294
2.0518	75.4498
2.0469	75.1704
2.0421	75.1116
2.0373	74.8921
2.0325	74.9728
2.0277	74.7741
2.0229	74.6077
2.0182	74.6106
2.0135	74.4511
2.0088	74.1306
2.0042	74.3516
