Name: Witherite BaCO_3
Type: Mineral
Class: Carbonate
Subclass: None
Particle Size: Medium
Sample No.: C-2A
Owner: JPL
Wavelength Range: VSWIR
Origin: United Kingdom, England.
Description: Particle size was 45-125um.Collected by:  Grieger's Inc. Original ASTER Spectral Library name was jpl.perkin.mineral.carbonate.none.medium.c02a.spectrum.txt
Measurement: Hemispherical reflectance
X Units: Wavelength (micrometers)
Y Units: Reflectance (percent)
wavelength	value
2.5	72.9459
2.494	74.5325
2.488	75.7028
2.482	76.5506
2.476	77.0056
2.47	77.506
2.464	77.8774
2.458	78.3564
2.452	78.339
2.446	78.5892
2.44	78.4843
2.434	78.3369
2.428	77.5048
2.422	76.2715
2.416	74.0601
2.41	70.7156
2.404	66.2334
2.398	61.1002
2.392	57.0806
2.386	55.7709
2.38	57.7292
2.374	61.2725
2.368	64.5315
2.362	66.6817
2.356	68.1936
2.35	68.9501
2.344	69.4866
2.338	70.1372
2.332	70.9886
2.326	72.1869
2.32	73.5376
2.314	75.0249
2.308	76.3919
2.302	77.7119
2.296	78.8223
2.29	79.9177
2.284	80.8913
2.278	81.7002
2.272	82.5943
2.266	83.2447
2.26	84.0995
2.254	84.8168
2.248	85.3453
2.242	85.8687
2.236	86.236
2.23	86.393
2.224	85.7634
2.218	84.3709
2.212	82.7532
2.206	82.3677
2.2	83.8422
2.194	85.8218
2.188	86.9757
2.182	87.7248
2.176	88.3205
2.17	88.573
2.164	88.9077
2.158	89.1674
2.152	89.4453
2.146	89.8522
2.14	90.1875
2.134	90.3694
2.128	90.3534
2.122	90.0721
2.116	89.891
2.11	89.5412
2.104	89.3108
2.098	89.0475
2.092	89.1969
2.086	89.1728
2.08	89.0737
2.074	88.9903
2.068	88.6934
2.062	87.9219
2.056	86.173
2.05	83.6313
2.044	83.1616
2.038	84.9213
2.032	86.2422
2.026	87.1647
2.02	87.4181
2.014	87.5506
2.008	87.6535
2.002	87.8966
1.996	88.2134
1.99	88.4335
1.984	88.6458
1.978	88.6072
1.972	88.4509
1.966	88.4162
1.96	88.2125
1.954	88.0397
1.948	87.9724
1.942	87.6601
1.936	87.3961
1.93	86.4
1.924	84.7802
1.918	83.706
1.912	84.6674
1.906	86.3643
1.9	87.5169
1.894	88.1815
1.888	88.7003
1.882	88.9336
1.876	89.3111
1.87	89.8162
1.864	90.2344
1.858	90.628
1.852	90.8756
1.846	91.0672
1.84	91.1431
1.834	91.2811
1.828	91.3434
1.822	91.3122
1.816	91.3482
1.81	91.1892
1.804	90.7918
1.798	90.4617
1.792	90.6759
1.786	90.7466
1.78	90.7193
1.774	90.7701
1.768	90.7428
1.762	90.7313
1.756	90.7477
1.75	90.9264
1.744	91.1199
1.738	91.1904
1.732	91.3035
1.726	91.4173
1.72	91.4671
1.714	91.5049
1.708	91.5545
1.702	91.379
1.696	91.295
1.69	91.246
1.684	91.4364
1.678	91.4474
1.672	91.518
1.666	91.5382
1.66	91.5483
1.654	91.543
1.648	91.5878
1.642	91.5275
1.636	91.6593
1.63	91.6623
1.624	91.6415
1.618	91.5576
1.612	91.4026
1.606	91.1977
1.6	91.3668
1.594	91.4653
1.588	91.5275
1.582	91.4416
1.576	91.528
1.57	91.5116
1.564	91.4961
1.558	91.4987
1.552	91.5163
1.546	91.4625
1.54	91.4983
1.534	91.4449
1.528	91.3772
1.522	91.3925
1.516	91.324
1.51	91.2945
1.504	91.2645
1.498	91.219
1.492	91.1779
1.486	91.1793
1.48	91.1848
1.474	91.1667
1.468	91.0954
1.462	91.1265
1.456	91.0981
1.45	91.0841
1.444	91.1091
1.438	91.1321
1.432	91.1526
1.426	91.2412
1.42	91.2234
1.414	91.2386
1.408	91.3487
1.402	91.3692
1.396	91.5515
1.39	91.6127
1.384	91.5601
1.378	91.6015
1.372	91.5591
1.366	91.5916
1.36	91.5373
1.354	91.5905
1.348	91.5638
1.342	91.5581
1.336	91.5877
1.33	91.4986
1.324	91.5847
1.318	91.5027
1.312	91.5036
1.306	91.4868
1.3	91.4494
1.294	91.4794
1.288	91.5598
1.282	91.5552
1.276	91.5012
1.27	91.5434
1.264	91.5309
1.258	91.4382
1.252	91.4218
1.246	91.4354
1.24	91.4399
1.234	91.4442
1.228	91.4548
1.222	91.3723
1.216	91.3639
1.21	91.363
1.204	91.3475
1.198	91.3468
1.192	91.4245
1.186	91.4031
1.18	91.3332
1.174	91.3853
1.168	91.4524
1.162	91.3696
1.156	91.3267
1.15	91.3756
1.144	91.339
1.138	91.3743
1.132	91.3403
1.126	91.3406
1.12	91.3032
1.114	91.3813
1.108	91.298
1.102	91.2859
1.096	91.3522
1.09	91.2549
1.084	91.2952
1.078	91.3648
1.072	91.311
1.066	91.2514
1.06	91.3164
1.054	91.2558
1.048	91.2251
1.042	91.2933
1.036	91.2996
1.03	91.3184
1.024	91.2355
1.018	91.2266
1.012	91.2404
1.006	91.1887
1	91.2267
0.994	91.1932
0.988	91.2219
0.982	91.1674
0.976	91.2073
0.97	91.0655
0.964	91.083
0.958	91.1441
0.952	91.0527
0.946	91.0614
0.94	91.0518
0.934	90.985
0.928	91.0384
0.922	91.0456
0.916	91.0006
0.91	90.9348
0.904	90.9562
0.898	90.9036
0.892	90.8668
0.886	90.8491
0.88	90.7861
0.874	90.8396
0.868	90.7793
0.862	90.7994
0.856	90.8689
0.85	90.7786
0.844	90.842
0.838	90.7346
0.832	90.7262
0.826	90.7283
0.82	90.6307
0.814	90.6335
0.808	90.6007
0.802	90.6188
0.796	90.4423
0.79	90.4027
0.784	90.3836
0.778	90.331
0.772	90.2727
0.766	90.2178
0.76	90.1235
0.754	90.0539
0.748	90.0315
0.742	89.9677
0.736	89.8837
0.73	89.7783
0.724	89.7317
0.718	89.6893
0.712	89.574
0.706	89.4992
0.7	89.3992
0.694	89.2972
0.688	89.1808
0.682	89.0638
0.676	88.9514
0.67	88.8503
0.664	88.6968
0.658	88.581
0.652	88.4321
0.646	88.2921
0.64	88.1578
0.634	88.0223
0.628	87.8725
0.622	87.753
0.616	87.6357
0.61	87.5293
0.604	87.3996
0.598	87.2986
0.592	87.1953
0.586	87.035
0.58	86.8428
0.574	86.6901
0.568	86.5393
0.562	86.3468
0.556	86.1172
0.55	85.8915
0.544	85.6347
0.538	85.3491
0.532	85.0784
0.526	84.7436
0.52	84.4201
0.514	84.077
0.508	83.6756
0.502	83.2574
0.496	82.8623
0.49	82.3913
0.484	81.9384
0.478	81.4713
0.472	81.0207
0.466	80.5291
0.46	80.0544
0.454	79.4971
0.448	78.9846
0.442	78.4412
0.436	77.9349
0.43	77.4005
0.424	76.8413
0.418	76.2202
0.412	75.5949
0.406	74.9044
0.4	74.082
