Name: Enstatite Mg_2(SiO_3)_2
Type: Mineral
Class: Silicate
Subclass: Inosilicate
Particle Size: Fine
Sample No.: IN-10B
Owner: JPL
Wavelength Range: TIR
Origin: Norway, Telemark
Description: Particle size was 0-45um.Collected by Burminco Original ASTER Spectral Library name was jpl.nicolet.mineral.silicate.inosilicate.fine.in10b.spectrum.txt
Measurement: Hemispherical reflectance
X Units: Wavelength (micrometers)
Y Units: Reflectance (percent)
wavelength	value
15.3853	2.3427
15.1161	2.3038
14.8563	3.1741
14.6052	3.4177
14.3624	3.2194
14.1276	3.9074
13.9004	4.1034
13.6803	3.9226
13.4671	4.621
13.2604	6.1367
13.06	8.2219
12.8656	8.83
12.6769	8.9128
12.4936	10.4262
12.3155	10.6461
12.1425	10.1671
11.9742	9.0953
11.8106	7.9225
11.6513	8.2269
11.4963	8.4757
11.3454	8.3348
11.1983	6.2516
11.0551	5.7427
10.9154	5.9341
10.7793	7.8704
10.6465	7.9711
10.5169	8.6789
10.3904	8.6529
10.267	9.3657
10.1464	8.9566
10.0287	6.3331
9.9136	6.0346
9.8012	5.5177
9.6913	6.2255
9.5838	8.1108
9.4787	9.8309
9.3758	10.0039
9.2752	9.7678
9.1767	9.375
9.0803	9.8536
8.9858	9.9425
8.8934	8.6661
8.8028	8.3831
8.714	7.799
8.627	6.6897
8.5417	4.8805
8.4581	4.1566
8.3761	4.0498
8.2957	4.0031
8.2169	4.3535
8.1395	4.9835
8.0635	5.6987
7.989	6.5233
7.9158	7.4689
7.8439	8.4214
7.7734	9.2946
7.7041	10.1537
7.636	11.0287
7.5691	11.7473
7.5034	12.5894
7.4388	13.3044
7.3753	13.8837
7.3129	14.8406
7.2515	15.8126
7.1912	16.2848
7.1318	16.7315
7.0734	17.0507
7.016	17.6463
6.9595	18.279
6.9039	18.1403
6.8492	18.477
6.7953	18.9709
6.7423	19.0287
6.6901	19.5767
6.6387	20.3209
6.5881	20.3637
6.5382	21.473
6.4892	23.2663
6.4408	22.6692
6.3931	22.3794
6.3462	21.8141
6.2999	20.5442
6.2543	20.1661
6.2094	19.3746
6.1651	19.6063
6.1214	20.1804
6.0784	20.2251
6.0359	20.2701
5.994	21.215
5.9527	23.3084
5.912	25.2619
5.8718	26.2205
5.8322	26.377
5.7931	26.0706
5.7545	26.2195
5.7165	26.7436
5.6789	26.7964
5.6418	27.6689
5.6052	27.2108
5.5691	27.5362
5.5334	28.0761
5.4982	27.9651
5.4635	28.1525
5.4291	28.5827
5.3952	29.3078
5.3618	30.1633
5.3287	30.3109
5.2961	29.7909
5.2638	28.9846
5.2319	28.3596
5.2004	27.9329
5.1693	27.234
5.1386	27.2911
5.1082	28.3247
5.0782	29.6188
5.0485	30.8626
5.0192	31.8875
4.9902	32.3685
4.9616	32.7746
4.9332	33.078
4.9052	33.2154
4.8776	33.3608
4.8502	33.5199
4.8231	33.7826
4.7963	34.7043
4.7699	35.7971
4.7437	36.5095
4.7178	37.2318
4.6922	37.7567
4.6668	38.2738
4.6418	39.035
4.617	39.8749
4.5924	40.7597
4.5681	41.254
4.5441	41.8164
4.5203	42.232
4.4968	42.4461
4.4735	42.6336
4.4505	42.7874
4.4277	42.7762
4.4051	42.9905
4.3828	42.9157
4.3607	43.1433
4.3388	43.1322
4.3171	43.157
4.2956	43.4243
4.2744	43.3838
4.2534	43.504
4.2325	43.5601
4.2119	43.7038
4.1915	43.7514
4.1712	43.8553
4.1512	43.9423
4.1313	44.0193
4.1117	44.1469
4.0922	44.2128
4.0729	44.132
4.0538	44.265
4.0349	44.2689
4.0161	44.3506
3.9976	44.1674
3.9792	43.9911
3.9609	43.8256
3.9428	43.6647
3.9249	43.8735
3.9072	43.9584
3.8896	44.1511
3.8722	44.3544
3.8549	44.4198
3.8378	44.5442
3.8208	44.5925
3.804	44.5859
3.7873	44.7491
3.7708	44.8032
3.7544	44.8646
3.7382	44.958
3.7221	45.0963
3.7061	45.133
3.6903	45.093
3.6746	45.0976
3.659	45.1261
3.6436	45.0606
3.6283	45.1323
3.6131	45.1095
3.5981	45.0731
3.5832	45.0748
3.5684	44.9362
3.5537	44.9035
3.5391	44.823
3.5247	44.6536
3.5104	44.4115
3.4962	44.3323
3.4821	44.1396
3.4681	44.0836
3.4543	43.952
3.4405	43.7102
3.4269	43.2967
3.4133	43.0152
3.3999	43.3969
3.3866	43.3723
3.3733	43.2889
3.3602	43.263
3.3472	42.992
3.3343	43.1654
3.3215	43.0649
3.3088	43
3.2961	42.8706
3.2836	42.7442
3.2712	42.6676
3.2588	42.6945
3.2466	42.531
3.2345	42.2825
3.2224	42.1837
3.2104	41.9865
3.1985	41.756
3.1867	41.467
3.175	41.1509
3.1634	41.0425
3.1519	40.8628
3.1404	40.7365
3.129	40.5177
3.1178	40.1876
3.1065	40.0265
3.0954	39.8604
3.0844	39.7546
3.0734	39.6179
3.0625	39.4641
3.0517	39.4216
3.041	39.2272
3.0303	39.0475
3.0197	38.9499
3.0092	38.5794
2.9987	38.3671
2.9884	38.2833
2.9781	38.2673
2.9678	38.0303
2.9577	38.0433
2.9476	37.7036
2.9376	37.8001
2.9276	37.7619
2.9177	37.7591
2.9079	37.8939
2.8982	37.7449
2.8885	37.7206
2.8789	37.7889
2.8693	37.6974
2.8598	37.7605
2.8504	37.8428
2.841	37.6802
2.8317	37.6841
2.8224	37.5053
2.8133	37.1473
2.8041	37.3086
2.7951	36.6092
2.786	36.7882
2.7771	36.1488
2.7682	36.4835
2.7594	35.385
2.7506	35.0271
2.7418	34.4206
2.7332	30.0605
2.7246	23.35
2.716	33.2558
2.7075	37.1191
2.699	42.8115
2.6906	46.8943
2.6823	48.9862
2.674	49.8933
2.6657	51.756
2.6575	49.9481
2.6494	49.6047
2.6413	49.9324
2.6332	50.0715
2.6252	49.8895
2.6173	50.5749
2.6094	50.0497
2.6015	49.8031
2.5937	50.926
2.5859	49.7367
2.5782	49.3139
2.5706	49.3476
2.5629	49.5742
2.5554	48.7897
2.5478	48.887
2.5403	48.6492
2.5329	48.5789
2.5255	48.35
2.5181	48.1564
2.5108	48.245
2.5035	47.8416
2.4963	47.731
2.4891	47.5479
2.482	47.4122
2.4749	47.3644
2.4678	47.1514
2.4608	47.1139
2.4538	46.9025
2.4468	46.9452
2.4399	46.9091
2.4331	46.7681
2.4262	46.6782
2.4194	46.8448
2.4127	46.4641
2.4059	46.5198
2.3993	46.3167
2.3926	46.1855
2.386	45.9657
2.3795	46.0869
2.3729	46.4695
2.3664	46.5218
2.36	46.3378
2.3535	46.3993
2.3471	46.4519
2.3408	46.505
2.3345	46.4461
2.3282	46.2915
2.3219	45.7062
2.3157	45.2711
2.3095	44.9209
2.3034	45.4714
2.2972	45.6748
2.2911	45.5617
2.2851	46.2822
2.279	46.3781
2.2731	46.5677
2.2671	46.5026
2.2612	46.9253
2.2553	47.0958
2.2494	46.9697
2.2435	46.8878
2.2377	46.9807
2.232	46.8923
2.2262	46.9214
2.2205	47.164
2.2148	47.0876
2.2091	47.121
2.2035	46.9888
2.1979	46.8812
2.1923	47.0342
2.1868	47.093
2.1812	46.8988
2.1758	46.969
2.1703	46.7133
2.1649	46.8352
2.1595	46.9634
2.1541	46.7781
2.1487	46.6879
2.1434	46.563
2.1381	46.6714
2.1328	46.3102
2.1275	46.3522
2.1223	46.212
2.1171	46.1504
2.112	46.1761
2.1068	46.0992
2.1017	45.8889
2.0966	46.0904
2.0915	45.6031
2.0865	45.9024
2.0814	44.9577
2.0764	45.3435
2.0715	45.4746
2.0665	45.1614
2.0616	45.1885
2.0567	44.8507
2.0518	44.8418
2.0469	44.6761
2.0421	44.5537
2.0373	44.6296
2.0325	44.743
2.0277	44.543
2.0229	44.2801
2.0182	44.1624
2.0135	44.0324
2.0088	44.0149
2.0042	43.8526
