Name: Aragonite CaCO3
Type: Mineral
Class: Carbonate
Subclass: None
Particle Size: Coarse
Sample No.: aragonite_1
Owner: JHU
Wavelength Range: TIR
Origin: Sample from Horenec, Bilina, Cechy, Czechoslovakia, viaSmithsonian (sample no. NMNH B10083).
Description: The sample was composed of two transparent, colorless pieces: one prismatic, 1.8 cm x 1.8 cm x 2 cm, and weighing about 2 g; the other a 5 mm x 5 mm x 5 mm cleavage fragment weighing 0.65 g.  No impurities were detected in hand sample or microscopically. Particle size was 74-250 Micrometers. Original ASTER Spectral Library name was jhu.nicolet.mineral.carbonate.none.coarse.aragon1.spectrum.txt
Measurement: Bidirectional reflectance
X Units: Wavelength (micrometers)
Y Units: Reflectance (percent)
wavelength	value
25.0442	2.2344
24.3388	0.9277
23.6719	0.8584
23.0407	1.1035
22.4422	1.3467
21.8741	1.5754
21.334	1.887
20.8199	2.2178
20.33	2.4893
19.8627	2.8232
19.4163	3.0976
18.9896	3.4346
18.5812	3.7778
18.19	4.2139
17.815	4.7649
17.4551	5.4558
17.1094	6.0476
16.7772	6.5942
16.4576	7.0703
16.15	7.5273
15.8537	8.0029
15.568	8.3796
15.2925	8.6992
15.0265	8.7954
14.7697	8.521
14.5214	6.5349
14.2814	3.3518
14.0492	5.2915
13.8244	5.0932
13.6067	7.7827
13.3957	8.7612
13.1912	9.1699
12.9929	9.3183
12.8004	9.1467
12.6135	8.6977
12.432	8.0598
12.2557	7.2866
12.0843	6.0288
11.9176	5.0498
11.7555	5.4392
11.5977	6.9099
11.444	10.2312
11.2944	7.0532
11.1487	4.7991
11.0067	3.3755
10.8682	5.5464
10.7332	5.7119
10.6015	5.9856
10.473	6.2146
10.3476	6.3901
10.2251	6.3113
10.1056	6.593
9.9887	6.9692
9.8746	7.0732
9.763	7.0263
9.6539	6.9021
9.5472	6.6333
9.4429	5.5246
9.3408	5.4216
9.2409	2.9748
9.1431	5.1045
9.0474	5.3591
8.9536	5.5984
8.8618	5.2449
8.7718	4.7786
8.6837	4.3943
8.5973	3.9465
8.5126	3.5947
8.4295	3.6225
8.3481	3.7578
8.2682	3.9243
8.1898	3.8489
8.1129	3.7468
8.0374	3.6316
7.9634	3.6819
7.8906	3.6052
7.8192	3.5239
7.7491	3.6059
7.6802	3.6667
7.6126	3.7549
7.5461	3.8562
7.4807	3.9258
7.4165	3.9873
7.3534	4.0727
7.2914	4.2207
7.2303	4.3884
7.1703	4.5478
7.1113	4.8491
7.0533	5.2588
6.9962	5.845
6.94	7.187
6.8847	9.6753
6.8302	11.7861
6.7767	13.7243
6.7239	15.2553
6.672	16.5012
6.6209	17.0593
6.5705	17.2431
6.5209	17.2473
6.4721	16.8313
6.424	15.4599
6.3766	12.2107
6.3299	10.0429
6.2838	7.7336
6.2385	5.3767
6.1937	3.5705
6.1496	2.188
6.1062	1.2185
6.0633	0.7808
6.0211	0.7261
5.9794	0.8086
5.9383	0.957
5.8978	1.1023
5.8578	1.2524
5.8184	1.3887
5.7794	1.6438
5.741	1.8975
5.7031	2.1182
5.6657	2.3337
5.6288	1.4797
5.5924	1.218
5.5564	1.9133
5.5209	4.5359
5.4859	5.8794
5.4513	6.7678
5.4171	7.498
5.3833	8.1194
5.35	8.6692
5.3171	9.1345
5.2846	9.4756
5.2524	9.7278
5.2207	10.0246
5.1893	10.3518
5.1584	10.528
5.1277	10.7331
5.0975	10.9546
5.0676	11.1806
5.038	11.3481
5.0088	11.6882
4.98	11.874
4.9514	12.0434
4.9232	12.1989
4.8953	12.3359
4.8678	12.4096
4.8405	12.4604
4.8135	12.4895
4.7868	12.2998
4.7605	11.4182
4.7344	9.5241
4.7086	8.5644
4.6831	8.1091
4.6578	7.8305
4.6328	7.1911
4.6081	8.3017
4.5837	8.698
4.5595	9.4511
4.5356	10.0114
4.5119	10.622
4.4884	10.917
4.4652	10.9248
4.4423	10.8445
4.4196	11.0459
4.3971	11.4736
4.3748	11.5915
4.3528	11.0539
4.331	9.8913
4.3094	9.2807
4.288	9.2573
4.2668	9.248
4.2458	8.8437
4.2251	9.3781
4.2045	9.2558
4.1841	9.3952
4.164	9.5561
4.144	9.4734
4.1242	9.145
4.1046	8.6741
4.0852	8.1577
4.066	6.9739
4.047	5.1199
4.0281	3.3838
4.0094	2.5625
3.9909	2.2634
3.9725	2.1453
3.9544	2.0339
3.9363	2.4277
3.9185	2.3247
3.9008	2.5972
3.8833	2.9512
3.8659	3.2512
3.8487	3.4812
3.8316	3.426
3.8147	3.3516
3.7979	3.4004
3.7813	4.0559
3.7648	5.2607
3.7485	7.7522
3.7323	9.2263
3.7162	9.782
3.7003	10.1269
3.6845	10.3213
3.6689	10.4167
3.6534	10.519
3.638	10.5156
3.6227	10.4773
3.6076	10.2451
3.5926	10.2068
3.5777	10.032
3.563	9.5859
3.5484	8.9646
3.5338	7.8083
3.5195	5.3154
3.5052	3.4277
3.491	4.0915
3.477	4.4267
3.463	3.853
3.4492	2.9431
3.4355	2.5259
3.4219	2.2537
3.4084	2.4617
3.395	2.6411
3.3817	2.7795
3.3685	2.7856
3.3554	2.7463
3.3425	2.8391
3.3296	3.5093
3.3168	4.4162
3.3041	5.1626
3.2915	5.8061
3.279	7.0068
3.2666	8.0117
3.2543	8.4494
3.2421	8.7512
3.23	8.9616
3.218	9.1343
3.206	9.3196
3.1942	9.5053
3.1824	9.644
3.1707	9.7104
3.1591	9.7153
3.1476	9.6357
3.1362	9.3442
3.1249	9.228
3.1136	9.3723
3.1024	9.251
3.0913	9.4262
3.0803	9.7871
3.0694	10.0356
3.0585	10.251
3.0477	10.4287
3.037	10.542
3.0264	10.6157
3.0158	10.6469
3.0053	10.7116
2.9949	10.7776
2.9845	10.8862
2.9743	10.9797
2.9641	11.0674
2.9539	11.1699
2.9439	11.25
2.9339	11.352
2.9239	11.4062
2.9141	11.4643
2.9043	11.5615
2.8946	11.644
2.8849	11.6631
2.8753	11.7041
2.8658	11.83
2.8563	11.955
2.8469	11.9948
2.8375	12.0092
2.8282	11.9572
2.819	11.6028
2.8098	11.0092
2.8007	11.1491
2.7917	11.3247
2.7827	10.5569
2.7738	11.6115
2.7649	12.1975
2.7561	12.77
2.7473	13.28
2.7386	13.6076
2.7299	13.9192
2.7213	14.019
2.7128	14.1052
2.7043	14.1526
2.6959	14.2668
2.6875	14.5293
2.6791	14.802
2.6709	14.9309
2.6626	14.9755
2.6545	15.0083
2.6463	15.008
2.6382	14.9902
2.6302	14.9843
2.6222	15.0293
2.6143	15.0009
2.6064	14.9384
2.5986	14.9211
2.5908	14.8745
2.583	14.6372
2.5753	14.1601
2.5677	13.5754
2.5601	13.2343
2.5525	12.8442
2.545	12.3039
2.5375	12.0185
2.5301	11.73
2.5227	11.2258
2.5154	11.2807
2.5081	11.4729
2.5008	11.8842
2.4936	12.2043
2.4864	12.4729
2.4793	12.7119
2.4722	12.8554
2.4651	12.9787
2.4581	13.1562
2.4511	13.4006
2.4442	13.6884
2.4373	13.9426
2.4305	14.1965
2.4236	14.4067
2.4169	14.5488
2.4101	14.6367
2.4034	14.7299
2.3967	14.7509
2.3901	14.7353
2.3835	14.7622
2.377	14.7519
2.3704	14.6025
2.364	14.3208
2.3575	14.0009
2.3511	13.6308
2.3447	13.4355
2.3384	13.3501
2.3321	13.2509
2.3258	13.2221
2.3195	13.1372
2.3133	13.1884
2.3071	13.2212
2.301	13.2168
2.2949	13.2944
2.2888	13.3989
2.2828	13.4902
2.2767	13.6386
2.2708	13.7426
2.2648	13.8857
2.2589	13.9809
2.253	14.0395
2.2471	14.1528
2.2413	14.2568
2.2355	14.3974
2.2297	14.438
2.224	14.4785
2.2183	14.5488
2.2126	14.6572
2.207	14.688
2.2013	14.7485
2.1957	14.8203
2.1902	14.809
2.1846	14.8203
2.1791	14.7744
2.1736	14.7837
2.1682	14.7949
2.1628	14.8247
2.1574	14.811
2.152	14.7407
2.1466	14.7329
2.1413	14.8266
2.136	14.8711
2.1308	14.873
2.1255	14.9751
2.1203	14.977
2.1151	15.0044
2.11	15.0122
2.1048	14.9746
2.0997	15.0004
2.0946	15.0883
2.0895	15.125
2.0845	15.082
2.0795	15.082
