Name: Nepheline (Na,K)AlSiO4
Type: Mineral
Class: Silicate
Subclass: Tectosilicate
Particle Size: Solid
Sample No.: nephel_2
Owner: JHU
Wavelength Range: TIR
Origin: Brevig, Norway via Norma Vergo
Description: The hand sample was a massive chunk of unusually dark gray nepheline, weighing 15 g.  Under the microscope, the sample appeared to be almost entirely pure nepheline, although many grains showed fluid inclusions.  (Framework Silicates); (Feldspathoid Group) Original ASTER Spectral Library name was jhu.nicolet.mineral.silicate.tectosilicate.solid.nephel2.spectrum.txt
Measurement: Bidirectional reflectance
X Units: Wavelength (micrometers)
Y Units: Reflectance (percent)
wavelength	value
25.0442	14.8671
24.3388	15.4736
23.6719	15.3984
23.0407	16.4316
22.4422	18.6867
21.8741	21.7109
21.334	24.9777
20.8199	23.9096
20.33	14.0146
19.8627	8.2461
19.4163	9.4275
18.9896	9.186
18.5812	6.091
18.19	3.4465
17.815	3.6758
17.4551	4.2078
17.1094	4.4817
16.7772	4.9184
16.4576	5.3474
16.15	5.645
15.8537	5.8169
15.568	6.2275
15.2925	6.907
15.0265	7.8313
14.7697	8.8862
14.5214	10.75
14.2814	10.0578
14.0492	9.0742
13.8244	7.3076
13.6067	6.0439
13.3957	5.1235
13.1912	4.595
12.9929	4.4348
12.8004	4.612
12.6135	5.3157
12.432	5.8867
12.2557	6.2793
12.0843	6.6321
11.9176	6.9778
11.7555	7.3237
11.5977	7.7505
11.444	8.2456
11.2944	8.8735
11.1487	9.593
11.0067	10.5298
10.8682	11.6469
10.7332	13.1245
10.6015	14.8942
10.473	17.5769
10.3476	22.1306
10.2251	27.0248
10.1056	28.8652
9.9887	31.7795
9.8746	33.061
9.763	33.8466
9.6539	31.7646
9.5472	33.2091
9.4429	29.519
9.3408	26.4257
9.2409	23.9807
9.1431	24.9382
9.0474	24.9106
8.9536	23.2214
8.8618	21.9714
8.7718	20.071
8.6837	17.6381
8.5973	14.3525
8.5126	10.039
8.4295	5.696
8.3481	2.625
8.2682	1.1672
8.1898	0.6763
8.1129	0.5886
8.0374	0.6768
7.9634	0.8362
7.8906	1.009
7.8192	1.177
7.7491	1.3337
7.6802	1.4895
7.6126	1.6191
7.5461	1.7368
7.4807	1.8464
7.4165	1.946
7.3534	2.0398
7.2914	2.126
7.2303	2.2026
7.1703	2.2727
7.1113	2.3464
7.0533	2.417
6.9962	2.4814
6.94	2.553
6.8847	2.6164
6.8302	2.6736
6.7767	2.7095
6.7239	2.7385
6.672	2.7788
6.6209	2.8203
6.5705	2.8586
6.5209	2.9165
6.4721	2.9661
6.424	3.0051
6.3766	3.0517
6.3299	3.093
6.2838	3.137
6.2385	3.1831
6.1937	3.2488
6.1496	3.2978
6.1062	3.1182
6.0633	3.0212
6.0211	3.0488
5.9794	3.0825
5.9383	3.1184
5.8978	3.1497
5.8578	3.1792
5.8184	3.2102
5.7794	3.2434
5.741	3.2771
5.7031	3.2883
5.6657	3.3105
5.6288	3.3315
5.5924	3.3555
5.5564	3.3701
5.5209	3.3904
5.4859	3.4163
5.4513	3.4348
5.4171	3.458
5.3833	3.4817
5.35	3.4995
5.3171	3.5312
5.2846	3.5422
5.2524	3.5586
5.2207	3.562
5.1893	3.5596
5.1584	3.5576
5.1277	3.5608
5.0975	3.571
5.0676	3.5798
5.038	3.5964
5.0088	3.6081
4.98	3.6257
4.9514	3.6296
4.9232	3.6416
4.8953	3.6379
4.8678	3.6558
4.8405	3.6592
4.8135	3.6838
4.7868	3.6877
4.7605	3.7231
4.7344	3.7248
4.7086	3.7617
4.6831	3.7663
4.6578	3.8054
4.6328	3.8157
4.6081	3.8252
4.5837	3.8567
4.5595	3.8701
4.5356	3.8945
4.5119	3.9075
4.4884	3.9236
4.4652	3.9578
4.4423	3.9673
4.4196	3.9885
4.3971	4.0063
4.3748	4.0171
4.3528	4.0329
4.331	4.0432
4.3094	4.0586
4.288	4.0664
4.2668	4.0725
4.2458	4.082
4.2251	4.0859
4.2045	4.1003
4.1841	4.1089
4.164	4.1208
4.144	4.1196
4.1242	4.1323
4.1046	4.1287
4.0852	4.1455
4.066	4.1489
4.047	4.155
4.0281	4.1631
4.0094	4.1702
3.9909	4.1716
3.9725	4.1694
3.9544	4.1699
3.9363	4.1733
3.9185	4.1843
3.9008	4.177
3.8833	4.1789
3.8659	4.1775
3.8487	4.1816
3.8316	4.1838
3.8147	4.1848
3.7979	4.1731
3.7813	4.1755
3.7648	4.1814
3.7485	4.1882
3.7323	4.1931
3.7162	4.1829
3.7003	4.1846
3.6845	4.1865
3.6689	4.1902
3.6534	4.1926
3.638	4.188
3.6227	4.185
3.6076	4.1716
3.5926	4.1765
3.5777	4.1807
3.563	4.1726
3.5484	4.1682
3.5338	4.1511
3.5195	4.1555
3.5052	4.1516
3.491	4.1384
3.477	4.1291
3.463	4.1194
3.4492	4.1262
3.4355	4.125
3.4219	4.1206
3.4084	4.1074
3.395	4.0986
3.3817	4.0813
3.3685	4.0757
3.3554	4.0583
3.3425	4.0503
3.3296	4.0298
3.3168	4.0271
3.3041	4.019
3.2915	4.0107
3.279	4.0044
3.2666	3.9809
3.2543	3.9739
3.2421	3.9551
3.23	3.9524
3.218	3.9409
3.206	3.9297
3.1942	3.9128
3.1824	3.8979
3.1707	3.886
3.1591	3.8691
3.1476	3.8501
3.1362	3.835
3.1249	3.8252
3.1136	3.8183
3.1024	3.7969
3.0913	3.7856
3.0803	3.7725
3.0694	3.7519
3.0585	3.7358
3.0477	3.7251
3.037	3.7056
3.0264	3.6982
3.0158	3.6836
3.0053	3.689
2.9949	3.6733
2.9845	3.668
2.9743	3.6401
2.9641	3.6406
2.9539	3.6191
2.9439	3.5845
2.9339	3.5684
2.9239	3.5547
2.9141	3.5264
2.9043	3.5044
2.8946	3.4907
2.8849	3.4724
2.8753	3.4419
2.8658	3.4233
2.8563	3.4087
2.8469	3.3774
2.8375	3.3784
2.8282	3.3467
2.819	3.3179
2.8098	3.2839
2.8007	3.272
2.7917	3.2524
2.7827	3.2305
2.7738	3.2034
2.7649	3.1589
2.7561	3.1457
2.7473	3.1819
2.7386	3.2383
2.7299	3.3076
2.7213	3.376
2.7128	3.4121
2.7043	3.4575
2.6959	3.5002
2.6875	3.5239
2.6791	3.5188
2.6709	3.5198
2.6626	3.522
2.6545	3.5315
2.6463	3.5132
2.6382	3.5098
2.6302	3.51
2.6222	3.4924
2.6143	3.4778
2.6064	3.4805
2.5986	3.4453
2.5908	3.4307
2.583	3.4141
2.5753	3.386
2.5677	3.3323
2.5601	3.3215
2.5525	3.3115
2.545	3.2944
2.5375	3.2883
2.5301	3.2561
2.5227	3.2363
2.5154	3.2319
2.5081	3.2053
2.5008	3.2012
2.4936	3.1851
2.4864	3.1865
2.4793	3.1797
2.4722	3.178
2.4651	3.1728
2.4581	3.1633
2.4511	3.1411
2.4442	3.1807
2.4373	3.1738
2.4305	3.1846
2.4236	3.1567
2.4169	3.1675
2.4101	3.1626
2.4034	3.1743
2.3967	3.1274
2.3901	3.147
2.3835	3.1265
2.377	3.1328
2.3704	3.1489
2.364	3.1162
2.3575	3.1543
2.3511	3.1103
2.3447	3.1133
2.3384	3.1123
2.3321	3.0928
2.3258	3.0986
2.3195	3.1099
2.3133	3.1006
2.3071	3.0762
2.301	3.084
2.2949	3.1138
2.2888	3.1059
2.2828	3.1001
2.2767	3.0981
2.2708	3.1392
2.2648	3.0962
2.2589	3.1318
2.253	3.0957
2.2471	3.0786
2.2413	3.0762
2.2355	3.0864
2.2297	3.0962
2.224	3.1274
2.2183	3.1601
2.2126	3.1138
2.207	3.1152
2.2013	3.1465
2.1957	3.1528
2.1902	3.1914
2.1846	3.1426
2.1791	3.1269
2.1736	3.1641
2.1682	3.168
2.1628	3.209
2.1574	3.1606
2.152	3.1758
2.1466	3.1816
2.1413	3.1958
2.136	3.2036
2.1308	3.1958
2.1255	3.2075
2.1203	3.2075
2.1151	3.2334
2.11	3.2236
2.1048	3.2578
2.0997	3.2402
2.0946	3.2461
2.0895	3.2568
2.0845	3.3057
2.0795	3.293
