Name: Hydroxyapophyllite KCa_4Si_8O_20(OH,F).8H_2O
Type: Mineral
Class: Silicate
Subclass: Phyllosilicate
Particle Size: Coarse
Sample No.: PS-22A
Owner: JPL
Wavelength Range: VSWIR
Origin: India, Maharashtra, Poona.
Description: Particle size was 125-500um. Collected by:  Burminco Original ASTER Spectral Library name was jpl.perkin.mineral.silicate.phyllosilicate.coarse.ps22a.spectrum.txt
Measurement: Hemispherical reflectance
X Units: Wavelength (micrometers)
Y Units: Reflectance (percent)
wavelength	value
2.5	7.9459
2.494	7.5684
2.488	7.1026
2.482	6.7521
2.476	6.1926
2.47	5.8169
2.464	5.8642
2.458	5.6879
2.452	5.8379
2.446	6.2462
2.44	6.7098
2.434	7.0658
2.428	6.9729
2.422	6.4618
2.416	5.9336
2.41	5.5129
2.404	5.3883
2.398	5.3755
2.392	5.4697
2.386	5.7765
2.38	6.4672
2.374	7.5276
2.368	9.1539
2.362	11.3091
2.356	13.6816
2.35	15.8694
2.344	17.5578
2.338	18.7027
2.332	19.2953
2.326	19.5306
2.32	19.5054
2.314	19.2507
2.308	18.9728
2.302	19.1614
2.296	19.766
2.29	20.4548
2.284	20.8502
2.278	21.2154
2.272	21.4832
2.266	21.6492
2.26	21.6816
2.254	21.7039
2.248	21.5578
2.242	21.265
2.236	21.0871
2.23	20.8569
2.224	20.4647
2.218	20.199
2.212	19.8303
2.206	19.2067
2.2	18.6757
2.194	18.3027
2.188	17.9402
2.182	17.7757
2.176	17.4946
2.17	17.1338
2.164	16.6943
2.158	16.3344
2.152	15.9456
2.146	15.545
2.14	15.2796
2.134	15.4455
2.128	15.6702
2.122	16.0297
2.116	16.4486
2.11	16.8991
2.104	17.3384
2.098	17.7181
2.092	17.8652
2.086	17.8521
2.08	17.7389
2.074	17.5222
2.068	17.3708
2.062	17.3948
2.056	17.3769
2.05	17.3992
2.044	17.4983
2.038	17.4482
2.032	17.4923
2.026	17.3912
2.02	17.2808
2.014	17.1647
2.008	17.0489
2.002	16.9677
1.996	16.8105
1.99	16.7543
1.984	16.8148
1.978	16.958
1.972	17.0519
1.966	17.091
1.96	16.9716
1.954	16.6816
1.948	16.3036
1.942	15.5174
1.936	13.9325
1.93	11.6241
1.924	8.6095
1.918	5.9274
1.912	5.1715
1.906	7.0731
1.9	11.2865
1.894	15.867
1.888	18.962
1.882	20.7185
1.876	21.7116
1.87	22.8236
1.864	23.7631
1.858	24.3904
1.852	24.9169
1.846	25.0942
1.84	25.1559
1.834	25.2273
1.828	25.2054
1.822	25.1404
1.816	25.113
1.81	25.0877
1.804	25.0757
1.798	25.0376
1.792	25.13
1.786	25.1496
1.78	25.2267
1.774	25.2559
1.768	25.4159
1.762	25.5522
1.756	25.7183
1.75	25.8983
1.744	26.1595
1.738	26.5386
1.732	26.9068
1.726	27.07
1.72	27.3137
1.714	27.8001
1.708	28.6495
1.702	29.642
1.696	30.7633
1.69	31.8279
1.684	32.9059
1.678	33.8469
1.672	34.6269
1.666	35.4935
1.66	36.5099
1.654	37.4025
1.648	38.3167
1.642	39.417
1.636	40.5791
1.63	41.6032
1.624	42.7158
1.618	43.7856
1.612	44.7234
1.606	45.7121
1.6	46.6494
1.594	47.5751
1.588	48.3508
1.582	48.9452
1.576	49.5368
1.57	49.8731
1.564	50.0604
1.558	49.8655
1.552	49.4648
1.546	48.8544
1.54	48.0899
1.534	46.7338
1.528	44.5738
1.522	42.75
1.516	42.8827
1.51	43.5997
1.504	44.0889
1.498	44.5062
1.492	44.8317
1.486	45.1684
1.48	45.1828
1.474	44.46
1.468	43.3991
1.462	40.6124
1.456	35.6877
1.45	28.3488
1.444	22.2528
1.438	29.6919
1.432	35.7579
1.426	41.4609
1.42	47.4857
1.414	53.474
1.408	55.0091
1.402	61.6038
1.396	65.2074
1.39	67.002
1.384	67.6309
1.378	67.8435
1.372	68.011
1.366	68.282
1.36	67.9601
1.354	67.2545
1.348	65.9847
1.342	66.0169
1.336	68.0774
1.33	68.1805
1.324	68.3176
1.318	69.9824
1.312	71.8765
1.306	72.6082
1.3	72.9118
1.294	73.5138
1.288	74.2461
1.282	75.0537
1.276	75.587
1.27	75.9533
1.264	76.2314
1.258	76.4497
1.252	76.783
1.246	77.1394
1.24	77.4651
1.234	77.5625
1.228	77.4007
1.222	76.9931
1.216	76.9048
1.21	77.0082
1.204	77.1386
1.198	77.0727
1.192	76.7351
1.186	75.9388
1.18	74.507
1.174	71.1674
1.168	64.2725
1.162	66.4686
1.156	73.681
1.15	77.5985
1.144	79.8022
1.138	80.7836
1.132	81.3661
1.126	81.57
1.12	81.6327
1.114	81.7897
1.108	81.6052
1.102	81.439
1.096	81.3534
1.09	81.4441
1.084	81.6018
1.078	81.9427
1.072	82.114
1.066	82.0464
1.06	82.1385
1.054	82.1738
1.048	82.3136
1.042	82.3217
1.036	82.3176
1.03	82.2484
1.024	82.0757
1.018	81.6188
1.012	81.2207
1.006	80.2839
1	78.6824
0.994	75.9855
0.988	72.8006
0.982	73.5151
0.976	77.0147
0.97	80.2014
0.964	81.943
0.958	82.6129
0.952	82.7868
0.946	82.8149
0.94	82.8945
0.934	82.944
0.928	83.1224
0.922	83.2825
0.916	83.3196
0.91	83.4334
0.904	83.4962
0.898	83.4993
0.892	83.5574
0.886	83.565
0.88	83.581
0.874	83.5875
0.868	83.4942
0.862	83.4973
0.856	83.5471
0.85	83.4288
0.844	83.5908
0.838	83.9374
0.832	84.0266
0.826	84.1926
0.82	84.1729
0.814	84.2559
0.808	84.3382
0.802	84.4471
0.796	84.4649
0.79	84.4466
0.784	84.5126
0.778	84.4928
0.772	84.4072
0.766	84.2138
0.76	83.9529
0.754	83.997
0.748	84.4429
0.742	84.6982
0.736	84.7844
0.73	84.8375
0.724	84.8381
0.718	84.836
0.712	84.8454
0.706	84.8242
0.7	84.8238
0.694	84.7196
0.688	84.6811
0.682	84.6346
0.676	84.5849
0.67	84.5177
0.664	84.4737
0.658	84.4286
0.652	84.4226
0.646	84.4027
0.64	84.3774
0.634	84.3974
0.628	84.386
0.622	84.4154
0.616	84.4746
0.61	84.5591
0.604	84.6289
0.598	84.7585
0.592	84.8731
0.586	84.9516
0.58	85.0107
0.574	85.0631
0.568	85.1275
0.562	85.106
0.556	85.0669
0.55	85.0342
0.544	85.116
0.538	85.0429
0.532	84.978
0.526	84.8718
0.52	84.7272
0.514	84.5631
0.508	84.3802
0.502	84.1664
0.496	83.9827
0.49	83.7223
0.484	83.5541
0.478	83.3092
0.472	83.0696
0.466	82.8708
0.46	82.6696
0.454	82.4551
0.448	82.2643
0.442	82.0631
0.436	81.898
0.43	81.7226
0.424	81.5521
0.418	81.373
0.412	81.2273
0.406	80.9999
0.4	80.6923
