Name: Topaz Al2SiO4(F,OH)2
Type: Mineral
Class: Silicate
Subclass: Nesosilicate
Particle Size: Fine
Sample No.: topaz_4
Owner: JHU
Wavelength Range: TIR
Origin: Wsakos, Namibia via Don Hoover, USGS
Description: The sample consisted of one small colorless fragment less than a centimeter across.  Petrographically the sample appeared pure and clean but contains obvious fluid inclusions. Particle size was 0 - 74  Micrometers.(Isolated tetrahedra) Original ASTER Spectral Library name was jhu.nicolet.mineral.silicate.nesosilicate.powder.topaz4.spectrum.txt
Measurement: Bidirectional reflectance
X Units: Wavelength (micrometers)
Y Units: Reflectance (percent)
wavelength	value
25.0442	1.3037
24.3388	1.8652
23.6719	1.6035
23.0407	2.1038
22.4422	2.416
21.8741	2.7417
21.334	2.1621
20.8199	1.8711
20.33	1.873
19.8627	1.8926
19.4163	1.5703
18.9896	1.7021
18.5812	1.9236
18.19	2.1772
17.815	1.1455
17.4551	1.1323
17.1094	1.1025
16.7772	1.3506
16.4576	1.7017
16.15	2.2041
15.8537	2.3306
15.568	2.3589
15.2925	2.3506
15.0265	2.3147
14.7697	2.0793
14.5214	1.3977
14.2814	0.51
14.0492	0.3845
13.8244	0.8955
13.6067	1.8552
13.3957	2.3611
13.1912	2.4263
12.9929	1.835
12.8004	2.4631
12.6135	2.4978
12.432	2.2422
12.2557	1.9199
12.0843	1.6436
11.9176	1.4683
11.7555	1.5644
11.5977	1.9961
11.444	2.3074
11.2944	2.3486
11.1487	2.2922
11.0067	2.1897
10.8682	2.2073
10.7332	2.1619
10.6015	2.5066
10.473	2.6313
10.3476	2.6374
10.2251	2.5405
10.1056	2.2615
9.9887	2.3821
9.8746	2.8303
9.763	3.1291
9.6539	3.3708
9.5472	3.6553
9.4429	3.5652
9.3408	3.1853
9.2409	2.5537
9.1431	1.7366
9.0474	1.0234
8.9536	0.4888
8.8618	0.2095
8.7718	0.1711
8.6837	0.3201
8.5973	0.3425
8.5126	0.3245
8.4295	0.2944
8.3481	0.5749
8.2682	0.9951
8.1898	1.4924
8.1129	2.0195
8.0374	2.4905
7.9634	2.9997
7.8906	3.5474
7.8192	4.1045
7.7491	4.5849
7.6802	4.8579
7.6126	5.1294
7.5461	5.3984
7.4807	5.6675
7.4165	5.9458
7.3534	6.3054
7.2914	6.6238
7.2303	6.8569
7.1703	7.0708
7.1113	7.2807
7.0533	7.3772
6.9962	7.487
6.94	7.6946
6.8847	7.9148
6.8302	8.0337
6.7767	8.0561
6.7239	8.1086
6.672	8.2658
6.6209	8.5117
6.5705	8.6787
6.5209	8.8115
6.4721	8.8965
6.424	9.0427
6.3766	9.2278
6.3299	9.3781
6.2838	9.4392
6.2385	9.5581
6.1937	9.6928
6.1496	9.8264
6.1062	9.8867
6.0633	10.0818
6.0211	10.32
5.9794	10.5117
5.9383	10.4065
5.8978	10.1225
5.8578	9.8694
5.8184	9.3369
5.7794	9.195
5.741	9.4136
5.7031	9.4228
5.6657	9.031
5.6288	8.2956
5.5924	7.27
5.5564	6.4082
5.5209	6.0903
5.4859	6.1736
5.4513	6.426
5.4171	6.635
5.3833	6.5762
5.35	6.6684
5.3171	7.0093
5.2846	7.4021
5.2524	8.0158
5.2207	8.9734
5.1893	9.7827
5.1584	10.3183
5.1277	10.7129
5.0975	11.1098
5.0676	11.4958
5.038	11.748
5.0088	11.8784
4.98	11.7705
4.9514	11.6035
4.9232	12.0966
4.8953	12.8156
4.8678	13.2798
4.8405	13.5476
4.8135	13.7446
4.7868	13.8425
4.7605	13.9013
4.7344	13.9375
4.7086	13.9636
4.6831	13.9968
4.6578	14.0009
4.6328	14.0048
4.6081	14.0205
4.5837	14.0761
4.5595	14.1008
4.5356	14.1445
4.5119	14.1831
4.4884	14.2243
4.4652	14.2409
4.4423	14.2485
4.4196	14.2595
4.3971	14.217
4.3748	14.0974
4.3528	13.7133
4.331	12.7373
4.3094	11.8845
4.288	13.1789
4.2668	13.8708
4.2458	14.1699
4.2251	14.3054
4.2045	14.3684
4.1841	14.3825
4.164	14.3901
4.144	14.3967
4.1242	14.4011
4.1046	14.4174
4.0852	14.4226
4.066	14.4384
4.047	14.4165
4.0281	14.3381
4.0094	14.3855
3.9909	14.4292
3.9725	14.4389
3.9544	14.4497
3.9363	14.4406
3.9185	14.4423
3.9008	14.3986
3.8833	14.3339
3.8659	14.279
3.8487	14.2551
3.8316	14.2592
3.8147	14.2859
3.7979	14.3017
3.7813	14.3161
3.7648	14.3405
3.7485	14.3437
3.7323	14.3381
3.7162	14.227
3.7003	14.3076
3.6845	14.2876
3.6689	14.2524
3.6534	14.2348
3.638	14.2065
3.6227	14.1862
3.6076	14.166
3.5926	14.1511
3.5777	14.125
3.563	14.1013
3.5484	14.0761
3.5338	14.028
3.5195	13.9133
3.5052	13.5725
3.491	13.7378
3.477	13.8029
3.463	13.7917
3.4492	13.6735
3.4355	13.4975
3.4219	13.1652
3.4084	13.2671
3.395	13.5276
3.3817	13.5532
3.3685	13.6291
3.3554	13.7351
3.3425	13.7668
3.3296	13.7697
3.3168	13.747
3.3041	13.7126
3.2915	13.7004
3.279	13.677
3.2666	13.6386
3.2543	13.6045
3.2421	13.5861
3.23	13.5368
3.218	13.5312
3.206	13.4973
3.1942	13.478
3.1824	13.4509
3.1707	13.3969
3.1591	13.3615
3.1476	13.3366
3.1362	13.3015
3.1249	13.2761
3.1136	13.2444
3.1024	13.1967
3.0913	13.1284
3.0803	13.0671
3.0694	13.03
3.0585	12.9438
3.0477	12.8557
3.037	12.7321
3.0264	12.6504
3.0158	12.4997
3.0053	12.3083
2.9949	12.2453
2.9845	12.0966
2.9743	12.0815
2.9641	12.0708
2.9539	12.2136
2.9439	12.3659
2.9339	12.3967
2.9239	12.2158
2.9141	12.1953
2.9043	12.1577
2.8946	12.1653
2.8849	12.2141
2.8753	12.1028
2.8658	12.0876
2.8563	12.4702
2.8469	12.6831
2.8375	12.7251
2.8282	12.5822
2.819	12.6181
2.8098	12.6552
2.8007	12.5693
2.7917	12.352
2.7827	12.0512
2.7738	11.6484
2.7649	10.6445
2.7561	7.8535
2.7473	3.0171
2.7386	1.1287
2.7299	7.5513
2.7213	10.8872
2.7128	12.2983
2.7043	12.9448
2.6959	13.3916
2.6875	13.6909
2.6791	13.8305
2.6709	13.9145
2.6626	14.061
2.6545	14.0825
2.6463	14.0554
2.6382	14.02
2.6302	13.8076
2.6222	13.5171
2.6143	13.507
2.6064	13.4218
2.5986	13.406
2.5908	13.6191
2.583	13.6836
2.5753	13.5122
2.5677	13.2148
2.5601	12.8535
2.5525	12.33
2.545	12.2446
2.5375	12.2961
2.5301	12.2702
2.5227	12.5388
2.5154	12.7966
2.5081	13.1721
2.5008	13.2553
2.4936	13.573
2.4864	13.7895
2.4793	13.9753
2.4722	13.9917
2.4651	14.0517
2.4581	14.226
2.4511	14.4028
2.4442	14.4741
2.4373	14.5175
2.4305	14.4995
2.4236	14.5026
2.4169	14.5249
2.4101	14.6391
2.4034	14.7192
2.3967	14.717
2.3901	14.7404
2.3835	14.8227
2.377	14.799
2.3704	14.7959
2.364	14.8567
2.3575	14.883
2.3511	14.9277
2.3447	14.9094
2.3384	14.9182
2.3321	14.9018
2.3258	14.8984
2.3195	15.0107
2.3133	15.0627
2.3071	15.0844
2.301	15.1157
2.2949	15.1584
2.2888	15.2295
2.2828	15.269
2.2767	15.2636
2.2708	15.208
2.2648	15.135
2.2589	15.1084
2.253	15.2661
2.2471	15.3212
2.2413	15.2949
2.2355	15.3349
2.2297	15.2981
2.224	15.2563
2.2183	15.2334
2.2126	15.1464
2.207	15.1425
2.2013	15.1709
2.1957	15.2258
2.1902	15.2392
2.1846	15.1826
2.1791	15.1543
2.1736	15.1171
2.1682	15.1828
2.1628	15.1223
2.1574	15.0068
2.152	14.913
2.1466	14.9238
2.1413	15.0014
2.136	15.1113
2.1308	15.2544
2.1255	15.3335
2.1203	15.2895
2.1151	15.3037
2.11	15.288
2.1048	15.1684
2.0997	15.0659
2.0946	14.7583
2.0895	13.7539
2.0845	11.539
2.0795	12.0058
