Name: Antlerite Cu_3(SO_4)(OH)_4
Type: Mineral
Class: Sulfate
Subclass: None
Particle Size: Coarse
Sample No.: SO-11A
Owner: JPL
Wavelength Range: VSWIR
Origin: USA, Arizona, Greenlee County, Morenci.
Description: Particle size was 125-500um. Collected by:  Burminco Original ASTER Spectral Library name was jpl.perkin.mineral.sulfate.none.coarse.so11a.spectrum.txt
Measurement: Hemispherical reflectance
X Units: Wavelength (micrometers)
Y Units: Reflectance (percent)
wavelength	value
2.5	15.7181
2.494	16.571
2.488	17.4724
2.482	17.7047
2.476	17.2143
2.47	16.6436
2.464	15.7827
2.458	15.1217
2.452	14.5608
2.446	14.3616
2.44	14.9209
2.434	15.8182
2.428	16.759
2.422	17.4855
2.416	17.9049
2.41	18.0296
2.404	17.6519
2.398	16.8426
2.392	15.7701
2.386	15.0247
2.38	14.3362
2.374	13.3165
2.368	12.0065
2.362	10.8384
2.356	10.0029
2.35	9.6382
2.344	9.7548
2.338	10.2647
2.332	10.7024
2.326	10.812
2.32	10.4922
2.314	9.7814
2.308	9.3947
2.302	9.6649
2.296	10.8626
2.29	12.4556
2.284	14.2688
2.278	16.1492
2.272	17.5901
2.266	18.4178
2.26	18.376
2.254	17.3153
2.248	16.0373
2.242	15.9929
2.236	17.2954
2.23	19.1915
2.224	21.3769
2.218	23.6086
2.212	25.3044
2.206	26.0301
2.2	26.1228
2.194	25.7739
2.188	25.8667
2.182	27.0864
2.176	28.0328
2.17	28.3444
2.164	28.1183
2.158	26.7781
2.152	25.6049
2.146	26.1592
2.14	27.4727
2.134	28.0448
2.128	28.6195
2.122	28.8072
2.116	28.2124
2.11	28.3968
2.104	29.6737
2.098	30.7898
2.092	31.2344
2.086	31.3663
2.08	31.4691
2.074	31.5624
2.068	31.8692
2.062	32.0246
2.056	32.3107
2.05	32.4492
2.044	32.5271
2.038	32.4812
2.032	32.3002
2.026	32.2547
2.02	32.2141
2.014	32.1729
2.008	32.1068
2.002	32.1008
1.996	32.0066
1.99	31.9049
1.984	31.6217
1.978	31.2228
1.972	30.5729
1.966	30.0188
1.96	30.1037
1.954	30.4941
1.948	30.7989
1.942	31.2084
1.936	31.3941
1.93	31.4282
1.924	31.686
1.918	31.6587
1.912	31.8366
1.906	32.3195
1.9	32.7528
1.894	33.1839
1.888	33.4787
1.882	33.5882
1.876	33.713
1.87	34.0053
1.864	34.2451
1.858	34.2766
1.852	34.2926
1.846	34.3868
1.84	34.4517
1.834	34.4693
1.828	34.5733
1.822	34.5284
1.816	34.592
1.81	34.6151
1.804	34.6163
1.798	34.6918
1.792	34.6554
1.786	34.6521
1.78	34.5456
1.774	34.4425
1.768	34.4316
1.762	34.4545
1.756	34.4002
1.75	34.3639
1.744	34.3229
1.738	34.317
1.732	34.2467
1.726	34.1863
1.72	34.1224
1.714	34.1314
1.708	34.0465
1.702	34.1355
1.696	34.0849
1.69	34.0103
1.684	33.9927
1.678	33.9315
1.672	33.9051
1.666	33.8604
1.66	33.8148
1.654	33.778
1.648	33.7214
1.642	33.5908
1.636	33.4479
1.63	33.3567
1.624	33.243
1.618	33.0806
1.612	32.96
1.606	32.9233
1.6	32.6815
1.594	32.6279
1.588	32.4562
1.582	32.1946
1.576	32.056
1.57	31.8931
1.564	31.6381
1.558	31.4232
1.552	31.1774
1.546	30.9436
1.54	30.7046
1.534	30.4265
1.528	30.1256
1.522	29.8161
1.516	29.3534
1.51	28.8852
1.504	28.3435
1.498	27.7678
1.492	26.9319
1.486	25.3962
1.48	21.2402
1.474	19.029
1.468	22.6399
1.462	24.216
1.456	24.9806
1.45	25.0421
1.444	24.4115
1.438	21.4611
1.432	15.6336
1.426	23.2256
1.42	23.2584
1.414	21.583
1.408	23.1262
1.402	23.1519
1.396	22.8019
1.39	22.9322
1.384	22.8084
1.378	22.4838
1.372	22.1565
1.366	21.8139
1.36	21.4295
1.354	21.1269
1.348	20.7878
1.342	20.4635
1.336	20.0239
1.33	19.6782
1.324	19.4307
1.318	19.0302
1.312	18.6312
1.306	18.3064
1.3	18.0912
1.294	17.6597
1.288	17.4613
1.282	17.1791
1.276	16.8591
1.27	16.6048
1.264	16.3151
1.258	16.0958
1.252	15.8626
1.246	15.5914
1.24	15.3232
1.234	15.1402
1.228	14.9019
1.222	14.7168
1.216	14.4304
1.21	14.23
1.204	14.1407
1.198	13.8866
1.192	13.7633
1.186	13.5762
1.18	13.367
1.174	13.2361
1.168	13.1366
1.162	12.9728
1.156	12.916
1.15	12.7466
1.144	12.7085
1.138	12.5285
1.132	12.43
1.126	12.3072
1.12	12.2116
1.114	12.161
1.108	12.0816
1.102	11.9861
1.096	11.849
1.09	11.8326
1.084	11.7597
1.078	11.6778
1.072	11.557
1.066	11.5246
1.06	11.523
1.054	11.4116
1.048	11.3817
1.042	11.3627
1.036	11.2192
1.03	11.1231
1.024	11.1483
1.018	11.0503
1.012	11.0282
1.006	10.9799
1	10.9691
0.994	10.8485
0.988	10.8804
0.982	10.8448
0.976	10.8201
0.97	10.6826
0.964	10.6694
0.958	10.6962
0.952	10.6749
0.946	10.7611
0.94	10.6759
0.934	10.6525
0.928	10.6605
0.922	10.7038
0.916	10.6976
0.91	10.7122
0.904	10.7345
0.898	10.7065
0.892	10.742
0.886	10.7746
0.88	10.8325
0.874	10.8342
0.868	10.8622
0.862	10.9255
0.856	10.8122
0.85	10.883
0.844	10.9375
0.838	10.9851
0.832	11.0296
0.826	11.0649
0.82	11.1018
0.814	11.1219
0.808	11.1374
0.802	11.16
0.796	11.1559
0.79	11.152
0.784	11.1518
0.778	11.1254
0.772	11.1061
0.766	11.0859
0.76	11.0698
0.754	11.0425
0.748	11.014
0.742	10.9966
0.736	10.9765
0.73	10.958
0.724	10.9487
0.718	10.9427
0.712	10.9518
0.706	10.9668
0.7	10.986
0.694	11.0245
0.688	11.0734
0.682	11.1377
0.676	11.2193
0.67	11.3178
0.664	11.4395
0.658	11.5759
0.652	11.7372
0.646	11.9309
0.64	12.1563
0.634	12.4126
0.628	12.7164
0.622	13.073
0.616	13.4904
0.61	13.9833
0.604	14.5648
0.598	15.2627
0.592	16.0819
0.586	17.0324
0.58	18.0832
0.574	19.3144
0.568	20.6594
0.562	22.0707
0.556	23.4841
0.55	24.8182
0.544	25.9838
0.538	26.9211
0.532	27.5538
0.526	27.8891
0.52	27.9067
0.514	27.6062
0.508	27.0604
0.502	26.2861
0.496	25.3505
0.49	24.3199
0.484	23.2522
0.478	22.3531
0.472	21.4766
0.466	20.6869
0.46	19.9699
0.454	19.3262
0.448	18.7373
0.442	18.204
0.436	17.7066
0.43	17.2355
0.424	16.8384
0.418	16.5001
0.412	16.2115
0.406	15.9705
0.4	15.7412
