Name: Serpentine (Mg,Fe^2+,Ni)Si_2O_5(OH)_4
Type: Mineral
Class: Silicate
Subclass: Phyllosilicate
Particle Size: Fine
Sample No.: PS-20A
Owner: JPL
Wavelength Range: VSWIR
Origin: USA, New York
Description: Particle size was 0-45um.Collected by Ward's Original ASTER Spectral Library name was jpl.beckman.mineral.silicate.phyllosilicate.fine.ps20a.spectrum.txt
Measurement: Hemispherical reflectance
X Units: Wavelength (micrometers)
Y Units: Reflectance (percent)
wavelength	value
0.4	63.09
0.403	63.13
0.406	63.14
0.409	63.07
0.412	63.01
0.415	62.95
0.418	62.9
0.421	63.11
0.424	63.05
0.427	62.96
0.43	62.86
0.433	63
0.436	62.9
0.439	63.16
0.442	63.4
0.445	63.42
0.448	63.54
0.451	63.69
0.454	63.96
0.457	63.93
0.46	64.21
0.463	64.73
0.466	64.96
0.469	65.36
0.472	65.88
0.475	66.24
0.478	66.55
0.481	66.7
0.484	66.8
0.487	66.78
0.49	66.93
0.493	67.11
0.496	67.4
0.499	67.27
0.502	67.45
0.505	67.54
0.508	67.76
0.511	67.97
0.514	68.05
0.517	68.04
0.52	68.09
0.523	68.3
0.526	68.38
0.529	68.5
0.532	68.54
0.535	68.51
0.538	68.58
0.541	68.73
0.544	68.68
0.547	68.96
0.55	68.81
0.553	68.95
0.556	69.08
0.559	69.13
0.562	69.55
0.565	69.61
0.568	69.65
0.571	69.63
0.574	69.51
0.577	69.49
0.58	69.73
0.583	69.79
0.586	69.73
0.589	69.8
0.592	69.83
0.595	69.72
0.598	69.96
0.601	70.09
0.604	70
0.607	69.99
0.61	70.06
0.613	70.02
0.616	70.12
0.619	70.11
0.622	70.04
0.625	70.05
0.628	70.06
0.631	69.94
0.634	69.98
0.637	70.12
0.64	70.01
0.643	70.08
0.646	70.06
0.649	70.2
0.652	70.11
0.655	70.17
0.658	70.14
0.661	70.14
0.664	70.08
0.667	70.2
0.67	70.05
0.673	70.24
0.676	70.08
0.679	70.15
0.682	70.18
0.685	70.18
0.688	69.96
0.691	70.24
0.694	70.15
0.697	70.31
0.7	70.01
0.703	70.21
0.706	70.2
0.709	70.2
0.712	70.15
0.715	70.18
0.718	70.18
0.721	70.09
0.724	70.2
0.727	70.01
0.73	70.11
0.733	69.98
0.736	70.09
0.739	70.12
0.742	70.18
0.745	70.04
0.748	70.15
0.751	70.02
0.754	70.08
0.757	70.15
0.76	70.14
0.763	69.98
0.766	70.04
0.769	70.07
0.772	70.02
0.775	70.05
0.778	70.01
0.781	69.94
0.784	70.02
0.787	70.17
0.79	70.25
0.793	70.24
0.796	70.08
0.799	70.18
0.808	70.29
0.82	70.3
0.832	70.35
0.844	70.15
0.856	70.26
0.868	70.24
0.88	70.11
0.892	70.15
0.904	70.14
0.916	70.15
0.928	70.15
0.94	69.87
0.952	70.12
0.964	70.39
0.976	70.52
0.988	70.7
1	70.7
1.012	70.74
1.024	70.88
1.036	70.92
1.048	71.04
1.06	71.16
1.072	71.21
1.084	71.41
1.096	71.4
1.108	71.61
1.12	71.65
1.132	71.76
1.144	71.86
1.156	71.9
1.168	72.02
1.18	72.08
1.192	72.32
1.204	72.5
1.216	72.55
1.228	72.79
1.24	72.93
1.252	72.86
1.264	72.82
1.276	72.5
1.288	73.12
1.3	73.32
1.312	73.39
1.324	73.6
1.336	73.43
1.348	71.95
1.36	72.42
1.372	67.11
1.384	58.65
1.396	67.04
1.408	71.7
1.42	72.57
1.432	73.06
1.444	73.38
1.456	73.52
1.468	73.75
1.48	73.98
1.492	74.22
1.504	74.3
1.516	74.54
1.528	74.66
1.54	74.78
1.552	74.87
1.564	74.87
1.576	75.09
1.588	75.02
1.6	75.13
1.612	75.11
1.624	75.2
1.636	75.2
1.648	75.23
1.66	75.3
1.672	75.22
1.684	75.29
1.696	75.06
1.708	75.2
1.72	75.09
1.732	74.92
1.744	74.78
1.756	74.58
1.768	74.49
1.78	74.44
1.792	74.25
1.804	74.15
1.816	74.15
1.828	74.05
1.84	73.85
1.852	73.62
1.864	73.05
1.876	72
1.888	70.51
1.9	68.29
1.912	67.04
1.924	66.81
1.936	67.01
1.948	66.88
1.96	66.68
1.972	66.62
1.984	67.04
1.996	67.74
2.008	68.48
2.02	68.99
2.032	69.39
2.044	70.15
2.056	70.99
2.068	70.88
2.08	70
2.092	69.28
2.104	68.84
2.116	68.72
2.128	68.96
2.14	69.97
2.152	70.87
2.164	71.16
2.176	71.12
2.188	70.92
2.2	70.47
2.212	69.53
2.224	67.29
2.236	64.8
2.248	62.91
2.26	60.5
2.272	58.81
2.284	57.66
2.296	54.8
2.308	50.44
2.32	47.96
2.332	49.81
2.344	54.93
2.356	57.57
2.368	56.62
2.38	55.15
2.392	54.22
2.404	53.46
2.416	52.86
2.428	52.52
2.44	52.98
2.452	52.85
2.464	51.85
2.476	49.94
2.488	48.36
2.5	47.74
