Name: Augite (Ca,Na)(Mg,Fe,Al,Ti)(Si,Al)2O6
Type: Mineral
Class: Silicate
Subclass: Inosilicate
Particle Size: Fine
Sample No.: augite_1
Owner: JHU
Wavelength Range: TIR
Origin: Sample from Monteagle Township, Hostings Co., Ontario,Canada via the Smithsonian (sample no. NMNH 117461).
Description: Sample consisted of  fragments of well-formed crystal(s), with some surface contamination by calcite.  Small grains were deep, translucent green and generally clear and unaltered.  The powdered sample was washed in dilute HCl to remove residual calcite, but an extremely weak carbonate band is still seen in the spectrum of the 75-250 micrometers size range near 4.0 micrometers. Particle size was less than 2 Micrometers.(Pyroxene Group - single chain) Original ASTER Spectral Library name was jhu.nicolet.mineral.silicate.inosilicate.powder.augite1.spectrum.txt
Measurement: Transmission
X Units: Wavelength (micrometers)
Y Units: Transmittance (percent)
wavelength	value
25.0442	47.328
24.3388	52.5311
23.6719	53.6503
23.0407	45.4139
22.4422	34.0683
21.8741	28.0956
21.334	26.5898
20.8199	32.8944
20.33	38.578
19.8627	35.579
19.4163	35.1347
18.9896	38.8222
18.5812	47.037
18.19	57.1883
17.815	65.6795
17.4551	71.8953
17.1094	76.2391
16.7772	78.032
16.4576	76.825
16.15	70.5506
15.8537	62.766
15.568	74.7249
15.2925	81.9764
15.0265	77.6019
14.7697	78.055
14.5214	84.3167
14.2814	85.7366
14.0492	85.5642
13.8244	84.7971
13.6067	82.5398
13.3957	79.3162
13.1912	76.4339
12.9929	72.8318
12.8004	69.4813
12.6135	66.2254
12.432	61.7518
12.2557	56.1473
12.0843	49.5414
11.9176	40.8778
11.7555	30.8578
11.5977	26.1767
11.444	27.6796
11.2944	31.9682
11.1487	34.1747
11.0067	34.3368
10.8682	35.7616
10.7332	43.2401
10.6015	41.6737
10.473	33.5111
10.3476	30.2314
10.2251	34.8417
10.1056	40.205
9.9887	45.0731
9.8746	47.3134
9.763	44.9962
9.6539	39.6561
9.5472	32.1838
9.4429	24.4819
9.3408	23.4472
9.2409	27.017
9.1431	31.0595
9.0474	39.3217
8.9536	48.3031
8.8618	54.5008
8.7718	60.3524
8.6837	64.6776
8.5973	68.1007
8.5126	70.8087
8.4295	73.3338
8.3481	75.8016
8.2682	78.0154
8.1898	79.9051
8.1129	81.493
8.0374	82.951
7.9634	84.4473
7.8906	85.6282
7.8192	86.461
7.7491	87.3928
7.6802	88.1868
7.6126	88.9231
7.5461	89.699
7.4807	90.2464
7.4165	90.7256
7.3534	90.9959
7.2914	91.241
7.2303	91.1455
7.1703	91.637
7.1113	91.7341
7.0533	91.531
6.9962	91.8594
6.94	92.4951
6.8847	92.7761
6.8302	92.999
6.7767	93.2451
6.7239	93.3828
6.672	93.6914
6.6209	94.0098
6.5705	94.208
6.5209	94.2463
6.4721	94.4744
6.424	94.7034
6.3766	94.8552
6.3299	94.7656
6.2838	94.7102
6.2385	94.4158
6.1937	93.7654
6.1496	93.0017
6.1062	93.1052
6.0633	93.6328
6.0211	95.1768
5.9794	96.3879
5.9383	96.418
5.8978	96.2888
5.8578	96.2175
5.8184	96.4099
5.7794	96.4075
5.741	96.4141
5.7031	96.3689
5.6657	96.1885
5.6288	96.1113
5.5924	95.9893
5.5564	95.822
5.5209	95.7561
5.4859	95.5925
5.4513	95.4668
5.4171	95.3347
5.3833	95.1084
5.35	95.0117
5.3171	94.8301
5.2846	94.7048
5.2524	94.5886
5.2207	94.4463
5.1893	94.3005
5.1584	94.0908
5.1277	93.8943
5.0975	93.7683
5.0676	93.6982
5.038	93.6951
5.0088	93.6113
4.98	93.4766
4.9514	93.3611
4.9232	93.281
4.8953	93.1719
4.8678	93.0681
4.8405	93.0266
4.8135	92.9734
4.7868	92.875
4.7605	92.8223
4.7344	92.7246
4.7086	92.6502
4.6831	92.5154
4.6578	92.4177
4.6328	92.3572
4.6081	92.4004
4.5837	92.1316
4.5595	92.0166
4.5356	91.8994
4.5119	91.75
4.4884	91.6123
4.4652	91.4434
4.4423	91.322
4.4196	91.1629
4.3971	91.0105
4.3748	90.9636
4.3528	90.7175
4.331	90.6204
4.3094	90.4714
4.288	90.3518
4.2668	90.2092
4.2458	90.0515
4.2251	89.9363
4.2045	89.7429
4.1841	89.6228
4.164	89.4685
4.144	89.2971
4.1242	89.2175
4.1046	89.0491
4.0852	88.9026
4.066	88.7454
4.047	88.6282
4.0281	88.5164
4.0094	88.325
3.9909	88.0974
3.9725	87.9744
3.9544	87.8557
3.9363	87.7883
3.9185	87.6052
3.9008	87.5198
3.8833	87.3494
3.8659	87.1443
3.8487	87.0593
3.8316	86.929
3.8147	86.8367
3.7979	86.6707
3.7813	86.4998
3.7648	86.3362
3.7485	86.2381
3.7323	86.1189
3.7162	85.8821
3.7003	85.7312
3.6845	85.6179
3.6689	85.4348
3.6534	85.3582
3.638	85.1922
3.6227	85.075
3.6076	84.8802
3.5926	84.7664
3.5777	84.6336
3.563	84.3885
3.5484	84.2522
3.5338	84.0608
3.5195	83.9627
3.5052	83.8338
3.491	83.5935
3.477	83.4646
3.463	83.2732
3.4492	83.1101
3.4355	83.0335
3.4219	82.8719
3.4084	82.5764
3.395	82.533
3.3817	82.5276
3.3685	82.4607
3.3554	82.1453
3.3425	82.0281
3.3296	81.8499
3.3168	81.7849
3.3041	81.7224
3.2915	81.5467
3.279	81.3382
3.2666	81.199
3.2543	80.9744
3.2421	80.9085
3.23	80.7351
3.218	80.6272
3.206	80.4539
3.1942	80.243
3.1824	80.0935
3.1707	79.8982
3.1591	79.6468
3.1476	79.4124
3.1362	79.1014
3.1249	78.8108
3.1136	78.5994
3.1024	78.2342
3.0913	77.8636
3.0803	77.5467
3.0694	77.2425
3.0585	76.9256
3.0477	76.6561
3.037	76.3592
3.0264	75.9969
3.0158	75.5984
3.0053	75.0564
2.9949	74.4022
2.9845	73.6609
2.9743	72.7127
2.9641	71.8709
2.9539	71.0799
2.9439	70.4031
2.9339	69.8963
2.9239	69.4832
2.9141	69.2596
2.9043	69.199
2.8946	69.2869
2.8849	69.451
2.8753	69.6024
2.8658	69.8533
2.8563	70.0897
2.8469	70.3524
2.8375	70.6639
2.8282	71.0975
2.819	71.616
2.8098	71.8836
2.8007	72.2557
2.7917	72.6658
2.7827	73.1385
2.7738	73.3524
2.7649	73.824
2.7561	74.242
2.7473	74.5193
2.7386	74.6648
2.7299	74.5115
2.7213	74.5428
2.7128	74.5047
2.7043	74.7674
2.6959	74.8719
2.6875	74.7664
2.6791	74.6717
2.6709	74.7703
2.6626	74.4695
2.6545	74.3065
2.6463	74.1131
2.6382	74.1375
2.6302	74.119
2.6222	73.8943
2.6143	73.7986
2.6064	73.7869
2.5986	73.574
2.5908	73.5164
2.583	73.4647
2.5753	73.2986
2.5677	73.0438
2.5601	73.0897
2.5525	72.7733
2.545	72.6922
2.5375	72.7068
2.5301	72.5662
2.5227	72.3123
2.5154	72.3045
2.5081	72.1541
2.5008	71.9608
2.4936	72.0955
2.4864	72.0115
2.4793	71.6268
2.4722	71.5467
2.4651	71.6033
2.4581	71.5701
2.4511	71.2986
2.4442	70.9471
2.4373	71.0154
2.4305	70.9158
2.4236	70.8026
2.4169	70.6795
2.4101	70.7889
2.4034	70.4608
2.3967	70.4178
2.3901	70.2264
2.3835	70.2049
2.377	70.1658
2.3704	70.1502
2.364	69.8983
2.3575	69.8865
2.3511	69.783
2.3447	69.7303
2.3384	69.6248
2.3321	69.3612
2.3258	69.4237
2.3195	69.4217
2.3133	69.3065
2.3071	69.0858
2.301	68.9686
2.2949	68.8983
2.2888	68.8826
2.2828	68.8045
2.2767	68.8592
2.2708	68.6483
2.2648	68.6912
2.2589	68.328
2.253	68.3612
2.2471	68.3377
2.2413	68.369
2.2355	68.0936
2.2297	68.0408
2.224	67.9393
2.2183	67.9139
2.2126	67.6658
2.207	67.4764
2.2013	67.9608
2.1957	67.619
2.1902	67.6112
2.1846	67.4549
2.1791	67.3201
2.1736	67.4862
2.1682	67.5701
2.1628	67.3436
2.1574	67.2342
2.152	67.033
2.1466	67.0076
2.1413	67.0467
2.136	66.9178
2.1308	66.8397
2.1255	66.949
2.1203	66.9764
2.1151	66.6951
2.11	66.66
2.1048	66.8162
2.0997	66.7694
2.0946	66.828
2.0895	66.5858
2.0845	66.4569
2.0795	66.5194
