Name: Staurolite (Fe+2,Mg,Zn)2Al9(Si,Al)4O22(OH)2
Type: Mineral
Class: Silicate
Subclass: Nesosilicate
Particle Size: Solid
Sample No.: staurol_1
Owner: JHU
Wavelength Range: TIR
Origin: Rubellita, Minas Gerais, Brazil via the Smithsonian (sample no.NMNH 143312)
Description: Sample was a large, dark brown, prismatic crystal with good faces, weighing 50.6 g. Some (10%) surface contamination with muscovite and possible quartz was removed by scraping. Small (<0.5 mm) inclusions were scattered throughout the interior of the crystal, some opaque and some not. Such inclusions are typical of this metamorphic mineral and a purer sample could not be found. Sample was fracture surface.(Framework silicates) Original ASTER Spectral Library name was jhu.nicolet.mineral.silicate.nesosilicate.solid.stauro1.spectrum.txt
Measurement: Bidirectional reflectance
X Units: Wavelength (micrometers)
Y Units: Reflectance (percent)
wavelength	value
25.0442	11.4824
24.3388	12.6347
23.6719	14.1093
23.0407	14.4338
22.4422	11.1877
21.8741	10.8078
21.334	12.1919
20.8199	13.6367
20.33	13.8479
19.8627	13.5503
19.4163	14.6816
18.9896	15.5136
18.5812	15.6806
18.19	15.0913
17.815	14.4006
17.4551	14.9597
17.1094	16.8745
16.7772	18.1794
16.4576	18.4702
16.15	19.083
15.8537	19.9172
15.568	20.9279
15.2925	21.1242
15.0265	20.7844
14.7697	20.9277
14.5214	21.8532
14.2814	21.7099
14.0492	19.8002
13.8244	16.6608
13.6067	13.3252
13.3957	10.3676
13.1912	9.894
12.9929	9.3457
12.8004	7.571
12.6135	5.4526
12.432	3.4958
12.2557	3.2019
12.0843	3.8098
11.9176	4.4787
11.7555	4.987
11.5977	5.4595
11.444	6.3078
11.2944	6.8777
11.1487	7.5312
11.0067	8.074
10.8682	9.2541
10.7332	10.6313
10.6015	11.914
10.473	13.0573
10.3476	14.5014
10.2251	16.3261
10.1056	18.1865
9.9887	19.7387
9.8746	20.6469
9.763	20.5764
9.6539	19.4514
9.5472	17.9995
9.4429	16.779
9.3408	16.3869
9.2409	14.7251
9.1431	10.9138
9.0474	6.2961
8.9536	2.8457
8.8618	1.5066
8.7718	1.5771
8.6837	1.833
8.5973	2.1055
8.5126	2.3022
8.4295	2.47
8.3481	2.6587
8.2682	2.8464
8.1898	2.8523
8.1129	2.7143
8.0374	2.5757
7.9634	2.4643
7.8906	2.4358
7.8192	2.4802
7.7491	2.5493
7.6802	2.6335
7.6126	2.6977
7.5461	2.7729
7.4807	2.8437
7.4165	2.9072
7.3534	2.9653
7.2914	3.0163
7.2303	3.0642
7.1703	3.116
7.1113	3.1728
7.0533	3.2156
6.9962	3.2595
6.94	3.2915
6.8847	3.3325
6.8302	3.3557
6.7767	3.4067
6.7239	3.4346
6.672	3.459
6.6209	3.4961
6.5705	3.5085
6.5209	3.5415
6.4721	3.5727
6.424	3.5994
6.3766	3.6389
6.3299	3.665
6.2838	3.7034
6.2385	3.7273
6.1937	3.7485
6.1496	3.7766
6.1062	3.7905
6.0633	3.8122
6.0211	3.8335
5.9794	3.8474
5.9383	3.8464
5.8978	3.8689
5.8578	3.8938
5.8184	3.8921
5.7794	3.9182
5.741	3.9341
5.7031	3.9517
5.6657	3.9797
5.6288	3.9831
5.5924	3.9912
5.5564	4.009
5.5209	4.0137
5.4859	4.0303
5.4513	4.053
5.4171	4.0552
5.3833	4.0749
5.35	4.0893
5.3171	4.1157
5.2846	4.1204
5.2524	4.1343
5.2207	4.1536
5.1893	4.1628
5.1584	4.1811
5.1277	4.1977
5.0975	4.2219
5.0676	4.2449
5.038	4.2583
5.0088	4.2895
4.98	4.3152
4.9514	4.3415
4.9232	4.355
4.8953	4.3674
4.8678	4.4053
4.8405	4.4226
4.8135	4.4521
4.7868	4.4658
4.7605	4.479
4.7344	4.5083
4.7086	4.5115
4.6831	4.5283
4.6578	4.5571
4.6328	4.5757
4.6081	4.5974
4.5837	4.6072
4.5595	4.6191
4.5356	4.6291
4.5119	4.6453
4.4884	4.6614
4.4652	4.6655
4.4423	4.676
4.4196	4.6865
4.3971	4.6897
4.3748	4.7078
4.3528	4.7109
4.331	4.7102
4.3094	4.707
4.288	4.719
4.2668	4.7209
4.2458	4.7226
4.2251	4.73
4.2045	4.7319
4.1841	4.737
4.164	4.7424
4.144	4.7349
4.1242	4.7309
4.1046	4.7353
4.0852	4.7402
4.066	4.741
4.047	4.7366
4.0281	4.7449
4.0094	4.748
3.9909	4.7324
3.9725	4.7392
3.9544	4.7309
3.9363	4.7241
3.9185	4.7312
3.9008	4.7212
3.8833	4.7329
3.8659	4.7231
3.8487	4.7263
3.8316	4.7153
3.8147	4.7161
3.7979	4.706
3.7813	4.7078
3.7648	4.7099
3.7485	4.698
3.7323	4.7031
3.7162	4.7007
3.7003	4.6838
3.6845	4.6782
3.6689	4.6648
3.6534	4.6619
3.638	4.6619
3.6227	4.6565
3.6076	4.6599
3.5926	4.6511
3.5777	4.6509
3.563	4.6294
3.5484	4.6191
3.5338	4.6069
3.5195	4.5903
3.5052	4.5879
3.491	4.5957
3.477	4.6081
3.463	4.5876
3.4492	4.5779
3.4355	4.5681
3.4219	4.5723
3.4084	4.5896
3.395	4.5886
3.3817	4.5676
3.3685	4.5884
3.3554	4.5801
3.3425	4.5791
3.3296	4.5759
3.3168	4.5691
3.3041	4.5522
3.2915	4.5559
3.279	4.5444
3.2666	4.5347
3.2543	4.5249
3.2421	4.5146
3.23	4.5222
3.218	4.5129
3.206	4.5098
3.1942	4.4917
3.1824	4.4922
3.1707	4.4905
3.1591	4.4709
3.1476	4.4712
3.1362	4.459
3.1249	4.4658
3.1136	4.4568
3.1024	4.4409
3.0913	4.4394
3.0803	4.438
3.0694	4.4219
3.0585	4.4119
3.0477	4.4043
3.037	4.4023
3.0264	4.4004
3.0158	4.3938
3.0053	4.3774
2.9949	4.3901
2.9845	4.3838
2.9743	4.3855
2.9641	4.3599
2.9539	4.3398
2.9439	4.3393
2.9339	4.3042
2.9239	4.2065
2.9141	4.1313
2.9043	4.0796
2.8946	4.0395
2.8849	3.9751
2.8753	3.938
2.8658	3.917
2.8563	3.9524
2.8469	3.9829
2.8375	4.0237
2.8282	4.0327
2.819	4.0557
2.8098	4.0571
2.8007	4.0605
2.7917	4.0581
2.7827	4.0508
2.7738	4.0766
2.7649	4.0803
2.7561	4.061
2.7473	4.082
2.7386	4.0537
2.7299	4.0303
2.7213	4.0015
2.7128	3.9863
2.7043	3.9892
2.6959	4.0188
2.6875	4.0256
2.6791	4.0227
2.6709	4.0178
2.6626	4.009
2.6545	4.0102
2.6463	4.0132
2.6382	3.9878
2.6302	3.9761
2.6222	3.9797
2.6143	3.98
2.6064	3.9565
2.5986	3.9807
2.5908	3.967
2.583	3.938
2.5753	3.9521
2.5677	3.9292
2.5601	3.9316
2.5525	3.936
2.545	3.9067
2.5375	3.9221
2.5301	3.895
2.5227	3.8977
2.5154	3.8664
2.5081	3.8931
2.5008	3.8667
2.4936	3.876
2.4864	3.8433
2.4793	3.8782
2.4722	3.8808
2.4651	3.8486
2.4581	3.845
2.4511	3.8384
2.4442	3.831
2.4373	3.8332
2.4305	3.8166
2.4236	3.8301
2.4169	3.7988
2.4101	3.8118
2.4034	3.8213
2.3967	3.7942
2.3901	3.8071
2.3835	3.7617
2.377	3.7998
2.3704	3.7954
2.364	3.8008
2.3575	3.7705
2.3511	3.7783
2.3447	3.7913
2.3384	3.7981
2.3321	3.7851
2.3258	3.7695
2.3195	3.7817
2.3133	3.7993
2.3071	3.7827
2.301	3.7851
2.2949	3.7622
2.2888	3.7988
2.2828	3.8183
2.2767	3.7817
2.2708	3.792
2.2648	3.8037
2.2589	3.8037
2.253	3.7998
2.2471	3.7837
2.2413	3.7915
2.2355	3.7651
2.2297	3.7715
2.224	3.791
2.2183	3.8262
2.2126	3.8017
2.207	3.812
2.2013	3.8213
2.1957	3.8501
2.1902	3.8623
2.1846	3.8799
2.1791	3.8516
2.1736	3.8613
2.1682	3.8657
2.1628	3.8818
2.1574	3.8701
2.152	3.8559
2.1466	3.8457
2.1413	3.9082
2.136	3.8931
2.1308	3.8916
2.1255	3.9243
2.1203	3.8769
2.1151	3.918
2.11	3.9092
2.1048	3.9043
2.0997	3.9131
2.0946	3.9267
2.0895	3.9766
2.0845	3.999
2.0795	3.9394
