Name: Dolomite CaMg(CO_3)_2
Type: Mineral
Class: Carbonate
Subclass: None
Particle Size: Fine
Sample No.: C-5A
Owner: JPL
Wavelength Range: TIR
Origin: USA, Colorado
Description: Red banded dolomite.Particle size was 0-45um.Collected by Ward's Original ASTER Spectral Library name was jpl.nicolet.mineral.carbonate.none.fine.c05a.spectrum.txt
Measurement: Hemispherical reflectance
X Units: Wavelength (micrometers)
Y Units: Reflectance (percent)
wavelength	value
15.3853	12.0294
15.1161	13.4669
14.8563	15.1581
14.6052	15.3224
14.3624	12.917
14.1276	15.4256
13.9004	10.3843
13.6803	2.0659
13.4671	11.834
13.2604	20.3008
13.06	20.6845
12.8656	15.398
12.6769	17.0184
12.4936	13.9049
12.3155	24.0077
12.1425	29.5325
11.9742	31.3723
11.8106	29.5093
11.6513	26.024
11.4963	11.6475
11.3454	7.7356
11.1983	18.6635
11.0551	26.632
10.9154	24.7687
10.7793	26.0403
10.6465	26.2641
10.5169	26.5937
10.3904	25.6502
10.267	22.4095
10.1464	19.1393
10.0287	16.5594
9.9136	14.7603
9.8012	13.8921
9.6913	12.4031
9.5838	11.7264
9.4787	12.2833
9.3758	13.9102
9.2752	15.7354
9.1767	14.8858
9.0803	13.6568
8.9858	14.4018
8.8934	14.7811
8.8028	16.0489
8.714	17.0736
8.627	17.5411
8.5417	18.5187
8.4581	18.8117
8.3761	19.8396
8.2957	24.2791
8.2169	25.0596
8.1395	20.9938
8.0635	21.9693
7.989	22.9573
7.9158	23.3089
7.8439	23.6896
7.7734	21.2209
7.7041	19.4352
7.636	19.5603
7.5691	19.0193
7.5034	16.3247
7.4388	15.0791
7.3753	13.7702
7.3129	11.4492
7.2515	9.5231
7.1912	8.3167
7.1318	7.4927
7.0734	8.1265
7.016	10.9914
6.9595	10.817
6.9039	10.3613
6.8492	10.5707
6.7953	10.9528
6.7423	11.1502
6.6901	12.0085
6.6387	13.7282
6.5881	14.8107
6.5382	16.2539
6.4892	19.078
6.4408	20.5226
6.3931	22.192
6.3462	22.2699
6.2999	13.5788
6.2543	8.1425
6.2094	6.4499
6.1651	6.313
6.1214	5.7865
6.0784	5.3291
6.0359	5.976
5.994	6.755
5.9527	7.5838
5.912	9.0662
5.8718	10.4765
5.8322	11.8631
5.7931	12.571
5.7545	13.6123
5.7165	15.0868
5.6789	15.8821
5.6418	15.3187
5.6052	13.4459
5.5691	10.4316
5.5334	6.4272
5.4982	4.651
5.4635	8.911
5.4291	22.344
5.3952	30.2981
5.3618	33.1658
5.3287	35.8821
5.2961	38.4147
5.2638	42.641
5.2319	47.957
5.2004	51.7978
5.1693	53.6504
5.1386	55.1084
5.1082	55.9868
5.0782	54.4014
5.0485	54.2052
5.0192	57.3782
4.9902	58.6038
4.9616	60.9594
4.9332	62.5126
4.9052	64.509
4.8776	66.3839
4.8502	67.2578
4.8231	67.4514
4.7963	67.5174
4.7699	67.5619
4.7437	67.1629
4.7178	65.9262
4.6922	63.2047
4.6668	56.727
4.6418	51.944
4.617	51.2712
4.5924	53.7534
4.5681	57.907
4.5441	60.5827
4.5203	62.1503
4.4968	65.2087
4.4735	65.3031
4.4505	62.6853
4.4277	62.4443
4.4051	65.1078
4.3828	67.4428
4.3607	69.0985
4.3388	67.011
4.3171	65.0649
4.2956	64.0259
4.2744	62.512
4.2534	64.0049
4.2325	65.9949
4.2119	66.4262
4.1915	67.2427
4.1712	66.4883
4.1512	64.8902
4.1313	64.6369
4.1117	63.959
4.0922	62.5484
4.0729	59.8069
4.0538	55.7711
4.0349	49.8125
4.0161	41.0721
3.9976	29.2006
3.9792	17.464
3.9609	10.6232
3.9428	11.1365
3.9249	12.4949
3.9072	15.901
3.8896	20.8675
3.8722	22.3529
3.8549	28.1086
3.8378	36.178
3.8208	30.256
3.804	23.6094
3.7873	29.8578
3.7708	38.8831
3.7544	48.8819
3.7382	58.9809
3.7221	62.6862
3.7061	64.3343
3.6903	66.0158
3.6746	66.8971
3.659	67.2146
3.6436	67.1871
3.6283	67.0232
3.6131	66.6324
3.5981	66.1117
3.5832	65.3515
3.5684	64.0061
3.5537	59.8219
3.5391	58.7062
3.5247	55.1985
3.5104	46.4862
3.4962	33.949
3.4821	25.3648
3.4681	21.5071
3.4543	19.2656
3.4405	20.6114
3.4269	26.9697
3.4133	28.9686
3.3999	30.3166
3.3866	31.7074
3.3733	34.4122
3.3602	31.3812
3.3472	28.3048
3.3343	27.4375
3.3215	26.6815
3.3088	23.7116
3.2961	33.5685
3.2836	46.0945
3.2712	48.6136
3.2588	49.7128
3.2466	50.1689
3.2345	50.4048
3.2224	50.2397
3.2104	50.1747
3.1985	49.7821
3.1867	49.3758
3.175	48.9437
3.1634	48.4459
3.1519	47.7444
3.1404	47.0315
3.129	46.5907
3.1178	46.0591
3.1065	45.7655
3.0954	45.3362
3.0844	44.7782
3.0734	44.6301
3.0625	44.8564
3.0517	44.5536
3.041	44.1885
3.0303	44.0896
3.0197	43.8887
3.0092	43.4629
2.9987	43.0897
2.9884	42.8325
2.9781	42.4913
2.9678	42.1323
2.9577	41.7757
2.9476	41.649
2.9376	41.4577
2.9276	41.54
2.9177	41.7494
2.9079	41.9625
2.8982	42.2835
2.8885	42.9171
2.8789	43.3091
2.8693	44.2945
2.8598	45.1463
2.8504	45.8959
2.841	46.6394
2.8317	47.5106
2.8224	48.275
2.8133	49.0186
2.8041	49.6255
2.7951	49.1486
2.786	49.1569
2.7771	48.2212
2.7682	46.8537
2.7594	45.8176
2.7506	49.7998
2.7418	51.9764
2.7332	54.6107
2.7246	58.504
2.716	60.7894
2.7075	58.8786
2.699	63.9707
2.6906	71.4755
2.6823	76.2103
2.674	78.6545
2.6657	81.2006
2.6575	80.5769
2.6494	81.1852
2.6413	81.5869
2.6332	82.111
2.6252	82.405
2.6173	83.1769
2.6094	82.837
2.6015	82.804
2.5937	83.8064
2.5859	82.6968
2.5782	82.5555
2.5706	82.3941
2.5629	82.426
2.5554	81.3832
2.5478	80.4184
2.5403	78.3967
2.5329	75.9663
2.5255	74.1147
2.5181	73.197
2.5108	73.2006
2.5035	73.8886
2.4963	74.6596
2.4891	75.7584
2.482	76.651
2.4749	77.2281
2.4678	77.4097
2.4608	77.8066
2.4538	78.48
2.4468	79.2146
2.4399	80.2549
2.4331	80.7388
2.4262	81.6477
2.4194	82.1589
2.4127	82.6504
2.4059	82.9004
2.3993	83.0526
2.3926	83.167
2.386	83.436
2.3795	83.4776
2.3729	83.7288
2.3664	83.7705
2.36	83.6198
2.3535	83.3159
2.3471	82.4921
2.3408	81.3023
2.3345	80.3203
2.3282	79.3301
2.3219	79.0113
2.3157	79.2925
2.3095	79.4475
2.3034	79.8769
2.2972	80.3136
2.2911	80.6454
2.2851	80.9332
2.279	81.2639
2.2731	81.4066
2.2671	81.5934
2.2612	82.0136
2.2553	82.4643
2.2494	82.897
2.2435	83.3203
2.2377	83.8695
2.232	83.8845
2.2262	83.9251
2.2205	83.9331
2.2148	83.9798
2.2091	83.5892
2.2035	83.9844
2.1979	84.385
2.1923	84.2731
2.1868	84.716
2.1812	84.5102
2.1758	84.7852
2.1703	84.491
2.1649	84.886
2.1595	84.6661
2.1541	84.5938
2.1487	84.7122
2.1434	84.6428
2.1381	84.6994
2.1328	84.7059
2.1275	84.7221
2.1223	84.9161
2.1171	84.882
2.112	84.787
2.1068	85.1859
2.1017	84.9516
2.0966	84.851
2.0915	84.9689
2.0865	85.0808
2.0814	84.7572
2.0764	85.1809
2.0715	84.9627
2.0665	85.0212
2.0616	84.8682
2.0567	84.9342
2.0518	84.915
2.0469	84.8067
2.0421	84.7203
2.0373	84.9809
2.0325	84.6279
2.0277	84.6605
2.0229	84.6712
2.0182	84.6013
2.0135	84.4471
2.0088	84.543
2.0042	84.3298
