Name: Goethite a-Fe+3O(OH)
Type: Mineral
Class: Hydroxide
Subclass: None
Particle Size: Fine
Sample No.: goethite_2
Owner: JHU
Wavelength Range: TIR
Origin: Sample from Calavi, Bolivia via the Smithsonian (sample no.NMNH C5055)
Description: The sample was a 2 cm x 2 cm x 2 cm layered botryoidal fragment weighing 14.5 g.  Its surface was glossy black, with interior layers various shades of yellow-brown.  No impurities were noted in hand sample or microscopically. Particle size was less than 2 micrometers.(Goethite Group) Original ASTER Spectral Library name was jhu.nicolet.mineral.hydroxide.none.powder.goethi2.spectrum.txt
Measurement: Transmission
X Units: Wavelength (micrometers)
Y Units: Transmittance (percent)
wavelength	value
25.0442	38.7069
24.3388	32.0351
23.6719	31.6249
23.0407	32.8642
22.4422	33.2109
21.8741	31.4296
21.334	31.623
20.8199	34.0487
20.33	38.4833
19.8627	44.8847
19.4163	50.7425
18.9896	54.3573
18.5812	56.7816
18.19	57.9666
17.815	57.7489
17.4551	56.9515
17.1094	55.3583
16.7772	53.9574
16.4576	53.6356
16.15	54.7914
15.8537	57.7547
15.568	61.8983
15.2925	65.0408
15.0265	65.6073
14.7697	67.8392
14.5214	71.6761
14.2814	73.9715
14.0492	76.3802
13.8244	78.3123
13.6067	78.7432
13.3957	77.8123
13.1912	75.2439
12.9929	70.5792
12.8004	64.2764
12.6135	59.0453
12.432	59.3299
12.2557	63.9998
12.0843	68.3067
11.9176	69.7364
11.7555	68.0391
11.5977	63.9005
11.444	58.7083
11.2944	55.1874
11.1487	56.3224
11.0067	61.8538
10.8682	68.5789
10.7332	73.6771
10.6015	76.949
10.473	78.5406
10.3476	79.3946
10.2251	80.0789
10.1056	80.981
9.9887	82.0208
9.8746	83.4168
9.763	84.6189
9.6539	85.6509
9.5472	86.677
9.4429	87.7422
9.3408	88.7283
9.2409	89.6384
9.1431	90.3291
9.0474	90.7178
8.9536	91.0488
8.8618	91.2507
8.7718	91.9541
8.6837	92.7222
8.5973	93.4648
8.5126	94.0811
8.4295	94.5615
8.3481	94.8455
8.2682	94.9583
8.1898	95.0491
8.1129	95.0701
8.0374	95.0125
7.9634	94.8823
7.8906	94.6838
7.8192	94.4583
7.7491	94.199
7.6802	93.72
7.6126	93.2542
7.5461	92.988
7.4807	92.6736
7.4165	92.5247
7.3534	92.4456
7.2914	92.426
7.2303	92.2664
7.1703	91.6506
7.1113	91.5193
7.0533	91.9143
6.9962	91.7722
6.94	91.4822
6.8847	91.1443
6.8302	90.9387
6.7767	90.8728
6.7239	90.7107
6.672	90.3743
6.6209	90.1062
6.5705	89.9622
6.5209	89.7439
6.4721	89.5071
6.424	89.2014
6.3766	88.9075
6.3299	88.6233
6.2838	88.1013
6.2385	87.0784
6.1937	85.742
6.1496	84.989
6.1062	84.596
6.0633	85.1209
6.0211	86.3279
5.9794	87.3484
5.9383	88.0803
5.8978	88.4011
5.8578	88.3821
5.8184	88.3089
5.7794	88.1233
5.741	87.991
5.7031	87.6883
5.6657	87.3772
5.6288	87.1868
5.5924	87.1404
5.5564	87.2068
5.5209	87.3333
5.4859	87.4983
5.4513	87.5515
5.4171	87.6155
5.3833	87.4946
5.35	87.3509
5.3171	87.1541
5.2846	86.9705
5.2524	86.784
5.2207	86.5852
5.1893	86.4202
5.1584	86.2517
5.1277	86.0496
5.0975	85.826
5.0676	85.6634
5.038	85.4905
5.0088	85.3059
4.98	85.1385
4.9514	84.9702
4.9232	84.7637
4.8953	84.5979
4.8678	84.4575
4.8405	84.2991
4.8135	84.1267
4.7868	83.969
4.7605	83.8057
4.7344	83.586
4.7086	83.3721
4.6831	83.1568
4.6578	82.9903
4.6328	82.792
4.6081	82.5789
4.5837	82.3401
4.5595	82.1199
4.5356	81.9422
4.5119	81.6983
4.4884	81.4358
4.4652	81.2395
4.4423	81.0188
4.4196	80.7444
4.3971	80.5501
4.3748	80.344
4.3528	80.0894
4.331	79.8091
4.3094	79.5535
4.288	79.2776
4.2668	78.9925
4.2458	78.8194
4.2251	78.594
4.2045	78.2989
4.1841	78.0433
4.164	77.7894
4.144	77.5091
4.1242	77.2276
4.1046	76.9275
4.0852	76.6663
4.066	76.3621
4.047	76.0901
4.0281	75.7559
4.0094	75.4881
3.9909	75.21
3.9725	74.877
3.9544	74.5799
3.9363	74.262
3.9185	73.9131
3.9008	73.492
3.8833	73.1329
3.8659	72.7569
3.8487	72.4197
3.8316	72.075
3.8147	71.7713
3.7979	71.3445
3.7813	70.9256
3.7648	70.553
3.7485	70.1082
3.7323	69.6378
3.7162	69.2342
3.7003	68.8272
3.6845	68.3944
3.6689	67.9222
3.6534	67.4942
3.638	67.0662
3.6227	66.5828
3.6076	66.1065
3.5926	65.64
3.5777	65.1915
3.563	64.6837
3.5484	64.1873
3.5338	63.6837
3.5195	63.1329
3.5052	62.5472
3.491	62.1182
3.477	61.6358
3.463	61.0843
3.4492	60.4774
3.4355	59.8895
3.4219	59.161
3.4084	58.6798
3.395	58.1922
3.3817	57.5362
3.3685	56.8175
3.3554	56.0741
3.3425	55.2518
3.3296	54.3763
3.3168	53.4757
3.3041	52.4864
3.2915	51.4676
3.279	50.3612
3.2666	49.2208
3.2543	47.9923
3.2421	46.7723
3.23	45.5167
3.218	44.3507
3.206	43.3146
3.1942	42.6132
3.1824	42.0824
3.1707	41.9047
3.1591	41.9091
3.1476	42.1278
3.1362	42.4335
3.1249	42.9628
3.1136	43.6879
3.1024	44.5116
3.0913	45.348
3.0803	46.1845
3.0694	47.1483
3.0585	47.9515
3.0477	48.6718
3.037	49.5184
3.0264	50.0936
3.0158	50.6156
3.0053	51.1586
2.9949	51.6112
2.9845	51.8807
2.9743	52.2352
2.9641	52.5101
2.9539	52.8851
2.9439	53.2909
2.9339	53.6937
2.9239	54.1913
2.9141	54.6805
2.9043	55.2933
2.8946	56.1273
2.8849	57.0877
2.8753	58.182
2.8658	59.1961
2.8563	60.3265
2.8469	61.3924
2.8375	62.369
2.8282	63.223
2.819	64.1292
2.8098	65.0711
2.8007	66.0804
2.7917	67.0242
2.7827	67.9554
2.7738	68.6365
2.7649	69.0843
2.7561	69.307
2.7473	69.5355
2.7386	69.4422
2.7299	69.3455
2.7213	69.2684
2.7128	68.887
2.7043	68.5594
2.6959	68.119
2.6875	67.8748
2.6791	67.6409
2.6709	67.2596
2.6626	66.9652
2.6545	66.6346
2.6463	66.3363
2.6382	65.9984
2.6302	65.7811
2.6222	65.5765
2.6143	65.3382
2.6064	65.0604
2.5986	64.783
2.5908	64.5926
2.583	64.2928
2.5753	64.0633
2.5677	63.7264
2.5601	63.4862
2.5525	63.3582
2.545	63.076
2.5375	62.8172
2.5301	62.5536
2.5227	62.4188
2.5154	62.3016
2.5081	62.1014
2.5008	61.7713
2.4936	61.7069
2.4864	61.5975
2.4793	61.2479
2.4722	60.9549
2.4651	60.9715
2.4581	60.7323
2.4511	60.4452
2.4442	60.3446
2.4373	60.3397
2.4305	60.1805
2.4236	59.9022
2.4169	59.5721
2.4101	59.1727
2.4034	59.1346
2.3967	59.0077
2.3901	58.786
2.3835	58.6815
2.377	58.4813
2.3704	58.4276
2.364	58.329
2.3575	58.1844
2.3511	57.9803
2.3447	57.6581
2.3384	57.617
2.3321	57.3065
2.3258	57.1834
2.3195	57.1258
2.3133	56.9852
2.3071	56.8836
2.301	56.5096
2.2949	56.4334
2.2888	56.4706
2.2828	56.2967
2.2767	56.036
2.2708	55.8397
2.2648	55.7821
2.2589	55.5008
2.253	55.4149
2.2471	55.454
2.2413	55.2899
2.2355	54.9881
2.2297	55.0702
2.224	54.6961
2.2183	54.4149
2.2126	54.4491
2.207	54.246
2.2013	53.9491
2.1957	54.1444
2.1902	53.8866
2.1846	53.6991
2.1791	53.5135
2.1736	53.41
2.1682	53.3553
2.1628	53.496
2.1574	53.2206
2.152	52.9549
2.1466	52.4784
2.1413	52.3495
2.136	52.2518
2.1308	52.3065
2.1255	52.0506
2.1203	52.0741
2.1151	51.9647
2.11	51.6815
2.1048	51.5389
2.0997	51.6893
2.0946	51.6503
2.0895	51.5272
2.0845	51.2147
2.0795	51.0721
