Name: Natrolite Na2Al2Si3O10.2H2O
Type: Mineral
Class: Silicate
Subclass: Tectosilicate
Particle Size: Coarse
Sample No.: natrol_1
Owner: JHU
Wavelength Range: TIR
Origin: Poonah, India via Hunt and Salisbury Collection #169B
Description: The sample appeared to be pure natrolite, although most grains were permeated with what appeared to be fluid inclusions.Particle size was 75-250  Micrometers. (Framework Silicates); (ZeoliteGroup) Original ASTER Spectral Library name was jhu.nicolet.mineral.silicate.tectosilicate.coarse.natrol1.spectrum.txt
Measurement: Bidirectional reflectance
X Units: Wavelength (micrometers)
Y Units: Reflectance (percent)
wavelength	value
25.0442	2.2983
24.3388	3.1545
23.6719	4.0591
23.0407	2.4099
22.4422	2.4314
21.8741	1.154
21.334	1.5693
20.8199	2.1794
20.33	2.6877
19.8627	2.2827
19.4163	2.0417
18.9896	1.4128
18.5812	1.5889
18.19	1.7266
17.815	1.5881
17.4551	1.5454
17.1094	1.4582
16.7772	1.7876
16.4576	1.7407
16.15	1.9604
15.8537	2.2683
15.568	1.7756
15.2925	1.4375
15.0265	1.321
14.7697	1.1399
14.5214	1.0708
14.2814	0.8887
14.0492	0.6794
13.8244	0.7478
13.6067	0.6846
13.3957	0.8484
13.1912	0.9487
12.9929	1.0359
12.8004	1.145
12.6135	1.2205
12.432	1.3008
12.2557	1.3564
12.0843	1.3994
11.9176	1.4973
11.7555	1.5305
11.5977	1.5923
11.444	1.6494
11.2944	1.7227
11.1487	1.7952
11.0067	1.8967
10.8682	2.0352
10.7332	2.1655
10.6015	2.366
10.473	2.7749
10.3476	3.7234
10.2251	3.6489
10.1056	4.8035
9.9887	5.0439
9.8746	5.0752
9.763	2.9402
9.6539	1.3076
9.5472	3.2854
9.4429	3.9275
9.3408	3.0225
9.2409	3.2473
9.1431	4.4863
9.0474	4.5832
8.9536	5.6548
8.8618	5.5466
8.7718	4.7778
8.6837	3.7217
8.5973	2.5225
8.5126	1.4031
8.4295	0.6331
8.3481	0.2371
8.2682	0.116
8.1898	0.1072
8.1129	0.1514
8.0374	0.2002
7.9634	0.2524
7.8906	0.2952
7.8192	0.342
7.7491	0.376
7.6802	0.4294
7.6126	0.467
7.5461	0.5139
7.4807	0.5627
7.4165	0.5964
7.3534	0.6223
7.2914	0.6589
7.2303	0.6985
7.1703	0.7295
7.1113	0.76
7.0533	0.8
6.9962	0.8601
6.94	0.8809
6.8847	0.8938
6.8302	0.9285
6.7767	0.9658
6.7239	1.0078
6.672	1.0425
6.6209	1.093
6.5705	1.1018
6.5209	1.1003
6.4721	1.0867
6.424	1.0513
6.3766	0.9993
6.3299	0.9348
6.2838	0.8877
6.2385	0.8372
6.1937	0.7869
6.1496	0.7119
6.1062	0.6433
6.0633	0.7322
6.0211	0.8828
5.9794	1.0251
5.9383	1.1018
5.8978	1.1248
5.8578	1.1506
5.8184	1.1599
5.7794	1.2249
5.741	1.311
5.7031	1.4019
5.6657	1.5054
5.6288	1.5903
5.5924	1.6899
5.5564	1.7747
5.5209	1.7981
5.4859	1.8237
5.4513	1.9341
5.4171	2.1206
5.3833	2.343
5.35	2.5078
5.3171	2.7356
5.2846	3.0181
5.2524	3.1567
5.2207	3.0425
5.1893	2.9617
5.1584	2.9661
5.1277	2.7424
5.0975	2.6038
5.0676	2.4431
5.038	2.3052
5.0088	2.5549
4.98	2.7895
4.9514	2.8967
4.9232	2.7756
4.8953	2.551
4.8678	2.4077
4.8405	2.2876
4.8135	2.1248
4.7868	1.8894
4.7605	1.5842
4.7344	1.2681
4.7086	1.0625
4.6831	0.969
4.6578	0.9705
4.6328	1.1216
4.6081	1.4524
4.5837	1.8372
4.5595	2.0796
4.5356	2.2788
4.5119	2.5124
4.4884	2.8164
4.4652	3.199
4.4423	3.6262
4.4196	3.9731
4.3971	4.1921
4.3748	4.3208
4.3528	4.4526
4.331	4.5696
4.3094	4.6455
4.288	4.7615
4.2668	4.9524
4.2458	5.1614
4.2251	5.3398
4.2045	5.4661
4.1841	5.5979
4.164	5.8152
4.144	6.1306
4.1242	6.3813
4.1046	6.53
4.0852	6.6118
4.066	6.6225
4.047	6.5456
4.0281	6.7068
4.0094	6.8003
3.9909	6.8345
3.9725	6.8586
3.9544	6.8642
3.9363	6.8603
3.9185	6.8335
3.9008	6.782
3.8833	6.7097
3.8659	6.581
3.8487	6.4148
3.8316	6.2466
3.8147	6.281
3.7979	6.2031
3.7813	6.1472
3.7648	6.0742
3.7485	5.9641
3.7323	5.793
3.7162	5.6191
3.7003	5.4536
3.6845	5.2959
3.6689	5.1973
3.6534	5.1479
3.638	5.1289
3.6227	5.1152
3.6076	5.0491
3.5926	4.9219
3.5777	4.7485
3.563	4.5493
3.5484	4.3569
3.5338	4.1658
3.5195	3.9773
3.5052	3.7878
3.491	3.613
3.477	3.4106
3.463	3.2309
3.4492	3.0535
3.4355	2.8711
3.4219	2.6882
3.4084	2.5168
3.395	2.3442
3.3817	2.1577
3.3685	1.9912
3.3554	1.8269
3.3425	1.6733
3.3296	1.5422
3.3168	1.4355
3.3041	1.3525
3.2915	1.2954
3.279	1.2541
3.2666	1.217
3.2543	1.1663
3.2421	1.1428
3.23	1.127
3.218	1.0991
3.206	1.0649
3.1942	1.0139
3.1824	0.9951
3.1707	0.9497
3.1591	0.9087
3.1476	0.8791
3.1362	0.8645
3.1249	0.8672
3.1136	0.8652
3.1024	0.8652
3.0913	0.8721
3.0803	0.8887
3.0694	0.8882
3.0585	0.8899
3.0477	0.8674
3.037	0.8369
3.0264	0.7932
3.0158	0.7258
3.0053	0.658
2.9949	0.6384
2.9845	0.6516
2.9743	0.6973
2.9641	0.7102
2.9539	0.717
2.9439	0.7273
2.9339	0.7507
2.9239	0.7473
2.9141	0.7698
2.9043	0.7852
2.8946	0.7917
2.8849	0.7942
2.8753	0.8025
2.8658	0.8262
2.8563	0.8198
2.8469	0.7957
2.8375	0.7292
2.8282	0.6165
2.819	0.4753
2.8098	0.4871
2.8007	0.5579
2.7917	0.6323
2.7827	0.6814
2.7738	0.7393
2.7649	0.7805
2.7561	0.8384
2.7473	0.9243
2.7386	1.0615
2.7299	1.3259
2.7213	1.8579
2.7128	2.5923
2.7043	3.2666
2.6959	3.7319
2.6875	3.9573
2.6791	4.001
2.6709	4.0906
2.6626	4.3125
2.6545	4.5019
2.6463	4.5708
2.6382	4.6641
2.6302	4.8989
2.6222	5.1599
2.6143	5.2683
2.6064	5.1579
2.5986	4.875
2.5908	4.5273
2.583	4.5224
2.5753	4.9355
2.5677	5.4282
2.5601	5.8938
2.5525	6.3056
2.545	6.6501
2.5375	6.8074
2.5301	6.8916
2.5227	6.9573
2.5154	6.9878
2.5081	7.0801
2.5008	7.0688
2.4936	6.927
2.4864	6.6521
2.4793	6.2427
2.4722	5.7837
2.4651	5.4612
2.4581	5.438
2.4511	5.4846
2.4442	5.2705
2.4373	4.8928
2.4305	4.7646
2.4236	5.0373
2.4169	5.5991
2.4101	6.2041
2.4034	6.7585
2.3967	7.1321
2.3901	7.3511
2.3835	7.4739
2.377	7.5837
2.3704	7.7651
2.364	7.9638
2.3575	8.1042
2.3511	8.2278
2.3447	8.3152
2.3384	8.4702
2.3321	8.5923
2.3258	8.7099
2.3195	8.8374
2.3133	8.9463
2.3071	9.0134
2.301	9.0622
2.2949	9.0539
2.2888	8.9931
2.2828	8.9038
2.2767	8.8388
2.2708	8.884
2.2648	8.9485
2.2589	9.0217
2.253	9.0361
2.2471	9.0056
2.2413	8.9287
2.2355	8.8879
2.2297	8.7793
2.224	8.5879
2.2183	8.4145
2.2126	8.1714
2.207	7.9045
2.2013	7.7182
2.1957	7.7204
2.1902	7.8349
2.1846	8.0527
2.1791	8.167
2.1736	8.209
2.1682	8.2617
2.1628	8.2597
2.1574	8.3301
2.152	8.3313
2.1466	8.3708
2.1413	8.427
2.136	8.3894
2.1308	8.3711
2.1255	8.3425
2.1203	8.2392
2.1151	8.1186
2.11	7.9663
2.1048	7.759
2.0997	7.5544
2.0946	7.2993
2.0895	7.1887
2.0845	7.1055
2.0795	7.0952
