Name: Tourmaline Na(Mg_3,Fe_3^2+)Al_6(BO_3)_3Si_6O_18(OH)_4
Type: Mineral
Class: Silicate
Subclass: Cyclosilicate
Particle Size: Coarse
Sample No.: CS-1A
Owner: JPL
Wavelength Range: TIR
Origin: USA, New York, Overlook
Description: Particle size was 125-500um.Collected by Ward's Original ASTER Spectral Library name was jpl.nicolet.mineral.silicate.cyclosilicate.coarse.cs01a.spectrum.txt
Measurement: Hemispherical reflectance
X Units: Wavelength (micrometers)
Y Units: Reflectance (percent)
wavelength	value
15.3853	2.0594
15.1161	1.904
14.8563	2.2375
14.6052	2.2809
14.3624	3.395
14.1276	4.3697
13.9004	3.8099
13.6803	1.9394
13.4671	1.6843
13.2604	2.4614
13.06	2.5807
12.8656	3.9149
12.6769	4.0817
12.4936	2.1343
12.3155	2.2117
12.1425	2.4739
11.9742	3.0101
11.8106	3.1894
11.6513	3.5308
11.4963	3.9704
11.3454	4.6582
11.1983	5.2357
11.0551	5.6941
10.9154	6.3864
10.7793	7.545
10.6465	8.8102
10.5169	10.5296
10.3904	12.6401
10.267	14.6708
10.1464	15.146
10.0287	14.1339
9.9136	11.7616
9.8012	12.0697
9.6913	12.765
9.5838	13.526
9.4787	10.4135
9.3758	6.8895
9.2752	7.1925
9.1767	9.1016
9.0803	8.8515
8.9858	5.1828
8.8934	1.5925
8.8028	0.5092
8.714	0.6622
8.627	1.0656
8.5417	1.4302
8.4581	1.7832
8.3761	2.2998
8.2957	3.2694
8.2169	3.9493
8.1395	4.9139
8.0635	5.6414
7.989	5.9682
7.9158	6.3078
7.8439	6.0432
7.7734	5.6299
7.7041	5.0512
7.636	4.5624
7.5691	3.7074
7.5034	3.2712
7.4388	3.5985
7.3753	3.7125
7.3129	3.2568
7.2515	2.0319
7.1912	1.075
7.1318	0.5117
7.0734	0.5516
7.016	0.3429
6.9595	0.4136
6.9039	0.4237
6.8492	0.613
6.7953	0.763
6.7423	0.8138
6.6901	0.9438
6.6387	1.05
6.5881	1.1693
6.5382	1.2522
6.4892	1.4095
6.4408	1.3681
6.3931	1.55
6.3462	1.589
6.2999	1.692
6.2543	1.6603
6.2094	1.7842
6.1651	1.7698
6.1214	1.7805
6.0784	1.9289
6.0359	1.954
5.994	2.0389
5.9527	2.0372
5.912	2.1737
5.8718	2.1728
5.8322	2.2114
5.7931	2.3189
5.7545	2.4886
5.7165	2.4404
5.6789	2.4706
5.6418	2.5015
5.6052	2.4137
5.5691	2.5226
5.5334	2.5731
5.4982	2.6642
5.4635	2.8952
5.4291	3.0535
5.3952	3.1799
5.3618	3.3827
5.3287	3.4874
5.2961	3.4527
5.2638	3.5506
5.2319	3.5557
5.2004	3.5953
5.1693	3.5287
5.1386	3.432
5.1082	3.4647
5.0782	3.4978
5.0485	3.566
5.0192	3.558
4.9902	3.706
4.9616	3.7663
4.9332	3.8614
4.9052	4
4.8776	4.2929
4.8502	4.4998
4.8231	4.8185
4.7963	4.9575
4.7699	5.486
4.7437	5.8606
4.7178	6.2365
4.6922	6.3684
4.6668	6.6645
4.6418	6.748
4.617	6.6224
4.5924	6.1892
4.5681	5.7776
4.5441	5.298
4.5203	4.903
4.4968	4.5811
4.4735	4.4618
4.4505	4.4242
4.4277	4.3768
4.4051	4.4485
4.3828	4.4166
4.3607	4.4824
4.3388	4.6842
4.3171	4.9608
4.2956	5.0379
4.2744	5.3606
4.2534	5.7057
4.2325	6.1483
4.2119	6.5323
4.1915	6.9171
4.1712	7.5275
4.1512	8.348
4.1313	9.0249
4.1117	9.5445
4.0922	9.9421
4.0729	9.9267
4.0538	9.8849
4.0349	9.6435
4.0161	9.5365
3.9976	9.3449
3.9792	9.0417
3.9609	8.6048
3.9428	7.9897
3.9249	7.4761
3.9072	6.7229
3.8896	6.0328
3.8722	5.4435
3.8549	5.0496
3.8378	4.9356
3.8208	5.0348
3.804	5.1986
3.7873	5.8064
3.7708	6.2743
3.7544	6.5129
3.7382	6.624
3.7221	6.6549
3.7061	6.8235
3.6903	7.0344
3.6746	7.4878
3.659	7.8842
3.6436	8.7766
3.6283	9.5438
3.6131	10.3589
3.5981	11.0555
3.5832	11.6307
3.5684	11.9745
3.5537	12.2183
3.5391	12.4598
3.5247	12.8767
3.5104	13.1351
3.4962	13.4372
3.4821	13.4735
3.4681	13.7011
3.4543	13.6226
3.4405	13.7808
3.4269	13.7799
3.4133	13.9908
3.3999	14.1613
3.3866	14.2578
3.3733	14.4867
3.3602	14.4629
3.3472	14.453
3.3343	14.3688
3.3215	14.4572
3.3088	14.3871
3.2961	14.2652
3.2836	14.2117
3.2712	14.2088
3.2588	14.0927
3.2466	14.0346
3.2345	13.8696
3.2224	13.7712
3.2104	13.6937
3.1985	13.45
3.1867	13.3734
3.175	13.1788
3.1634	12.9915
3.1519	12.9111
3.1404	12.6183
3.129	12.4135
3.1178	12.1475
3.1065	11.812
3.0954	11.4796
3.0844	11.2964
3.0734	10.7411
3.0625	10.742
3.0517	10.5296
3.041	10.2175
3.0303	10.0042
3.0197	9.6268
3.0092	9.4772
2.9987	8.9841
2.9884	8.4493
2.9781	8.134
2.9678	7.6719
2.9577	7.2707
2.9476	6.8564
2.9376	6.5673
2.9276	6.346
2.9177	5.8139
2.9079	5.7346
2.8982	5.0835
2.8885	4.9434
2.8789	4.4268
2.8693	4.3322
2.8598	4.0169
2.8504	3.7915
2.841	3.489
2.8317	3.383
2.8224	3.3974
2.8133	3.1083
2.8041	2.8596
2.7951	3.1081
2.786	3.3791
2.7771	3.9439
2.7682	4.7217
2.7594	4.7198
2.7506	4.9806
2.7418	6.2143
2.7332	8.1301
2.7246	9.6022
2.716	9.9375
2.7075	9.6922
2.699	8.3514
2.6906	5.9876
2.6823	5.537
2.674	6.1482
2.6657	8.9135
2.6575	9.117
2.6494	10.5081
2.6413	11.4103
2.6332	11.3718
2.6252	10.858
2.6173	10.799
2.6094	10.5341
2.6015	10.3111
2.5937	10.6564
2.5859	10.2566
2.5782	9.9332
2.5706	9.9718
2.5629	10.318
2.5554	9.868
2.5478	9.8744
2.5403	10.1301
2.5329	9.7088
2.5255	9.662
2.5181	9.7903
2.5108	9.5812
2.5035	9.613
2.4963	9.4792
2.4891	9.5099
2.482	9.54
2.4749	9.5431
2.4678	9.3777
2.4608	9.8284
2.4538	9.8958
2.4468	9.8721
2.4399	9.923
2.4331	10.1442
2.4262	10.0575
2.4194	9.9445
2.4127	10.0119
2.4059	9.9718
2.3993	9.743
2.3926	9.4532
2.386	8.5935
2.3795	8.1949
2.3729	7.6866
2.3664	7.1292
2.36	7.5068
2.3535	7.7199
2.3471	8.1615
2.3408	8.5103
2.3345	8.824
2.3282	8.8156
2.3219	8.9991
2.3157	8.9783
2.3095	9.2248
2.3034	9.1228
2.2972	8.7593
2.2911	8.907
2.2851	9.3671
2.279	9.1447
2.2731	9.4012
2.2671	9.1431
2.2612	8.8569
2.2553	8.4667
2.2494	8.0258
2.2435	7.5856
2.2377	7.9106
2.232	8.3502
2.2262	7.9728
2.2205	7.5405
2.2148	7.4426
2.2091	6.8116
2.2035	7.2445
2.1979	7.3935
2.1923	7.8299
2.1868	7.7891
2.1812	8.0247
2.1758	7.9225
2.1703	7.7491
2.1649	7.8314
2.1595	7.8148
2.1541	7.5965
2.1487	7.5973
2.1434	7.3995
2.1381	7.5517
2.1328	7.6749
2.1275	7.5543
2.1223	7.1705
2.1171	7.4035
2.112	7.0256
2.1068	7.2603
2.1017	7.1626
2.0966	6.9005
2.0915	6.7307
2.0865	6.7639
2.0814	6.723
2.0764	6.5892
2.0715	6.8102
2.0665	6.3819
2.0616	6.1787
2.0567	6.0828
2.0518	6.2666
2.0469	6.1907
2.0421	6.2109
2.0373	6.1591
2.0325	5.8698
2.0277	6.0244
2.0229	5.874
2.0182	5.7101
2.0135	5.7147
2.0088	5.5757
2.0042	5.5865
