Name: Molybdenite MoS_2
Type: Mineral
Class: Sulfide
Subclass: None
Particle Size: Coarse
Sample No.: S-11A
Owner: JPL
Wavelength Range: TIR
Origin: Norway, Arendal, Froland
Description: Particle size was 125-500um.Collected by JPL Original ASTER Spectral Library name was jpl.nicolet.mineral.sulfide.none.coarse.s11a.spectrum.txt
Measurement: Hemispherical reflectance
X Units: Wavelength (micrometers)
Y Units: Reflectance (percent)
wavelength	value
15.3853	33.0443
15.1161	32.5703
14.8563	32.9879
14.6052	34.486
14.3624	35.8992
14.1276	32.6196
13.9004	32.9437
13.6803	32.8953
13.4671	31.7494
13.2604	30.7938
13.06	30.6639
12.8656	31.6736
12.6769	32.6298
12.4936	36.0286
12.3155	35.3077
12.1425	33.5957
11.9742	38.8195
11.8106	39.3104
11.6513	39.5459
11.4963	39.8019
11.3454	39.8384
11.1983	39.2056
11.0551	38.4928
10.9154	38.7558
10.7793	39.7338
10.6465	39.5666
10.5169	39.3154
10.3904	39.8663
10.267	40.7309
10.1464	40.621
10.0287	40.3449
9.9136	40.2646
9.8012	40.3374
9.6913	40.2713
9.5838	40.2112
9.4787	40.4383
9.3758	41.0234
9.2752	41.4528
9.1767	41.5818
9.0803	41.6442
8.9858	41.5783
8.8934	41.6969
8.8028	41.7734
8.714	42.001
8.627	41.9206
8.5417	42.6375
8.4581	42.8834
8.3761	43.0131
8.2957	43.1455
8.2169	43.2775
8.1395	43.6186
8.0635	44.3403
7.989	45.2151
7.9158	46.1813
7.8439	46.9987
7.7734	47.6396
7.7041	48.182
7.636	48.5936
7.5691	48.9528
7.5034	49.2914
7.4388	49.2458
7.3753	49.1845
7.3129	49.0556
7.2515	48.7061
7.1912	48.3701
7.1318	47.6725
7.0734	46.1937
7.016	45.7059
6.9595	46.8475
6.9039	46.6875
6.8492	47.4458
6.7953	49.6393
6.7423	49.9486
6.6901	50.9745
6.6387	53.2979
6.5881	51.3286
6.5382	50.3989
6.4892	52.884
6.4408	50.443
6.3931	49.5994
6.3462	50.0856
6.2999	47.7247
6.2543	46.9097
6.2094	46.2607
6.1651	46.3027
6.1214	46.465
6.0784	46.7756
6.0359	46.1614
5.994	46.6421
5.9527	46.0659
5.912	46.1613
5.8718	46.8099
5.8322	47.3275
5.7931	47.5619
5.7545	49.0314
5.7165	50.3339
5.6789	50.6963
5.6418	52.1556
5.6052	51.7467
5.5691	52.5944
5.5334	53.133
5.4982	53.7794
5.4635	54.6868
5.4291	54.6054
5.3952	54.3227
5.3618	54.3818
5.3287	54.3552
5.2961	54.5153
5.2638	54.6408
5.2319	54.8784
5.2004	55.2422
5.1693	55.0242
5.1386	55.058
5.1082	55.177
5.0782	55.1603
5.0485	55.1137
5.0192	55.24
4.9902	55.07
4.9616	55.3393
4.9332	55.3772
4.9052	55.7009
4.8776	56.2048
4.8502	56.3987
4.8231	56.6345
4.7963	56.7393
4.7699	56.7767
4.7437	56.8017
4.7178	56.832
4.6922	56.6747
4.6668	56.6683
4.6418	56.8467
4.617	56.8939
4.5924	56.8746
4.5681	56.8965
4.5441	56.6631
4.5203	56.5731
4.4968	56.2387
4.4735	56.2312
4.4505	56.1735
4.4277	56.2
4.4051	56.2163
4.3828	56.1941
4.3607	56.372
4.3388	56.1127
4.3171	55.6775
4.2956	54.986
4.2744	54.5613
4.2534	55.3108
4.2325	53.8953
4.2119	55.0183
4.1915	55.6502
4.1712	55.6062
4.1512	55.4681
4.1313	55.414
4.1117	55.289
4.0922	55.0903
4.0729	55.0757
4.0538	54.8579
4.0349	54.8355
4.0161	54.7362
3.9976	54.6302
3.9792	54.4456
3.9609	54.4817
3.9428	54.4351
3.9249	54.3262
3.9072	54.2722
3.8896	54.1981
3.8722	54.0054
3.8549	53.9157
3.8378	53.9137
3.8208	53.7746
3.804	53.5286
3.7873	53.572
3.7708	53.4146
3.7544	53.3098
3.7382	53.0767
3.7221	52.9964
3.7061	52.8293
3.6903	52.7497
3.6746	52.5651
3.659	52.2696
3.6436	52.1087
3.6283	51.8834
3.6131	51.5654
3.5981	51.4205
3.5832	51.1512
3.5684	50.8161
3.5537	50.4962
3.5391	50.1951
3.5247	49.4109
3.5104	48.2863
3.4962	48.4852
3.4821	48.4677
3.4681	48.2542
3.4543	47.7755
3.4405	46.7448
3.4269	45.0104
3.4133	46.1392
3.3999	46.5399
3.3866	46.2101
3.3733	46.7293
3.3602	47.2316
3.3472	47.1981
3.3343	47.0518
3.3215	47.0041
3.3088	46.76
3.2961	46.5631
3.2836	46.3772
3.2712	46.2353
3.2588	45.9314
3.2466	45.9371
3.2345	45.6434
3.2224	45.6346
3.2104	45.4965
3.1985	45.4623
3.1867	45.3488
3.175	45.0188
3.1634	44.8444
3.1519	44.884
3.1404	44.6262
3.129	44.6416
3.1178	44.5412
3.1065	44.3411
3.0954	44.4576
3.0844	44.4703
3.0734	44.4983
3.0625	44.6125
3.0517	44.5659
3.041	44.7763
3.0303	44.8184
3.0197	44.8577
3.0092	45.0092
2.9987	45.2522
2.9884	45.2439
2.9781	45.3596
2.9678	45.3124
2.9577	45.4074
2.9476	45.3383
2.9376	45.3382
2.9276	45.4543
2.9177	45.572
2.9079	45.6654
2.8982	45.7716
2.8885	46.1668
2.8789	46.216
2.8693	46.433
2.8598	46.5582
2.8504	46.9419
2.841	47.2206
2.8317	47.5585
2.8224	47.8662
2.8133	48.1314
2.8041	49.2472
2.7951	48.8492
2.786	49.9993
2.7771	50.0745
2.7682	51.032
2.7594	51.0945
2.7506	51.9522
2.7418	54.0685
2.7332	54.0483
2.7246	56.4397
2.716	55.7225
2.7075	56.6124
2.699	56.8853
2.6906	57.603
2.6823	58.0392
2.674	58.461
2.6657	60.6681
2.6575	58.3305
2.6494	58.3946
2.6413	58.5669
2.6332	58.7948
2.6252	58.8708
2.6173	59.824
2.6094	59.1582
2.6015	58.9706
2.5937	60.7253
2.5859	59.0738
2.5782	58.8587
2.5706	58.9721
2.5629	59.6063
2.5554	58.4783
2.5478	58.6345
2.5403	58.4896
2.5329	58.588
2.5255	58.5263
2.5181	58.5779
2.5108	58.5103
2.5035	58.3809
2.4963	58.4146
2.4891	58.414
2.482	58.4466
2.4749	58.5413
2.4678	58.5365
2.4608	58.5218
2.4538	58.5361
2.4468	58.5725
2.4399	58.5407
2.4331	58.5272
2.4262	58.5013
2.4194	58.7778
2.4127	58.6828
2.4059	58.6959
2.3993	58.7814
2.3926	58.603
2.386	58.7087
2.3795	58.648
2.3729	58.7173
2.3664	58.6869
2.36	58.6801
2.3535	58.7281
2.3471	58.6882
2.3408	58.7933
2.3345	58.6072
2.3282	58.967
2.3219	58.6453
2.3157	58.7958
2.3095	58.7894
2.3034	59.0315
2.2972	58.7486
2.2911	58.694
2.2851	58.8197
2.279	58.7287
2.2731	58.9819
2.2671	58.7602
2.2612	58.8653
2.2553	58.7922
2.2494	58.8259
2.2435	58.7382
2.2377	58.9237
2.232	58.8763
2.2262	58.787
2.2205	58.6224
2.2148	58.7243
2.2091	58.6171
2.2035	58.6272
2.1979	58.5007
2.1923	58.6904
2.1868	58.5065
2.1812	58.6305
2.1758	58.5031
2.1703	58.7265
2.1649	58.7276
2.1595	58.643
2.1541	58.6816
2.1487	58.8374
2.1434	58.7761
2.1381	58.7047
2.1328	58.7005
2.1275	58.7094
2.1223	58.7271
2.1171	58.4758
2.112	58.9176
2.1068	58.5016
2.1017	58.5922
2.0966	58.5351
2.0915	58.3579
2.0865	58.4841
2.0814	58.2402
2.0764	58.3129
2.0715	58.3865
2.0665	58.3158
2.0616	58.208
2.0567	58.4576
2.0518	58.6871
2.0469	58.0491
2.0421	58.5382
2.0373	58.3067
2.0325	58.0324
2.0277	58.239
2.0229	58.1901
2.0182	58.0372
2.0135	58.2901
2.0088	58.2102
2.0042	57.9342
