Name: Gypsum CaSO_4.2H_2O
Type: Mineral
Class: Sulfate
Subclass: None
Particle Size: Fine
Sample No.: SO-2B
Owner: JPL
Wavelength Range: TIR
Origin: USA, Utah
Description: Particle size was 0-45um.Collected by Ward's Original ASTER Spectral Library name was jpl.nicolet.mineral.sulfate.none.fine.so02b.spectrum.txt
Measurement: Hemispherical reflectance
X Units: Wavelength (micrometers)
Y Units: Reflectance (percent)
wavelength	value
15.3853	1.81
15.1161	2.5749
14.8563	3.1996
14.6052	3.2146
14.3624	2.1602
14.1276	2.2721
13.9004	2.6907
13.6803	3.0686
13.4671	3.296
13.2604	3.9169
13.06	4.0555
12.8656	4.616
12.6769	4.5466
12.4936	4.7302
12.3155	4.8384
12.1425	5.0608
11.9742	5.0095
11.8106	4.9551
11.6513	5.0552
11.4963	4.8976
11.3454	4.9715
11.1983	4.942
11.0551	4.9137
10.9154	4.9304
10.7793	5.0939
10.6465	4.7937
10.5169	4.6178
10.3904	4.7615
10.267	4.6789
10.1464	4.5245
10.0287	4.5545
9.9136	4.1534
9.8012	4.643
9.6913	4.5253
9.5838	4.4037
9.4787	4.3494
9.3758	4.0992
9.2752	4.1527
9.1767	3.6882
9.0803	4.054
8.9858	5.2396
8.8934	6.121
8.8028	6.5548
8.714	7.0739
8.627	6.562
8.5417	6.7674
8.4581	7.0726
8.3761	6.3383
8.2957	4.7417
8.2169	2.66
8.1395	1.3496
8.0635	0.9329
7.989	0.6091
7.9158	0.5741
7.8439	0.73
7.7734	0.9918
7.7041	1.4344
7.636	2.0925
7.5691	2.6883
7.5034	3.399
7.4388	4.5019
7.3753	5.842
7.3129	6.9783
7.2515	8.459
7.1912	9.6323
7.1318	10.8802
7.0734	11.9831
7.016	12.9546
6.9595	14.2669
6.9039	14.7274
6.8492	15.4347
6.7953	15.882
6.7423	16.1314
6.6901	16.3743
6.6387	16.5429
6.5881	15.4022
6.5382	14.1706
6.4892	14.2779
6.4408	13.6938
6.3931	12.9814
6.3462	11.641
6.2999	9.096
6.2543	6.1474
6.2094	2.8379
6.1651	1.8468
6.1214	1.9788
6.0784	4.4106
6.0359	6.6086
5.994	6.0523
5.9527	2.9072
5.912	2.9971
5.8718	7.5335
5.8322	12.4044
5.7931	15.6529
5.7545	18.4976
5.7165	21.1324
5.6789	23.012
5.6418	25.1803
5.6052	26.3847
5.5691	27.6104
5.5334	29.2162
5.4982	31.455
5.4635	33.3232
5.4291	34.2861
5.3952	34.9042
5.3618	35.4868
5.3287	36.0718
5.2961	36.6277
5.2638	37.2145
5.2319	37.7656
5.2004	37.8827
5.1693	37.2685
5.1386	36.6818
5.1082	36.2014
5.0782	35.8704
5.0485	35.5847
5.0192	35.5941
4.9902	35.091
4.9616	34.7108
4.9332	34.8974
4.9052	33.75
4.8776	32.3351
4.8502	30.9872
4.8231	29.1073
4.7963	25.9154
4.7699	20.1737
4.7437	13.6201
4.7178	12.8292
4.6922	13.4896
4.6668	14.0865
4.6418	14.5826
4.617	13.8098
4.5924	12.1632
4.5681	10.0142
4.5441	8.4155
4.5203	8.0896
4.4968	7.9199
4.4735	7.9118
4.4505	8.0474
4.4277	8.9681
4.4051	10.2761
4.3828	11.5752
4.3607	13.0932
4.3388	14.7055
4.3171	17.0916
4.2956	20.3541
4.2744	23.7336
4.2534	26.8771
4.2325	29.7099
4.2119	32.3777
4.1915	34.9786
4.1712	37.1914
4.1512	39.2871
4.1313	41.3222
4.1117	43.1694
4.0922	44.9836
4.0729	46.8575
4.0538	48.5122
4.0349	50.1105
4.0161	51.5258
3.9976	52.4261
3.9792	51.9184
3.9609	53.6152
3.9428	55.7289
3.9249	56.9123
3.9072	57.679
3.8896	57.7544
3.8722	56.4936
3.8549	58.6133
3.8378	59.3172
3.8208	59.4874
3.804	59.5157
3.7873	59.4088
3.7708	59.4491
3.7544	59.3254
3.7382	59.1676
3.7221	58.9209
3.7061	59.011
3.6903	58.5917
3.6746	58.1147
3.659	57.4847
3.6436	56.8124
3.6283	56.0729
3.6131	55.1489
3.5981	54.0517
3.5832	53.0281
3.5684	52.2923
3.5537	51.6017
3.5391	50.9431
3.5247	50.4208
3.5104	49.7578
3.4962	49.0163
3.4821	48.1374
3.4681	47.3091
3.4543	46.3876
3.4405	45.3942
3.4269	44.3423
3.4133	43.2683
3.3999	42.1316
3.3866	40.7019
3.3733	39.1824
3.3602	37.556
3.3472	36.2185
3.3343	34.8748
3.3215	33.1383
3.3088	31.2558
3.2961	29.1636
3.2836	27.1642
3.2712	25.4185
3.2588	23.8469
3.2466	22.3771
3.2345	20.8539
3.2224	19.5462
3.2104	17.9499
3.1985	16.4203
3.1867	14.7954
3.175	13.161
3.1634	11.2266
3.1519	9.3838
3.1404	7.9342
3.129	6.8929
3.1178	6.3588
3.1065	5.7873
3.0954	4.9023
3.0844	3.8487
3.0734	3.9885
3.0625	4
3.0517	3.9819
3.041	3.5236
3.0303	3.4096
3.0197	2.978
3.0092	2.7947
2.9987	2.7088
2.9884	2.7647
2.9781	2.4855
2.9678	2.6654
2.9577	2.239
2.9476	1.9084
2.9376	2.3387
2.9276	2.2407
2.9177	1.5774
2.9079	1.4593
2.8982	1.6546
2.8885	1.5662
2.8789	1.2807
2.8693	1.1029
2.8598	1.0661
2.8504	1.2171
2.841	1.3041
2.8317	1.4687
2.8224	1.2865
2.8133	1.3703
2.8041	1.2919
2.7951	1.559
2.786	1.5046
2.7771	1.9672
2.7682	2.2576
2.7594	3.0278
2.7506	4.6655
2.7418	6.5446
2.7332	8.4944
2.7246	10.7579
2.716	12.9923
2.7075	16.4924
2.699	19.7872
2.6906	22.605
2.6823	24.6304
2.674	26.5082
2.6657	29.1694
2.6575	30.7944
2.6494	32.4595
2.6413	33.8096
2.6332	34.7339
2.6252	35.0988
2.6173	36.048
2.6094	36.2797
2.6015	36.4005
2.5937	37.6321
2.5859	36.905
2.5782	36.9339
2.5706	37.1585
2.5629	37.7553
2.5554	37.8668
2.5478	38.5207
2.5403	38.7287
2.5329	39.1789
2.5255	39.0402
2.5181	38.637
2.5108	38.1395
2.5035	37.8549
2.4963	37.3166
2.4891	36.9867
2.482	37.0765
2.4749	37.3199
2.4678	38.2883
2.4608	39.1434
2.4538	40.0338
2.4468	40.1365
2.4399	40.4513
2.4331	40.7247
2.4262	41.6715
2.4194	42.4872
2.4127	43.8622
2.4059	46.0562
2.3993	48.8204
2.3926	51.8761
2.386	54.7182
2.3795	57.099
2.3729	58.9824
2.3664	60.8263
2.36	62.1864
2.3535	63.5665
2.3471	64.397
2.3408	65.0424
2.3345	65.9888
2.3282	66.2655
2.3219	66.6328
2.3157	66.7455
2.3095	66.7458
2.3034	66.7469
2.2972	66.5219
2.2911	66.1684
2.2851	65.6533
2.279	64.782
2.2731	63.4205
2.2671	62.8734
2.2612	63.7664
2.2553	64.2835
2.2494	64.365
2.2435	64.5438
2.2377	64.4063
2.232	63.4223
2.2262	62.1428
2.2205	60.8276
2.2148	60.8154
2.2091	61.6246
2.2035	62.5913
2.1979	63.3968
2.1923	63.8917
2.1868	63.9479
2.1812	63.9719
2.1758	64.4623
2.1703	64.8032
2.1649	65.744
2.1595	66.1853
2.1541	66.8782
2.1487	67.4661
2.1434	68.0569
2.1381	68.368
2.1328	68.8838
2.1275	69.4396
2.1223	69.9963
2.1171	70.9486
2.112	71.0881
2.1068	72.0735
2.1017	72.273
2.0966	73.3415
2.0915	73.6584
2.0865	73.8466
2.0814	74.7649
2.0764	74.1928
2.0715	74.3048
2.0665	74.0701
2.0616	74.4467
2.0567	74.5372
2.0518	74.5441
2.0469	74.1992
2.0421	74.1087
2.0373	73.3721
2.0325	72.5343
2.0277	72.2124
2.0229	70.7132
2.0182	69.5482
2.0135	67.8112
2.0088	65.7689
2.0042	63.2299
