Name: Tourmaline (Elbaite) Na(Li,Al)3Al6(BO3)3Si6018(OH)4
Type: Mineral
Class: Silicate
Subclass: Cyclosilicate
Particle Size: Coarse
Sample No.: tourmal_1
Owner: JHU
Wavelength Range: TIR
Origin: Sao Jose De Brejuada, Minas Gerais, Brazil via the Smithsonian(sample no.  NMNH 94217-1)
Description: The sample was a purple, translucent, sudhedral crystal, with some green coloration at one end. The crystal was 5 mm x 2 cm x 2 cm in size.  Microscopic examination indicated that the mineral was pure.Particle size was 75 - 250  Micrometers.(Ring Silicates) Original ASTER Spectral Library name was jhu.nicolet.mineral.silicate.cyclosilicate.coarse.tourma1.spectrum.txt
Measurement: Bidirectional reflectance
X Units: Wavelength (micrometers)
Y Units: Reflectance (percent)
wavelength	value
25.0442	2.8022
24.3388	3.165
23.6719	3.6758
23.0407	3.5095
22.4422	3.9412
21.8741	4.1099
21.334	3.9453
20.8199	4.345
20.33	4.9148
19.8627	5.6074
19.4163	5.7031
18.9896	5.3891
18.5812	4.9604
18.19	4.5608
17.815	4.3105
17.4551	4.2475
17.1094	4.4197
16.7772	4.8215
16.4576	4.7043
16.15	4.2478
15.8537	4.5737
15.568	3.3337
15.2925	2.4377
15.0265	2.009
14.7697	1.3191
14.5214	0.741
14.2814	0.969
14.0492	1.3491
13.8244	1.5239
13.6067	0.8
13.3957	0.8249
13.1912	0.9822
12.9929	1.1421
12.8004	1.699
12.6135	2.2539
12.432	2.3716
12.2557	1.2463
12.0843	1.0984
11.9176	1.24
11.7555	1.2837
11.5977	1.3159
11.444	1.3984
11.2944	1.5373
11.1487	1.6797
11.0067	1.8157
10.8682	2.0481
10.7332	2.3171
10.6015	2.6052
10.473	3.052
10.3476	3.5586
10.2251	4.1606
10.1056	4.5696
9.9887	4.3545
9.8746	3.8879
9.763	4.2456
9.6539	4.5564
9.5472	3.9871
9.4429	3.7947
9.3408	3.1465
9.2409	1.7134
9.1431	1.9407
9.0474	2.8147
8.9536	3.3735
8.8618	3.0908
8.7718	2.4319
8.6837	1.531
8.5973	0.8953
8.5126	0.6191
8.4295	0.5601
8.3481	0.6538
8.2682	0.8401
8.1898	1.042
8.1129	1.1892
8.0374	1.2383
7.9634	1.395
7.8906	1.5647
7.8192	1.7112
7.7491	2.0681
7.6802	2.3518
7.6126	2.2649
7.5461	1.9521
7.4807	1.6848
7.4165	1.9626
7.3534	2.1909
7.2914	1.8547
7.2303	1.3518
7.1703	1.2866
7.1113	1.0398
7.0533	0.6187
6.9962	0.3442
6.94	0.3403
6.8847	0.2827
6.8302	0.2996
6.7767	0.4092
6.7239	0.5391
6.672	0.5322
6.6209	0.5842
6.5705	0.7871
6.5209	0.9128
6.4721	0.9944
6.424	1.0574
6.3766	1.1331
6.3299	1.2026
6.2838	1.2856
6.2385	1.3481
6.1937	1.3743
6.1496	1.3621
6.1062	1.3442
6.0633	1.324
6.0211	1.2676
5.9794	1.1868
5.9383	1.1487
5.8978	1.1592
5.8578	1.2048
5.8184	1.2676
5.7794	1.3435
5.741	1.4116
5.7031	1.4858
5.6657	1.5674
5.6288	1.6262
5.5924	1.6592
5.5564	1.6311
5.5209	1.6074
5.4859	1.6269
5.4513	1.6956
5.4171	1.7654
5.3833	1.79
5.35	1.7822
5.3171	1.8127
5.2846	1.8801
5.2524	1.9778
5.2207	2.0727
5.1893	2.157
5.1584	2.2263
5.1277	2.2688
5.0975	2.2891
5.0676	2.311
5.038	2.3181
5.0088	2.3071
4.98	2.2593
4.9514	2.229
4.9232	2.2563
4.8953	2.3364
4.8678	2.4604
4.8405	2.6025
4.8135	2.7541
4.7868	2.883
4.7605	3.0083
4.7344	3.1252
4.7086	3.29
4.6831	3.4636
4.6578	3.583
4.6328	3.6357
4.6081	3.616
4.5837	3.574
4.5595	3.5037
4.5356	3.4075
4.5119	3.2847
4.4884	3.1577
4.4652	3.0503
4.4423	2.9558
4.4196	2.8784
4.3971	2.8093
4.3748	2.77
4.3528	2.7602
4.331	2.7664
4.3094	2.793
4.288	2.8352
4.2668	2.9036
4.2458	3.0049
4.2251	3.1289
4.2045	3.2849
4.1841	3.4643
4.164	3.6567
4.144	3.8804
4.1242	4.1123
4.1046	4.3242
4.0852	4.512
4.066	4.6824
4.047	4.8262
4.0281	4.9448
4.0094	4.9746
3.9909	4.9126
3.9725	4.8303
3.9544	4.7644
3.9363	4.7119
3.9185	4.5757
3.9008	4.3337
3.8833	3.9609
3.8659	3.584
3.8487	3.2231
3.8316	2.9265
3.8147	2.7803
3.7979	2.7959
3.7813	2.9619
3.7648	3.1858
3.7485	3.4136
3.7323	3.553
3.7162	3.5981
3.7003	3.6213
3.6845	3.6926
3.6689	3.823
3.6534	4.0095
3.638	4.2822
3.6227	4.5398
3.6076	4.7624
3.5926	5.008
3.5777	5.4148
3.563	5.8413
3.5484	6.1201
3.5338	6.3086
3.5195	6.4372
3.5052	6.4734
3.491	6.4302
3.477	6.5215
3.463	6.7041
3.4492	6.7248
3.4355	6.6843
3.4219	6.7876
3.4084	6.9245
3.395	7.0124
3.3817	7.031
3.3685	6.9856
3.3554	6.8638
3.3425	6.7268
3.3296	6.645
3.3168	6.6152
3.3041	6.5759
3.2915	6.531
3.279	6.4858
3.2666	6.4341
3.2543	6.3796
3.2421	6.3225
3.23	6.2102
3.218	6.074
3.206	5.9023
3.1942	5.717
3.1824	5.5161
3.1707	5.3281
3.1591	5.1426
3.1476	4.9768
3.1362	4.7829
3.1249	4.5976
3.1136	4.4455
3.1024	4.3269
3.0913	4.2353
3.0803	4.1553
3.0694	4.043
3.0585	3.8535
3.0477	3.5251
3.037	3.1091
3.0264	2.7429
3.0158	2.478
3.0053	2.3257
2.9949	2.3264
2.9845	2.3914
2.9743	2.5098
2.9641	2.678
2.9539	2.7461
2.9439	2.6299
2.9339	2.3032
2.9239	1.9831
2.9141	1.7336
2.9043	1.5654
2.8946	1.4138
2.8849	1.2756
2.8753	1.2014
2.8658	1.1418
2.8563	1.156
2.8469	1.2874
2.8375	1.5269
2.8282	1.7263
2.819	1.5366
2.8098	1.2832
2.8007	1.0327
2.7917	0.8784
2.7827	0.8733
2.7738	0.9666
2.7649	1.646
2.7561	2.8962
2.7473	2.8513
2.7386	1.7439
2.7299	3.2114
2.7213	3.2856
2.7128	4.3691
2.7043	5.4202
2.6959	5.802
2.6875	6.0871
2.6791	6.2317
2.6709	6.2361
2.6626	6.2908
2.6545	6.2395
2.6463	6.1682
2.6382	6.0776
2.6302	5.8916
2.6222	5.8498
2.6143	5.7541
2.6064	5.5832
2.5986	5.54
2.5908	5.4809
2.583	5.4756
2.5753	5.4868
2.5677	5.4792
2.5601	5.4248
2.5525	5.4338
2.545	5.4702
2.5375	5.5015
2.5301	5.5027
2.5227	5.5249
2.5154	5.4751
2.5081	5.4524
2.5008	5.4392
2.4936	5.4453
2.4864	5.4402
2.4793	5.5068
2.4722	5.5256
2.4651	5.6045
2.4581	5.6435
2.4511	5.6865
2.4442	5.7558
2.4373	5.8096
2.4305	5.791
2.4236	5.7124
2.4169	5.5857
2.4101	5.4531
2.4034	5.332
2.3967	5.2471
2.3901	5.3035
2.3835	5.2278
2.377	5.0793
2.3704	5.1904
2.364	5.6247
2.3575	6.091
2.3511	6.3579
2.3447	6.4812
2.3384	6.5124
2.3321	6.448
2.3258	6.3335
2.3195	6
2.3133	5.48
2.3071	4.8039
2.301	4.499
2.2949	5.2761
2.2888	6.4451
2.2828	6.8601
2.2767	6.8362
2.2708	6.5303
2.2648	6.0879
2.2589	5.625
2.253	5.3596
2.2471	5.4931
2.2413	5.8259
2.2355	6.2114
2.2297	6.4411
2.224	6.5119
2.2183	6.3703
2.2126	6.0264
2.207	5.4153
2.2013	5.2627
2.1957	5.7756
2.1902	6.0918
2.1846	5.9966
2.1791	5.5561
2.1736	5.3855
2.1682	5.9182
2.1628	6.5271
2.1574	6.8528
2.152	6.9856
2.1466	7.0766
2.1413	7.175
2.136	7.2297
2.1308	7.2905
2.1255	7.3657
2.1203	7.4346
2.1151	7.4604
2.11	7.4988
2.1048	7.5254
2.0997	7.5937
2.0946	7.6313
2.0895	7.6418
2.0845	7.6372
2.0795	7.688
