Name: Muscovite KAl_2(Si_3Al)O_10(OH,F)_2
Type: Mineral
Class: Silicate
Subclass: Phyllosilicate
Particle Size: Coarse
Sample No.: PS-16A
Owner: JPL
Wavelength Range: TIR
Origin: USA, Connecticut
Description: Particle size was 125-500um.Collected by Ward's Original ASTER Spectral Library name was jpl.nicolet.mineral.silicate.phyllosilicate.coarse.ps16a.spectrum.txt
Measurement: Hemispherical reflectance
X Units: Wavelength (micrometers)
Y Units: Reflectance (percent)
wavelength	value
15.3853	2.2508
15.1161	2.6944
14.8563	3.3431
14.6052	3.888
14.3624	3.968
14.1276	4.2196
13.9004	5.1107
13.6803	5.0954
13.4671	5.8732
13.2604	5.19
13.06	4.4262
12.8656	5.4807
12.6769	6.5437
12.4936	6.307
12.3155	5.8456
12.1425	7.2062
11.9742	8.2558
11.8106	10.0825
11.6513	10.7879
11.4963	10.7077
11.3454	10.5943
11.1983	11.2047
11.0551	11.4913
10.9154	11.1081
10.7793	11.1052
10.6465	10.6432
10.5169	11.5507
10.3904	14.5862
10.267	18.3268
10.1464	22.2101
10.0287	23.6377
9.9136	25.4252
9.8012	28.0491
9.6913	33.5972
9.5838	37.0195
9.4787	26.7506
9.3758	29.4813
9.2752	35.269
9.1767	37.8993
9.0803	35.5691
8.9858	33.2502
8.8934	30.0115
8.8028	25.2584
8.714	17.9823
8.627	11.3404
8.5417	8.9062
8.4581	7.5381
8.3761	6.455
8.2957	5.4145
8.2169	4.8728
8.1395	3.7228
8.0635	2.6181
7.989	1.9947
7.9158	1.8599
7.8439	2.0923
7.7734	2.3594
7.7041	2.6653
7.636	3.0306
7.5691	3.571
7.5034	4.01
7.4388	4.3993
7.3753	4.7659
7.3129	5.0213
7.2515	5.554
7.1912	5.7935
7.1318	6.2487
7.0734	6.5651
7.016	6.9542
6.9595	7.4478
6.9039	7.8886
6.8492	8.2818
6.7953	8.855
6.7423	9.2437
6.6901	9.7096
6.6387	10.3619
6.5881	10.5489
6.5382	10.8906
6.4892	11.6488
6.4408	11.7803
6.3931	11.9433
6.3462	12.0693
6.2999	12.139
6.2543	12.1383
6.2094	12.0098
6.1651	11.9273
6.1214	11.8415
6.0784	11.7846
6.0359	11.4399
5.994	11.2967
5.9527	11.0735
5.912	10.9541
5.8718	11.1624
5.8322	11.2686
5.7931	11.458
5.7545	11.3916
5.7165	11.2314
5.6789	11.1322
5.6418	10.9427
5.6052	10.6952
5.5691	10.6616
5.5334	10.7174
5.4982	10.8254
5.4635	11.146
5.4291	11.5727
5.3952	11.7409
5.3618	12.2125
5.3287	12.8065
5.2961	13.5445
5.2638	14.4467
5.2319	15.4653
5.2004	16.7656
5.1693	17.6964
5.1386	18.7917
5.1082	19.7837
5.0782	20.4212
5.0485	20.842
5.0192	21.1907
4.9902	21.301
4.9616	21.7324
4.9332	22.1555
4.9052	22.5132
4.8776	23.7344
4.8502	24.7586
4.8231	25.6145
4.7963	25.8338
4.7699	26.4267
4.7437	27.4981
4.7178	28.3882
4.6922	29.0761
4.6668	30.1221
4.6418	31.7471
4.617	33.588
4.5924	35.2678
4.5681	36.4939
4.5441	37.721
4.5203	38.6379
4.4968	39.3763
4.4735	40.5271
4.4505	42.2364
4.4277	43.9084
4.4051	45.6932
4.3828	47.4264
4.3607	48.7571
4.3388	49.627
4.3171	50.3655
4.2956	50.8057
4.2744	51.1817
4.2534	51.8772
4.2325	52.0737
4.2119	52.5246
4.1915	52.7974
4.1712	53.1954
4.1512	53.5505
4.1313	53.8508
4.1117	54.0314
4.0922	54.3336
4.0729	54.5942
4.0538	54.8268
4.0349	55.0012
4.0161	54.9585
3.9976	55.0468
3.9792	55.164
3.9609	55.4795
3.9428	55.6824
3.9249	55.9196
3.9072	56.1243
3.8896	56.091
3.8722	56.1314
3.8549	56.1856
3.8378	56.0484
3.8208	56.1156
3.804	55.9815
3.7873	55.6826
3.7708	55.187
3.7544	54.2646
3.7382	52.9312
3.7221	52.439
3.7061	52.1156
3.6903	52.2877
3.6746	52.2567
3.659	52.1398
3.6436	52.1037
3.6283	52.2484
3.6131	52.186
3.5981	51.9518
3.5832	51.4878
3.5684	50.7613
3.5537	50.1381
3.5391	49.7747
3.5247	49.6118
3.5104	49.2038
3.4962	48.7853
3.4821	48.5982
3.4681	48.0923
3.4543	47.695
3.4405	46.9134
3.4269	46.2554
3.4133	45.2271
3.3999	44.6654
3.3866	44.1384
3.3733	43.181
3.3602	42.4419
3.3472	41.6826
3.3343	41.0428
3.3215	40.5072
3.3088	39.8412
3.2961	39.4343
3.2836	39.2407
3.2712	39.0272
3.2588	39.066
3.2466	39.0348
3.2345	38.7702
3.2224	38.2157
3.2104	37.7531
3.1985	37.3768
3.1867	36.8679
3.175	36.7393
3.1634	36.4847
3.1519	36.3691
3.1404	36.0564
3.129	35.7332
3.1178	35.5725
3.1065	35.1855
3.0954	35.0479
3.0844	34.7317
3.0734	34.4652
3.0625	33.9255
3.0517	33.6273
3.041	33.1895
3.0303	33.17
3.0197	33.1461
3.0092	33.1934
2.9987	33.3095
2.9884	33.5408
2.9781	33.8459
2.9678	34.1601
2.9577	34.2616
2.9476	34.2829
2.9376	33.992
2.9276	33.4554
2.9177	32.8641
2.9079	32.0551
2.8982	31.8514
2.8885	31.8703
2.8789	32.3347
2.8693	32.4808
2.8598	32.6577
2.8504	31.9596
2.841	31.1215
2.8317	30.0857
2.8224	28.9868
2.8133	26.5913
2.8041	22.5141
2.7951	17.2897
2.786	12.4683
2.7771	9.0533
2.7682	7.2957
2.7594	5.854
2.7506	5.5984
2.7418	5.6561
2.7332	5.9157
2.7246	8.3312
2.716	15.8354
2.7075	26.3668
2.699	31.7836
2.6906	35.8194
2.6823	38.3191
2.674	40.1232
2.6657	42.2955
2.6575	43.6506
2.6494	45.1245
2.6413	45.7095
2.6332	45.8889
2.6252	45.7071
2.6173	45.9277
2.6094	45.962
2.6015	46.4315
2.5937	47.9294
2.5859	48.3326
2.5782	48.4868
2.5706	49.0644
2.5629	49.9429
2.5554	50.1951
2.5478	50.9993
2.5403	51.1089
2.5329	51.0236
2.5255	50.0848
2.5181	49.2671
2.5108	48.2062
2.5035	47.1049
2.4963	46.5557
2.4891	46.0947
2.482	45.9945
2.4749	45.2604
2.4678	44.6581
2.4608	43.8668
2.4538	42.9589
2.4468	42.4488
2.4399	41.9695
2.4331	42.0751
2.4262	42.885
2.4194	43.998
2.4127	45.4964
2.4059	46.9173
2.3993	47.6963
2.3926	47.8339
2.386	47.555
2.3795	47.4278
2.3729	47.8354
2.3664	47.6878
2.36	47.2063
2.3535	45.9096
2.3471	45.7244
2.3408	46.3833
2.3345	48.0111
2.3282	50.0075
2.3219	52.258
2.3157	54.307
2.3095	56.5162
2.3034	58.685
2.2972	60.3585
2.2911	61.5791
2.2851	62.3354
2.279	62.794
2.2731	62.69
2.2671	62.6497
2.2612	62.058
2.2553	61.4182
2.2494	60.6786
2.2435	59.5705
2.2377	58.1568
2.232	56.9416
2.2262	55.249
2.2205	52.0258
2.2148	47.7549
2.2091	43.4051
2.2035	40.1458
2.1979	39.0276
2.1923	40.3521
2.1868	44.3995
2.1812	49.7678
2.1758	55.2501
2.1703	59.1532
2.1649	62.0216
2.1595	64.0681
2.1541	65.5034
2.1487	66.7684
2.1434	67.2061
2.1381	67.8266
2.1328	67.7832
2.1275	67.8336
2.1223	67.667
2.1171	67.6862
2.112	68.2425
2.1068	69.1914
2.1017	69.7187
2.0966	70.812
2.0915	71.4703
2.0865	72.2923
2.0814	73.0897
2.0764	73.5914
2.0715	73.6438
2.0665	74.5118
2.0616	74.039
2.0567	73.772
2.0518	74.0199
2.0469	74.1425
2.0421	74.3632
2.0373	74.4182
2.0325	74.5454
2.0277	74.7769
2.0229	74.5966
2.0182	74.7134
2.0135	74.7543
2.0088	74.8305
2.0042	74.9407
