Name: Beryl Be_3Al_2Si_6O_18
Type: Mineral
Class: Silicate
Subclass: Cyclosilicate
Particle Size: Medium
Sample No.: CS-2A
Owner: JPL
Wavelength Range: VSWIR
Origin: Brazil, Minas Gerais
Description: Particle size was 45-125um.Collected by Ward's Original ASTER Spectral Library name was jpl.beckman.mineral.silicate.cyclosilicate.medium.cs02a.spectrum.txt
Measurement: Hemispherical reflectance
X Units: Wavelength (micrometers)
Y Units: Reflectance (percent)
wavelength	value
0.4	64.1
0.403	64.42
0.406	64.44
0.409	64.42
0.412	64.54
0.415	64.63
0.418	64.61
0.421	64.55
0.424	64.51
0.427	64.64
0.43	64.85
0.433	65.28
0.436	65.41
0.439	65.55
0.442	65.71
0.445	65.68
0.448	65.56
0.451	65.74
0.454	65.87
0.457	65.94
0.46	65.92
0.463	65.92
0.466	66.11
0.469	66.17
0.472	66.21
0.475	66.19
0.478	66.33
0.481	66.22
0.484	66.2
0.487	66.11
0.49	66.22
0.493	66.27
0.496	66.16
0.499	66.18
0.502	66.31
0.505	66.31
0.508	66.23
0.511	66.34
0.514	66.2
0.517	66.2
0.52	66.24
0.523	66.22
0.526	66.13
0.529	66.08
0.532	65.92
0.535	66.04
0.538	65.97
0.541	66.05
0.544	66.03
0.547	65.94
0.55	65.96
0.553	66.04
0.556	66.03
0.559	65.89
0.562	66.31
0.565	66.09
0.568	65.88
0.571	65.89
0.574	65.69
0.577	65.53
0.58	65.47
0.583	65.54
0.586	65.44
0.589	65.4
0.592	65.42
0.595	65.5
0.598	65.41
0.601	65.31
0.604	65.37
0.607	65.26
0.61	65.18
0.613	65.09
0.616	65.09
0.619	64.99
0.622	64.89
0.625	64.76
0.628	64.73
0.631	64.81
0.634	64.6
0.637	64.49
0.64	64.54
0.643	64.47
0.646	64.29
0.649	64.2
0.652	64.06
0.655	64.12
0.658	63.91
0.661	63.78
0.664	63.69
0.667	63.67
0.67	63.53
0.673	63.26
0.676	63.09
0.679	63.12
0.682	62.87
0.685	62.66
0.688	62.53
0.691	62.43
0.694	62.16
0.697	61.92
0.7	61.79
0.703	61.36
0.706	61.09
0.709	60.84
0.712	60.48
0.715	60.18
0.718	60.07
0.721	59.72
0.724	59.3
0.727	58.96
0.73	58.86
0.733	58.44
0.736	57.94
0.739	57.65
0.742	57.44
0.745	57.11
0.748	56.67
0.751	56.4
0.754	56.11
0.757	55.72
0.76	55.45
0.763	55.15
0.766	54.9
0.769	54.63
0.772	54.43
0.775	54.09
0.778	53.84
0.781	53.78
0.784	53.55
0.787	53.3
0.79	53.2
0.793	53.09
0.796	52.92
0.799	52.85
0.808	52.77
0.82	52.64
0.832	52.86
0.844	53.48
0.856	54.34
0.868	55.39
0.88	56.49
0.892	57.69
0.904	58.68
0.916	59.58
0.928	60.43
0.94	61.08
0.952	61.18
0.964	62.22
0.976	62.74
0.988	63.12
1	63.35
1.012	63.7
1.024	63.99
1.036	64.35
1.048	64.66
1.06	64.98
1.072	65.37
1.084	65.62
1.096	65.92
1.108	66.03
1.12	65.86
1.132	66.07
1.144	63.82
1.156	66.4
1.168	66.72
1.18	66.94
1.192	67.01
1.204	67.25
1.216	67.23
1.228	67.28
1.24	67.33
1.252	67.36
1.264	67.44
1.276	67.43
1.288	67.52
1.3	67.42
1.312	67.37
1.324	67.03
1.336	66.53
1.348	65.13
1.36	61.35
1.372	61.78
1.384	61.52
1.396	46.71
1.408	58.81
1.42	62.02
1.432	63.49
1.444	65.5
1.456	64.63
1.468	64.96
1.48	67.28
1.492	67.44
1.504	67.55
1.516	67.82
1.528	67.89
1.54	68.09
1.552	68.05
1.564	68.02
1.576	68.1
1.588	68.17
1.6	68.15
1.612	68.17
1.624	68.24
1.636	68.26
1.648	68.25
1.66	68.31
1.672	68.26
1.684	68.26
1.696	68.2
1.708	68.21
1.72	68.09
1.732	67.9
1.744	67.68
1.756	67.44
1.768	66.83
1.78	66.15
1.792	64.94
1.804	62.33
1.816	56.83
1.828	52.63
1.84	53.2
1.852	55.89
1.864	56.49
1.876	50.35
1.888	38.76
1.9	42.78
1.912	54.5
1.924	58.49
1.936	58.43
1.948	57.91
1.96	58.52
1.972	61.02
1.984	63.84
1.996	65.5
2.008	66.07
2.02	66.39
2.032	66.17
2.044	65.77
2.056	65.64
2.068	65.86
2.08	66.18
2.092	66.64
2.104	66.9
2.116	66.93
2.128	66.49
2.14	65.8
2.152	65.65
2.164	65.88
2.176	65.97
2.188	65.76
2.2	65.95
2.212	66.22
2.224	66.47
2.236	66.51
2.248	66.49
2.26	66.21
2.272	66.03
2.284	65.72
2.296	65.25
2.308	64.68
2.32	64.11
2.332	63.48
2.344	62.98
2.356	62.49
2.368	61.95
2.38	61.65
2.392	61.19
2.404	60.6
2.416	59.65
2.428	58.31
2.44	56.7
2.452	54.73
2.464	52.41
2.476	49.9
2.488	47.18
2.5	44.09
