Name: Alunite KAl_3(SO_4)_2(OH)_6
Type: Mineral
Class: Sulfate
Subclass: None
Particle Size: Coarse
Sample No.: SO-4A
Owner: JPL
Wavelength Range: VSWIR
Origin: USA, Utah
Description: Particle size was 125-500um.Collected by Ward's Original ASTER Spectral Library name was jpl.beckman.mineral.sulfate.none.coarse.so04a.spectrum.txt
Measurement: Hemispherical reflectance
X Units: Wavelength (micrometers)
Y Units: Reflectance (percent)
wavelength	value
0.4	37.31
0.403	38.23
0.406	39.02
0.409	39.2
0.412	40.23
0.415	40.63
0.418	40.97
0.421	41.61
0.424	41.72
0.427	42.29
0.43	42.35
0.433	42.69
0.436	43.66
0.439	43.66
0.442	44.24
0.445	44.75
0.448	44.92
0.451	45.44
0.454	45.5
0.457	45.73
0.46	46.3
0.463	46.08
0.466	46.82
0.469	46.72
0.472	47
0.475	47.35
0.478	47.35
0.481	48.16
0.484	48.33
0.487	48.73
0.49	49.37
0.493	49.26
0.496	50.29
0.499	50.3
0.502	50.81
0.505	51.21
0.508	51.44
0.511	52.53
0.514	52.41
0.517	53.22
0.52	53.39
0.523	53.84
0.526	54.82
0.529	55
0.532	56.08
0.535	56.37
0.538	57
0.541	57.74
0.544	57.69
0.547	58.89
0.55	58.94
0.553	59.63
0.556	60.55
0.559	60.49
0.562	61.47
0.565	62.1
0.568	63.07
0.571	63.25
0.574	64.1
0.577	64.5
0.58	64.79
0.583	65.82
0.586	66.11
0.589	66.91
0.592	67.25
0.595	67.37
0.598	68.23
0.601	68.69
0.604	69.03
0.607	70.57
0.61	70.41
0.613	70.86
0.616	71.61
0.619	71.5
0.622	72.29
0.625	72.47
0.628	72.52
0.631	73.21
0.634	73.1
0.637	73.62
0.64	73.84
0.643	73.78
0.646	74.53
0.649	74.42
0.652	75.22
0.655	75.44
0.658	75.39
0.661	75.85
0.664	75.85
0.667	76.48
0.67	76.48
0.673	76.65
0.676	77
0.679	76.88
0.682	77.39
0.685	77.62
0.688	77.39
0.691	78.26
0.694	78.03
0.697	78.43
0.7	78.31
0.703	78.49
0.706	78.94
0.709	78.71
0.712	78.82
0.715	79.05
0.718	78.94
0.721	79.57
0.724	79.28
0.727	79.28
0.73	79.75
0.733	79.34
0.736	80.03
0.739	79.75
0.742	79.51
0.745	79.75
0.748	79.57
0.751	79.98
0.754	79.63
0.757	79.98
0.76	79.86
0.763	79.34
0.766	80.03
0.769	79.63
0.772	80.03
0.775	79.69
0.778	79.8
0.781	79.75
0.784	79.34
0.787	79.98
0.79	79.57
0.793	79.86
0.796	79.8
0.799	79.63
0.808	79.57
0.82	79.69
0.832	79.57
0.844	79.69
0.856	79.52
0.868	79.63
0.88	79.4
0.892	79.28
0.904	79.05
0.916	79.28
0.928	79.52
0.94	79.52
0.952	79.28
0.964	79.05
0.976	77.97
0.988	76.42
1	75.85
1.012	77.22
1.024	79.69
1.036	80.6
1.048	81.06
1.06	81.12
1.072	81.29
1.084	81.23
1.096	81.41
1.108	81.23
1.12	81.64
1.132	82.03
1.144	81.93
1.156	81.74
1.168	81.43
1.18	81.3
1.192	81
1.204	80.07
1.216	79.03
1.228	76.98
1.24	75.66
1.252	73.42
1.264	68.66
1.276	72.7
1.288	77.71
1.3	78.04
1.312	76.66
1.324	74.63
1.336	70.9
1.348	71.1
1.36	71.91
1.372	72.53
1.384	71
1.396	67.22
1.408	59.87
1.42	38.73
1.432	39.77
1.444	44.53
1.456	38.76
1.468	30.52
1.48	30.64
1.492	45.85
1.504	51.56
1.516	55.86
1.528	57.11
1.54	57.85
1.552	58.2
1.564	57.97
1.576	57.63
1.588	57.29
1.6	57.23
1.612	56.99
1.624	56.8
1.636	56.28
1.648	55.68
1.66	54.64
1.672	53.43
1.684	52.28
1.696	51.13
1.708	49.64
1.72	46.56
1.732	42.05
1.744	37.09
1.756	33.83
1.768	34.17
1.78	39.25
1.792	45.64
1.804	48.37
1.816	48.77
1.828	48.44
1.84	47.83
1.852	46.83
1.864	45.56
1.876	43.56
1.888	41.1
1.9	38.15
1.912	35.25
1.924	33.19
1.936	32.05
1.948	31.07
1.96	30.38
1.972	30.3
1.984	29.54
1.996	27.88
2.008	26.81
2.02	26.54
2.032	25.98
2.044	25.15
2.056	24.43
2.068	24.17
2.08	23.87
2.092	22.39
2.104	19.52
2.116	15.54
2.128	12.11
2.14	9.72
2.152	8.4
2.164	8.2
2.176	9.01
2.188	11.06
2.2	12.72
2.212	16.9
2.224	23.89
2.236	28.33
2.248	29.95
2.26	29.92
2.272	29.58
2.284	27.97
2.296	23.99
2.308	19.53
2.32	18.22
2.332	20.13
2.344	22.37
2.356	22.17
2.368	19.37
2.38	15.09
2.392	11.92
2.404	9.86
2.416	8.53
2.428	7.81
2.44	7.48
2.452	7.42
2.464	7.3
2.476	6.86
2.488	6.09
2.5	5.41
