Name: Alunite KAl_3(SO_4)_2(OH)_6
Type: Mineral
Class: Sulfate
Subclass: None
Particle Size: Fine
Sample No.: SO-4A
Owner: JPL
Wavelength Range: VSWIR
Origin: USA, Utah
Description: Particle size was 0-45um.Collected by Ward's Original ASTER Spectral Library name was jpl.beckman.mineral.sulfate.none.fine.so04a.spectrum.txt
Measurement: Hemispherical reflectance
X Units: Wavelength (micrometers)
Y Units: Reflectance (percent)
wavelength	value
0.4	66.44
0.403	66.96
0.406	67.08
0.409	67.99
0.412	67.81
0.415	68.51
0.418	68.74
0.421	68.9
0.424	69.65
0.427	69.25
0.43	69.94
0.433	70.11
0.436	70.45
0.439	70.96
0.442	70.79
0.445	71.7
0.448	71.43
0.451	71.93
0.454	72.12
0.457	71.83
0.46	72.41
0.463	72.36
0.466	72.36
0.469	73.05
0.472	72.48
0.475	73.06
0.478	72.9
0.481	73.18
0.484	73.88
0.487	73.53
0.49	73.94
0.493	74.01
0.496	74.23
0.499	75.11
0.502	74.59
0.505	75.28
0.508	75.28
0.511	75.44
0.514	76.02
0.517	75.9
0.52	76.83
0.523	76.71
0.526	77.39
0.529	77.74
0.532	78.14
0.535	78.71
0.538	78.71
0.541	79.34
0.544	79.57
0.547	79.75
0.55	80.37
0.553	80.03
0.556	80.77
0.559	80.72
0.562	81.81
0.565	81.7
0.568	81.98
0.571	82.38
0.574	82.49
0.577	83.01
0.58	82.84
0.583	83.18
0.586	83.36
0.589	83.18
0.592	83.47
0.595	83.36
0.598	83.98
0.601	84.27
0.604	84.38
0.607	84.79
0.61	84.67
0.613	85.47
0.616	84.79
0.619	85.35
0.622	85.25
0.625	85.13
0.628	85.7
0.631	85.02
0.634	85.47
0.637	85.58
0.64	85.25
0.643	86.1
0.646	85.58
0.649	85.58
0.652	85.82
0.655	85.87
0.658	86.16
0.661	85.93
0.664	85.99
0.667	86.56
0.67	86.05
0.673	86.68
0.676	86.1
0.679	86.28
0.682	86.79
0.685	86.62
0.688	86.56
0.691	87.02
0.694	86.45
0.697	87.13
0.7	86.91
0.703	86.91
0.706	87.25
0.709	86.79
0.712	87.19
0.715	87.07
0.718	86.74
0.721	87.48
0.724	86.91
0.727	86.97
0.73	87.02
0.733	87.07
0.736	87.36
0.739	87.13
0.742	87.36
0.745	87.48
0.748	87.13
0.751	87.48
0.754	87.02
0.757	87.02
0.76	87.48
0.763	87.07
0.766	87.13
0.769	87.07
0.772	86.91
0.775	87.42
0.778	87.07
0.781	87.19
0.784	87.3
0.787	86.51
0.79	87.07
0.793	86.68
0.796	86.79
0.799	86.28
0.808	86.16
0.82	85.99
0.832	85.99
0.844	85.87
0.856	85.82
0.868	85.93
0.88	85.93
0.892	85.7
0.904	85.87
0.916	85.76
0.928	85.87
0.94	85.99
0.952	86.05
0.964	86.22
0.976	86.16
0.988	86.22
1	86.16
1.012	86.45
1.024	86.74
1.036	87.02
1.048	87.07
1.06	87.19
1.072	87.25
1.084	87.42
1.096	87.42
1.108	87.53
1.12	87.71
1.132	87.65
1.144	87.82
1.156	87.75
1.168	87.78
1.18	87.71
1.192	87.81
1.204	87.73
1.216	87.62
1.228	87.22
1.24	87.33
1.252	86.99
1.264	86.22
1.276	86.89
1.288	87.55
1.3	87.47
1.312	87.23
1.324	86.97
1.336	86.32
1.348	86.42
1.36	86.47
1.372	86.47
1.384	86.19
1.396	85.56
1.408	84.14
1.42	76.79
1.432	78.41
1.444	79.98
1.456	77.92
1.468	73.53
1.48	73.98
1.492	80.5
1.504	82.1
1.516	83.24
1.528	83.53
1.54	83.65
1.552	83.81
1.564	83.81
1.576	83.7
1.588	83.75
1.6	83.59
1.612	83.51
1.624	83.54
1.636	83.36
1.648	83.21
1.66	82.91
1.672	82.62
1.684	82.36
1.696	81.94
1.708	81.54
1.72	80.63
1.732	78.91
1.744	76.74
1.756	75.55
1.768	75.55
1.78	77.76
1.792	80.05
1.804	80.94
1.816	81.02
1.828	80.84
1.84	80.7
1.852	80.24
1.864	79.76
1.876	78.89
1.888	77.96
1.9	76.47
1.912	75.26
1.924	74.33
1.936	73.92
1.948	73.27
1.96	73
1.972	73
1.984	72.79
1.996	71.93
2.008	71.41
2.02	71.31
2.032	70.92
2.044	70.41
2.056	69.83
2.068	69.86
2.08	69.6
2.092	68.62
2.104	66.14
2.116	62.6
2.128	58.86
2.14	56.06
2.152	53.74
2.164	53.17
2.176	54.38
2.188	57.12
2.2	59.34
2.212	63.02
2.224	68.66
2.236	71.71
2.248	72.69
2.26	72.73
2.272	72.43
2.284	71.45
2.296	68.4
2.308	65.21
2.32	64.51
2.332	66.47
2.344	68.17
2.356	67.97
2.368	65.17
2.38	60.94
2.392	57.16
2.404	54.66
2.416	52.65
2.428	51.31
2.44	50.8
2.452	50.73
2.464	50.38
2.476	49.43
2.488	47.31
2.5	45.81
