Name: Spessartine Mn3Al2 (SiO4)3
Type: Mineral
Class: Silicate
Subclass: Nesosilicate
Particle Size: Solid
Sample No.: spessart_2
Owner: JHU
Wavelength Range: TIR
Origin: Rutherford #2 mine, Amelia, Amelia Co., Virginia, USA via theSmithsonian (sample no. NMNH 114143)
Description: The sample consisted of a group of 3 mm and smaller diameter reddish crystals.  A few clear crystals adhering to the grains were picked off and microscopic examination showed the remaining sample to be quite pure. Sample was dodecahedral crystal face.(Framework silicates); GarnetGroup Original ASTER Spectral Library name was jhu.nicolet.mineral.silicate.nesosilicate.solid.spessa2.spectrum.txt
Measurement: Bidirectional reflectance
X Units: Wavelength (micrometers)
Y Units: Reflectance (percent)
wavelength	value
25.0442	19.0468
24.3388	22.871
23.6719	27.5663
23.0407	36.498
22.4422	56.4461
21.8741	43.6259
21.334	62.9998
20.8199	69.4842
20.33	69.4256
19.8627	66.1414
19.4163	50.2601
18.9896	38.6366
18.5812	17.633
18.19	17.4094
17.815	36.1222
17.4551	51.3324
17.1094	51.1561
16.7772	40.3546
16.4576	14.5227
16.15	7.7024
15.8537	13.4065
15.568	7.5337
15.2925	9.0293
15.0265	10.9345
14.7697	12.1894
14.5214	13.2932
14.2814	14.1748
14.0492	15.019
13.8244	15.7451
13.6067	16.5539
13.3957	17.2912
13.1912	17.977
12.9929	18.5656
12.8004	19.427
12.6135	20.3837
12.432	21.5129
12.2557	22.6982
12.0843	24.4079
11.9176	26.839
11.7555	30.7758
11.5977	38.7511
11.444	49.0868
11.2944	39.5209
11.1487	52.9154
11.0067	54.4418
10.8682	40.308
10.7332	17.7026
10.6015	23.4916
10.473	44.8373
10.3476	63.2547
10.2251	65.639
10.1056	64.7611
9.9887	63.0745
9.8746	60.7704
9.763	57.1312
9.6539	52.329
9.5472	46.4379
9.4429	35.8388
9.3408	21.2143
9.2409	5.9687
9.1431	1.7769
9.0474	3.4839
8.9536	5.0305
8.8618	6.1528
8.7718	7.018
8.6837	7.7534
8.5973	8.3454
8.5126	8.8281
8.4295	9.2615
8.3481	9.6863
8.2682	10.0459
8.1898	10.3679
8.1129	10.664
8.0374	10.9355
7.9634	11.1931
7.8906	11.427
7.8192	11.6806
7.7491	11.8742
7.6802	12.0644
7.6126	12.2275
7.5461	12.4013
7.4807	12.5278
7.4165	12.6831
7.3534	12.8195
7.2914	12.9255
7.2303	13.0639
7.1703	13.1289
7.1113	13.2685
7.0533	13.2856
6.9962	13.4589
6.94	13.5986
6.8847	13.6943
6.8302	13.7646
6.7767	13.854
6.7239	13.8964
6.672	14.0678
6.6209	14.1574
6.5705	14.163
6.5209	14.2954
6.4721	14.4658
6.424	14.4553
6.3766	14.5962
6.3299	14.7815
6.2838	14.8266
6.2385	14.8947
6.1937	14.926
6.1496	15.0337
6.1062	15.0449
6.0633	15.0832
6.0211	15.0603
5.9794	15.1045
5.9383	14.9712
5.8978	15.0456
5.8578	15.1718
5.8184	15.1547
5.7794	15.1831
5.741	15.2421
5.7031	15.2929
5.6657	15.333
5.6288	15.3579
5.5924	15.3779
5.5564	15.3991
5.5209	15.4419
5.4859	15.4963
5.4513	15.5866
5.4171	15.6157
5.3833	15.6757
5.35	15.6616
5.3171	15.7524
5.2846	15.7858
5.2524	15.7981
5.2207	15.7968
5.1893	15.8476
5.1584	15.8554
5.1277	15.8759
5.0975	15.8886
5.0676	15.8964
5.038	15.9116
5.0088	15.9416
4.98	15.955
4.9514	15.9748
4.9232	15.9936
4.8953	16.0297
4.8678	16.0478
4.8405	16.0808
4.8135	16.102
4.7868	16.1098
4.7605	16.1665
4.7344	16.1919
4.7086	16.2231
4.6831	16.2304
4.6578	16.2663
4.6328	16.3071
4.6081	16.3252
4.5837	16.351
4.5595	16.375
4.5356	16.3916
4.5119	16.4179
4.4884	16.416
4.4652	16.4477
4.4423	16.445
4.4196	16.458
4.3971	16.4545
4.3748	16.4577
4.3528	16.4135
4.331	16.312
4.3094	16.1945
4.288	16.104
4.2668	16.0634
4.2458	16.0239
4.2251	16.0859
4.2045	16.3322
4.1841	16.5117
4.164	16.5244
4.144	16.5429
4.1242	16.5527
4.1046	16.5727
4.0852	16.5878
4.066	16.6137
4.047	16.6098
4.0281	16.6225
4.0094	16.6572
3.9909	16.6523
3.9725	16.6992
3.9544	16.708
3.9363	16.7211
3.9185	16.7131
3.9008	16.7226
3.8833	16.7392
3.8659	16.7343
3.8487	16.7177
3.8316	16.738
3.8147	16.7251
3.7979	16.7324
3.7813	16.7207
3.7648	16.6923
3.7485	16.6987
3.7323	16.6933
3.7162	16.6933
3.7003	16.7031
3.6845	16.705
3.6689	16.708
3.6534	16.7158
3.638	16.7187
3.6227	16.7368
3.6076	16.7375
3.5926	16.7473
3.5777	16.7673
3.563	16.7758
3.5484	16.7724
3.5338	16.7966
3.5195	16.8347
3.5052	16.8723
3.491	16.8469
3.477	16.843
3.463	16.8503
3.4492	16.8542
3.4355	16.8767
3.4219	16.9536
3.4084	16.8999
3.395	16.8325
3.3817	16.8391
3.3685	16.8169
3.3554	16.7854
3.3425	16.7561
3.3296	16.7348
3.3168	16.7397
3.3041	16.707
3.2915	16.7407
3.279	16.7385
3.2666	16.729
3.2543	16.7287
3.2421	16.7216
3.23	16.7426
3.218	16.7436
3.206	16.7211
3.1942	16.7304
3.1824	16.7285
3.1707	16.7294
3.1591	16.7387
3.1476	16.7697
3.1362	16.7529
3.1249	16.7544
3.1136	16.7492
3.1024	16.7514
3.0913	16.7265
3.0803	16.7221
3.0694	16.7238
3.0585	16.6679
3.0477	16.6867
3.037	16.6662
3.0264	16.644
3.0158	16.6145
3.0053	16.6259
2.9949	16.6281
2.9845	16.5507
2.9743	16.561
2.9641	16.5351
2.9539	16.5605
2.9439	16.5107
2.9339	16.5156
2.9239	16.4719
2.9141	16.4445
2.9043	16.4482
2.8946	16.4201
2.8849	16.4165
2.8753	16.3847
2.8658	16.4077
2.8563	16.3295
2.8469	16.2749
2.8375	16.2778
2.8282	16.2226
2.819	16.2568
2.8098	16.186
2.8007	16.2207
2.7917	16.0996
2.7827	16.1142
2.7738	16.0571
2.7649	16.0512
2.7561	15.997
2.7473	15.9599
2.7386	16.1035
2.7299	15.9121
2.7213	15.9043
2.7128	15.811
2.7043	15.8281
2.6959	15.7465
2.6875	15.7426
2.6791	15.6767
2.6709	15.7158
2.6626	15.6445
2.6545	15.7016
2.6463	15.7075
2.6382	15.6914
2.6302	15.8828
2.6222	15.6504
2.6143	15.6523
2.6064	15.708
2.5986	15.5459
2.5908	15.5898
2.583	15.6455
2.5753	15.6084
2.5677	15.5761
2.5601	15.6504
2.5525	15.5805
2.545	15.5078
2.5375	15.5107
2.5301	15.4843
2.5227	15.4795
2.5154	15.4746
2.5081	15.4511
2.5008	15.4345
2.4936	15.4257
2.4864	15.436
2.4793	15.354
2.4722	15.3774
2.4651	15.4062
2.4581	15.3515
2.4511	15.2832
2.4442	15.3144
2.4373	15.2954
2.4305	15.3071
2.4236	15.248
2.4169	15.2758
2.4101	15.2597
2.4034	15.2588
2.3967	15.2197
2.3901	15.2002
2.3835	15.1777
2.377	15.2314
2.3704	15.1464
2.364	15.2431
2.3575	15.1865
2.3511	15.1347
2.3447	15.1494
2.3384	15.1308
2.3321	15.0937
2.3258	15.1357
2.3195	15.1494
2.3133	15.0742
2.3071	15.0517
2.301	15.0644
2.2949	15.0254
2.2888	15.0576
2.2828	15.0371
2.2767	15.0439
2.2708	15.0146
2.2648	14.9931
2.2589	15.0136
2.253	14.9941
2.2471	15.0595
2.2413	14.9941
2.2355	14.9648
2.2297	14.9463
2.224	15.0429
2.2183	14.8984
2.2126	15.0156
2.207	14.9882
2.2013	14.9121
2.1957	15.0039
2.1902	15.0078
2.1846	15.0713
2.1791	15.0009
2.1736	14.9511
2.1682	15
2.1628	15.04
2.1574	14.915
2.152	14.997
2.1466	14.9648
2.1413	15.0097
2.136	14.9824
2.1308	15.0478
2.1255	15
2.1203	15.0439
2.1151	15.0009
2.11	15.0234
2.1048	14.9775
2.0997	15.0673
2.0946	15.0273
2.0895	15.0048
2.0845	15.0556
2.0795	15.0791
