Name: Ferroaxinite Ca_2Fe^2+Al_2BSi_4O_15(OH)
Type: Mineral
Class: Silicate
Subclass: Cyclosilicate
Particle Size: Medium
Sample No.: CS-4A
Owner: JPL
Wavelength Range: VSWIR
Origin: Mexico, Baja California Norte, Los Gavelontos
Description: Particle size was 45-125um.Collected by Ward's Original ASTER Spectral Library name was jpl.beckman.mineral.silicate.cyclosilicate.medium.cs04a.spectrum.txt
Measurement: Hemispherical reflectance
X Units: Wavelength (micrometers)
Y Units: Reflectance (percent)
wavelength	value
0.4	23.48
0.403	25.35
0.406	25.81
0.409	25
0.412	21.34
0.415	21.69
0.418	23.02
0.421	23.58
0.424	23.43
0.427	23.32
0.43	23.35
0.433	23.43
0.436	23.13
0.439	23.48
0.442	24.36
0.445	25.06
0.448	25.46
0.451	26.02
0.454	26.33
0.457	26.56
0.46	26.78
0.463	26.74
0.466	26.87
0.469	27.15
0.472	27.19
0.475	27.45
0.478	27.57
0.481	27.53
0.484	27.24
0.487	27.27
0.49	27.3
0.493	26.98
0.496	26.83
0.499	26.96
0.502	27.05
0.505	26.87
0.508	26.75
0.511	26.76
0.514	26.75
0.517	26.72
0.52	26.9
0.523	26.87
0.526	26.76
0.529	26.79
0.532	26.79
0.535	26.82
0.538	26.96
0.541	27.14
0.544	27.06
0.547	27.1
0.55	27.41
0.553	27.59
0.556	27.66
0.559	27.73
0.562	28.24
0.565	28.53
0.568	28.71
0.571	28.8
0.574	29
0.577	29.31
0.58	29.45
0.583	29.73
0.586	29.97
0.589	30.25
0.592	30.49
0.595	30.86
0.598	31.22
0.601	31.48
0.604	32.02
0.607	32.27
0.61	32.49
0.613	32.81
0.616	33.24
0.619	33.48
0.622	33.78
0.625	34.15
0.628	34.58
0.631	34.84
0.634	35.23
0.637	35.58
0.64	35.83
0.643	36.22
0.646	36.63
0.649	36.94
0.652	37.18
0.655	37.7
0.658	38.04
0.661	38.39
0.664	38.91
0.667	39.31
0.67	39.66
0.673	40.04
0.676	40.51
0.679	40.86
0.682	41.23
0.685	41.63
0.688	42.18
0.691	42.47
0.694	42.88
0.697	43.26
0.7	43.49
0.703	43.93
0.706	44.42
0.709	44.66
0.712	45.01
0.715	45.57
0.718	46.01
0.721	46.24
0.724	46.7
0.727	47.13
0.73	47.38
0.733	47.82
0.736	48.25
0.739	48.48
0.742	48.8
0.745	49.22
0.748	49.48
0.751	49.65
0.754	50.09
0.757	50.41
0.76	50.59
0.763	50.76
0.766	51.26
0.769	51.5
0.772	51.7
0.775	51.92
0.778	52.17
0.781	52.24
0.784	52.45
0.787	52.64
0.79	52.87
0.793	52.77
0.796	53
0.799	52.76
0.808	52.67
0.82	51.86
0.832	50.34
0.844	48.2
0.856	45.48
0.868	42.06
0.88	38.46
0.892	34.67
0.904	31
0.916	27.48
0.928	24.08
0.94	20.98
0.952	18.4
0.964	16.19
0.976	14.28
0.988	12.83
1	11.66
1.012	10.44
1.024	9.58
1.036	8.97
1.048	8.28
1.06	7.93
1.072	7.52
1.084	7.21
1.096	7.05
1.108	6.91
1.12	6.74
1.132	6.62
1.144	6.62
1.156	6.55
1.168	6.45
1.18	6.61
1.192	6.66
1.204	6.8
1.216	6.87
1.228	7.01
1.24	7.29
1.252	7.6
1.264	7.95
1.276	8.36
1.288	8.8
1.3	9.53
1.312	10.28
1.324	11.34
1.336	12.5
1.348	13.86
1.36	15.44
1.372	17.36
1.384	19.59
1.396	22.03
1.408	24.58
1.42	27.37
1.432	30.11
1.444	32.56
1.456	34.77
1.468	36.57
1.48	37.82
1.492	38.54
1.504	38.81
1.516	38.53
1.528	37.93
1.54	37.22
1.552	36.81
1.564	36.43
1.576	35.74
1.588	34.85
1.6	33.73
1.612	32.71
1.624	31.57
1.636	30.51
1.648	29.43
1.66	28.36
1.672	27.24
1.684	26.23
1.696	25.19
1.708	24.22
1.72	23.31
1.732	22.4
1.744	21.55
1.756	20.78
1.768	20
1.78	19.25
1.792	18.57
1.804	18.01
1.816	17.45
1.828	16.86
1.84	16.38
1.852	15.86
1.864	15.41
1.876	15.02
1.888	14.64
1.9	14.24
1.912	14
1.924	13.78
1.936	13.43
1.948	13.26
1.96	13.12
1.972	12.85
1.984	12.79
1.996	12.64
2.008	12.58
2.02	12.48
2.032	12.35
2.044	12.38
2.056	12.27
2.068	12.29
2.08	12.28
2.092	12.37
2.104	12.38
2.116	12.39
2.128	12.46
2.14	12.56
2.152	12.7
2.164	12.79
2.176	12.97
2.188	13.2
2.2	13.4
2.212	13.61
2.224	13.84
2.236	14
2.248	13.95
2.26	13.73
2.272	13.54
2.284	13.25
2.296	12.8
2.308	12.65
2.32	13.19
2.332	14.48
2.344	16
2.356	16.87
2.368	17.75
2.38	19.73
2.392	21.92
2.404	23.73
2.416	25.2
2.428	26.53
2.44	27.78
2.452	28.79
2.464	29.6
2.476	30.34
2.488	31.18
2.5	31.76
