Name: Palygorskite (Mg,Al)_2Si_4O_10(OH).4H_2O
Type: Mineral
Class: Silicate
Subclass: Phyllosilicate
Particle Size: Fine
Sample No.: PS-4A
Owner: JPL
Wavelength Range: TIR
Origin: USA, Florida, Gadsden County
Description: Particle size was 0-45um.Collected by Clay Mineral Society Original ASTER Spectral Library name was jpl.nicolet.mineral.silicate.phyllosilicate.fine.ps04a.spectrum.txt
Measurement: Hemispherical reflectance
X Units: Wavelength (micrometers)
Y Units: Reflectance (percent)
wavelength	value
15.3853	0.4923
15.1161	1.0423
14.8563	0.9007
14.6052	0.6239
14.3624	0.8057
14.1276	0.7795
13.9004	1.3583
13.6803	1.2889
13.4671	1.5533
13.2604	1.9336
13.06	1.6709
12.8656	1.9941
12.6769	1.8605
12.4936	2.0172
12.3155	2.4463
12.1425	2.8733
11.9742	3.6919
11.8106	3.9863
11.6513	4.1208
11.4963	3.5382
11.3454	3.885
11.1983	4.2571
11.0551	3.572
10.9154	2.8794
10.7793	3.9161
10.6465	3.5406
10.5169	3.7192
10.3904	2.9691
10.267	2.5435
10.1464	2.8604
10.0287	2.4759
9.9136	2.0609
9.8012	2.1201
9.6913	2.2517
9.5838	2.2131
9.4787	2.2857
9.3758	2.2404
9.2752	1.8119
9.1767	1.5231
9.0803	1.4131
8.9858	1.1975
8.8934	1.3316
8.8028	1.3252
8.714	1.3801
8.627	1.3991
8.5417	1.3761
8.4581	1.1489
8.3761	0.7681
8.2957	1.004
8.2169	1.3587
8.1395	1.6877
8.0635	1.2527
7.989	1.2051
7.9158	1.1374
7.8439	1.0548
7.7734	1.1739
7.7041	1.3127
7.636	1.6145
7.5691	1.7291
7.5034	2.0277
7.4388	2.2622
7.3753	2.5689
7.3129	2.719
7.2515	2.885
7.1912	3.0367
7.1318	3.0818
7.0734	3.1434
7.016	3.0692
6.9595	3.2283
6.9039	3.7032
6.8492	3.6802
6.7953	4.2332
6.7423	4.6463
6.6901	5.006
6.6387	5.5955
6.5881	5.9779
6.5382	6.2636
6.4892	6.7262
6.4408	6.6258
6.3931	6.2056
6.3462	5.6067
6.2999	4.5799
6.2543	3.3225
6.2094	2.0257
6.1651	1.3263
6.1214	1.0746
6.0784	0.9182
6.0359	0.7546
5.994	0.7469
5.9527	0.8846
5.912	2.2704
5.8718	4.2778
5.8322	6.4937
5.7931	8.4071
5.7545	10.1436
5.7165	11.5783
5.6789	12.323
5.6418	12.4757
5.6052	12.2835
5.5691	12.1873
5.5334	12.3726
5.4982	13.786
5.4635	15.0007
5.4291	15.6351
5.3952	15.3056
5.3618	14.6548
5.3287	14.8631
5.2961	15.2348
5.2638	16.1714
5.2319	17.4335
5.2004	18.5742
5.1693	18.8762
5.1386	18.9614
5.1082	19.0352
5.0782	18.8047
5.0485	18.9462
5.0192	19.3179
4.9902	19.8571
4.9616	20.7085
4.9332	21.2593
4.9052	21.9262
4.8776	22.6706
4.8502	23.1551
4.8231	23.693
4.7963	24.0779
4.7699	24.693
4.7437	25.3352
4.7178	25.8273
4.6922	26.204
4.6668	26.6415
4.6418	27.1585
4.617	27.8208
4.5924	28.204
4.5681	28.7007
4.5441	28.9519
4.5203	29.2448
4.4968	29.3423
4.4735	29.5374
4.4505	29.8568
4.4277	30.4341
4.4051	31.0536
4.3828	31.7761
4.3607	32.7177
4.3388	33.5758
4.3171	34.5204
4.2956	35.7447
4.2744	36.7359
4.2534	37.3359
4.2325	38.923
4.2119	39.3834
4.1915	39.9909
4.1712	40.9219
4.1512	41.7479
4.1313	42.3762
4.1117	42.9222
4.0922	43.5895
4.0729	44.102
4.0538	44.763
4.0349	45.4641
4.0161	46.0157
3.9976	46.5255
3.9792	46.8764
3.9609	47.2811
3.9428	47.8952
3.9249	48.2668
3.9072	48.5145
3.8896	48.7433
3.8722	48.8461
3.8549	48.7387
3.8378	48.5077
3.8208	48.4829
3.804	48.3886
3.7873	48.2718
3.7708	47.8005
3.7544	47.3953
3.7382	46.9847
3.7221	46.4784
3.7061	45.8173
3.6903	45.1094
3.6746	44.2025
3.659	43.6291
3.6436	42.7574
3.6283	42.0341
3.6131	41.2303
3.5981	40.3709
3.5832	39.4272
3.5684	38.3051
3.5537	37.1295
3.5391	36.0609
3.5247	34.3745
3.5104	32.643
3.4962	31.4851
3.4821	30.7618
3.4681	29.7615
3.4543	28.6227
3.4405	27.1987
3.4269	25.6043
3.4133	23.9342
3.3999	23.326
3.3866	22.284
3.3733	21.0771
3.3602	20.0197
3.3472	18.9189
3.3343	17.78
3.3215	16.7768
3.3088	15.5291
3.2961	14.5329
3.2836	13.3503
3.2712	12.3504
3.2588	11.4064
3.2466	10.5899
3.2345	9.667
3.2224	8.9482
3.2104	7.9526
3.1985	7.2125
3.1867	6.4443
3.175	5.7772
3.1634	5.1229
3.1519	4.5942
3.1404	4.1987
3.129	3.6612
3.1178	3.3636
3.1065	2.92
3.0954	2.7701
3.0844	2.5866
3.0734	2.214
3.0625	2.0289
3.0517	2.0855
3.041	1.9465
3.0303	2.0486
3.0197	2.1435
3.0092	1.9425
2.9987	1.6468
2.9884	1.4964
2.9781	1.5362
2.9678	1.4269
2.9577	1.509
2.9476	1.3121
2.9376	1.562
2.9276	1.4437
2.9177	1.5727
2.9079	1.6602
2.8982	1.9046
2.8885	1.6526
2.8789	1.7907
2.8693	1.7046
2.8598	1.7331
2.8504	1.5238
2.841	1.1114
2.8317	1.1192
2.8224	0.8996
2.8133	0.8316
2.8041	0.9056
2.7951	1.0324
2.786	1.0156
2.7771	1.238
2.7682	0.991
2.7594	0.9428
2.7506	1.1612
2.7418	1.8753
2.7332	3.3034
2.7246	4.9817
2.716	7.8247
2.7075	10.7287
2.699	14.5244
2.6906	19.0105
2.6823	25.0608
2.674	28.8772
2.6657	31.8626
2.6575	33.5542
2.6494	35.2126
2.6413	36.6723
2.6332	37.8759
2.6252	38.9223
2.6173	39.8846
2.6094	40.2308
2.6015	40.6884
2.5937	41.6301
2.5859	41.278
2.5782	41.1898
2.5706	41.2585
2.5629	41.4956
2.5554	41.5765
2.5478	41.6771
2.5403	41.707
2.5329	42.4347
2.5255	42.9289
2.5181	43.5389
2.5108	44.2484
2.5035	44.9246
2.4963	45.7465
2.4891	46.6974
2.482	47.3086
2.4749	47.9804
2.4678	48.3746
2.4608	48.8754
2.4538	49.0812
2.4468	49.0534
2.4399	48.8661
2.4331	49.3829
2.4262	50.1675
2.4194	50.5074
2.4127	51.0412
2.4059	51.8148
2.3993	52.5086
2.3926	53.5016
2.386	54.1856
2.3795	54.9866
2.3729	55.5806
2.3664	56.78
2.36	57.5881
2.3535	58.3503
2.3471	58.7074
2.3408	58.8605
2.3345	58.9908
2.3282	60.1149
2.3219	61.5503
2.3157	62.2206
2.3095	63.0954
2.3034	63.752
2.2972	64.3054
2.2911	65.3494
2.2851	65.689
2.279	66.4583
2.2731	66.7447
2.2671	66.8829
2.2612	66.6833
2.2553	66.2848
2.2494	66.5666
2.2435	67.0252
2.2377	67.0162
2.232	66.5639
2.2262	64.0643
2.2205	61.2323
2.2148	64.1753
2.2091	65.3649
2.2035	66.6694
2.1979	67.8256
2.1923	68.1958
2.1868	68.3172
2.1812	68.7587
2.1758	69.4108
2.1703	69.7887
2.1649	70.1796
2.1595	70.5014
2.1541	70.5322
2.1487	70.6841
2.1434	70.8526
2.1381	70.6187
2.1328	70.9977
2.1275	70.9118
2.1223	70.7929
2.1171	71.026
2.112	71.0137
2.1068	71.3196
2.1017	71.2497
2.0966	71.0777
2.0915	71.1386
2.0865	70.8815
2.0814	70.8412
2.0764	70.9519
2.0715	70.561
2.0665	70.8755
2.0616	70.7614
2.0567	70.1392
2.0518	70.3029
2.0469	70.0051
2.0421	69.4897
2.0373	69.4083
2.0325	68.87
2.0277	68.5666
2.0229	68.5819
2.0182	67.809
2.0135	67.1593
2.0088	66.7805
2.0042	66.2463
