Name: Diopside CaMg(SiO_3)_2
Type: Mineral
Class: Silicate
Subclass: Inosilicate
Particle Size: Medium
Sample No.: IN-9B
Owner: JPL
Wavelength Range: TIR
Origin: Canada, Quebec
Description: Particle size was 45-125um.Collected by Ward's Original ASTER Spectral Library name was jpl.nicolet.mineral.silicate.inosilicate.medium.in09b.spectrum.txt
Measurement: Hemispherical reflectance
X Units: Wavelength (micrometers)
Y Units: Reflectance (percent)
wavelength	value
15.3853	1.6112
15.1161	2.4841
14.8563	2.8825
14.6052	1.9608
14.3624	2.1661
14.1276	2.6688
13.9004	3.3202
13.6803	3.838
13.4671	3.9975
13.2604	4.2826
13.06	4.3551
12.8656	4.39
12.6769	4.6577
12.4936	5.0535
12.3155	5.4515
12.1425	6.0494
11.9742	7.0711
11.8106	8.7915
11.6513	11.7013
11.4963	12.9656
11.3454	13.5329
11.1983	13.7787
11.0551	14.0242
10.9154	14.2937
10.7793	13.4994
10.6465	12.0641
10.5169	13.241
10.3904	14.7871
10.267	12.9602
10.1464	9.3532
10.0287	8.2888
9.9136	10.271
9.8012	10.5623
9.6913	9.9862
9.5838	9.944
9.4787	10.9217
9.3758	14.4082
9.2752	15.8806
9.1767	15.9086
9.0803	15.637
8.9858	15.4896
8.8934	13.9209
8.8028	10.0659
8.714	5.3576
8.627	2.8331
8.5417	2.022
8.4581	1.7143
8.3761	1.6995
8.2957	1.8183
8.2169	2.0569
8.1395	2.2795
8.0635	2.6769
7.989	2.9746
7.9158	3.6193
7.8439	4.1986
7.7734	4.6698
7.7041	5.2046
7.636	5.7125
7.5691	5.746
7.5034	6.5051
7.4388	7.3444
7.3753	7.7313
7.3129	7.7271
7.2515	7.7287
7.1912	7.8626
7.1318	8.028
7.0734	8.7945
7.016	9.3857
6.9595	9.878
6.9039	10.2876
6.8492	10.3866
6.7953	10.0603
6.7423	9.5942
6.6901	8.9544
6.6387	8.8556
6.5881	8.891
6.5382	8.3734
6.4892	8.2442
6.4408	8.2391
6.3931	9.048
6.3462	10.0703
6.2999	10.0609
6.2543	10.1787
6.2094	10.4059
6.1651	9.8818
6.1214	8.8577
6.0784	8.7192
6.0359	9.719
5.994	11.1427
5.9527	14.1284
5.912	17.552
5.8718	19.5562
5.8322	20.6379
5.7931	22.2786
5.7545	23.542
5.7165	24.3413
5.6789	25.0626
5.6418	25.3932
5.6052	24.5231
5.5691	22.8374
5.5334	23.9767
5.4982	24.3124
5.4635	23.9438
5.4291	22.165
5.3952	20.9441
5.3618	20.4225
5.3287	20.1574
5.2961	19.4714
5.2638	19.2574
5.2319	19.8461
5.2004	20.0216
5.1693	19.1044
5.1386	18.0447
5.1082	16.4153
5.0782	14.5398
5.0485	15.2816
5.0192	17.7725
4.9902	19.1475
4.9616	19.5899
4.9332	19.9604
4.9052	20.5994
4.8776	21.037
4.8502	22.3392
4.8231	23.8946
4.7963	25.7104
4.7699	26.7024
4.7437	27.2059
4.7178	29.5372
4.6922	32.1587
4.6668	33.6568
4.6418	35.1708
4.617	37.0956
4.5924	39.0414
4.5681	41.2557
4.5441	43.0564
4.5203	45.2509
4.4968	46.8693
4.4735	47.5213
4.4505	48.1454
4.4277	48.5541
4.4051	49.0792
4.3828	49.3803
4.3607	49.6675
4.3388	50.0427
4.3171	50.2153
4.2956	50.5462
4.2744	50.7218
4.2534	51.0316
4.2325	51.23
4.2119	51.5815
4.1915	51.9068
4.1712	52.0705
4.1512	52.1605
4.1313	52.2327
4.1117	52.3673
4.0922	52.2906
4.0729	52.2501
4.0538	51.9231
4.0349	50.9593
4.0161	49.6689
3.9976	47.3897
3.9792	45.9835
3.9609	46.6984
3.9428	48.6866
3.9249	49.5313
3.9072	49.9834
3.8896	50.0456
3.8722	50.127
3.8549	50.2509
3.8378	50.4554
3.8208	51.2268
3.804	51.9
3.7873	52.5363
3.7708	52.5389
3.7544	52.45
3.7382	52.4626
3.7221	52.2347
3.7061	51.99
3.6903	51.8675
3.6746	51.5599
3.659	51.362
3.6436	51.0265
3.6283	50.7519
3.6131	50.3601
3.5981	50.074
3.5832	49.5068
3.5684	49.047
3.5537	48.6394
3.5391	47.9594
3.5247	46.7717
3.5104	45.0595
3.4962	44.1116
3.4821	43.2913
3.4681	43.5293
3.4543	43.7229
3.4405	43.217
3.4269	42.6472
3.4133	42.077
3.3999	41.6247
3.3866	41.0275
3.3733	40.3879
3.3602	39.6825
3.3472	39.1736
3.3343	39.73
3.3215	39.4694
3.3088	38.927
3.2961	38.6832
3.2836	38.0823
3.2712	37.6464
3.2588	36.8643
3.2466	36.1174
3.2345	35.4731
3.2224	34.6104
3.2104	33.84
3.1985	32.957
3.1867	32.0959
3.175	31.3386
3.1634	30.7365
3.1519	29.8645
3.1404	29.1836
3.129	28.4661
3.1178	27.7175
3.1065	27.1842
3.0954	26.6301
3.0844	26.2438
3.0734	25.977
3.0625	25.5874
3.0517	25.3988
3.041	25.038
3.0303	24.7542
3.0197	24.1858
3.0092	23.806
2.9987	23.4684
2.9884	22.9716
2.9781	22.5798
2.9678	22.25
2.9577	21.9572
2.9476	21.5272
2.9376	21.4779
2.9276	21.401
2.9177	21.2608
2.9079	21.2942
2.8982	21.1715
2.8885	21.1034
2.8789	21.1242
2.8693	21.0613
2.8598	20.9147
2.8504	20.5462
2.841	20.2573
2.8317	19.8323
2.8224	19.2221
2.8133	18.6067
2.8041	18.2646
2.7951	17.6379
2.786	17.2272
2.7771	17.567
2.7682	18.1035
2.7594	17.7724
2.7506	18.7604
2.7418	16.7702
2.7332	15.1695
2.7246	19.4144
2.716	22.8901
2.7075	35.8423
2.699	39.856
2.6906	42.8815
2.6823	47.9809
2.674	51.7652
2.6657	53.4583
2.6575	53.5183
2.6494	53.6144
2.6413	53.6296
2.6332	53.9464
2.6252	53.9718
2.6173	54.1324
2.6094	54.0349
2.6015	53.8185
2.5937	54.1517
2.5859	53.6089
2.5782	53.4944
2.5706	53.3804
2.5629	53.1876
2.5554	52.9644
2.5478	53.0347
2.5403	52.5678
2.5329	52.4752
2.5255	52.4134
2.5181	52.2025
2.5108	52.1285
2.5035	52.0201
2.4963	51.8794
2.4891	51.7264
2.482	51.4834
2.4749	51.3633
2.4678	51.1838
2.4608	51.0994
2.4538	51.0877
2.4468	50.9506
2.4399	50.8454
2.4331	51.0535
2.4262	51.0093
2.4194	50.7982
2.4127	50.4111
2.4059	50.1804
2.3993	49.5437
2.3926	49.2545
2.386	49.3441
2.3795	49.6165
2.3729	49.9481
2.3664	50.2818
2.36	50.2694
2.3535	50.1002
2.3471	49.9556
2.3408	49.6226
2.3345	48.5791
2.3282	47.5889
2.3219	46.731
2.3157	46.4077
2.3095	47.1121
2.3034	48.1999
2.2972	48.5255
2.2911	49.1232
2.2851	50.2263
2.279	50.9743
2.2731	51.4071
2.2671	51.8259
2.2612	52.1076
2.2553	51.9882
2.2494	52.178
2.2435	52.2689
2.2377	52.3727
2.232	52.5385
2.2262	52.8157
2.2205	52.9913
2.2148	53.2352
2.2091	53.1653
2.2035	53.4355
2.1979	53.4499
2.1923	53.7101
2.1868	53.8818
2.1812	53.966
2.1758	54.1296
2.1703	54.2199
2.1649	54.4691
2.1595	54.4436
2.1541	54.7656
2.1487	55.0676
2.1434	54.7286
2.1381	54.9683
2.1328	54.8351
2.1275	55.2868
2.1223	55.3339
2.1171	55.3585
2.112	55.5933
2.1068	55.5019
2.1017	55.7616
2.0966	55.9975
2.0915	56.1975
2.0865	56.2033
2.0814	55.8959
2.0764	56.5797
2.0715	56.1344
2.0665	56.4868
2.0616	56.8104
2.0567	56.6834
2.0518	56.7202
2.0469	56.9185
2.0421	57.0978
2.0373	57.12
2.0325	57.0756
2.0277	57.2919
2.0229	57.249
2.0182	57.3655
2.0135	57.7024
2.0088	57.3557
2.0042	57.4787
