Name: Magnetite Fe^2+Fe_2^3+O_4
Type: Mineral
Class: Oxide
Subclass: None
Particle Size: Fine
Sample No.: O-4A
Owner: JPL
Wavelength Range: VSWIR
Origin: Canada, Ontario, Haliburton County, Wilberforce.
Description: Particle size was 0-45um.Collected by:  Ward's Original ASTER Spectral Library name was jpl.perkin.mineral.oxide.none.fine.o04a.spectrum.txt
Measurement: Hemispherical reflectance
X Units: Wavelength (micrometers)
Y Units: Reflectance (percent)
wavelength	value
2.5	6.6745
2.494	6.5862
2.488	6.6571
2.482	6.6135
2.476	6.7134
2.47	6.5507
2.464	6.4988
2.458	6.5675
2.452	6.4958
2.446	6.4707
2.44	6.5014
2.434	6.3947
2.428	6.5054
2.422	6.5468
2.416	6.4889
2.41	6.4746
2.404	6.4738
2.398	6.4308
2.392	6.4806
2.386	6.4705
2.38	6.4669
2.374	6.4487
2.368	6.4148
2.362	6.4113
2.356	6.3957
2.35	6.3923
2.344	6.3897
2.338	6.408
2.332	6.3915
2.326	6.3901
2.32	6.3936
2.314	6.3185
2.308	6.3486
2.302	6.3851
2.296	6.3932
2.29	6.3463
2.284	6.3274
2.278	6.3027
2.272	6.3105
2.266	6.2447
2.26	6.3086
2.254	6.194
2.248	6.2346
2.242	6.2388
2.236	6.1933
2.23	6.2044
2.224	6.1847
2.218	6.2273
2.212	6.3605
2.206	6.2463
2.2	6.1727
2.194	6.2087
2.188	6.2331
2.182	6.1547
2.176	6.2511
2.17	6.1692
2.164	6.3028
2.158	6.1447
2.152	6.1899
2.146	6.2451
2.14	6.1942
2.134	6.184
2.128	6.1795
2.122	6.1662
2.116	6.1196
2.11	6.0647
2.104	6.096
2.098	6.0779
2.092	6.0767
2.086	6.0625
2.08	6.0438
2.074	6.0408
2.068	6.0114
2.062	6.0422
2.056	6.0228
2.05	6.0564
2.044	6.0327
2.038	5.9949
2.032	6.0249
2.026	5.9845
2.02	5.9953
2.014	5.9329
2.008	5.9971
2.002	5.9892
1.996	5.9266
1.99	5.983
1.984	5.9218
1.978	5.8978
1.972	5.8945
1.966	5.9317
1.96	5.9483
1.954	5.8381
1.948	5.7972
1.942	5.8995
1.936	5.8391
1.93	5.8666
1.924	5.8893
1.918	5.8082
1.912	5.8344
1.906	5.7514
1.9	5.8699
1.894	5.7965
1.888	5.7965
1.882	5.8018
1.876	5.708
1.87	5.7032
1.864	5.7846
1.858	5.6792
1.852	5.7087
1.846	5.662
1.84	5.6397
1.834	5.6404
1.828	5.5976
1.822	5.6296
1.816	5.6091
1.81	5.5853
1.804	5.5295
1.798	5.5632
1.792	5.5636
1.786	5.5632
1.78	5.5407
1.774	5.5025
1.768	5.4645
1.762	5.4571
1.756	5.4574
1.75	5.4556
1.744	5.3961
1.738	5.3982
1.732	5.3878
1.726	5.356
1.72	5.3592
1.714	5.3029
1.708	5.2923
1.702	5.2919
1.696	5.2884
1.69	5.2871
1.684	5.2122
1.678	5.2414
1.672	5.2785
1.666	5.1804
1.66	5.1636
1.654	5.1792
1.648	5.1112
1.642	5.1876
1.636	5.1259
1.63	5.0799
1.624	5.0968
1.618	5.0693
1.612	5.0508
1.606	5.0663
1.6	4.9696
1.594	4.9716
1.588	5.0166
1.582	4.9602
1.576	4.9943
1.57	4.9173
1.564	4.9363
1.558	4.986
1.552	4.9404
1.546	4.834
1.54	4.8906
1.534	4.8733
1.528	4.8865
1.522	4.8209
1.516	4.8386
1.51	4.7933
1.504	4.8139
1.498	4.7962
1.492	4.7457
1.486	4.7762
1.48	4.7255
1.474	4.7929
1.468	4.7701
1.462	4.7184
1.456	4.7195
1.45	4.672
1.444	4.6616
1.438	4.6015
1.432	4.5954
1.426	4.5945
1.42	4.5936
1.414	4.553
1.408	4.572
1.402	4.6255
1.396	4.5411
1.39	4.5724
1.384	4.5379
1.378	4.5346
1.372	4.5062
1.366	4.4252
1.36	4.387
1.354	4.4519
1.348	4.4411
1.342	4.4135
1.336	4.3619
1.33	4.3608
1.324	4.4386
1.318	4.3234
1.312	4.3138
1.306	4.3291
1.3	4.2494
1.294	4.2128
1.288	4.2394
1.282	4.2429
1.276	4.1992
1.27	4.1883
1.264	4.1902
1.258	4.1257
1.252	4.1335
1.246	4.093
1.24	4.1273
1.234	4.0769
1.228	4.0476
1.222	4.0535
1.216	4.0324
1.21	4.0279
1.204	3.9705
1.198	3.995
1.192	4.0174
1.186	3.9736
1.18	3.9513
1.174	4.0038
1.168	3.9716
1.162	3.9332
1.156	3.8732
1.15	3.916
1.144	3.8946
1.138	3.8806
1.132	3.9026
1.126	3.8179
1.12	3.8846
1.114	3.8583
1.108	3.845
1.102	3.7818
1.096	3.8438
1.09	3.7737
1.084	3.8088
1.078	3.796
1.072	3.822
1.066	3.8108
1.06	3.8508
1.054	3.8415
1.048	3.884
1.042	3.798
1.036	3.9276
1.03	3.8327
1.024	3.8013
1.018	3.9074
1.012	3.8338
1.006	3.8473
1	3.856
0.994	3.8174
0.988	3.8301
0.982	3.8715
0.976	3.9335
0.97	3.8869
0.964	3.9421
0.958	3.9293
0.952	3.955
0.946	3.9663
0.94	3.9692
0.934	3.9488
0.928	3.9362
0.922	3.9436
0.916	4.0149
0.91	4.0046
0.904	3.9733
0.898	4.0521
0.892	4.091
0.886	4.0711
0.88	4.0929
0.874	4.0703
0.868	4.0909
0.862	4.1288
0.856	4.3799
0.85	4.3917
0.844	4.4051
0.838	4.4243
0.832	4.4233
0.826	4.4466
0.82	4.4625
0.814	4.4762
0.808	4.4917
0.802	4.5133
0.796	4.5192
0.79	4.5419
0.784	4.555
0.778	4.5739
0.772	4.5882
0.766	4.6032
0.76	4.6164
0.754	4.6287
0.748	4.6452
0.742	4.6512
0.736	4.6646
0.73	4.6808
0.724	4.6909
0.718	4.7064
0.712	4.7196
0.706	4.7331
0.7	4.7484
0.694	4.7594
0.688	4.7732
0.682	4.7852
0.676	4.7938
0.67	4.8112
0.664	4.8208
0.658	4.8318
0.652	4.8395
0.646	4.8479
0.64	4.8564
0.634	4.8602
0.628	4.8657
0.622	4.8716
0.616	4.8717
0.61	4.8749
0.604	4.8811
0.598	4.8848
0.592	4.8915
0.586	4.8927
0.58	4.8952
0.574	4.8963
0.568	4.8954
0.562	4.8951
0.556	4.901
0.55	4.8999
0.544	4.8966
0.538	4.8953
0.532	4.8939
0.526	4.8954
0.52	4.8976
0.514	4.9041
0.508	4.9132
0.502	4.9316
0.496	4.941
0.49	4.9685
0.484	4.9931
0.478	4.9858
0.472	4.9913
0.466	5.005
0.46	5.0218
0.454	5.0567
0.448	5.0989
0.442	5.1425
0.436	5.1755
0.43	5.2052
0.424	5.2478
0.418	5.2824
0.412	5.315
0.406	5.3568
0.4	5.4044
