Name: Aphthitalite (K,Na)_3Na(SO_4)_2
Type: Mineral
Class: Sulfate
Subclass: None
Particle Size: Medium
Sample No.: SO-9A
Owner: JPL
Wavelength Range: TIR
Origin: USA, California, San Bernadino County, Searles Lake
Description: Particle size was 45-125um.Collected by Burminco Original ASTER Spectral Library name was jpl.nicolet.mineral.sulfate.none.medium.so09a.spectrum.txt
Measurement: Hemispherical reflectance
X Units: Wavelength (micrometers)
Y Units: Reflectance (percent)
wavelength	value
15.3853	15.6249
15.1161	18.3831
14.8563	18.0719
14.6052	18.7925
14.3624	21.1777
14.1276	23.3263
13.9004	24.2323
13.6803	23.1506
13.4671	26.0416
13.2604	27.6999
13.06	26.2984
12.8656	28.306
12.6769	29.5582
12.4936	37.3662
12.3155	41.345
12.1425	39.6845
11.9742	38.2391
11.8106	36.7359
11.6513	35.6278
11.4963	32.3382
11.3454	30.3281
11.1983	31.8386
11.0551	30.2953
10.9154	27.7516
10.7793	24.9234
10.6465	22.7116
10.5169	19.7328
10.3904	16.4292
10.267	12.3093
10.1464	10.066
10.0287	9.4022
9.9136	10.7903
9.8012	10.4431
9.6913	9.7909
9.5838	9.624
9.4787	9.3145
9.3758	9.3648
9.2752	9.2787
9.1767	11.4672
9.0803	15.9749
8.9858	16.6641
8.8934	17.8692
8.8028	19.4885
8.714	21.2129
8.627	19.9981
8.5417	12.9962
8.4581	9.6295
8.3761	8.9819
8.2957	10.1426
8.2169	12.1181
8.1395	13.9885
8.0635	11.781
7.989	10.8703
7.9158	11.8557
7.8439	13.2619
7.7734	14.8506
7.7041	16.8206
7.636	19.1664
7.5691	21.7914
7.5034	24.2232
7.4388	25.7067
7.3753	27.6581
7.3129	31.0798
7.2515	32.1292
7.1912	31.7354
7.1318	30.9723
7.0734	29.6349
7.016	29.8356
6.9595	30.7531
6.9039	31.4756
6.8492	31.7974
6.7953	34.3325
6.7423	37.7504
6.6901	42.8719
6.6387	48.1852
6.5881	44.0138
6.5382	29.4017
6.4892	27.6668
6.4408	32.9144
6.3931	37.7285
6.3462	40.7238
6.2999	37.765
6.2543	34.4089
6.2094	25.2369
6.1651	30.8243
6.1214	36.2252
6.0784	39.2954
6.0359	45.3905
5.994	49.4071
5.9527	50.4877
5.912	51.5867
5.8718	51.1535
5.8322	50.438
5.7931	51.7754
5.7545	55.7915
5.7165	57.8017
5.6789	54.0166
5.6418	55.8306
5.6052	57.2936
5.5691	57.1541
5.5334	55.6271
5.4982	56.5702
5.4635	60.1087
5.4291	62.4782
5.3952	63.0619
5.3618	63.8318
5.3287	64.8307
5.2961	65.5335
5.2638	65.5534
5.2319	65.6031
5.2004	65.428
5.1693	64.5946
5.1386	63.4909
5.1082	62.2162
5.0782	56.951
5.0485	45.537
5.0192	57.2579
4.9902	57.3618
4.9616	55.6721
4.9332	51.8149
4.9052	44.8573
4.8776	34.4296
4.8502	19.3627
4.8231	12.9464
4.7963	14.5853
4.7699	19.2829
4.7437	26.7425
4.7178	27.595
4.6922	24.5704
4.6668	23.2669
4.6418	21.795
4.617	17.8741
4.5924	15.6324
4.5681	19.0204
4.5441	24.9129
4.5203	30.5543
4.4968	31.8091
4.4735	31.521
4.4505	30.963
4.4277	33.0364
4.4051	35.5192
4.3828	35.6392
4.3607	37.3797
4.3388	40.7809
4.3171	38.8719
4.2956	35.9232
4.2744	36.2035
4.2534	33.2376
4.2325	32.6306
4.2119	36.0922
4.1915	41.3746
4.1712	45.6389
4.1512	48.7258
4.1313	51.078
4.1117	53.6892
4.0922	59.0025
4.0729	61.7098
4.0538	61.7529
4.0349	63.2966
4.0161	64.1338
3.9976	64.9134
3.9792	64.8921
3.9609	65.017
3.9428	66.2252
3.9249	67.1139
3.9072	68.4493
3.8896	68.9285
3.8722	68.7278
3.8549	67.5133
3.8378	67.9363
3.8208	69.0027
3.804	69.2313
3.7873	69.5993
3.7708	69.7089
3.7544	69.73
3.7382	69.5737
3.7221	69.0464
3.7061	68.6224
3.6903	68.4289
3.6746	68.3507
3.659	68.1955
3.6436	68.0509
3.6283	67.6167
3.6131	67.238
3.5981	66.5355
3.5832	65.6471
3.5684	64.8742
3.5537	64.4525
3.5391	63.972
3.5247	63.6694
3.5104	63.2629
3.4962	62.7474
3.4821	62.2275
3.4681	61.5284
3.4543	61.1169
3.4405	60.6516
3.4269	60.2641
3.4133	59.7896
3.3999	59.6193
3.3866	59.5981
3.3733	58.8284
3.3602	58.7961
3.3472	58.7176
3.3343	58.2975
3.3215	57.9754
3.3088	57.4069
3.2961	56.6903
3.2836	55.2962
3.2712	54.29
3.2588	54.8884
3.2466	55.2202
3.2345	55.2276
3.2224	54.973
3.2104	54.3202
3.1985	53.9237
3.1867	53.1066
3.175	52.3053
3.1634	52.0942
3.1519	52.1873
3.1404	52.2517
3.129	52.0282
3.1178	51.818
3.1065	51.5627
3.0954	51.2356
3.0844	50.7331
3.0734	50.4421
3.0625	50.4434
3.0517	50.2569
3.041	50.1558
3.0303	50.1338
3.0197	49.9066
3.0092	49.5739
2.9987	49.2391
2.9884	48.909
2.9781	48.7467
2.9678	48.7355
2.9577	48.512
2.9476	48.4922
2.9376	48.4676
2.9276	48.3989
2.9177	48.1633
2.9079	48.074
2.8982	47.9996
2.8885	48.419
2.8789	48.9926
2.8693	49.4655
2.8598	50.2501
2.8504	50.8707
2.841	51.8681
2.8317	52.7404
2.8224	54.1465
2.8133	55.6656
2.8041	57.4136
2.7951	58.7072
2.786	60.7122
2.7771	62.2701
2.7682	64.4294
2.7594	66.0862
2.7506	68.4343
2.7418	71.9316
2.7332	73.8543
2.7246	77.2608
2.716	78.288
2.7075	79.9631
2.699	81.2553
2.6906	82.2294
2.6823	82.9977
2.674	83.7885
2.6657	85.6081
2.6575	84.3544
2.6494	84.4348
2.6413	84.9144
2.6332	85.2751
2.6252	85.5698
2.6173	86.6645
2.6094	86.1481
2.6015	86.1331
2.5937	87.5647
2.5859	86.3127
2.5782	86.1772
2.5706	86.3245
2.5629	86.6845
2.5554	85.9476
2.5478	86.0176
2.5403	85.7444
2.5329	86.0657
2.5255	86.1134
2.5181	86.1017
2.5108	86.2314
2.5035	86.3778
2.4963	86.4549
2.4891	86.6921
2.482	86.7525
2.4749	86.7665
2.4678	86.8676
2.4608	87.0809
2.4538	87.1796
2.4468	87.3034
2.4399	87.2098
2.4331	87.4013
2.4262	87.493
2.4194	87.4171
2.4127	87.7278
2.4059	87.807
2.3993	87.7466
2.3926	87.9611
2.386	88.0696
2.3795	88.3097
2.3729	88.3433
2.3664	88.438
2.36	88.4968
2.3535	88.841
2.3471	88.8457
2.3408	88.8357
2.3345	88.9804
2.3282	89.0371
2.3219	89.0409
2.3157	89.1613
2.3095	89.0032
2.3034	89.0684
2.2972	89.2185
2.2911	89.3652
2.2851	89.4941
2.279	89.3962
2.2731	89.4515
2.2671	89.6515
2.2612	89.6398
2.2553	89.6772
2.2494	89.7262
2.2435	89.6911
2.2377	89.7702
2.232	89.7078
2.2262	89.597
2.2205	89.7299
2.2148	89.7832
2.2091	89.7497
2.2035	89.8489
2.1979	89.8532
2.1923	89.6366
2.1868	89.8409
2.1812	89.8575
2.1758	89.6884
2.1703	89.9151
2.1649	89.7822
2.1595	89.7024
2.1541	89.6581
2.1487	89.6616
2.1434	89.6345
2.1381	89.7289
2.1328	89.8226
2.1275	89.7191
2.1223	89.5784
2.1171	89.706
2.112	89.568
2.1068	89.8688
2.1017	89.5492
2.0966	89.3889
2.0915	89.2474
2.0865	89.4964
2.0814	89.2985
2.0764	89.4957
2.0715	89.1234
2.0665	89.4415
2.0616	89.2427
2.0567	89.1167
2.0518	89.0346
2.0469	88.9102
2.0421	89.1183
2.0373	88.8652
2.0325	88.8609
2.0277	89.137
2.0229	88.9316
2.0182	89.2138
2.0135	89.3871
2.0088	89.1659
2.0042	89.3255
