Name: Acmite NaFe+3Si2O6
Type: Mineral
Class: Silicate
Subclass: Inosilicate
Particle Size: Solid
Sample No.: acmite_2
Owner: JHU
Wavelength Range: TIR
Origin: Sample from Kangerdluarssuk, near Narssaq, Greenland viathe Smithsonian (sample no. NMNH 133746).
Description: The sample consisted of large (up to 2 cm long and almost as wide), very dark green prismatic crystals of acmite intergrown with albite.  The material was crushed and hand-picked for single crystal measurements and grinding.  The concentrate appeared pure under microscopic examination.  (Pyroxene Group - single chain) Original ASTER Spectral Library name was jhu.nicolet.mineral.silicate.inosilicate.solid.acmite2.spectrum.txt
Measurement: Bidirectional reflectance
X Units: Wavelength (micrometers)
Y Units: Reflectance (percent)
wavelength	value
25.0442	16.6337
24.3388	14.6963
23.6719	15.2124
23.0407	17.2197
22.4422	19.8713
21.8741	21.7329
21.334	23.1396
20.8199	23.506
20.33	24.1071
19.8627	25.851
19.4163	23.9868
18.9896	21.4272
18.5812	20.2543
18.19	20.6069
17.815	22.2553
17.4551	22.2006
17.1094	16.0415
16.7772	7.645
16.4576	3.9668
16.15	4.9751
15.8537	6.0996
15.568	7.4592
15.2925	7.217
15.0265	6.7624
14.7697	7.1992
14.5214	7.5381
14.2814	7.8083
14.0492	8.0967
13.8244	8.322
13.6067	8.5532
13.3957	8.7334
13.1912	8.9619
12.9929	9.2678
12.8004	9.6032
12.6135	9.9531
12.432	10.3225
12.2557	10.7715
12.0843	11.2942
11.9176	11.955
11.7555	12.7683
11.5977	13.0656
11.444	13.4428
11.2944	14.1047
11.1487	14.7509
11.0067	15.6716
10.8682	16.9777
10.7332	18.9545
10.6015	21.2514
10.473	22.0078
10.3476	22.9789
10.2251	22.4428
10.1056	22.2614
9.9887	23.0463
9.8746	23.9716
9.763	25.4426
9.6539	27.7302
9.5472	30.5431
9.4429	31.7831
9.3408	29.9294
9.2409	26.8613
9.1431	23.2758
9.0474	19.3818
8.9536	16.2395
8.8618	15.08
8.7718	16.0075
8.6837	15.0935
8.5973	10.1611
8.5126	6.9319
8.4295	4.0557
8.3481	2.4463
8.2682	2.3945
8.1898	2.7519
8.1129	3.0601
8.0374	3.3362
7.9634	3.563
7.8906	3.7873
7.8192	3.9814
7.7491	4.1511
7.6802	4.3103
7.6126	4.4387
7.5461	4.5574
7.4807	4.6467
7.4165	4.7363
7.3534	4.8203
7.2914	4.904
7.2303	4.9897
7.1703	5.0559
7.1113	5.1372
7.0533	5.1958
6.9962	5.2536
6.94	5.3074
6.8847	5.3511
6.8302	5.4026
6.7767	5.4534
6.7239	5.4773
6.672	5.5105
6.6209	5.5434
6.5705	5.5862
6.5209	5.6052
6.4721	5.6267
6.424	5.6504
6.3766	5.6631
6.3299	5.6943
6.2838	5.7336
6.2385	5.7615
6.1937	5.7715
6.1496	5.8176
6.1062	5.8552
6.0633	5.8835
6.0211	5.8899
5.9794	5.8811
5.9383	5.8711
5.8978	5.866
5.8578	5.842
5.8184	5.8196
5.7794	5.832
5.741	5.8794
5.7031	5.8948
5.6657	5.8926
5.6288	5.8818
5.5924	5.9228
5.5564	5.9839
5.5209	6.0578
5.4859	6.1045
5.4513	6.1184
5.4171	6.125
5.3833	6.1199
5.35	6.1272
5.3171	6.1225
5.2846	6.1264
5.2524	6.1255
5.2207	6.1264
5.1893	6.1406
5.1584	6.1755
5.1277	6.2048
5.0975	6.241
5.0676	6.281
5.038	6.3183
5.0088	6.3396
4.98	6.3745
4.9514	6.3972
4.9232	6.4143
4.8953	6.4341
4.8678	6.4712
4.8405	6.5032
4.8135	6.5244
4.7868	6.5618
4.7605	6.6001
4.7344	6.6433
4.7086	6.6999
4.6831	6.789
4.6578	6.9001
4.6328	7.0254
4.6081	7.1621
4.5837	7.2773
4.5595	7.374
4.5356	7.4768
4.5119	7.5437
4.4884	7.5908
4.4652	7.6338
4.4423	7.6548
4.4196	7.6846
4.3971	7.7212
4.3748	7.74
4.3528	7.7612
4.331	7.7627
4.3094	7.7815
4.288	7.7895
4.2668	7.8181
4.2458	7.8332
4.2251	7.8513
4.2045	7.8486
4.1841	7.8738
4.164	7.9018
4.144	7.9057
4.1242	7.9211
4.1046	7.9419
4.0852	7.978
4.066	8.0149
4.047	8.0298
4.0281	8.0512
4.0094	8.0791
3.9909	8.0888
3.9725	8.1047
3.9544	8.125
3.9363	8.1374
3.9185	8.1516
3.9008	8.1611
3.8833	8.1609
3.8659	8.166
3.8487	8.1694
3.8316	8.1677
3.8147	8.1821
3.7979	8.177
3.7813	8.1838
3.7648	8.1994
3.7485	8.1924
3.7323	8.2048
3.7162	8.2068
3.7003	8.2168
3.6845	8.1977
3.6689	8.1938
3.6534	8.1972
3.638	8.198
3.6227	8.1836
3.6076	8.1941
3.5926	8.1828
3.5777	8.1743
3.563	8.1567
3.5484	8.1516
3.5338	8.1267
3.5195	8.0928
3.5052	8.0344
3.491	8.0649
3.477	8.0512
3.463	8.0405
3.4492	8.0071
3.4355	7.9638
3.4219	7.9214
3.4084	7.9121
3.395	7.9341
3.3817	7.9079
3.3685	7.9175
3.3554	7.9106
3.3425	7.8921
3.3296	7.8672
3.3168	7.8305
3.3041	7.8012
3.2915	7.7783
3.279	7.7265
3.2666	7.6914
3.2543	7.6523
3.2421	7.6047
3.23	7.562
3.218	7.539
3.206	7.4778
3.1942	7.4385
3.1824	7.3948
3.1707	7.3437
3.1591	7.3042
3.1476	7.2502
3.1362	7.188
3.1249	7.1582
3.1136	7.1108
3.1024	7.0762
3.0913	7.0405
3.0803	7.0093
3.0694	6.9824
3.0585	6.9433
3.0477	6.9136
3.037	6.8813
3.0264	6.8501
3.0158	6.8215
3.0053	6.7868
2.9949	6.7409
2.9845	6.729
2.9743	6.6958
2.9641	6.6723
2.9539	6.6482
2.9439	6.6289
2.9339	6.5947
2.9239	6.5913
2.9141	6.5818
2.9043	6.5779
2.8946	6.5693
2.8849	6.5771
2.8753	6.5547
2.8658	6.5722
2.8563	6.5815
2.8469	6.5766
2.8375	6.5784
2.8282	6.5708
2.819	6.5779
2.8098	6.6172
2.8007	6.6223
2.7917	6.6255
2.7827	6.6704
2.7738	6.7021
2.7649	6.7085
2.7561	6.7524
2.7473	6.8042
2.7386	6.8452
2.7299	6.8598
2.7213	6.8662
2.7128	6.9087
2.7043	6.9829
2.6959	6.9922
2.6875	7.0005
2.6791	6.9868
2.6709	6.9746
2.6626	6.9399
2.6545	6.9111
2.6463	6.8989
2.6382	6.8852
2.6302	6.8674
2.6222	6.8118
2.6143	6.792
2.6064	6.769
2.5986	6.7392
2.5908	6.7363
2.583	6.7012
2.5753	6.6682
2.5677	6.6709
2.5601	6.6186
2.5525	6.602
2.545	6.5625
2.5375	6.539
2.5301	6.5022
2.5227	6.4988
2.5154	6.4585
2.5081	6.468
2.5008	6.4272
2.4936	6.4009
2.4864	6.3896
2.4793	6.3684
2.4722	6.3384
2.4651	6.2905
2.4581	6.2744
2.4511	6.2649
2.4442	6.2275
2.4373	6.2358
2.4305	6.1987
2.4236	6.1926
2.4169	6.178
2.4101	6.1582
2.4034	6.1379
2.3967	6.1125
2.3901	6.0869
2.3835	6.0713
2.377	6.0625
2.3704	6.0527
2.364	6.0356
2.3575	6.0237
2.3511	6.0129
2.3447	5.9758
2.3384	5.957
2.3321	5.9397
2.3258	5.9504
2.3195	5.9123
2.3133	5.9172
2.3071	5.9233
2.301	5.8996
2.2949	5.8926
2.2888	5.9111
2.2828	5.8713
2.2767	5.8801
2.2708	5.8437
2.2648	5.8056
2.2589	5.8557
2.253	5.81
2.2471	5.7876
2.2413	5.7905
2.2355	5.792
2.2297	5.7807
2.224	5.8013
2.2183	5.7446
2.2126	5.7344
2.207	5.7524
2.2013	5.77
2.1957	5.7314
2.1902	5.7212
2.1846	5.7324
2.1791	5.7129
2.1736	5.7402
2.1682	5.7099
2.1628	5.7212
2.1574	5.7388
2.152	5.7197
2.1466	5.6919
2.1413	5.6997
2.136	5.7334
2.1308	5.6621
2.1255	5.6567
2.1203	5.6728
2.1151	5.6631
2.11	5.7056
2.1048	5.6704
2.0997	5.6313
2.0946	5.6704
2.0895	5.6601
2.0845	5.6445
2.0795	5.664
