Name: Hemimorphite Zn_4Si_2O_7(OH)_2.H_2O
Type: Mineral
Class: Silicate
Subclass: Sorosilicate
Particle Size: Fine
Sample No.: SS-2A
Owner: JPL
Wavelength Range: VSWIR
Origin: Mexico, Durango, Ojuela Mine.
Description: Particle size was <45umCollected by:  Burminco Original ASTER Spectral Library name was jpl.perkin.mineral.silicate.sorosilicate.fine.ss02a.spectrum.txt
Measurement: Hemispherical reflectance
X Units: Wavelength (micrometers)
Y Units: Reflectance (percent)
wavelength	value
2.5	48.7796
2.494	49.5531
2.488	50.3431
2.482	51.2204
2.476	51.9758
2.47	52.7968
2.464	53.4021
2.458	54.0641
2.452	54.558
2.446	55.0862
2.44	55.5672
2.434	55.9814
2.428	56.4846
2.422	57.0035
2.416	57.4978
2.41	58.1108
2.404	58.7719
2.398	59.2371
2.392	59.9285
2.386	60.5126
2.38	61.2784
2.374	62.12
2.368	63.1754
2.362	64.3544
2.356	65.6455
2.35	66.9868
2.344	68.3373
2.338	69.4571
2.332	70.3426
2.326	71.168
2.32	71.7835
2.314	72.334
2.308	72.745
2.302	73.1003
2.296	73.3581
2.29	73.5179
2.284	73.6777
2.278	73.6729
2.272	73.7339
2.266	73.6085
2.26	73.5357
2.254	73.2728
2.248	73.0815
2.242	72.8031
2.236	72.517
2.23	72.2639
2.224	72.0456
2.218	72.1047
2.212	72.3544
2.206	72.6595
2.2	73.2299
2.194	73.7689
2.188	74.4171
2.182	75.023
2.176	75.7945
2.17	76.4428
2.164	77.1162
2.158	77.7464
2.152	78.2727
2.146	78.7443
2.14	79.0816
2.134	79.3875
2.128	79.632
2.122	79.7466
2.116	79.7375
2.11	79.6885
2.104	79.5557
2.098	79.5441
2.092	79.5993
2.086	79.6718
2.08	79.7823
2.074	79.7343
2.068	79.6824
2.062	79.6841
2.056	79.5199
2.05	79.3396
2.044	79.0952
2.038	78.8007
2.032	78.4083
2.026	77.7485
2.02	77.1888
2.014	76.4801
2.008	75.587
2.002	74.6038
1.996	73.3909
1.99	71.9683
1.984	70.6488
1.978	69.5125
1.972	68.784
1.966	68.4636
1.96	68.2596
1.954	67.9325
1.948	67.1377
1.942	65.7081
1.936	63.0934
1.93	59.5591
1.924	55.4941
1.918	52.6598
1.912	52.9225
1.906	56.4366
1.9	61.9164
1.894	66.8311
1.888	70.7097
1.882	73.7557
1.876	75.788
1.87	77.5504
1.864	78.564
1.858	79.0951
1.852	79.2616
1.846	79.3059
1.84	79.3756
1.834	79.4983
1.828	79.8209
1.822	80.0601
1.816	80.5179
1.81	81.1206
1.804	81.7256
1.798	82.4506
1.792	83.0845
1.786	83.8498
1.78	84.6986
1.774	85.4729
1.768	86.2712
1.762	86.9239
1.756	87.5502
1.75	88.1025
1.744	88.5373
1.738	88.9497
1.732	89.2702
1.726	89.6653
1.72	89.8774
1.714	90.0519
1.708	90.1962
1.702	90.3079
1.696	90.4036
1.69	90.5169
1.684	90.5397
1.678	90.5363
1.672	90.5167
1.666	90.5097
1.66	90.5551
1.654	90.4585
1.648	90.4087
1.642	90.3032
1.636	90.3207
1.63	90.185
1.624	90.1502
1.618	89.9715
1.612	89.9572
1.606	89.7781
1.6	89.6201
1.594	89.5228
1.588	89.3465
1.582	89.1312
1.576	88.8542
1.57	88.7242
1.564	88.4555
1.558	88.2722
1.552	87.9972
1.546	87.632
1.54	87.2489
1.534	86.8625
1.528	86.4313
1.522	85.9744
1.516	85.483
1.51	84.8598
1.504	84.2481
1.498	83.4389
1.492	82.492
1.486	81.483
1.48	80.1092
1.474	78.6321
1.468	77.7459
1.462	77.5564
1.456	76.9393
1.45	75.7648
1.444	73.9958
1.438	71.7753
1.432	69.4182
1.426	67.704
1.42	67.399
1.414	69.053
1.408	71.9693
1.402	75.248
1.396	78.5791
1.39	81.3355
1.384	83.4831
1.378	84.9997
1.372	85.9742
1.366	86.7177
1.36	87.5487
1.354	88.1302
1.348	88.589
1.342	89.2173
1.336	89.6672
1.33	90.1329
1.324	90.5385
1.318	90.8457
1.312	91.0524
1.306	91.316
1.3	91.4816
1.294	91.5749
1.288	91.7599
1.282	91.6937
1.276	91.7056
1.27	91.8781
1.264	91.9096
1.258	91.9574
1.252	92.015
1.246	92.0405
1.24	91.9917
1.234	92.0193
1.228	91.9253
1.222	91.8937
1.216	91.8471
1.21	91.8197
1.204	91.683
1.198	91.495
1.192	91.4513
1.186	91.4631
1.18	91.2946
1.174	90.9296
1.168	90.3796
1.162	90.1376
1.156	90.6363
1.15	91.2199
1.144	91.9531
1.138	92.3449
1.132	92.6339
1.126	92.7295
1.12	92.8573
1.114	92.9546
1.108	93.056
1.102	93.0598
1.096	93.2275
1.09	93.1935
1.084	93.1919
1.078	93.1727
1.072	93.1337
1.066	93.1522
1.06	93.2352
1.054	93.129
1.048	93.1084
1.042	93.1853
1.036	93.0536
1.03	93.0231
1.024	93.0105
1.018	92.8499
1.012	92.6493
1.006	92.5763
1	92.3463
0.994	92.0504
0.988	91.7081
0.982	91.4582
0.976	91.2738
0.97	91.2558
0.964	91.6572
0.958	92.0723
0.952	92.3063
0.946	92.5675
0.94	92.7088
0.934	92.8657
0.928	93.0389
0.922	93.0718
0.916	93.044
0.91	93.0553
0.904	93.0487
0.898	93.0972
0.892	93.0955
0.886	93.0965
0.88	93.1309
0.874	93.067
0.868	93.203
0.862	93.0763
0.856	93.2387
0.85	93.1669
0.844	93.2696
0.838	93.2427
0.832	93.3067
0.826	93.3102
0.82	93.3102
0.814	93.3633
0.808	93.3814
0.802	93.2997
0.796	93.2701
0.79	93.2504
0.784	93.3128
0.778	93.1893
0.772	93.1715
0.766	93.1601
0.76	93.0827
0.754	93.0819
0.748	93.0626
0.742	93.0268
0.736	93.0549
0.73	93.0673
0.724	93.0289
0.718	93.0041
0.712	92.9755
0.706	92.9545
0.7	92.9013
0.694	92.9279
0.688	92.8583
0.682	92.8523
0.676	92.7842
0.67	92.7523
0.664	92.702
0.658	92.6691
0.652	92.6312
0.646	92.5355
0.64	92.503
0.634	92.4428
0.628	92.3779
0.622	92.2976
0.616	92.2166
0.61	92.1425
0.604	92.0403
0.598	91.973
0.592	91.8686
0.586	91.6898
0.58	91.498
0.574	91.2558
0.568	91.001
0.562	90.7452
0.556	90.4909
0.55	90.2556
0.544	90.0186
0.538	89.8505
0.532	89.6464
0.526	89.4605
0.52	89.2589
0.514	89.1058
0.508	88.9452
0.502	88.7464
0.496	88.5948
0.49	88.4086
0.484	88.2241
0.478	88.0421
0.472	87.8424
0.466	87.64
0.46	87.3896
0.454	87.1421
0.448	86.8131
0.442	86.431
0.436	86.0442
0.43	85.6468
0.424	85.3247
0.418	85.1375
0.412	85.0261
0.406	84.9015
0.4	84.7921
