Name: Epidote Ca_2(Al,Fe^3+)_3O.SiO_4.Si_2O_7.OH
Type: Mineral
Class: Silicate
Subclass: Sorosilicate
Particle Size: Medium
Sample No.: SS-1A
Owner: JPL
Wavelength Range: TIR
Origin: Mexico, Baja California Norte, Valle De La Trinidad
Description: Particle size was 45-125um.Collected by Burminco Original ASTER Spectral Library name was jpl.nicolet.mineral.silicate.sorosilicate.medium.ss01a.spectrum.txt
Measurement: Hemispherical reflectance
X Units: Wavelength (micrometers)
Y Units: Reflectance (percent)
wavelength	value
15.3853	13.6836
15.1161	12.6989
14.8563	8.0134
14.6052	6.6668
14.3624	5.8353
14.1276	3.436
13.9004	2.858
13.6803	2.14
13.4671	2.683
13.2604	3.366
13.06	3.8645
12.8656	4.6248
12.6769	4.8678
12.4936	5.6266
12.3155	6.3003
12.1425	7.2721
11.9742	8.6655
11.8106	8.4771
11.6513	10.4242
11.4963	10.6426
11.3454	16.5909
11.1983	17.3186
11.0551	14.0056
10.9154	11.3432
10.7793	10.3323
10.6465	16.2302
10.5169	24.6466
10.3904	27.678
10.267	23.9183
10.1464	19.3941
10.0287	13.5027
9.9136	3.3901
9.8012	2.3
9.6913	5.8841
9.5838	10.4827
9.4787	12.4199
9.3758	11.587
9.2752	9.3704
9.1767	9.3972
9.0803	8.9312
8.9858	9.5699
8.8934	8.2919
8.8028	6.2705
8.714	3.7564
8.627	1.2113
8.5417	0.7463
8.4581	0.9344
8.3761	1.0588
8.2957	1.361
8.2169	1.5382
8.1395	1.9024
8.0635	2.1499
7.989	2.4463
7.9158	2.9124
7.8439	3.2844
7.7734	3.6445
7.7041	4.3315
7.636	5.2521
7.5691	5.7811
7.5034	6.4212
7.4388	7.1398
7.3753	7.6095
7.3129	8.0124
7.2515	8.5946
7.1912	8.9901
7.1318	9.1806
7.0734	9.6086
7.016	10.3715
6.9595	11.1695
6.9039	11.2746
6.8492	11.6382
6.7953	11.9877
6.7423	11.8674
6.6901	12.166
6.6387	13.0767
6.5881	12.4357
6.5382	12.5212
6.4892	13.6607
6.4408	13.4905
6.3931	14.279
6.3462	14.9769
6.2999	14.3666
6.2543	14.1412
6.2094	14.3053
6.1651	14.1227
6.1214	13.3946
6.0784	12.5822
6.0359	11.2756
5.994	10.0052
5.9527	8.3835
5.912	8.0107
5.8718	8.5848
5.8322	8.8842
5.7931	8.7099
5.7545	8.6877
5.7165	8.7026
5.6789	8.573
5.6418	9.0258
5.6052	9.1584
5.5691	10.0546
5.5334	11.5473
5.4982	12.9961
5.4635	14.3696
5.4291	15.0735
5.3952	15.4376
5.3618	15.5003
5.3287	15.2975
5.2961	15.2123
5.2638	14.6932
5.2319	14.0601
5.2004	13.9838
5.1693	15.2034
5.1386	16.6727
5.1082	16.8272
5.0782	16.5751
5.0485	16.2899
5.0192	16.0916
4.9902	14.9675
4.9616	12.941
4.9332	12.6175
4.9052	12.9986
4.8776	13.1923
4.8502	15.2346
4.8231	16.4621
4.7963	17.685
4.7699	20.3834
4.7437	23.5957
4.7178	25.4245
4.6922	25.6935
4.6668	26.5664
4.6418	26.5735
4.617	26.0145
4.5924	26.9718
4.5681	30.1022
4.5441	33.4806
4.5203	36.479
4.4968	39.1285
4.4735	41.6685
4.4505	43.5336
4.4277	44.8469
4.4051	45.7016
4.3828	46.5665
4.3607	47.367
4.3388	47.9291
4.3171	48.2188
4.2956	48.7263
4.2744	49.081
4.2534	49.1869
4.2325	49.6893
4.2119	49.8057
4.1915	50.2717
4.1712	50.8165
4.1512	50.9645
4.1313	51.0978
4.1117	51.2643
4.0922	51.167
4.0729	51.0698
4.0538	50.8549
4.0349	50.2604
4.0161	49.3385
3.9976	47.9112
3.9792	48.5152
3.9609	49.5553
3.9428	50.2437
3.9249	50.7083
3.9072	51.1786
3.8896	51.4744
3.8722	51.5685
3.8549	51.4546
3.8378	51.5188
3.8208	51.608
3.804	51.6087
3.7873	51.5527
3.7708	51.3336
3.7544	50.9921
3.7382	50.366
3.7221	49.9862
3.7061	49.5166
3.6903	49.3014
3.6746	49.4103
3.659	49.5772
3.6436	49.6055
3.6283	49.3605
3.6131	49.1249
3.5981	48.6957
3.5832	48.3232
3.5684	47.9374
3.5537	47.5289
3.5391	46.8861
3.5247	46.0098
3.5104	44.8476
3.4962	43.6964
3.4821	42.7887
3.4681	41.9877
3.4543	40.9405
3.4405	39.7972
3.4269	39.0182
3.4133	38.5764
3.3999	38.7309
3.3866	38.7052
3.3733	37.8967
3.3602	36.9215
3.3472	36.0864
3.3343	35.0254
3.3215	34.1185
3.3088	32.9457
3.2961	31.2658
3.2836	29.0845
3.2712	27.6078
3.2588	26.9498
3.2466	26.0361
3.2345	25.3257
3.2224	23.9237
3.2104	22.5119
3.1985	20.5669
3.1867	19.2506
3.175	18.2331
3.1634	17.2701
3.1519	16.6491
3.1404	15.5439
3.129	14.2883
3.1178	12.7526
3.1065	11.6751
3.0954	11.096
3.0844	10.3598
3.0734	9.8978
3.0625	9.7567
3.0517	9.4424
3.041	9.455
3.0303	9.4835
3.0197	9.0097
3.0092	8.663
2.9987	8.2141
2.9884	7.9342
2.9781	7.6274
2.9678	7.2063
2.9577	6.5024
2.9476	6.5699
2.9376	6.9519
2.9276	7.4417
2.9177	8.1209
2.9079	8.4383
2.8982	8.5126
2.8885	8.8078
2.8789	9.0102
2.8693	9.7879
2.8598	10.6946
2.8504	12.0337
2.841	13.7403
2.8317	15.601
2.8224	17.771
2.8133	19.9503
2.8041	21.2139
2.7951	22.5807
2.786	24.093
2.7771	26.0986
2.7682	29.2533
2.7594	30.9229
2.7506	33.58
2.7418	36.261
2.7332	37.0183
2.7246	39.8519
2.716	41.3879
2.7075	43.9521
2.699	45.8455
2.6906	47.6888
2.6823	49.4579
2.674	51.3377
2.6657	55.3999
2.6575	53.683
2.6494	54.4534
2.6413	54.9899
2.6332	55.6197
2.6252	55.8781
2.6173	57.2354
2.6094	56.9549
2.6015	57.3506
2.5937	59.9479
2.5859	58.3946
2.5782	58.0532
2.5706	58.2469
2.5629	58.8323
2.5554	57.481
2.5478	57.8535
2.5403	57.6461
2.5329	57.9814
2.5255	58.0165
2.5181	58.1193
2.5108	58.6433
2.5035	59.3442
2.4963	59.8998
2.4891	60.5474
2.482	60.9941
2.4749	61.3569
2.4678	61.793
2.4608	62.2526
2.4538	62.2827
2.4468	62.7622
2.4399	62.8838
2.4331	63.1752
2.4262	62.995
2.4194	62.884
2.4127	62.4473
2.4059	61.6415
2.3993	61.038
2.3926	59.9337
2.386	58.4271
2.3795	56.1903
2.3729	53.0095
2.3664	47.8185
2.36	40.71
2.3535	33.5565
2.3471	29.0098
2.3408	27.0662
2.3345	27.6117
2.3282	30.0991
2.3219	33.8206
2.3157	37.4108
2.3095	41.7021
2.3034	45.2961
2.2972	48.1915
2.2911	50.2477
2.2851	52.4776
2.279	53.6941
2.2731	53.969
2.2671	53.1447
2.2612	50.8564
2.2553	48.8827
2.2494	50.5212
2.2435	53.9797
2.2377	58.0952
2.232	60.7248
2.2262	62.3639
2.2205	63.2401
2.2148	64.0755
2.2091	64.4989
2.2035	64.6116
2.1979	65.2046
2.1923	65.4259
2.1868	65.3689
2.1812	65.6851
2.1758	65.8803
2.1703	65.9416
2.1649	66.0255
2.1595	66.2521
2.1541	66.1618
2.1487	66.3987
2.1434	66.3648
2.1381	66.4883
2.1328	66.5071
2.1275	66.2603
2.1223	66.6018
2.1171	66.5087
2.112	66.2933
2.1068	66.6512
2.1017	66.3739
2.0966	66.6902
2.0915	66.533
2.0865	66.443
2.0814	66.3304
2.0764	66.4976
2.0715	66.4099
2.0665	66.4675
2.0616	66.4032
2.0567	66.2307
2.0518	66.0249
2.0469	66.2874
2.0421	66.2423
2.0373	66.1592
2.0325	65.9114
2.0277	65.7698
2.0229	65.827
2.0182	65.8703
2.0135	65.7323
2.0088	65.7928
2.0042	65.7062
