Name: Magnesite MgCO_3
Type: Mineral
Class: Carbonate
Subclass: None
Particle Size: Coarse
Sample No.: C-6A
Owner: JPL
Wavelength Range: VSWIR
Origin: USA, California, Riverside County.
Description: Particle size was 125-500um.Collected by:  Ward's Original ASTER Spectral Library name was jpl.perkin.mineral.carbonate.none.coarse.c06a.spectrum.txt
Measurement: Hemispherical reflectance
X Units: Wavelength (micrometers)
Y Units: Reflectance (percent)
wavelength	value
2.5	34.9091
2.494	34.9897
2.488	35.339
2.482	36.0715
2.476	36.5198
2.47	37.1492
2.464	37.891
2.458	38.3225
2.452	39.1189
2.446	40.1175
2.44	41.0732
2.434	42.1429
2.428	43.4434
2.422	44.6633
2.416	45.9021
2.41	46.8946
2.404	47.7869
2.398	48.6392
2.392	49.4049
2.386	50.2042
2.38	51.2868
2.374	52.3515
2.368	53.3582
2.362	54.2928
2.356	55.0898
2.35	55.7816
2.344	56.0977
2.338	55.8984
2.332	55.0547
2.326	53.7184
2.32	52.1372
2.314	50.7467
2.308	50.0492
2.302	50.1161
2.296	50.5921
2.29	51.1285
2.284	51.8682
2.278	52.6665
2.272	53.426
2.266	53.9733
2.26	54.6595
2.254	55.5037
2.248	56.4384
2.242	57.5646
2.236	58.8761
2.23	59.9648
2.224	60.7799
2.218	61.6596
2.212	62.3472
2.206	62.868
2.2	63.2271
2.194	63.4582
2.188	63.5479
2.182	63.6829
2.176	63.6658
2.17	63.6667
2.164	63.5856
2.158	63.3236
2.152	63.0099
2.146	62.4969
2.14	61.8854
2.134	61.4269
2.128	60.8298
2.122	60.3792
2.116	59.9299
2.11	59.4014
2.104	58.9478
2.098	58.4875
2.092	58.1863
2.086	57.9239
2.08	57.6684
2.074	57.4545
2.068	57.2128
2.062	57.0178
2.056	56.9624
2.05	56.8263
2.044	56.6998
2.038	56.6112
2.032	56.5588
2.026	56.4143
2.02	56.3177
2.014	56.3169
2.008	56.2935
2.002	56.2265
1.996	56.209
1.99	56.2745
1.984	56.152
1.978	56.2899
1.972	56.4753
1.966	56.7503
1.96	57.0865
1.954	57.288
1.948	57.5841
1.942	57.8077
1.936	57.8226
1.93	57.6337
1.924	57.3031
1.918	57.2088
1.912	57.5168
1.906	58.7178
1.9	61.3861
1.894	64.6577
1.888	67.6114
1.882	70.0165
1.876	71.7488
1.87	73.223
1.864	73.8564
1.858	73.9978
1.852	74.1182
1.846	74.3672
1.84	74.7085
1.834	74.966
1.828	75.2265
1.822	75.4042
1.816	75.5475
1.81	75.7812
1.804	75.9046
1.798	76.0906
1.792	76.1491
1.786	76.239
1.78	76.3039
1.774	76.4125
1.768	76.4748
1.762	76.5864
1.756	76.6666
1.75	76.8131
1.744	76.7244
1.738	76.7987
1.732	76.7705
1.726	76.8519
1.72	76.9114
1.714	76.9181
1.708	76.9998
1.702	77.0953
1.696	77.1865
1.69	77.1729
1.684	77.2141
1.678	77.3074
1.672	77.3654
1.666	77.4643
1.66	77.5331
1.654	77.4564
1.648	77.568
1.642	77.4948
1.636	77.5151
1.63	77.5022
1.624	77.5095
1.618	77.5846
1.612	77.5855
1.606	77.6555
1.6	77.7078
1.594	77.6413
1.588	77.5188
1.582	77.6038
1.576	77.4806
1.57	77.4094
1.564	77.3185
1.558	77.2089
1.552	77.0812
1.546	76.9587
1.54	76.9708
1.534	77.0341
1.528	77.0262
1.522	77.1578
1.516	77.1856
1.51	77.2681
1.504	77.4505
1.498	77.6191
1.492	77.7909
1.486	77.8825
1.48	77.9631
1.474	77.9639
1.468	78.0574
1.462	78.2499
1.456	78.4807
1.45	78.6518
1.444	78.5879
1.438	78.5607
1.432	78.6648
1.426	78.8766
1.42	79.2539
1.414	79.7238
1.408	80.6007
1.402	82.0698
1.396	83.0362
1.39	81.2791
1.384	83.8716
1.378	86.5204
1.372	87.2216
1.366	87.702
1.36	87.7819
1.354	88.0675
1.348	88.2238
1.342	88.5089
1.336	88.6604
1.33	88.9022
1.324	89.0236
1.318	89.2106
1.312	89.3622
1.306	89.4429
1.3	89.4958
1.294	89.5284
1.288	89.7126
1.282	89.6284
1.276	89.6216
1.27	89.7006
1.264	89.6682
1.258	89.766
1.252	89.7763
1.246	89.784
1.24	89.8251
1.234	89.8478
1.228	89.8622
1.222	89.9134
1.216	90.017
1.21	90.0093
1.204	90.0385
1.198	90.0765
1.192	90.1943
1.186	90.2652
1.18	90.3248
1.174	90.3899
1.168	90.4609
1.162	90.5085
1.156	90.5642
1.15	90.6758
1.144	90.9761
1.138	91.2073
1.132	91.3619
1.126	91.4109
1.12	91.4701
1.114	91.5533
1.108	91.6372
1.102	91.6945
1.096	91.7463
1.09	91.782
1.084	91.9659
1.078	91.9157
1.072	92.019
1.066	91.9875
1.06	92.0206
1.054	92.0729
1.048	92.1605
1.042	92.19
1.036	92.2493
1.03	92.279
1.024	92.2522
1.018	92.2857
1.012	92.3625
1.006	92.3985
1	92.3403
0.994	92.44
0.988	92.3842
0.982	92.3775
0.976	92.5142
0.97	92.4801
0.964	92.6005
0.958	92.6554
0.952	92.7154
0.946	92.6855
0.94	92.9425
0.934	93.0215
0.928	93.0202
0.922	93.1543
0.916	93.1334
0.91	93.1382
0.904	93.1649
0.898	93.1431
0.892	93.0828
0.886	93.0256
0.88	93.0798
0.874	93.0582
0.868	93.0324
0.862	92.9495
0.856	92.909
0.85	92.8554
0.844	92.6215
0.838	92.5888
0.832	92.5772
0.826	92.498
0.82	92.3249
0.814	92.2342
0.808	92.2015
0.802	92.1062
0.796	91.8642
0.79	91.6569
0.784	91.5489
0.778	91.3615
0.772	91.278
0.766	91.2189
0.76	91.0755
0.754	91.1034
0.748	90.9743
0.742	90.9324
0.736	90.9598
0.73	90.9551
0.724	90.9664
0.718	90.9686
0.712	90.8979
0.706	90.8594
0.7	90.8362
0.694	90.7679
0.688	90.6704
0.682	90.5615
0.676	90.4025
0.67	90.4377
0.664	90.3632
0.658	90.3343
0.652	90.3281
0.646	90.2813
0.64	90.1692
0.634	90.038
0.628	89.8895
0.622	89.7971
0.616	89.613
0.61	89.4267
0.604	89.2553
0.598	88.982
0.592	88.7801
0.586	88.5295
0.58	88.1752
0.574	87.8436
0.568	87.4439
0.562	87.0813
0.556	86.618
0.55	86.1095
0.544	85.6154
0.538	85.1407
0.532	84.5758
0.526	84.0126
0.52	83.3983
0.514	82.6859
0.508	81.8068
0.502	80.9151
0.496	80.1828
0.49	79.4395
0.484	78.8578
0.478	78.2031
0.472	77.6226
0.466	77.113
0.46	76.531
0.454	75.8357
0.448	75.1657
0.442	74.3144
0.436	73.5326
0.43	72.7694
0.424	72.1003
0.418	71.5048
0.412	70.9313
0.406	70.2829
0.4	69.5628
