Name: Natrojarosite NaFe_3^3+(SO_4)_2(OH)_6
Type: Mineral
Class: Sulfate
Subclass: None
Particle Size: Fine
Sample No.: SO-7C
Owner: JPL
Wavelength Range: TIR
Origin: USA, Utah, Tooele County, Gold Hill
Description: Particle size was 0-45um.Collected by Ward's Original ASTER Spectral Library name was jpl.nicolet.mineral.sulfate.none.fine.so07c.spectrum.txt
Measurement: Hemispherical reflectance
X Units: Wavelength (micrometers)
Y Units: Reflectance (percent)
wavelength	value
15.3853	0.6895
15.1161	1.1648
14.8563	0.8345
14.6052	1.0815
14.3624	0.7978
14.1276	1.7968
13.9004	2.2702
13.6803	3.7785
13.4671	4.94
13.2604	6.4942
13.06	7.2871
12.8656	7.6448
12.6769	7.152
12.4936	6.5723
12.3155	6.1359
12.1425	6.8279
11.9742	9.3348
11.8106	10.2112
11.6513	10.7279
11.4963	10.6203
11.3454	11.6901
11.1983	12.7071
11.0551	13.9585
10.9154	15.3851
10.7793	17.3126
10.6465	18.2622
10.5169	17.9223
10.3904	17.3406
10.267	15.857
10.1464	11.9128
10.0287	6.5423
9.9136	3.6508
9.8012	4.093
9.6913	3.2057
9.5838	2.0147
9.4787	1.4173
9.3758	3.2186
9.2752	3.3822
9.1767	3.812
9.0803	4.3851
8.9858	4.2979
8.8934	4.2699
8.8028	4.0216
8.714	2.9792
8.627	2.1757
8.5417	1.677
8.4581	1.8469
8.3761	1.9796
8.2957	2.2276
8.2169	2.1388
8.1395	2.2187
8.0635	2.7944
7.989	3.5845
7.9158	5.3996
7.8439	7.9238
7.7734	10.9559
7.7041	13.6123
7.636	15.1411
7.5691	16.2817
7.5034	17.6883
7.4388	18.559
7.3753	19.3188
7.3129	20.2583
7.2515	20.9632
7.1912	21.2021
7.1318	21.2346
7.0734	19.829
7.016	18.3507
6.9595	21.1054
6.9039	23.7779
6.8492	25.3324
6.7953	27.0077
6.7423	29.3968
6.6901	32.4308
6.6387	35.5882
6.5881	36.1191
6.5382	36.5697
6.4892	37.8166
6.4408	36.661
6.3931	36.6518
6.3462	36.8187
6.2999	35.7966
6.2543	36.5253
6.2094	37.2568
6.1651	36.7104
6.1214	34.9979
6.0784	35.6777
6.0359	37.1852
5.994	39.1827
5.9527	41.0758
5.912	42.6991
5.8718	43.9683
5.8322	44.1409
5.7931	44.8247
5.7545	45.8218
5.7165	46.2349
5.6789	46.4657
5.6418	47.3666
5.6052	47.0039
5.5691	47.7224
5.5334	48.7432
5.4982	49.9721
5.4635	51.475
5.4291	52.15
5.3952	52.6171
5.3618	53.0828
5.3287	53.3834
5.2961	53.3834
5.2638	52.9586
5.2319	52.1039
5.2004	50.7162
5.1693	48.4865
5.1386	45.078
5.1082	38.8769
5.0782	31.5069
5.0485	23.0457
5.0192	19.165
4.9902	25.5827
4.9616	28.5749
4.9332	27.3356
4.9052	20.3507
4.8776	18.3601
4.8502	23.4459
4.8231	28.0325
4.7963	29.609
4.7699	30.5886
4.7437	33.4409
4.7178	32.4481
4.6922	34.0516
4.6668	37.0212
4.6418	38.0738
4.617	38.5887
4.5924	39.3677
4.5681	38.9401
4.5441	38.7765
4.5203	42.2101
4.4968	44.9129
4.4735	46.1924
4.4505	48.1582
4.4277	49.9682
4.4051	51.1813
4.3828	51.9279
4.3607	52.6649
4.3388	52.9262
4.3171	52.8124
4.2956	52.7489
4.2744	53.082
4.2534	54.536
4.2325	54.6773
4.2119	56.2228
4.1915	57.3169
4.1712	57.7501
4.1512	58.0996
4.1313	58.2926
4.1117	58.3472
4.0922	58.364
4.0729	58.3442
4.0538	58.3257
4.0349	58.2825
4.0161	57.8539
3.9976	57.2468
3.9792	57.6177
3.9609	57.5817
3.9428	57.5213
3.9249	57.0865
3.9072	56.6839
3.8896	56.3113
3.8722	55.8085
3.8549	55.3633
3.8378	54.8519
3.8208	54.2833
3.804	53.705
3.7873	53.1158
3.7708	52.5886
3.7544	51.8648
3.7382	51.3481
3.7221	50.5427
3.7061	49.8797
3.6903	49.0996
3.6746	48.3846
3.659	47.529
3.6436	46.6961
3.6283	45.9898
3.6131	45.2367
3.5981	44.4725
3.5832	43.6933
3.5684	42.8857
3.5537	42.1026
3.5391	41.3817
3.5247	40.589
3.5104	39.8556
3.4962	39.0691
3.4821	38.4368
3.4681	37.5874
3.4543	37.0137
3.4405	36.3655
3.4269	35.6197
3.4133	35.1307
3.3999	34.3839
3.3866	33.9946
3.3733	33.3925
3.3602	32.6419
3.3472	31.8959
3.3343	31.0976
3.3215	30.2495
3.3088	29.2203
3.2961	27.7555
3.2836	26.6681
3.2712	25.4627
3.2588	24.3535
3.2466	23.4061
3.2345	22.0371
3.2224	20.4654
3.2104	19.0877
3.1985	17.517
3.1867	16.7332
3.175	16.2905
3.1634	16.1248
3.1519	15.4884
3.1404	14.3573
3.129	13.2886
3.1178	12.6117
3.1065	11.9701
3.0954	11.1646
3.0844	9.9607
3.0734	8.5726
3.0625	7.105
3.0517	5.842
3.041	4.9815
3.0303	4.3371
3.0197	3.7855
3.0092	3.2916
2.9987	2.777
2.9884	2.157
2.9781	1.7374
2.9678	1.1771
2.9577	0.9791
2.9476	1.3093
2.9376	1.1083
2.9276	1.7313
2.9177	2.0875
2.9079	2.8071
2.8982	3.7201
2.8885	5.0257
2.8789	7.0624
2.8693	10.0128
2.8598	12.6867
2.8504	15.0852
2.841	18.186
2.8317	22.5428
2.8224	26.5337
2.8133	29.5373
2.8041	31.9577
2.7951	33.7363
2.786	37.0639
2.7771	40.9335
2.7682	45.9182
2.7594	50.1447
2.7506	54.1403
2.7418	58.4111
2.7332	60.6463
2.7246	64.0282
2.716	65.3051
2.7075	66.9308
2.699	67.8133
2.6906	67.2726
2.6823	66.3029
2.674	65.9565
2.6657	66.2813
2.6575	63.6791
2.6494	62.3183
2.6413	60.8061
2.6332	59.0805
2.6252	58.1536
2.6173	59.0672
2.6094	59.2328
2.6015	60.7149
2.5937	63.8928
2.5859	64.6883
2.5782	66.3023
2.5706	67.7773
2.5629	69.1048
2.5554	68.8042
2.5478	69.0124
2.5403	68.7695
2.5329	68.2192
2.5255	67.1985
2.5181	65.7947
2.5108	66.6488
2.5035	69.0923
2.4963	70.8363
2.4891	71.9219
2.482	72.0299
2.4749	71.7726
2.4678	71.2467
2.4608	71.1066
2.4538	71.9685
2.4468	73.4868
2.4399	74.3751
2.4331	74.8622
2.4262	74.8237
2.4194	74.5956
2.4127	74.7815
2.4059	75.3674
2.3993	76.4841
2.3926	78.2008
2.386	79.9015
2.3795	81.207
2.3729	82.3694
2.3664	83.1916
2.36	83.8042
2.3535	84.358
2.3471	84.5997
2.3408	84.8627
2.3345	84.8081
2.3282	84.2436
2.3219	83.7956
2.3157	82.6039
2.3095	80.8787
2.3034	79.625
2.2972	79.5123
2.2911	78.7574
2.2851	76.4422
2.279	73.8609
2.2731	72.7367
2.2671	72.0828
2.2612	72.6159
2.2553	74.9095
2.2494	77.0928
2.2435	78.274
2.2377	78.7882
2.232	79.0959
2.2262	79.3333
2.2205	79.8535
2.2148	80.6344
2.2091	81.1327
2.2035	81.7783
2.1979	82.0992
2.1923	82.9089
2.1868	83.4304
2.1812	83.689
2.1758	84.1256
2.1703	84.201
2.1649	84.347
2.1595	84.7526
2.1541	84.767
2.1487	85.0493
2.1434	85.2675
2.1381	85.4862
2.1328	85.9429
2.1275	85.8922
2.1223	86.1458
2.1171	86.2703
2.112	86.2793
2.1068	86.8031
2.1017	86.644
2.0966	87.07
2.0915	87.0384
2.0865	87.2922
2.0814	87.5252
2.0764	87.3545
2.0715	87.4847
2.0665	88.0177
2.0616	88.0105
2.0567	88.2674
2.0518	88.3063
2.0469	88.383
2.0421	88.6469
2.0373	88.7228
2.0325	88.8768
2.0277	89.1036
2.0229	89.5045
2.0182	89.7936
2.0135	89.5413
2.0088	89.9322
2.0042	89.8861
