Name: Goethite a-Fe+3O(OH)
Type: Mineral
Class: Hydroxide
Subclass: None
Particle Size: Solid
Sample No.: goethite_1
Owner: JHU
Wavelength Range: TIR
Origin: Sample from Montreal, Wisconsin via the Smithsonian(sample no. NMNH 152500).
Description: The sample consisted of a 4 cm x 2 cm x 2 cm cluster of light brown radiating acicular crystals weighing 10 g.  No impurities were observed in hand sample or under the microscope. Sample measured had unknown crystal face.(Goethite Group) Original ASTER Spectral Library name was jhu.nicolet.mineral.hydroxide.none.solid.goethi1.spectrum.txt
Measurement: Bidirectional reflectance
X Units: Wavelength (micrometers)
Y Units: Reflectance (percent)
wavelength	value
25.0442	32.9623
24.3388	30.2392
23.6719	30.8988
23.0407	31.2067
22.4422	30.142
21.8741	33.3988
21.334	34.1991
20.8199	33.0551
20.33	30.7497
19.8627	27.5405
19.4163	25.9662
18.9896	24.1032
18.5812	24.3942
18.19	23.8849
17.815	22.3525
17.4551	18.3532
17.1094	13.9863
16.7772	11.9306
16.4576	11.2863
16.15	11.3994
15.8537	11.5532
15.568	11.5263
15.2925	10.6384
15.0265	9.01
14.7697	6.633
14.5214	4.8276
14.2814	5.0474
14.0492	5.4983
13.8244	5.9751
13.6067	6.3989
13.3957	6.9228
13.1912	7.5246
12.9929	8.3349
12.8004	9.7038
12.6135	12.4695
12.432	16.0402
12.2557	17.9301
12.0843	18.0634
11.9176	15.1513
11.7555	10.425
11.5977	8.7839
11.444	8.9023
11.2944	9.6928
11.1487	10.6059
11.0067	11.2468
10.8682	11.4887
10.7332	10.0696
10.6015	6.0776
10.473	4.3559
10.3476	4.5329
10.2251	4.7432
10.1056	4.9465
9.9887	5.103
9.8746	5.22
9.763	5.342
9.6539	5.4433
9.5472	5.5869
9.4429	5.6872
9.3408	5.77
9.2409	5.8425
9.1431	5.8979
9.0474	5.9599
8.9536	6.0654
8.8618	6.0669
8.7718	6.0713
8.6837	6.1282
8.5973	6.1872
8.5126	6.2502
8.4295	6.3201
8.3481	6.3789
8.2682	6.4482
8.1898	6.501
8.1129	6.542
8.0374	6.5718
7.9634	6.625
7.8906	6.6975
7.8192	6.7705
7.7491	6.8118
7.6802	6.8481
7.6126	6.8994
7.5461	6.936
7.4807	6.9568
7.4165	7.0056
7.3534	7.0522
7.2914	7.0903
7.2303	7.1216
7.1703	7.1567
7.1113	7.1858
7.0533	7.1824
6.9962	7.1997
6.94	7.2268
6.8847	7.2471
6.8302	7.2615
6.7767	7.2839
6.7239	7.3086
6.672	7.341
6.6209	7.3613
6.5705	7.3657
6.5209	7.3699
6.4721	7.3479
6.424	7.3149
6.3766	7.2969
6.3299	7.2805
6.2838	7.2556
6.2385	7.198
6.1937	7.1367
6.1496	7.0574
6.1062	6.9619
6.0633	6.8115
6.0211	6.6108
5.9794	6.5786
5.9383	6.7461
5.8978	6.873
5.8578	6.9692
5.8184	6.9619
5.7794	6.9555
5.741	6.9277
5.7031	6.8689
5.6657	6.8093
5.6288	6.7305
5.5924	6.6684
5.5564	6.6218
5.5209	6.646
5.4859	6.7441
5.4513	6.8799
5.4171	7.0046
5.3833	7.0935
5.35	7.1516
5.3171	7.1819
5.2846	7.1709
5.2524	7.1518
5.2207	7.1382
5.1893	7.1369
5.1584	7.147
5.1277	7.1626
5.0975	7.166
5.0676	7.1614
5.038	7.1821
5.0088	7.197
4.98	7.2095
4.9514	7.228
4.9232	7.2619
4.8953	7.2954
4.8678	7.3222
4.8405	7.3559
4.8135	7.3869
4.7868	7.4057
4.7605	7.4255
4.7344	7.4438
4.7086	7.4763
4.6831	7.4931
4.6578	7.5176
4.6328	7.5403
4.6081	7.5569
4.5837	7.5674
4.5595	7.574
4.5356	7.5742
4.5119	7.5754
4.4884	7.5737
4.4652	7.5693
4.4423	7.5556
4.4196	7.5442
4.3971	7.5525
4.3748	7.5593
4.3528	7.5632
4.331	7.5613
4.3094	7.5539
4.288	7.5534
4.2668	7.562
4.2458	7.5737
4.2251	7.5766
4.2045	7.5605
4.1841	7.5505
4.164	7.53
4.144	7.5034
4.1242	7.4595
4.1046	7.4075
4.0852	7.3616
4.066	7.3262
4.047	7.3015
4.0281	7.3078
4.0094	7.323
3.9909	7.3074
3.9725	7.3022
3.9544	7.2827
3.9363	7.2588
3.9185	7.2417
3.9008	7.2055
3.8833	7.1772
3.8659	7.1291
3.8487	7.0942
3.8316	7.0808
3.8147	7.0627
3.7979	7.0315
3.7813	7.0107
3.7648	6.9814
3.7485	6.9626
3.7323	6.9245
3.7162	6.8811
3.7003	6.8262
3.6845	6.7995
3.6689	6.7436
3.6534	6.7063
3.638	6.6694
3.6227	6.6301
3.6076	6.6067
3.5926	6.5845
3.5777	6.5505
3.563	6.5432
3.5484	6.5349
3.5338	6.5266
3.5195	6.5222
3.5052	6.4914
3.491	6.5032
3.477	6.4831
3.463	6.4741
3.4492	6.4477
3.4355	6.427
3.4219	6.4209
3.4084	6.4277
3.395	6.4072
3.3817	6.404
3.3685	6.4031
3.3554	6.3652
3.3425	6.3413
3.3296	6.3135
3.3168	6.2807
3.3041	6.2898
3.2915	6.2483
3.279	6.2317
3.2666	6.1936
3.2543	6.1416
3.2421	6.074
3.23	5.9685
3.218	5.8237
3.206	5.696
3.1942	5.5713
3.1824	5.4553
3.1707	5.3755
3.1591	5.3081
3.1476	5.2407
3.1362	5.1753
3.1249	5.1572
3.1136	5.1296
3.1024	5.1133
3.0913	5.0918
3.0803	5.083
3.0694	5.0793
3.0585	5.0879
3.0477	5.1013
3.037	5.1326
3.0264	5.175
3.0158	5.1914
3.0053	5.2251
2.9949	5.2786
2.9845	5.3013
2.9743	5.3367
2.9641	5.3657
2.9539	5.4197
2.9439	5.4661
2.9339	5.5115
2.9239	5.571
2.9141	5.6208
2.9043	5.6963
2.8946	5.7527
2.8849	5.812
2.8753	5.8706
2.8658	5.9631
2.8563	6.0493
2.8469	6.1496
2.8375	6.2068
2.8282	6.2988
2.819	6.3992
2.8098	6.487
2.8007	6.5998
2.7917	6.675
2.7827	6.8078
2.7738	6.917
2.7649	7.0691
2.7561	7.1977
2.7473	7.4004
2.7386	7.5593
2.7299	7.7695
2.7213	7.9494
2.7128	8.1142
2.7043	8.2409
2.6959	8.3498
2.6875	8.4416
2.6791	8.572
2.6709	8.6604
2.6626	8.7209
2.6545	8.8398
2.6463	8.9463
2.6382	9.0146
2.6302	9.0625
2.6222	9.1191
2.6143	9.1887
2.6064	9.1941
2.5986	9.248
2.5908	9.2654
2.583	9.2732
2.5753	9.3213
2.5677	9.2944
2.5601	9.2866
2.5525	9.2197
2.545	9.1704
2.5375	9.112
2.5301	9.0669
2.5227	8.9712
2.5154	8.9809
2.5081	8.9682
2.5008	8.9697
2.4936	8.9807
2.4864	9.0488
2.4793	9.0835
2.4722	9.1133
2.4651	9.0874
2.4581	9.1172
2.4511	9.1103
2.4442	9.0488
2.4373	8.9983
2.4305	8.9736
2.4236	8.9643
2.4169	8.9004
2.4101	8.9748
2.4034	9.0346
2.3967	9.1401
2.3901	9.2612
2.3835	9.3447
2.377	9.4887
2.3704	9.5254
2.364	9.5732
2.3575	9.6357
2.3511	9.675
2.3447	9.6789
2.3384	9.6894
2.3321	9.7009
2.3258	9.7309
2.3195	9.7846
2.3133	9.7832
2.3071	9.8066
2.301	9.8391
2.2949	9.8559
2.2888	9.8752
2.2828	9.8374
2.2767	9.8908
2.2708	9.906
2.2648	9.9111
2.2589	9.9468
2.253	9.9389
2.2471	9.9458
2.2413	9.9856
2.2355	10.0246
2.2297	10.049
2.224	10.094
2.2183	10.0805
2.2126	10.1176
2.207	10.1211
2.2013	10.124
2.1957	10.1623
2.1902	10.1565
2.1846	10.1513
2.1791	10.1606
2.1736	10.1811
2.1682	10.2041
2.1628	10.2392
2.1574	10.2466
2.152	10.2217
2.1466	10.2119
2.1413	10.2297
2.136	10.2334
2.1308	10.2529
2.1255	10.302
2.1203	10.3032
2.1151	10.2607
2.11	10.2942
2.1048	10.25
2.0997	10.2358
2.0946	10.2522
2.0895	10.2715
2.0845	10.2881
2.0795	10.2529
