Name: Topaz Al2SiO4(F,OH)2
Type: Mineral
Class: Silicate
Subclass: Nesosilicate
Particle Size: Fine
Sample No.: topaz_2
Owner: JHU
Wavelength Range: TIR
Origin: Ouro Preto, Brazil via Don Hoover, USGS
Description: The sample consisted of several orange-colored, rounded (tumbled) grains, each about 1 cm in diameter.  Under the microscope, the sample appeared to be pure topaz with abundant fluid inclusions. Particle size was less than 2 Micrometers.(Isolated tetrahedra) Original ASTER Spectral Library name was jhu.nicolet.mineral.silicate.nesosilicate.powder.topaz2.spectrum.txt
Measurement: Transmission
X Units: Wavelength (micrometers)
Y Units: Transmittance (percent)
wavelength	value
25.0442	56.2186
24.3388	62.7577
23.6719	58.4881
23.0407	49.369
22.4422	26.0546
21.8741	22.791
21.334	27.6796
20.8199	28.789
20.33	36.3612
19.8627	35.8554
19.4163	28.5986
18.9896	30.3163
18.5812	46.7889
18.19	56.2704
17.815	50.329
17.4551	58.1307
17.1094	57.5565
16.7772	46.3925
16.4576	26.3603
16.15	16.1523
15.8537	19.8095
15.568	26.9472
15.2925	33.9462
15.0265	49.3485
14.7697	63.2586
14.5214	69.5545
14.2814	72.5057
14.0492	79.8348
13.8244	84.0471
13.6067	84.4749
13.3957	81.6678
13.1912	79.4353
12.9929	77.0257
12.8004	81.4026
12.6135	79.6766
12.432	74.576
12.2557	65.7362
12.0843	49.5941
11.9176	29.7597
11.7555	17.4458
11.5977	10.3115
11.444	7.2422
11.2944	8.6841
11.1487	9.5102
11.0067	12.9048
10.8682	16.6972
10.7332	18.6972
10.6015	20.1572
10.473	25.5517
10.3476	38.0331
10.2251	47.934
10.1056	44.2352
9.9887	43.1766
9.8746	50.2157
9.763	55.6507
9.6539	60.0228
9.5472	63.0868
9.4429	64.6922
9.3408	65.7274
9.2409	66.5916
9.1431	67.8128
9.0474	69.577
8.9536	71.5037
8.8618	72.1605
8.7718	70.2967
8.6837	51.2308
8.5973	42.6332
8.5126	59.325
8.4295	73.9524
8.3481	78.3448
8.2682	81.5733
8.1898	84.751
8.1129	86.9168
8.0374	88.407
7.9634	89.5496
7.8906	90.4854
7.8192	91.2058
7.7491	91.544
7.6802	91.9131
7.6126	92.2234
7.5461	92.615
7.4807	92.7393
7.4165	92.9539
7.3534	93.0564
7.2914	93.2107
7.2303	93.2586
7.1703	92.616
7.1113	92.5859
7.0533	93.2571
6.9962	93.5645
6.94	93.8235
6.8847	93.8923
6.8302	93.949
6.7767	94.0564
6.7239	94.3574
6.672	94.616
6.6209	94.793
6.5705	94.9607
6.5209	94.9812
6.4721	95.0645
6.424	95.1572
6.3766	94.9343
6.3299	94.7537
6.2838	94.7444
6.2385	94.9265
6.1937	94.9763
6.1496	94.2742
6.1062	94.114
6.0633	93.8835
6.0211	93.9082
5.9794	94.5769
5.9383	95.1104
5.8978	95.4597
5.8578	95.6934
5.8184	95.9746
5.7794	96.0107
5.741	96.1728
5.7031	96.209
5.6657	96.1248
5.6288	96.002
5.5924	95.8914
5.5564	95.9932
5.5209	95.9502
5.4859	95.907
5.4513	96.033
5.4171	96.0906
5.3833	96.125
5.35	96.2881
5.3171	96.3767
5.2846	96.5691
5.2524	96.6973
5.2207	96.822
5.1893	96.8787
5.1584	96.9853
5.1277	97.0515
5.0975	97.0652
5.0676	97.1025
5.038	97.1592
5.0088	97.1638
4.98	97.176
4.9514	97.2507
4.9232	97.2581
4.8953	97.2908
4.8678	97.2512
4.8405	97.259
4.8135	97.3572
4.7868	97.3528
4.7605	97.2522
4.7344	97.281
4.7086	97.2131
4.6831	97.2761
4.6578	97.3044
4.6328	97.3259
4.6081	97.3533
4.5837	97.3611
4.5595	97.3904
4.5356	97.3577
4.5119	97.283
4.4884	97.3479
4.4652	97.3411
4.4423	97.3503
4.4196	97.2917
4.3971	97.2707
4.3748	97.2654
4.3528	97.1863
4.331	97.1272
4.3094	97.0896
4.288	97.1584
4.2668	97.2947
4.2458	97.3015
4.2251	97.3113
4.2045	97.2405
4.1841	97.24
4.164	97.2136
4.144	97.2502
4.1242	97.1941
4.1046	97.2112
4.0852	97.1257
4.066	97.1667
4.047	97.094
4.0281	97.1526
4.0094	97.1213
3.9909	97.1062
3.9725	97.0959
3.9544	97.1326
3.9363	97.1252
3.9185	97.0613
3.9008	97.1623
3.8833	97.1414
3.8659	97.0925
3.8487	97.094
3.8316	97.1208
3.8147	97.0613
3.7979	97.0056
3.7813	97.03
3.7648	97.0295
3.7485	96.9665
3.7323	96.9123
3.7162	96.8655
3.7003	96.8298
3.6845	96.7673
3.6689	96.76
3.6534	96.6667
3.638	96.717
3.6227	96.5896
3.6076	96.4285
3.5926	96.4514
3.5777	96.3962
3.563	96.2761
3.5484	96.2634
3.5338	96.238
3.5195	96.0212
3.5052	95.863
3.491	95.8538
3.477	95.7322
3.463	95.6584
3.4492	95.5525
3.4355	95.3865
3.4219	95.1433
3.4084	94.9666
3.395	94.906
3.3817	94.8342
3.3685	94.7947
3.3554	94.5388
3.3425	94.3928
3.3296	94.2678
3.3168	94.0593
3.3041	93.9158
3.2915	93.8279
3.279	93.6736
3.2666	93.5354
3.2543	93.1834
3.2421	92.9104
3.23	92.7424
3.218	92.3552
3.206	92.0525
3.1942	91.8713
3.1824	91.8552
3.1707	91.6277
3.1591	91.364
3.1476	91.2752
3.1362	91.1834
3.1249	91.1296
3.1136	91.0857
3.1024	90.9002
3.0913	90.8367
3.0803	90.8025
3.0694	90.7224
3.0585	90.5105
3.0477	90.3611
3.037	90.4295
3.0264	90.4041
3.0158	90.2439
3.0053	90.1834
2.9949	90.1882
2.9845	90.4334
2.9743	90.6619
2.9641	91.033
2.9539	91.1599
2.9439	91.5037
2.9339	91.6765
2.9239	91.5828
2.9141	91.7029
2.9043	91.5896
2.8946	91.613
2.8849	91.4539
2.8753	91.2234
2.8658	91.0164
2.8563	91.1345
2.8469	91.3377
2.8375	91.4295
2.8282	91.4529
2.819	91.4588
2.8098	91.4314
2.8007	91.3562
2.7917	91.2048
2.7827	90.8914
2.7738	89.8591
2.7649	86.8953
2.7561	73.8289
2.7473	61.6493
2.7386	70.5281
2.7299	92.1023
2.7213	94.0437
2.7128	94.7634
2.7043	95.1414
2.6959	95.239
2.6875	95.4109
2.6791	95.4802
2.6709	95.532
2.6626	95.2107
2.6545	95.1726
2.6463	95.1404
2.6382	94.9998
2.6302	95.1404
2.6222	94.7703
2.6143	94.7478
2.6064	94.7937
2.5986	94.9304
2.5908	94.7781
2.583	94.9773
2.5753	94.6677
2.5677	94.4216
2.5601	94.4294
2.5525	94.113
2.545	94.2595
2.5375	94.4353
2.5301	94.1404
2.5227	94.0642
2.5154	94.0935
2.5081	94.1111
2.5008	93.9998
2.4936	94.1384
2.4864	94.1834
2.4793	94.0408
2.4722	94.115
2.4651	93.8377
2.4581	94.0076
2.4511	93.9861
2.4442	93.8904
2.4373	94.1091
2.4305	93.7498
2.4236	93.7888
2.4169	93.7908
2.4101	93.9841
2.4034	93.7615
2.3967	93.7752
2.3901	93.8357
2.3835	93.6091
2.377	93.4685
2.3704	93.5935
2.364	93.6013
2.3575	93.5544
2.3511	93.4724
2.3447	93.5252
2.3384	93.4177
2.3321	93.3357
2.3258	93.2498
2.3195	93.5544
2.3133	93.7771
2.3071	93.5095
2.301	93.4763
2.2949	93.2673
2.2888	93.4548
2.2828	93.2908
2.2767	93.2595
2.2708	93.5877
2.2648	93.4705
2.2589	93.5662
2.253	93.5388
2.2471	93.3552
2.2413	93.197
2.2355	93.2732
2.2297	93.533
2.224	93.283
2.2183	93.3611
2.2126	93.5564
2.207	93.3923
2.2013	93.1111
2.1957	93.4685
2.1902	93.5173
2.1846	93.5076
2.1791	93.2595
2.1736	93.4841
2.1682	93.8377
2.1628	93.6091
2.1574	93.6248
2.152	93.3709
2.1466	93.3474
2.1413	93.3943
2.136	93.5974
2.1308	93.6248
2.1255	93.488
2.1203	93.6521
2.1151	93.3982
2.11	93.7068
2.1048	93.5427
2.0997	93.6326
2.0946	93.5623
2.0895	93.1209
2.0845	93.4099
2.0795	93.0662
