Name: Chlorite
Type: Mineral
Class: Silicate
Subclass: Phyllosilicate
Particle Size: Fine
Sample No.: PS-12F
Owner: JPL
Wavelength Range: VSWIR
Origin: USA, New Mexico
Description: Particle size was 0-45um.Collected by Ward's Original ASTER Spectral Library name was jpl.beckman.mineral.silicate.phyllosilicate.fine.ps12f.spectrum.txt
Measurement: Hemispherical reflectance
X Units: Wavelength (micrometers)
Y Units: Reflectance (percent)
wavelength	value
0.4	12.89
0.403	13.11
0.406	13.4
0.409	13.8
0.412	14.07
0.415	14.4
0.418	14.69
0.421	15.06
0.424	15.65
0.427	16.1
0.43	16.41
0.433	16.88
0.436	17.24
0.439	17.9
0.442	18.23
0.445	18.66
0.448	18.86
0.451	18.98
0.454	19.43
0.457	19.63
0.46	19.72
0.463	20.03
0.466	20.43
0.469	20.61
0.472	20.82
0.475	21.24
0.478	21.52
0.481	21.93
0.484	22.26
0.487	22.38
0.49	22.8
0.493	23.08
0.496	23.5
0.499	23.83
0.502	24.1
0.505	24.48
0.508	24.86
0.511	25.29
0.514	25.61
0.517	25.73
0.52	25.99
0.523	26.21
0.526	26.59
0.529	26.75
0.532	26.77
0.535	26.92
0.538	27.18
0.541	27.47
0.544	27.47
0.547	27.52
0.55	27.67
0.553	27.77
0.556	27.92
0.559	27.88
0.562	28.04
0.565	28.05
0.568	28
0.571	27.99
0.574	27.98
0.577	27.83
0.58	27.75
0.583	27.61
0.586	27.67
0.589	27.82
0.592	27.55
0.595	27.45
0.598	27.44
0.601	27.33
0.604	27.44
0.607	27.2
0.61	27.15
0.613	27.04
0.616	26.91
0.619	26.88
0.622	26.75
0.625	26.63
0.628	26.55
0.631	26.61
0.634	26.41
0.637	26.37
0.64	26.16
0.643	26.2
0.646	26.18
0.649	25.92
0.652	25.81
0.655	25.8
0.658	25.65
0.661	25.73
0.664	25.56
0.667	25.47
0.67	25.43
0.673	25.35
0.676	25.42
0.679	25.3
0.682	25.11
0.685	25.1
0.688	25.06
0.691	24.99
0.694	24.97
0.697	24.84
0.7	24.78
0.703	24.85
0.706	24.83
0.709	24.73
0.712	24.72
0.715	24.85
0.718	24.86
0.721	24.87
0.724	24.79
0.727	24.87
0.73	24.97
0.733	25.12
0.736	24.92
0.739	25.03
0.742	25.08
0.745	25.18
0.748	25.34
0.751	25.19
0.754	25.27
0.757	25.45
0.76	25.42
0.763	25.6
0.766	25.53
0.769	25.56
0.772	25.79
0.775	25.78
0.778	25.8
0.781	25.8
0.784	25.83
0.787	26.02
0.79	25.93
0.793	26.01
0.796	26.05
0.799	26.04
0.808	26.27
0.82	26.25
0.832	26.01
0.844	25.83
0.856	25.57
0.868	25.34
0.88	25.15
0.892	25.13
0.904	25.28
0.916	25.43
0.928	25.79
0.94	26.2
0.952	26.65
0.964	27.05
0.976	27.38
0.988	27.73
1	27.96
1.012	28.09
1.024	28.16
1.036	28.17
1.048	28.21
1.06	28.38
1.072	28.5
1.084	28.72
1.096	28.84
1.108	29.08
1.12	29.3
1.132	29.59
1.144	30.01
1.156	30.3
1.168	30.72
1.18	31.27
1.192	31.88
1.204	32.48
1.216	33.12
1.228	33.87
1.24	34.5
1.252	35.35
1.264	36.04
1.276	36.84
1.288	37.55
1.3	38.34
1.312	39.08
1.324	39.91
1.336	40.62
1.348	41.34
1.36	42.07
1.372	42.63
1.384	43.2
1.396	42.67
1.408	41.82
1.42	44.59
1.432	45.28
1.444	45.9
1.456	46.52
1.468	47.19
1.48	47.82
1.492	48.28
1.504	48.73
1.516	49.18
1.528	49.63
1.54	50.04
1.552	50.61
1.564	51.07
1.576	51.7
1.588	52.25
1.6	52.9
1.612	53.43
1.624	53.86
1.636	54.52
1.648	55.1
1.66	55.68
1.672	56.23
1.684	56.72
1.696	57.07
1.708	57.47
1.72	57.89
1.732	58.27
1.744	58.66
1.756	59.17
1.768	59.51
1.78	59.77
1.792	60.01
1.804	60.37
1.816	60.66
1.828	60.98
1.84	61.16
1.852	61.13
1.864	61.19
1.876	61.39
1.888	61.61
1.9	61.74
1.912	61.87
1.924	62.08
1.936	62.4
1.948	62.41
1.96	62.38
1.972	62.18
1.984	61.94
1.996	62.06
2.008	62.46
2.02	63.2
2.032	63.96
2.044	64.65
2.056	65.32
2.068	65.85
2.08	66.2
2.092	66.7
2.104	66.91
2.116	67.02
2.128	66.96
2.14	66.82
2.152	66.74
2.164	66.58
2.176	66.56
2.188	66.29
2.2	65.81
2.212	64.92
2.224	63.35
2.236	60.23
2.248	57.03
2.26	56.46
2.272	57.88
2.284	58.91
2.296	58.55
2.308	57.42
2.32	56.29
2.332	55.2
2.344	54.26
2.356	54.26
2.368	55.57
2.38	57.52
2.392	58.91
2.404	59.59
2.416	59.89
2.428	60.02
2.44	59.89
2.452	59.48
2.464	58.71
2.476	57.9
2.488	57.35
2.5	57.09
