Name: Pyrophyllite Al_2Si_4O_10(OH)_2
Type: Mineral
Class: Silicate
Subclass: Phyllosilicate
Particle Size: Coarse
Sample No.: PS-7A
Owner: JPL
Wavelength Range: TIR
Origin: USA, California
Description: Particle size was 125-500um.Collected by Ward's Original ASTER Spectral Library name was jpl.nicolet.mineral.silicate.phyllosilicate.coarse.ps07a.spectrum.txt
Measurement: Hemispherical reflectance
X Units: Wavelength (micrometers)
Y Units: Reflectance (percent)
wavelength	value
15.3853	3.5926
15.1161	1.7428
14.8563	1.9598
14.6052	1.7337
14.3624	2.1531
14.1276	2.4072
13.9004	3.0375
13.6803	3.0267
13.4671	3.3388
13.2604	3.7559
13.06	4.079
12.8656	4.5633
12.6769	5.0261
12.4936	5.1489
12.3155	4.7382
12.1425	4.615
11.9742	5.5404
11.8106	4.532
11.6513	4.604
11.4963	5.4744
11.3454	6.2267
11.1983	7.0174
11.0551	7.5096
10.9154	8.2002
10.7793	8.828
10.6465	10.3585
10.5169	14.4877
10.3904	10.058
10.267	6.926
10.1464	8.8359
10.0287	10.3886
9.9136	11.7419
9.8012	13.107
9.6913	15.0692
9.5838	19.4764
9.4787	26.7102
9.3758	32.4531
9.2752	37.9352
9.1767	40.4801
9.0803	39.7511
8.9858	24.3266
8.8934	37.0081
8.8028	40.5617
8.714	40.5832
8.627	38.5517
8.5417	34.7934
8.4581	29.0352
8.3761	23.9588
8.2957	19.8577
8.2169	12.6996
8.1395	7.234
8.0635	4.1655
7.989	2.4746
7.9158	1.4953
7.8439	0.8193
7.7734	0.5912
7.7041	0.5041
7.636	0.5945
7.5691	0.5912
7.5034	0.6329
7.4388	0.9414
7.3753	1.1392
7.3129	1.4128
7.2515	1.706
7.1912	1.8903
7.1318	2.081
7.0734	2.4567
7.016	2.5904
6.9595	2.9301
6.9039	3.041
6.8492	3.2679
6.7953	3.6385
6.7423	4.0644
6.6901	4.4006
6.6387	4.8922
6.5881	5.026
6.5382	5.157
6.4892	5.5548
6.4408	5.7818
6.3931	5.9217
6.3462	6.1787
6.2999	6.5034
6.2543	6.8062
6.2094	6.9594
6.1651	7.0269
6.1214	7.273
6.0784	7.5689
6.0359	8.0874
5.994	8.4807
5.9527	7.9807
5.912	7.5818
5.8718	7.501
5.8322	6.8064
5.7931	5.8189
5.7545	5.7366
5.7165	5.7258
5.6789	6.0081
5.6418	6.0318
5.6052	6.0363
5.5691	5.8447
5.5334	5.8331
5.4982	5.9283
5.4635	6.0827
5.4291	5.7868
5.3952	5.4396
5.3618	4.8055
5.3287	4.1899
5.2961	4.0356
5.2638	4.5785
5.2319	5.6353
5.2004	6.1303
5.1693	6.7888
5.1386	7.455
5.1082	7.421
5.0782	7.4262
5.0485	7.3656
5.0192	7.782
4.9902	8.405
4.9616	10.108
4.9332	12.6538
4.9052	14.8531
4.8776	17.8275
4.8502	20.5997
4.8231	21.5599
4.7963	22.3926
4.7699	22.6344
4.7437	24.0514
4.7178	24.7185
4.6922	25.8262
4.6668	27.5211
4.6418	29.8025
4.617	31.3886
4.5924	32.071
4.5681	31.2599
4.5441	31.8696
4.5203	31.9118
4.4968	32.4179
4.4735	33.2145
4.4505	35.7382
4.4277	38.0031
4.4051	38.4012
4.3828	39.448
4.3607	40.9965
4.3388	41.9375
4.3171	42.3433
4.2956	42.2268
4.2744	43.2068
4.2534	45.3483
4.2325	46.5624
4.2119	48.1449
4.1915	48.8189
4.1712	49.2081
4.1512	49.6309
4.1313	49.8627
4.1117	50.2328
4.0922	50.4665
4.0729	50.6962
4.0538	50.9669
4.0349	51.2828
4.0161	51.4491
3.9976	51.7778
3.9792	51.953
3.9609	51.9837
3.9428	52.1418
3.9249	52.1257
3.9072	52.149
3.8896	52.124
3.8722	51.9684
3.8549	51.7576
3.8378	51.5163
3.8208	51.1988
3.804	50.8314
3.7873	50.4641
3.7708	50.3374
3.7544	50.1983
3.7382	49.9765
3.7221	49.5227
3.7061	48.2728
3.6903	40.3238
3.6746	42.5016
3.659	44.8485
3.6436	47.6863
3.6283	49.1746
3.6131	49.5595
3.5981	49.1917
3.5832	48.6884
3.5684	48.6632
3.5537	48.9257
3.5391	48.6934
3.5247	48.4522
3.5104	47.7145
3.4962	47.6292
3.4821	47.5925
3.4681	47.5751
3.4543	47.3306
3.4405	46.5911
3.4269	45.7005
3.4133	45.0789
3.3999	45.2028
3.3866	45.0053
3.3733	44.5925
3.3602	44.5095
3.3472	44.2511
3.3343	43.8677
3.3215	43.6237
3.3088	43.1072
3.2961	42.4273
3.2836	42.0305
3.2712	42.0957
3.2588	41.8526
3.2466	41.3714
3.2345	40.8617
3.2224	40.5911
3.2104	40.2643
3.1985	39.6524
3.1867	39.1776
3.175	37.936
3.1634	37.4838
3.1519	37.6036
3.1404	37.5419
3.129	37.3708
3.1178	36.5384
3.1065	35.4022
3.0954	34.9983
3.0844	34.4797
3.0734	33.9241
3.0625	33.3859
3.0517	33.0207
3.041	32.7522
3.0303	31.8254
3.0197	31.0776
3.0092	29.1373
2.9987	28.5159
2.9884	27.5665
2.9781	26.0587
2.9678	26.7359
2.9577	28.3392
2.9476	30.1501
2.9376	29.7592
2.9276	27.2752
2.9177	25.7074
2.9079	27.1065
2.8982	26.0801
2.8885	24.502
2.8789	24.7113
2.8693	21.5761
2.8598	22.5234
2.8504	22.8237
2.841	23.8571
2.8317	26.0175
2.8224	26.6114
2.8133	25.336
2.8041	24.4932
2.7951	23.9543
2.786	20.775
2.7771	21.7277
2.7682	17.9549
2.7594	15.5497
2.7506	13.9194
2.7418	9.3256
2.7332	8.9456
2.7246	7.7668
2.716	5.6091
2.7075	7.3244
2.699	10.7526
2.6906	15.8303
2.6823	20.3831
2.674	23.439
2.6657	26.6496
2.6575	28.4913
2.6494	30.2025
2.6413	29.9715
2.6332	30.2798
2.6252	30.0035
2.6173	27.8376
2.6094	24.1076
2.6015	24.4892
2.5937	26.6546
2.5859	29.9058
2.5782	32.8226
2.5706	30.901
2.5629	33.642
2.5554	33.4652
2.5478	31.1175
2.5403	34.6932
2.5329	35.1598
2.5255	33.701
2.5181	31.068
2.5108	29.5725
2.5035	29.9625
2.4963	30.8231
2.4891	31.4641
2.482	32.2091
2.4749	35.4353
2.4678	35.8049
2.4608	36.1538
2.4538	35.9939
2.4468	36.5186
2.4399	36.7113
2.4331	35.3639
2.4262	35.7557
2.4194	37.3437
2.4127	37.6327
2.4059	37.4375
2.3993	37.5744
2.3926	36.5057
2.386	37.7149
2.3795	40.7928
2.3729	43.4705
2.3664	42.2268
2.36	41.2286
2.3535	40.6265
2.3471	39.9365
2.3408	42.6018
2.3345	42.5847
2.3282	38.7806
2.3219	35.0379
2.3157	35.9474
2.3095	39.122
2.3034	41.3146
2.2972	43.1164
2.2911	44.129
2.2851	45.7554
2.279	49.0439
2.2731	52.0564
2.2671	53.7768
2.2612	55.3521
2.2553	56.7598
2.2494	58.1501
2.2435	59.3817
2.2377	60.397
2.232	60.7988
2.2262	59.3215
2.2205	55.8857
2.2148	56.6827
2.2091	55.3412
2.2035	57.1376
2.1979	57.7686
2.1923	57.1561
2.1868	54.5048
2.1812	48.2714
2.1758	38.1976
2.1703	26.9753
2.1649	25.4244
2.1595	36.133
2.1541	44.4869
2.1487	52.7013
2.1434	58.1462
2.1381	60.0844
2.1328	61.983
2.1275	64.1221
2.1223	67.7608
2.1171	70.024
2.112	72.59
2.1068	74.9199
2.1017	75.1332
2.0966	74.2398
2.0915	72.1342
2.0865	68.7641
2.0814	65.9433
2.0764	68.6087
2.0715	69.1835
2.0665	68.9168
2.0616	70.0301
2.0567	73.0953
2.0518	77.0442
2.0469	78.7981
2.0421	79.2517
2.0373	79.3074
2.0325	79.2897
2.0277	79.4195
2.0229	79.3198
2.0182	79.3994
2.0135	79.7364
2.0088	80.0563
2.0042	80.0941
