Name: Dolomite CaMg(CO_3)_2
Type: Mineral
Class: Carbonate
Subclass: None
Particle Size: Coarse
Sample No.: C-5C
Owner: JPL
Wavelength Range: TIR
Origin: USA, California, Los Angeles County, Palos Verdes
Description: Particle size was 125-500um. Collected by Burminco Original ASTER Spectral Library name was jpl.nicolet.mineral.carbonate.none.coarse.c05c.spectrum.txt
Measurement: Hemispherical reflectance
X Units: Wavelength (micrometers)
Y Units: Reflectance (percent)
wavelength	value
15.3853	2.388
15.1161	2.7151
14.8563	3.4951
14.6052	3.4156
14.3624	3.6294
14.1276	3.5939
13.9004	3.0834
13.6803	3.0627
13.4671	2.2852
13.2604	5.1695
13.06	8.5656
12.8656	10.0378
12.6769	10.9305
12.4936	11.6685
12.3155	11.9417
12.1425	11.0346
11.9742	9.7598
11.8106	7.3936
11.6513	6.3774
11.4963	6.4185
11.3454	11.8122
11.1983	26.8101
11.0551	7.8553
10.9154	6.4538
10.7793	6.674
10.6465	7.0172
10.5169	6.821
10.3904	7.1891
10.267	6.9633
10.1464	6.8554
10.0287	6.6272
9.9136	6.5578
9.8012	5.9294
9.6913	5.0568
9.5838	5.2327
9.4787	6.2214
9.3758	5.6034
9.2752	4.9051
9.1767	4.7239
9.0803	4.2094
8.9858	4.8751
8.8934	5.0549
8.8028	4.9924
8.714	4.7759
8.627	5.1729
8.5417	4.7839
8.4581	4.8893
8.3761	4.68
8.2957	4.9444
8.2169	5.2393
8.1395	5.044
8.0635	5.2699
7.989	5.4044
7.9158	5.5639
7.8439	5.7618
7.7734	5.9
7.7041	6.0678
7.636	6.3724
7.5691	6.7797
7.5034	7.0496
7.4388	7.3897
7.3753	8.1364
7.3129	8.8823
7.2515	9.8996
7.1912	11.2032
7.1318	13.6753
7.0734	16.6596
7.016	24.6373
6.9595	26.146
6.9039	26.7493
6.8492	28.169
6.7953	29.9465
6.7423	31.5655
6.6901	34.3799
6.6387	40.0683
6.5881	45.2155
6.5382	47.5202
6.4892	50.6923
6.4408	50.924
6.3931	48.1789
6.3462	29.8532
6.2999	11.8925
6.2543	5.0565
6.2094	2.3791
6.1651	0.9032
6.1214	0.4903
6.0784	0.2684
6.0359	0.274
5.994	0.3062
5.9527	0.3145
5.912	0.4175
5.8718	0.5184
5.8322	0.5965
5.7931	0.754
5.7545	0.7269
5.7165	0.8862
5.6789	0.9597
5.6418	1.0323
5.6052	1.0845
5.5691	1.0298
5.5334	1.0226
5.4982	0.9922
5.4635	1.0414
5.4291	1.6844
5.3952	3.1862
5.3618	4.6411
5.3287	6.1085
5.2961	7.2605
5.2638	9.3775
5.2319	12.281
5.2004	15.0853
5.1693	17.8741
5.1386	20.338
5.1082	21.8439
5.0782	19.5231
5.0485	19.8151
5.0192	27.3881
4.9902	29.2676
4.9616	30.4999
4.9332	31.3283
4.9052	31.8608
4.8776	32.1647
4.8502	32.2709
4.8231	32.0482
4.7963	31.7043
4.7699	31.0216
4.7437	29.8107
4.7178	26.8552
4.6922	21.8149
4.6668	13.6971
4.6418	9.9048
4.617	9.205
4.5924	10.993
4.5681	14.2461
4.5441	17.0764
4.5203	19.1662
4.4968	23.6857
4.4735	23.6931
4.4505	19.679
4.4277	19.2721
4.4051	23.0682
4.3828	27.1102
4.3607	30.2462
4.3388	25.9285
4.3171	22.8164
4.2956	21.9474
4.2744	21.8414
4.2534	23.9715
4.2325	24.2392
4.2119	24.5086
4.1915	25.9991
4.1712	24.2257
4.1512	21.4827
4.1313	21.1303
4.1117	20.005
4.0922	18.2361
4.0729	15.036
4.0538	11.5396
4.0349	7.8648
4.0161	4.7789
3.9976	2.9939
3.9792	2.3966
3.9609	2.2337
3.9428	2.0496
3.9249	2.1021
3.9072	2.1446
3.8896	2.2834
3.8722	2.4359
3.8549	2.8753
3.8378	3.6004
3.8208	3.039
3.804	2.5647
3.7873	3.0779
3.7708	4.2215
3.7544	7.216
3.7382	13.654
3.7221	17.241
3.7061	19.3943
3.6903	21.6613
3.6746	22.9015
3.659	23.5221
3.6436	23.5516
3.6283	23.2441
3.6131	22.6476
3.5981	22.0814
3.5832	21.2043
3.5684	19.5211
3.5537	14.7134
3.5391	13.7424
3.5247	11.1035
3.5104	6.5565
3.4962	3.6679
3.4821	2.7252
3.4681	2.5367
3.4543	2.5833
3.4405	2.5096
3.4269	2.9763
3.4133	3.1922
3.3999	3.2393
3.3866	3.299
3.3733	3.6554
3.3602	3.3767
3.3472	3.0613
3.3343	2.9172
3.3215	2.8299
3.3088	2.7871
3.2961	3.7569
3.2836	8.1069
3.2712	10.8589
3.2588	12.4744
3.2466	13.9175
3.2345	14.8725
3.2224	15.6956
3.2104	16.5128
3.1985	16.8655
3.1867	17.1936
3.175	17.2475
3.1634	17.035
3.1519	16.4745
3.1404	15.4237
3.129	15.548
3.1178	15.7689
3.1065	15.8265
3.0954	15.6821
3.0844	15.194
3.0734	15.4529
3.0625	16.2416
3.0517	16.5564
3.041	16.8743
3.0303	17.4681
3.0197	17.666
3.0092	18.4609
2.9987	18.5381
2.9884	18.5298
2.9781	18.5846
2.9678	18.6597
2.9577	18.7727
2.9476	18.949
2.9376	19.0572
2.9276	18.9907
2.9177	19.442
2.9079	20.0827
2.8982	21.036
2.8885	21.7895
2.8789	22.422
2.8693	22.8495
2.8598	23.8137
2.8504	23.8017
2.841	25.1528
2.8317	27.0616
2.8224	28.2507
2.8133	29.404
2.8041	29.5323
2.7951	28.6474
2.786	28.1945
2.7771	26.6256
2.7682	25.0372
2.7594	27.8015
2.7506	31.3904
2.7418	35.6306
2.7332	40.1391
2.7246	43.6675
2.716	46.5975
2.7075	50.387
2.699	51.8118
2.6906	51.7952
2.6823	54.2394
2.674	58.2635
2.6657	61.8013
2.6575	63.8847
2.6494	65.527
2.6413	66.3944
2.6332	67.3661
2.6252	68.0104
2.6173	68.7287
2.6094	68.8715
2.6015	68.61
2.5937	68.8882
2.5859	67.7681
2.5782	66.2784
2.5706	64.1971
2.5629	60.9216
2.5554	57.9073
2.5478	52.1044
2.5403	43.3979
2.5329	35.9313
2.5255	31.2319
2.5181	29.1048
2.5108	29.4598
2.5035	30.7305
2.4963	32.2585
2.4891	34.5433
2.482	37.3771
2.4749	38.9597
2.4678	39.3631
2.4608	40.2571
2.4538	41.9207
2.4468	45.1813
2.4399	48.9896
2.4331	52.3427
2.4262	55.5403
2.4194	59.0503
2.4127	61.5259
2.4059	62.9982
2.3993	64.5056
2.3926	66.0372
2.386	67.0908
2.3795	68.2305
2.3729	69.9702
2.3664	69.7411
2.36	68.5213
2.3535	65.5853
2.3471	59.4772
2.3408	52.6204
2.3345	47.3947
2.3282	43.6642
2.3219	42.7815
2.3157	43.3626
2.3095	44.3314
2.3034	45.5913
2.2972	47.0844
2.2911	48.6718
2.2851	49.8959
2.279	50.5602
2.2731	51.1547
2.2671	52.5315
2.2612	54.5217
2.2553	57.5764
2.2494	60.1011
2.2435	62.7565
2.2377	65.0918
2.232	66.7741
2.2262	68.1608
2.2205	69.4233
2.2148	70.5141
2.2091	71.8927
2.2035	73.2307
2.1979	74.4614
2.1923	75.4455
2.1868	76.2589
2.1812	77.0141
2.1758	77.1627
2.1703	77.3476
2.1649	77.3339
2.1595	77.1237
2.1541	76.3195
2.1487	75.8477
2.1434	75.1196
2.1381	75.2276
2.1328	75.7554
2.1275	76.3927
2.1223	76.9948
2.1171	77.6669
2.112	78.1666
2.1068	78.6427
2.1017	79.0248
2.0966	79.3854
2.0915	79.6835
2.0865	79.6519
2.0814	80.2855
2.0764	80.3714
2.0715	80.6731
2.0665	80.7856
2.0616	80.7921
2.0567	80.982
2.0518	81.0154
2.0469	81.1957
2.0421	80.9894
2.0373	80.9662
2.0325	80.9724
2.0277	80.9524
2.0229	80.5933
2.0182	80.289
2.0135	80.4914
2.0088	79.7983
2.0042	79.6432
