Name: Prehnite Ca_2Al_2Si_3O_10(OH)_2
Type: Mineral
Class: Silicate
Subclass: Phyllosilicate
Particle Size: Coarse
Sample No.: PS-21A
Owner: JPL
Wavelength Range: TIR
Origin: USA, Virginia, Centerville
Description: Particle size was 125-500um.Collected by Burminco Original ASTER Spectral Library name was jpl.nicolet.mineral.silicate.phyllosilicate.coarse.ps21a.spectrum.txt
Measurement: Hemispherical reflectance
X Units: Wavelength (micrometers)
Y Units: Reflectance (percent)
wavelength	value
15.3853	2.3635
15.1161	3.117
14.8563	2.9017
14.6052	3.6004
14.3624	4.0903
14.1276	4.8201
13.9004	5.6461
13.6803	7.3898
13.4671	10.4747
13.2604	11.1644
13.06	12.5428
12.8656	5.6758
12.6769	2.8787
12.4936	3.7697
12.3155	5.142
12.1425	5.1831
11.9742	3.5873
11.8106	4.0352
11.6513	5.2526
11.4963	5.5318
11.3454	4.8226
11.1983	5.5406
11.0551	7.0776
10.9154	9.6591
10.7793	13.464
10.6465	14.3042
10.5169	10.8661
10.3904	10.4888
10.267	13.2643
10.1464	21.8903
10.0287	25.74
9.9136	29.5568
9.8012	31.3696
9.6913	29.0086
9.5838	15.6361
9.4787	8.48
9.3758	12.9147
9.2752	25.749
9.1767	26.6906
9.0803	21.0528
8.9858	17.4166
8.8934	11.5158
8.8028	6.8343
8.714	2.9859
8.627	1.0036
8.5417	0.3377
8.4581	0.1856
8.3761	0.2071
8.2957	0.063
8.2169	0.2213
8.1395	0.2887
8.0635	0.4828
7.989	0.4474
7.9158	0.5559
7.8439	0.6614
7.7734	0.7094
7.7041	0.9436
7.636	0.8995
7.5691	1.0867
7.5034	1.1446
7.4388	1.2517
7.3753	1.3842
7.3129	1.4046
7.2515	1.5141
7.1912	1.619
7.1318	1.6559
7.0734	1.6242
7.016	1.6232
6.9595	1.7024
6.9039	1.7168
6.8492	1.6418
6.7953	1.7057
6.7423	1.8445
6.6901	1.8056
6.6387	1.9644
6.5881	1.794
6.5382	1.7756
6.4892	1.9091
6.4408	1.8764
6.3931	1.9046
6.3462	1.9565
6.2999	2.1041
6.2543	2.1445
6.2094	2.2706
6.1651	2.4269
6.1214	2.5286
6.0784	2.6299
6.0359	2.53
5.994	2.6861
5.9527	2.486
5.912	2.4714
5.8718	2.4971
5.8322	2.3248
5.7931	2.4267
5.7545	2.4215
5.7165	2.5326
5.6789	2.5143
5.6418	2.6571
5.6052	2.589
5.5691	2.6813
5.5334	2.7433
5.4982	2.4551
5.4635	2.4693
5.4291	2.5504
5.3952	2.6021
5.3618	2.6519
5.3287	2.9244
5.2961	3.2212
5.2638	3.5162
5.2319	4.1098
5.2004	4.6216
5.1693	4.6175
5.1386	4.3861
5.1082	4.1839
5.0782	4.7351
5.0485	5.068
5.0192	5.4999
4.9902	5.927
4.9616	6.3218
4.9332	7.0643
4.9052	8.3639
4.8776	9.0054
4.8502	9.483
4.8231	9.7156
4.7963	10.0269
4.7699	9.7293
4.7437	10.6448
4.7178	11.7673
4.6922	12.6153
4.6668	13.7185
4.6418	14.1277
4.617	14.3859
4.5924	15.6013
4.5681	16.6176
4.5441	17.0729
4.5203	17.9054
4.4968	18.9938
4.4735	20.174
4.4505	21.6155
4.4277	22.7847
4.4051	23.4914
4.3828	24.2543
4.3607	24.8438
4.3388	25.3206
4.3171	25.9465
4.2956	26.7606
4.2744	27.681
4.2534	27.9751
4.2325	28.7378
4.2119	28.5913
4.1915	28.4962
4.1712	28.5458
4.1512	28.7394
4.1313	29.1996
4.1117	29.8095
4.0922	30.2443
4.0729	30.2304
4.0538	30.133
4.0349	30.0864
4.0161	29.9338
3.9976	29.7195
3.9792	30.0074
3.9609	30.0924
3.9428	30.5915
3.9249	30.5387
3.9072	29.3549
3.8896	27.9924
3.8722	23.2839
3.8549	25.1565
3.8378	25.21
3.8208	25.9754
3.804	27.1104
3.7873	27.6087
3.7708	27.7406
3.7544	27.0549
3.7382	25.4766
3.7221	25.2817
3.7061	25.6044
3.6903	24.8676
3.6746	23.5572
3.659	22.7182
3.6436	22.603
3.6283	22.7717
3.6131	22.2865
3.5981	21.8154
3.5832	22.5165
3.5684	23.3349
3.5537	24.0058
3.5391	24.229
3.5247	24.2242
3.5104	24.6292
3.4962	25.106
3.4821	25.5664
3.4681	25.6237
3.4543	25.4533
3.4405	24.7155
3.4269	23.8142
3.4133	22.98
3.3999	22.6979
3.3866	22.3451
3.3733	21.6043
3.3602	20.8494
3.3472	19.894
3.3343	18.5346
3.3215	17.3289
3.3088	16.6353
3.2961	15.9588
3.2836	15.7182
3.2712	15.328
3.2588	14.6428
3.2466	13.7611
3.2345	13.3056
3.2224	12.8468
3.2104	12.1277
3.1985	11.0596
3.1867	9.8296
3.175	9.5142
3.1634	9.3029
3.1519	9.3039
3.1404	9.1484
3.129	8.8878
3.1178	8.4089
3.1065	7.9612
3.0954	7.7127
3.0844	7.5783
3.0734	7.6216
3.0625	7.4505
3.0517	6.9062
3.041	6.55
3.0303	5.9341
3.0197	5.6387
3.0092	5.0331
2.9987	4.5689
2.9884	4.2845
2.9781	4.2581
2.9678	4.0865
2.9577	4.0659
2.9476	4.0777
2.9376	4.3262
2.9276	4.2772
2.9177	4.1062
2.9079	3.9372
2.8982	3.5391
2.8885	3.3417
2.8789	3.6671
2.8693	3.9418
2.8598	4.5001
2.8504	1.6977
2.841	2.608
2.8317	3.3144
2.8224	4.1755
2.8133	4.3365
2.8041	4.5001
2.7951	4.1282
2.786	4.0367
2.7771	4.1674
2.7682	4.7055
2.7594	5.5169
2.7506	6.6949
2.7418	8.1497
2.7332	9.8423
2.7246	12.0883
2.716	13.1413
2.7075	14.7458
2.699	15.8598
2.6906	16.8841
2.6823	17.4107
2.674	17.9007
2.6657	19.1612
2.6575	19.2686
2.6494	21.1644
2.6413	21.0226
2.6332	18.87
2.6252	16.9126
2.6173	15.3882
2.6094	14.11
2.6015	13.9749
2.5937	14.7979
2.5859	13.9184
2.5782	12.7895
2.5706	12.1253
2.5629	12.9646
2.5554	13.2726
2.5478	14.5694
2.5403	15.0546
2.5329	14.2014
2.5255	13.9789
2.5181	16.5316
2.5108	18.8577
2.5035	19.4588
2.4963	19.4632
2.4891	19.9266
2.482	20.3737
2.4749	19.7282
2.4678	20.6981
2.4608	22.9028
2.4538	23.5873
2.4468	25.0397
2.4399	24.6958
2.4331	22.2311
2.4262	20.699
2.4194	18.5147
2.4127	16.4308
2.4059	15.7594
2.3993	14.9331
2.3926	13.6116
2.386	13.2182
2.3795	13.5514
2.3729	13.5842
2.3664	11.839
2.36	10.5149
2.3535	11.2932
2.3471	13.108
2.3408	14.1922
2.3345	12.5514
2.3282	12.6594
2.3219	18.2575
2.3157	26.9852
2.3095	32.4199
2.3034	32.7388
2.2972	29.0882
2.2911	27.5663
2.2851	26.337
2.279	26.0236
2.2731	28.7467
2.2671	32.2298
2.2612	34.248
2.2553	34.7129
2.2494	32.3971
2.2435	28.1911
2.2377	25.8391
2.232	25.2507
2.2262	29.4699
2.2205	33.7136
2.2148	36.7448
2.2091	42.8488
2.2035	48.822
2.1979	51.8102
2.1923	53.981
2.1868	55.2173
2.1812	55.9257
2.1758	56.8068
2.1703	57.8117
2.1649	58.7124
2.1595	59.315
2.1541	59.6099
2.1487	60.0308
2.1434	60.8634
2.1381	61.4562
2.1328	61.5991
2.1275	61.7691
2.1223	62.2832
2.1171	62.9669
2.112	63.1841
2.1068	63.341
2.1017	63.914
2.0966	64.0786
2.0915	65.2942
2.0865	65.5018
2.0814	65.9888
2.0764	66.125
2.0715	66.1232
2.0665	66.1732
2.0616	66.2891
2.0567	66.3157
2.0518	66.5643
2.0469	66.497
2.0421	66.3591
2.0373	66.2859
2.0325	65.7991
2.0277	65.3595
2.0229	65.3479
2.0182	65.5937
2.0135	65.3355
2.0088	65.8278
2.0042	65.425
