Name: Epidote Ca2(Al,Fe+3)3(SiO4)3(OH)
Type: Mineral
Class: Silicate
Subclass: Sorosilicate
Particle Size: Coarse
Sample No.: epidote_1
Owner: JHU
Wavelength Range: TIR
Origin: Donated by Bruce Hemingway;  Sample from Prince of WalesIsland, Alaska.
Description: The sample consisted of several deep green epidote crystals, 2 cm x 1 cm x 1 cm in size.  The sample looked pure in hand specimen and microscopic examination indicated pure, unaltered epidote.Sample was in Epidote Group. Particle size was 74-250 Micrometers. Original ASTER Spectral Library name was jhu.nicolet.mineral.silicate.sorosilicate.coarse.epidot1.spectrum.txt
Measurement: Bidirectional reflectance
X Units: Wavelength (micrometers)
Y Units: Reflectance (percent)
wavelength	value
25.0442	8.8281
24.3388	7.1526
23.6719	5.5002
23.0407	5.6059
22.4422	4.4995
21.8741	4.6543
21.334	4.2646
20.8199	3.7805
20.33	4.3904
19.8627	6.1369
19.4163	7.5857
18.9896	7.2468
18.5812	5.5373
18.19	6.0708
17.815	7.4407
17.4551	7.0481
17.1094	5.1235
16.7772	3.4685
16.4576	2.9082
16.15	2.4529
15.8537	3.2246
15.568	4.519
15.2925	5.5964
15.0265	4.6724
14.7697	3.0459
14.5214	2.9717
14.2814	3.1223
14.0492	2.728
13.8244	1.9436
13.6067	1.7085
13.3957	2.0144
13.1912	2.2517
12.9929	2.4543
12.8004	2.7017
12.6135	2.8618
12.432	3.1077
12.2557	3.4895
12.0843	3.9394
11.9176	4.0041
11.7555	4.2285
11.5977	4.5644
11.444	5.3047
11.2944	6.8733
11.1487	6.5727
11.0067	6.2046
10.8682	5.4612
10.7332	6.1763
10.6015	8.4448
10.473	11.0683
10.3476	11.2019
10.2251	9.2507
10.1056	8.5593
9.9887	5.241
9.8746	1.675
9.763	2.0312
9.6539	4.9924
9.5472	5.5974
9.4429	6.0705
9.3408	5.771
9.2409	6.0752
9.1431	5.7099
9.0474	5.3542
8.9536	5.1018
8.8618	4.4592
8.7718	3.9543
8.6837	2.5059
8.5973	1.2649
8.5126	0.5735
8.4295	0.5181
8.3481	0.6467
8.2682	0.8057
8.1898	0.9495
8.1129	1.0752
8.0374	1.1797
7.9634	1.2747
7.8906	1.3845
7.8192	1.5017
7.7491	1.6604
7.6802	1.8533
7.6126	2.0415
7.5461	2.1877
7.4807	2.3149
7.4165	2.4448
7.3534	2.574
7.2914	2.6802
7.2303	2.7429
7.1703	2.7537
7.1113	2.8318
7.0533	2.978
6.9962	3.0918
6.94	3.1343
6.8847	3.1758
6.8302	3.2251
6.7767	3.2891
6.7239	3.3369
6.672	3.3288
6.6209	3.3406
6.5705	3.3823
6.5209	3.458
6.4721	3.5515
6.424	3.7239
6.3766	3.8428
6.3299	3.8528
6.2838	3.8242
6.2385	3.8359
6.1937	3.9031
6.1496	3.8054
6.1062	3.6111
6.0633	3.4116
6.0211	3.0662
5.9794	2.6487
5.9383	2.4434
5.8978	2.4944
5.8578	2.5786
5.8184	2.6169
5.7794	2.5745
5.741	2.5395
5.7031	2.561
5.6657	2.5625
5.6288	2.6372
5.5924	2.7956
5.5564	3.1038
5.5209	3.4416
5.4859	3.7068
5.4513	3.9333
5.4171	4.0195
5.3833	4.0508
5.35	3.9643
5.3171	3.9626
5.2846	3.8513
5.2524	3.6558
5.2207	3.5767
5.1893	3.762
5.1584	4.1345
5.1277	4.2295
5.0975	4.1611
5.0676	4.1538
5.038	4.0945
5.0088	4.0264
4.98	3.6621
4.9514	3.5503
4.9232	3.6479
4.8953	3.7136
4.8678	4.1504
4.8405	4.4661
4.8135	4.6113
4.7868	5.0644
4.7605	5.8142
4.7344	6.2939
4.7086	6.3264
4.6831	6.4719
4.6578	6.6042
4.6328	6.4722
4.6081	6.4253
4.5837	7.0825
4.5595	7.915
4.5356	8.6333
4.5119	9.2732
4.4884	9.8901
4.4652	10.3286
4.4423	10.594
4.4196	10.8103
4.3971	10.9775
4.3748	11.1382
4.3528	11.2705
4.331	11.3633
4.3094	11.4138
4.288	11.4514
4.2668	11.5022
4.2458	11.5595
4.2251	11.6584
4.2045	11.7707
4.1841	11.8835
4.164	11.978
4.144	12.0205
4.1242	12.0652
4.1046	12.0822
4.0852	12.0749
4.066	12.0534
4.047	11.9851
4.0281	11.893
4.0094	11.6728
3.9909	11.279
3.9725	11.3523
3.9544	11.6303
3.9363	11.8774
3.9185	12.08
3.9008	12.1948
3.8833	12.2348
3.8659	12.2407
3.8487	12.2549
3.8316	12.2653
3.8147	12.2746
3.7979	12.2746
3.7813	12.2927
3.7648	12.2744
3.7485	12.1967
3.7323	12.0913
3.7162	11.9409
3.7003	11.8452
3.6845	11.7693
3.6689	11.7317
3.6534	11.7981
3.638	11.8156
3.6227	11.7783
3.6076	11.6948
3.5926	11.5639
3.5777	11.4729
3.563	11.3664
3.5484	11.2431
3.5338	11.0891
3.5195	10.9275
3.5052	10.7048
3.491	10.4226
3.477	10.1299
3.463	9.9267
3.4492	9.7339
3.4355	9.4907
3.4219	9.2273
3.4084	9.094
3.395	9.1057
3.3817	9.1506
3.3685	9.0342
3.3554	8.7873
3.3425	8.5486
3.3296	8.2903
3.3168	8.0583
3.3041	7.8425
3.2915	7.5461
3.279	7.1084
3.2666	6.7058
3.2543	6.4836
3.2421	6.3354
3.23	6.178
3.218	5.9404
3.206	5.6357
3.1942	5.3374
3.1824	5.0066
3.1707	4.7427
3.1591	4.5974
3.1476	4.479
3.1362	4.3174
3.1249	4.093
3.1136	3.8276
3.1024	3.5798
3.0913	3.4197
3.0803	3.2969
3.0694	3.2275
3.0585	3.1919
3.0477	3.1641
3.037	3.1262
3.0264	3.0889
3.0158	3.0591
3.0053	2.9873
2.9949	2.8855
2.9845	2.7632
2.9743	2.7661
2.9641	2.7183
2.9539	2.5571
2.9439	2.4951
2.9339	2.5989
2.9239	2.75
2.9141	2.8862
2.9043	2.9978
2.8946	3.0161
2.8849	3.0762
2.8753	3.123
2.8658	3.2392
2.8563	3.3967
2.8469	3.6267
2.8375	3.977
2.8282	4.4402
2.819	4.8015
2.8098	5.3567
2.8007	5.5705
2.7917	6.0088
2.7827	6.2344
2.7738	6.6343
2.7649	7.2558
2.7561	7.8906
2.7473	8.405
2.7386	8.7973
2.7299	9.2275
2.7213	9.542
2.7128	10.0842
2.7043	10.6369
2.6959	11.1057
2.6875	11.437
2.6791	11.5703
2.6709	11.9028
2.6626	12.3025
2.6545	12.5407
2.6463	12.6255
2.6382	12.6674
2.6302	12.7346
2.6222	12.8181
2.6143	12.8437
2.6064	12.9272
2.5986	13.0905
2.5908	13.2016
2.583	13.2754
2.5753	13.2705
2.5677	13.2114
2.5601	13.2487
2.5525	13.1711
2.545	13.1682
2.5375	13.1936
2.5301	13.2253
2.5227	13.2741
2.5154	13.3012
2.5081	13.3657
2.5008	13.5171
2.4936	13.6723
2.4864	13.747
2.4793	13.8916
2.4722	13.9848
2.4651	14.0039
2.4581	14.0688
2.4511	14.1748
2.4442	14.1992
2.4373	14.2583
2.4305	14.2422
2.4236	14.2295
2.4169	14.1318
2.4101	14.0551
2.4034	13.8662
2.3967	13.686
2.3901	13.3965
2.3835	12.9753
2.377	12.4492
2.3704	11.6897
2.364	10.5923
2.3575	9.0571
2.3511	7.4162
2.3447	6.1926
2.3384	5.7641
2.3321	5.9563
2.3258	6.6338
2.3195	7.4626
2.3133	8.2583
2.3071	9.1982
2.301	10.1335
2.2949	10.7976
2.2888	11.2138
2.2828	11.6054
2.2767	11.894
2.2708	11.8195
2.2648	11.5376
2.2589	11.0188
2.253	10.4804
2.2471	11.133
2.2413	12.1711
2.2355	13.0639
2.2297	13.5503
2.224	13.8784
2.2183	14.0442
2.2126	14.1701
2.207	14.2187
2.2013	14.2736
2.1957	14.3491
2.1902	14.4428
2.1846	14.4575
2.1791	14.4887
2.1736	14.54
2.1682	14.6252
2.1628	14.6945
2.1574	14.7563
2.152	14.707
2.1466	14.7329
2.1413	14.7124
2.136	14.8012
2.1308	14.771
2.1255	14.7563
2.1203	14.7929
2.1151	14.8293
2.11	14.8508
2.1048	14.8315
2.0997	14.8838
2.0946	14.926
2.0895	14.9621
2.0845	14.9182
2.0795	14.8613
