Name: Anorthite (Feldspar) (NaSi,CaAl)AlSi_2O_8
Type: Mineral
Class: Silicate
Subclass: Tectosilicate
Particle Size: Fine
Sample No.: TS-5A
Owner: JPL
Wavelength Range: TIR
Description: Particle size was 0-45um.Collected by JPL Original ASTER Spectral Library name was jpl.nicolet.mineral.silicate.tectosilicate.fine.ts05a.spectrum.txt
Measurement: Hemispherical reflectance
X Units: Wavelength (micrometers)
Y Units: Reflectance (percent)
wavelength	value
15.3853	3.2192
15.1161	2.2515
14.8563	1.6824
14.6052	1.812
14.3624	1.954
14.1276	2.5793
13.9004	2.7362
13.6803	2.4174
13.4671	2.7251
13.2604	2.8248
13.06	2.5152
12.8656	2.8076
12.6769	4.7154
12.4936	6.8546
12.3155	8.3814
12.1425	9.0807
11.9742	9.1926
11.8106	8.8667
11.6513	8.0808
11.4963	7.2614
11.3454	6.7195
11.1983	6.0986
11.0551	6.0571
10.9154	6.0095
10.7793	6.0893
10.6465	5.7954
10.5169	5.5127
10.3904	4.9614
10.267	4.0238
10.1464	3.9292
10.0287	3.6157
9.9136	3.6232
9.8012	3.7902
9.6913	3.8161
9.5838	3.4116
9.4787	2.642
9.3758	2.0996
9.2752	2.2838
9.1767	2.576
9.0803	3.1073
8.9858	3.4714
8.8934	3.4629
8.8028	3.8037
8.714	4.0081
8.627	3.8975
8.5417	3.6704
8.4581	3.3263
8.3761	2.5728
8.2957	1.7292
8.2169	1.0068
8.1395	0.851
8.0635	1.0853
7.989	1.3163
7.9158	1.9527
7.8439	2.5155
7.7734	3.41
7.7041	4.2715
7.636	5.3558
7.5691	6.2373
7.5034	7.3541
7.4388	8.3509
7.3753	9.3224
7.3129	10.2752
7.2515	11.0633
7.1912	11.9173
7.1318	12.6273
7.0734	13.1616
7.016	13.7
6.9595	14.5316
6.9039	14.9381
6.8492	15.3984
6.7953	16.0693
6.7423	16.523
6.6901	16.9348
6.6387	17.4839
6.5881	17.6564
6.5382	18.0299
6.4892	18.6146
6.4408	18.5585
6.3931	18.4944
6.3462	18.6268
6.2999	18.328
6.2543	18.5585
6.2094	18.6866
6.1651	18.6463
6.1214	18.7296
6.0784	19.1252
6.0359	19.2002
5.994	20.2295
5.9527	21.6591
5.912	23.1616
5.8718	24.7928
5.8322	26.5772
5.7931	27.8527
5.7545	29.3159
5.7165	30.2752
5.6789	30.8959
5.6418	31.7178
5.6052	32.0186
5.5691	32.2059
5.5334	32.215
5.4982	31.9156
5.4635	31.7752
5.4291	32.1885
5.3952	33.3724
5.3618	34.7363
5.3287	35.8108
5.2961	36.7762
5.2638	37.9261
5.2319	39.1352
5.2004	39.9628
5.1693	40.9783
5.1386	42.1517
5.1082	43.2682
5.0782	43.9723
5.0485	44.87
5.0192	45.8537
4.9902	46.9425
4.9616	47.9312
4.9332	48.376
4.9052	48.987
4.8776	49.6064
4.8502	50.3161
4.8231	50.663
4.7963	51.4275
4.7699	51.8064
4.7437	52.6529
4.7178	53.399
4.6922	53.577
4.6668	53.1731
4.6418	53.0508
4.617	53.828
4.5924	55.8044
4.5681	57.9654
4.5441	59.1977
4.5203	59.8618
4.4968	60.3051
4.4735	60.7038
4.4505	61.1273
4.4277	61.9895
4.4051	62.5585
4.3828	63.1296
4.3607	63.7628
4.3388	64.1703
4.3171	64.3843
4.2956	64.3445
4.2744	64.7696
4.2534	66.1468
4.2325	64.9536
4.2119	66.5736
4.1915	67.6039
4.1712	67.7126
4.1512	67.8913
4.1313	68.0835
4.1117	68.1188
4.0922	68.3346
4.0729	68.3836
4.0538	68.3671
4.0349	68.3783
4.0161	68.3788
3.9976	68.2664
3.9792	68.1388
3.9609	68.2047
3.9428	68.4558
3.9249	68.3655
3.9072	68.3369
3.8896	68.0804
3.8722	68.0549
3.8549	67.9191
3.8378	67.8408
3.8208	67.587
3.804	67.4285
3.7873	67.1105
3.7708	66.9212
3.7544	66.5128
3.7382	66.3013
3.7221	65.9443
3.7061	65.7017
3.6903	65.3035
3.6746	65.0271
3.659	64.6304
3.6436	64.2978
3.6283	64.0045
3.6131	63.5078
3.5981	63.1064
3.5832	62.6865
3.5684	62.1045
3.5537	61.6246
3.5391	61.0132
3.5247	60.3321
3.5104	59.2988
3.4962	58.6582
3.4821	58.2049
3.4681	57.6696
3.4543	57.2814
3.4405	56.6151
3.4269	55.2852
3.4133	54.3432
3.3999	54.058
3.3866	53.7878
3.3733	52.8825
3.3602	52.64
3.3472	52.183
3.3343	51.5452
3.3215	50.9495
3.3088	50.2862
3.2961	49.5925
3.2836	48.8867
3.2712	48.0376
3.2588	47.2902
3.2466	46.411
3.2345	45.69
3.2224	44.7047
3.2104	43.9208
3.1985	42.8673
3.1867	41.6939
3.175	40.3746
3.1634	39.3732
3.1519	38.6604
3.1404	38.1322
3.129	38.1209
3.1178	38.2589
3.1065	38.3606
3.0954	38.1255
3.0844	37.9599
3.0734	37.8609
3.0625	37.3872
3.0517	36.455
3.041	35.6381
3.0303	34.9491
3.0197	33.9377
3.0092	32.99
2.9987	32.8388
2.9884	33.0137
2.9781	33.278
2.9678	33.1862
2.9577	32.7625
2.9476	32.5126
2.9376	32.0205
2.9276	31.8974
2.9177	32.2366
2.9079	32.3435
2.8982	32.3592
2.8885	31.7655
2.8789	30.6936
2.8693	29.3335
2.8598	30.1559
2.8504	31.6189
2.841	32.4424
2.8317	32.8597
2.8224	32.6744
2.8133	32.5098
2.8041	33.0008
2.7951	33.0864
2.786	33.9572
2.7771	33.8581
2.7682	33.5295
2.7594	32.4756
2.7506	31.7209
2.7418	33.917
2.7332	37.303
2.7246	42.2197
2.716	47.9271
2.7075	55.9055
2.699	63.2621
2.6906	68.1576
2.6823	70.6698
2.674	72.2555
2.6657	73.7587
2.6575	73.43
2.6494	73.7502
2.6413	73.9756
2.6332	74.4926
2.6252	74.5445
2.6173	74.9309
2.6094	74.6761
2.6015	74.8821
2.5937	75.4347
2.5859	75.0902
2.5782	75.0193
2.5706	75.0937
2.5629	75.2805
2.5554	75.0316
2.5478	75.2515
2.5403	75.3111
2.5329	75.2734
2.5255	75.3789
2.5181	75.5468
2.5108	75.5557
2.5035	75.6056
2.4963	75.452
2.4891	75.6238
2.482	75.4087
2.4749	75.4134
2.4678	75.3172
2.4608	75.5178
2.4538	75.7037
2.4468	75.7368
2.4399	75.9107
2.4331	75.9979
2.4262	76.0998
2.4194	76.3751
2.4127	76.248
2.4059	76.2202
2.3993	76.1181
2.3926	75.8855
2.386	75.825
2.3795	75.7647
2.3729	75.4798
2.3664	75.0729
2.36	74.6079
2.3535	74.5098
2.3471	74.8046
2.3408	75.1623
2.3345	75.155
2.3282	75.3193
2.3219	75.8681
2.3157	76.3191
2.3095	76.4917
2.3034	76.5328
2.2972	76.6363
2.2911	76.8073
2.2851	76.9548
2.279	77.2129
2.2731	77.15
2.2671	77.2721
2.2612	77.0864
2.2553	77.2291
2.2494	77.3671
2.2435	77.4761
2.2377	77.4818
2.232	77.8902
2.2262	77.9752
2.2205	78.1349
2.2148	78.1082
2.2091	78.189
2.2035	78.0006
2.1979	78.0271
2.1923	77.9256
2.1868	78.2677
2.1812	78.3945
2.1758	78.4134
2.1703	78.5132
2.1649	78.6832
2.1595	78.9185
2.1541	78.9928
2.1487	78.9198
2.1434	78.916
2.1381	79.0286
2.1328	78.9036
2.1275	78.7112
2.1223	79.2406
2.1171	79.096
2.112	79.2105
2.1068	79.1328
2.1017	79.2343
2.0966	79.2415
2.0915	79.5715
2.0865	79.3434
2.0814	79.1688
2.0764	78.7406
2.0715	79.2105
2.0665	79.3626
2.0616	79.2108
2.0567	79.2507
2.0518	79.244
2.0469	78.9903
2.0421	79.1372
2.0373	79.1635
2.0325	79.159
2.0277	79.4085
2.0229	79.1396
2.0182	79.0044
2.0135	79.1469
2.0088	78.8873
2.0042	79.1195
