Name: Dolomite CaMg(CO3)2
Type: Mineral
Class: Carbonate
Subclass: None
Particle Size: Solid
Sample No.: dolomite_3
Owner: JHU
Wavelength Range: TIR
Origin: Donated by Norma Vergo;  sample from Corydon, Indiana.
Description: The hand sample was massive, multicrystalline, and pink in color and appeared to be pure dolomite. Microscopic examination confirmed this. Sample measured had fracture surface. Original ASTER Spectral Library name was jhu.nicolet.mineral.carbonate.none.solid.dolomi3.spectrum.txt
Measurement: Bidirectional reflectance
X Units: Wavelength (micrometers)
Y Units: Reflectance (percent)
wavelength	value
25.0442	21.6835
24.3388	20.9033
23.6719	19.247
23.0407	15.7382
22.4422	10.6762
21.8741	5.748
21.334	2.1475
20.8199	0.7266
20.33	0.7412
19.8627	0.8674
19.4163	0.9983
18.9896	1.1829
18.5812	1.3401
18.19	1.5276
17.815	1.6562
17.4551	1.8176
17.1094	1.9609
16.7772	2.0745
16.4576	2.1985
16.15	2.2952
15.8537	2.3867
15.568	2.4658
15.2925	2.5337
15.0265	2.6194
14.7697	2.6785
14.5214	2.7937
14.2814	2.8984
14.0492	3.0781
13.8244	3.5723
13.6067	1.8159
13.3957	2.5005
13.1912	2.7324
12.9929	2.8906
12.8004	2.9971
12.6135	3.1025
12.432	3.1704
12.2557	3.2617
12.0843	3.3677
11.9176	3.4863
11.7555	3.6728
11.5977	4.0261
11.444	5.4761
11.2944	12.1103
11.1487	14.5131
11.0067	3.6968
10.8682	3.0332
10.7332	3.0566
10.6015	3.1235
10.473	3.1824
10.3476	3.2324
10.2251	3.2856
10.1056	3.3022
9.9887	3.3481
9.8746	3.3762
9.763	3.3931
9.6539	3.417
9.5472	3.4531
9.4429	3.479
9.3408	3.4963
9.2409	3.5207
9.1431	3.5381
9.0474	3.5796
8.9536	3.6162
8.8618	3.6665
8.7718	3.728
8.6837	3.7734
8.5973	3.8476
8.5126	3.8962
8.4295	3.9563
8.3481	4.0261
8.2682	4.1138
8.1898	4.1941
8.1129	4.2573
8.0374	4.3613
7.9634	4.4634
7.8906	4.5793
7.8192	4.7068
7.7491	4.8418
7.6802	4.9682
7.6126	5.1438
7.5461	5.3362
7.4807	5.5522
7.4165	5.8244
7.3534	6.1931
7.2914	6.6526
7.2303	7.2356
7.1703	8.1489
7.1113	9.6728
7.0533	12.1833
6.9962	14.7121
6.94	15.1196
6.8847	15.6023
6.8302	16.2561
6.7767	16.8796
6.7239	17.5998
6.672	18.738
6.6209	21.0148
6.5705	22.7941
6.5209	24.1569
6.4721	25.3212
6.424	26.0405
6.3766	24.935
6.3299	16.3437
6.2838	10.7715
6.2385	7.3554
6.1937	5.3713
6.1496	3.4514
6.1062	1.7961
6.0633	0.7502
6.0211	0.4468
5.9794	0.498
5.9383	0.5981
5.8978	0.6882
5.8578	0.7832
5.8184	0.8767
5.7794	0.9619
5.741	1.0403
5.7031	1.1177
5.6657	1.1811
5.6288	1.2434
5.5924	1.303
5.5564	1.3401
5.5209	1.3518
5.4859	1.2859
5.4513	1.3579
5.4171	1.4902
5.3833	1.584
5.35	1.6638
5.3171	1.709
5.2846	1.7725
5.2524	1.8479
5.2207	1.925
5.1893	1.9976
5.1584	2.0874
5.1277	2.1487
5.0975	2.1902
5.0676	2.0813
5.038	2.2893
5.0088	2.3975
4.98	2.446
4.9514	2.4841
4.9232	2.5225
4.8953	2.5601
4.8678	2.5901
4.8405	2.6079
4.8135	2.6279
4.7868	2.6423
4.7605	2.6592
4.7344	2.6472
4.7086	2.5935
4.6831	2.49
4.6578	2.3574
4.6328	2.3425
4.6081	2.352
4.5837	2.4224
4.5595	2.4954
4.5356	2.5561
4.5119	2.6262
4.4884	2.7205
4.4652	2.6794
4.4423	2.6208
4.4196	2.668
4.3971	2.7756
4.3748	2.8679
4.3528	2.9114
4.331	2.7854
4.3094	2.7634
4.288	2.7637
4.2668	2.8018
4.2458	2.8398
4.2251	2.8564
4.2045	2.9038
4.1841	2.9116
4.164	2.8884
4.144	2.8511
4.1242	2.852
4.1046	2.8347
4.0852	2.7908
4.066	2.7476
4.047	2.6504
4.0281	2.5872
4.0094	2.4924
3.9909	2.4307
3.9725	2.3455
3.9544	2.2759
3.9363	2.2651
3.9185	2.2566
3.9008	2.3054
3.8833	2.3276
3.8659	2.3491
3.8487	2.4375
3.8316	2.4582
3.8147	2.4058
3.7979	2.3862
3.7813	2.457
3.7648	2.5444
3.7485	2.7202
3.7323	2.8779
3.7162	2.957
3.7003	3.0351
3.6845	3.1072
3.6689	3.1562
3.6534	3.1851
3.638	3.2109
3.6227	3.2148
3.6076	3.2031
3.5926	3.1953
3.5777	3.1785
3.563	3.0898
3.5484	2.9365
3.5338	2.9429
3.5195	2.8061
3.5052	2.6499
3.491	2.5386
3.477	2.4873
3.463	2.4565
3.4492	2.4321
3.4355	2.4695
3.4219	2.5161
3.4084	2.5391
3.395	2.5522
3.3817	2.5832
3.3685	2.5872
3.3554	2.5515
3.3425	2.5376
3.3296	2.5325
3.3168	2.509
3.3041	2.4934
3.2915	2.7053
3.279	2.8474
3.2666	2.9377
3.2543	3.0012
3.2421	3.0537
3.23	3.1006
3.218	3.1184
3.206	3.1467
3.1942	3.1587
3.1824	3.1787
3.1707	3.2065
3.1591	3.1953
3.1476	3.166
3.1362	3.1448
3.1249	3.1562
3.1136	3.1321
3.1024	3.1435
3.0913	3.1125
3.0803	3.1167
3.0694	3.1311
3.0585	3.1516
3.0477	3.1721
3.037	3.1721
3.0264	3.1875
3.0158	3.2139
3.0053	3.2256
2.9949	3.2114
2.9845	3.2075
2.9743	3.2405
2.9641	3.248
2.9539	3.2366
2.9439	3.2207
2.9339	3.2317
2.9239	3.2307
2.9141	3.2363
2.9043	3.2656
2.8946	3.2815
2.8849	3.2861
2.8753	3.2844
2.8658	3.3196
2.8563	3.301
2.8469	3.3105
2.8375	3.3545
2.8282	3.3945
2.819	3.3928
2.8098	3.4033
2.8007	3.3809
2.7917	3.3628
2.7827	3.3467
2.7738	3.2886
2.7649	3.3154
2.7561	3.3833
2.7473	3.4683
2.7386	3.5513
2.7299	3.6553
2.7213	3.7593
2.7128	3.8711
2.7043	3.9487
2.6959	3.9829
2.6875	4.0034
2.6791	4.0864
2.6709	4.1523
2.6626	4.2285
2.6545	4.2666
2.6463	4.293
2.6382	4.3096
2.6302	4.3115
2.6222	4.3208
2.6143	4.3242
2.6064	4.3183
2.5986	4.3227
2.5908	4.3135
2.583	4.2817
2.5753	4.1997
2.5677	4.1665
2.5601	4.1172
2.5525	4.0351
2.545	3.8481
2.5375	3.6133
2.5301	3.459
2.5227	3.3809
2.5154	3.3047
2.5081	3.352
2.5008	3.3555
2.4936	3.3965
2.4864	3.4673
2.4793	3.5644
2.4722	3.6235
2.4651	3.5767
2.4581	3.5976
2.4511	3.6509
2.4442	3.7392
2.4373	3.8574
2.4305	3.9424
2.4236	3.96
2.4169	4.0039
2.4101	4.0664
2.4034	4.0654
2.3967	4.1152
2.3901	4.124
2.3835	4.1221
2.377	4.1514
2.3704	4.1387
2.364	4.1709
2.3575	4.0596
2.3511	4.001
2.3447	3.8769
2.3384	3.6641
2.3321	3.6172
2.3258	3.5508
2.3195	3.54
2.3133	3.5586
2.3071	3.6152
2.301	3.6172
2.2949	3.6738
2.2888	3.7285
2.2828	3.7666
2.2767	3.7627
2.2708	3.7226
2.2648	3.8174
2.2589	3.8711
2.253	3.959
2.2471	4.0049
2.2413	4.043
2.2355	4.0752
2.2297	4.1445
2.224	4.1182
2.2183	4.1719
2.2126	4.1807
2.207	4.2305
2.2013	4.2773
2.1957	4.2812
2.1902	4.3291
2.1846	4.2851
2.1791	4.2676
2.1736	4.3369
2.1682	4.2851
2.1628	4.3281
2.1574	4.3408
2.152	4.3359
2.1466	4.3516
2.1413	4.3574
2.136	4.3721
2.1308	4.3994
2.1255	4.3711
2.1203	4.3994
2.1151	4.3603
2.11	4.3916
2.1048	4.4385
2.0997	4.4932
2.0946	4.458
2.0895	4.4922
2.0845	4.5391
2.0795	4.5312
