Name: Marcasite FeS_2
Type: Mineral
Class: Sulfide
Subclass: None
Particle Size: Coarse
Sample No.: S-10A
Owner: JPL
Wavelength Range: VSWIR
Origin: USA, Indiana, Jasper County, Rensselaer, Pleasant Ridge Quarry
Description: Particle size was 125-500um.Collected by Ward's Original ASTER Spectral Library name was jpl.beckman.mineral.sulfide.none.coarse.s10a.spectrum.txt
Measurement: Hemispherical reflectance
X Units: Wavelength (micrometers)
Y Units: Reflectance (percent)
wavelength	value
0.4	3.81
0.403	3.76
0.406	3.69
0.409	3.8
0.412	3.86
0.415	3.87
0.418	3.87
0.421	3.8
0.424	3.92
0.427	3.92
0.43	3.92
0.433	3.98
0.436	4.04
0.439	4.02
0.442	3.97
0.445	4.1
0.448	4.1
0.451	4.09
0.454	4.19
0.457	4.14
0.46	4.27
0.463	4.39
0.466	4.27
0.469	4.32
0.472	4.33
0.475	4.44
0.478	4.57
0.481	4.37
0.484	4.49
0.487	4.53
0.49	4.64
0.493	4.61
0.496	4.65
0.499	4.69
0.502	4.69
0.505	4.91
0.508	4.8
0.511	4.87
0.514	4.91
0.517	4.92
0.52	4.97
0.523	5.08
0.526	5.25
0.529	5.13
0.532	5.19
0.535	5.36
0.538	5.43
0.541	5.49
0.544	5.41
0.547	5.48
0.55	5.62
0.553	5.67
0.556	5.8
0.559	5.59
0.562	5.71
0.565	5.69
0.568	5.76
0.571	5.77
0.574	5.79
0.577	5.81
0.58	5.94
0.583	5.93
0.586	5.88
0.589	5.87
0.592	6.07
0.595	6.06
0.598	6.09
0.601	6.1
0.604	6.21
0.607	6.27
0.61	6.33
0.613	6.41
0.616	6.37
0.619	6.25
0.622	6.48
0.625	6.52
0.628	6.6
0.631	6.54
0.634	6.55
0.637	6.76
0.64	6.82
0.643	6.83
0.646	6.78
0.649	6.75
0.652	6.93
0.655	7
0.658	7.03
0.661	6.98
0.664	6.99
0.667	7.04
0.67	7.12
0.673	7.22
0.676	7.17
0.679	7.2
0.682	7.29
0.685	7.33
0.688	7.28
0.691	7.39
0.694	7.41
0.697	7.4
0.7	7.51
0.703	7.55
0.706	7.65
0.709	7.61
0.712	7.55
0.715	7.73
0.718	7.79
0.721	7.83
0.724	7.81
0.727	7.78
0.73	8.01
0.733	7.97
0.736	8.01
0.739	7.95
0.742	8
0.745	8
0.748	8.23
0.751	8.28
0.754	8.24
0.757	8.19
0.76	8.16
0.763	8.41
0.766	8.34
0.769	8.51
0.772	8.41
0.775	8.51
0.778	8.56
0.781	8.62
0.784	8.63
0.787	8.77
0.79	8.85
0.793	8.84
0.796	9.01
0.799	9.01
0.808	9.16
0.82	9.31
0.832	9.41
0.844	9.61
0.856	9.73
0.868	9.87
0.88	10.06
0.892	10.18
0.904	10.31
0.916	10.54
0.928	10.64
0.94	10.85
0.952	10.93
0.964	11.09
0.976	11.21
0.988	11.31
1	11.5
1.012	11.65
1.024	11.75
1.036	11.9
1.048	12.05
1.06	12.16
1.072	12.31
1.084	12.41
1.096	12.58
1.108	12.69
1.12	12.82
1.132	12.95
1.144	13.11
1.156	13.16
1.168	13.34
1.18	13.47
1.192	13.63
1.204	13.74
1.216	13.9
1.228	14.08
1.24	14.15
1.252	14.36
1.264	14.49
1.276	14.49
1.288	14.64
1.3	14.74
1.312	14.79
1.324	14.94
1.336	15.07
1.348	15.16
1.36	15.26
1.372	15.3
1.384	15.52
1.396	15.61
1.408	15.72
1.42	15.8
1.432	16
1.444	16.08
1.456	16.21
1.468	16.36
1.48	16.4
1.492	16.54
1.504	16.51
1.516	16.6
1.528	16.72
1.54	16.91
1.552	16.98
1.564	17.08
1.576	17.19
1.588	17.26
1.6	17.31
1.612	17.44
1.624	17.5
1.636	17.51
1.648	17.63
1.66	17.7
1.672	17.81
1.684	17.96
1.696	17.94
1.708	18.08
1.72	18.09
1.732	18.19
1.744	18.23
1.756	18.31
1.768	18.31
1.78	18.38
1.792	18.47
1.804	18.55
1.816	18.61
1.828	18.67
1.84	18.7
1.852	18.73
1.864	18.78
1.876	18.84
1.888	18.86
1.9	18.91
1.912	18.97
1.924	19.05
1.936	19.12
1.948	19.19
1.96	19.22
1.972	19.28
1.984	19.39
1.996	19.43
2.008	19.51
2.02	19.64
2.032	19.58
2.044	19.68
2.056	19.74
2.068	19.77
2.08	19.82
2.092	19.96
2.104	19.98
2.116	20.03
2.128	20.1
2.14	20.21
2.152	20.14
2.164	20.2
2.176	20.19
2.188	20.23
2.2	20.31
2.212	20.32
2.224	20.32
2.236	20.33
2.248	20.44
2.26	20.44
2.272	20.45
2.284	20.44
2.296	20.53
2.308	20.8
2.32	20.89
2.332	20.87
2.344	21
2.356	21.06
2.368	21.03
2.38	21.06
2.392	21.08
2.404	21.1
2.416	21.09
2.428	21.19
2.44	21.08
2.452	21.12
2.464	21.14
2.476	21.2
2.488	21.29
2.5	21.44
