Name: Augite (Ca,Na)(Mg,Fe,Al,Ti)(Si,Al)2O6
Type: Mineral
Class: Silicate
Subclass: Inosilicate
Particle Size: Coarse
Sample No.: augite_1
Owner: JHU
Wavelength Range: TIR
Origin: Sample from Monteagle Township, Hostings Co., Ontario,Canada via the Smithsonian (sample no. NMNH 117461).
Description: Sample consisted of  fragments of well-formed crystal(s), with some surface contamination by calcite.  Small grains were deep, translucent green and generally clear and unaltered.  The powdered sample was washed in dilute HCl to remove residual calcite, but an extremely weak carbonate band is still seen in the spectrum of the 75-250 micrometers size range near 4.0 micrometers. Particle size was 74-250 Micrometers.(Pyroxene Group - single chain) Original ASTER Spectral Library name was jhu.nicolet.mineral.silicate.inosilicate.coarse.augite1.spectrum.txt
Measurement: Bidirectional reflectance
X Units: Wavelength (micrometers)
Y Units: Reflectance (percent)
wavelength	value
25.0442	4.6606
24.3388	3.7681
23.6719	3.7273
23.0407	4.1619
22.4422	5.1887
21.8741	6.0417
21.334	6.7678
20.8199	6.2305
20.33	6.0456
19.8627	6.8584
19.4163	7.5366
18.9896	7.8965
18.5812	8.2583
18.19	8.0625
17.815	6.9424
17.4551	4.8232
17.1094	2.6103
16.7772	1.4717
16.4576	1.4102
16.15	1.646
15.8537	2.0134
15.568	1.6965
15.2925	1.583
15.0265	1.8552
14.7697	1.7131
14.5214	1.5984
14.2814	1.6514
14.0492	1.7483
13.8244	1.8398
13.6067	1.916
13.3957	1.9748
13.1912	2.0486
12.9929	2.1616
12.8004	2.2075
12.6135	2.3201
12.432	2.4673
12.2557	2.5635
12.0843	2.7568
11.9176	3.1177
11.7555	3.8896
11.5977	4.7168
11.444	5.1653
11.2944	5.3176
11.1487	5.4524
11.0067	5.8262
10.8682	5.9636
10.7332	5.2786
10.6015	5.688
10.473	5.8928
10.3476	5.5156
10.2251	3.6392
10.1056	2.636
9.9887	2.8464
9.8746	2.9731
9.763	2.9944
9.6539	3.0837
9.5472	3.573
9.4429	4.5698
9.3408	5.3054
9.2409	5.583
9.1431	5.801
9.0474	6.0793
8.9536	6.4133
8.8618	6.5305
8.7718	5.7632
8.6837	4.2248
8.5973	2.5876
8.5126	1.3437
8.4295	0.6399
8.3481	0.6877
8.2682	0.7893
8.1898	0.8857
8.1129	0.957
8.0374	1.0212
7.9634	1.0732
7.8906	1.1492
7.8192	1.217
7.7491	1.2905
7.6802	1.3796
7.6126	1.4421
7.5461	1.4976
7.4807	1.5647
7.4165	1.6335
7.3534	1.6592
7.2914	1.6792
7.2303	1.7422
7.1703	1.8091
7.1113	1.896
7.0533	2.0015
6.9962	2.0771
6.94	2.1145
6.8847	2.0818
6.8302	2.0483
6.7767	1.9734
6.7239	1.8745
6.672	1.8489
6.6209	1.8152
6.5705	1.7073
6.5209	1.6208
6.4721	1.6248
6.424	1.6912
6.3766	1.7883
6.3299	1.8325
6.2838	1.8755
6.2385	1.9473
6.1937	1.9563
6.1496	1.8955
6.1062	1.9163
6.0633	2.0459
6.0211	2.1951
5.9794	2.5215
5.9383	2.9311
5.8978	3.1919
5.8578	3.2998
5.8184	3.5339
5.7794	3.8235
5.741	4.0015
5.7031	4.0796
5.6657	4.0649
5.6288	3.9966
5.5924	3.9031
5.5564	3.8249
5.5209	3.7297
5.4859	3.5017
5.4513	3.2329
5.4171	3.0381
5.3833	2.9028
5.35	2.7541
5.3171	2.6487
5.2846	2.6255
5.2524	2.6287
5.2207	2.5469
5.1893	2.404
5.1584	2.2849
5.1277	2.1814
5.0975	2.1453
5.0676	2.2087
5.038	2.3606
5.0088	2.4831
4.98	2.5505
4.9514	2.5915
4.9232	2.6389
4.8953	2.6904
4.8678	2.8242
4.8405	3.0129
4.8135	3.2307
4.7868	3.4319
4.7605	3.7043
4.7344	3.9858
4.7086	4.3374
4.6831	4.5649
4.6578	4.8911
4.6328	5.3679
4.6081	5.7881
4.5837	6.1821
4.5595	6.6177
4.5356	7.0564
4.5119	7.3347
4.4884	7.5151
4.4652	7.6435
4.4423	7.7532
4.4196	7.862
4.3971	7.9636
4.3748	8.0744
4.3528	8.1679
4.331	8.2463
4.3094	8.3218
4.288	8.3967
4.2668	8.4768
4.2458	8.5478
4.2251	8.6125
4.2045	8.6733
4.1841	8.7158
4.164	8.7654
4.144	8.7983
4.1242	8.8462
4.1046	8.8886
4.0852	8.9209
4.066	8.9455
4.047	8.9704
4.0281	8.9775
4.0094	8.9739
3.9909	8.9441
3.9725	8.9453
3.9544	9.0149
3.9363	9.0866
3.9185	9.1443
3.9008	9.1662
3.8833	9.1848
3.8659	9.2009
3.8487	9.2097
3.8316	9.2278
3.8147	9.239
3.7979	9.279
3.7813	9.2878
3.7648	9.2783
3.7485	9.2866
3.7323	9.3008
3.7162	9.2876
3.7003	9.2849
3.6845	9.2793
3.6689	9.2485
3.6534	9.2351
3.638	9.2151
3.6227	9.1787
3.6076	9.1565
3.5926	9.1377
3.5777	9.1006
3.563	9.0534
3.5484	9.0134
3.5338	8.9729
3.5195	8.8933
3.5052	8.8005
3.491	8.768
3.477	8.7273
3.463	8.7236
3.4492	8.6643
3.4355	8.6084
3.4219	8.5144
3.4084	8.459
3.395	8.4621
3.3817	8.4121
3.3685	8.3747
3.3554	8.3154
3.3425	8.2898
3.3296	8.2544
3.3168	8.2053
3.3041	8.1321
3.2915	8.0671
3.279	7.9968
3.2666	7.905
3.2543	7.8108
3.2421	7.7185
3.23	7.6206
3.218	7.5156
3.206	7.3955
3.1942	7.3054
3.1824	7.2019
3.1707	7.0818
3.1591	6.9763
3.1476	6.8591
3.1362	6.7392
3.1249	6.6284
3.1136	6.5207
3.1024	6.4175
3.0913	6.3193
3.0803	6.2273
3.0694	6.1396
3.0585	6.0603
3.0477	5.9665
3.037	5.8767
3.0264	5.7827
3.0158	5.6951
3.0053	5.584
2.9949	5.508
2.9845	5.4143
2.9743	5.3159
2.9641	5.2058
2.9539	5.081
2.9439	4.927
2.9339	4.7659
2.9239	4.6035
2.9141	4.438
2.9043	4.303
2.8946	4.1907
2.8849	4.1662
2.8753	4.1553
2.8658	4.1372
2.8563	4.1052
2.8469	4.1059
2.8375	4.0815
2.8282	4.1614
2.819	4.439
2.8098	4.6975
2.8007	4.8611
2.7917	4.9094
2.7827	4.9597
2.7738	5.009
2.7649	5.0889
2.7561	5.2021
2.7473	5.2295
2.7386	5.5029
2.7299	4.9541
2.7213	5.4504
2.7128	6.7214
2.7043	7.0815
2.6959	7.1887
2.6875	7.2458
2.6791	7.2776
2.6709	7.2737
2.6626	7.3581
2.6545	7.3034
2.6463	7.2624
2.6382	7.1899
2.6302	7.1201
2.6222	7.0932
2.6143	7.0154
2.6064	6.9595
2.5986	6.9084
2.5908	6.8618
2.583	6.8232
2.5753	6.7373
2.5677	6.6748
2.5601	6.6186
2.5525	6.5578
2.545	6.51
2.5375	6.4514
2.5301	6.3989
2.5227	6.2951
2.5154	6.2356
2.5081	6.1658
2.5008	6.1313
2.4936	6.0432
2.4864	5.9739
2.4793	5.949
2.4722	5.8559
2.4651	5.8083
2.4581	5.7546
2.4511	5.6946
2.4442	5.6577
2.4373	5.5635
2.4305	5.5107
2.4236	5.4458
2.4169	5.3865
2.4101	5.3484
2.4034	5.3076
2.3967	5.2231
2.3901	5.1706
2.3835	5.1362
2.377	5.0871
2.3704	5.0261
2.364	4.987
2.3575	4.8823
2.3511	4.8865
2.3447	4.8362
2.3384	4.7869
2.3321	4.749
2.3258	4.7087
2.3195	4.6448
2.3133	4.5857
2.3071	4.5732
2.301	4.5
2.2949	4.5007
2.2888	4.4438
2.2828	4.3989
2.2767	4.3564
2.2708	4.3457
2.2648	4.3035
2.2589	4.2402
2.253	4.2048
2.2471	4.1909
2.2413	4.1328
2.2355	4.1299
2.2297	4.0989
2.224	4.0591
2.2183	4.0195
2.2126	4.0273
2.207	3.9587
2.2013	3.8987
2.1957	3.8872
2.1902	3.8857
2.1846	3.8398
2.1791	3.8125
2.1736	3.7632
2.1682	3.7632
2.1628	3.728
2.1574	3.7229
2.152	3.6453
2.1466	3.6521
2.1413	3.6025
2.136	3.5928
2.1308	3.5813
2.1255	3.5351
2.1203	3.49
2.1151	3.4924
2.11	3.4538
2.1048	3.4639
2.0997	3.4341
2.0946	3.4209
2.0895	3.3603
2.0845	3.353
2.0795	3.2969
