Name: Bytownite (Feldspar) (NaSi,CaAl)AlSi_2O_8
Type: Mineral
Class: Silicate
Subclass: Tectosilicate
Particle Size: Fine
Sample No.: TS-13A
Owner: JPL
Wavelength Range: VSWIR
Origin: Unknown.
Description: Particle size was  0-45um.Collected by:  JPL Original ASTER Spectral Library name was jpl.perkin.mineral.silicate.tectosilicate.fine.ts13a.spectrum.txt
Measurement: Hemispherical reflectance
X Units: Wavelength (micrometers)
Y Units: Reflectance (percent)
wavelength	value
2.5	66.0561
2.494	65.736
2.488	66.0348
2.482	65.9828
2.476	65.9289
2.47	66.1544
2.464	66.4197
2.458	66.3932
2.452	66.7752
2.446	66.6747
2.44	67.0454
2.434	67.2063
2.428	67.3531
2.422	67.6376
2.416	67.83
2.41	68.0387
2.404	68.3667
2.398	68.6736
2.392	69.1232
2.386	69.4857
2.38	69.8209
2.374	70.1801
2.368	70.4056
2.362	70.657
2.356	70.8805
2.35	71.0071
2.344	71.2077
2.338	71.2077
2.332	71.1595
2.326	71.1771
2.32	71.1266
2.314	71.2335
2.308	71.259
2.302	71.3063
2.296	71.4088
2.29	71.544
2.284	71.542
2.278	71.6747
2.272	71.7316
2.266	71.726
2.26	71.7563
2.254	71.8107
2.248	71.8377
2.242	71.7263
2.236	71.8217
2.23	71.8761
2.224	71.8897
2.218	71.9446
2.212	72.0084
2.206	72.1478
2.2	72.3092
2.194	72.3977
2.188	72.3234
2.182	72.4774
2.176	72.5443
2.17	72.705
2.164	72.7403
2.158	72.9328
2.152	72.9465
2.146	72.9695
2.14	72.8989
2.134	72.8051
2.128	72.5698
2.122	72.3402
2.116	72.053
2.11	71.7399
2.104	71.4966
2.098	71.2802
2.092	71.2611
2.086	71.2805
2.08	71.2274
2.074	71.1528
2.068	71.122
2.062	71.0759
2.056	71.0132
2.05	70.9782
2.044	70.9207
2.038	70.8299
2.032	70.7207
2.026	70.6039
2.02	70.3537
2.014	70.1301
2.008	69.8445
2.002	69.5816
1.996	69.1879
1.99	68.8127
1.984	68.4257
1.978	68.1967
1.972	67.956
1.966	67.734
1.96	67.4365
1.954	67.2092
1.948	66.876
1.942	66.8794
1.936	67.0358
1.93	67.5743
1.924	68.1659
1.918	68.7852
1.912	69.3874
1.906	70.0877
1.9	70.9465
1.894	71.841
1.888	72.428
1.882	72.9435
1.876	73.1738
1.87	73.3092
1.864	73.5615
1.858	73.5141
1.852	73.6628
1.846	73.6559
1.84	73.7385
1.834	73.7079
1.828	73.7254
1.822	73.7774
1.816	73.7775
1.81	73.738
1.804	73.731
1.798	73.7532
1.792	73.8055
1.786	73.7157
1.78	73.6585
1.774	73.6654
1.768	73.6726
1.762	73.5967
1.756	73.6529
1.75	73.691
1.744	73.6354
1.738	73.7354
1.732	73.7785
1.726	73.715
1.72	73.7732
1.714	73.7349
1.708	73.7496
1.702	73.7515
1.696	73.6566
1.69	73.7181
1.684	73.6931
1.678	73.6628
1.672	73.6589
1.666	73.6391
1.66	73.6201
1.654	73.6219
1.648	73.6147
1.642	73.5873
1.636	73.614
1.63	73.5569
1.624	73.5727
1.618	73.5514
1.612	73.4722
1.606	73.5594
1.6	73.5564
1.594	73.4835
1.588	73.4476
1.582	73.469
1.576	73.3845
1.57	73.3484
1.564	73.2681
1.558	73.313
1.552	73.3014
1.546	73.2884
1.54	73.1624
1.534	73.1394
1.528	73.1138
1.522	73.0425
1.516	72.9307
1.51	72.8493
1.504	72.8025
1.498	72.7477
1.492	72.6236
1.486	72.5823
1.48	72.5577
1.474	72.5085
1.468	72.3942
1.462	72.2401
1.456	72.1978
1.45	72.1591
1.444	72.0783
1.438	72.1069
1.432	72.0592
1.426	72.0473
1.42	72.0273
1.414	72.0867
1.408	72.0626
1.402	72.1958
1.396	72.1958
1.39	72.2252
1.384	72.3987
1.378	72.4213
1.372	72.3288
1.366	72.3798
1.36	72.3552
1.354	72.2695
1.348	72.2618
1.342	72.2357
1.336	72.1055
1.33	72.1423
1.324	72.12
1.318	72.1378
1.312	72.1111
1.306	72.1011
1.3	72.0379
1.294	72.045
1.288	72.0173
1.282	71.979
1.276	72.0062
1.27	72.0519
1.264	71.9017
1.258	71.9768
1.252	71.9491
1.246	71.9444
1.24	71.9251
1.234	71.9128
1.228	72.0034
1.222	71.9497
1.216	71.9192
1.21	71.9331
1.204	71.9647
1.198	71.9486
1.192	72.0325
1.186	72.0635
1.18	72.0495
1.174	72.0489
1.168	72.1574
1.162	72.1332
1.156	72.24
1.15	72.2543
1.144	72.2826
1.138	72.3654
1.132	72.3591
1.126	72.3735
1.12	72.4747
1.114	72.4816
1.108	72.5872
1.102	72.5778
1.096	72.5825
1.09	72.699
1.084	72.7835
1.078	72.7547
1.072	72.8129
1.066	72.9599
1.06	72.8834
1.054	72.9261
1.048	72.9678
1.042	73.0403
1.036	73.0322
1.03	73.1022
1.024	73.0556
1.018	73.1575
1.012	73.1886
1.006	73.1622
1	73.1387
0.994	73.1524
0.988	73.1398
0.982	73.1675
0.976	73.1869
0.97	73.1964
0.964	73.1678
0.958	73.14
0.952	73.1243
0.946	73.1625
0.94	73.1375
0.934	73.0889
0.928	73.1112
0.922	73.125
0.916	73.03
0.91	73.0533
0.904	72.9835
0.898	72.9925
0.892	72.9939
0.886	73.0495
0.88	73.0573
0.874	73.1546
0.868	73.2051
0.862	73.2165
0.856	73.4723
0.85	73.5682
0.844	73.5391
0.838	73.606
0.832	73.6417
0.826	73.6878
0.82	73.7134
0.814	73.7338
0.808	73.7487
0.802	73.7434
0.796	73.6459
0.79	73.6348
0.784	73.612
0.778	73.5023
0.772	73.4053
0.766	73.3735
0.76	73.2839
0.754	73.2355
0.748	73.1316
0.742	73.0879
0.736	72.9801
0.73	72.9365
0.724	72.8287
0.718	72.7209
0.712	72.6872
0.706	72.5772
0.7	72.5155
0.694	72.4649
0.688	72.3701
0.682	72.3327
0.676	72.2288
0.67	72.169
0.664	72.0861
0.658	72.0394
0.652	71.9613
0.646	71.8771
0.64	71.8034
0.634	71.7347
0.628	71.6659
0.622	71.5834
0.616	71.5123
0.61	71.4145
0.604	71.3204
0.598	71.239
0.592	71.1408
0.586	71.0005
0.58	70.8374
0.574	70.6255
0.568	70.419
0.562	70.1906
0.556	69.8937
0.55	69.6319
0.544	69.3764
0.538	69.0914
0.532	68.7867
0.526	68.4616
0.52	68.1245
0.514	67.7248
0.508	67.2716
0.502	66.8026
0.496	66.2946
0.49	65.8208
0.484	65.3817
0.478	65.0632
0.472	64.7629
0.466	64.4373
0.46	64.0161
0.454	63.4871
0.448	62.8849
0.442	62.228
0.436	61.5222
0.43	60.7665
0.424	59.9908
0.418	59.3755
0.412	58.8237
0.406	58.2222
0.4	57.4794
