Name: Hedenbergite CaFe+2Si2O6
Type: Mineral
Class: Silicate
Subclass: Inosilicate
Particle Size: Solid
Sample No.: hedenber_1
Owner: JHU
Wavelength Range: TIR
Origin: Eureka Mine, 2nd Level, Sub-level 1, 135 N, 645E, Ducktown,Tennesse, via the Smithsonian (sample no. NMNH 119197)
Description: The sample was made up of three large pieces and three small fragments, weighing altogether about 28 g.  All pieces are deep green and parts of single crystals.  They display a very small amount of veining.  Surfaces of the pieces have a veneer of contamination Ñprobably the same as the veining.  There is also an extremely small amount of sulphide contamination. (Single chain Pyroxene Group) Original ASTER Spectral Library name was jhu.nicolet.mineral.silicate.inosilicate.solid.hedenb1.spectrum.txt
Measurement: Bidirectional reflectance
X Units: Wavelength (micrometers)
Y Units: Reflectance (percent)
wavelength	value
25.0442	33.8954
24.3388	27.9516
23.6719	27.1747
23.0407	29.955
22.4422	32.8027
21.8741	39.3585
21.334	42.6366
20.8199	45.0704
20.33	45.1122
19.8627	47.7648
19.4163	45.1659
18.9896	41.9965
18.5812	45.3522
18.19	50.933
17.815	52.4388
17.4551	43.7079
17.1094	26.582
16.7772	13.7964
16.4576	12.4194
16.15	14.1831
15.8537	16.6899
15.568	15.4709
15.2925	11.6997
15.0265	14.1172
14.7697	13.6374
14.5214	12.8694
14.2814	13.2165
14.0492	13.75
13.8244	14.2339
13.6067	14.6621
13.3957	15.2212
13.1912	15.7458
12.9929	16.4011
12.8004	17.7133
12.6135	17.9692
12.432	18.1804
12.2557	17.4604
12.0843	18.5861
11.9176	20.9045
11.7555	27.0661
11.5977	33.8295
11.444	36.0238
11.2944	37.1415
11.1487	37.8715
11.0067	38.421
10.8682	39.1632
10.7332	34.3493
10.6015	35.7653
10.473	38.5197
10.3476	39.3388
10.2251	33.2524
10.1056	26.1801
9.9887	23.9172
9.8746	26.3139
9.763	26.1728
9.6539	25.7245
9.5472	26.673
9.4429	32.4006
9.3408	36.4738
9.2409	37.4272
9.1431	37.6095
9.0474	38.3537
8.9536	39.4357
8.8618	41.0785
8.7718	42.0739
8.6837	34.3925
8.5973	26.0305
8.5126	17.8813
8.4295	11.2368
8.3481	8.9531
8.2682	9.8027
8.1898	10.3672
8.1129	10.2265
8.0374	9.8159
7.9634	9.4856
7.8906	9.1921
7.8192	9.0854
7.7491	9.0232
7.6802	8.9255
7.6126	8.7585
7.5461	8.6391
7.4807	8.5595
7.4165	8.4978
7.3534	8.4875
7.2914	8.4944
7.2303	8.5259
7.1703	8.5825
7.1113	8.6894
7.0533	8.7273
6.9962	8.7549
6.94	8.75
6.8847	8.7656
6.8302	8.8369
6.7767	8.8611
6.7239	8.8569
6.672	8.8782
6.6209	8.9275
6.5705	8.9455
6.5209	8.9685
6.4721	9.0139
6.424	9.0202
6.3766	9.091
6.3299	9.167
6.2838	9.2068
6.2385	9.2236
6.1937	9.2563
6.1496	9.2729
6.1062	9.2265
6.0633	9.2522
6.0211	9.2434
5.9794	9.2112
5.9383	9.1679
5.8978	9.1889
5.8578	9.2158
5.8184	9.1826
5.7794	9.3406
5.741	9.5178
5.7031	9.5241
5.6657	9.5163
5.6288	9.5134
5.5924	9.5176
5.5564	9.5102
5.5209	9.5124
5.4859	9.5105
5.4513	9.498
5.4171	9.4809
5.3833	9.4748
5.35	9.4599
5.3171	9.4673
5.2846	9.4724
5.2524	9.4914
5.2207	9.501
5.1893	9.5256
5.1584	9.5315
5.1277	9.5388
5.0975	9.5227
5.0676	9.5097
5.038	9.5141
5.0088	9.5205
4.98	9.5205
4.9514	9.5232
4.9232	9.5251
4.8953	9.5305
4.8678	9.5461
4.8405	9.5666
4.8135	9.5813
4.7868	9.5962
4.7605	9.6181
4.7344	9.6362
4.7086	9.6823
4.6831	9.7263
4.6578	9.761
4.6328	9.8176
4.6081	9.8672
4.5837	9.9328
4.5595	9.9836
4.5356	10.0356
4.5119	10.091
4.4884	10.1257
4.4652	10.1557
4.4423	10.1823
4.4196	10.1938
4.3971	10.2119
4.3748	10.2412
4.3528	10.251
4.331	10.2624
4.3094	10.2934
4.288	10.3113
4.2668	10.3379
4.2458	10.3545
4.2251	10.3659
4.2045	10.3747
4.1841	10.4135
4.164	10.4194
4.144	10.4192
4.1242	10.4253
4.1046	10.4497
4.0852	10.4619
4.066	10.4592
4.047	10.4626
4.0281	10.479
4.0094	10.4775
3.9909	10.469
3.9725	10.459
3.9544	10.4807
3.9363	10.5034
3.9185	10.5451
3.9008	10.5449
3.8833	10.5559
3.8659	10.5376
3.8487	10.5593
3.8316	10.5676
3.8147	10.5747
3.7979	10.5798
3.7813	10.5935
3.7648	10.605
3.7485	10.6174
3.7323	10.604
3.7162	10.6086
3.7003	10.6169
3.6845	10.6111
3.6689	10.6072
3.6534	10.6218
3.638	10.6081
3.6227	10.594
3.6076	10.5981
3.5926	10.6125
3.5777	10.5927
3.563	10.6008
3.5484	10.5676
3.5338	10.55
3.5195	10.5429
3.5052	10.5403
3.491	10.5576
3.477	10.5564
3.463	10.5593
3.4492	10.5686
3.4355	10.5622
3.4219	10.5844
3.4084	10.5896
3.395	10.5908
3.3817	10.5832
3.3685	10.6223
3.3554	10.5849
3.3425	10.5547
3.3296	10.5227
3.3168	10.4968
3.3041	10.49
3.2915	10.4887
3.279	10.4477
3.2666	10.4114
3.2543	10.3926
3.2421	10.3742
3.23	10.332
3.218	10.3266
3.206	10.3039
3.1942	10.2737
3.1824	10.2602
3.1707	10.228
3.1591	10.2041
3.1476	10.1865
3.1362	10.1386
3.1249	10.1213
3.1136	10.0898
3.1024	10.0952
3.0913	10.0508
3.0803	10.03
3.0694	10.0105
3.0585	9.9834
3.0477	9.9724
3.037	9.9614
3.0264	9.9543
3.0158	9.9043
3.0053	9.8686
2.9949	9.8637
2.9845	9.8489
2.9743	9.8303
2.9641	9.8081
2.9539	9.8257
2.9439	9.8359
2.9339	9.8388
2.9239	9.8261
2.9141	9.7937
2.9043	9.7822
2.8946	9.77
2.8849	9.7739
2.8753	9.7885
2.8658	9.834
2.8563	9.8569
2.8469	9.8716
2.8375	9.8733
2.8282	9.8567
2.819	9.8965
2.8098	9.9282
2.8007	9.9521
2.7917	9.998
2.7827	10.0097
2.7738	10.0063
2.7649	10.0063
2.7561	9.9868
2.7473	10.0132
2.7386	10.0771
2.7299	10.0625
2.7213	10.0844
2.7128	10.3569
2.7043	10.3991
2.6959	10.4089
2.6875	10.4001
2.6791	10.4521
2.6709	10.4153
2.6626	10.4465
2.6545	10.4267
2.6463	10.3833
2.6382	10.3938
2.6302	10.385
2.6222	10.3794
2.6143	10.3701
2.6064	10.3567
2.5986	10.3569
2.5908	10.3508
2.583	10.3359
2.5753	10.3413
2.5677	10.3081
2.5601	10.3135
2.5525	10.2824
2.545	10.2932
2.5375	10.301
2.5301	10.2485
2.5227	10.2602
2.5154	10.247
2.5081	10.2553
2.5008	10.2229
2.4936	10.23
2.4864	10.2102
2.4793	10.2031
2.4722	10.178
2.4651	10.177
2.4581	10.219
2.4511	10.1838
2.4442	10.1701
2.4373	10.126
2.4305	10.1604
2.4236	10.1133
2.4169	10.1506
2.4101	10.1548
2.4034	10.136
2.3967	10.1299
2.3901	10.1318
2.3835	10.1281
2.377	10.1252
2.3704	10.1406
2.364	10.1465
2.3575	10.1389
2.3511	10.1484
2.3447	10.1653
2.3384	10.1582
2.3321	10.1245
2.3258	10.124
2.3195	10.1538
2.3133	10.1176
2.3071	10.1513
2.301	10.1299
2.2949	10.1748
2.2888	10.1816
2.2828	10.1606
2.2767	10.1797
2.2708	10.1704
2.2648	10.209
2.2589	10.1728
2.253	10.2163
2.2471	10.2085
2.2413	10.1992
2.2355	10.2016
2.2297	10.2002
2.224	10.2295
2.2183	10.2441
2.2126	10.2461
2.207	10.1714
2.2013	10.2632
2.1957	10.2168
2.1902	10.2646
2.1846	10.2656
2.1791	10.2373
2.1736	10.2217
2.1682	10.2939
2.1628	10.311
2.1574	10.3418
2.152	10.27
2.1466	10.2368
2.1413	10.2412
2.136	10.248
2.1308	10.2446
2.1255	10.2426
2.1203	10.2783
2.1151	10.2817
2.11	10.2744
2.1048	10.29
2.0997	10.2773
2.0946	10.3291
2.0895	10.3091
2.0845	10.3349
2.0795	10.2505
