Name: Almandine Fe3+2Al2(SiO4)3
Type: Mineral
Class: Silicate
Subclass: Nesosilicate
Particle Size: Solid
Sample No.: almandine_1
Owner: JHU
Wavelength Range: TIR
Origin: Sample from Stikine River, Fort Wrangell, Alaska, USA via theSmithsonian (sample no. NMNH 104490-7).
Description: The sample was a single deep maroon crystal about 2 cm in diameter with good crystal faces, except for one fractured edge.  Weight was 17 g.  A thin, soft, almost transparent film was buffed off crystal faces.  Microscopic examination showed contamination by about 1% opaques and 1% quartz. (Isolated Tetrahedra) (Garnet Group) Original ASTER Spectral Library name was jhu.nicolet.mineral.silicate.nesosilicate.solid.almand1.spectrum.txt
Measurement: Bidirectional reflectance
X Units: Wavelength (micrometers)
Y Units: Reflectance (percent)
wavelength	value
25.0442	18.9707
24.3388	22.5009
23.6719	26.6913
23.0407	33.934
22.4422	49.35
21.8741	53.7147
21.334	52.3441
20.8199	65.4788
20.33	66.5721
19.8627	64.6417
19.4163	53.2608
18.9896	36.8312
18.5812	30.8368
18.19	12.0757
17.815	25.051
17.4551	45.6742
17.1094	48.5072
16.7772	41.4904
16.4576	24.7802
16.15	7.0566
15.8537	6.7102
15.568	7.0676
15.2925	6.4385
15.0265	8.122
14.7697	9.3967
14.5214	10.3945
14.2814	11.2778
14.0492	12.0688
13.8244	12.7312
13.6067	13.4048
13.3957	14.1482
13.1912	14.8496
12.9929	15.5839
12.8004	16.3818
12.6135	17.331
12.432	18.4355
12.2557	19.7163
12.0843	21.4892
11.9176	23.934
11.7555	27.7714
11.5977	34.6566
11.444	46.1093
11.2944	39.0192
11.1487	46.4799
11.0067	54.2674
10.8682	45.6073
10.7332	20.7133
10.6015	16.394
10.473	31.0722
10.3476	56.7882
10.2251	64.8297
10.1056	66.2574
9.9887	65.6878
9.8746	63.2064
9.763	58.8604
9.6539	52.2679
9.5472	45.1473
9.4429	37.5541
9.3408	26.8051
9.2409	14.2387
9.1431	3.5376
9.0474	1.4133
8.9536	2.3015
8.8618	3.2681
8.7718	4.0029
8.6837	4.6216
8.5973	5.1128
8.5126	5.5674
8.4295	5.9626
8.3481	6.3306
8.2682	6.6108
8.1898	6.8974
8.1129	7.1426
8.0374	7.3271
7.9634	7.56
7.8906	7.7583
7.8192	7.9663
7.7491	8.1382
7.6802	8.3122
7.6126	8.4538
7.5461	8.5647
7.4807	8.6396
7.4165	8.7229
7.3534	8.8264
7.2914	8.8955
7.2303	8.9768
7.1703	9.0337
7.1113	9.1509
7.0533	9.2021
6.9962	9.3095
6.94	9.376
6.8847	9.4209
6.8302	9.4787
6.7767	9.5451
6.7239	9.6006
6.672	9.6333
6.6209	9.6782
6.5705	9.6843
6.5209	9.7778
6.4721	9.8215
6.424	9.8406
6.3766	9.9209
6.3299	9.9985
6.2838	10.0498
6.2385	10.0976
6.1937	10.1164
6.1496	10.1518
6.1062	10.166
6.0633	10.229
6.0211	10.271
5.9794	10.2878
5.9383	10.2436
5.8978	10.2929
5.8578	10.372
5.8184	10.3396
5.7794	10.4323
5.741	10.4851
5.7031	10.5322
5.6657	10.5503
5.6288	10.5581
5.5924	10.5769
5.5564	10.5835
5.5209	10.5962
5.4859	10.6081
5.4513	10.6462
5.4171	10.6306
5.3833	10.6675
5.35	10.685
5.3171	10.7075
5.2846	10.7402
5.2524	10.7358
5.2207	10.759
5.1893	10.7744
5.1584	10.7849
5.1277	10.8264
5.0975	10.8069
5.0676	10.8235
5.038	10.8467
5.0088	10.8354
4.98	10.8445
4.9514	10.8569
4.9232	10.8484
4.8953	10.8877
4.8678	10.8816
4.8405	10.9038
4.8135	10.9175
4.7868	10.9384
4.7605	10.9314
4.7344	10.9409
4.7086	10.9507
4.6831	10.9702
4.6578	10.9858
4.6328	11.0036
4.6081	11.0293
4.5837	11.041
4.5595	11.041
4.5356	11.0525
4.5119	11.0312
4.4884	11.0625
4.4652	11.0666
4.4423	11.0786
4.4196	11.0644
4.3971	11.082
4.3748	11.1018
4.3528	11.0879
4.331	11.0886
4.3094	11.0986
4.288	11.1013
4.2668	11.1096
4.2458	11.1352
4.2251	11.1162
4.2045	11.1552
4.1841	11.1391
4.164	11.1631
4.144	11.1672
4.1242	11.1611
4.1046	11.1533
4.0852	11.1882
4.066	11.2014
4.047	11.207
4.0281	11.217
4.0094	11.2077
3.9909	11.2036
3.9725	11.1965
3.9544	11.2046
3.9363	11.2002
3.9185	11.2177
3.9008	11.2148
3.8833	11.227
3.8659	11.229
3.8487	11.2177
3.8316	11.2275
3.8147	11.2309
3.7979	11.2302
3.7813	11.227
3.7648	11.2468
3.7485	11.2485
3.7323	11.2505
3.7162	11.2466
3.7003	11.2424
3.6845	11.2412
3.6689	11.23
3.6534	11.2485
3.638	11.2558
3.6227	11.2321
3.6076	11.2363
3.5926	11.2466
3.5777	11.2297
3.563	11.2226
3.5484	11.2109
3.5338	11.1924
3.5195	11.1916
3.5052	11.2007
3.491	11.2256
3.477	11.2321
3.463	11.1987
3.4492	11.209
3.4355	11.1943
3.4219	11.2075
3.4084	11.2441
3.395	11.2417
3.3817	11.2329
3.3685	11.2695
3.3554	11.2348
3.3425	11.2165
3.3296	11.2014
3.3168	11.1855
3.3041	11.1867
3.2915	11.1728
3.279	11.1701
3.2666	11.1584
3.2543	11.1296
3.2421	11.1299
3.23	11.1184
3.218	11.1042
3.206	11.0925
3.1942	11.0703
3.1824	11.0691
3.1707	11.0586
3.1591	11.0434
3.1476	11.0429
3.1362	11.0237
3.1249	11.0151
3.1136	10.9978
3.1024	10.9905
3.0913	10.9653
3.0803	10.9594
3.0694	10.9341
3.0585	10.9074
3.0477	10.9162
3.037	10.8769
3.0264	10.8938
3.0158	10.8564
3.0053	10.8381
2.9949	10.8393
2.9845	10.8134
2.9743	10.791
2.9641	10.7756
2.9539	10.7705
2.9439	10.7519
2.9339	10.6963
2.9239	10.6938
2.9141	10.6635
2.9043	10.667
2.8946	10.6484
2.8849	10.6408
2.8753	10.6074
2.8658	10.5813
2.8563	10.5774
2.8469	10.5432
2.8375	10.5305
2.8282	10.4907
2.819	10.4709
2.8098	10.4521
2.8007	10.4319
2.7917	10.4209
2.7827	10.3926
2.7738	10.3623
2.7649	10.3388
2.7561	10.2727
2.7473	10.299
2.7386	10.2229
2.7299	10.2717
2.7213	10.2021
2.7128	10.2209
2.7043	10.1709
2.6959	10.1367
2.6875	10.1367
2.6791	10.0991
2.6709	10.0444
2.6626	10.0649
2.6545	10.0537
2.6463	10.0195
2.6382	10.0127
2.6302	9.9326
2.6222	9.9482
2.6143	9.9399
2.6064	9.8408
2.5986	9.8847
2.5908	9.854
2.583	9.8081
2.5753	9.8247
2.5677	9.8032
2.5601	9.7588
2.5525	9.7383
2.545	9.7524
2.5375	9.7129
2.5301	9.6704
2.5227	9.6821
2.5154	9.6758
2.5081	9.6758
2.5008	9.6826
2.4936	9.6211
2.4864	9.6054
2.4793	9.6035
2.4722	9.6006
2.4651	9.5605
2.4581	9.5356
2.4511	9.5517
2.4442	9.5234
2.4373	9.5019
2.4305	9.4985
2.4236	9.4868
2.4169	9.5161
2.4101	9.5044
2.4034	9.4961
2.3967	9.4575
2.3901	9.4165
2.3835	9.4438
2.377	9.4575
2.3704	9.4302
2.364	9.3969
2.3575	9.4258
2.3511	9.4248
2.3447	9.4614
2.3384	9.4844
2.3321	9.4184
2.3258	9.4179
2.3195	9.417
2.3133	9.457
2.3071	9.4336
2.301	9.4824
2.2949	9.4746
2.2888	9.4785
2.2828	9.4668
2.2767	9.5019
2.2708	9.4443
2.2648	9.5185
2.2589	9.5215
2.253	9.4844
2.2471	9.4814
2.2413	9.5127
2.2355	9.5205
2.2297	9.497
2.224	9.5224
2.2183	9.541
2.2126	9.5586
2.207	9.5556
2.2013	9.5781
2.1957	9.582
2.1902	9.6025
2.1846	9.6533
2.1791	9.5908
2.1736	9.6308
2.1682	9.6894
2.1628	9.6885
2.1574	9.709
2.152	9.6152
2.1466	9.6699
2.1413	9.707
2.136	9.7158
2.1308	9.7304
2.1255	9.7656
2.1203	9.7832
2.1151	9.7363
2.11	9.7773
2.1048	9.7636
2.0997	9.7929
2.0946	9.8125
2.0895	9.8574
2.0845	9.8525
2.0795	9.8711
