Name: Fluorite CaF_2
Type: Mineral
Class: Halide
Subclass: None
Particle Size: Medium
Sample No.: H-2A
Owner: JPL
Wavelength Range: TIR
Origin: USA, Illinois, Hardin County, Rosiclare
Description: Purple fluorite.Particle size was 45-125um.Collected by Ward's Original ASTER Spectral Library name was jpl.nicolet.mineral.halide.none.medium.h02a.spectrum.txt
Measurement: Hemispherical reflectance
X Units: Wavelength (micrometers)
Y Units: Reflectance (percent)
wavelength	value
15.3853	0.1965
15.1161	0.1581
14.8563	0.3888
14.6052	0.8618
14.3624	1.3084
14.1276	1.5979
13.9004	1.7945
13.6803	2.3733
13.4671	3.3396
13.2604	4.2584
13.06	5.7463
12.8656	7.3701
12.6769	9.3145
12.4936	12.2467
12.3155	15.5266
12.1425	19.0353
11.9742	22.169
11.8106	24.8987
11.6513	27.7414
11.4963	30.3315
11.3454	33.1375
11.1983	35.7313
11.0551	38.4413
10.9154	41.0788
10.7793	43.8781
10.6465	46.3421
10.5169	49.0306
10.3904	51.2266
10.267	53.2393
10.1464	54.9917
10.0287	56.6673
9.9136	58.1608
9.8012	59.5199
9.6913	60.691
9.5838	62.1532
9.4787	63.2647
9.3758	64.5841
9.2752	65.6788
9.1767	66.8371
9.0803	68.2782
8.9858	69.266
8.8934	69.9547
8.8028	70.9134
8.714	71.9695
8.627	73.0011
8.5417	74.6331
8.4581	75.8487
8.3761	76.8235
8.2957	77.3526
8.2169	77.8113
8.1395	77.9151
8.0635	78.3001
7.989	78.6963
7.9158	79.1391
7.8439	79.6873
7.7734	79.7152
7.7041	79.4117
7.636	79.3628
7.5691	79.6713
7.5034	79.7359
7.4388	79.0864
7.3753	78.9455
7.3129	79.5446
7.2515	78.7198
7.1912	79.081
7.1318	78.5837
7.0734	77.9203
7.016	78.0536
6.9595	80.2152
6.9039	78.5486
6.8492	79.0351
6.7953	81.0584
6.7423	79.8789
6.6901	80.7513
6.6387	84.8677
6.5881	81.774
6.5382	80.021
6.4892	82.8022
6.4408	75.0341
6.3931	72.3098
6.3462	73.6652
6.2999	69.6262
6.2543	68.9285
6.2094	70.5172
6.1651	72.1982
6.1214	75.4535
6.0784	78.6271
6.0359	78.6215
5.994	80.777
5.9527	80.9569
5.912	81.9699
5.8718	84.0006
5.8322	84.8617
5.7931	83.8904
5.7545	85.2046
5.7165	86.5627
5.6789	86.2496
5.6418	88.0454
5.6052	85.6154
5.5691	84.9526
5.5334	85.6496
5.4982	86.2895
5.4635	87.5019
5.4291	87.1497
5.3952	86.4693
5.3618	86.64
5.3287	86.4094
5.2961	86.7552
5.2638	86.511
5.2319	86.7426
5.2004	87.0663
5.1693	86.7936
5.1386	86.8409
5.1082	86.6428
5.0782	86.688
5.0485	86.6008
5.0192	86.6897
4.9902	86.4455
4.9616	86.4879
4.9332	86.4419
4.9052	86.4514
4.8776	86.4935
4.8502	86.511
4.8231	86.5816
4.7963	86.5196
4.7699	86.5466
4.7437	86.5026
4.7178	86.4626
4.6922	86.3204
4.6668	86.3063
4.6418	86.4607
4.617	86.6982
4.5924	86.7586
4.5681	86.8625
4.5441	86.8664
4.5203	86.9912
4.4968	86.9559
4.4735	87.0315
4.4505	87.1924
4.4277	87.17
4.4051	87.2112
4.3828	87.2026
4.3607	87.2399
4.3388	87.3756
4.3171	87.5026
4.2956	87.7036
4.2744	87.713
4.2534	87.4867
4.2325	87.9862
4.2119	87.6262
4.1915	87.3993
4.1712	87.3692
4.1512	87.4766
4.1313	87.4387
4.1117	87.3394
4.0922	87.3432
4.0729	87.1995
4.0538	87.0108
4.0349	86.6569
4.0161	86.2964
3.9976	85.9751
3.9792	85.8319
3.9609	85.8126
3.9428	86.1435
3.9249	86.2982
3.9072	86.3777
3.8896	86.3418
3.8722	86.3562
3.8549	86.3306
3.8378	86.4347
3.8208	86.593
3.804	86.872
3.7873	87.1562
3.7708	87.1846
3.7544	87.2564
3.7382	87.169
3.7221	87.0187
3.7061	87.0077
3.6903	86.9875
3.6746	86.8508
3.659	86.8698
3.6436	86.7215
3.6283	86.7255
3.6131	86.682
3.5981	86.5362
3.5832	86.2879
3.5684	86.0358
3.5537	85.903
3.5391	85.4385
3.5247	84.7957
3.5104	83.6566
3.4962	83.0383
3.4821	83.2235
3.4681	83.3633
3.4543	83.5331
3.4405	83.0422
3.4269	81.8367
3.4133	81.2769
3.3999	81.888
3.3866	82.2678
3.3733	81.6775
3.3602	82.3755
3.3472	82.7065
3.3343	83.277
3.3215	83.3216
3.3088	83.208
3.2961	82.9218
3.2836	82.6242
3.2712	82.4453
3.2588	82.1196
3.2466	81.7507
3.2345	81.3145
3.2224	81.0414
3.2104	80.5553
3.1985	80.1654
3.1867	79.6131
3.175	79.1776
3.1634	78.6986
3.1519	78.1552
3.1404	77.8513
3.129	77.4128
3.1178	76.9545
3.1065	76.5407
3.0954	76.3731
3.0844	76.0587
3.0734	75.8718
3.0625	75.5466
3.0517	75.4475
3.041	75.1797
3.0303	74.9412
3.0197	74.7277
3.0092	74.6313
2.9987	74.361
2.9884	74.3122
2.9781	73.9647
2.9678	73.9082
2.9577	73.7804
2.9476	73.813
2.9376	73.781
2.9276	73.7645
2.9177	73.9282
2.9079	74.0548
2.8982	74.2261
2.8885	74.5594
2.8789	74.7647
2.8693	74.9461
2.8598	75.3863
2.8504	75.9012
2.841	76.2408
2.8317	76.5594
2.8224	77.0803
2.8133	77.4494
2.8041	78.939
2.7951	78.3534
2.786	79.9289
2.7771	79.6122
2.7682	81.0034
2.7594	80.5667
2.7506	81.3231
2.7418	84.0051
2.7332	83.4802
2.7246	86.6515
2.716	84.8609
2.7075	85.7961
2.699	85.9349
2.6906	86.4539
2.6823	87.0281
2.674	87.5349
2.6657	90.7083
2.6575	87.0393
2.6494	86.8903
2.6413	87.0968
2.6332	87.8128
2.6252	87.761
2.6173	89.6816
2.6094	88.2926
2.6015	88.0113
2.5937	90.7736
2.5859	88.1938
2.5782	87.6678
2.5706	88.1774
2.5629	88.8738
2.5554	87.2317
2.5478	87.444
2.5403	87.1466
2.5329	87.2523
2.5255	87.2245
2.5181	87.157
2.5108	87.2133
2.5035	87.1365
2.4963	87.2497
2.4891	87.2895
2.482	87.4013
2.4749	87.1675
2.4678	87.3522
2.4608	87.2927
2.4538	87.4145
2.4468	87.3627
2.4399	87.2744
2.4331	87.4577
2.4262	87.5373
2.4194	87.4698
2.4127	87.4017
2.4059	87.4196
2.3993	87.4319
2.3926	87.4412
2.386	87.5237
2.3795	87.5113
2.3729	87.4358
2.3664	87.5756
2.36	87.5396
2.3535	87.5751
2.3471	87.575
2.3408	87.5967
2.3345	87.558
2.3282	87.5975
2.3219	87.6465
2.3157	87.6999
2.3095	87.5555
2.3034	87.4615
2.2972	87.6813
2.2911	87.5096
2.2851	87.5929
2.279	87.5611
2.2731	87.7437
2.2671	87.7613
2.2612	87.6729
2.2553	87.7423
2.2494	87.643
2.2435	87.8012
2.2377	87.5735
2.232	87.7146
2.2262	87.7715
2.2205	87.6322
2.2148	87.6907
2.2091	87.5707
2.2035	87.6691
2.1979	87.6895
2.1923	87.7585
2.1868	87.7088
2.1812	87.7342
2.1758	87.6167
2.1703	87.7653
2.1649	87.708
2.1595	87.6995
2.1541	87.5761
2.1487	87.5218
2.1434	87.4866
2.1381	87.5463
2.1328	87.6487
2.1275	87.6059
2.1223	87.5844
2.1171	87.6505
2.112	87.68
2.1068	87.7243
2.1017	87.5862
2.0966	87.5269
2.0915	87.6575
2.0865	87.5998
2.0814	87.759
2.0764	87.3637
2.0715	87.7527
2.0665	87.6463
2.0616	87.5509
2.0567	87.2898
2.0518	87.8034
2.0469	87.3242
2.0421	87.5916
2.0373	87.5355
2.0325	87.4629
2.0277	87.4155
2.0229	87.4061
2.0182	87.4306
2.0135	87.587
2.0088	87.3118
2.0042	87.6864
