Name: Hedenbergite CaFe+2Si2O6
Type: Mineral
Class: Silicate
Subclass: Inosilicate
Particle Size: Coarse
Sample No.: hedenber_1
Owner: JHU
Wavelength Range: TIR
Origin: Eureka Mine, 2nd Level, Sub-level 1, 135 N, 645E, Ducktown,Tennesse, via the Smithsonian (sample no. NMNH 119197)
Description: The sample was made up of three large pieces and three small fragments, weighing altogether about 28 g.  All pieces are deep green and parts of single crystals.  They display a very small amount of veining.  Surfaces of the pieces have a veneer of contamination Ñprobably the same as the veining.  There is also an extremely small amount of sulphide contamination. Particle size was 74-250 micrometers.(Single chain Pyroxene Group) Original ASTER Spectral Library name was jhu.nicolet.mineral.silicate.inosilicate.coarse.hedenb1.spectrum.txt
Measurement: Bidirectional reflectance
X Units: Wavelength (micrometers)
Y Units: Reflectance (percent)
wavelength	value
25.0442	7.5898
24.3388	7.5813
23.6719	6.6128
23.0407	7.2265
22.4422	7.3252
21.8741	8.3594
21.334	9.083
20.8199	9.4868
20.33	8.9736
19.8627	9.5962
19.4163	9.7656
18.9896	9.5349
18.5812	10.0935
18.19	10.5932
17.815	10.6277
17.4551	9.6448
17.1094	6.9016
16.7772	4.0962
16.4576	1.904
16.15	1.5586
15.8537	2.0725
15.568	2.3545
15.2925	1.7705
15.0265	2.1257
14.7697	2.1936
14.5214	2.0503
14.2814	2.2117
14.0492	2.4121
13.8244	2.5637
13.6067	2.7036
13.3957	2.7854
13.1912	2.8728
12.9929	3.0085
12.8004	3.144
12.6135	3.2546
12.432	3.4424
12.2557	3.7392
12.0843	4.0913
11.9176	4.6999
11.7555	5.9263
11.5977	7.1577
11.444	7.7297
11.2944	8.0498
11.1487	8.2864
11.0067	8.6843
10.8682	9.362
10.7332	8.2287
10.6015	8.3896
10.473	9.0683
10.3476	9.8591
10.2251	7.749
10.1056	4.0444
9.9887	3.7607
9.8746	4.6245
9.763	4.5102
9.6539	4.2287
9.5472	4.3354
9.4429	5.4997
9.3408	6.9599
9.2409	7.4743
9.1431	7.7514
9.0474	8.0947
8.9536	8.5491
8.8618	8.8098
8.7718	8.5266
8.6837	6.5688
8.5973	4.5137
8.5126	2.5259
8.4295	1.1135
8.3481	0.7397
8.2682	0.9045
8.1898	1.0518
8.1129	1.2163
8.0374	1.3716
7.9634	1.552
7.8906	1.7161
7.8192	1.8774
7.7491	2.0972
7.6802	2.2808
7.6126	2.4368
7.5461	2.5427
7.4807	2.698
7.4165	2.8418
7.3534	2.8965
7.2914	2.8638
7.2303	2.9045
7.1703	3.0395
7.1113	3.2612
7.0533	3.5076
6.9962	3.6677
6.94	3.7678
6.8847	3.7544
6.8302	3.5378
6.7767	3.4045
6.7239	3.1565
6.672	2.9665
6.6209	2.9184
6.5705	2.7331
6.5209	2.4744
6.4721	2.4145
6.424	2.5078
6.3766	2.7678
6.3299	2.9597
6.2838	3.0134
6.2385	3.1667
6.1937	3.3047
6.1496	3.2331
6.1062	3.0832
6.0633	3.3188
6.0211	3.5681
5.9794	4.0732
5.9383	4.9707
5.8978	5.7466
5.8578	5.8918
5.8184	6.2129
5.7794	6.7624
5.741	7.1806
5.7031	7.4736
5.6657	7.6533
5.6288	7.6643
5.5924	7.6037
5.5564	7.5022
5.5209	7.3179
5.4859	6.9136
5.4513	6.3054
5.4171	5.685
5.3833	5.3784
5.35	5.1135
5.3171	4.9551
5.2846	4.802
5.2524	4.8804
5.2207	4.887
5.1893	4.6496
5.1584	4.3625
5.1277	4.0254
5.0975	3.6489
5.0676	3.5561
5.038	3.883
5.0088	4.2788
4.98	4.4158
4.9514	4.457
4.9232	4.5425
4.8953	4.6208
4.8678	4.7869
4.8405	5.1057
4.8135	5.4543
4.7868	5.801
4.7605	5.9536
4.7344	6.3428
4.7086	6.9482
4.6831	7.4763
4.6578	7.7629
4.6328	8.2734
4.6081	8.7942
4.5837	9.4221
4.5595	9.9753
4.5356	10.622
4.5119	11.3076
4.4884	11.664
4.4652	11.8874
4.4423	12.0503
4.4196	12.1994
4.3971	12.3313
4.3748	12.4507
4.3528	12.5715
4.331	12.6709
4.3094	12.7685
4.288	12.8691
4.2668	12.9699
4.2458	13.0608
4.2251	13.1408
4.2045	13.1985
4.1841	13.2614
4.164	13.3149
4.144	13.3388
4.1242	13.3701
4.1046	13.4192
4.0852	13.4626
4.066	13.4826
4.047	13.4978
4.0281	13.5002
4.0094	13.5105
3.9909	13.4975
3.9725	13.5183
3.9544	13.5659
3.9363	13.6233
3.9185	13.6626
3.9008	13.6941
3.8833	13.7121
3.8659	13.719
3.8487	13.7285
3.8316	13.7404
3.8147	13.7529
3.7979	13.7527
3.7813	13.7605
3.7648	13.77
3.7485	13.7719
3.7323	13.7693
3.7162	13.7548
3.7003	13.7568
3.6845	13.7456
3.6689	13.708
3.6534	13.6902
3.638	13.6811
3.6227	13.6306
3.6076	13.6181
3.5926	13.5964
3.5777	13.5654
3.563	13.5434
3.5484	13.4826
3.5338	13.448
3.5195	13.3774
3.5052	13.2673
3.491	13.24
3.477	13.217
3.463	13.1936
3.4492	13.1389
3.4355	13.0749
3.4219	12.9702
3.4084	12.9084
3.395	12.9463
3.3817	12.8994
3.3685	12.8899
3.3554	12.8432
3.3425	12.8403
3.3296	12.8005
3.3168	12.7448
3.3041	12.7014
3.2915	12.6294
3.279	12.5451
3.2666	12.4533
3.2543	12.3535
3.2421	12.2409
3.23	12.1269
3.218	12.0088
3.206	11.885
3.1942	11.759
3.1824	11.6465
3.1707	11.5271
3.1591	11.4018
3.1476	11.2583
3.1362	11.1247
3.1249	10.9961
3.1136	10.8679
3.1024	10.7649
3.0913	10.643
3.0803	10.5468
3.0694	10.467
3.0585	10.3591
3.0477	10.2578
3.037	10.146
3.0264	10.0415
3.0158	9.9057
3.0053	9.7019
2.9949	9.5119
2.9845	9.3528
2.9743	9.229
2.9641	9.2334
2.9539	9.2768
2.9439	9.2727
2.9339	9.1709
2.9239	9.0051
2.9141	8.7553
2.9043	8.4621
2.8946	8.1736
2.8849	8.1526
2.8753	8.4399
2.8658	8.834
2.8563	8.9856
2.8469	8.8716
2.8375	8.6582
2.8282	8.5139
2.819	8.602
2.8098	9.1338
2.8007	9.8188
2.7917	10.2275
2.7827	10.3276
2.7738	10.3679
2.7649	10.3806
2.7561	10.372
2.7473	10.3852
2.7386	10.8613
2.7299	11.4372
2.7213	11.7783
2.7128	12.3816
2.7043	12.5774
2.6959	12.7212
2.6875	12.7834
2.6791	12.8366
2.6709	12.8471
2.6626	12.8615
2.6545	12.8288
2.6463	12.8144
2.6382	12.7539
2.6302	12.697
2.6222	12.6479
2.6143	12.6379
2.6064	12.5798
2.5986	12.5329
2.5908	12.4836
2.583	12.458
2.5753	12.3891
2.5677	12.3183
2.5601	12.2881
2.5525	12.206
2.545	12.1274
2.5375	12.0766
2.5301	12.0234
2.5227	11.9179
2.5154	11.8701
2.5081	11.8037
2.5008	11.7402
2.4936	11.6552
2.4864	11.5725
2.4793	11.519
2.4722	11.4431
2.4651	11.3613
2.4581	11.3359
2.4511	11.2651
2.4442	11.1972
2.4373	11.1103
2.4305	11.0664
2.4236	10.9853
2.4169	10.9868
2.4101	10.9155
2.4034	10.8911
2.3967	10.8091
2.3901	10.7632
2.3835	10.7461
2.377	10.6894
2.3704	10.6777
2.364	10.6333
2.3575	10.5654
2.3511	10.5283
2.3447	10.4868
2.3384	10.426
2.3321	10.3823
2.3258	10.3493
2.3195	10.3486
2.3133	10.2805
2.3071	10.2768
2.301	10.2426
2.2949	10.239
2.2888	10.1924
2.2828	10.1438
2.2767	10.1067
2.2708	10.0981
2.2648	10.0893
2.2589	10.0283
2.253	10.0232
2.2471	9.9555
2.2413	9.9524
2.2355	9.9839
2.2297	9.9055
2.224	9.9258
2.2183	9.9336
2.2126	9.9201
2.207	9.8781
2.2013	9.9035
2.1957	9.8677
2.1902	9.8667
2.1846	9.8408
2.1791	9.8059
2.1736	9.8066
2.1682	9.7895
2.1628	9.7854
2.1574	9.7778
2.152	9.7134
2.1466	9.6701
2.1413	9.6797
2.136	9.7073
2.1308	9.6401
2.1255	9.5942
2.1203	9.6924
2.1151	9.6748
2.11	9.6367
2.1048	9.6279
2.0997	9.6115
2.0946	9.5949
2.0895	9.594
2.0845	9.6045
2.0795	9.5918
