Name: Calcite CaCO_3
Type: Mineral
Class: Carbonate
Subclass: None
Particle Size: Medium
Sample No.: C-3A
Owner: JPL
Wavelength Range: TIR
Origin: Italy
Description: TravertineParticle size was 45-125um.Collected by Ward's Original ASTER Spectral Library name was jpl.nicolet.mineral.carbonate.none.medium.c03a.spectrum.txt
Measurement: Hemispherical reflectance
X Units: Wavelength (micrometers)
Y Units: Reflectance (percent)
wavelength	value
15.3853	13.3202
15.1161	13.8178
14.8563	13.5228
14.6052	15.6567
14.3624	11.8722
14.1276	3.2217
13.9004	2.5848
13.6803	14.8267
13.4671	21.6829
13.2604	22.6382
13.06	19.5226
12.8656	17.3501
12.6769	18.027
12.4936	19.4593
12.3155	19.4583
12.1425	20.7327
11.9742	19.0765
11.8106	6.8517
11.6513	8.3248
11.4963	6.4322
11.3454	14.2788
11.1983	19.5415
11.0551	21.9251
10.9154	22.6311
10.7793	19.12
10.6465	17.0853
10.5169	17.6734
10.3904	20.0969
10.267	19.1007
10.1464	17.5976
10.0287	15.2056
9.9136	13.6531
9.8012	13.8351
9.6913	16.0246
9.5838	17.3551
9.4787	17.7793
9.3758	14.6094
9.2752	13.5202
9.1767	11.7274
9.0803	12.4038
8.9858	10.703
8.8934	7.6819
8.8028	5.6657
8.714	5.3493
8.627	4.5392
8.5417	4.6471
8.4581	4.9652
8.3761	6.644
8.2957	8.194
8.2169	9.2447
8.1395	9.0388
8.0635	8.1512
7.989	8.445
7.9158	7.6128
7.8439	7.6385
7.7734	7.0228
7.7041	6.5382
7.636	5.7958
7.5691	5.4545
7.5034	5.7873
7.4388	5.7658
7.3753	6.0675
7.3129	6.5175
7.2515	7.4889
7.1912	9.3072
7.1318	11.9603
7.0734	16.1129
7.016	16.5103
6.9595	16.4856
6.9039	16.8553
6.8492	17.5757
6.7953	18.3881
6.7423	18.9993
6.6901	20.3642
6.6387	22.2046
6.5881	23.8039
6.5382	24.7074
6.4892	25.2544
6.4408	19.5819
6.3931	10.9871
6.3462	6.1884
6.2999	3.2628
6.2543	2.9678
6.2094	2.4816
6.1651	2.0236
6.1214	2.2062
6.0784	2.1759
6.0359	2.4523
5.994	2.9351
5.9527	3.2646
5.912	3.7258
5.8718	4.0682
5.8322	3.9648
5.7931	3.6907
5.7545	3.4973
5.7165	4.1087
5.6789	5.1271
5.6418	6.2961
5.6052	3.0584
5.5691	0.8907
5.5334	3.4752
5.4982	10.964
5.4635	16.9216
5.4291	22.374
5.3952	27.0973
5.3618	31.014
5.3287	34.6604
5.2961	38.0187
5.2638	40.6208
5.2319	43.3711
5.2004	45.6229
5.1693	46.7273
5.1386	47.6418
5.1082	41.5212
5.0782	48.0677
5.0485	49.6934
5.0192	49.6137
4.9902	49.4806
4.9616	49.6422
4.9332	49.8062
4.9052	50.638
4.8776	51.7294
4.8502	52.2054
4.8231	52.4326
4.7963	52.1785
4.7699	50.8438
4.7437	47.0073
4.7178	38.0595
4.6922	26.6367
4.6668	24.3033
4.6418	29.8507
4.617	37.4003
4.5924	40.0737
4.5681	41.1056
4.5441	41.7102
4.5203	42.0331
4.4968	42.9028
4.4735	45.5827
4.4505	47.9219
4.4277	50.3317
4.4051	51.6531
4.3828	52.294
4.3607	51.2845
4.3388	49.7016
4.3171	49.5638
4.2956	50.3629
4.2744	48.4197
4.2534	49.3086
4.2325	49.2595
4.2119	48.7247
4.1915	47.3883
4.1712	45.8349
4.1512	43.2887
4.1313	39.7116
4.1117	35.7104
4.0922	31.5047
4.0729	26.4022
4.0538	20.0708
4.0349	10.4636
4.0161	5.3322
3.9976	2.5269
3.9792	2.0334
3.9609	2.2321
3.9428	3.5767
3.9249	4.94
3.9072	5.5588
3.8896	6.0093
3.8722	6.1903
3.8549	6.605
3.8378	7.655
3.8208	12.242
3.804	20.2069
3.7873	33.9455
3.7708	40.1914
3.7544	42.6346
3.7382	44.5055
3.7221	46.0827
3.7061	46.6362
3.6903	46.7713
3.6746	46.3157
3.659	45.588
3.6436	44.4163
3.6283	43.067
3.6131	41.1787
3.5981	38.3215
3.5832	33.505
3.5684	28.9838
3.5537	27.3416
3.5391	21.3104
3.5247	11.7065
3.5104	6.3781
3.4962	4.7256
3.4821	3.693
3.4681	4.8064
3.4543	7.3886
3.4405	7.7557
3.4269	7.9439
3.4133	7.7655
3.3999	7.4422
3.3866	7.0239
3.3733	6.7563
3.3602	5.8739
3.3472	5.7168
3.3343	15.4722
3.3215	22.3111
3.3088	25.4166
3.2961	27.2133
3.2836	28.2425
3.2712	29.1046
3.2588	29.3935
3.2466	29.6157
3.2345	29.7098
3.2224	29.612
3.2104	29.4706
3.1985	29.3536
3.1867	29.013
3.175	28.2753
3.1634	27.0962
3.1519	25.9476
3.1404	25.7955
3.129	25.8113
3.1178	25.1328
3.1065	24.421
3.0954	24.7158
3.0844	25.1993
3.0734	25.3533
3.0625	25.3197
3.0517	25.3486
3.041	25.3177
3.0303	25.292
3.0197	25.3453
3.0092	25.2521
2.9987	25.2663
2.9884	24.8506
2.9781	24.8023
2.9678	24.7483
2.9577	24.6331
2.9476	24.6545
2.9376	24.8398
2.9276	24.9341
2.9177	25.4165
2.9079	25.6417
2.8982	26.1227
2.8885	26.3252
2.8789	26.9835
2.8693	27.6052
2.8598	28.3813
2.8504	29.1712
2.841	29.8503
2.8317	30.7331
2.8224	31.4095
2.8133	32.1932
2.8041	32.8342
2.7951	32.4082
2.786	33.1195
2.7771	36.9001
2.7682	41.3523
2.7594	45.264
2.7506	48.4975
2.7418	52.493
2.7332	55.9833
2.7246	60.1912
2.716	63.3439
2.7075	66.895
2.699	70.3924
2.6906	73.5607
2.6823	75.7532
2.674	77.1453
2.6657	78.9967
2.6575	78.9274
2.6494	79.3956
2.6413	79.7248
2.6332	80.2309
2.6252	80.3631
2.6173	80.6898
2.6094	80.1834
2.6015	79.3284
2.5937	79.27
2.5859	76.708
2.5782	75.4833
2.5706	73.6989
2.5629	70.1758
2.5554	63.6167
2.5478	56.092
2.5403	50.7324
2.5329	50.6603
2.5255	53.8796
2.5181	57.2276
2.5108	58.8054
2.5035	59.7082
2.4963	60.4089
2.4891	61.4657
2.482	63.0273
2.4749	65.8347
2.4678	68.784
2.4608	71.7736
2.4538	73.9986
2.4468	75.5464
2.4399	77.1563
2.4331	78.6127
2.4262	79.9557
2.4194	81.0328
2.4127	81.8379
2.4059	81.9246
2.3993	82.0549
2.3926	82.4845
2.386	82.5884
2.3795	81.8879
2.3729	80.4203
2.3664	77.7538
2.36	73.3451
2.3535	68.9137
2.3471	65.4749
2.3408	64.0897
2.3345	64.5611
2.3282	66.6373
2.3219	68.7944
2.3157	70.1837
2.3095	71.2511
2.3034	71.8592
2.2972	72.4402
2.2911	73.5373
2.2851	75.0272
2.279	76.721
2.2731	78.541
2.2671	80.048
2.2612	81.1298
2.2553	82.2149
2.2494	82.9898
2.2435	84.0023
2.2377	84.7053
2.232	85.4585
2.2262	85.928
2.2205	86.4972
2.2148	86.7128
2.2091	87.0704
2.2035	87.5244
2.1979	87.5704
2.1923	87.577
2.1868	87.82
2.1812	87.476
2.1758	87.3117
2.1703	86.7568
2.1649	86.3962
2.1595	86.1946
2.1541	86.1801
2.1487	86.4666
2.1434	86.8982
2.1381	87.4132
2.1328	87.7675
2.1275	87.8833
2.1223	88.0889
2.1171	88.108
2.112	88.1538
2.1068	88.1503
2.1017	88.6609
2.0966	88.433
2.0915	88.5094
2.0865	88.3288
2.0814	88.7254
2.0764	88.2339
2.0715	88.6821
2.0665	88.5288
2.0616	88.3573
2.0567	88.5127
2.0518	88.3364
2.0469	88.1844
2.0421	88.2411
2.0373	88.0295
2.0325	87.8248
2.0277	87.6664
2.0229	87.4088
2.0182	87.2456
2.0135	86.8206
2.0088	86.3323
2.0042	85.436
