Name: Riebeckite Na_2(Fe^2+,Mg)_3,Fe_2^3+Si_8O_22(OH)_2
Type: Mineral
Class: Silicate
Subclass: Inosilicate
Particle Size: Medium
Sample No.: IN-7A
Owner: JPL
Wavelength Range: VSWIR
Origin: Canada, Ontario
Description: Particle size was 45-125um.Collected by Ward's Original ASTER Spectral Library name was jpl.beckman.mineral.silicate.inosilicate.medium.in07a.spectrum.txt
Measurement: Hemispherical reflectance
X Units: Wavelength (micrometers)
Y Units: Reflectance (percent)
wavelength	value
0.4	3.01
0.403	3.05
0.406	3.05
0.409	3.05
0.412	3.05
0.415	2.99
0.418	3.05
0.421	2.99
0.424	3.1
0.427	3.05
0.43	3.1
0.433	3.04
0.436	3.05
0.439	3.1
0.442	3.15
0.445	3.1
0.448	3.04
0.451	3.1
0.454	3.09
0.457	3.12
0.46	3.12
0.463	3.1
0.466	3.1
0.469	3.04
0.472	3.04
0.475	3.16
0.478	3.14
0.481	3.21
0.484	3.15
0.487	3.14
0.49	3.13
0.493	3.12
0.496	3.22
0.499	3.15
0.502	3.14
0.505	3.14
0.508	3.15
0.511	3.15
0.514	3.07
0.517	3.13
0.52	3.07
0.523	3.12
0.526	3.07
0.529	3.11
0.532	3.08
0.535	2.95
0.538	2.96
0.541	2.96
0.544	3.02
0.547	2.94
0.55	2.93
0.553	2.85
0.556	2.9
0.559	2.89
0.562	2.94
0.565	2.94
0.568	2.89
0.571	2.89
0.574	2.86
0.577	2.9
0.58	2.87
0.583	2.81
0.586	2.74
0.589	2.68
0.592	2.8
0.595	2.74
0.598	2.79
0.601	2.86
0.604	2.73
0.607	2.77
0.61	2.76
0.613	2.82
0.616	2.76
0.619	2.71
0.622	2.64
0.625	2.71
0.628	2.81
0.631	2.77
0.634	2.82
0.637	2.71
0.64	2.7
0.643	2.77
0.646	2.82
0.649	2.76
0.652	2.76
0.655	2.71
0.658	2.77
0.661	2.76
0.664	2.81
0.667	2.88
0.67	2.76
0.673	2.76
0.676	2.76
0.679	2.82
0.682	2.76
0.685	2.81
0.688	2.81
0.691	2.87
0.694	2.82
0.697	2.82
0.7	2.94
0.703	2.93
0.706	2.93
0.709	2.92
0.712	2.94
0.715	2.93
0.718	3.05
0.721	2.92
0.724	2.99
0.727	2.93
0.73	2.98
0.733	2.99
0.736	2.98
0.739	3.1
0.742	3.05
0.745	3.1
0.748	3.1
0.751	3.1
0.754	3.15
0.757	3.21
0.76	3.21
0.763	3.27
0.766	3.27
0.769	3.32
0.772	3.26
0.775	3.44
0.778	3.49
0.781	3.49
0.784	3.43
0.787	3.49
0.79	3.43
0.793	3.6
0.796	3.61
0.799	3.63
0.808	4.03
0.82	4.09
0.832	4.14
0.844	4.2
0.856	4.15
0.868	4.22
0.88	4.35
0.892	4.22
0.904	4.34
0.916	4.46
0.928	4.52
0.94	4.65
0.952	4.95
0.964	5.07
0.976	5.13
0.988	5.4
1	5.55
1.012	5.77
1.024	5.89
1.036	5.94
1.048	6.19
1.06	6.35
1.072	6.51
1.084	6.67
1.096	6.87
1.108	6.91
1.12	7.17
1.132	7.42
1.144	7.56
1.156	7.77
1.168	8
1.18	8.17
1.192	8.56
1.204	8.93
1.216	9.32
1.228	9.6
1.24	10.03
1.252	10.5
1.264	10.92
1.276	11.4
1.288	11.98
1.3	12.57
1.312	13.05
1.324	13.71
1.336	14.33
1.348	14.97
1.36	15.74
1.372	16.27
1.384	16.6
1.396	17.16
1.408	18.41
1.42	19.33
1.432	20.08
1.444	20.93
1.456	21.8
1.468	22.6
1.48	23.39
1.492	24.19
1.504	25.15
1.516	25.9
1.528	26.72
1.54	27.55
1.552	28.49
1.564	29.23
1.576	30.05
1.588	30.9
1.6	31.8
1.612	32.58
1.624	33.4
1.636	34.21
1.648	34.98
1.66	35.81
1.672	36.52
1.684	37.34
1.696	38.16
1.708	38.87
1.72	39.62
1.732	40.29
1.744	41.02
1.756	41.7
1.768	42.36
1.78	42.98
1.792	43.66
1.804	44.35
1.816	44.89
1.828	45.56
1.84	45.98
1.852	46.56
1.864	47.06
1.876	47.62
1.888	48.03
1.9	48.35
1.912	48.8
1.924	49.23
1.936	49.78
1.948	50.28
1.96	50.74
1.972	51.22
1.984	51.58
1.996	52.08
2.008	52.5
2.02	52.9
2.032	53.21
2.044	53.62
2.056	53.72
2.068	53.98
2.08	54.21
2.092	54.21
2.104	54.34
2.116	54.73
2.128	54.87
2.14	55.19
2.152	55.42
2.164	55.61
2.176	55.84
2.188	56.05
2.2	56.11
2.212	56.22
2.224	56.45
2.236	56.36
2.248	56.3
2.26	56.18
2.272	55.67
2.284	54.51
2.296	52.14
2.308	48.92
2.32	47.16
2.332	47.7
2.344	49.67
2.356	51.06
2.368	50.76
2.38	49.57
2.392	49.22
2.404	50.7
2.416	52.59
2.428	53.87
2.44	54.5
2.452	54.63
2.464	54.62
2.476	54.63
2.488	54.94
2.5	55.28
