Name: Magnesiochromite MgCr_2O_4
Type: Mineral
Class: Oxide
Subclass: None
Particle Size: Fine
Sample No.: O-8A
Owner: JPL
Wavelength Range: VSWIR
Origin: Canada, Quebec, Coleraine Township
Description: Particle size was 0-45um.Collected by Ward's Original ASTER Spectral Library name was jpl.beckman.mineral.oxide.none.fine.o08a.spectrum.txt
Measurement: Hemispherical reflectance
X Units: Wavelength (micrometers)
Y Units: Reflectance (percent)
wavelength	value
0.4	5.58
0.403	5.67
0.406	5.49
0.409	5.54
0.412	5.59
0.415	5.66
0.418	5.72
0.421	5.63
0.424	5.65
0.427	5.83
0.43	5.88
0.433	5.83
0.436	5.88
0.439	5.88
0.442	6.06
0.445	6.12
0.448	6
0.451	6.1
0.454	6.09
0.457	6.14
0.46	6.19
0.463	6.24
0.466	6.28
0.469	6.22
0.472	6.28
0.475	6.34
0.478	6.35
0.481	6.34
0.484	6.36
0.487	6.41
0.49	6.42
0.493	6.53
0.496	6.62
0.499	6.59
0.502	6.76
0.505	6.81
0.508	6.97
0.511	7.09
0.514	7.1
0.517	7.27
0.52	7.4
0.523	7.5
0.526	7.63
0.529	7.72
0.532	7.84
0.535	7.93
0.538	8
0.541	7.95
0.544	8.1
0.547	8.05
0.55	8.12
0.553	8.13
0.556	8.12
0.559	8.11
0.562	8.14
0.565	8.33
0.568	8.26
0.571	8.23
0.574	8.3
0.577	8.27
0.58	8.41
0.583	8.49
0.586	8.45
0.589	8.49
0.592	8.64
0.595	8.68
0.598	8.92
0.601	8.96
0.604	9.16
0.607	9.26
0.61	9.48
0.613	9.69
0.616	9.73
0.619	9.95
0.622	10.22
0.625	10.41
0.628	10.54
0.631	10.59
0.634	10.75
0.637	10.81
0.64	10.89
0.643	10.92
0.646	10.84
0.649	10.76
0.652	10.71
0.655	10.79
0.658	10.74
0.661	10.73
0.664	10.74
0.667	10.69
0.67	10.87
0.673	10.93
0.676	10.93
0.679	10.82
0.682	10.92
0.685	10.93
0.688	11.02
0.691	11.14
0.694	11.07
0.697	11.08
0.7	11.28
0.703	11.34
0.706	11.35
0.709	11.48
0.712	11.53
0.715	11.8
0.718	11.87
0.721	11.95
0.724	11.99
0.727	12.12
0.73	12.25
0.733	12.44
0.736	12.38
0.739	12.51
0.742	12.55
0.745	12.82
0.748	12.88
0.751	12.85
0.754	12.92
0.757	12.93
0.76	13.14
0.763	13.2
0.766	13.16
0.769	13.26
0.772	13.31
0.775	13.49
0.778	13.52
0.781	13.48
0.784	13.48
0.787	13.71
0.79	13.73
0.793	13.7
0.796	13.79
0.799	14
0.808	14.32
0.82	14.51
0.832	14.77
0.844	15.01
0.856	15.05
0.868	15.16
0.88	15.16
0.892	15.22
0.904	15.3
0.916	15.38
0.928	15.48
0.94	15.75
0.952	15.98
0.964	16.47
0.976	16.96
0.988	17.39
1	17.92
1.012	18.5
1.024	19.08
1.036	19.58
1.048	20.1
1.06	20.62
1.072	20.92
1.084	21.29
1.096	21.58
1.108	21.86
1.12	22
1.132	22.18
1.144	22.26
1.156	22.36
1.168	22.33
1.18	22.46
1.192	22.52
1.204	22.57
1.216	22.66
1.228	22.78
1.24	22.85
1.252	23.07
1.264	23.18
1.276	23.42
1.288	23.7
1.3	24
1.312	24.31
1.324	24.65
1.336	25
1.348	25.39
1.36	25.8
1.372	26.25
1.384	26.6
1.396	27
1.408	27.25
1.42	27.48
1.432	27.64
1.444	27.72
1.456	27.68
1.468	27.46
1.48	27.21
1.492	26.79
1.504	26.15
1.516	25.57
1.528	24.78
1.54	24.01
1.552	23.18
1.564	22.26
1.576	21.38
1.588	20.41
1.6	19.52
1.612	18.7
1.624	17.78
1.636	16.9
1.648	16.11
1.66	15.31
1.672	14.45
1.684	13.8
1.696	13.17
1.708	12.52
1.72	11.9
1.732	11.38
1.744	10.8
1.756	10.33
1.768	9.97
1.78	9.49
1.792	9.11
1.804	8.79
1.816	8.44
1.828	8.1
1.84	7.91
1.852	7.63
1.864	7.47
1.876	7.2
1.888	7.08
1.9	6.86
1.912	6.7
1.924	6.54
1.936	6.31
1.948	6.17
1.96	6.01
1.972	5.99
1.984	5.9
1.996	5.86
2.008	5.76
2.02	5.77
2.032	5.68
2.044	5.62
2.056	5.63
2.068	5.61
2.08	5.59
2.092	5.61
2.104	5.56
2.116	5.61
2.128	5.6
2.14	5.46
2.152	5.51
2.164	5.44
2.176	5.39
2.188	5.38
2.2	5.39
2.212	5.4
2.224	5.48
2.236	5.4
2.248	5.41
2.26	5.38
2.272	5.44
2.284	5.49
2.296	5.43
2.308	5.6
2.32	5.61
2.332	5.62
2.344	5.58
2.356	5.65
2.368	5.71
2.38	5.71
2.392	5.81
2.404	5.85
2.416	5.9
2.428	5.95
2.44	6
2.452	6.05
2.464	6.05
2.476	6.1
2.488	6.27
2.5	6.31
