Name: Tremolite Ca2(Mg, Fe+2)5Si8O22(OH)2
Type: Mineral
Class: Silicate
Subclass: Inosilicate
Particle Size: Fine
Sample No.: tremol_1
Owner: JHU
Wavelength Range: TIR
Origin: Balmat, New York, USA via Bruce Hemingway, USGS
Description: The sample consisted of 2-3 cm long x 1-2 cm wide mass of white tremolite crystals.  The sample appeared pure in hand specimen and under the microscope. (Chain Silicates); (Amphibole Group)Particle size was Less than 2  Micrometers. Original ASTER Spectral Library name was jhu.nicolet.mineral.silicate.inosilicate.powder.tremol1.spectrum.txt
Measurement: Transmission
X Units: Wavelength (micrometers)
Y Units: Transmittance (percent)
wavelength	value
25.0442	48.4843
24.3388	52.1952
23.6719	38.8456
23.0407	35.3358
22.4422	16.8027
21.8741	14.75
21.334	14.7148
20.8199	22.7695
20.33	38.7548
19.8627	29.1962
19.4163	28.9726
18.9896	37.0214
18.5812	43.4628
18.19	44.5946
17.815	64.617
17.4551	74.2967
17.1094	79.8816
16.7772	83.3699
16.4576	85.5056
16.15	87.6424
15.8537	87.8538
15.568	79.5037
15.2925	81.0057
15.0265	72.9568
14.7697	72.6277
14.5214	61.0135
14.2814	78.7913
14.0492	84.4827
13.8244	81.6736
13.6067	79.6258
13.3957	71.076
13.1912	51.7323
12.9929	75.7366
12.8004	86.7093
12.6135	89.8728
12.432	89.7014
12.2557	88.2893
12.0843	85.5945
11.9176	82.1541
11.7555	77.6248
11.5977	72.0135
11.444	65.785
11.2944	57.3265
11.1487	47.7206
11.0067	35.496
10.8682	21.6777
10.7332	30.0033
10.6015	20.2446
10.473	16.1352
10.3476	22.8525
10.2251	24.3312
10.1056	18.4697
9.9887	16.6232
9.8746	22.3432
9.763	28.4516
9.6539	35.247
9.5472	30.6984
9.4429	28.5724
9.3408	31.7148
9.2409	36.3461
9.1431	31.7812
9.0474	26.3437
8.9536	32.4511
8.8618	41.806
8.7718	51.4354
8.6837	59.0606
8.5973	64.3934
8.5126	67.8682
8.4295	70.8057
8.3481	73.3514
8.2682	75.6321
8.1898	77.5003
8.1129	79.045
8.0374	80.3787
7.9634	81.792
7.8906	83.0144
7.8192	83.9016
7.7491	84.6712
7.6802	85.3897
7.6126	86.1963
7.5461	86.9104
7.4807	87.3484
7.4165	87.7969
7.3534	88.2881
7.2914	88.7881
7.2303	89.22
7.1703	90.0823
7.1113	90.5635
7.0533	90.8005
6.9962	91.2092
6.94	91.793
6.8847	92.0198
6.8302	92.0674
6.7767	92.3352
6.7239	92.5684
6.672	92.9219
6.6209	93.2288
6.5705	93.6111
6.5209	93.7229
6.4721	93.8711
6.424	94.0046
6.3766	93.8655
6.3299	93.7754
6.2838	93.665
6.2385	93.6521
6.1937	93.6419
6.1496	93.4255
6.1062	93.4309
6.0633	93.7688
6.0211	94.7307
5.9794	95.5559
5.9383	95.071
5.8978	94.8171
5.8578	94.9395
5.8184	95.2405
5.7794	95.3965
5.741	95.5969
5.7031	95.71
5.6657	95.6814
5.6288	95.7576
5.5924	95.7693
5.5564	95.946
5.5209	96.0547
5.4859	96.1184
5.4513	96.1338
5.4171	96.2991
5.3833	96.3206
5.35	96.3936
5.3171	96.3633
5.2846	96.4932
5.2524	96.5935
5.2207	96.6887
5.1893	96.7998
5.1584	96.7673
5.1277	96.675
5.0975	96.7803
5.0676	96.8025
5.038	96.8857
5.0088	96.9348
4.98	97.0088
4.9514	97.1191
4.9232	97.123
4.8953	97.1462
4.8678	97.1348
4.8405	97.1692
4.8135	97.1982
4.7868	97.2288
4.7605	97.2751
4.7344	97.2996
4.7086	97.3301
4.6831	97.3523
4.6578	97.4199
4.6328	97.4521
4.6081	97.6826
4.5837	97.54
4.5595	97.5225
4.5356	97.5508
4.5119	97.5068
4.4884	97.5124
4.4652	97.5322
4.4423	97.5095
4.4196	97.5017
4.3971	97.5127
4.3748	97.5044
4.3528	97.4482
4.331	97.4773
4.3094	97.4121
4.288	97.3906
4.2668	97.3826
4.2458	97.3528
4.2251	97.3289
4.2045	97.2949
4.1841	97.3005
4.164	97.2175
4.144	97.2019
4.1242	97.2107
4.1046	97.1609
4.0852	97.1306
4.066	97.1145
4.047	97.1223
4.0281	97.1169
4.0094	97.1233
3.9909	97.0115
3.9725	96.8845
3.9544	96.9358
3.9363	96.9685
3.9185	96.9778
3.9008	96.8884
3.8833	96.8909
3.8659	96.8005
3.8487	96.7971
3.8316	96.7737
3.8147	96.7478
3.7979	96.6218
3.7813	96.6702
3.7648	96.6404
3.7485	96.5808
3.7323	96.4978
3.7162	96.449
3.7003	96.3396
3.6845	96.3206
3.6689	96.2312
3.6534	96.2449
3.638	96.115
3.6227	96.054
3.6076	96.0085
3.5926	95.9377
3.5777	95.9304
3.563	95.8806
3.5484	95.7698
3.5338	95.7351
3.5195	95.5906
3.5052	95.5007
3.491	95.3718
3.477	95.3557
3.463	95.2698
3.4492	95.2507
3.4355	95.1897
3.4219	95.1003
3.4084	94.885
3.395	94.9382
3.3817	95.01
3.3685	94.9509
3.3554	94.801
3.3425	94.74
3.3296	94.6599
3.3168	94.656
3.3041	94.5964
3.2915	94.5901
3.279	94.4963
3.2666	94.3904
3.2543	94.3044
3.2421	94.3694
3.23	94.2117
3.218	94.1921
3.206	94.073
3.1942	93.9138
3.1824	93.8577
3.1707	93.6721
3.1591	93.5974
3.1476	93.4827
3.1362	93.3904
3.1249	93.3362
3.1136	93.2087
3.1024	92.9548
3.0913	92.7068
3.0803	92.5701
3.0694	92.4631
3.0585	92.2112
3.0477	92.0862
3.037	91.8948
3.0264	91.7927
3.0158	91.596
3.0053	91.2986
2.9949	91.178
2.9845	90.8069
2.9743	90.3655
2.9641	90.1839
2.9539	89.8953
2.9439	89.6697
2.9339	89.5291
2.9239	89.449
2.9141	89.3113
2.9043	89.2361
2.8946	89.1853
2.8849	89.0838
2.8753	89.0193
2.8658	88.9773
2.8563	88.9724
2.8469	89.034
2.8375	89.1189
2.8282	89.1423
2.819	89.5193
2.8098	89.5349
2.8007	89.658
2.7917	89.7673
2.7827	89.908
2.7738	90.1384
2.7649	90.0857
2.7561	90.2048
2.7473	90.4099
2.7386	90.2673
2.7299	89.0759
2.7213	71.6639
2.7128	90.988
2.7043	90.8259
2.6959	90.8416
2.6875	90.8836
2.6791	90.8123
2.6709	90.8367
2.6626	90.6912
2.6545	90.5642
2.6463	90.5134
2.6382	90.488
2.6302	90.3611
2.6222	90.2166
2.6143	90.1453
2.6064	90.1101
2.5986	89.9529
2.5908	89.9304
2.583	89.8318
2.5753	89.6638
2.5677	89.5701
2.5601	89.6209
2.5525	89.489
2.545	89.2898
2.5375	89.283
2.5301	89.0896
2.5227	88.8064
2.5154	88.9021
2.5081	88.9802
2.5008	88.5867
2.4936	88.7117
2.4864	88.5408
2.4793	88.492
2.4722	88.5623
2.4651	88.2537
2.4581	88.2166
2.4511	88.1375
2.4442	88.0427
2.4373	88.0213
2.4305	88.0174
2.4236	87.8455
2.4169	87.8396
2.4101	87.8396
2.4034	87.4158
2.3967	87.4881
2.3901	87.2732
2.3835	87.156
2.377	87.3689
2.3704	87.3709
2.364	87.242
2.3575	86.9881
2.3511	87.3396
2.3447	86.9685
2.3384	86.8455
2.3321	86.7302
2.3258	86.8513
2.3195	86.5232
2.3133	86.7029
2.3071	86.6502
2.301	86.4158
2.2949	86.8455
2.2888	86.533
2.2828	86.3435
2.2767	86.4236
2.2708	86.4998
2.2648	86.4295
2.2589	86.5701
2.253	86.6248
2.2471	85.9451
2.2413	86.4568
2.2355	86.3709
2.2297	86.3709
2.224	86.2185
2.2183	86.0623
2.2126	86.4763
2.207	86.0799
2.2013	86.0115
2.1957	86.1677
2.1902	86.1052
2.1846	86.0076
2.1791	85.8826
2.1736	86.2127
2.1682	85.9842
2.1628	86.033
2.1574	86.2576
2.152	86.033
2.1466	86.1189
2.1413	85.781
2.136	86.2986
2.1308	86.1482
2.1255	86.7205
2.1203	86.0232
2.1151	85.9783
2.11	86.1658
2.1048	86.3123
2.0997	86.3533
2.0946	86.7732
2.0895	86.2888
2.0845	86.4998
2.0795	86.8904
