Name: Sanidine (K,Na)Al3O8
Type: Mineral
Class: Silicate
Subclass: Tectosilicate
Particle Size: Fine
Sample No.: sanidine_3
Owner: JHU
Wavelength Range: TIR
Origin: Higasinuiro-gun, Taiji, Wakayama, Japan via the Smithsonian(sample no. NMNH 103200)
Description: The sample consisted of many small (0.5 cm) euhedral crystals totaling 6.49 g.  Almost all had some adhering clay/limonite, to be removed by brushing and ultrasonic cleaning.  Under the microscope, a few acicular inclusions (rutile) could be seen.  Otherwise the sample appeared very pure. Particle size was Less than 2  Micrometers.(Feldspar Group) Original ASTER Spectral Library name was jhu.nicolet.mineral.silicate.tectosilicate.powder.sanidi3.spectrum.txt
Measurement: Transmission
X Units: Wavelength (micrometers)
Y Units: Transmittance (percent)
wavelength	value
25.0442	46.0546
24.3388	41.8222
23.6719	36.2343
23.0407	36.0116
22.4422	44.6679
21.8741	55.7001
21.334	63.0369
20.8199	71.5858
20.33	76.3768
19.8627	77.0589
19.4163	75.7132
18.9896	71.8777
18.5812	58.9686
18.19	55.3895
17.815	57.4847
17.4551	47.8856
17.1094	40.5951
16.7772	45.9335
16.4576	54.8788
16.15	61.3465
15.8537	62.2293
15.568	57.4601
15.2925	69.6434
15.0265	77.201
14.7697	79.6329
14.5214	79.0196
14.2814	73.4954
14.0492	67.9222
13.8244	66.0313
13.6067	66.931
13.3957	68.7559
13.1912	68.9041
12.9929	68.2137
12.8004	68.3497
12.6135	70.7567
12.432	78.5225
12.2557	85.4329
12.0843	85.6375
11.9176	83.3916
11.7555	80.449
11.5977	77.1556
11.444	73.3494
11.2944	69.6317
11.1487	65.3443
11.0067	60.5077
10.8682	54.8546
10.7332	48.442
10.6015	41.5231
10.473	34.9921
10.3476	28.8666
10.2251	23.2612
10.1056	18.7221
9.9887	15.2089
9.8746	13.0976
9.763	12.415
9.6539	12.5664
9.5472	13.5849
9.4429	15.9807
9.3408	20.5102
9.2409	23.6047
9.1431	23.4257
9.0474	22.2629
8.9536	21.3066
8.8618	21.1245
8.7718	21.9604
8.6837	24.3569
8.5973	28.6833
8.5126	34.4379
8.4295	40.2899
8.3481	45.5297
8.2682	50.6068
8.1898	54.9711
8.1129	58.2596
8.0374	60.8636
7.9634	63.2684
7.8906	65.1297
7.8192	66.7025
7.7491	68.1539
7.6802	69.3607
7.6126	70.5958
7.5461	71.6873
7.4807	72.6395
7.4165	73.4866
7.3534	74.2979
7.2914	75.0481
7.2303	75.7891
7.1703	76.7415
7.1113	77.5696
7.0533	78.0127
6.9962	78.6219
6.94	79.3211
6.8847	79.6748
6.8302	80.0464
6.7767	80.4378
6.7239	80.8328
6.672	81.2771
6.6209	81.679
6.5705	82.1175
6.5209	82.3572
6.4721	82.7137
6.424	82.9417
6.3766	83.1429
6.3299	83.2925
6.2838	83.5281
6.2385	83.7493
6.1937	83.886
6.1496	83.7083
6.1062	83.7876
6.0633	84.1126
6.0211	85.0796
5.9794	85.9422
5.9383	85.701
5.8978	85.5977
5.8578	85.7132
5.8184	85.9368
5.7794	86.086
5.741	86.199
5.7031	86.1912
5.6657	86.1673
5.6288	86.2737
5.5924	86.3777
5.5564	86.5569
5.5209	86.7486
5.4859	86.9719
5.4513	87.1934
5.4171	87.4353
5.3833	87.5662
5.35	87.7322
5.3171	87.9048
5.2846	88.064
5.2524	88.2454
5.2207	88.3782
5.1893	88.596
5.1584	88.7681
5.1277	88.9221
5.0975	89.0986
5.0676	89.2107
5.038	89.3782
5.0088	89.5108
4.98	89.5911
4.9514	89.6956
4.9232	89.7507
4.8953	89.8123
4.8678	89.8308
4.8405	89.9285
4.8135	89.9939
4.7868	90.0061
4.7605	90.0964
4.7344	90.1589
4.7086	90.1672
4.6831	90.2317
4.6578	90.262
4.6328	90.3982
4.6081	90.6096
4.5837	90.5178
4.5595	90.5603
4.5356	90.6321
4.5119	90.6409
4.4884	90.721
4.4652	90.7693
4.4423	90.7849
4.4196	90.8943
4.3971	90.9583
4.3748	90.9766
4.3528	90.9588
4.331	91.0938
4.3094	91.1467
4.288	91.1394
4.2668	91.1646
4.2458	91.1477
4.2251	91.1997
4.2045	91.2647
4.1841	91.2354
4.164	91.283
4.144	91.3052
4.1242	91.315
4.1046	91.346
4.0852	91.3713
4.066	91.3081
4.047	91.3535
4.0281	91.3489
4.0094	91.3547
3.9909	91.3687
3.9725	91.3259
3.9544	91.3948
3.9363	91.4387
3.9185	91.4436
3.9008	91.4634
3.8833	91.4063
3.8659	91.3516
3.8487	91.4363
3.8316	91.4319
3.8147	91.4678
3.7979	91.3767
3.7813	91.3858
3.7648	91.4114
3.7485	91.415
3.7323	91.3645
3.7162	91.3665
3.7003	91.2966
3.6845	91.3152
3.6689	91.2893
3.6534	91.2273
3.638	91.2517
3.6227	91.1751
3.6076	91.1336
3.5926	91.1699
3.5777	91.1619
3.563	91.1326
3.5484	91.0974
3.5338	91.052
3.5195	90.9524
3.5052	91.0283
3.491	90.886
3.477	90.708
3.463	90.7334
3.4492	90.6506
3.4355	90.6631
3.4219	90.752
3.4084	90.5254
3.395	90.5244
3.3817	90.5938
3.3685	90.5769
3.3554	90.3728
3.3425	90.4668
3.3296	90.4522
3.3168	90.4426
3.3041	90.5335
3.2915	90.513
3.279	90.4024
3.2666	90.3574
3.2543	90.2888
3.2421	90.332
3.23	90.2976
3.218	90.25
3.206	90.2468
3.1942	90.1299
3.1824	90.0403
3.1707	89.9846
3.1591	89.9082
3.1476	89.7571
3.1362	89.6084
3.1249	89.5281
3.1136	89.4844
3.1024	89.2117
3.0913	88.9668
3.0803	88.7742
3.0694	88.6463
3.0585	88.4187
3.0477	88.2713
3.037	88.2175
3.0264	88.0564
3.0158	87.8474
3.0053	87.5735
2.9949	87.3875
2.9845	87.0999
2.9743	86.7068
2.9641	86.3093
2.9539	86.0008
2.9439	85.7488
2.9339	85.5652
2.9239	85.4612
2.9141	85.3836
2.9043	85.3953
2.8946	85.4187
2.8849	85.4998
2.8753	85.3987
2.8658	85.406
2.8563	85.5203
2.8469	85.6316
2.8375	85.6975
2.8282	85.9607
2.819	86.2952
2.8098	86.5471
2.8007	86.6775
2.7917	86.8694
2.7827	87.1326
2.7738	87.2781
2.7649	87.4285
2.7561	87.8675
2.7473	87.9763
2.7386	88.0672
2.7299	88.0628
2.7213	88.0081
2.7128	88.1306
2.7043	88.1917
2.6959	88.281
2.6875	88.3924
2.6791	88.4324
2.6709	88.4514
2.6626	88.2966
2.6545	88.1775
2.6463	88.0784
2.6382	88.116
2.6302	88.1189
2.6222	88.0081
2.6143	87.9099
2.6064	87.9378
2.5986	87.8904
2.5908	87.9339
2.583	87.8924
2.5753	87.7151
2.5677	87.6155
2.5601	87.6853
2.5525	87.4651
2.545	87.3347
2.5375	87.4514
2.5301	87.2796
2.5227	87.1873
2.5154	87.2049
2.5081	87.159
2.5008	87.0838
2.4936	87.1687
2.4864	87.0427
2.4793	86.8806
2.4722	86.7547
2.4651	86.7107
2.4581	86.8416
2.4511	86.8045
2.4442	86.5066
2.4373	86.3953
2.4305	86.5037
2.4236	86.3963
2.4169	86.4383
2.4101	86.4744
2.4034	86.1795
2.3967	86.0486
2.3901	86.0672
2.3835	85.9226
2.377	86.0838
2.3704	85.951
2.364	85.8435
2.3575	85.7615
2.3511	85.7859
2.3447	85.6961
2.3384	85.6795
2.3321	85.4109
2.3258	85.489
2.3195	85.4969
2.3133	85.4373
2.3071	85.2078
2.301	85.3904
2.2949	85.3054
2.2888	85.1853
2.2828	85.1013
2.2767	85.0779
2.2708	85.0369
2.2648	85.0935
2.2589	85.1345
2.253	84.9383
2.2471	85.031
2.2413	84.8797
2.2355	84.8758
2.2297	84.9998
2.224	84.8601
2.2183	84.7742
2.2126	84.9138
2.207	84.6775
2.2013	84.574
2.1957	84.5818
2.1902	84.6326
2.1846	84.5877
2.1791	84.5008
2.1736	84.6404
2.1682	84.7234
2.1628	84.5789
2.1574	84.3172
2.152	84.3201
2.1466	84.4734
2.1413	84.1717
2.136	84.4021
2.1308	84.6267
2.1255	84.4334
2.1203	84.6228
2.1151	84.5994
2.11	84.4256
2.1048	84.3025
2.0997	84.7166
2.0946	84.8455
2.0895	84.8064
2.0845	84.3982
2.0795	84.4861
