Name: Pyrite FeS_2
Type: Mineral
Class: Sulfide
Subclass: None
Particle Size: Medium
Sample No.: S-2A
Owner: JPL
Wavelength Range: TIR
Origin: Italy, Tuscany, Elba, Rio Marina Isle
Description: Particle size was 45-125um.Collected by Ward's Original ASTER Spectral Library name was jpl.nicolet.mineral.sulfide.none.medium.s02a.spectrum.txt
Measurement: Hemispherical reflectance
X Units: Wavelength (micrometers)
Y Units: Reflectance (percent)
wavelength	value
15.3853	4.1158
15.1161	3.9221
14.8563	4.9906
14.6052	4.6228
14.3624	4.3958
14.1276	4.0472
13.9004	4.1506
13.6803	3.7211
13.4671	4.0139
13.2604	3.7644
13.06	3.6108
12.8656	3.6377
12.6769	3.301
12.4936	3.3644
12.3155	4.0958
12.1425	4.8277
11.9742	5.6184
11.8106	6.0294
11.6513	6.0322
11.4963	5.8161
11.3454	5.6372
11.1983	5.4067
11.0551	5.2633
10.9154	5.0916
10.7793	4.9966
10.6465	5.0753
10.5169	4.7009
10.3904	4.6014
10.267	4.4815
10.1464	4.5082
10.0287	4.3371
9.9136	3.8444
9.8012	3.8685
9.6913	4.3589
9.5838	4.3506
9.4787	3.9924
9.3758	4.6152
9.2752	5.7434
9.1767	6.3102
9.0803	5.5925
8.9858	5.7206
8.8934	6.5155
8.8028	7.9499
8.714	8.3281
8.627	8.1648
8.5417	7.6722
8.4581	8.0687
8.3761	8.0153
8.2957	8.5853
8.2169	8.6994
8.1395	9.1411
8.0635	8.9532
7.989	8.5247
7.9158	8.2584
7.8439	8.0125
7.7734	7.9238
7.7041	7.6367
7.636	7.7326
7.5691	7.6933
7.5034	7.5532
7.4388	7.5175
7.3753	7.5303
7.3129	7.3747
7.2515	7.2655
7.1912	7.3498
7.1318	7.265
7.0734	7.1937
7.016	7.0677
6.9595	7.075
6.9039	6.8312
6.8492	6.5998
6.7953	6.1446
6.7423	5.7719
6.6901	5.6051
6.6387	6.1419
6.5881	6.3082
6.5382	6.6418
6.4892	6.8829
6.4408	6.8312
6.3931	6.7821
6.3462	6.9267
6.2999	6.6478
6.2543	6.5985
6.2094	6.3876
6.1651	6.2631
6.1214	6.0444
6.0784	6.0519
6.0359	6.1483
5.994	6.2624
5.9527	6.3978
5.912	6.4649
5.8718	6.8001
5.8322	6.9916
5.7931	7.2364
5.7545	7.4768
5.7165	7.4499
5.6789	7.5483
5.6418	7.8029
5.6052	7.835
5.5691	7.7484
5.5334	8.065
5.4982	7.9977
5.4635	8.1819
5.4291	8.1448
5.3952	8.1423
5.3618	8.2838
5.3287	8.2851
5.2961	8.3097
5.2638	8.3218
5.2319	8.3971
5.2004	8.3988
5.1693	8.3857
5.1386	8.4796
5.1082	8.3212
5.0782	8.4339
5.0485	8.3357
5.0192	8.2087
4.9902	8.2785
4.9616	8.3068
4.9332	8.2548
4.9052	8.2875
4.8776	8.3013
4.8502	8.1899
4.8231	8.0285
4.7963	8.2458
4.7699	8.1761
4.7437	8.2154
4.7178	8.2445
4.6922	8.0147
4.6668	8.1023
4.6418	8.0671
4.617	8.054
4.5924	8.0355
4.5681	7.9846
4.5441	7.9176
4.5203	7.8529
4.4968	7.8731
4.4735	8.0178
4.4505	7.9695
4.4277	7.9471
4.4051	7.9012
4.3828	8.0469
4.3607	7.941
4.3388	7.8934
4.3171	7.8175
4.2956	7.853
4.2744	8.1113
4.2534	7.8996
4.2325	7.9308
4.2119	8.025
4.1915	8.1041
4.1712	8.1408
4.1512	8.1738
4.1313	8.0159
4.1117	8.035
4.0922	8.0598
4.0729	8.0359
4.0538	8.0106
4.0349	8.0069
4.0161	8.0456
3.9976	8.1005
3.9792	8.0611
3.9609	8.0242
3.9428	8.0563
3.9249	8.2893
3.9072	8.0516
3.8896	8.0915
3.8722	8.1856
3.8549	8.1327
3.8378	8.0824
3.8208	8.0159
3.804	8.0536
3.7873	8.1632
3.7708	7.9114
3.7544	7.996
3.7382	7.8833
3.7221	7.818
3.7061	7.8245
3.6903	7.8157
3.6746	7.845
3.659	7.718
3.6436	7.6905
3.6283	7.5186
3.6131	7.6251
3.5981	7.5076
3.5832	7.499
3.5684	7.3449
3.5537	7.2566
3.5391	7.2988
3.5247	7.3433
3.5104	7.1098
3.4962	7.1683
3.4821	7.1135
3.4681	6.9227
3.4543	6.9081
3.4405	6.7256
3.4269	6.7103
3.4133	6.7343
3.3999	6.5678
3.3866	6.5634
3.3733	6.2712
3.3602	6.3769
3.3472	6.1927
3.3343	6.0006
3.3215	5.9017
3.3088	5.7518
3.2961	5.8448
3.2836	5.6526
3.2712	5.5504
3.2588	5.5651
3.2466	5.409
3.2345	5.5376
3.2224	5.381
3.2104	5.2558
3.1985	5.1175
3.1867	5.1777
3.175	5.006
3.1634	4.9118
3.1519	4.8719
3.1404	4.6258
3.129	4.4894
3.1178	4.3767
3.1065	4.0753
3.0954	3.9086
3.0844	3.8381
3.0734	3.8755
3.0625	3.9733
3.0517	3.7871
3.041	3.961
3.0303	4.028
3.0197	4.2774
3.0092	4.3604
2.9987	4.1124
2.9884	4.307
2.9781	4.389
2.9678	4.3799
2.9577	4.6619
2.9476	4.6228
2.9376	4.625
2.9276	4.8744
2.9177	5.0247
2.9079	5.1829
2.8982	5.5617
2.8885	5.7266
2.8789	5.9771
2.8693	6.3943
2.8598	6.4426
2.8504	6.7939
2.841	6.9528
2.8317	7.1811
2.8224	7.2445
2.8133	7.3198
2.8041	7.4164
2.7951	7.6578
2.786	7.6198
2.7771	7.8596
2.7682	8.0188
2.7594	8.1921
2.7506	8.4062
2.7418	8.9847
2.7332	9.028
2.7246	9.5373
2.716	9.6271
2.7075	9.8799
2.699	10.0532
2.6906	10.2426
2.6823	10.2099
2.674	10.4672
2.6657	10.761
2.6575	10.4045
2.6494	10.4903
2.6413	10.5988
2.6332	10.5141
2.6252	10.8302
2.6173	10.8428
2.6094	10.7107
2.6015	10.6723
2.5937	10.9364
2.5859	10.6843
2.5782	10.5944
2.5706	10.7479
2.5629	10.6773
2.5554	10.8888
2.5478	10.678
2.5403	10.6508
2.5329	10.7562
2.5255	10.6862
2.5181	10.7989
2.5108	10.9454
2.5035	10.9899
2.4963	10.9882
2.4891	11.0395
2.482	11.1055
2.4749	11.0691
2.4678	11.001
2.4608	11.0992
2.4538	11.1128
2.4468	11.142
2.4399	11.1665
2.4331	11.0598
2.4262	11.3012
2.4194	11.3567
2.4127	11.22
2.4059	11.2432
2.3993	11.3172
2.3926	11.3445
2.386	11.5659
2.3795	11.4335
2.3729	11.6999
2.3664	11.6211
2.36	11.4787
2.3535	11.7647
2.3471	11.5621
2.3408	11.7089
2.3345	11.6146
2.3282	12.0404
2.3219	11.7192
2.3157	11.7703
2.3095	11.8047
2.3034	11.7648
2.2972	11.8458
2.2911	11.8929
2.2851	11.6918
2.279	11.8861
2.2731	11.8158
2.2671	11.8455
2.2612	11.7139
2.2553	11.7939
2.2494	11.6943
2.2435	12.0376
2.2377	11.779
2.232	11.8936
2.2262	11.8204
2.2205	11.538
2.2148	11.691
2.2091	11.8281
2.2035	11.8683
2.1979	11.9198
2.1923	12.0183
2.1868	11.9
2.1812	11.8232
2.1758	11.7147
2.1703	11.539
2.1649	11.7584
2.1595	11.6167
2.1541	11.8552
2.1487	11.5124
2.1434	11.9086
2.1381	11.7342
2.1328	11.6042
2.1275	11.5518
2.1223	11.3444
2.1171	11.486
2.112	11.4574
2.1068	11.6243
2.1017	11.4708
2.0966	11.5521
2.0915	11.5279
2.0865	11.6349
2.0814	11.5993
2.0764	11.7038
2.0715	10.8035
2.0665	11.8586
2.0616	11.3046
2.0567	11.4353
2.0518	11.5352
2.0469	11.5304
2.0421	11.2465
2.0373	11.5865
2.0325	11.343
2.0277	11.5696
2.0229	11.4524
2.0182	11.4491
2.0135	11.48
2.0088	11.6437
2.0042	11.5748
