Name: Beryl Be_3Al_2Si_6O_18
Type: Mineral
Class: Silicate
Subclass: Cyclosilicate
Particle Size: Coarse
Sample No.: CS-2A
Owner: JPL
Wavelength Range: TIR
Origin: Brazil, Minas Gerais
Description: Particle size was 125-500um.Collected by Ward's Original ASTER Spectral Library name was jpl.nicolet.mineral.silicate.cyclosilicate.coarse.cs02a.spectrum.txt
Measurement: Hemispherical reflectance
X Units: Wavelength (micrometers)
Y Units: Reflectance (percent)
wavelength	value
15.3853	7.5048
15.1161	7.1565
14.8563	12.843
14.6052	20.7067
14.3624	16.9909
14.1276	4.7275
13.9004	5.0594
13.6803	8.1966
13.4671	11.4334
13.2604	12.3131
13.06	7.0655
12.8656	3.966
12.6769	5.7123
12.4936	9.0745
12.3155	11.2511
12.1425	8.2075
11.9742	4.2307
11.8106	3.3506
11.6513	4.3891
11.4963	5.435
11.3454	6.6307
11.1983	8.3862
11.0551	10.8252
10.9154	14.3508
10.7793	19.1332
10.6465	24.045
10.5169	30.0888
10.3904	36.6118
10.267	36.2971
10.1464	31.3795
10.0287	20.2307
9.9136	16.8052
9.8012	21.8412
9.6913	18.3756
9.5838	13.6116
9.4787	13.6119
9.3758	14.359
9.2752	14.8088
9.1767	13.4598
9.0803	10.8494
8.9858	8.0239
8.8934	6.0014
8.8028	5.1236
8.714	4.9816
8.627	5.042
8.5417	6.4127
8.4581	8.8964
8.3761	13.9518
8.2957	20.6676
8.2169	22.109
8.1395	22.7404
8.0635	23.366
7.989	23.7505
7.9158	23.6493
7.8439	22.283
7.7734	14.8653
7.7041	6.2096
7.636	2.3686
7.5691	0.9931
7.5034	0.4439
7.4388	0.3786
7.3753	0.2681
7.3129	0.2734
7.2515	0.3002
7.1912	0.2634
7.1318	0.3849
7.0734	0.3555
7.016	0.4983
6.9595	0.489
6.9039	0.6356
6.8492	0.5951
6.7953	0.6818
6.7423	0.7498
6.6901	0.98
6.6387	0.9954
6.5881	1.0376
6.5382	1.1305
6.4892	1.1622
6.4408	1.1369
6.3931	1.2366
6.3462	1.3881
6.2999	1.3637
6.2543	1.2258
6.2094	1.4464
6.1651	1.2453
6.1214	1.2865
6.0784	1.3026
6.0359	1.5677
5.994	2.0107
5.9527	2.2416
5.912	2.0707
5.8718	2.2076
5.8322	1.9578
5.7931	2.0149
5.7545	2.1228
5.7165	2.2301
5.6789	2.285
5.6418	2.3651
5.6052	2.2606
5.5691	2.4318
5.5334	2.484
5.4982	2.4317
5.4635	2.7579
5.4291	2.9368
5.3952	3.1909
5.3618	3.1542
5.3287	3.0365
5.2961	2.9184
5.2638	2.4045
5.2319	2.2241
5.2004	1.9225
5.1693	1.9464
5.1386	1.9235
5.1082	2.0152
5.0782	2.3129
5.0485	2.3806
5.0192	2.8233
4.9902	3.2089
4.9616	3.5253
4.9332	3.93
4.9052	4.4353
4.8776	5.1547
4.8502	6.1056
4.8231	6.8351
4.7963	8.0014
4.7699	10.0429
4.7437	11.5129
4.7178	13.041
4.6922	13.9256
4.6668	14.2509
4.6418	14.9493
4.617	16.5508
4.5924	17.726
4.5681	18.9037
4.5441	20.2472
4.5203	21.0915
4.4968	21.2345
4.4735	20.6776
4.4505	21.0826
4.4277	22.8818
4.4051	25.2483
4.3828	27.1943
4.3607	27.0472
4.3388	28.9343
4.3171	27.3033
4.2956	21.7215
4.2744	13.3893
4.2534	8.4286
4.2325	5.1335
4.2119	9.0301
4.1915	23.8385
4.1712	40.346
4.1512	43.6872
4.1313	44.4331
4.1117	44.4859
4.0922	44.2884
4.0729	44.6765
4.0538	45.0855
4.0349	45.5255
4.0161	46.8052
3.9976	48.3916
3.9792	49.6049
3.9609	50.4268
3.9428	50.9904
3.9249	51.3811
3.9072	51.9407
3.8896	52.3326
3.8722	52.7914
3.8549	53.1354
3.8378	53.289
3.8208	53.6084
3.804	53.5968
3.7873	53.1988
3.7708	54.0937
3.7544	54.3672
3.7382	54.4846
3.7221	54.1979
3.7061	55.0809
3.6903	55.0408
3.6746	54.9052
3.659	54.7882
3.6436	54.957
3.6283	55.4707
3.6131	56.1575
3.5981	56.7394
3.5832	57.2495
3.5684	57.8731
3.5537	58.3827
3.5391	58.6926
3.5247	59.0905
3.5104	58.9129
3.4962	58.883
3.4821	59.1383
3.4681	59.1304
3.4543	58.9251
3.4405	58.5447
3.4269	57.8069
3.4133	56.8619
3.3999	56.6663
3.3866	56.5789
3.3733	56.2081
3.3602	56.328
3.3472	56.3342
3.3343	56.075
3.3215	55.5797
3.3088	55.2311
3.2961	55.0894
3.2836	55.2057
3.2712	55.6491
3.2588	56.0783
3.2466	56.172
3.2345	54.8925
3.2224	50.1561
3.2104	48.2617
3.1985	50.514
3.1867	51.3723
3.175	50.6376
3.1634	49.3613
3.1519	50.1264
3.1404	49.7053
3.129	48.5131
3.1178	46.7549
3.1065	43.4392
3.0954	40.2928
3.0844	41.6812
3.0734	45.4803
3.0625	46.1631
3.0517	45.7523
3.041	44.6416
3.0303	43.55
3.0197	42.4067
3.0092	41.2449
2.9987	39.8993
2.9884	38.4229
2.9781	37.1685
2.9678	35.7992
2.9577	34.1642
2.9476	32.3203
2.9376	30.61
2.9276	28.9767
2.9177	26.848
2.9079	24.3061
2.8982	21.565
2.8885	19.4188
2.8789	16.5981
2.8693	14.2107
2.8598	12.7919
2.8504	11.8541
2.841	11.2195
2.8317	10.9127
2.8224	9.9698
2.8133	8.2458
2.8041	7.9538
2.7951	6.779
2.786	4.1588
2.7771	3.5679
2.7682	7.0437
2.7594	7.0142
2.7506	6.224
2.7418	5.0254
2.7332	4.0371
2.7246	3.995
2.716	3.4452
2.7075	3.0641
2.699	3.2839
2.6906	4.018
2.6823	5.4018
2.674	6.7039
2.6657	8.3523
2.6575	9.1723
2.6494	10.3957
2.6413	11.2483
2.6332	11.6813
2.6252	11.2775
2.6173	11.0511
2.6094	10.1843
2.6015	9.5875
2.5937	9.9326
2.5859	9.5621
2.5782	9.9871
2.5706	10.6819
2.5629	11.3687
2.5554	12.9601
2.5478	16.4008
2.5403	20.4711
2.5329	23.9855
2.5255	26.3379
2.5181	28.8514
2.5108	30.8526
2.5035	33.2925
2.4963	35.7739
2.4891	38.4341
2.482	40.6694
2.4749	42.3378
2.4678	43.9711
2.4608	46.0229
2.4538	47.5337
2.4468	49.3162
2.4399	50.8436
2.4331	52.22
2.4262	53.1952
2.4194	53.8618
2.4127	55.078
2.4059	55.9636
2.3993	56.4729
2.3926	57.0275
2.386	57.0879
2.3795	56.9783
2.3729	57.7171
2.3664	57.876
2.36	58.8667
2.3535	58.957
2.3471	59.7038
2.3408	60.1356
2.3345	60.4031
2.3282	61.3919
2.3219	62.4043
2.3157	62.8414
2.3095	63.5216
2.3034	63.8394
2.2972	64.4361
2.2911	64.6179
2.2851	64.7424
2.279	65.0429
2.2731	65.5262
2.2671	65.8005
2.2612	66.1769
2.2553	66.2005
2.2494	66.3708
2.2435	66.3863
2.2377	66.4277
2.232	66.543
2.2262	66.6638
2.2205	66.5446
2.2148	66.3261
2.2091	65.858
2.2035	64.9206
2.1979	64.3495
2.1923	65.3657
2.1868	65.5841
2.1812	65.4681
2.1758	65.6788
2.1703	65.7029
2.1649	65.2235
2.1595	64.6328
2.1541	63.1153
2.1487	62.8748
2.1434	64.6928
2.1381	66.3275
2.1328	66.6828
2.1275	66.4988
2.1223	66.8125
2.1171	66.6186
2.112	66.7695
2.1068	67.033
2.1017	66.7828
2.0966	66.7047
2.0915	66.3567
2.0865	65.6491
2.0814	64.4293
2.0764	65.2228
2.0715	65.6975
2.0665	65.4118
2.0616	65.2222
2.0567	64.9
2.0518	64.0826
2.0469	64.0579
2.0421	66.0047
2.0373	66.371
2.0325	66.6155
2.0277	66.5539
2.0229	66.4288
2.0182	66.6008
2.0135	66.3303
2.0088	66.0153
2.0042	65.7082
