Name: Aphthitalite (K,Na)_3Na(SO_4)_2
Type: Mineral
Class: Sulfate
Subclass: None
Particle Size: Coarse
Sample No.: SO-9A
Owner: JPL
Wavelength Range: VSWIR
Origin: USA, California, San Bernadino County, Searles Lake
Description: Particle size was 125-500um.Collected by Burminco Original ASTER Spectral Library name was jpl.beckman.mineral.sulfate.none.coarse.so09a.spectrum.txt
Measurement: Hemispherical reflectance
X Units: Wavelength (micrometers)
Y Units: Reflectance (percent)
wavelength	value
0.4	73.85
0.403	74.32
0.406	74.75
0.409	75.01
0.412	75.32
0.415	75.6
0.418	76.06
0.421	76.18
0.424	76.47
0.427	76.75
0.43	77.2
0.433	77.36
0.436	77.65
0.439	77.91
0.442	78.21
0.445	78.55
0.448	78.7
0.451	78.87
0.454	79.05
0.457	79.35
0.46	79.37
0.463	79.77
0.466	80.2
0.469	80.4
0.472	80.59
0.475	80.78
0.478	81.07
0.481	81.3
0.484	81.36
0.487	81.54
0.49	81.69
0.493	81.89
0.496	82.07
0.499	82.23
0.502	82.49
0.505	82.5
0.508	82.73
0.511	83.02
0.514	83.16
0.517	83.31
0.52	83.47
0.523	83.56
0.526	83.72
0.529	83.81
0.532	83.82
0.535	83.9
0.538	84.06
0.541	84.25
0.544	84.38
0.547	84.32
0.55	84.48
0.553	84.64
0.556	84.75
0.559	84.9
0.562	85.12
0.565	85.38
0.568	85.33
0.571	85.41
0.574	85.31
0.577	85.35
0.58	85.5
0.583	85.52
0.586	85.59
0.589	85.52
0.592	85.66
0.595	85.81
0.598	85.81
0.601	86.05
0.604	85.96
0.607	86.06
0.61	86.13
0.613	86.25
0.616	86.3
0.619	86.11
0.622	86.25
0.625	86.43
0.628	86.35
0.631	86.47
0.634	86.43
0.637	86.42
0.64	86.53
0.643	86.7
0.646	86.77
0.649	86.72
0.652	86.77
0.655	86.92
0.658	86.89
0.661	86.88
0.664	87
0.667	87.09
0.67	87.04
0.673	87.22
0.676	87.22
0.679	87.09
0.682	87.05
0.685	87.12
0.688	87.18
0.691	87.33
0.694	87.28
0.697	87.32
0.7	87.21
0.703	87.35
0.706	87.41
0.709	87.58
0.712	87.56
0.715	87.59
0.718	87.52
0.721	87.5
0.724	87.52
0.727	87.52
0.73	87.59
0.733	87.51
0.736	87.58
0.739	87.64
0.742	87.69
0.745	87.76
0.748	87.59
0.751	87.57
0.754	87.66
0.757	87.76
0.76	87.64
0.763	87.66
0.766	87.66
0.769	87.82
0.772	87.76
0.775	87.82
0.778	87.81
0.781	87.72
0.784	87.83
0.787	87.88
0.79	87.85
0.793	87.83
0.796	87.87
0.799	87.84
0.808	87.92
0.82	88.05
0.832	88.04
0.844	88.09
0.856	88.31
0.868	88.43
0.88	88.37
0.892	88.37
0.904	88.43
0.916	88.42
0.928	88.55
0.94	88.55
0.952	88.65
0.964	88.62
0.976	88.61
0.988	88.65
1	88.55
1.012	88.65
1.024	88.71
1.036	88.71
1.048	88.72
1.06	88.74
1.072	88.76
1.084	88.78
1.096	88.85
1.108	88.86
1.12	88.95
1.132	88.87
1.144	88.77
1.156	88.82
1.168	88.69
1.18	88.68
1.192	88.66
1.204	88.69
1.216	88.6
1.228	88.57
1.24	88.56
1.252	88.59
1.264	88.53
1.276	88.71
1.288	88.71
1.3	88.6
1.312	88.57
1.324	88.46
1.336	88.36
1.348	88.33
1.36	88.3
1.372	88.16
1.384	87.85
1.396	87.13
1.408	86.43
1.42	85.89
1.432	85.71
1.444	85.65
1.456	85.61
1.468	85.73
1.48	85.89
1.492	86.08
1.504	86.36
1.516	86.56
1.528	86.63
1.54	86.86
1.552	86.98
1.564	87.2
1.576	87.14
1.588	87.22
1.6	87.34
1.612	87.29
1.624	87.16
1.636	87.17
1.648	87.08
1.66	86.98
1.672	86.92
1.684	86.89
1.696	86.77
1.708	86.77
1.72	86.59
1.732	86.46
1.744	86.37
1.756	86.21
1.768	86.04
1.78	85.99
1.792	85.92
1.804	85.88
1.816	85.88
1.828	85.72
1.84	85.6
1.852	85.33
1.864	84.65
1.876	83.31
1.888	80.98
1.9	78.19
1.912	76.08
1.924	74.83
1.936	74.42
1.948	74.97
1.96	75.78
1.972	76.77
1.984	77.72
1.996	78.49
2.008	79.07
2.02	79.46
2.032	79.7
2.044	80.17
2.056	80.43
2.068	80.79
2.08	81.16
2.092	81.51
2.104	81.81
2.116	82.26
2.128	82.37
2.14	82.34
2.152	82.32
2.164	82.37
2.176	82.34
2.188	82.23
2.2	82.21
2.212	82.13
2.224	82.3
2.236	82.36
2.248	82.45
2.26	82.31
2.272	82.28
2.284	82.07
2.296	81.88
2.308	81.62
2.32	81.52
2.332	81.34
2.344	81.04
2.356	80.64
2.368	80.12
2.38	79.64
2.392	79.13
2.404	78.78
2.416	78.34
2.428	77.91
2.44	77.51
2.452	76.99
2.464	76.62
2.476	76.29
2.488	76.27
2.5	76.38
