Name: Wollastonite CaSiO3
Type: Mineral
Class: Silicate
Subclass: Inosilicate
Particle Size: Coarse
Sample No.: wollasto_1
Owner: JHU
Wavelength Range: TIR
Origin: Santa Fe Mine, Pichucalco, Chiapas, Mexico via theSmithsonian (sample no. NMNH 131913)
Description: The sample consisted of a 2 cm x 1 cm x 0.5 cm well-formed crystal  and one large 4 cm x 1 cm x 0.5 cm piece, both gray in color.  One surface of the large piece was dirty and had sulfide inclusions, which were separated by crushing and hand picking.  Under the microscope, some grains showed a little alteration and inclusions or voids along cleavage directions. Particle size was 75 - 250 Micrometers.(Chain Silicates); (Pyroxenoid Group) Original ASTER Spectral Library name was jhu.nicolet.mineral.silicate.inosilicate.coarse.wollast1.spectrum.txt
Measurement: Bidirectional reflectance
X Units: Wavelength (micrometers)
Y Units: Reflectance (percent)
wavelength	value
25.0442	1.9917
24.3388	1.8528
23.6719	2.0371
23.0407	2.5591
22.4422	3.6333
21.8741	4.8135
21.334	3.855
20.8199	5.2014
20.33	5.0083
19.8627	3.3833
19.4163	4.2029
18.9896	4.6455
18.5812	4.7622
18.19	4.6584
17.815	4.3362
17.4551	3.491
17.1094	1.7429
16.7772	1.125
16.4576	1.2173
16.15	1.2707
15.8537	1.3882
15.568	1.8142
15.2925	1.4531
15.0265	1.053
14.7697	1.3391
14.5214	1.2156
14.2814	1.3293
14.0492	1.727
13.8244	1.9822
13.6067	2.1445
13.3957	2.2524
13.1912	2.3281
12.9929	2.3953
12.8004	2.3899
12.6135	2.2954
12.432	2.238
12.2557	2.1645
12.0843	2.1316
11.9176	2.1641
11.7555	2.2092
11.5977	2.1992
11.444	2.3486
11.2944	2.6443
11.1487	3.5527
11.0067	3.7905
10.8682	4.0745
10.7332	4.8391
10.6015	4.9512
10.473	5.7766
10.3476	6.7622
10.2251	5.946
10.1056	4.9917
9.9887	4.811
9.8746	4.5322
9.763	4.0766
9.6539	3.7617
9.5472	3.3555
9.4429	5.073
9.3408	7.4302
9.2409	7.487
9.1431	5.5239
9.0474	4.7627
8.9536	4.542
8.8618	4.2512
8.7718	3.99
8.6837	3.1287
8.5973	2.2219
8.5126	1.2346
8.4295	0.675
8.3481	0.5933
8.2682	0.7607
8.1898	0.9385
8.1129	1.1824
8.0374	1.3691
7.9634	1.4893
7.8906	1.5847
7.8192	1.7744
7.7491	1.9297
7.6802	2.019
7.6126	2.0542
7.5461	2.0964
7.4807	2.1975
7.4165	2.3813
7.3534	2.6523
7.2914	2.8992
7.2303	3.0776
7.1703	3.1977
7.1113	3.3022
7.0533	3.3813
6.9962	3.4541
6.94	3.4233
6.8847	3.4387
6.8302	3.436
6.7767	3.3921
6.7239	3.1809
6.672	3.0801
6.6209	3.3635
6.5705	3.6033
6.5209	3.553
6.4721	3.2104
6.424	2.9236
6.3766	2.7112
6.3299	2.8533
6.2838	3.0854
6.2385	2.9707
6.1937	2.9094
6.1496	2.8606
6.1062	2.844
6.0633	3.0723
6.0211	3.4514
5.9794	3.7676
5.9383	3.7314
5.8978	3.4983
5.8578	3.2432
5.8184	2.9482
5.7794	3.0142
5.741	3.2495
5.7031	3.6829
5.6657	4.1655
5.6288	4.2085
5.5924	4.2087
5.5564	4.1357
5.5209	4.4761
5.4859	4.9787
5.4513	5.2722
5.4171	5.3733
5.3833	5.0781
5.35	4.9787
5.3171	4.6194
5.2846	3.7256
5.2524	3.3599
5.2207	3.4011
5.1893	3.5535
5.1584	4.001
5.1277	4.3979
5.0975	4.6494
5.0676	4.7986
5.038	4.8762
5.0088	4.9626
4.98	5.0625
4.9514	4.9851
4.9232	4.8674
4.8953	5.1291
4.8678	5.2922
4.8405	5.4534
4.8135	5.7536
4.7868	6.0417
4.7605	6.216
4.7344	6.5312
4.7086	6.8384
4.6831	6.937
4.6578	7.1511
4.6328	7.5273
4.6081	7.8452
4.5837	7.9541
4.5595	8.074
4.5356	8.4407
4.5119	8.5835
4.4884	8.6462
4.4652	8.6904
4.4423	8.7251
4.4196	8.7532
4.3971	8.7759
4.3748	8.8288
4.3528	8.883
4.331	8.9038
4.3094	8.9304
4.288	8.9548
4.2668	8.9829
4.2458	9.0176
4.2251	9.0461
4.2045	9.0805
4.1841	9.0986
4.164	9.0871
4.144	9.1062
4.1242	9.1477
4.1046	9.2043
4.0852	9.2534
4.066	9.3047
4.047	9.3325
4.0281	9.341
4.0094	9.3293
3.9909	9.2903
3.9725	9.2893
3.9544	9.3032
3.9363	9.3393
3.9185	9.3513
3.9008	9.3669
3.8833	9.3701
3.8659	9.3635
3.8487	9.353
3.8316	9.344
3.8147	9.3288
3.7979	9.3232
3.7813	9.342
3.7648	9.3484
3.7485	9.3386
3.7323	9.3196
3.7162	9.2871
3.7003	9.2597
3.6845	9.2324
3.6689	9.2075
3.6534	9.1797
3.638	9.1755
3.6227	9.1499
3.6076	9.113
3.5926	9.0849
3.5777	9.0708
3.563	9.0454
3.5484	9.0217
3.5338	9.0144
3.5195	8.9968
3.5052	8.9638
3.491	8.9641
3.477	8.9538
3.463	8.9592
3.4492	8.9516
3.4355	8.9289
3.4219	8.8965
3.4084	8.895
3.395	8.917
3.3817	8.9079
3.3685	8.915
3.3554	8.9226
3.3425	8.9289
3.3296	8.9367
3.3168	8.9082
3.3041	8.8996
3.2915	8.8904
3.279	8.8821
3.2666	8.8694
3.2543	8.8447
3.2421	8.8345
3.23	8.8108
3.218	8.7942
3.206	8.771
3.1942	8.729
3.1824	8.7004
3.1707	8.6721
3.1591	8.6289
3.1476	8.5678
3.1362	8.5168
3.1249	8.4653
3.1136	8.406
3.1024	8.3471
3.0913	8.2754
3.0803	8.2092
3.0694	8.1589
3.0585	8.143
3.0477	8.105
3.037	8.0871
3.0264	8.0588
3.0158	8.022
3.0053	7.979
2.9949	7.9429
2.9845	7.906
2.9743	7.8298
2.9641	7.771
2.9539	7.7392
2.9439	7.7195
2.9339	7.7302
2.9239	7.7358
2.9141	7.7529
2.9043	7.7854
2.8946	7.8406
2.8849	7.8747
2.8753	7.9067
2.8658	7.9385
2.8563	7.9822
2.8469	8.0539
2.8375	8.1313
2.8282	8.1721
2.819	8.1948
2.8098	8.2258
2.8007	8.1987
2.7917	8.1289
2.7827	8.157
2.7738	8.3742
2.7649	8.4582
2.7561	8.5378
2.7473	8.7361
2.7386	8.9773
2.7299	9.4182
2.7213	9.6599
2.7128	9.8298
2.7043	9.9143
2.6959	10.0276
2.6875	10.1003
2.6791	10.1433
2.6709	10.1394
2.6626	10.3034
2.6545	10.3264
2.6463	10.3633
2.6382	10.3791
2.6302	10.3916
2.6222	10.4096
2.6143	10.4123
2.6064	10.3999
2.5986	10.4416
2.5908	10.4492
2.583	10.4546
2.5753	10.4013
2.5677	10.4184
2.5601	10.4101
2.5525	10.4052
2.545	10.4428
2.5375	10.4604
2.5301	10.4538
2.5227	10.4231
2.5154	10.4338
2.5081	10.4382
2.5008	10.4692
2.4936	10.4731
2.4864	10.4883
2.4793	10.489
2.4722	10.5293
2.4651	10.5093
2.4581	10.5366
2.4511	10.5122
2.4442	10.5176
2.4373	10.5551
2.4305	10.5273
2.4236	10.5586
2.4169	10.5493
2.4101	10.5727
2.4034	10.5622
2.3967	10.5637
2.3901	10.5737
2.3835	10.5791
2.377	10.5542
2.3704	10.6115
2.364	10.5757
2.3575	10.6206
2.3511	10.6399
2.3447	10.6198
2.3384	10.604
2.3321	10.6216
2.3258	10.5722
2.3195	10.6465
2.3133	10.6137
2.3071	10.6596
2.301	10.6506
2.2949	10.6621
2.2888	10.6933
2.2828	10.6875
2.2767	10.6816
2.2708	10.7065
2.2648	10.6894
2.2589	10.7104
2.253	10.686
2.2471	10.7343
2.2413	10.7094
2.2355	10.7217
2.2297	10.7392
2.224	10.7011
2.2183	10.7148
2.2126	10.719
2.207	10.7539
2.2013	10.77
2.1957	10.7522
2.1902	10.7632
2.1846	10.7939
2.1791	10.7832
2.1736	10.802
2.1682	10.8166
2.1628	10.8423
2.1574	10.7893
2.152	10.7834
2.1466	10.8247
2.1413	10.7988
2.136	10.8225
2.1308	10.8049
2.1255	10.8066
2.1203	10.8169
2.1151	10.822
2.11	10.8188
2.1048	10.7802
2.0997	10.8296
2.0946	10.8703
2.0895	10.852
2.0845	10.8589
2.0795	10.8869
