Name: Pyrrhotite Fe(1-x)S
Type: Mineral
Class: Sulfide
Subclass: None
Particle Size: Fine
Sample No.: pyroph_1
Owner: JHU
Wavelength Range: TIR
Origin: Stoneham, Maine, USA via the Smithsonian (sample no. NMNH85267)
Description: The sample consisted of two large fragments and many small pieces from the same specimen.  Total weight was 23 g.  Fragments had a bronze color, no obvious impurities, but some brownish surficial alteration, which was easily removed.  Under the microscope there appeared to be contamination by <5% of a transparent mineral which could be separated magnetically. Particle size was 0-74  Micrometers. Original ASTER Spectral Library name was jhu.nicolet.mineral.sulfide.none.fine.pyrrho1.spectrum.txt
Measurement: Bidirectional reflectance
X Units: Wavelength (micrometers)
Y Units: Reflectance (percent)
wavelength	value
25.0442	3.3559
24.3388	3.4011
23.6719	3.331
23.0407	3.4143
22.4422	3.3779
21.8741	3.4272
21.334	3.3953
20.8199	3.3723
20.33	3.3779
19.8627	3.3623
19.4163	3.4014
18.9896	3.3872
18.5812	3.4111
18.19	3.396
17.815	3.3906
17.4551	3.3757
17.1094	3.3728
16.7772	3.3435
16.4576	3.3213
16.15	3.2947
15.8537	3.3096
15.568	3.314
15.2925	3.3091
15.0265	3.3091
14.7697	3.3325
14.5214	3.2871
14.2814	3.2842
14.0492	3.2993
13.8244	3.2934
13.6067	3.2488
13.3957	3.2595
13.1912	3.2529
12.9929	3.2495
12.8004	3.248
12.6135	3.2336
12.432	3.2324
12.2557	3.2046
12.0843	3.1667
11.9176	3.1555
11.7555	3.1392
11.5977	3.1204
11.444	3.1155
11.2944	3.1103
11.1487	3.1001
11.0067	3.093
10.8682	3.0986
10.7332	3.0859
10.6015	3.0786
10.473	3.0588
10.3476	3.0515
10.2251	3.0325
10.1056	3.0344
9.9887	3.031
9.8746	3.0232
9.763	3.0244
9.6539	3.0283
9.5472	3.0071
9.4429	2.9922
9.3408	2.9802
9.2409	2.989
9.1431	2.9827
9.0474	2.9773
8.9536	2.9827
8.8618	2.9809
8.7718	2.9636
8.6837	2.9692
8.5973	2.9661
8.5126	2.9578
8.4295	2.9431
8.3481	2.9446
8.2682	2.9338
8.1898	2.9375
8.1129	2.9282
8.0374	2.9121
7.9634	2.9043
7.8906	2.8987
7.8192	2.8896
7.7491	2.8787
7.6802	2.8633
7.6126	2.8569
7.5461	2.8498
7.4807	2.8428
7.4165	2.8376
7.3534	2.8332
7.2914	2.8293
7.2303	2.8381
7.1703	2.8445
7.1113	2.8411
7.0533	2.8398
6.9962	2.8315
6.94	2.8362
6.8847	2.8359
6.8302	2.832
6.7767	2.8303
6.7239	2.8254
6.672	2.8306
6.6209	2.8279
6.5705	2.8303
6.5209	2.8137
6.4721	2.8044
6.424	2.7932
6.3766	2.7654
6.3299	2.7458
6.2838	2.7395
6.2385	2.7266
6.1937	2.7275
6.1496	2.7253
6.1062	2.7209
6.0633	2.7141
6.0211	2.7139
5.9794	2.7197
5.9383	2.7283
5.8978	2.7288
5.8578	2.7234
5.8184	2.7278
5.7794	2.718
5.741	2.7202
5.7031	2.7131
5.6657	2.709
5.6288	2.7043
5.5924	2.7019
5.5564	2.6946
5.5209	2.6851
5.4859	2.6836
5.4513	2.6853
5.4171	2.6934
5.3833	2.6892
5.35	2.6785
5.3171	2.6799
5.2846	2.6728
5.2524	2.6699
5.2207	2.6677
5.1893	2.658
5.1584	2.6577
5.1277	2.6509
5.0975	2.6455
5.0676	2.6457
5.038	2.646
5.0088	2.6435
4.98	2.6448
4.9514	2.6377
4.9232	2.6428
4.8953	2.636
4.8678	2.6309
4.8405	2.633
4.8135	2.6328
4.7868	2.636
4.7605	2.6328
4.7344	2.6282
4.7086	2.6282
4.6831	2.6196
4.6578	2.625
4.6328	2.6157
4.6081	2.6106
4.5837	2.6079
4.5595	2.6042
4.5356	2.6033
4.5119	2.5901
4.4884	2.5857
4.4652	2.5884
4.4423	2.5859
4.4196	2.5862
4.3971	2.5757
4.3748	2.5742
4.3528	2.5752
4.331	2.5715
4.3094	2.5625
4.288	2.5605
4.2668	2.5557
4.2458	2.5515
4.2251	2.5539
4.2045	2.5596
4.1841	2.5539
4.164	2.5474
4.144	2.5478
4.1242	2.5437
4.1046	2.5466
4.0852	2.5449
4.066	2.5312
4.047	2.5315
4.0281	2.5178
4.0094	2.5139
3.9909	2.5063
3.9725	2.5078
3.9544	2.5049
3.9363	2.5041
3.9185	2.5063
3.9008	2.4939
3.8833	2.4927
3.8659	2.4958
3.8487	2.4897
3.8316	2.4858
3.8147	2.489
3.7979	2.4822
3.7813	2.4851
3.7648	2.488
3.7485	2.4822
3.7323	2.4766
3.7162	2.4744
3.7003	2.469
3.6845	2.4675
3.6689	2.4661
3.6534	2.4641
3.638	2.4626
3.6227	2.4575
3.6076	2.4546
3.5926	2.4497
3.5777	2.4456
3.563	2.448
3.5484	2.4414
3.5338	2.4387
3.5195	2.4331
3.5052	2.4299
3.491	2.4219
3.477	2.4153
3.463	2.4216
3.4492	2.4123
3.4355	2.4087
3.4219	2.4043
3.4084	2.4026
3.395	2.394
3.3817	2.3945
3.3685	2.3872
3.3554	2.3867
3.3425	2.3828
3.3296	2.3843
3.3168	2.3796
3.3041	2.3747
3.2915	2.3804
3.279	2.3769
3.2666	2.3777
3.2543	2.3718
3.2421	2.3691
3.23	2.3601
3.218	2.3606
3.206	2.3647
3.1942	2.3608
3.1824	2.3567
3.1707	2.3569
3.1591	2.3538
3.1476	2.3481
3.1362	2.3398
3.1249	2.3379
3.1136	2.3423
3.1024	2.3398
3.0913	2.331
3.0803	2.3223
3.0694	2.3223
3.0585	2.3208
3.0477	2.3142
3.037	2.3159
3.0264	2.3147
3.0158	2.3032
3.0053	2.301
2.9949	2.2959
2.9845	2.2996
2.9743	2.2954
2.9641	2.2903
2.9539	2.2964
2.9439	2.2988
2.9339	2.2861
2.9239	2.2876
2.9141	2.2903
2.9043	2.2898
2.8946	2.2847
2.8849	2.2861
2.8753	2.2856
2.8658	2.2881
2.8563	2.2976
2.8469	2.2837
2.8375	2.2771
2.8282	2.2734
2.819	2.2695
2.8098	2.2717
2.8007	2.2759
2.7917	2.2815
2.7827	2.2707
2.7738	2.2678
2.7649	2.2734
2.7561	2.272
2.7473	2.2685
2.7386	2.2698
2.7299	2.2705
2.7213	2.2698
2.7128	2.2583
2.7043	2.2617
2.6959	2.2588
2.6875	2.2602
2.6791	2.2637
2.6709	2.2644
2.6626	2.2515
2.6545	2.2463
2.6463	2.2412
2.6382	2.2515
2.6302	2.2527
2.6222	2.2454
2.6143	2.2471
2.6064	2.2393
2.5986	2.241
2.5908	2.2393
2.583	2.2388
2.5753	2.2351
2.5677	2.2412
2.5601	2.2358
2.5525	2.2285
2.545	2.2349
2.5375	2.2314
2.5301	2.2356
2.5227	2.2163
2.5154	2.2227
2.5081	2.2273
2.5008	2.2158
2.4936	2.2253
2.4864	2.217
2.4793	2.2241
2.4722	2.2227
2.4651	2.218
2.4581	2.2212
2.4511	2.2148
2.4442	2.2158
2.4373	2.2187
2.4305	2.2056
2.4236	2.206
2.4169	2.2024
2.4101	2.2124
2.4034	2.2048
2.3967	2.2131
2.3901	2.2085
2.3835	2.2097
2.377	2.2109
2.3704	2.1999
2.364	2.2009
2.3575	2.1963
2.3511	2.2051
2.3447	2.2109
2.3384	2.2046
2.3321	2.1982
2.3258	2.1858
2.3195	2.2073
2.3133	2.187
2.3071	2.1992
2.301	2.2007
2.2949	2.1943
2.2888	2.2004
2.2828	2.1982
2.2767	2.1975
2.2708	2.1958
2.2648	2.208
2.2589	2.1894
2.253	2.1699
2.2471	2.1799
2.2413	2.1929
2.2355	2.1877
2.2297	2.1968
2.224	2.1804
2.2183	2.1907
2.2126	2.1973
2.207	2.1953
2.2013	2.1799
2.1957	2.1785
2.1902	2.1909
2.1846	2.1789
2.1791	2.1697
2.1736	2.1826
2.1682	2.1672
2.1628	2.1711
2.1574	2.1768
2.152	2.1643
2.1466	2.1699
2.1413	2.186
2.136	2.1904
2.1308	2.1665
2.1255	2.186
2.1203	2.1572
2.1151	2.1755
2.11	2.1731
2.1048	2.1614
2.0997	2.1692
2.0946	2.1587
2.0895	2.1602
2.0845	2.1726
2.0795	2.1755
