Name: Stibnite Sb_2S_3
Type: Mineral
Class: Sulfide
Subclass: None
Particle Size: Medium
Sample No.: S-6A
Owner: JPL
Wavelength Range: VSWIR
Origin: USA, Utah, Tooele County, Gold Hill
Description: Particle size was 45-125um.Collected by Burminco Original ASTER Spectral Library name was jpl.beckman.mineral.sulfide.none.medium.s06a.spectrum.txt
Measurement: Hemispherical reflectance
X Units: Wavelength (micrometers)
Y Units: Reflectance (percent)
wavelength	value
0.4	14.67
0.403	14.53
0.406	14.39
0.409	14.43
0.412	14.37
0.415	14.39
0.418	14.31
0.421	14.19
0.424	14.14
0.427	14.07
0.43	14.17
0.433	14.07
0.436	14.01
0.439	14.04
0.442	14.09
0.445	14.05
0.448	14.05
0.451	14.07
0.454	14.04
0.457	14.17
0.46	13.96
0.463	13.83
0.466	13.83
0.469	13.81
0.472	13.87
0.475	13.87
0.478	13.75
0.481	13.72
0.484	13.78
0.487	13.69
0.49	13.49
0.493	13.42
0.496	13.53
0.499	13.61
0.502	13.39
0.505	13.39
0.508	13.42
0.511	13.38
0.514	13.32
0.517	13.19
0.52	13.15
0.523	13.17
0.526	13.08
0.529	13.14
0.532	13.02
0.535	12.86
0.538	12.87
0.541	12.84
0.544	12.78
0.547	12.64
0.55	12.63
0.553	12.65
0.556	12.61
0.559	12.57
0.562	12.61
0.565	12.57
0.568	12.5
0.571	12.34
0.574	12.27
0.577	12.19
0.58	12.19
0.583	12.07
0.586	12.08
0.589	12.05
0.592	12.05
0.595	12.06
0.598	11.95
0.601	11.98
0.604	11.97
0.607	11.9
0.61	11.95
0.613	11.89
0.616	11.99
0.619	11.88
0.622	11.72
0.625	11.78
0.628	11.75
0.631	11.82
0.634	11.82
0.637	11.75
0.64	11.69
0.643	11.59
0.646	11.6
0.649	11.72
0.652	11.69
0.655	11.71
0.658	11.72
0.661	11.77
0.664	11.75
0.667	11.69
0.67	11.66
0.673	11.64
0.676	11.7
0.679	11.67
0.682	11.72
0.685	11.64
0.688	11.75
0.691	11.82
0.694	11.89
0.697	11.9
0.7	11.92
0.703	11.98
0.706	12.03
0.709	12.06
0.712	12.2
0.715	12.37
0.718	12.4
0.721	12.5
0.724	12.65
0.727	12.76
0.73	13.07
0.733	13.33
0.736	13.61
0.739	13.82
0.742	14.23
0.745	14.68
0.748	15.12
0.751	15.56
0.754	16.16
0.757	16.88
0.76	17.74
0.763	18.56
0.766	19.58
0.769	20.75
0.772	22.14
0.775	23.85
0.778	25.71
0.781	27.74
0.784	29.82
0.787	32.22
0.79	34.76
0.793	37.24
0.796	39.5
0.799	41.09
0.808	47.58
0.82	53.72
0.832	58.07
0.844	61.09
0.856	63.65
0.868	65.5
0.88	67.04
0.892	68.27
0.904	69.23
0.916	70.1
0.928	70.86
0.94	71.55
0.952	72.05
0.964	72.59
0.976	72.97
0.988	73.32
1	73.56
1.012	73.8
1.024	74.11
1.036	74.29
1.048	74.62
1.06	74.88
1.072	75.04
1.084	75.11
1.096	75.41
1.108	75.52
1.12	75.77
1.132	75.89
1.144	76
1.156	76.07
1.168	76.16
1.18	76.32
1.192	76.41
1.204	76.66
1.216	76.66
1.228	76.8
1.24	76.88
1.252	77.11
1.264	77.11
1.276	77.25
1.288	77.36
1.3	77.37
1.312	77.52
1.324	77.61
1.336	77.68
1.348	77.66
1.36	77.83
1.372	77.84
1.384	77.89
1.396	77.8
1.408	77.73
1.42	77.72
1.432	77.73
1.444	77.82
1.456	77.91
1.468	78.02
1.48	78.08
1.492	78.31
1.504	78.34
1.516	78.6
1.528	78.68
1.54	78.8
1.552	78.86
1.564	78.92
1.576	78.95
1.588	79.11
1.6	79.19
1.612	79.28
1.624	79.26
1.636	79.37
1.648	79.53
1.66	79.64
1.672	79.68
1.684	79.68
1.696	79.78
1.708	79.83
1.72	79.77
1.732	79.77
1.744	79.76
1.756	79.8
1.768	79.8
1.78	79.81
1.792	79.87
1.804	79.85
1.816	79.9
1.828	79.9
1.84	79.89
1.852	79.77
1.864	79.6
1.876	79.15
1.888	78.38
1.9	77.35
1.912	76.64
1.924	76.23
1.936	76.13
1.948	76.35
1.96	76.62
1.972	76.99
1.984	77.53
1.996	77.86
2.008	78.21
2.02	78.5
2.032	78.87
2.044	79.13
2.056	79.22
2.068	79.32
2.08	79.64
2.092	79.72
2.104	79.91
2.116	80.12
2.128	80.31
2.14	80.29
2.152	80.19
2.164	80.03
2.176	80.07
2.188	79.84
2.2	79.66
2.212	79.59
2.224	79.62
2.236	79.58
2.248	79.44
2.26	79.45
2.272	79.41
2.284	79.43
2.296	79.5
2.308	79.56
2.32	79.77
2.332	79.69
2.344	79.65
2.356	79.56
2.368	79.44
2.38	79.38
2.392	79.09
2.404	79
2.416	78.83
2.428	78.47
2.44	78.31
2.452	78
2.464	77.64
2.476	77.42
2.488	77.56
2.5	77.65
