Name: Goethite a-Fe+3O(OH)
Type: Mineral
Class: Hydroxide
Subclass: None
Particle Size: Solid
Sample No.: goethite_2
Owner: JHU
Wavelength Range: TIR
Origin: Sample from Calavi, Bolivia via the Smithsonian (sample no.NMNH C5055)
Description: The sample was a 2 cm x 2 cm x 2 cm layered botryoidal fragment weighing 14.5 g.  Its surface was glossy black, with interior layers various shades of yellow-brown.  No impurities were noted in hand sample or microscopically. Sample was surface normal to layering.(Goethite Group) Original ASTER Spectral Library name was jhu.nicolet.mineral.hydroxide.none.solid.goethi2.spectrum.txt
Measurement: Bidirectional reflectance
X Units: Wavelength (micrometers)
Y Units: Reflectance (percent)
wavelength	value
25.0442	35.0702
24.3388	35.7191
23.6719	34.4726
23.0407	33.038
22.4422	32.5575
21.8741	34.0793
21.334	35.1649
20.8199	35.7773
20.33	34.0907
19.8627	30.144
19.4163	26.0536
18.9896	23.4824
18.5812	22.1137
18.19	21.0014
17.815	20.3264
17.4551	19.8164
17.1094	19.3842
16.7772	19.0407
16.4576	18.7001
16.15	18.2302
15.8537	17.4179
15.568	16.4594
15.2925	15.3567
15.0265	14.7951
14.7697	14.1291
14.5214	12.7497
14.2814	11.48
14.0492	10.0798
13.8244	9.0512
13.6067	9.102
13.3957	10.0737
13.1912	11.4609
12.9929	12.8603
12.8004	14.0493
12.6135	14.6005
12.432	14.3569
12.2557	13.7751
12.0843	13.5266
11.9176	13.8366
11.7555	14.5764
11.5977	15.4953
11.444	16.1919
11.2944	16.2177
11.1487	15.4943
11.0067	14.3532
10.8682	13.1169
10.7332	12.0283
10.6015	11.4094
10.473	11.2302
10.3476	11.1826
10.2251	11.1198
10.1056	11.1809
9.9887	11.3979
9.8746	11.6953
9.763	11.9035
9.6539	12.1255
9.5472	11.9638
9.4429	11.8222
9.3408	11.8601
9.2409	11.9431
9.1431	12.082
9.0474	12.1828
8.9536	12.167
8.8618	12.1272
8.7718	12.0708
8.6837	12.0595
8.5973	12.0695
8.5126	12.0783
8.4295	12.0993
8.3481	12.1399
8.2682	12.1875
8.1898	12.2922
8.1129	12.3989
8.0374	12.5302
7.9634	12.6386
7.8906	12.7705
7.8192	12.873
7.7491	12.9387
7.6802	12.9907
7.6126	13.0539
7.5461	13.1096
7.4807	13.1428
7.4165	13.1862
7.3534	13.2219
7.2914	13.2487
7.2303	13.2754
7.1703	13.2785
7.1113	13.3298
7.0533	13.3598
6.9962	13.3928
6.94	13.425
6.8847	13.4594
6.8302	13.4892
6.7767	13.4763
6.7239	13.4448
6.672	13.4619
6.6209	13.4983
6.5705	13.5388
6.5209	13.667
6.4721	13.7221
6.424	13.6909
6.3766	13.7375
6.3299	13.7827
6.2838	13.8068
6.2385	13.8325
6.1937	13.8342
6.1496	13.8479
6.1062	13.831
6.0633	13.8364
6.0211	13.8264
5.9794	13.728
5.9383	13.593
5.8978	13.5713
5.8578	13.6477
5.8184	13.6093
5.7794	13.6328
5.741	13.6154
5.7031	13.549
5.6657	13.5031
5.6288	13.468
5.5924	13.446
5.5564	13.4223
5.5209	13.4257
5.4859	13.4387
5.4513	13.4836
5.4171	13.4973
5.3833	13.5451
5.35	13.5683
5.3171	13.6352
5.2846	13.6665
5.2524	13.7002
5.2207	13.7321
5.1893	13.7541
5.1584	13.7812
5.1277	13.7788
5.0975	13.7668
5.0676	13.7541
5.038	13.7309
5.0088	13.7312
4.98	13.7148
4.9514	13.6933
4.9232	13.7068
4.8953	13.7324
4.8678	13.7409
4.8405	13.7558
4.8135	13.7622
4.7868	13.7612
4.7605	13.7548
4.7344	13.7507
4.7086	13.7348
4.6831	13.7368
4.6578	13.7197
4.6328	13.7131
4.6081	13.717
4.5837	13.7102
4.5595	13.6972
4.5356	13.6928
4.5119	13.6921
4.4884	13.7248
4.4652	13.7527
4.4423	13.7727
4.4196	13.8115
4.3971	13.8405
4.3748	13.8652
4.3528	13.8923
4.331	13.9033
4.3094	13.9065
4.288	13.9094
4.2668	13.9084
4.2458	13.9057
4.2251	13.8935
4.2045	13.8796
4.1841	13.8786
4.164	13.8708
4.144	13.8925
4.1242	13.9184
4.1046	13.9416
4.0852	13.9821
4.066	14.0088
4.047	14.0363
4.0281	14.0664
4.0094	14.112
3.9909	14.1096
3.9725	14.1242
3.9544	14.1438
3.9363	14.1411
3.9185	14.1447
3.9008	14.1547
3.8833	14.1423
3.8659	14.1411
3.8487	14.1193
3.8316	14.125
3.8147	14.1291
3.7979	14.1452
3.7813	14.1567
3.7648	14.1721
3.7485	14.1987
3.7323	14.2226
3.7162	14.2295
3.7003	14.2331
3.6845	14.2439
3.6689	14.239
3.6534	14.2487
3.638	14.2561
3.6227	14.2622
3.6076	14.2719
3.5926	14.2805
3.5777	14.2895
3.563	14.3137
3.5484	14.3337
3.5338	14.3444
3.5195	14.3989
3.5052	14.5026
3.491	14.4565
3.477	14.4843
3.463	14.5217
3.4492	14.5647
3.4355	14.6359
3.4219	14.74
3.4084	14.6533
3.395	14.6086
3.3817	14.6067
3.3685	14.6027
3.3554	14.5922
3.3425	14.5871
3.3296	14.5976
3.3168	14.5949
3.3041	14.6313
3.2915	14.6115
3.279	14.5976
3.2666	14.6162
3.2543	14.5957
3.2421	14.5683
3.23	14.5234
3.218	14.4477
3.206	14.3789
3.1942	14.268
3.1824	14.1518
3.1707	13.9926
3.1591	13.8593
3.1476	13.6809
3.1362	13.5485
3.1249	13.3999
3.1136	13.2944
3.1024	13.1772
3.0913	13.0861
3.0803	13.0288
3.0694	12.9756
3.0585	12.9292
3.0477	12.9126
3.037	12.9106
3.0264	12.9026
3.0158	12.886
3.0053	12.9048
2.9949	12.9001
2.9845	12.8972
2.9743	12.8952
2.9641	12.8747
2.9539	12.8691
2.9439	12.8593
2.9339	12.8515
2.9239	12.821
2.9141	12.8242
2.9043	12.8169
2.8946	12.821
2.8849	12.7964
2.8753	12.7915
2.8658	12.8032
2.8563	12.8217
2.8469	12.8335
2.8375	12.8452
2.8282	12.8642
2.819	12.8808
2.8098	12.9155
2.8007	12.9292
2.7917	12.9467
2.7827	12.9843
2.7738	13.0083
2.7649	13.0752
2.7561	13.0883
2.7473	13.1233
2.7386	13.0993
2.7299	13.1401
2.7213	13.1179
2.7128	13.1186
2.7043	13.1372
2.6959	13.1064
2.6875	13.1562
2.6791	13.1626
2.6709	13.1594
2.6626	13.196
2.6545	13.1965
2.6463	13.1914
2.6382	13.2346
2.6302	13.1731
2.6222	13.2382
2.6143	13.217
2.6064	13.2199
2.5986	13.2439
2.5908	13.2334
2.583	13.2099
2.5753	13.2451
2.5677	13.2441
2.5601	13.2324
2.5525	13.2382
2.545	13.249
2.5375	13.2551
2.5301	13.2612
2.5227	13.2776
2.5154	13.2697
2.5081	13.2434
2.5008	13.309
2.4936	13.2827
2.4864	13.2519
2.4793	13.2485
2.4722	13.2649
2.4651	13.2092
2.4581	13.2641
2.4511	13.2216
2.4442	13.2512
2.4373	13.2268
2.4305	13.2373
2.4236	13.2072
2.4169	13.25
2.4101	13.2822
2.4034	13.249
2.3967	13.2375
2.3901	13.2695
2.3835	13.2607
2.377	13.2793
2.3704	13.292
2.364	13.2895
2.3575	13.3027
2.3511	13.3828
2.3447	13.3559
2.3384	13.3872
2.3321	13.3838
2.3258	13.3696
2.3195	13.4057
2.3133	13.3789
2.3071	13.4008
2.301	13.3755
2.2949	13.4599
2.2888	13.4218
2.2828	13.4355
2.2767	13.4184
2.2708	13.4126
2.2648	13.4912
2.2589	13.4814
2.253	13.4536
2.2471	13.4668
2.2413	13.4218
2.2355	13.559
2.2297	13.5341
2.224	13.5219
2.2183	13.5424
2.2126	13.5688
2.207	13.5083
2.2013	13.4765
2.1957	13.5439
2.1902	13.5576
2.1846	13.5219
2.1791	13.5381
2.1736	13.5312
2.1682	13.5962
2.1628	13.5976
2.1574	13.5156
2.152	13.4726
2.1466	13.5298
2.1413	13.4922
2.136	13.5005
2.1308	13.438
2.1255	13.4433
2.1203	13.4316
2.1151	13.416
2.11	13.4033
2.1048	13.3818
2.0997	13.3925
2.0946	13.4023
2.0895	13.3691
2.0845	13.3325
2.0795	13.3051
