Name: Magnetite Fe+2Fe2+3O4
Type: Mineral
Class: Oxide
Subclass: None
Particle Size: Fine
Sample No.: magnet_1
Owner: JHU
Wavelength Range: TIR
Origin: Santa Barbara, Minas Gerais, Brazil via the Smithsonian(sample no. NMNH 114111)
Description: The sample was composed of two large (3 cm x 3 cm x 2 cm) fragments of a single crystal, weighing 26.7 g.  The crystal fragments were dark gray in color, with good crystal faces, all of which had a red-brown, earthy material adhering in places.  These coatings were removed by ultrasonic cleaning. Particle size was Less than 2 micrometers.(Spinel Group) Original ASTER Spectral Library name was jhu.nicolet.mineral.oxide.none.powder.magnet1.spectrum.txt
Measurement: Transmission
X Units: Wavelength (micrometers)
Y Units: Transmittance (percent)
wavelength	value
25.0442	25.3793
24.3388	25.2648
23.6719	25.4516
23.0407	25.2162
22.4422	25.2778
21.8741	25.2389
21.334	25.3928
20.8199	25.7787
20.33	25.8727
19.8627	25.6884
19.4163	25.0314
18.9896	23.8669
18.5812	21.9106
18.19	18.218
17.815	13.696
17.4551	10.6172
17.1094	10.1396
16.7772	11.0014
16.4576	11.9687
16.15	12.8642
15.8537	13.4658
15.568	14.0744
15.2925	14.7656
15.0265	15.3601
14.7697	15.9211
14.5214	16.2961
14.2814	16.5512
14.0492	16.8774
13.8244	17.2495
13.6067	17.6169
13.3957	17.7268
13.1912	17.8273
12.9929	17.7727
12.8004	17.6342
12.6135	17.4565
12.432	17.2229
12.2557	16.9401
12.0843	16.6262
11.9176	16.3715
11.7555	16.0637
11.5977	15.7768
11.444	15.4743
11.2944	15.1738
11.1487	14.8757
11.0067	14.6381
10.8682	14.3171
10.7332	14.0691
10.6015	13.8369
10.473	13.6025
10.3476	13.3735
10.2251	13.1379
10.1056	12.8786
9.9887	12.6679
9.8746	12.4399
9.763	12.2082
9.6539	11.8811
9.5472	11.5903
9.4429	11.5195
9.3408	11.3679
9.2409	11.2639
9.1431	10.9343
9.0474	10.8879
8.9536	10.7282
8.8618	10.5554
8.7718	10.3808
8.6837	10.1985
8.5973	10.0227
8.5126	9.8327
8.4295	9.6489
8.3481	9.4629
8.2682	9.2893
8.1898	9.0796
8.1129	8.8882
8.0374	8.709
7.9634	8.5251
7.8906	8.3342
7.8192	8.146
7.7491	7.9587
7.6802	7.7832
7.6126	7.6269
7.5461	7.4502
7.4807	7.2947
7.4165	7.1238
7.3534	6.967
7.2914	6.824
7.2303	6.6648
7.1703	6.5207
7.1113	6.3613
7.0533	6.2678
6.9962	6.1299
6.94	6.011
6.8847	5.884
6.8302	5.7554
6.7767	5.6333
6.7239	5.52
6.672	5.3923
6.6209	5.2915
6.5705	5.1733
6.5209	5.0618
6.4721	4.9722
6.424	4.8457
6.3766	4.7361
6.3299	4.6474
6.2838	4.5369
6.2385	4.4531
6.1937	4.3599
6.1496	4.2444
6.1062	4.176
6.0633	4.1291
6.0211	4.0454
5.9794	4.0054
5.9383	3.9602
5.8978	3.9028
5.8578	3.8371
5.8184	3.771
5.7794	3.6897
5.741	3.6152
5.7031	3.5559
5.6657	3.4968
5.6288	3.4221
5.5924	3.363
5.5564	3.3005
5.5209	3.2349
5.4859	3.1792
5.4513	3.1274
5.4171	3.0776
5.3833	3.0127
5.35	2.968
5.3171	2.9067
5.2846	2.8589
5.2524	2.8054
5.2207	2.7497
5.1893	2.7104
5.1584	2.6709
5.1277	2.6301
5.0975	2.5828
5.0676	2.5425
5.038	2.4978
5.0088	2.46
4.98	2.4102
4.9514	2.3782
4.9232	2.3259
4.8953	2.2998
4.8678	2.2664
4.8405	2.2405
4.8135	2.1938
4.7868	2.1628
4.7605	2.1243
4.7344	2.0964
4.7086	2.0554
4.6831	2.0222
4.6578	2.0022
4.6328	1.9539
4.6081	1.9348
4.5837	1.9097
4.5595	1.8918
4.5356	1.8599
4.5119	1.8276
4.4884	1.803
4.4652	1.7678
4.4423	1.7341
4.4196	1.7119
4.3971	1.699
4.3748	1.6626
4.3528	1.6326
4.331	1.6077
4.3094	1.5845
4.288	1.5706
4.2668	1.5496
4.2458	1.5264
4.2251	1.501
4.2045	1.4851
4.1841	1.4736
4.164	1.4468
4.144	1.4446
4.1242	1.4177
4.1046	1.3931
4.0852	1.3716
4.066	1.3442
4.047	1.3215
4.0281	1.3179
4.0094	1.2854
3.9909	1.2795
3.9725	1.2666
3.9544	1.2322
3.9363	1.228
3.9185	1.2229
3.9008	1.1985
3.8833	1.1765
3.8659	1.1704
3.8487	1.155
3.8316	1.1465
3.8147	1.1438
3.7979	1.124
3.7813	1.0933
3.7648	1.0991
3.7485	1.0735
3.7323	1.0632
3.7162	1.0496
3.7003	1.0383
3.6845	1.0112
3.6689	1.0073
3.6534	0.9993
3.638	0.9866
3.6227	0.9805
3.6076	0.9482
3.5926	0.9465
3.5777	0.9329
3.563	0.9268
3.5484	0.896
3.5338	0.9043
3.5195	0.8916
3.5052	0.8843
3.491	0.8674
3.477	0.8657
3.463	0.8394
3.4492	0.8381
3.4355	0.8354
3.4219	0.8147
3.4084	0.7974
3.395	0.7981
3.3817	0.7878
3.3685	0.793
3.3554	0.7729
3.3425	0.7664
3.3296	0.7771
3.3168	0.7534
3.3041	0.7383
3.2915	0.7446
3.279	0.7229
3.2666	0.7217
3.2543	0.7085
3.2421	0.7126
3.23	0.6875
3.218	0.6873
3.206	0.6763
3.1942	0.6748
3.1824	0.6719
3.1707	0.6348
3.1591	0.657
3.1476	0.6494
3.1362	0.6467
3.1249	0.6301
3.1136	0.6094
3.1024	0.6133
3.0913	0.5933
3.0803	0.6089
3.0694	0.6106
3.0585	0.5962
3.0477	0.5869
3.037	0.5774
3.0264	0.5879
3.0158	0.5774
3.0053	0.5535
2.9949	0.5674
2.9845	0.5474
2.9743	0.5771
2.9641	0.562
2.9539	0.5259
2.9439	0.5281
2.9339	0.5298
2.9239	0.52
2.9141	0.5232
2.9043	0.5364
2.8946	0.5144
2.8849	0.5078
2.8753	0.5266
2.8658	0.5315
2.8563	0.5139
2.8469	0.5334
2.8375	0.5046
2.8282	0.4834
2.819	0.501
2.8098	0.5041
2.8007	0.5034
2.7917	0.5027
2.7827	0.5051
2.7738	0.4922
2.7649	0.4814
2.7561	0.47
2.7473	0.4739
2.7386	0.4783
2.7299	0.4697
2.7213	0.4832
2.7128	0.4558
2.7043	0.4585
2.6959	0.4585
2.6875	0.4504
2.6791	0.4585
2.6709	0.4636
2.6626	0.4597
2.6545	0.4233
2.6463	0.4321
2.6382	0.4597
2.6302	0.4272
2.6222	0.4094
2.6143	0.4382
2.6064	0.4277
2.5986	0.4104
2.5908	0.4487
2.583	0.4233
2.5753	0.4336
2.5677	0.4182
2.5601	0.4216
2.5525	0.3835
2.545	0.3921
2.5375	0.4128
2.5301	0.4126
2.5227	0.4016
2.5154	0.4028
2.5081	0.3931
2.5008	0.4082
2.4936	0.3953
2.4864	0.3928
2.4793	0.3999
2.4722	0.3772
2.4651	0.3809
2.4581	0.3455
2.4511	0.3428
2.4442	0.3582
2.4373	0.4175
2.4305	0.3599
2.4236	0.3706
2.4169	0.3472
2.4101	0.343
2.4034	0.3435
2.3967	0.3657
2.3901	0.365
2.3835	0.3779
2.377	0.3423
2.3704	0.3672
2.364	0.3491
2.3575	0.3254
2.3511	0.3691
2.3447	0.3467
2.3384	0.3486
2.3321	0.3196
2.3258	0.342
2.3195	0.3318
2.3133	0.3765
2.3071	0.3437
2.301	0.3301
2.2949	0.312
2.2888	0.3208
2.2828	0.3303
2.2767	0.3252
2.2708	0.3433
2.2648	0.3257
2.2589	0.2915
2.253	0.2705
2.2471	0.3242
2.2413	0.3213
2.2355	0.3169
2.2297	0.3081
2.224	0.2998
2.2183	0.3271
2.2126	0.3213
2.207	0.2539
2.2013	0.2842
2.1957	0.2871
2.1902	0.3057
2.1846	0.2852
2.1791	0.2593
2.1736	0.3135
2.1682	0.29
2.1628	0.3003
2.1574	0.2954
2.152	0.2412
2.1466	0.2983
2.1413	0.3157
2.136	0.2896
2.1308	0.2822
2.1255	0.2617
2.1203	0.2708
2.1151	0.2568
2.11	0.3333
2.1048	0.2932
2.0997	0.2651
2.0946	0.3296
2.0895	0.2554
2.0845	0.2734
2.0795	0.2412
