Name: Enstatite Mg_2(SiO_3)_2
Type: Mineral
Class: Silicate
Subclass: Inosilicate
Particle Size: Medium
Sample No.: IN-10B
Owner: JPL
Wavelength Range: TIR
Origin: Norway, Telemark
Description: Particle size was 45-125um.Collected by Burminco Original ASTER Spectral Library name was jpl.nicolet.mineral.silicate.inosilicate.medium.in10b.spectrum.txt
Measurement: Hemispherical reflectance
X Units: Wavelength (micrometers)
Y Units: Reflectance (percent)
wavelength	value
15.3853	3.0833
15.1161	1.6302
14.8563	2.4372
14.6052	4.0344
14.3624	3.1808
14.1276	2.7548
13.9004	3.1518
13.6803	2.7719
13.4671	2.9722
13.2604	3.429
13.06	4.0096
12.8656	4.801
12.6769	5.0958
12.4936	5.3525
12.3155	5.9017
12.1425	6.735
11.9742	7.4718
11.8106	9.4849
11.6513	12.8393
11.4963	14.7567
11.3454	15.3517
11.1983	9.616
11.0551	8.7765
10.9154	10.1867
10.7793	15.5305
10.6465	14.5834
10.5169	17.1189
10.3904	17.9829
10.267	19.8504
10.1464	18.4112
10.0287	12.7153
9.9136	13.2762
9.8012	9.7788
9.6913	11.4089
9.5838	17.4436
9.4787	20.3781
9.3758	20.0485
9.2752	18.8567
9.1767	17.9644
9.0803	18.2727
8.9858	17.5863
8.8934	13.4213
8.8028	10.3174
8.714	6.1127
8.627	3.2605
8.5417	1.6291
8.4581	1.1487
8.3761	0.9723
8.2957	0.8655
8.2169	0.9927
8.1395	1.2447
8.0635	1.4418
7.989	1.7077
7.9158	1.9469
7.8439	2.4216
7.7734	2.7155
7.7041	3.1486
7.636	3.5181
7.5691	3.7517
7.5034	4.0425
7.4388	4.415
7.3753	4.8013
7.3129	5.4492
7.2515	5.9854
7.1912	6.3725
7.1318	6.8058
7.0734	7.1332
7.016	7.3765
6.9595	7.7907
6.9039	7.9622
6.8492	8.3019
6.7953	8.7269
6.7423	8.6242
6.6901	8.5957
6.6387	8.5798
6.5881	8.6052
6.5382	9.1994
6.4892	9.7971
6.4408	9.2257
6.3931	8.595
6.3462	7.8693
6.2999	7.0011
6.2543	7.0371
6.2094	6.8051
6.1651	6.96
6.1214	7.571
6.0784	7.4986
6.0359	7.3125
5.994	7.8217
5.9527	9.2681
5.912	10.661
5.8718	11.1815
5.8322	11.0435
5.7931	10.7025
5.7545	10.7341
5.7165	11.113
5.6789	11.2
5.6418	11.6017
5.6052	11.5405
5.5691	12.1903
5.5334	13.1505
5.4982	12.8537
5.4635	12.536
5.4291	12.9265
5.3952	13.4853
5.3618	14.1839
5.3287	14.2155
5.2961	13.5138
5.2638	12.6797
5.2319	12.2346
5.2004	11.5474
5.1693	10.6862
5.1386	10.594
5.1082	11.2117
5.0782	12.1225
5.0485	13.127
5.0192	13.9437
4.9902	14.4325
4.9616	14.8828
4.9332	14.958
4.9052	15.045
4.8776	15.0871
4.8502	15.0692
4.8231	15.5408
4.7963	16.4973
4.7699	17.722
4.7437	18.7907
4.7178	19.6412
4.6922	20.3349
4.6668	21.0463
4.6418	22.2139
4.617	23.7462
4.5924	25.1863
4.5681	26.3568
4.5441	27.3756
4.5203	28.2312
4.4968	28.5667
4.4735	28.8924
4.4505	29.1177
4.4277	29.2483
4.4051	29.365
4.3828	29.4543
4.3607	29.5244
4.3388	29.7201
4.3171	29.7673
4.2956	30.0014
4.2744	30.0536
4.2534	30.2104
4.2325	30.3747
4.2119	30.5693
4.1915	30.7667
4.1712	30.9587
4.1512	30.9527
4.1313	31.1611
4.1117	31.3651
4.0922	31.4194
4.0729	31.5947
4.0538	31.7451
4.0349	31.9162
4.0161	32.0206
3.9976	32.1215
3.9792	32.2597
3.9609	32.3214
3.9428	32.3892
3.9249	32.5254
3.9072	32.6328
3.8896	32.984
3.8722	33.0472
3.8549	33.1096
3.8378	33.3062
3.8208	33.4196
3.804	33.4344
3.7873	33.7107
3.7708	33.867
3.7544	33.9685
3.7382	34.0452
3.7221	34.1574
3.7061	34.2709
3.6903	34.4346
3.6746	34.4091
3.659	34.5785
3.6436	34.5946
3.6283	34.7927
3.6131	34.7778
3.5981	34.8868
3.5832	35.0056
3.5684	35.064
3.5537	35.1114
3.5391	35.2437
3.5247	35.1735
3.5104	35.1725
3.4962	35.0469
3.4821	35.0495
3.4681	35.1202
3.4543	34.9915
3.4405	35.0094
3.4269	34.8714
3.4133	34.6426
3.3999	34.9102
3.3866	34.8547
3.3733	34.8143
3.3602	34.8486
3.3472	34.5894
3.3343	34.783
3.3215	34.8496
3.3088	34.7975
3.2961	34.9086
3.2836	34.8399
3.2712	34.7688
3.2588	34.7385
3.2466	34.7771
3.2345	34.546
3.2224	34.5085
3.2104	34.256
3.1985	34.1618
3.1867	34.0812
3.175	33.989
3.1634	33.9105
3.1519	33.7963
3.1404	33.6874
3.129	33.6483
3.1178	33.492
3.1065	33.3849
3.0954	33.2641
3.0844	33.2434
3.0734	33.1072
3.0625	33.1008
3.0517	33.1107
3.041	32.9135
3.0303	32.8979
3.0197	32.7922
3.0092	32.5346
2.9987	32.4611
2.9884	32.1979
2.9781	32.1286
2.9678	32.0088
2.9577	32.0382
2.9476	31.8005
2.9376	31.7325
2.9276	31.7773
2.9177	31.6445
2.9079	31.4648
2.8982	31.4291
2.8885	31.1455
2.8789	31.3884
2.8693	31.275
2.8598	31.0085
2.8504	30.7896
2.841	30.4427
2.8317	30.4965
2.8224	30.1157
2.8133	29.6544
2.8041	29.678
2.7951	28.686
2.786	28.6665
2.7771	27.7275
2.7682	27.4807
2.7594	26.4886
2.7506	25.6363
2.7418	25.2921
2.7332	22.4476
2.7246	21.2033
2.716	23.9431
2.7075	27.1258
2.699	34.0176
2.6906	40.6251
2.6823	44.3545
2.674	45.9074
2.6657	47.6496
2.6575	46.1045
2.6494	45.8824
2.6413	46.1434
2.6332	46.0989
2.6252	46.1335
2.6173	46.6351
2.6094	46.1032
2.6015	45.783
2.5937	46.663
2.5859	45.6098
2.5782	45.162
2.5706	45.0965
2.5629	45.3794
2.5554	44.5159
2.5478	44.5275
2.5403	44.069
2.5329	43.9766
2.5255	43.7804
2.5181	43.5546
2.5108	43.4332
2.5035	43.2085
2.4963	42.9095
2.4891	42.8201
2.482	42.5453
2.4749	42.4423
2.4678	42.16
2.4608	42.063
2.4538	41.9446
2.4468	41.7766
2.4399	41.454
2.4331	41.4278
2.4262	41.4042
2.4194	41.4713
2.4127	41.2262
2.4059	40.9684
2.3993	40.4374
2.3926	40.2
2.386	39.8498
2.3795	39.9053
2.3729	40.234
2.3664	40.3106
2.36	40.1167
2.3535	40.0652
2.3471	39.7956
2.3408	39.7773
2.3345	39.6147
2.3282	39.0962
2.3219	38.3898
2.3157	37.6699
2.3095	37.1016
2.3034	37.4213
2.2972	37.7565
2.2911	37.4158
2.2851	37.8352
2.279	37.954
2.2731	37.8254
2.2671	37.6405
2.2612	37.9215
2.2553	37.8388
2.2494	37.3429
2.2435	37.2275
2.2377	37.1396
2.232	36.9089
2.2262	36.4373
2.2205	36.3273
2.2148	36.2325
2.2091	35.8517
2.2035	35.6293
2.1979	35.3743
2.1923	35.1329
2.1868	34.5424
2.1812	34.3401
2.1758	34.1054
2.1703	33.8444
2.1649	33.3176
2.1595	32.9851
2.1541	32.8574
2.1487	32.2947
2.1434	31.7536
2.1381	31.4599
2.1328	31.184
2.1275	30.9018
2.1223	30.6282
2.1171	30.3471
2.112	29.7015
2.1068	29.7245
2.1017	29.2078
2.0966	28.9014
2.0915	28.3256
2.0865	28.1079
2.0814	28.0908
2.0764	27.4372
2.0715	26.7149
2.0665	26.8955
2.0616	26.6295
2.0567	26.1271
2.0518	26.1591
2.0469	25.6821
2.0421	25.5407
2.0373	25.251
2.0325	25.0869
2.0277	24.6316
2.0229	24.1738
2.0182	24.2016
2.0135	24.0219
2.0088	23.6168
2.0042	23.3065
