Name: Gypsum CaSO_4.2H_2O
Type: Mineral
Class: Sulfate
Subclass: None
Particle Size: Medium
Sample No.: SO-2B
Owner: JPL
Wavelength Range: VSWIR
Origin: USA, Utah.
Description: Particle size was 45-125um.Collected by:  Ward's Original ASTER Spectral Library name was jpl.perkin.mineral.sulfate.none.medium.so02b.spectrum.txt
Measurement: Hemispherical reflectance
X Units: Wavelength (micrometers)
Y Units: Reflectance (percent)
wavelength	value
2.5	14.2745
2.494	13.9899
2.488	13.6263
2.482	13.829
2.476	13.8759
2.47	14.3072
2.464	14.7438
2.458	15.0938
2.452	15.5456
2.446	15.8641
2.44	16.1775
2.434	16.3699
2.428	16.8355
2.422	17.3262
2.416	18.0971
2.41	19.0811
2.404	20.5427
2.398	22.5015
2.392	24.6194
2.386	26.8336
2.38	28.9988
2.374	30.9445
2.368	32.7334
2.362	34.1529
2.356	35.5684
2.35	36.7025
2.344	37.6802
2.338	38.543
2.332	39.1782
2.326	39.6937
2.32	39.9207
2.314	40.1462
2.308	40.1383
2.302	40.0172
2.296	39.8338
2.29	39.3896
2.284	38.7182
2.278	37.7552
2.272	36.7531
2.266	36.319
2.26	36.4773
2.254	37.0793
2.248	37.4662
2.242	37.3249
2.236	36.8238
2.23	35.873
2.224	34.7064
2.218	33.7522
2.212	33.9791
2.206	34.7691
2.2	35.7776
2.194	36.4522
2.188	36.9907
2.182	37.2366
2.176	37.5321
2.17	38.1099
2.164	38.8294
2.158	39.8375
2.152	40.7571
2.146	41.5378
2.14	42.2695
2.134	42.7319
2.128	43.2915
2.122	44.0324
2.116	44.7282
2.11	45.4681
2.104	46.2809
2.098	47.0309
2.092	47.8653
2.086	48.4965
2.08	48.8182
2.074	48.9249
2.068	48.8948
2.062	49.0672
2.056	49.3145
2.05	49.26
2.044	48.7196
2.038	48.0095
2.032	46.9164
2.026	45.6025
2.02	43.7844
2.014	41.3611
2.008	38.0843
2.002	33.6586
1.996	28.1447
1.99	23.7682
1.984	21.5887
1.978	20.2903
1.972	19.3672
1.966	18.8529
1.96	17.4092
1.954	14.9485
1.948	13.4233
1.942	13.464
1.936	14.372
1.93	16.7119
1.924	20.1449
1.918	23.9655
1.912	27.5972
1.906	31.4564
1.9	35.6814
1.894	39.7296
1.888	43.7928
1.882	48.0561
1.876	52.2072
1.87	56.3594
1.864	59.7994
1.858	62.477
1.852	64.2947
1.846	65.493
1.84	66.0436
1.834	66.3771
1.828	66.4223
1.822	66.2531
1.816	65.7306
1.81	65.1729
1.804	64.4154
1.798	63.2117
1.792	61.6409
1.786	59.9153
1.78	58.5673
1.774	57.9128
1.768	57.5452
1.762	56.8519
1.756	55.566
1.75	54.8065
1.744	55.4679
1.738	57.344
1.732	59.9173
1.726	62.8076
1.72	65.7138
1.714	68.5735
1.708	71.111
1.702	73.1875
1.696	74.799
1.69	75.8781
1.684	76.4728
1.678	76.985
1.672	77.0794
1.666	77.069
1.66	76.916
1.654	76.5998
1.648	76.0259
1.642	75.5704
1.636	74.7272
1.63	74.0153
1.624	73.2623
1.618	72.5116
1.612	71.5847
1.606	70.6726
1.6	69.4306
1.594	68.4209
1.588	67.3541
1.582	66.3162
1.576	65.3025
1.57	64.0677
1.564	62.5627
1.558	60.7559
1.552	58.4763
1.546	56.1162
1.54	54.6061
1.534	54.7407
1.528	55.6333
1.522	56.2756
1.516	56.2819
1.51	55.5794
1.504	53.7781
1.498	50.9268
1.492	49.133
1.486	50.1479
1.48	51.3467
1.474	50.9801
1.468	50.326
1.462	49.2227
1.456	47.0218
1.45	42.811
1.444	42.7772
1.438	48.5189
1.432	53.1904
1.426	55.642
1.42	59.0517
1.414	62.8255
1.408	65.8727
1.402	68.2918
1.396	69.9235
1.39	70.7638
1.384	71.2113
1.378	71.6438
1.372	72.3894
1.366	73.3309
1.36	74.0608
1.354	75.1011
1.348	76.3698
1.342	77.6503
1.336	78.6731
1.33	79.534
1.324	80.183
1.318	80.7725
1.312	81.3093
1.306	81.5725
1.3	81.8679
1.294	81.9553
1.288	82.0156
1.282	82.0682
1.276	81.9932
1.27	81.7948
1.264	81.7177
1.258	81.6265
1.252	81.3739
1.246	80.9118
1.24	80.1101
1.234	79.5363
1.228	79.4565
1.222	79.3215
1.216	78.8212
1.21	77.8603
1.204	77.8821
1.198	78.1584
1.192	78.3035
1.186	78.3462
1.18	78.5134
1.174	79.3401
1.168	80.7042
1.162	82.1527
1.156	83.2168
1.15	84.2111
1.144	84.8831
1.138	85.1343
1.132	85.325
1.126	85.5107
1.12	85.6652
1.114	85.8103
1.108	85.9303
1.102	86.08
1.096	86.2081
1.09	86.2714
1.084	86.3043
1.078	86.3733
1.072	86.3522
1.066	86.398
1.06	86.2942
1.054	86.2508
1.048	86.2464
1.042	86.1081
1.036	86.0702
1.03	85.7124
1.024	85.4327
1.018	85.1826
1.012	84.8125
1.006	84.41
1	84.0159
0.994	84.075
0.988	84.3554
0.982	84.5936
0.976	85.1083
0.97	85.4446
0.964	85.7272
0.958	86.03
0.952	86.263
0.946	86.3787
0.94	86.4771
0.934	86.5901
0.928	86.6739
0.922	86.7199
0.916	86.7225
0.91	86.6951
0.904	86.8731
0.898	86.8953
0.892	87.116
0.886	87.0603
0.88	87.0546
0.874	87.1653
0.868	87.1431
0.862	87.1624
0.856	86.8322
0.85	86.8553
0.844	86.9948
0.838	87.0278
0.832	87.0908
0.826	87.1947
0.82	87.1766
0.814	87.2617
0.808	87.1883
0.802	87.2075
0.796	87.164
0.79	87.1608
0.784	87.1191
0.778	87.139
0.772	87.1189
0.766	87.0829
0.76	87.1435
0.754	87.1656
0.748	87.2284
0.742	87.2558
0.736	87.3003
0.73	87.3504
0.724	87.325
0.718	87.3372
0.712	87.3496
0.706	87.3552
0.7	87.3847
0.694	87.3923
0.688	87.3873
0.682	87.407
0.676	87.3956
0.67	87.4206
0.664	87.4229
0.658	87.4275
0.652	87.4402
0.646	87.4404
0.64	87.4575
0.634	87.451
0.628	87.4611
0.622	87.4606
0.616	87.4554
0.61	87.4702
0.604	87.4816
0.598	87.5068
0.592	87.5566
0.586	87.5453
0.58	87.5316
0.574	87.512
0.568	87.4941
0.562	87.4549
0.556	87.3549
0.55	87.3377
0.544	87.2899
0.538	87.2546
0.532	87.2361
0.526	87.2148
0.52	87.1799
0.514	87.1374
0.508	87.0534
0.502	86.9626
0.496	86.828
0.49	86.6603
0.484	86.4407
0.478	86.3792
0.472	86.3204
0.466	86.1852
0.46	86.0104
0.454	85.8277
0.448	85.6099
0.442	85.4054
0.436	85.23
0.43	85.097
0.424	84.989
0.418	84.8806
0.412	84.8274
0.406	84.7476
0.4	84.7101
