Name: Zircon ZrSiO_4
Type: Mineral
Class: Silicate
Subclass: Nesosilicate
Particle Size: Fine
Sample No.: NS-9A
Owner: JPL
Wavelength Range: TIR
Origin: Malawi, Southern Malawi, Blantyre-Limbe District
Description: Particle size was 0-45um.Collected by Burminco Original ASTER Spectral Library name was jpl.nicolet.mineral.silicate.nesosilicate.fine.ns09a.spectrum.txt
Measurement: Hemispherical reflectance
X Units: Wavelength (micrometers)
Y Units: Reflectance (percent)
wavelength	value
15.3853	3.7825
15.1161	3.5887
14.8563	3.8426
14.6052	4.2989
14.3624	4.6235
14.1276	4.7505
13.9004	4.935
13.6803	5.3016
13.4671	5.8013
13.2604	5.985
13.06	6.4626
12.8656	6.2706
12.6769	5.7621
12.4936	6.2406
12.3155	7.0616
12.1425	7.4591
11.9742	8.3871
11.8106	9.6291
11.6513	11.3276
11.4963	12.8346
11.3454	13.1798
11.1983	13.3309
11.0551	13.3022
10.9154	13.3598
10.7793	13.7013
10.6465	13.6947
10.5169	13.6453
10.3904	13.475
10.267	12.9288
10.1464	12.1202
10.0287	10.8629
9.9136	10.0087
9.8012	9.0999
9.6913	7.1507
9.5838	5.832
9.4787	5.397
9.3758	5.0941
9.2752	4.8643
9.1767	3.7816
9.0803	2.4605
8.9858	1.2961
8.8934	0.8461
8.8028	0.6046
8.714	0.6014
8.627	0.8851
8.5417	0.812
8.4581	1.5526
8.3761	2.1634
8.2957	2.8037
8.2169	3.6362
8.1395	4.8098
8.0635	6.1189
7.989	7.2956
7.9158	8.1462
7.8439	9.1419
7.7734	10.1679
7.7041	11.2259
7.636	12.2545
7.5691	13.432
7.5034	14.3088
7.4388	15.17
7.3753	16.1284
7.3129	17.4827
7.2515	18.3082
7.1912	18.9816
7.1318	20.4097
7.0734	22.0924
7.016	23.5672
6.9595	25.4308
6.9039	26.449
6.8492	28.57
6.7953	30.5916
6.7423	30.7846
6.6901	31.0469
6.6387	32.3191
6.5881	30.9837
6.5382	30.6212
6.4892	33.7334
6.4408	33.5888
6.3931	34.1786
6.3462	34.983
6.2999	33.1014
6.2543	33.9184
6.2094	35.5875
6.1651	37.632
6.1214	39.9689
6.0784	41.7441
6.0359	42.1346
5.994	43.458
5.9527	43.4796
5.912	43.4957
5.8718	44.1883
5.8322	44.0697
5.7931	42.8833
5.7545	42.0666
5.7165	40.3149
5.6789	36.9086
5.6418	33.7123
5.6052	30.0169
5.5691	30.1392
5.5334	31.1166
5.4982	31.6637
5.4635	32.8964
5.4291	33.4552
5.3952	33.1984
5.3618	32.8361
5.3287	33.1426
5.2961	33.9074
5.2638	34.112
5.2319	34.5216
5.2004	34.2792
5.1693	34.0716
5.1386	35.1104
5.1082	37.0633
5.0782	38.9786
5.0485	40.4428
5.0192	41.8251
4.9902	43.1836
4.9616	44.9341
4.9332	46.8576
4.9052	48.7596
4.8776	50.9122
4.8502	53.2349
4.8231	55.3441
4.7963	57.035
4.7699	58.3586
4.7437	59.4428
4.7178	60.3808
4.6922	60.9827
4.6668	61.6462
4.6418	62.2611
4.617	62.9676
4.5924	63.4649
4.5681	63.9099
4.5441	64.33
4.5203	64.7301
4.4968	65.0537
4.4735	65.4218
4.4505	65.6358
4.4277	65.8295
4.4051	66.0844
4.3828	66.2152
4.3607	66.3117
4.3388	66.3757
4.3171	66.1769
4.2956	65.761
4.2744	65.3843
4.2534	65.8138
4.2325	65.8103
4.2119	66.4612
4.1915	66.9042
4.1712	66.825
4.1512	66.896
4.1313	66.9238
4.1117	66.8295
4.0922	66.8721
4.0729	66.8532
4.0538	66.6683
4.0349	66.539
4.0161	66.3926
3.9976	66.2987
3.9792	66.1134
3.9609	65.8653
3.9428	65.7787
3.9249	65.5424
3.9072	65.3175
3.8896	65.0736
3.8722	64.7527
3.8549	64.4431
3.8378	64.2356
3.8208	63.8325
3.804	63.5586
3.7873	63.1583
3.7708	62.7967
3.7544	62.4526
3.7382	62.0196
3.7221	61.5646
3.7061	61.1467
3.6903	60.7573
3.6746	60.3516
3.659	59.9964
3.6436	59.5958
3.6283	59.3064
3.6131	58.8108
3.5981	58.5765
3.5832	58.1234
3.5684	57.7269
3.5537	57.3839
3.5391	56.8998
3.5247	56.3796
3.5104	55.7549
3.4962	55.1843
3.4821	54.9362
3.4681	54.5148
3.4543	54.1855
3.4405	53.5015
3.4269	52.7868
3.4133	52.2439
3.3999	52.0218
3.3866	51.5522
3.3733	51.1534
3.3602	50.7029
3.3472	50.2799
3.3343	49.8179
3.3215	49.2229
3.3088	48.6407
3.2961	48.0183
3.2836	47.4074
3.2712	46.7774
3.2588	46.1011
3.2466	45.5305
3.2345	44.8572
3.2224	44.3661
3.2104	43.6579
3.1985	43.3591
3.1867	42.8543
3.175	42.5934
3.1634	42.295
3.1519	41.874
3.1404	41.5295
3.129	41.4838
3.1178	41.2064
3.1065	40.8617
3.0954	40.6802
3.0844	40.4921
3.0734	40.3173
3.0625	40.1453
3.0517	40.0305
3.041	40.1791
3.0303	40.1851
3.0197	40.2247
3.0092	40.5332
2.9987	40.8155
2.9884	41.097
2.9781	41.525
2.9678	41.7492
2.9577	42.1552
2.9476	42.4875
2.9376	42.9903
2.9276	43.3456
2.9177	44.1111
2.9079	44.5832
2.8982	45.3677
2.8885	46.2388
2.8789	47.0255
2.8693	47.7673
2.8598	48.5142
2.8504	49.2581
2.841	50.0565
2.8317	50.6921
2.8224	51.4899
2.8133	51.9506
2.8041	53.2629
2.7951	53.5236
2.786	54.7497
2.7771	54.5094
2.7682	54.5759
2.7594	52.2541
2.7506	55.6333
2.7418	57.0973
2.7332	56.3874
2.7246	58.5614
2.716	57.2094
2.7075	54.2449
2.699	57.7049
2.6906	65.4408
2.6823	69.9705
2.674	71.8593
2.6657	75.4452
2.6575	73.0588
2.6494	73.4047
2.6413	73.7898
2.6332	74.5364
2.6252	74.7731
2.6173	76.1748
2.6094	75.1102
2.6015	75.1808
2.5937	77.4208
2.5859	75.4625
2.5782	74.9558
2.5706	75.3245
2.5629	75.9609
2.5554	74.7582
2.5478	74.9732
2.5403	74.9167
2.5329	75.0819
2.5255	75.0367
2.5181	74.9863
2.5108	74.9857
2.5035	75.1053
2.4963	75.1513
2.4891	75.3193
2.482	75.2672
2.4749	75.324
2.4678	75.3537
2.4608	75.3991
2.4538	75.4138
2.4468	75.3779
2.4399	75.7579
2.4331	75.5541
2.4262	75.7202
2.4194	75.6256
2.4127	75.7249
2.4059	75.8162
2.3993	75.6737
2.3926	75.8339
2.386	75.7351
2.3795	75.6665
2.3729	75.7322
2.3664	75.867
2.36	75.8038
2.3535	75.945
2.3471	76.0645
2.3408	76.0671
2.3345	75.9377
2.3282	75.9926
2.3219	76.3197
2.3157	75.9879
2.3095	76.1238
2.3034	76.1955
2.2972	75.8837
2.2911	76.1103
2.2851	76.2056
2.279	76.0709
2.2731	76.0991
2.2671	76.0269
2.2612	76.2181
2.2553	76.2115
2.2494	76.1268
2.2435	76.2615
2.2377	76.1022
2.232	76.3337
2.2262	75.9905
2.2205	76.079
2.2148	75.9997
2.2091	75.8039
2.2035	75.809
2.1979	76.057
2.1923	75.9573
2.1868	76.0508
2.1812	76.0411
2.1758	76.1547
2.1703	76.0553
2.1649	76.1608
2.1595	76.0714
2.1541	75.9989
2.1487	76.1065
2.1434	76.1897
2.1381	76.3156
2.1328	76.3256
2.1275	76.1643
2.1223	76.1983
2.1171	76.1761
2.112	76.2182
2.1068	76.1479
2.1017	75.9965
2.0966	76.3394
2.0915	75.6455
2.0865	75.8988
2.0814	75.5718
2.0764	75.8301
2.0715	76.1003
2.0665	75.3646
2.0616	75.7437
2.0567	75.8651
2.0518	75.6831
2.0469	75.9411
2.0421	75.9219
2.0373	76.2328
2.0325	76.2625
2.0277	76.0749
2.0229	76.3013
2.0182	76.2066
2.0135	76.426
2.0088	76.2087
2.0042	76.3078
