Name: Magnetite Fe^2+Fe_2^3+O_4
Type: Mineral
Class: Oxide
Subclass: None
Particle Size: Medium
Sample No.: O-4A
Owner: JPL
Wavelength Range: TIR
Origin: Canada, Ontario, Haliburton County, Wilberforce
Description: Particle size was 45-125um.Collected by Ward's Original ASTER Spectral Library name was jpl.nicolet.mineral.oxide.none.medium.o04a.spectrum.txt
Measurement: Hemispherical reflectance
X Units: Wavelength (micrometers)
Y Units: Reflectance (percent)
wavelength	value
15.3853	18.87
15.1161	18.4651
14.8563	18.1129
14.6052	17.9912
14.3624	17.7168
14.1276	17.3151
13.9004	17.0312
13.6803	16.5075
13.4671	15.9961
13.2604	15.9512
13.06	15.6721
12.8656	15.6808
12.6769	15.337
12.4936	15.4115
12.3155	15.4241
12.1425	15.0562
11.9742	15.291
11.8106	15.1723
11.6513	15.1393
11.4963	15.1687
11.3454	15.0666
11.1983	15.099
11.0551	14.935
10.9154	14.8972
10.7793	15.0503
10.6465	15.2125
10.5169	15.1149
10.3904	15.1781
10.267	15.2082
10.1464	15.4315
10.0287	15.5536
9.9136	15.6659
9.8012	15.7564
9.6913	15.8214
9.5838	15.8332
9.4787	15.7277
9.3758	15.6922
9.2752	15.7958
9.1767	15.6263
9.0803	15.7071
8.9858	15.6694
8.8934	15.5195
8.8028	15.5814
8.714	15.6827
8.627	15.5551
8.5417	15.4373
8.4581	15.4252
8.3761	15.4241
8.2957	15.5273
8.2169	15.3857
8.1395	15.3331
8.0635	15.3377
7.989	15.2853
7.9158	15.1924
7.8439	15.2228
7.7734	15.4069
7.7041	15.1814
7.636	15.1726
7.5691	15.2914
7.5034	15.2486
7.4388	15.1844
7.3753	15.2151
7.3129	15.3133
7.2515	15.3166
7.1912	15.3014
7.1318	15.3837
7.0734	15.2877
7.016	15.2504
6.9595	15.4242
6.9039	15.1554
6.8492	15.2386
6.7953	15.2397
6.7423	15.0253
6.6901	15.2175
6.6387	15.3955
6.5881	15.1904
6.5382	15.116
6.4892	15.4089
6.4408	15.2489
6.3931	15.0993
6.3462	15.3508
6.2999	15.0833
6.2543	14.9912
6.2094	15.13
6.1651	15.1797
6.1214	15.172
6.0784	15.088
6.0359	15.0588
5.994	15.1681
5.9527	14.9436
5.912	14.9526
5.8718	14.9719
5.8322	14.9285
5.7931	14.9245
5.7545	14.8762
5.7165	14.9084
5.6789	14.8439
5.6418	14.9001
5.6052	14.7468
5.5691	14.7498
5.5334	14.685
5.4982	14.705
5.4635	14.7111
5.4291	14.6172
5.3952	14.6856
5.3618	14.6329
5.3287	14.6448
5.2961	14.679
5.2638	14.5292
5.2319	14.6018
5.2004	14.6131
5.1693	14.6747
5.1386	14.572
5.1082	14.5724
5.0782	14.5379
5.0485	14.47
5.0192	14.5706
4.9902	14.5797
4.9616	14.5077
4.9332	14.4753
4.9052	14.5412
4.8776	14.5062
4.8502	14.5426
4.8231	14.5152
4.7963	14.4323
4.7699	14.3972
4.7437	14.3849
4.7178	14.4645
4.6922	14.392
4.6668	14.4326
4.6418	14.4046
4.617	14.4321
4.5924	14.3085
4.5681	14.3655
4.5441	14.3764
4.5203	14.3461
4.4968	14.2847
4.4735	14.2818
4.4505	14.3414
4.4277	14.3331
4.4051	14.2301
4.3828	14.2883
4.3607	14.3897
4.3388	14.1277
4.3171	14.165
4.2956	13.9297
4.2744	13.9978
4.2534	14.0364
4.2325	13.7943
4.2119	14.0968
4.1915	14.0909
4.1712	14.298
4.1512	14.1245
4.1313	14.1355
4.1117	14.0646
4.0922	14.1811
4.0729	14.162
4.0538	14.1021
4.0349	14.0179
4.0161	13.947
3.9976	13.8989
3.9792	14.0943
3.9609	14.0307
3.9428	13.9816
3.9249	13.9881
3.9072	13.9907
3.8896	13.9143
3.8722	13.9552
3.8549	14.0125
3.8378	13.8874
3.8208	13.9694
3.804	13.9121
3.7873	13.9124
3.7708	13.9053
3.7544	13.9182
3.7382	13.959
3.7221	13.8613
3.7061	13.7961
3.6903	13.8494
3.6746	13.8232
3.659	13.8442
3.6436	13.7579
3.6283	13.8089
3.6131	13.741
3.5981	13.6863
3.5832	13.6452
3.5684	13.6927
3.5537	13.7778
3.5391	13.6217
3.5247	13.7586
3.5104	13.7045
3.4962	13.7022
3.4821	13.7643
3.4681	13.7194
3.4543	13.6333
3.4405	13.6748
3.4269	13.6318
3.4133	13.7284
3.3999	13.7336
3.3866	13.5883
3.3733	13.5767
3.3602	13.6381
3.3472	13.4123
3.3343	13.4393
3.3215	13.5195
3.3088	13.5163
3.2961	13.5573
3.2836	13.4361
3.2712	13.4363
3.2588	13.4306
3.2466	13.3742
3.2345	13.3788
3.2224	13.3866
3.2104	13.4029
3.1985	13.4425
3.1867	13.4269
3.175	13.4152
3.1634	13.3444
3.1519	13.2727
3.1404	13.3203
3.129	13.3949
3.1178	13.3302
3.1065	13.1777
3.0954	13.3256
3.0844	13.3121
3.0734	13.1867
3.0625	13.1744
3.0517	13.1654
3.041	13.3106
3.0303	13.0078
3.0197	13.1778
3.0092	13.1528
2.9987	13.1477
2.9884	13.1073
2.9781	13.1587
2.9678	12.9979
2.9577	12.9858
2.9476	13.0596
2.9376	12.9473
2.9276	13.0511
2.9177	13.0108
2.9079	12.8919
2.8982	13.0261
2.8885	12.9663
2.8789	12.8963
2.8693	12.94
2.8598	13.0032
2.8504	12.7084
2.841	12.6458
2.8317	12.6606
2.8224	12.8597
2.8133	12.8326
2.8041	12.8096
2.7951	12.763
2.786	12.7914
2.7771	12.7816
2.7682	12.6709
2.7594	12.7434
2.7506	12.6161
2.7418	12.8262
2.7332	12.4819
2.7246	12.9337
2.716	12.7112
2.7075	12.7135
2.699	12.7054
2.6906	12.5899
2.6823	12.5495
2.674	12.6924
2.6657	12.9312
2.6575	12.7043
2.6494	12.6912
2.6413	12.6638
2.6332	12.8065
2.6252	12.738
2.6173	12.7508
2.6094	12.6775
2.6015	12.7068
2.5937	12.7632
2.5859	12.6552
2.5782	12.5278
2.5706	12.4903
2.5629	12.6413
2.5554	12.5744
2.5478	12.5809
2.5403	12.3556
2.5329	12.5177
2.5255	12.5176
2.5181	12.3622
2.5108	12.4992
2.5035	12.4028
2.4963	12.399
2.4891	12.4528
2.482	12.4386
2.4749	12.4275
2.4678	12.2979
2.4608	12.2783
2.4538	12.3801
2.4468	12.1912
2.4399	12.1628
2.4331	12.0539
2.4262	12.2329
2.4194	12.2086
2.4127	12.323
2.4059	12.0787
2.3993	12.0884
2.3926	12.1097
2.386	12.0093
2.3795	12.2695
2.3729	12.0849
2.3664	12.289
2.36	11.9532
2.3535	11.9703
2.3471	11.9784
2.3408	12.0679
2.3345	12.0811
2.3282	12.131
2.3219	11.8102
2.3157	11.9438
2.3095	11.9599
2.3034	11.9782
2.2972	12.1515
2.2911	11.8862
2.2851	11.6765
2.279	11.7831
2.2731	11.9721
2.2671	11.9879
2.2612	11.8465
2.2553	11.8217
2.2494	11.7205
2.2435	11.8019
2.2377	11.6829
2.232	11.8342
2.2262	11.8057
2.2205	11.4856
2.2148	11.7512
2.2091	11.6692
2.2035	11.6856
2.1979	11.5502
2.1923	11.5394
2.1868	11.5208
2.1812	11.7835
2.1758	11.6871
2.1703	11.5477
2.1649	11.8081
2.1595	11.555
2.1541	11.614
2.1487	11.4996
2.1434	11.3171
2.1381	11.6177
2.1328	11.3769
2.1275	11.2326
2.1223	11.4337
2.1171	11.447
2.112	11.3368
2.1068	11.5749
2.1017	11.3413
2.0966	11.3666
2.0915	11.2652
2.0865	11.3737
2.0814	11.1678
2.0764	11.4257
2.0715	11.7793
2.0665	11.1045
2.0616	11.1981
2.0567	11.6752
2.0518	11.0602
2.0469	11.1163
2.0421	11.299
2.0373	11.0821
2.0325	11.0413
2.0277	11.0798
2.0229	10.9784
2.0182	11.1699
2.0135	11.3862
2.0088	11.2336
2.0042	11.3511
