Name: Alunite (potassium alunite) KAl3(SO4)2(OH)6
Type: Mineral
Class: Sulfate
Subclass: None
Particle Size: Fine
Sample No.: alunite_3
Owner: JHU
Wavelength Range: TIR
Origin: Synthetic; Synthesized by Roger Stoffregen, supplied by PhilBethke (USGS).
Description: The sample was a light gray, microcrystalline powder composed of equant or lath-shaped crystallites from 1 to 15 micrometers in largest dimension. Particle size was less than 2 Micrometers. Original ASTER Spectral Library name was jhu.nicolet.mineral.sulfate.none.powder.alunit3.spectrum.txt
Measurement: Transmission
X Units: Wavelength (micrometers)
Y Units: Transmittance (percent)
wavelength	value
25.0442	89.0232
24.3388	80.7264
23.6719	62.3787
23.0407	68.8065
22.4422	90.6482
21.8741	95.1658
21.334	96.1951
20.8199	94.9646
20.33	89.6365
19.8627	87.8328
19.4163	84.5867
18.9896	68.8514
18.5812	85.7595
18.19	87.3484
17.815	83.7791
17.4551	75.7859
17.1094	58.118
16.7772	27.8769
16.4576	39.5858
16.15	37.6806
15.8537	28.1025
15.568	46.7186
15.2925	72.2518
15.0265	41.2704
14.7697	33.1728
14.5214	35.3632
14.2814	47.639
14.0492	62.8319
13.8244	76.9646
13.6067	84.2693
13.3957	88.3523
13.1912	90.8518
12.9929	92.6838
12.8004	93.801
12.6135	94.488
12.432	94.9866
12.2557	95.8132
12.0843	96.2502
11.9176	96.5642
11.7555	96.7249
11.5977	96.6912
11.444	96.4763
11.2944	96.2268
11.1487	96.1169
11.0067	96.1599
10.8682	95.887
10.7332	95.5315
10.6015	95.5837
10.473	94.6355
10.3476	93.7561
10.2251	92.1726
10.1056	90.1033
9.9887	87.429
9.8746	82.4954
9.763	57.2196
9.6539	72.993
9.5472	64.2533
9.4429	48.6879
9.3408	28.9706
9.2409	12.4297
9.1431	17.5312
9.0474	27.3652
8.9536	38.7821
8.8618	49.3715
8.7718	57.1083
8.6837	61.4393
8.5973	58.2315
8.5126	63.7118
8.4295	62.8963
8.3481	60.3028
8.2682	54.4911
8.1898	50.0936
8.1129	51.2257
8.0374	54.7696
7.9634	63.2247
7.8906	74.158
7.8192	81.2051
7.7491	85.0772
7.6802	87.28
7.6126	88.7532
7.5461	90.0332
7.4807	91.0325
7.4165	91.9041
7.3534	92.4668
7.2914	92.9014
7.2303	93.0813
7.1703	92.8894
7.1113	93.1672
7.0533	93.6267
6.9962	93.9236
6.94	94.2859
6.8847	94.5881
6.8302	94.658
6.7767	94.5168
6.7239	94.7732
6.672	94.9959
6.6209	95.3037
6.5705	95.3132
6.5209	95.7341
6.4721	95.9014
6.424	95.8389
6.3766	96.0847
6.3299	96.0564
6.2838	96.0203
6.2385	95.959
6.1937	95.7175
6.1496	95.3005
6.1062	95.1287
6.0633	95.3137
6.0211	95.5857
5.9794	95.7976
5.9383	95.5986
5.8978	95.8347
5.8578	96.4382
5.8184	96.292
5.7794	96.6396
5.741	96.7891
5.7031	96.9365
5.6657	97.154
5.6288	97.2244
5.5924	97.2732
5.5564	97.2461
5.5209	97.3079
5.4859	97.3252
5.4513	97.5124
5.4171	97.4929
5.3833	97.6218
5.35	97.5847
5.3171	97.6836
5.2846	97.7585
5.2524	97.7949
5.2207	97.8154
5.1893	97.8513
5.1584	97.8555
5.1277	97.865
5.0975	97.8613
5.0676	97.8809
5.038	97.9121
5.0088	97.9705
4.98	97.9773
4.9514	97.9746
4.9232	98.0066
4.8953	97.9792
4.8678	98.0183
4.8405	97.8494
4.8135	98.0022
4.7868	97.8689
4.7605	97.2937
4.7344	96.1853
4.7086	96.2791
4.6831	96.4373
4.6578	96.6799
4.6328	96.1692
4.6081	95.6355
4.5837	95.2366
4.5595	95.7986
4.5356	95.8645
4.5119	95.8782
4.4884	95.8435
4.4652	96.1409
4.4423	96.197
4.4196	96.3191
4.3971	96.4172
4.3748	96.179
4.3528	96.1814
4.331	96.4416
4.3094	96.8733
4.288	96.9045
4.2668	96.9885
4.2458	97.1526
4.2251	97.1804
4.2045	97.2927
4.1841	97.241
4.164	97.2351
4.144	97.2737
4.1242	97.2341
4.1046	97.2107
4.0852	97.2273
4.066	97.1936
4.047	97.2039
4.0281	97.2537
4.0094	97.2854
3.9909	97.2371
3.9725	97.156
3.9544	97.158
3.9363	97.1658
3.9185	97.1799
3.9008	97.1462
3.8833	97.0613
3.8659	97.0027
3.8487	96.9885
3.8316	97.0764
3.8147	97.0046
3.7979	97.0027
3.7813	96.989
3.7648	96.928
3.7485	96.8904
3.7323	96.8806
3.7162	96.7849
3.7003	96.7483
3.6845	96.7522
3.6689	96.6565
3.6534	96.5691
3.638	96.529
3.6227	96.4812
3.6076	96.3972
3.5926	96.3044
3.5777	96.176
3.563	96.116
3.5484	96.0134
3.5338	95.9666
3.5195	96.0276
3.5052	96.2224
3.491	95.9358
3.477	95.7795
3.463	95.615
3.4492	95.6414
3.4355	95.6423
3.4219	95.8103
3.4084	95.4226
3.395	95.0354
3.3817	94.8127
3.3685	94.6687
3.3554	94.3474
3.3425	94.0896
3.3296	93.8621
3.3168	93.7092
3.3041	93.6267
3.2915	93.5798
3.279	93.4314
3.2666	93.2483
3.2543	92.9685
3.2421	92.6526
3.23	92.5823
3.218	92.6423
3.206	92.4461
3.1942	92.3484
3.1824	92.2195
3.1707	92.1882
3.1591	92.0134
3.1476	91.9695
3.1362	91.7644
3.1249	91.6111
3.1136	91.7605
3.1024	91.5574
3.0913	90.9841
3.0803	90.8445
3.0694	90.8992
3.0585	90.7927
3.0477	90.9597
3.037	90.9148
3.0264	90.5623
3.0158	89.9939
3.0053	89.9119
2.9949	89.5095
2.9845	88.4461
2.9743	87.1228
2.9641	86.3162
2.9539	84.9002
2.9439	83.3513
2.9339	83.0369
2.9239	81.9226
2.9141	79.5818
2.9043	75.6229
2.8946	67.4549
2.8849	50.7147
2.8753	23.8447
2.8658	15.5722
2.8563	36.453
2.8469	27.1406
2.8375	49.8475
2.8282	64.8514
2.819	72.3885
2.8098	76.9031
2.8007	79.5428
2.7917	81.9295
2.7827	83.7771
2.7738	84.7947
2.7649	86.2146
2.7561	87.6013
2.7473	88.8162
2.7386	89.4773
2.7299	90.3084
2.7213	90.5711
2.7128	91.3435
2.7043	91.9109
2.6959	91.9148
2.6875	92.2459
2.6791	92.4412
2.6709	92.4617
2.6626	92.8562
2.6545	92.9802
2.6463	93.2263
2.6382	93.3757
2.6302	93.2595
2.6222	93.6619
2.6143	93.6443
2.6064	93.488
2.5986	93.8416
2.5908	93.699
2.583	93.7498
2.5753	93.8279
2.5677	93.7849
2.5601	93.8455
2.5525	94.031
2.545	94.0271
2.5375	94.1638
2.5301	93.9099
2.5227	94.0584
2.5154	93.9861
2.5081	93.9138
2.5008	94.3298
2.4936	94.4646
2.4864	94.4334
2.4793	94.2966
2.4722	94.4959
2.4651	94.3357
2.4581	94.4763
2.4511	94.5173
2.4442	94.531
2.4373	94.6169
2.4305	94.3748
2.4236	94.3611
2.4169	94.6423
2.4101	94.781
2.4034	94.949
2.3967	94.574
2.3901	94.7283
2.3835	94.8865
2.377	94.9919
2.3704	95.1169
2.364	94.8357
2.3575	95.0173
2.3511	95.0544
2.3447	95.0251
2.3384	95.156
2.3321	95.1443
2.3258	95.0388
2.3195	95.0544
2.3133	95.2732
2.3071	95.2048
2.301	94.9724
2.2949	95.3455
2.2888	95.2908
2.2828	95.283
2.2767	95.031
2.2708	95.6052
2.2648	94.781
2.2589	95.5427
2.253	95.2615
2.2471	95.1638
2.2413	95.4607
2.2355	95.1873
2.2297	95.3005
2.224	95.2966
2.2183	95.4373
2.2126	95.2927
2.207	95.3005
2.2013	95.0466
2.1957	95.4998
2.1902	95.3982
2.1846	95.4099
2.1791	94.6599
2.1736	95.1873
2.1682	95.5349
2.1628	95.238
2.1574	94.8279
2.152	95.2654
2.1466	95.1091
2.1413	95.1794
2.136	95.531
2.1308	95.3982
2.1255	95.2693
2.1203	95.3279
2.1151	95.2224
2.11	95.6287
2.1048	95.5662
2.0997	95.3435
2.0946	95.7732
2.0895	95.1248
2.0845	95.5505
2.0795	96.1755
