Name: Calcite CaCO_3
Type: Mineral
Class: Carbonate
Subclass: None
Particle Size: Fine
Sample No.: C-3D
Owner: JPL
Wavelength Range: VSWIR
Origin: United Kingdom, England.
Description: Particle size was 0-45um.Collected by:  Ward's Original ASTER Spectral Library name was jpl.perkin.mineral.carbonate.none.fine.c03d.spectrum.txt
Measurement: Hemispherical reflectance
X Units: Wavelength (micrometers)
Y Units: Reflectance (percent)
wavelength	value
2.5	67.0458
2.494	67.0417
2.488	67.8465
2.482	68.718
2.476	69.879
2.47	71.3069
2.464	72.9646
2.458	74.4686
2.452	75.5238
2.446	76.4747
2.44	77.3157
2.434	78.2215
2.428	78.9053
2.422	79.5444
2.416	80.3141
2.41	80.6
2.404	80.8361
2.398	81.1684
2.392	81.3971
2.386	81.486
2.38	81.374
2.374	80.8636
2.368	79.7824
2.362	78.0616
2.356	75.8334
2.35	73.8284
2.344	72.1437
2.338	71.5571
2.332	71.8899
2.326	72.6936
2.32	73.789
2.314	74.6814
2.308	75.3597
2.302	75.9192
2.296	76.4071
2.29	77.0534
2.284	77.9137
2.278	78.8891
2.272	79.8729
2.266	80.8347
2.26	81.5965
2.254	82.2474
2.248	82.8122
2.242	83.3246
2.236	83.9022
2.23	84.3176
2.224	84.6548
2.218	84.9192
2.212	85.1464
2.206	85.4686
2.2	85.8854
2.194	86.1224
2.188	86.3175
2.182	86.4565
2.176	86.4979
2.17	86.4589
2.164	86.4025
2.158	86.3362
2.152	86.5257
2.146	86.7845
2.14	87.1433
2.134	87.2652
2.128	87.2401
2.122	87.0961
2.116	86.8934
2.11	86.6682
2.104	86.515
2.098	86.3585
2.092	86.5154
2.086	86.6168
2.08	86.7508
2.074	86.7989
2.068	86.8789
2.062	86.9156
2.056	86.9825
2.05	86.8996
2.044	86.9538
2.038	86.8994
2.032	86.806
2.026	86.6501
2.02	86.4626
2.014	86.185
2.008	85.8023
2.002	85.1953
1.996	84.8778
1.99	84.891
1.984	85.0776
1.978	85.0502
1.972	84.9474
1.966	84.88
1.96	84.8767
1.954	84.7732
1.948	84.8299
1.942	84.6878
1.936	84.6536
1.93	84.6673
1.924	84.7445
1.918	84.7217
1.912	84.87
1.906	85.2906
1.9	86.2214
1.894	87.0626
1.888	87.5943
1.882	87.503
1.876	87.5995
1.87	88.1576
1.864	88.8338
1.858	89.2038
1.852	89.4259
1.846	89.5935
1.84	89.8076
1.834	89.9731
1.828	90.1011
1.822	90.2642
1.816	90.3503
1.81	90.3651
1.804	90.4539
1.798	90.5821
1.792	90.5589
1.786	90.5458
1.78	90.4653
1.774	90.5067
1.768	90.4144
1.762	90.4102
1.756	90.2949
1.75	90.3492
1.744	90.4455
1.738	90.4905
1.732	90.4766
1.726	90.5222
1.72	90.6092
1.714	90.6447
1.708	90.7009
1.702	90.7671
1.696	90.7479
1.69	90.8004
1.684	90.6954
1.678	90.7119
1.672	90.7678
1.666	90.9017
1.66	90.7563
1.654	90.8144
1.648	90.798
1.642	90.9268
1.636	90.8975
1.63	90.9525
1.624	90.9718
1.618	90.9162
1.612	90.8757
1.606	90.867
1.6	90.9141
1.594	90.9408
1.588	90.8552
1.582	90.8819
1.576	90.7461
1.57	90.7288
1.564	90.6063
1.558	90.6446
1.552	90.6435
1.546	90.5646
1.54	90.5387
1.534	90.5433
1.528	90.4447
1.522	90.4232
1.516	90.3745
1.51	90.3218
1.504	90.2776
1.498	90.1969
1.492	90.0939
1.486	90.0228
1.48	89.906
1.474	89.8903
1.468	89.8791
1.462	89.8097
1.456	89.7522
1.45	89.7963
1.444	89.6274
1.438	89.6428
1.432	89.6292
1.426	89.5776
1.42	89.3673
1.414	89.3032
1.408	89.5266
1.402	89.8263
1.396	90.0518
1.39	90.3918
1.384	90.5267
1.378	90.6463
1.372	90.6113
1.366	90.7258
1.36	90.6375
1.354	90.5568
1.348	90.5797
1.342	90.5785
1.336	90.5985
1.33	90.4868
1.324	90.6142
1.318	90.5747
1.312	90.4574
1.306	90.4617
1.3	90.4297
1.294	90.3873
1.288	90.4228
1.282	90.3345
1.276	90.3261
1.27	90.2594
1.264	90.2457
1.258	90.1809
1.252	90.171
1.246	90.1751
1.24	90.052
1.234	90.0586
1.228	89.9747
1.222	89.952
1.216	89.8642
1.21	89.8202
1.204	89.7832
1.198	89.6969
1.192	89.6969
1.186	89.6524
1.18	89.6525
1.174	89.5057
1.168	89.4785
1.162	89.4607
1.156	89.4731
1.15	89.3803
1.144	89.3317
1.138	89.3351
1.132	89.2621
1.126	89.2214
1.12	89.1153
1.114	89.0961
1.108	89.1569
1.102	89.1388
1.096	89.0712
1.09	89.0004
1.084	88.9193
1.078	88.8408
1.072	88.8488
1.066	88.6747
1.06	88.7261
1.054	88.6614
1.048	88.5827
1.042	88.5793
1.036	88.5228
1.03	88.3873
1.024	88.4404
1.018	88.3001
1.012	88.2909
1.006	88.2112
1	88.2083
0.994	88.0303
0.988	88.0012
0.982	87.904
0.976	87.8449
0.97	87.7592
0.964	87.6783
0.958	87.6235
0.952	87.5826
0.946	87.4576
0.94	87.4456
0.934	87.3443
0.928	87.2771
0.922	87.1382
0.916	87.0393
0.91	86.9256
0.904	86.8281
0.898	86.7441
0.892	86.5613
0.886	86.4531
0.88	86.295
0.874	86.2313
0.868	86.0715
0.862	85.9462
0.856	85.7452
0.85	85.6326
0.844	85.6288
0.838	85.492
0.832	85.3675
0.826	85.2046
0.82	85.0653
0.814	84.8566
0.808	84.7005
0.802	84.5457
0.796	84.3539
0.79	84.1229
0.784	83.9576
0.778	83.8011
0.772	83.5737
0.766	83.3744
0.76	83.1886
0.754	82.9969
0.748	82.7556
0.742	82.5832
0.736	82.3753
0.73	82.1562
0.724	81.9371
0.718	81.7259
0.712	81.5141
0.706	81.2944
0.7	81.0695
0.694	80.8256
0.688	80.5712
0.682	80.3298
0.676	80.0673
0.67	79.8284
0.664	79.5742
0.658	79.3106
0.652	79.0373
0.646	78.7616
0.64	78.4977
0.634	78.2503
0.628	77.9389
0.622	77.6984
0.616	77.4127
0.61	77.1284
0.604	76.8488
0.598	76.5897
0.592	76.3273
0.586	76.0214
0.58	75.6978
0.574	75.3575
0.568	75.0108
0.562	74.6687
0.556	74.2829
0.55	73.8874
0.544	73.4919
0.538	73.0767
0.532	72.6311
0.526	72.1687
0.52	71.7215
0.514	71.216
0.508	70.7415
0.502	70.2253
0.496	69.7268
0.49	69.2547
0.484	68.7695
0.478	68.3013
0.472	67.783
0.466	67.2997
0.46	66.7886
0.454	66.221
0.448	65.6081
0.442	64.9451
0.436	64.2818
0.43	63.5812
0.424	62.8294
0.418	62.0612
0.412	61.2631
0.406	60.4255
0.4	59.5561
