Name: Rhodonite (Mn,Ca)SiO_3
Type: Mineral
Class: Silicate
Subclass: Inosilicate
Particle Size: Medium
Sample No.: IN-1A
Owner: JPL
Wavelength Range: TIR
Origin: USA, California, Fresno County
Description: Particle size was 45-125um.Collected by Burminco Original ASTER Spectral Library name was jpl.nicolet.mineral.silicate.inosilicate.medium.in01a.spectrum.txt
Measurement: Hemispherical reflectance
X Units: Wavelength (micrometers)
Y Units: Reflectance (percent)
wavelength	value
15.3853	2.547
15.1161	3.3556
14.8563	2.236
14.6052	2.3382
14.3624	2.6337
14.1276	2.7848
13.9004	3.3146
13.6803	3.0051
13.4671	3.7469
13.2604	4.4186
13.06	4.896
12.8656	5.14
12.6769	5.3208
12.4936	5.6362
12.3155	5.8221
12.1425	6.3662
11.9742	6.6444
11.8106	7.7037
11.6513	9.5307
11.4963	10.1194
11.3454	11.3231
11.1983	14.0383
11.0551	12.5634
10.9154	9.4753
10.7793	9.7696
10.6465	11.7019
10.5169	16.7945
10.3904	16.6531
10.267	13.5945
10.1464	15.9279
10.0287	16.7315
9.9136	16.3571
9.8012	14.1381
9.6913	10.5741
9.5838	7.0264
9.4787	9.5386
9.3758	10.7517
9.2752	10.5135
9.1767	9.1099
9.0803	7.8397
8.9858	7.3877
8.8934	6.5274
8.8028	2.9107
8.714	1.1682
8.627	0.9125
8.5417	0.9418
8.4581	0.9687
8.3761	1.368
8.2957	1.6975
8.2169	2.2051
8.1395	2.4089
8.0635	2.9554
7.989	3.3997
7.9158	3.6867
7.8439	4.1878
7.7734	4.5473
7.7041	4.8722
7.636	5.52
7.5691	6.3532
7.5034	6.8139
7.4388	7.2859
7.3753	7.8822
7.3129	8.3698
7.2515	8.933
7.1912	9.5174
7.1318	10.2166
7.0734	10.6968
7.016	10.7519
6.9595	10.8599
6.9039	11.0788
6.8492	11.6129
6.7953	12.4615
6.7423	13.1099
6.6901	14.0947
6.6387	15.3795
6.5881	15.6312
6.5382	15.4802
6.4892	15.6524
6.4408	15.0157
6.3931	13.9033
6.3462	12.9838
6.2999	11.938
6.2543	11.7625
6.2094	11.8701
6.1651	12.3246
6.1214	12.3252
6.0784	12.4645
6.0359	12.2004
5.994	12.0689
5.9527	11.2111
5.912	10.2506
5.8718	10.153
5.8322	10.5691
5.7931	10.8729
5.7545	10.7293
5.7165	10.3919
5.6789	10.1863
5.6418	10.7702
5.6052	10.8051
5.5691	11.339
5.5334	12.5993
5.4982	14.4616
5.4635	16.0018
5.4291	16.2617
5.3952	15.6023
5.3618	14.5769
5.3287	14.0627
5.2961	14.085
5.2638	14.4257
5.2319	14.9762
5.2004	15.8099
5.1693	17.0325
5.1386	17.6719
5.1082	18.3793
5.0782	19.296
5.0485	20.1392
5.0192	20.9952
4.9902	22.2931
4.9616	24.1203
4.9332	25.7527
4.9052	26.9543
4.8776	27.9356
4.8502	29.1707
4.8231	30.4327
4.7963	31.5607
4.7699	33.0835
4.7437	35.0042
4.7178	37.2912
4.6922	39.4434
4.6668	41.6677
4.6418	44.1544
4.617	46.1071
4.5924	48.0783
4.5681	49.7258
4.5441	51.3418
4.5203	52.471
4.4968	53.3318
4.4735	53.9714
4.4505	54.653
4.4277	55.085
4.4051	55.4436
4.3828	55.789
4.3607	55.851
4.3388	56.0911
4.3171	56.3433
4.2956	56.6655
4.2744	57.0099
4.2534	57.2034
4.2325	57.5894
4.2119	57.6956
4.1915	57.861
4.1712	58.0695
4.1512	58.2312
4.1313	58.2297
4.1117	58.1707
4.0922	57.964
4.0729	57.0801
4.0538	55.1773
4.0349	52.8958
4.0161	51.3007
3.9976	50.5806
3.9792	49.6286
3.9609	49.917
3.9428	51.9132
3.9249	53.4007
3.9072	53.9241
3.8896	54.1247
3.8722	54.148
3.8549	54.4549
3.8378	55.0475
3.8208	56.2137
3.804	57.5997
3.7873	58.8544
3.7708	59.2695
3.7544	59.2987
3.7382	59.2614
3.7221	59.2368
3.7061	59.2001
3.6903	58.9795
3.6746	58.7688
3.659	58.5934
3.6436	58.2889
3.6283	57.9944
3.6131	57.4702
3.5981	56.8985
3.5832	56.1499
3.5684	55.4232
3.5537	54.4484
3.5391	53.4024
3.5247	52.0889
3.5104	50.7972
3.4962	49.7354
3.4821	49.25
3.4681	49.1938
3.4543	49.797
3.4405	49.6762
3.4269	49.2222
3.4133	48.6612
3.3999	48.4207
3.3866	48.1299
3.3733	47.5524
3.3602	47.3076
3.3472	47.1191
3.3343	48.2264
3.3215	48.7722
3.3088	48.6052
3.2961	48.2768
3.2836	47.884
3.2712	47.3258
3.2588	46.8124
3.2466	46.1885
3.2345	45.5217
3.2224	44.8147
3.2104	44.2391
3.1985	43.6003
3.1867	42.8197
3.175	42.1141
3.1634	41.2664
3.1519	40.735
3.1404	39.8584
3.129	39.2909
3.1178	38.6316
3.1065	38.022
3.0954	37.5592
3.0844	37.1404
3.0734	36.8366
3.0625	36.5312
3.0517	36.2122
3.041	36.0044
3.0303	35.5748
3.0197	35.3287
3.0092	34.6881
2.9987	34.5429
2.9884	33.9807
2.9781	33.681
2.9678	33.4631
2.9577	33.0454
2.9476	32.8987
2.9376	32.8131
2.9276	32.7324
2.9177	32.7602
2.9079	32.7161
2.8982	32.7038
2.8885	32.4386
2.8789	32.5116
2.8693	32.519
2.8598	32.4984
2.8504	32.8346
2.841	32.9534
2.8317	33.1808
2.8224	33.2642
2.8133	32.5404
2.8041	33.4397
2.7951	34.0323
2.786	34.7308
2.7771	34.7693
2.7682	35.7791
2.7594	35.2892
2.7506	36.23
2.7418	41.4023
2.7332	47.6999
2.7246	53.431
2.716	56.3268
2.7075	58.8831
2.699	60.2919
2.6906	61.3269
2.6823	62.1891
2.674	62.7081
2.6657	65.7517
2.6575	64.9667
2.6494	64.9153
2.6413	64.955
2.6332	65.2401
2.6252	64.9651
2.6173	65.4659
2.6094	64.7568
2.6015	64.6292
2.5937	65.1747
2.5859	64.3097
2.5782	63.818
2.5706	63.7385
2.5629	63.8084
2.5554	62.9183
2.5478	62.6481
2.5403	62.2877
2.5329	62.1986
2.5255	62.1559
2.5181	61.8466
2.5108	61.8265
2.5035	61.6978
2.4963	61.7676
2.4891	61.5377
2.482	61.4984
2.4749	61.384
2.4678	61.4437
2.4608	61.3973
2.4538	61.246
2.4468	61.1541
2.4399	60.9622
2.4331	61.0783
2.4262	60.7823
2.4194	60.8018
2.4127	60.7935
2.4059	60.7257
2.3993	60.6041
2.3926	60.5428
2.386	60.4563
2.3795	60.1349
2.3729	60.0694
2.3664	59.8838
2.36	59.9069
2.3535	59.7548
2.3471	59.7915
2.3408	59.8648
2.3345	59.7278
2.3282	59.8752
2.3219	59.6508
2.3157	59.8346
2.3095	59.7839
2.3034	59.7041
2.2972	59.7148
2.2911	59.8301
2.2851	59.8428
2.279	59.5943
2.2731	59.733
2.2671	59.8922
2.2612	59.7077
2.2553	59.7691
2.2494	59.657
2.2435	59.8603
2.2377	59.7593
2.232	59.9063
2.2262	59.7498
2.2205	59.8111
2.2148	59.9181
2.2091	59.8457
2.2035	59.7468
2.1979	60.002
2.1923	59.9729
2.1868	60.1298
2.1812	60.1439
2.1758	60.2705
2.1703	60.3803
2.1649	60.4074
2.1595	60.213
2.1541	60.3867
2.1487	60.48
2.1434	60.6719
2.1381	60.5621
2.1328	60.7101
2.1275	60.9143
2.1223	60.5152
2.1171	60.8884
2.112	60.7885
2.1068	61.2607
2.1017	61.1441
2.0966	61.4031
2.0915	61.2328
2.0865	61.1312
2.0814	61.5521
2.0764	61.6441
2.0715	61.5768
2.0665	61.8211
2.0616	61.7537
2.0567	61.5666
2.0518	61.9923
2.0469	62.3392
2.0421	62.2063
2.0373	62.2577
2.0325	62.3272
2.0277	62.4253
2.0229	62.5711
2.0182	63.0319
2.0135	62.9869
2.0088	62.7793
2.0042	62.8458
