Name: Gahnite ZnAl_2O_4
Type: Mineral
Class: Oxide
Subclass: None
Particle Size: Medium
Sample No.: O-11A
Owner: JPL
Wavelength Range: TIR
Origin: Nigeria, Kaduna, Jemaa, Godogodo Mine
Description: Particle size was 45-125um.Collected by New, David Original ASTER Spectral Library name was jpl.nicolet.mineral.oxide.none.medium.o11a.spectrum.txt
Measurement: Hemispherical reflectance
X Units: Wavelength (micrometers)
Y Units: Reflectance (percent)
wavelength	value
15.3853	31.1336
15.1161	45.0112
14.8563	49.1292
14.6052	48.8531
14.3624	49.3549
14.1276	49.2737
13.9004	48.5009
13.6803	46.9494
13.4671	45.4468
13.2604	42.9612
13.06	40.8093
12.8656	39.3062
12.6769	35.4281
12.4936	29.3925
12.3155	22.6263
12.1425	15.4817
11.9742	10.4126
11.8106	9.4099
11.6513	9.9724
11.4963	5.5878
11.3454	2.75
11.1983	1.4976
11.0551	0.8725
10.9154	0.5266
10.7793	0.4092
10.6465	0.2197
10.5169	0.3955
10.3904	0.4848
10.267	0.5929
10.1464	0.763
10.0287	0.7462
9.9136	0.9909
9.8012	1.1741
9.6913	1.4959
9.5838	1.6595
9.4787	2.0424
9.3758	2.7255
9.2752	3.3796
9.1767	3.4067
9.0803	3.6908
8.9858	3.9783
8.8934	4.2356
8.8028	4.3034
8.714	4.4481
8.627	4.9596
8.5417	6.8696
8.4581	8.6097
8.3761	9.9463
8.2957	10.9522
8.2169	11.6871
8.1395	12.8471
8.0635	13.9672
7.989	14.8856
7.9158	14.6809
7.8439	14.6121
7.7734	15.0378
7.7041	17.841
7.636	21.2928
7.5691	23.357
7.5034	24.4999
7.4388	24.858
7.3753	26.0782
7.3129	26.7306
7.2515	26.8692
7.1912	26.2457
7.1318	24.4807
7.0734	23.8937
7.016	24.7248
6.9595	28.8582
6.9039	32.5007
6.8492	34.3131
6.7953	33.6245
6.7423	34.0551
6.6901	38.0008
6.6387	41.697
6.5881	43.1601
6.5382	44.2713
6.4892	46.632
6.4408	46.9828
6.3931	47.5702
6.3462	48.6985
6.2999	48.7371
6.2543	49.49
6.2094	50.2667
6.1651	51.4489
6.1214	52.8212
6.0784	54.0957
6.0359	54.6193
5.994	55.5438
5.9527	55.9012
5.912	56.7735
5.8718	58.1242
5.8322	59.3155
5.7931	59.9695
5.7545	61.0396
5.7165	62.1944
5.6789	63.0272
5.6418	63.491
5.6052	63.0702
5.5691	63.6294
5.5334	64.1603
5.4982	65.0515
5.4635	66.1151
5.4291	66.2158
5.3952	65.5208
5.3618	65.1328
5.3287	65.4778
5.2961	66.1023
5.2638	66.9395
5.2319	68.2175
5.2004	69.4674
5.1693	69.7185
5.1386	69.8594
5.1082	70.2715
5.0782	70.2497
5.0485	70.4419
5.0192	70.6877
4.9902	71.0012
4.9616	72.0325
4.9332	72.7628
4.9052	73.88
4.8776	75.3188
4.8502	76.0723
4.8231	76.5789
4.7963	76.9992
4.7699	77.2819
4.7437	77.5938
4.7178	77.7727
4.6922	77.8624
4.6668	78.0782
4.6418	78.4371
4.617	78.7118
4.5924	79.1067
4.5681	79.1236
4.5441	79.2164
4.5203	79.0397
4.4968	78.7677
4.4735	78.7146
4.4505	78.9093
4.4277	79.0275
4.4051	79.2331
4.3828	79.3724
4.3607	79.551
4.3388	79.4938
4.3171	79.3403
4.2956	79.0433
4.2744	78.7296
4.2534	78.8929
4.2325	78.7755
4.2119	78.8985
4.1915	78.9079
4.1712	78.8573
4.1512	78.6088
4.1313	78.4733
4.1117	78.2076
4.0922	78.0175
4.0729	77.8048
4.0538	77.4969
4.0349	77.1194
4.0161	76.6934
3.9976	76.2904
3.9792	75.8762
3.9609	75.3048
3.9428	74.9075
3.9249	74.5281
3.9072	73.8321
3.8896	73.1363
3.8722	72.5661
3.8549	71.8542
3.8378	71.2176
3.8208	70.4192
3.804	69.728
3.7873	68.8616
3.7708	68.0484
3.7544	67.177
3.7382	66.4075
3.7221	65.517
3.7061	64.512
3.6903	63.596
3.6746	62.6554
3.659	61.6149
3.6436	60.5875
3.6283	59.5567
3.6131	58.5627
3.5981	57.3785
3.5832	56.3047
3.5684	55.1283
3.5537	53.978
3.5391	52.7089
3.5247	51.4964
3.5104	48.8492
3.4962	48.4388
3.4821	47.6472
3.4681	46.5938
3.4543	45.2773
3.4405	43.8576
3.4269	41.7126
3.4133	41.1248
3.3999	40.4178
3.3866	39.5139
3.3733	38.3882
3.3602	37.6009
3.3472	36.4997
3.3343	35.3418
3.3215	34.3065
3.3088	33.2155
3.2961	32.1968
3.2836	31.0978
3.2712	30.0393
3.2588	29.1046
3.2466	28.0856
3.2345	27.0407
3.2224	26.0715
3.2104	25.0857
3.1985	24.2467
3.1867	23.2932
3.175	22.4426
3.1634	21.5868
3.1519	20.6709
3.1404	19.9715
3.129	19.2588
3.1178	18.311
3.1065	17.7206
3.0954	16.8767
3.0844	16.1705
3.0734	15.4033
3.0625	14.9082
3.0517	14.1801
3.041	13.5941
3.0303	12.9564
3.0197	12.4006
3.0092	12.0519
2.9987	11.3884
2.9884	11.0248
2.9781	10.5401
2.9678	10.2738
2.9577	9.6183
2.9476	9.3522
2.9376	9.1529
2.9276	8.8546
2.9177	8.4686
2.9079	8.1263
2.8982	7.8624
2.8885	7.6212
2.8789	7.4108
2.8693	7.3142
2.8598	6.6652
2.8504	6.8869
2.841	6.4986
2.8317	6.4041
2.8224	6.4615
2.8133	6.2737
2.8041	6.0895
2.7951	5.8766
2.786	5.5533
2.7771	5.867
2.7682	5.6458
2.7594	5.6473
2.7506	5.4911
2.7418	5.5184
2.7332	5.3842
2.7246	5.4131
2.716	5.478
2.7075	5.3919
2.699	5.584
2.6906	5.3984
2.6823	5.4617
2.674	5.6805
2.6657	5.5622
2.6575	5.5339
2.6494	5.5116
2.6413	5.573
2.6332	5.6288
2.6252	5.6171
2.6173	5.6131
2.6094	5.713
2.6015	5.7613
2.5937	5.7857
2.5859	5.7016
2.5782	5.9504
2.5706	5.9076
2.5629	5.8458
2.5554	5.8556
2.5478	5.7517
2.5403	5.817
2.5329	5.7421
2.5255	5.9915
2.5181	5.9026
2.5108	5.7735
2.5035	5.8101
2.4963	5.6976
2.4891	5.6414
2.482	6.0247
2.4749	5.6985
2.4678	5.8675
2.4608	5.7588
2.4538	5.6638
2.4468	5.9761
2.4399	5.9176
2.4331	5.8066
2.4262	5.7355
2.4194	5.8739
2.4127	5.788
2.4059	5.8422
2.3993	5.808
2.3926	5.9028
2.386	5.7784
2.3795	5.9214
2.3729	5.9138
2.3664	6.0717
2.36	5.7904
2.3535	5.8782
2.3471	5.9633
2.3408	6.003
2.3345	5.79
2.3282	5.8716
2.3219	5.7854
2.3157	5.7021
2.3095	5.8889
2.3034	5.8852
2.2972	5.8072
2.2911	5.9504
2.2851	5.6329
2.279	5.6139
2.2731	5.5952
2.2671	5.6845
2.2612	5.7797
2.2553	5.5962
2.2494	5.6553
2.2435	5.6539
2.2377	5.4815
2.232	5.5213
2.2262	5.4868
2.2205	5.5608
2.2148	5.631
2.2091	5.5058
2.2035	5.48
2.1979	5.3477
2.1923	5.3324
2.1868	5.2885
2.1812	5.4046
2.1758	5.3046
2.1703	5.1593
2.1649	5.3568
2.1595	5.3891
2.1541	5.4028
2.1487	5.3434
2.1434	5.1256
2.1381	5.2111
2.1328	5.5087
2.1275	5.186
2.1223	5.2896
2.1171	5.375
2.112	5.241
2.1068	4.9308
2.1017	5.3869
2.0966	5.1937
2.0915	5.3176
2.0865	5.2055
2.0814	5.1154
2.0764	5.2347
2.0715	4.9851
2.0665	5.245
2.0616	4.5856
2.0567	5.0985
2.0518	5.0682
2.0469	5.2422
2.0421	5.3197
2.0373	4.9838
2.0325	4.872
2.0277	5.1269
2.0229	4.9082
2.0182	4.929
2.0135	4.875
2.0088	5.391
2.0042	4.9077
