Name: Antlerite Cu_3(SO_4)(OH)_4
Type: Mineral
Class: Sulfate
Subclass: None
Particle Size: Medium
Sample No.: SO-11A
Owner: JPL
Wavelength Range: TIR
Origin: USA, Arizona, Greenlee County, Morenci
Description: Particle size was 45-125um.Collected by Burminco Original ASTER Spectral Library name was jpl.nicolet.mineral.sulfate.none.medium.so11a.spectrum.txt
Measurement: Hemispherical reflectance
X Units: Wavelength (micrometers)
Y Units: Reflectance (percent)
wavelength	value
15.3853	3.3089
15.1161	2.712
14.8563	2.4603
14.6052	2.3832
14.3624	2.2745
14.1276	2.8934
13.9004	3.2137
13.6803	3.7176
13.4671	4.1446
13.2604	5.2804
13.06	5.003
12.8656	5.0103
12.6769	5.4975
12.4936	6.308
12.3155	3.3941
12.1425	1.8352
11.9742	2.1792
11.8106	3.424
11.6513	3.5631
11.4963	3.6233
11.3454	5.8643
11.1983	5.6788
11.0551	3.5392
10.9154	2.0097
10.7793	1.9173
10.6465	2.2374
10.5169	2.3325
10.3904	2.6932
10.267	2.9212
10.1464	3.4425
10.0287	3.4886
9.9136	4.0591
9.8012	4.7424
9.6913	5.2944
9.5838	6.3443
9.4787	7.3488
9.3758	10.82
9.2752	15.7559
9.1767	16.6995
9.0803	15.7559
8.9858	14.7218
8.8934	14.3004
8.8028	9.9549
8.714	11.416
8.627	10.2475
8.5417	11.6505
8.4581	5.4385
8.3761	4.8143
8.2957	4.956
8.2169	5.1285
8.1395	4.6328
8.0635	3.6099
7.989	3.4041
7.9158	3.4243
7.8439	3.8315
7.7734	4.2524
7.7041	4.7976
7.636	5.2504
7.5691	5.6422
7.5034	5.8507
7.4388	5.858
7.3753	6.4943
7.3129	7.2305
7.2515	7.3076
7.1912	7.1445
7.1318	7.1151
7.0734	7.3404
7.016	8.0453
6.9595	8.5597
6.9039	8.3927
6.8492	7.8933
6.7953	7.2236
6.7423	6.2738
6.6901	6.3332
6.6387	6.8318
6.5881	6.2759
6.5382	5.1288
6.4892	4.9778
6.4408	4.8352
6.3931	4.917
6.3462	5.1021
6.2999	5.048
6.2543	5.3201
6.2094	5.9119
6.1651	6.2252
6.1214	6.3664
6.0784	6.3324
6.0359	6.261
5.994	6.1623
5.9527	5.8977
5.912	6.3735
5.8718	7.2243
5.8322	7.9974
5.7931	8.4401
5.7545	8.5386
5.7165	8.738
5.6789	8.6073
5.6418	8.3856
5.6052	8.3969
5.5691	9.1662
5.5334	10.1543
5.4982	10.9444
5.4635	11.9546
5.4291	12.2445
5.3952	11.2552
5.3618	10.8981
5.3287	11.6296
5.2961	12.4965
5.2638	13.1635
5.2319	14.0692
5.2004	14.8414
5.1693	15.2584
5.1386	15.0773
5.1082	14.2359
5.0782	12.9433
5.0485	14.8455
5.0192	15.6405
4.9902	16.3521
4.9616	17.1301
4.9332	16.7274
4.9052	13.6884
4.8776	7.8883
4.8502	7.5902
4.8231	11.65
4.7963	14.4835
4.7699	12.6973
4.7437	16.9456
4.7178	15.1263
4.6922	10.4789
4.6668	10.9452
4.6418	13.5694
4.617	17.6337
4.5924	16.5858
4.5681	16.2292
4.5441	19.0652
4.5203	21.6175
4.4968	19.753
4.4735	18.1047
4.4505	19.0259
4.4277	20.2389
4.4051	19.4158
4.3828	18.7463
4.3607	20.6829
4.3388	23.1017
4.3171	25.3388
4.2956	28.1856
4.2744	29.4414
4.2534	30.7574
4.2325	31
4.2119	31.7329
4.1915	32.077
4.1712	32.2988
4.1512	32.408
4.1313	32.7864
4.1117	32.9545
4.0922	33.171
4.0729	33.1429
4.0538	33.0601
4.0349	33.1859
4.0161	33.1293
3.9976	33.1821
3.9792	33.3005
3.9609	33.4285
3.9428	33.4153
3.9249	33.3561
3.9072	33.2753
3.8896	32.415
3.8722	32.3449
3.8549	32.7873
3.8378	32.8683
3.8208	32.9826
3.804	32.5841
3.7873	29.996
3.7708	31.315
3.7544	31.3032
3.7382	30.7308
3.7221	29.9292
3.7061	29.6795
3.6903	30.2842
3.6746	31.5694
3.659	31.8814
3.6436	31.8697
3.6283	31.8785
3.6131	31.3522
3.5981	30.0768
3.5832	28.4982
3.5684	28.2831
3.5537	29.0739
3.5391	28.8627
3.5247	28.9062
3.5104	28.9294
3.4962	29.0185
3.4821	28.7863
3.4681	28.0865
3.4543	27.9137
3.4405	27.4387
3.4269	26.4448
3.4133	26.0328
3.3999	25.6586
3.3866	25.2359
3.3733	24.4143
3.3602	23.1892
3.3472	23.0832
3.3343	22.9603
3.3215	22.5397
3.3088	21.8916
3.2961	21.657
3.2836	20.956
3.2712	20.442
3.2588	19.8769
3.2466	19.6618
3.2345	19.1125
3.2224	18.3621
3.2104	17.8969
3.1985	17.4244
3.1867	16.8021
3.175	16.3907
3.1634	15.7655
3.1519	15.4485
3.1404	14.8328
3.129	14.3426
3.1178	13.222
3.1065	12.3919
3.0954	11.8598
3.0844	11.5174
3.0734	10.8522
3.0625	10.8254
3.0517	10.4185
3.041	9.2781
3.0303	8.3327
3.0197	7.8638
3.0092	7.511
2.9987	6.8744
2.9884	6.9031
2.9781	6.3285
2.9678	5.6492
2.9577	5.6929
2.9476	5.6203
2.9376	5.6166
2.9276	5.406
2.9177	4.9203
2.9079	4.6794
2.8982	4.6151
2.8885	4.5154
2.8789	4.4633
2.8693	5.9151
2.8598	5.2528
2.8504	3.2752
2.841	3.8013
2.8317	4.2358
2.8224	4.4432
2.8133	4.5682
2.8041	4.735
2.7951	5.203
2.786	3.0206
2.7771	4.5971
2.7682	5.4155
2.7594	5.6454
2.7506	5.5612
2.7418	7.4145
2.7332	7.5772
2.7246	8.195
2.716	9.2137
2.7075	10.4739
2.699	11.9302
2.6906	16.4675
2.6823	19.9893
2.674	22.44
2.6657	24.2017
2.6575	27.1241
2.6494	30.3766
2.6413	29.7529
2.6332	28.0127
2.6252	25.8846
2.6173	22.9875
2.6094	18.4619
2.6015	17.5868
2.5937	22.1157
2.5859	26.2681
2.5782	29.1713
2.5706	26.8802
2.5629	24.6048
2.5554	22.4384
2.5478	23.4232
2.5403	23.5832
2.5329	23.6067
2.5255	24.0287
2.5181	24.1196
2.5108	22.9441
2.5035	24.5557
2.4963	27.4252
2.4891	29.5151
2.482	29.3205
2.4749	28.0645
2.4678	25.8786
2.4608	25.5342
2.4538	22.5472
2.4468	22.2311
2.4399	24.1565
2.4331	27.5926
2.4262	28.0973
2.4194	29.5788
2.4127	29.2862
2.4059	29.584
2.3993	27.3006
2.3926	23.4844
2.386	23.0218
2.3795	23.5608
2.3729	17.488
2.3664	16.4108
2.36	12.5409
2.3535	11.7552
2.3471	12.227
2.3408	12.9157
2.3345	15.1029
2.3282	16.0222
2.3219	14.7357
2.3157	11.8822
2.3095	10.028
2.3034	11.1203
2.2972	14.3047
2.2911	17.9755
2.2851	21.7442
2.279	25.7304
2.2731	28.1636
2.2671	29.398
2.2612	29.9137
2.2553	27.7771
2.2494	22.0249
2.2435	24.1636
2.2377	26.0912
2.232	29.4248
2.2262	32.8725
2.2205	35.9088
2.2148	39.1964
2.2091	40.5262
2.2035	40.9693
2.1979	40.4266
2.1923	39.0852
2.1868	40.3223
2.1812	42.0149
2.1758	42.3217
2.1703	42.9072
2.1649	42.6553
2.1595	41.5341
2.1541	37.7251
2.1487	37.9942
2.1434	41.3115
2.1381	41.8423
2.1328	41.5707
2.1275	43.1862
2.1223	43.1451
2.1171	41.8772
2.112	41.958
2.1068	43.378
2.1017	45.2027
2.0966	46.1781
2.0915	45.9829
2.0865	46.1684
2.0814	46.3086
2.0764	46.6088
2.0715	46.5723
2.0665	47.1458
2.0616	46.688
2.0567	47.3988
2.0518	47.174
2.0469	47.1639
2.0421	47.1072
2.0373	47.4337
2.0325	47.0924
2.0277	46.9177
2.0229	46.8836
2.0182	46.9468
2.0135	46.8803
2.0088	47.0673
2.0042	46.4496
