Name: Malachite Cu_2(CO_3)(OH)_2
Type: Mineral
Class: Carbonate
Subclass: None
Particle Size: Fine
Sample No.: C-7A
Owner: JPL
Wavelength Range: TIR
Origin: USA, California, San Bernadino County, Near Valley Wells
Description: Particle size was 0-45um.Collected by Burminco Original ASTER Spectral Library name was jpl.nicolet.mineral.carbonate.none.fine.c07a.spectrum.txt
Measurement: Hemispherical reflectance
X Units: Wavelength (micrometers)
Y Units: Reflectance (percent)
wavelength	value
15.3853	1.9707
15.1161	2.0438
14.8563	2.1223
14.6052	2.0648
14.3624	2.3553
14.1276	2.0765
13.9004	2.1123
13.6803	2.125
13.4671	1.9755
13.2604	1.5366
13.06	1.6083
12.8656	1.9554
12.6769	2.0785
12.4936	2.0666
12.3155	3.0068
12.1425	2.927
11.9742	2.5342
11.8106	2.6607
11.6513	2.5039
11.4963	2.5296
11.3454	2.3476
11.1983	2.1583
11.0551	1.8171
10.9154	1.9936
10.7793	2.3209
10.6465	2.6062
10.5169	2.8289
10.3904	2.9987
10.267	3.0387
10.1464	3.1105
10.0287	3.4224
9.9136	3.4609
9.8012	3.5959
9.6913	3.6161
9.5838	3.5215
9.4787	2.64
9.3758	1.7007
9.2752	1.5721
9.1767	1.5648
9.0803	1.0748
8.9858	1.1466
8.8934	1.3722
8.8028	1.6007
8.714	2.2409
8.627	2.6036
8.5417	2.9628
8.4581	3.7143
8.3761	4.7093
8.2957	5.6578
8.2169	6.5505
8.1395	7.4879
8.0635	7.9337
7.989	8.6122
7.9158	9.0129
7.8439	9.3831
7.7734	9.4018
7.7041	9.4328
7.636	8.9615
7.5691	8.1546
7.5034	7.8668
7.4388	7.1429
7.3753	6.511
7.3129	5.6827
7.2515	5.0028
7.1912	4.847
7.1318	4.4816
7.0734	4.1113
7.016	3.1501
6.9595	2.3581
6.9039	2.5825
6.8492	2.9999
6.7953	3.169
6.7423	3.2356
6.6901	3.024
6.6387	2.7519
6.5881	2.7129
6.5382	2.6741
6.4892	2.3853
6.4408	2.689
6.3931	2.8392
6.3462	3.0736
6.2999	3.5809
6.2543	3.3305
6.2094	3.1135
6.1651	2.6854
6.1214	2.3439
6.0784	2.3784
6.0359	2.557
5.994	3.005
5.9527	3.565
5.912	4.4945
5.8718	5.6742
5.8322	7.3164
5.7931	9.2804
5.7545	10.6876
5.7165	11.625
5.6789	12.596
5.6418	12.6637
5.6052	13.7682
5.5691	13.913
5.5334	13.9611
5.4982	15.564
5.4635	16.095
5.4291	16.7751
5.3952	18.1159
5.3618	19.0069
5.3287	19.6055
5.2961	19.8011
5.2638	20.1389
5.2319	20.2338
5.2004	20.2732
5.1693	20.6665
5.1386	20.9596
5.1082	21.0726
5.0782	21.1021
5.0485	21.3332
5.0192	21.3122
4.9902	21.3728
4.9616	21.2448
4.9332	21.1607
4.9052	20.7524
4.8776	20.299
4.8502	19.5938
4.8231	18.7891
4.7963	18.7665
4.7699	19.3418
4.7437	19.7031
4.7178	19.748
4.6922	20.0335
4.6668	19.9749
4.6418	20.0711
4.617	20.157
4.5924	20.6323
4.5681	21.0579
4.5441	21.444
4.5203	21.9172
4.4968	22.2094
4.4735	22.768
4.4505	23.2146
4.4277	23.6157
4.4051	24.1193
4.3828	24.5835
4.3607	25.0112
4.3388	25.4782
4.3171	25.8897
4.2956	26.456
4.2744	26.901
4.2534	26.8167
4.2325	27.0771
4.2119	26.4326
4.1915	25.9607
4.1712	25.1902
4.1512	24.9216
4.1313	24.6554
4.1117	24.8365
4.0922	25.6782
4.0729	26.4903
4.0538	27.1011
4.0349	27.6002
4.0161	27.7684
3.9976	27.5229
3.9792	26.9235
3.9609	26.3438
3.9428	26.0659
3.9249	26.2112
3.9072	26.8545
3.8896	27.565
3.8722	28.3755
3.8549	28.8542
3.8378	29.3332
3.8208	29.4828
3.804	29.5037
3.7873	29.3975
3.7708	29.2171
3.7544	28.7418
3.7382	28.0938
3.7221	27.5744
3.7061	27.1465
3.6903	26.5728
3.6746	26.2182
3.659	25.492
3.6436	24.9919
3.6283	24.2455
3.6131	23.5333
3.5981	22.711
3.5832	21.6314
3.5684	20.6877
3.5537	20.0747
3.5391	19.4986
3.5247	18.8301
3.5104	18.1888
3.4962	17.4636
3.4821	16.8118
3.4681	16.2439
3.4543	15.3947
3.4405	14.8032
3.4269	14.28
3.4133	13.6524
3.3999	13.0918
3.3866	12.4013
3.3733	11.9257
3.3602	11.4411
3.3472	10.864
3.3343	10.4383
3.3215	9.7839
3.3088	9.3394
3.2961	8.7104
3.2836	8.3551
3.2712	7.7293
3.2588	7.1827
3.2466	6.8461
3.2345	6.5084
3.2224	6.1535
3.2104	5.7853
3.1985	5.4959
3.1867	4.9957
3.175	4.8639
3.1634	4.5006
3.1519	4.388
3.1404	4.1155
3.129	3.9469
3.1178	3.7065
3.1065	3.355
3.0954	3.3593
3.0844	3.0031
3.0734	2.9309
3.0625	2.8581
3.0517	2.7453
3.041	2.64
3.0303	2.2917
3.0197	2.1154
3.0092	2.1389
2.9987	1.8524
2.9884	2.0618
2.9781	1.9682
2.9678	2.087
2.9577	1.9177
2.9476	1.7475
2.9376	1.706
2.9276	1.7978
2.9177	1.8396
2.9079	1.7838
2.8982	2.0225
2.8885	2.1311
2.8789	2.1963
2.8693	2.3816
2.8598	2.4577
2.8504	2.7155
2.841	2.8708
2.8317	2.8815
2.8224	3.1113
2.8133	3.6343
2.8041	3.6939
2.7951	4.1324
2.786	3.9226
2.7771	4.3547
2.7682	4.295
2.7594	4.9624
2.7506	5.3956
2.7418	6.2465
2.7332	8.4592
2.7246	10.749
2.716	14.5681
2.7075	17.8667
2.699	21.8684
2.6906	26.6128
2.6823	30.6114
2.674	33.4752
2.6657	33.9161
2.6575	38.4772
2.6494	40.5509
2.6413	41.6804
2.6332	42.203
2.6252	43.6906
2.6173	42.4787
2.6094	44.6621
2.6015	45.4497
2.5937	43.5406
2.5859	46.0486
2.5782	46.7257
2.5706	46.5859
2.5629	46.0606
2.5554	48.3093
2.5478	48.0782
2.5403	48.6942
2.5329	48.609
2.5255	49.2292
2.5181	49.5201
2.5108	49.7855
2.5035	50.1149
2.4963	50.5336
2.4891	51.043
2.482	51.4267
2.4749	51.8122
2.4678	52.0676
2.4608	52.2007
2.4538	52.5448
2.4468	52.6035
2.4399	52.7208
2.4331	52.8508
2.4262	53.0068
2.4194	53.2704
2.4127	53.4895
2.4059	53.6649
2.3993	54.1762
2.3926	54.6073
2.386	55.2617
2.3795	55.6677
2.3729	56.1522
2.3664	56.29
2.36	56.4103
2.3535	56.9937
2.3471	58.1991
2.3408	59.6318
2.3345	60.8049
2.3282	61.5714
2.3219	62.2332
2.3157	62.1732
2.3095	62.0589
2.3034	61.4406
2.2972	60.7085
2.2911	59.7615
2.2851	58.7075
2.279	57.6673
2.2731	56.9947
2.2671	57.1583
2.2612	57.8931
2.2553	59.3959
2.2494	60.9016
2.2435	62.0661
2.2377	63.1472
2.232	64.0152
2.2262	64.3828
2.2205	64.4765
2.2148	64.9712
2.2091	65.5419
2.2035	66.8182
2.1979	67.7975
2.1923	68.5844
2.1868	69.2554
2.1812	69.8094
2.1758	70.0684
2.1703	70.2852
2.1649	70.7424
2.1595	70.7194
2.1541	70.9235
2.1487	71.1669
2.1434	71.055
2.1381	71.2347
2.1328	71.0273
2.1275	70.9985
2.1223	70.7855
2.1171	70.5132
2.112	70.0424
2.1068	69.8733
2.1017	69.8133
2.0966	69.4954
2.0915	69.3574
2.0865	69.2245
2.0814	68.8807
2.0764	68.9384
2.0715	68.2668
2.0665	68.2048
2.0616	67.7669
2.0567	67.3795
2.0518	66.9033
2.0469	66.5882
2.0421	66.0287
2.0373	65.7991
2.0325	65.1438
2.0277	64.5678
2.0229	64.3812
2.0182	64.0616
2.0135	63.0341
2.0088	62.8562
2.0042	62.3626
