Name: Phlogopite KMg3Si3AlO10(F, OH)2
Type: Mineral
Class: Silicate
Subclass: Phyllosilicate
Particle Size: Fine
Sample No.: phlogop_2
Owner: JHU
Wavelength Range: TIR
Origin: Ontario, Canada via the Hunt and Salisbury Collection #23B
Description: This second sample of phlogopite also displayed the typical coppery luster of its micaceous sheets.  It appeared pure in hand sample and under the microscope.Particle size was Less than 2  Micrometers.(Sheet Silicates); (Mica Group) Original ASTER Spectral Library name was jhu.nicolet.mineral.silicate.phyllosilicate.powder.phlogo2.spectrum.txt
Measurement: Transmission
X Units: Wavelength (micrometers)
Y Units: Transmittance (percent)
wavelength	value
25.0442	61.078
24.3388	56.4061
23.6719	51.6327
23.0407	43.955
22.4422	33.6874
21.8741	27.0116
21.334	24.8456
20.8199	34.3769
20.33	42.4179
19.8627	48.5917
19.4163	53.0858
18.9896	60.8407
18.5812	68.9862
18.19	75.0789
17.815	78.9148
17.4551	81.0486
17.1094	81.156
16.7772	80.6365
16.4576	80.199
16.15	80.4275
15.8537	80.449
15.568	80.1248
15.2925	79.5076
15.0265	79.741
14.7697	79.367
14.5214	77.5105
14.2814	79.5662
14.0492	80.3728
13.8244	80.2913
13.6067	81.1682
13.3957	83.3636
13.1912	84.242
12.9929	85.0764
12.8004	86.5525
12.6135	86.3635
12.432	83.1521
12.2557	79.9085
12.0843	84.5857
11.9176	86.282
11.7555	84.6565
11.5977	83.4168
11.444	81.615
11.2944	78.7303
11.1487	73.678
11.0067	68.723
10.8682	64.5784
10.7332	58.9872
10.6015	51.1293
10.473	39.4691
10.3476	28.4765
10.2251	24.3173
10.1056	21.2714
9.9887	17.1372
9.8746	18.2197
9.763	25.9164
9.6539	33.7021
9.5472	41.223
9.4429	47.4027
9.3408	51.4007
9.2409	55.1195
9.1431	60.203
9.0474	66.9793
8.9536	72.9686
8.8618	76.8191
8.7718	79.7664
8.6837	82.1336
8.5973	84.1565
8.5126	85.9422
8.4295	87.5432
8.3481	88.907
8.2682	89.9705
8.1898	90.7178
8.1129	91.3777
8.0374	91.865
7.9634	92.249
7.8906	92.6719
7.8192	93.0007
7.7491	93.1799
7.6802	93.3953
7.6126	93.6482
7.5461	93.8513
7.4807	93.9265
7.4165	94.0684
7.3534	94.1033
7.2914	94.1018
7.2303	94.3655
7.1703	94.0645
7.1113	93.946
7.0533	93.782
6.9962	93.7546
6.94	93.8679
6.8847	94.0769
6.8302	94.249
6.7767	94.4168
6.7239	94.6133
6.672	94.7844
6.6209	94.9539
6.5705	95.1299
6.5209	95.1738
6.4721	95.2363
6.424	95.3591
6.3766	95.2764
6.3299	95.1931
6.2838	95.1179
6.2385	95.1016
6.1937	95.155
6.1496	94.623
6.1062	94.6729
6.0633	94.572
6.0211	94.2351
5.9794	94.4304
5.9383	94.957
5.8978	95.5469
5.8578	95.9023
5.8184	96.2307
5.7794	96.3494
5.741	96.4612
5.7031	96.4978
5.6657	96.6045
5.6288	96.7158
5.5924	96.7393
5.5564	96.7881
5.5209	96.8601
5.4859	96.8562
5.4513	96.9119
5.4171	97.0225
5.3833	97.0266
5.35	97.1367
5.3171	97.2295
5.2846	97.335
5.2524	97.4258
5.2207	97.4443
5.1893	97.448
5.1584	97.5166
5.1277	97.5635
5.0975	97.6123
5.0676	97.5906
5.038	97.5955
5.0088	97.655
4.98	97.6912
4.9514	97.7439
4.9232	97.741
4.8953	97.7361
4.8678	97.7424
4.8405	97.7405
4.8135	97.8069
4.7868	97.8093
4.7605	97.7537
4.7344	97.7781
4.7086	97.7444
4.6831	97.7942
4.6578	97.8337
4.6328	97.8479
4.6081	97.8581
4.5837	97.8747
4.5595	97.907
4.5356	97.8586
4.5119	97.845
4.4884	97.8323
4.4652	97.7893
4.4423	97.8381
4.4196	97.8162
4.3971	97.8137
4.3748	97.8074
4.3528	97.8088
4.331	97.8108
4.3094	97.762
4.288	97.7917
4.2668	97.824
4.2458	97.7991
4.2251	97.8083
4.2045	97.8147
4.1841	97.7873
4.164	97.7664
4.144	97.7932
4.1242	97.864
4.1046	97.8508
4.0852	97.7751
4.066	97.7869
4.047	97.8088
4.0281	97.8376
4.0094	97.8132
3.9909	97.7893
3.9725	97.7932
3.9544	97.822
3.9363	97.8181
3.9185	97.8445
3.9008	97.823
3.8833	97.8064
3.8659	97.7151
3.8487	97.6912
3.8316	97.6838
3.8147	97.719
3.7979	97.6716
3.7813	97.6199
3.7648	97.615
3.7485	97.532
3.7323	97.5085
3.7162	97.4275
3.7003	97.3401
3.6845	97.3445
3.6689	97.3337
3.6534	97.2815
3.638	97.2273
3.6227	97.154
3.6076	97.0769
3.5926	97.0354
3.5777	96.9763
3.563	96.9294
3.5484	96.8933
3.5338	96.7888
3.5195	96.6975
3.5052	96.803
3.491	96.6521
3.477	96.5662
3.463	96.4807
3.4492	96.4519
3.4355	96.4065
3.4219	96.4568
3.4084	96.2151
3.395	96.0706
3.3817	96.031
3.3685	95.9529
3.3554	95.7991
3.3425	95.7112
3.3296	95.5779
3.3168	95.5139
3.3041	95.4373
3.2915	95.3635
3.279	95.2092
3.2666	95.1912
3.2543	95.0432
3.2421	94.866
3.23	94.6389
3.218	94.5056
3.206	94.3967
3.1942	94.2659
3.1824	94.1428
3.1707	93.9841
3.1591	93.7576
3.1476	93.5896
3.1362	93.3699
3.1249	93.1853
3.1136	93.1375
3.1024	93.032
3.0913	92.8435
3.0803	92.655
3.0694	92.5515
3.0585	92.365
3.0477	92.1492
3.037	91.99
3.0264	91.9275
3.0158	91.8318
3.0053	91.6257
2.9949	91.8171
2.9845	92.0545
2.9743	92.2039
2.9641	92.6248
2.9539	92.9265
2.9439	93.2312
2.9339	93.322
2.9239	93.2693
2.9141	93.4695
2.9043	93.5369
2.8946	93.4539
2.8849	93.2166
2.8753	92.9353
2.8658	92.7029
2.8563	92.6414
2.8469	92.6541
2.8375	92.6306
2.8282	92.7029
2.819	92.7654
2.8098	92.6423
2.8007	92.4607
2.7917	92.4666
2.7827	92.3865
2.7738	92.2742
2.7649	92.2947
2.7561	92.5359
2.7473	92.742
2.7386	92.8455
2.7299	92.8005
2.7213	92.9119
2.7128	92.9724
2.7043	93.0437
2.6959	92.6179
2.6875	94.1814
2.6791	96.1169
2.6709	96.4138
2.6626	96.2771
2.6545	96.3318
2.6463	96.4226
2.6382	96.4031
2.6302	96.364
2.6222	96.4578
2.6143	96.4763
2.6064	96.324
2.5986	96.3015
2.5908	96.3904
2.583	96.5164
2.5753	96.4802
2.5677	96.2732
2.5601	96.1697
2.5525	96.2029
2.545	96.156
2.5375	96.2556
2.5301	96.2087
2.5227	96.0251
2.5154	96.0564
2.5081	96.2244
2.5008	96.1267
2.4936	96.1716
2.4864	96.2107
2.4793	96.1189
2.4722	95.9919
2.4651	95.8259
2.4581	95.8982
2.4511	95.8748
2.4442	95.8455
2.4373	95.7927
2.4305	95.7751
2.4236	95.8064
2.4169	95.738
2.4101	95.8435
2.4034	95.8611
2.3967	95.7615
2.3901	95.7205
2.3835	95.613
2.377	95.5642
2.3704	95.5037
2.364	95.6794
2.3575	95.6267
2.3511	95.6033
2.3447	95.5701
2.3384	95.5232
2.3321	95.322
2.3258	95.4763
2.3195	95.6501
2.3133	95.5466
2.3071	95.6091
2.301	95.6404
2.2949	95.5583
2.2888	95.533
2.2828	95.6091
2.2767	95.6736
2.2708	95.4373
2.2648	95.572
2.2589	95.6521
2.253	95.8767
2.2471	95.6873
2.2413	95.5701
2.2355	95.5798
2.2297	95.697
2.224	95.6638
2.2183	95.5896
2.2126	95.9998
2.207	95.7576
2.2013	95.8044
2.1957	95.7751
2.1902	95.9392
2.1846	95.8611
2.1791	95.6091
2.1736	95.8767
2.1682	95.9998
2.1628	96.1951
2.1574	96.3357
2.152	95.8474
2.1466	95.7927
2.1413	96.1208
2.136	95.8083
2.1308	96.0115
2.1255	96.2732
2.1203	96.156
2.1151	96.2537
2.11	96.1833
2.1048	96.0076
2.0997	96.2732
2.0946	96.5193
2.0895	96.4529
2.0845	96.5037
2.0795	96.3357
