Name: Scorodite Fe^3+AsO_4.2H_2O
Type: Mineral
Class: Arsenate
Subclass: None
Particle Size: Medium
Sample No.: A-2A
Owner: JPL
Wavelength Range: TIR
Origin: USA, Utah, Tooele County, Gold Hill
Description: Particle size was 45-125um.Collected by Ward's Original ASTER Spectral Library name was jpl.nicolet.mineral.arsenate.none.medium.a02a.spectrum.txt
Measurement: Hemispherical reflectance
X Units: Wavelength (micrometers)
Y Units: Reflectance (percent)
wavelength	value
15.3853	2.7115
15.1161	3.115
14.8563	3.1381
14.6052	3.5421
14.3624	3.9903
14.1276	4.6429
13.9004	4.5976
13.6803	4.7277
13.4671	4.6822
13.2604	5.5299
13.06	6.3894
12.8656	8.3682
12.6769	11.0164
12.4936	17.5969
12.3155	20.8554
12.1425	22.7207
11.9742	23.1513
11.8106	20.4495
11.6513	18.0596
11.4963	14.1386
11.3454	9.9276
11.1983	7.0376
11.0551	5.8838
10.9154	5.361
10.7793	3.8205
10.6465	1.8754
10.5169	0.9107
10.3904	0.6689
10.267	0.4538
10.1464	0.4747
10.0287	0.7598
9.9136	0.813
9.8012	0.8478
9.6913	0.999
9.5838	1.2224
9.4787	1.3265
9.3758	1.9213
9.2752	1.9615
9.1767	2.243
9.0803	2.0412
8.9858	2.1297
8.8934	2.1584
8.8028	2.1503
8.714	2.259
8.627	2.1162
8.5417	2.2783
8.4581	2.5367
8.3761	2.4976
8.2957	2.2606
8.2169	2.6248
8.1395	2.3777
8.0635	2.2123
7.989	2.1387
7.9158	1.9633
7.8439	2.1208
7.7734	2.0466
7.7041	2.0553
7.636	2.0754
7.5691	2.0986
7.5034	2.1363
7.4388	2.1107
7.3753	2.1438
7.3129	2.0654
7.2515	2.2387
7.1912	2.0892
7.1318	2.135
7.0734	2.1279
7.016	2.1701
6.9595	2.1404
6.9039	2.1388
6.8492	2.0268
6.7953	2.204
6.7423	2.0371
6.6901	2.0299
6.6387	2.2963
6.5881	2.0524
6.5382	2.0584
6.4892	2.1414
6.4408	2.0722
6.3931	2.1704
6.3462	2.095
6.2999	1.9026
6.2543	2.0031
6.2094	1.908
6.1651	1.9789
6.1214	2.0746
6.0784	2.1029
6.0359	2.1328
5.994	2.1608
5.9527	2.1549
5.912	2.2589
5.8718	2.3996
5.8322	2.4201
5.7931	2.3377
5.7545	2.4522
5.7165	2.7518
5.6789	2.7273
5.6418	2.8817
5.6052	2.825
5.5691	3.0669
5.5334	3.2367
5.4982	3.375
5.4635	3.4984
5.4291	3.6915
5.3952	3.7314
5.3618	3.7687
5.3287	3.7651
5.2961	3.8986
5.2638	3.8698
5.2319	3.8997
5.2004	3.9489
5.1693	3.9337
5.1386	3.9037
5.1082	3.8327
5.0782	3.7323
5.0485	3.664
5.0192	3.5321
4.9902	3.3969
4.9616	3.3605
4.9332	3.2758
4.9052	3.2662
4.8776	3.1458
4.8502	3.3815
4.8231	3.2126
4.7963	3.2361
4.7699	3.3059
4.7437	3.2005
4.7178	3.2109
4.6922	3.1895
4.6668	3.0097
4.6418	3.0827
4.617	3.0941
4.5924	2.9266
4.5681	2.9433
4.5441	2.9643
4.5203	2.8995
4.4968	2.9
4.4735	2.8278
4.4505	2.7683
4.4277	2.8818
4.4051	2.8876
4.3828	2.989
4.3607	2.9595
4.3388	2.9796
4.3171	3.0286
4.2956	2.8239
4.2744	3.1029
4.2534	2.9228
4.2325	2.9351
4.2119	3.0306
4.1915	2.9041
4.1712	2.9266
4.1512	2.8798
4.1313	2.9173
4.1117	2.9324
4.0922	2.9564
4.0729	2.9485
4.0538	2.9207
4.0349	2.8192
4.0161	2.8482
3.9976	2.7446
3.9792	2.8079
3.9609	2.9468
3.9428	2.7906
3.9249	2.7756
3.9072	2.8437
3.8896	2.9409
3.8722	2.7907
3.8549	2.8536
3.8378	2.838
3.8208	2.7494
3.804	2.7707
3.7873	2.8457
3.7708	2.7513
3.7544	2.7547
3.7382	2.8843
3.7221	2.7704
3.7061	2.8102
3.6903	2.7671
3.6746	2.8512
3.659	2.7606
3.6436	2.8278
3.6283	2.7503
3.6131	2.8786
3.5981	2.8327
3.5832	2.8362
3.5684	2.895
3.5537	2.8046
3.5391	2.9117
3.5247	2.9762
3.5104	2.8831
3.4962	2.9314
3.4821	2.9452
3.4681	3.0456
3.4543	3.0346
3.4405	2.9367
3.4269	3.1281
3.4133	3.1064
3.3999	3.061
3.3866	2.9342
3.3733	2.9441
3.3602	2.8813
3.3472	2.7901
3.3343	2.8413
3.3215	2.7655
3.3088	2.6215
3.2961	2.6153
3.2836	2.5313
3.2712	2.6012
3.2588	2.3624
3.2466	2.4126
3.2345	2.2955
3.2224	2.2882
3.2104	2.0829
3.1985	2.1267
3.1867	2.2371
3.175	2.0164
3.1634	2.0174
3.1519	2.1
3.1404	2.0751
3.129	1.9431
3.1178	1.9398
3.1065	1.9682
3.0954	1.7407
3.0844	1.956
3.0734	1.8551
3.0625	1.9986
3.0517	1.8338
3.041	1.8276
3.0303	1.9121
3.0197	1.9014
3.0092	1.7517
2.9987	1.763
2.9884	1.8944
2.9781	1.8605
2.9678	1.8092
2.9577	1.9606
2.9476	1.8626
2.9376	2.0822
2.9276	2.0111
2.9177	2.0956
2.9079	2.0565
2.8982	2.1652
2.8885	2.1375
2.8789	2.2043
2.8693	2.5133
2.8598	2.502
2.8504	2.6841
2.841	2.2038
2.8317	1.5769
2.8224	1.7789
2.8133	1.7067
2.8041	1.8614
2.7951	2.0774
2.786	2.0331
2.7771	2.3659
2.7682	2.4555
2.7594	2.9034
2.7506	3.2458
2.7418	3.5507
2.7332	4.1962
2.7246	4.723
2.716	5.0812
2.7075	5.3715
2.699	6.0001
2.6906	6.4942
2.6823	6.9913
2.674	7.507
2.6657	8.3107
2.6575	8.2341
2.6494	8.6358
2.6413	8.8583
2.6332	9.1495
2.6252	9.2194
2.6173	9.5231
2.6094	9.6073
2.6015	9.6355
2.5937	10.0413
2.5859	9.4728
2.5782	9.5192
2.5706	9.3162
2.5629	9.4311
2.5554	9.1058
2.5478	9.1288
2.5403	8.8129
2.5329	8.7192
2.5255	8.3263
2.5181	8.6995
2.5108	8.9294
2.5035	9.8404
2.4963	10.9704
2.4891	12.3462
2.482	13.5362
2.4749	14.3812
2.4678	15.6732
2.4608	16.3621
2.4538	17.1194
2.4468	17.6895
2.4399	18.2151
2.4331	18.8769
2.4262	19.3539
2.4194	19.8565
2.4127	20.707
2.4059	21.0516
2.3993	21.4277
2.3926	22.1581
2.386	22.2613
2.3795	22.8346
2.3729	23.1474
2.3664	23.3307
2.36	23.5475
2.3535	23.1855
2.3471	23.2695
2.3408	23.0649
2.3345	22.7808
2.3282	22.8346
2.3219	23.276
2.3157	23.7595
2.3095	24.5377
2.3034	25.2224
2.2972	26.1404
2.2911	26.4343
2.2851	26.8786
2.279	27.0394
2.2731	27.088
2.2671	27.0949
2.2612	27.2138
2.2553	27.1656
2.2494	27.0238
2.2435	27.0425
2.2377	26.6956
2.232	26.4327
2.2262	25.9645
2.2205	25.758
2.2148	25.355
2.2091	25.0591
2.2035	24.7641
2.1979	24.3431
2.1923	24.1963
2.1868	23.9889
2.1812	23.5582
2.1758	23.1264
2.1703	23.2278
2.1649	22.7467
2.1595	22.3579
2.1541	22.355
2.1487	22.2117
2.1434	21.8781
2.1381	21.6199
2.1328	21.4851
2.1275	21.3686
2.1223	20.9068
2.1171	20.7486
2.112	20.7743
2.1068	20.7862
2.1017	20.7146
2.0966	20.6197
2.0915	20.6652
2.0865	20.3378
2.0814	20.4445
2.0764	20.5274
2.0715	20.7047
2.0665	20.8212
2.0616	20.3269
2.0567	20.5211
2.0518	20.8235
2.0469	20.894
2.0421	21.0276
2.0373	21.1336
2.0325	20.9649
2.0277	20.7175
2.0229	20.3822
2.0182	20.2837
2.0135	19.7731
2.0088	18.9773
2.0042	18.1517
