Name: Trona Na_3(CO_3)(HCO_3).2H_2O
Type: Mineral
Class: Carbonate
Subclass: None
Particle Size: Coarse
Sample No.: C-4A
Owner: JPL
Wavelength Range: TIR
Origin: USA, Wyoming, Sweetwater County
Description: Particle size was 125-500um.Collected by Ward's Original ASTER Spectral Library name was jpl.nicolet.mineral.carbonate.none.coarse.c04a.spectrum.txt
Measurement: Hemispherical reflectance
X Units: Wavelength (micrometers)
Y Units: Reflectance (percent)
wavelength	value
15.3853	6.9419
15.1161	6.54
14.8563	4.2372
14.6052	3.6564
14.3624	1.3233
14.1276	1.4995
13.9004	1.5884
13.6803	2.1392
13.4671	2.7011
13.2604	2.9343
13.06	3.5913
12.8656	3.754
12.6769	3.9019
12.4936	4.0086
12.3155	4.007
12.1425	4.4058
11.9742	4.7492
11.8106	9.2471
11.6513	10.6768
11.4963	4.3212
11.3454	3.7931
11.1983	3.5361
11.0551	3.5262
10.9154	3.6623
10.7793	3.3943
10.6465	3.6558
10.5169	3.7262
10.3904	3.9511
10.267	3.7626
10.1464	3.9464
10.0287	4.0665
9.9136	3.8689
9.8012	3.8656
9.6913	3.7962
9.5838	3.1752
9.4787	4.1109
9.3758	4.287
9.2752	4.3788
9.1767	4.162
9.0803	4.2646
8.9858	4.1051
8.8934	4.2375
8.8028	4.1224
8.714	4.1815
8.627	4.2376
8.5417	4.4712
8.4581	4.7219
8.3761	4.4586
8.2957	4.5525
8.2169	4.3173
8.1395	4.0986
8.0635	3.7177
7.989	3.5599
7.9158	3.2684
7.8439	3.1511
7.7734	2.8561
7.7041	2.7569
7.636	2.7268
7.5691	2.6422
7.5034	2.5283
7.4388	2.4155
7.3753	2.3297
7.3129	2.3978
7.2515	2.2656
7.1912	2.1059
7.1318	2.1779
7.0734	2.1697
7.016	2.1045
6.9595	2.4474
6.9039	2.8235
6.8492	3.4422
6.7953	3.8356
6.7423	3.8008
6.6901	2.8273
6.6387	1.9264
6.5881	1.1172
6.5382	0.9546
6.4892	0.8411
6.4408	0.8323
6.3931	0.7684
6.3462	0.6323
6.2999	0.876
6.2543	0.7296
6.2094	0.9345
6.1651	1.0837
6.1214	1.2144
6.0784	1.2848
6.0359	1.4252
5.994	1.5004
5.9527	1.7455
5.912	1.7534
5.8718	1.8358
5.8322	1.7162
5.7931	1.6695
5.7545	1.5912
5.7165	1.3467
5.6789	1.1474
5.6418	1.0511
5.6052	1.0177
5.5691	0.9685
5.5334	0.8218
5.4982	0.9389
5.4635	0.8113
5.4291	0.8146
5.3952	0.8958
5.3618	0.7529
5.3287	0.9453
5.2961	0.8684
5.2638	0.9012
5.2319	0.928
5.2004	0.7664
5.1693	0.9007
5.1386	0.8706
5.1082	1.0037
5.0782	1.0051
5.0485	0.9253
5.0192	0.9367
4.9902	0.9567
4.9616	1.0063
4.9332	0.9175
4.9052	1.0517
4.8776	1.0003
4.8502	1.0326
4.8231	1.0416
4.7963	1.0223
4.7699	1.0564
4.7437	1.0399
4.7178	1.1157
4.6922	1.1373
4.6668	1.1403
4.6418	1.0728
4.617	1.2018
4.5924	1.1174
4.5681	1.0933
4.5441	1.2091
4.5203	1.1273
4.4968	1.2505
4.4735	1.1812
4.4505	1.1496
4.4277	1.2036
4.4051	1.2456
4.3828	1.1805
4.3607	1.1977
4.3388	1.2584
4.3171	1.3248
4.2956	1.2607
4.2744	1.3236
4.2534	1.3489
4.2325	1.4238
4.2119	1.2972
4.1915	1.301
4.1712	1.3306
4.1512	1.4333
4.1313	1.3389
4.1117	1.3017
4.0922	1.3433
4.0729	1.2981
4.0538	1.3441
4.0349	1.3416
4.0161	1.3424
3.9976	1.3559
3.9792	1.4932
3.9609	1.4917
3.9428	1.4533
3.9249	1.4236
3.9072	1.4508
3.8896	1.3667
3.8722	1.3602
3.8549	1.4343
3.8378	1.4182
3.8208	1.3269
3.804	1.4322
3.7873	1.552
3.7708	1.4715
3.7544	1.4472
3.7382	1.5055
3.7221	1.5879
3.7061	1.4837
3.6903	1.5571
3.6746	1.6382
3.659	1.6053
3.6436	1.654
3.6283	1.5238
3.6131	1.6182
3.5981	1.6072
3.5832	1.7185
3.5684	1.7316
3.5537	1.7429
3.5391	1.5339
3.5247	1.5606
3.5104	1.6521
3.4962	1.6523
3.4821	1.7573
3.4681	1.705
3.4543	1.733
3.4405	1.8496
3.4269	1.6602
3.4133	1.7259
3.3999	1.8187
3.3866	1.6634
3.3733	1.8376
3.3602	1.7287
3.3472	1.7855
3.3343	1.8494
3.3215	1.7316
3.3088	1.8411
3.2961	1.6792
3.2836	1.7573
3.2712	1.6288
3.2588	1.6517
3.2466	1.5598
3.2345	1.5885
3.2224	1.4377
3.2104	1.4239
3.1985	1.5298
3.1867	1.4563
3.175	1.4608
3.1634	1.5636
3.1519	1.4677
3.1404	1.4035
3.129	1.392
3.1178	1.2929
3.1065	1.5018
3.0954	1.3492
3.0844	1.4728
3.0734	1.471
3.0625	1.4438
3.0517	1.5485
3.041	1.3593
3.0303	1.6022
3.0197	1.4526
3.0092	1.6201
2.9987	1.5607
2.9884	1.6837
2.9781	1.7117
2.9678	1.5111
2.9577	1.767
2.9476	1.7599
2.9376	1.8083
2.9276	1.872
2.9177	2.0933
2.9079	1.8865
2.8982	2.4884
2.8885	2.3722
2.8789	2.2784
2.8693	1.7574
2.8598	1.6522
2.8504	1.4674
2.841	1.3834
2.8317	1.0745
2.8224	1.1516
2.8133	1.1077
2.8041	1.1888
2.7951	1.0051
2.786	1.0632
2.7771	1.1836
2.7682	1.2916
2.7594	1.3092
2.7506	1.3586
2.7418	1.5247
2.7332	1.3599
2.7246	1.5427
2.716	1.7572
2.7075	1.7666
2.699	1.8235
2.6906	2.0653
2.6823	2.1307
2.674	2.2402
2.6657	2.4263
2.6575	2.3966
2.6494	2.4573
2.6413	2.4332
2.6332	2.5206
2.6252	2.8504
2.6173	2.9553
2.6094	2.7557
2.6015	3.1843
2.5937	3.1275
2.5859	2.9237
2.5782	3.2239
2.5706	3.277
2.5629	3.3616
2.5554	3.3446
2.5478	3.5394
2.5403	3.5108
2.5329	3.479
2.5255	3.7906
2.5181	3.7605
2.5108	3.795
2.5035	3.7742
2.4963	3.7868
2.4891	3.7832
2.482	3.7859
2.4749	3.8353
2.4678	3.774
2.4608	3.9046
2.4538	3.8755
2.4468	3.6937
2.4399	3.9489
2.4331	4.011
2.4262	4.1159
2.4194	3.9172
2.4127	3.9404
2.4059	4.1032
2.3993	4.1675
2.3926	3.9341
2.386	4.1371
2.3795	4.3033
2.3729	4.3332
2.3664	4.6646
2.36	4.8161
2.3535	5.1124
2.3471	5.2263
2.3408	5.0933
2.3345	5.4841
2.3282	5.5017
2.3219	5.8208
2.3157	5.914
2.3095	6.1374
2.3034	6.2613
2.2972	6.3417
2.2911	6.4605
2.2851	6.7093
2.279	6.8258
2.2731	6.874
2.2671	6.9504
2.2612	6.9602
2.2553	6.8933
2.2494	7.0735
2.2435	7.1505
2.2377	6.9842
2.232	6.9866
2.2262	6.5968
2.2205	6.8439
2.2148	6.7373
2.2091	6.9497
2.2035	7.1531
2.1979	6.9717
2.1923	7.0005
2.1868	7.1727
2.1812	7.2188
2.1758	7.0903
2.1703	7.2311
2.1649	7.0618
2.1595	7.4129
2.1541	7.0827
2.1487	7.1949
2.1434	7.083
2.1381	7.215
2.1328	6.8917
2.1275	7.1917
2.1223	6.9274
2.1171	6.5612
2.112	6.4593
2.1068	6.3396
2.1017	6.653
2.0966	6.2443
2.0915	6.5084
2.0865	5.7243
2.0814	6.2314
2.0764	5.7588
2.0715	5.2795
2.0665	5.8396
2.0616	5.0426
2.0567	5.2509
2.0518	5.4399
2.0469	5.281
2.0421	5.6626
2.0373	5.2637
2.0325	5.205
2.0277	5.6163
2.0229	6.1083
2.0182	6.1729
2.0135	6.1259
2.0088	6.6471
2.0042	6.446
