Name: Prehnite Ca_2Al_2Si_3O_10(OH)_2
Type: Mineral
Class: Silicate
Subclass: Phyllosilicate
Particle Size: Coarse
Sample No.: PS-21A
Owner: JPL
Wavelength Range: VSWIR
Origin: USA, Virginia, Centerville
Description: Particle size was 125-500um.Collected by Burminco Original ASTER Spectral Library name was jpl.beckman.mineral.silicate.phyllosilicate.coarse.ps21a.spectrum.txt
Measurement: Hemispherical reflectance
X Units: Wavelength (micrometers)
Y Units: Reflectance (percent)
wavelength	value
0.4	61
0.403	61.44
0.406	61.35
0.409	61.4
0.412	60.86
0.415	60.13
0.418	59.2
0.421	58.27
0.424	57.73
0.427	57.44
0.43	58.29
0.433	60.46
0.436	62.8
0.439	64.89
0.442	66.57
0.445	68.22
0.448	69.66
0.451	70.39
0.454	71.27
0.457	71.92
0.46	72.31
0.463	72.84
0.466	73.28
0.469	73.65
0.472	74.16
0.475	74.43
0.478	74.68
0.481	74.9
0.484	75.1
0.487	75.36
0.49	75.43
0.493	75.57
0.496	75.67
0.499	75.95
0.502	76.05
0.505	76.13
0.508	76.24
0.511	76.4
0.514	76.33
0.517	76.46
0.52	76.4
0.523	76.36
0.526	76.3
0.529	76.26
0.532	76.28
0.535	76.15
0.538	76.02
0.541	75.81
0.544	75.76
0.547	75.73
0.55	75.64
0.553	75.39
0.556	75.24
0.559	75.05
0.562	75.32
0.565	74.93
0.568	74.66
0.571	74.57
0.574	74.21
0.577	74.04
0.58	73.97
0.583	73.56
0.586	73.58
0.589	73.48
0.592	73.64
0.595	73.4
0.598	73.19
0.601	73.33
0.604	73.32
0.607	73.3
0.61	73.27
0.613	73.29
0.616	73.27
0.619	73.28
0.622	73.3
0.625	73.43
0.628	73.34
0.631	73.45
0.634	73.54
0.637	73.61
0.64	73.61
0.643	73.7
0.646	73.72
0.649	73.93
0.652	74.09
0.655	74.08
0.658	74.25
0.661	74.38
0.664	74.5
0.667	74.55
0.67	74.72
0.673	74.76
0.676	74.93
0.679	75.03
0.682	75.01
0.685	75.26
0.688	75.31
0.691	75.44
0.694	75.58
0.697	75.68
0.7	75.64
0.703	75.81
0.706	75.87
0.709	75.92
0.712	76.24
0.715	76.26
0.718	76.26
0.721	76.18
0.724	76.26
0.727	76.44
0.73	76.4
0.733	76.49
0.736	76.41
0.739	76.35
0.742	76.69
0.745	76.59
0.748	76.3
0.751	76.26
0.754	76.24
0.757	76.42
0.76	76.34
0.763	76.06
0.766	76.03
0.769	75.97
0.772	75.98
0.775	75.89
0.778	75.65
0.781	75.58
0.784	75.47
0.787	75.66
0.79	75.54
0.793	75.38
0.796	75.19
0.799	75.3
0.808	75.04
0.82	74.58
0.832	73.88
0.844	73.47
0.856	73.11
0.868	72.85
0.88	72.4
0.892	72.07
0.904	71.87
0.916	71.55
0.928	71.51
0.94	71.57
0.952	71.46
0.964	71.31
0.976	71.09
0.988	70.82
1	70.12
1.012	69.84
1.024	71.8
1.036	72.61
1.048	73.03
1.06	73.45
1.072	73.88
1.084	74.24
1.096	74.43
1.108	74.64
1.12	75.1
1.132	75.17
1.144	75.24
1.156	75.25
1.168	75.55
1.18	75.74
1.192	75.86
1.204	76
1.216	76.13
1.228	76.43
1.24	76.43
1.252	76.21
1.264	75.31
1.276	71.62
1.288	71.63
1.3	71.34
1.312	73.93
1.324	74.67
1.336	75.75
1.348	75.88
1.36	75.55
1.372	75.16
1.384	74.32
1.396	72.51
1.408	70.71
1.42	66.92
1.432	60.84
1.444	58.3
1.456	50.68
1.468	26.95
1.48	35.13
1.492	49.2
1.504	62.31
1.516	68.4
1.528	70.8
1.54	71.79
1.552	72.57
1.564	73.4
1.576	73.78
1.588	73.58
1.6	73.68
1.612	73.48
1.624	73.85
1.636	73.92
1.648	73.98
1.66	73.78
1.672	73.45
1.684	73.06
1.696	72.3
1.708	71.53
1.72	70.31
1.732	69.2
1.744	68.8
1.756	69.16
1.768	69.76
1.78	70.06
1.792	69.77
1.804	68.38
1.816	65.86
1.828	63.54
1.84	62.71
1.852	61.78
1.864	58.35
1.876	55.31
1.888	54.62
1.9	53.61
1.912	53.94
1.924	54.1
1.936	54.74
1.948	56.21
1.96	57.37
1.972	58.32
1.984	58.29
1.996	57.8
2.008	57.59
2.02	57.88
2.032	58.37
2.044	58.72
2.056	58.71
2.068	58.59
2.08	58.05
2.092	56.81
2.104	55.69
2.116	54.61
2.128	53.69
2.14	52.43
2.152	51.15
2.164	49.42
2.176	47.17
2.188	43.83
2.2	36.99
2.212	27.96
2.224	21.93
2.236	21.81
2.248	24.28
2.26	23.81
2.272	21.52
2.284	21.19
2.296	21.18
2.308	17.08
2.32	11.61
2.332	8.79
2.344	8
2.356	7.83
2.368	8.49
2.38	9.18
2.392	10
2.404	11.42
2.416	13.59
2.428	15.61
2.44	16.65
2.452	16.18
2.464	15.18
2.476	14.36
2.488	13.58
2.5	12.76
