Name: Goethite a-Fe+3O(OH)
Type: Mineral
Class: Hydroxide
Subclass: None
Particle Size: Coarse
Sample No.: goethite_1
Owner: JHU
Wavelength Range: TIR
Origin: Sample from Montreal, Wisconsin via the Smithsonian(sample no. NMNH 152500).
Description: The sample consisted of a 4 cm x 2 cm x 2 cm cluster of light brown radiating acicular crystals weighing 10 g.  No impurities were observed in hand sample or under the microscope. Particle size was 74-250 Micrometers.(Goethite Group) Original ASTER Spectral Library name was jhu.nicolet.mineral.hydroxide.none.coarse.goethi1.spectrum.txt
Measurement: Bidirectional reflectance
X Units: Wavelength (micrometers)
Y Units: Reflectance (percent)
wavelength	value
25.0442	17.9309
24.3388	15.5019
23.6719	14.4604
23.0407	15.0632
22.4422	14.6748
21.8741	17.1223
21.334	17.8383
20.8199	17.1669
20.33	15.6262
19.8627	12.6259
19.4163	10.9343
18.9896	10.7448
18.5812	11.3364
18.19	11.6487
17.815	11.5874
17.4551	10.3335
17.1094	8.748
16.7772	7.7754
16.4576	7.2251
16.15	7.1113
15.8537	6.9765
15.568	6.5798
15.2925	5.7607
15.0265	4.5654
14.7697	3.2654
14.5214	2.4382
14.2814	2.5972
14.0492	2.8562
13.8244	3.1069
13.6067	3.3367
13.3957	3.5759
13.1912	3.9656
12.9929	4.4128
12.8004	5.0913
12.6135	6.3584
12.432	7.8371
12.2557	8.5039
12.0843	8.404
11.9176	7.0178
11.7555	4.8545
11.5977	3.9294
11.444	3.9289
11.2944	4.2471
11.1487	4.6631
11.0067	4.9802
10.8682	5.0957
10.7332	4.625
10.6015	3.3782
10.473	2.7253
10.3476	2.7642
10.2251	2.8525
10.1056	2.8994
9.9887	2.9602
9.8746	3.0266
9.763	3.0737
9.6539	3.1462
9.5472	3.2329
9.4429	3.2812
9.3408	3.3208
9.2409	3.3579
9.1431	3.3594
9.0474	3.3684
8.9536	3.3904
8.8618	3.408
8.7718	3.4424
8.6837	3.5137
8.5973	3.6423
8.5126	3.7449
8.4295	3.9082
8.3481	4.0615
8.2682	4.175
8.1898	4.3061
8.1129	4.4167
8.0374	4.5044
7.9634	4.6875
7.8906	4.9421
7.8192	5.1221
7.7491	5.1816
7.6802	5.2092
7.6126	5.396
7.5461	5.5249
7.4807	5.5788
7.4165	5.7566
7.3534	5.9548
7.2914	6.1011
7.2303	6.2431
7.1703	6.3489
7.1113	6.2793
7.0533	6.1172
6.9962	6.0749
6.94	6.1272
6.8847	6.1826
6.8302	6.1111
6.7767	6.0744
6.7239	6.1162
6.672	6.1975
6.6209	6.2524
6.5705	6.2309
6.5209	6.1418
6.4721	5.959
6.424	5.7158
6.3766	5.5464
6.3299	5.3682
6.2838	5.1697
6.2385	4.9316
6.1937	4.6721
6.1496	4.4353
6.1062	4.2268
6.0633	4.0471
6.0211	3.9023
5.9794	3.9304
5.9383	4.1269
5.8978	4.2871
5.8578	4.3806
5.8184	4.354
5.7794	4.3215
5.741	4.227
5.7031	4.1177
5.6657	4.0237
5.6288	3.9338
5.5924	3.8872
5.5564	3.8733
5.5209	3.9336
5.4859	4.0596
5.4513	4.2383
5.4171	4.4321
5.3833	4.5859
5.35	4.6814
5.3171	4.7107
5.2846	4.6938
5.2524	4.6352
5.2207	4.6013
5.1893	4.6008
5.1584	4.6133
5.1277	4.6399
5.0975	4.6467
5.0676	4.6389
5.038	4.6767
5.0088	4.6963
4.98	4.7209
4.9514	4.7624
4.9232	4.8059
4.8953	4.8437
4.8678	4.8904
4.8405	4.9348
4.8135	4.9648
4.7868	4.9919
4.7605	5.0303
4.7344	5.064
4.7086	5.0945
4.6831	5.126
4.6578	5.1506
4.6328	5.1787
4.6081	5.2056
4.5837	5.2295
4.5595	5.2344
4.5356	5.23
4.5119	5.2175
4.4884	5.2068
4.4652	5.1785
4.4423	5.1577
4.4196	5.1343
4.3971	5.1182
4.3748	5.1145
4.3528	5.116
4.331	5.1013
4.3094	5.073
4.288	5.0547
4.2668	5.0637
4.2458	5.0593
4.2251	5.0386
4.2045	5.0232
4.1841	4.9648
4.164	4.9148
4.144	4.8677
4.1242	4.8005
4.1046	4.7117
4.0852	4.6435
4.066	4.6006
4.047	4.5774
4.0281	4.5737
4.0094	4.5723
3.9909	4.5727
3.9725	4.5503
3.9544	4.5278
3.9363	4.499
3.9185	4.4719
3.9008	4.4299
3.8833	4.3972
3.8659	4.343
3.8487	4.3132
3.8316	4.2937
3.8147	4.2805
3.7979	4.2512
3.7813	4.2292
3.7648	4.1953
3.7485	4.1565
3.7323	4.1391
3.7162	4.1016
3.7003	4.0723
3.6845	4.0239
3.6689	3.9973
3.6534	3.9626
3.638	3.9473
3.6227	3.9285
3.6076	3.8872
3.5926	3.8862
3.5777	3.8823
3.563	3.8777
3.5484	3.8889
3.5338	3.8682
3.5195	3.8625
3.5052	3.8633
3.491	3.8608
3.477	3.855
3.463	3.8423
3.4492	3.833
3.4355	3.8442
3.4219	3.8435
3.4084	3.8406
3.395	3.813
3.3817	3.8032
3.3685	3.7969
3.3554	3.7771
3.3425	3.781
3.3296	3.7786
3.3168	3.782
3.3041	3.7834
3.2915	3.7861
3.279	3.7947
3.2666	3.7844
3.2543	3.7805
3.2421	3.739
3.23	3.7097
3.218	3.6138
3.206	3.54
3.1942	3.4319
3.1824	3.3191
3.1707	3.2493
3.1591	3.1748
3.1476	3.116
3.1362	3.0513
3.1249	3.0073
3.1136	2.9731
3.1024	2.9563
3.0913	2.9165
3.0803	2.9033
3.0694	2.9033
3.0585	2.8926
3.0477	2.8852
3.037	2.8928
3.0264	2.9084
3.0158	2.8967
3.0053	2.9138
2.9949	2.9126
2.9845	2.9419
2.9743	2.937
2.9641	2.9661
2.9539	2.9631
2.9439	3.0002
2.9339	3.0225
2.9239	3.0503
2.9141	3.0659
2.9043	3.1084
2.8946	3.1311
2.8849	3.176
2.8753	3.2329
2.8658	3.2659
2.8563	3.3303
2.8469	3.397
2.8375	3.4824
2.8282	3.5286
2.819	3.6045
2.8098	3.7217
2.8007	3.8071
2.7917	3.9436
2.7827	4.0825
2.7738	4.2639
2.7649	4.456
2.7561	4.6755
2.7473	4.9353
2.7386	5.2046
2.7299	5.5293
2.7213	5.8318
2.7128	6.1326
2.7043	6.3818
2.6959	6.6247
2.6875	6.8415
2.6791	7.0566
2.6709	7.2568
2.6626	7.4658
2.6545	7.6838
2.6463	7.8965
2.6382	8.0698
2.6302	8.1897
2.6222	8.3594
2.6143	8.5251
2.6064	8.6057
2.5986	8.706
2.5908	8.7929
2.583	8.8493
2.5753	8.8603
2.5677	8.821
2.5601	8.7722
2.5525	8.6172
2.545	8.4326
2.5375	8.2888
2.5301	8.1081
2.5227	8.0054
2.5154	7.9731
2.5081	7.9673
2.5008	7.998
2.4936	8.0273
2.4864	8.0835
2.4793	8.1477
2.4722	8.185
2.4651	8.2363
2.4581	8.258
2.4511	8.1987
2.4442	8.0876
2.4373	8.0141
2.4305	7.9446
2.4236	7.8808
2.4169	7.8769
2.4101	7.9492
2.4034	8.1714
2.3967	8.4131
2.3901	8.7014
2.3835	8.9355
2.377	9.2058
2.3704	9.3506
2.364	9.4411
2.3575	9.5249
2.3511	9.5979
2.3447	9.6367
2.3384	9.6631
2.3321	9.7185
2.3258	9.7468
2.3195	9.789
2.3133	9.8681
2.3071	9.875
2.301	9.9416
2.2949	9.958
2.2888	9.9599
2.2828	9.9248
2.2767	9.9404
2.2708	9.9734
2.2648	9.9929
2.2589	10.0044
2.253	10.0024
2.2471	10.0359
2.2413	10.1426
2.2355	10.2356
2.2297	10.2888
2.224	10.3105
2.2183	10.3862
2.2126	10.3918
2.207	10.4228
2.2013	10.4311
2.1957	10.4751
2.1902	10.48
2.1846	10.467
2.1791	10.5271
2.1736	10.5649
2.1682	10.5776
2.1628	10.5927
2.1574	10.6372
2.152	10.603
2.1466	10.5796
2.1413	10.6343
2.136	10.6128
2.1308	10.6704
2.1255	10.6277
2.1203	10.6655
2.1151	10.5854
2.11	10.605
2.1048	10.541
2.0997	10.5591
2.0946	10.5583
2.0895	10.4897
2.0845	10.5439
2.0795	10.4516
