Name: Galena PbS
Type: Mineral
Class: Sulfide
Subclass: None
Particle Size: Coarse
Sample No.: S-7A
Owner: JPL
Wavelength Range: VSWIR
Origin: USA, Kansas, Cherokee County, Galena.
Description: Particle size was 125-500um. Collected by:  Grieger's Inc. Original ASTER Spectral Library name was jpl.perkin.mineral.sulfide.none.coarse.s07a.spectrum.txt
Measurement: Hemispherical reflectance
X Units: Wavelength (micrometers)
Y Units: Reflectance (percent)
wavelength	value
2.5	13.1365
2.494	13.1937
2.488	13.0969
2.482	13.0689
2.476	13.1826
2.47	13.0564
2.464	13.1618
2.458	13.1326
2.452	13.157
2.446	13.0602
2.44	13.2186
2.434	13.2202
2.428	13.2486
2.422	13.1991
2.416	13.1691
2.41	13.1145
2.404	13.2166
2.398	13.1929
2.392	13.1826
2.386	13.2023
2.38	13.2774
2.374	13.188
2.368	13.2445
2.362	13.2941
2.356	13.2474
2.35	13.188
2.344	13.212
2.338	13.1893
2.332	13.1437
2.326	13.1544
2.32	13.1084
2.314	13.1679
2.308	13.1342
2.302	13.1374
2.296	13.1188
2.29	13.1127
2.284	13.0958
2.278	13.052
2.272	13.0508
2.266	13.0174
2.26	12.9744
2.254	13.0287
2.248	13.0629
2.242	13.0766
2.236	13.0143
2.23	12.9951
2.224	13.0002
2.218	12.9623
2.212	13.0229
2.206	13.1133
2.2	13.0068
2.194	13.0797
2.188	13.0467
2.182	13.1384
2.176	13.1728
2.17	13.1786
2.164	13.1996
2.158	13.1898
2.152	13.1972
2.146	13.2826
2.14	13.2021
2.134	13.226
2.128	13.2013
2.122	13.19
2.116	13.1949
2.11	13.1672
2.104	13.0796
2.098	13.0474
2.092	13.1349
2.086	13.1568
2.08	13.1802
2.074	13.2112
2.068	13.1726
2.062	13.1775
2.056	13.241
2.05	13.3097
2.044	13.2519
2.038	13.2569
2.032	13.2556
2.026	13.2684
2.02	13.294
2.014	13.3071
2.008	13.2691
2.002	13.3015
1.996	13.3011
1.99	13.2551
1.984	13.1655
1.978	13.2051
1.972	13.2382
1.966	13.1733
1.96	13.1088
1.954	13.0875
1.948	13.1978
1.942	13.1064
1.936	13.0888
1.93	13.0351
1.924	13.1124
1.918	13.0311
1.912	13.1277
1.906	13.1222
1.9	13.1573
1.894	13.2036
1.888	13.2038
1.882	13.2937
1.876	13.2621
1.87	13.1882
1.864	13.287
1.858	13.2668
1.852	13.3091
1.846	13.2738
1.84	13.3049
1.834	13.3152
1.828	13.3761
1.822	13.3278
1.816	13.3364
1.81	13.312
1.804	13.4004
1.798	13.3334
1.792	13.4038
1.786	13.3813
1.78	13.3113
1.774	13.3139
1.768	13.339
1.762	13.325
1.756	13.3225
1.75	13.2821
1.744	13.3152
1.738	13.3187
1.732	13.3267
1.726	13.3117
1.72	13.3248
1.714	13.305
1.708	13.2632
1.702	13.338
1.696	13.3522
1.69	13.3222
1.684	13.276
1.678	13.3111
1.672	13.3064
1.666	13.3485
1.66	13.2616
1.654	13.3496
1.648	13.3451
1.642	13.3906
1.636	13.3479
1.63	13.2653
1.624	13.3305
1.618	13.3275
1.612	13.3816
1.606	13.332
1.6	13.3795
1.594	13.3925
1.588	13.3279
1.582	13.4156
1.576	13.3352
1.57	13.3366
1.564	13.3749
1.558	13.3791
1.552	13.3757
1.546	13.4197
1.54	13.3985
1.534	13.3891
1.528	13.3918
1.522	13.4398
1.516	13.3888
1.51	13.3762
1.504	13.4498
1.498	13.4072
1.492	13.4041
1.486	13.454
1.48	13.3848
1.474	13.4308
1.468	13.4456
1.462	13.4001
1.456	13.4319
1.45	13.46
1.444	13.4478
1.438	13.4264
1.432	13.4307
1.426	13.5036
1.42	13.4053
1.414	13.4415
1.408	13.4731
1.402	13.5002
1.396	13.5147
1.39	13.4886
1.384	13.5451
1.378	13.5653
1.372	13.47
1.366	13.5078
1.36	13.6031
1.354	13.5262
1.348	13.5354
1.342	13.5022
1.336	13.4385
1.33	13.5239
1.324	13.517
1.318	13.476
1.312	13.5032
1.306	13.5008
1.3	13.53
1.294	13.5461
1.288	13.5331
1.282	13.4674
1.276	13.4832
1.27	13.572
1.264	13.4588
1.258	13.4868
1.252	13.5615
1.246	13.597
1.24	13.5528
1.234	13.5316
1.228	13.6006
1.222	13.5446
1.216	13.5875
1.21	13.5756
1.204	13.5531
1.198	13.5637
1.192	13.5192
1.186	13.557
1.18	13.5992
1.174	13.5244
1.168	13.5662
1.162	13.585
1.156	13.5479
1.15	13.6152
1.144	13.5781
1.138	13.6519
1.132	13.6273
1.126	13.5955
1.12	13.6394
1.114	13.6886
1.108	13.6697
1.102	13.5832
1.096	13.611
1.09	13.6566
1.084	13.5938
1.078	13.6035
1.072	13.6165
1.066	13.6502
1.06	13.651
1.054	13.6289
1.048	13.6194
1.042	13.7055
1.036	13.7123
1.03	13.7327
1.024	13.6646
1.018	13.6459
1.012	13.702
1.006	13.7395
1	13.7198
0.994	13.6598
0.988	13.6654
0.982	13.696
0.976	13.6846
0.97	13.7485
0.964	13.7552
0.958	13.7236
0.952	13.6993
0.946	13.6785
0.94	13.7051
0.934	13.716
0.928	13.7645
0.922	13.6636
0.916	13.6924
0.91	13.6735
0.904	13.7144
0.898	13.5971
0.892	13.5757
0.886	13.5407
0.88	13.5991
0.874	13.5588
0.868	13.564
0.862	13.415
0.856	13.9957
0.85	14.0038
0.844	14.0261
0.838	14.0337
0.832	14.0585
0.826	14.0615
0.82	14.0592
0.814	14.0938
0.808	14.0945
0.802	14.1035
0.796	14.1166
0.79	14.1286
0.784	14.1424
0.778	14.1433
0.772	14.1592
0.766	14.1781
0.76	14.1862
0.754	14.2127
0.748	14.2183
0.742	14.2443
0.736	14.2505
0.73	14.2727
0.724	14.2929
0.718	14.3131
0.712	14.3215
0.706	14.3349
0.7	14.3515
0.694	14.3703
0.688	14.3713
0.682	14.3686
0.676	14.3634
0.67	14.3458
0.664	14.3245
0.658	14.2888
0.652	14.2451
0.646	14.193
0.64	14.143
0.634	14.0756
0.628	14.0227
0.622	13.9687
0.616	13.9138
0.61	13.8726
0.604	13.8301
0.598	13.8077
0.592	13.7943
0.586	13.7807
0.58	13.7751
0.574	13.7769
0.568	13.7841
0.562	13.8036
0.556	13.8269
0.55	13.8473
0.544	13.8799
0.538	13.9217
0.532	13.9701
0.526	14.0267
0.52	14.0914
0.514	14.1749
0.508	14.2634
0.502	14.3609
0.496	14.4633
0.49	14.5731
0.484	14.6822
0.478	14.7815
0.472	14.8858
0.466	14.9897
0.46	15.1067
0.454	15.2257
0.448	15.343
0.442	15.4673
0.436	15.6055
0.43	15.7422
0.424	15.8843
0.418	16.0322
0.412	16.1924
0.406	16.3681
0.4	16.5366
