Name: Magnesiochromite MgCr_2O_4
Type: Mineral
Class: Oxide
Subclass: None
Particle Size: Coarse
Sample No.: O-8A
Owner: JPL
Wavelength Range: TIR
Origin: Canada, Quebec, Coleraine Township
Description: Particle size was 125-500um.Collected by Ward's Original ASTER Spectral Library name was jpl.nicolet.mineral.oxide.none.coarse.o08a.spectrum.txt
Measurement: Hemispherical reflectance
X Units: Wavelength (micrometers)
Y Units: Reflectance (percent)
wavelength	value
15.3853	35.0362
15.1161	35.3369
14.8563	33.4547
14.6052	30.908
14.3624	28.2733
14.1276	25.4755
13.9004	21.9269
13.6803	18.1588
13.4671	12.9339
13.2604	6.1553
13.06	1.737
12.8656	0.6431
12.6769	0.3285
12.4936	0.5578
12.3155	0.4271
12.1425	0.6727
11.9742	0.8312
11.8106	1.0899
11.6513	1.2597
11.4963	1.3434
11.3454	1.6107
11.1983	1.8246
11.0551	1.8026
10.9154	2.2504
10.7793	2.6255
10.6465	3.0008
10.5169	3.3083
10.3904	3.8432
10.267	3.7445
10.1464	3.9551
10.0287	4.3474
9.9136	4.876
9.8012	5.1911
9.6913	5.1959
9.5838	4.9427
9.4787	4.3374
9.3758	4.0704
9.2752	4.039
9.1767	3.6025
9.0803	3.7853
8.9858	3.7669
8.8934	3.8959
8.8028	3.9376
8.714	3.9185
8.627	3.8549
8.5417	4.1468
8.4581	4.3661
8.3761	4.8182
8.2957	5.4464
8.2169	5.9378
8.1395	5.9943
8.0635	6.0568
7.989	5.8728
7.9158	5.7905
7.8439	5.9876
7.7734	6.1133
7.7041	6.4402
7.636	6.6206
7.5691	7.2238
7.5034	7.7052
7.4388	8.1995
7.3753	8.6281
7.3129	8.9839
7.2515	9.4416
7.1912	10.0339
7.1318	10.5334
7.0734	11.0153
7.016	11.4772
6.9595	11.9957
6.9039	12.4382
6.8492	12.7102
6.7953	13.1526
6.7423	13.225
6.6901	13.4516
6.6387	13.7676
6.5881	13.9071
6.5382	14.0056
6.4892	14.3261
6.4408	14.4496
6.3931	14.4891
6.3462	14.6406
6.2999	14.5874
6.2543	14.6269
6.2094	14.6944
6.1651	14.5545
6.1214	14.7039
6.0784	14.8763
6.0359	15.1467
5.994	15.9849
5.9527	16.5019
5.912	16.9812
5.8718	17.7082
5.8322	18.2045
5.7931	18.5767
5.7545	19.149
5.7165	19.366
5.6789	19.6521
5.6418	19.9154
5.6052	20.0674
5.5691	20.2731
5.5334	20.3746
5.4982	20.4504
5.4635	20.6797
5.4291	20.8512
5.3952	20.9807
5.3618	21.1586
5.3287	21.1942
5.2961	21.3335
5.2638	21.2404
5.2319	21.309
5.2004	21.3334
5.1693	21.3188
5.1386	21.2149
5.1082	21.1275
5.0782	21.0184
5.0485	21.0061
5.0192	20.7442
4.9902	20.6346
4.9616	20.5006
4.9332	20.4468
4.9052	20.2433
4.8776	20.0568
4.8502	19.9076
4.8231	19.5699
4.7963	19.333
4.7699	19.0918
4.7437	18.8227
4.7178	18.393
4.6922	18.3378
4.6668	17.7947
4.6418	17.4602
4.617	17.1453
4.5924	16.6568
4.5681	16.2591
4.5441	15.7524
4.5203	15.3374
4.4968	14.8345
4.4735	14.488
4.4505	13.8566
4.4277	13.4479
4.4051	13.0235
4.3828	12.5047
4.3607	12.0204
4.3388	11.542
4.3171	11.0304
4.2956	10.6133
4.2744	10.229
4.2534	9.8932
4.2325	9.3099
4.2119	9.0768
4.1915	8.8592
4.1712	8.5203
4.1512	8.2979
4.1313	7.9203
4.1117	7.6761
4.0922	7.3752
4.0729	7.1943
4.0538	6.9718
4.0349	6.8881
4.0161	6.6436
3.9976	6.5734
3.9792	6.2117
3.9609	6.3087
3.9428	6.0442
3.9249	6.0369
3.9072	5.8384
3.8896	5.8476
3.8722	5.6708
3.8549	5.6826
3.8378	5.7232
3.8208	5.5607
3.804	5.5708
3.7873	5.3385
3.7708	5.463
3.7544	5.366
3.7382	5.3912
3.7221	5.2734
3.7061	5.2498
3.6903	5.2462
3.6746	5.2836
3.659	5.1267
3.6436	5.1284
3.6283	5.1271
3.6131	5.1239
3.5981	5.1699
3.5832	5.1465
3.5684	5.0854
3.5537	5.1443
3.5391	5.0673
3.5247	5.187
3.5104	5.0227
3.4962	5.0074
3.4821	4.9496
3.4681	5.125
3.4543	4.8957
3.4405	5.0122
3.4269	4.9067
3.4133	5.0236
3.3999	4.9055
3.3866	4.913
3.3733	5.0136
3.3602	4.8627
3.3472	4.9229
3.3343	4.9505
3.3215	4.9205
3.3088	4.8711
3.2961	4.9769
3.2836	4.9552
3.2712	5.0226
3.2588	4.8257
3.2466	4.8329
3.2345	4.9244
3.2224	4.9279
3.2104	4.9364
3.1985	4.8088
3.1867	4.7402
3.175	4.8136
3.1634	4.7365
3.1519	4.8811
3.1404	4.8695
3.129	4.811
3.1178	4.9599
3.1065	4.7747
3.0954	4.5959
3.0844	4.7166
3.0734	4.7232
3.0625	4.6239
3.0517	4.6693
3.041	4.4588
3.0303	4.5739
3.0197	4.4257
3.0092	4.5781
2.9987	4.5752
2.9884	4.4623
2.9781	4.5252
2.9678	4.5565
2.9577	4.4685
2.9476	4.4732
2.9376	4.4214
2.9276	4.5927
2.9177	4.4515
2.9079	4.5117
2.8982	4.5367
2.8885	4.5766
2.8789	4.4089
2.8693	4.3283
2.8598	4.4817
2.8504	4.3582
2.841	4.2413
2.8317	4.3731
2.8224	4.4498
2.8133	4.4051
2.8041	4.1162
2.7951	4.4802
2.786	4.6243
2.7771	4.2805
2.7682	4.2734
2.7594	4.5297
2.7506	4.4672
2.7418	4.4747
2.7332	4.3793
2.7246	4.3783
2.716	4.5282
2.7075	4.4928
2.699	4.686
2.6906	4.8269
2.6823	5.0841
2.674	5.0296
2.6657	5.0761
2.6575	5.0376
2.6494	5.1127
2.6413	5.1011
2.6332	4.9462
2.6252	4.9822
2.6173	4.9995
2.6094	4.8172
2.6015	4.9396
2.5937	5.1094
2.5859	4.7959
2.5782	5.0277
2.5706	4.9733
2.5629	5.1169
2.5554	4.8477
2.5478	4.7744
2.5403	4.9318
2.5329	5.1011
2.5255	4.9355
2.5181	5.0895
2.5108	4.8413
2.5035	4.9225
2.4963	4.9165
2.4891	4.9758
2.482	5.0594
2.4749	5.1377
2.4678	4.7893
2.4608	4.9703
2.4538	4.9466
2.4468	4.6346
2.4399	4.8195
2.4331	5.1249
2.4262	5.2456
2.4194	4.9243
2.4127	5.0202
2.4059	4.9075
2.3993	4.9534
2.3926	4.8405
2.386	5.0974
2.3795	4.9767
2.3729	4.888
2.3664	4.8582
2.36	4.7836
2.3535	4.9322
2.3471	4.7308
2.3408	4.9086
2.3345	4.7244
2.3282	4.8516
2.3219	4.9626
2.3157	4.6339
2.3095	4.9006
2.3034	5.0339
2.2972	4.9616
2.2911	5.0982
2.2851	4.7874
2.279	5.1749
2.2731	5.0216
2.2671	5.0289
2.2612	4.8457
2.2553	4.8087
2.2494	4.9011
2.2435	4.6666
2.2377	5.0481
2.232	4.8252
2.2262	4.9285
2.2205	5.2125
2.2148	4.9265
2.2091	5.1619
2.2035	5.0773
2.1979	4.9543
2.1923	5.1958
2.1868	5.0368
2.1812	5.0516
2.1758	5.07
2.1703	5.0115
2.1649	4.8641
2.1595	4.8427
2.1541	4.7904
2.1487	5.0598
2.1434	4.9219
2.1381	4.98
2.1328	5.0579
2.1275	4.9698
2.1223	5.2107
2.1171	4.8899
2.112	5.019
2.1068	4.7465
2.1017	5.1496
2.0966	4.6309
2.0915	4.6937
2.0865	5.0119
2.0814	5.0274
2.0764	5.0443
2.0715	4.395
2.0665	5.2681
2.0616	5.395
2.0567	5.3067
2.0518	4.4233
2.0469	5.2735
2.0421	4.9455
2.0373	5.0029
2.0325	5.3697
2.0277	5.1136
2.0229	4.9944
2.0182	5.0235
2.0135	5.0287
2.0088	4.9659
2.0042	4.9196
