Name: Eugsterite Na4Ca(SO4)3 * 2H2O
Type: Mineral
Class: Sulfate
Subclass: None
Particle Size: Coarse
Sample No.: Eugstec
Owner: USGS
Wavelength Range: All
Origin: Evaporation of Na2SO4 + CaSO4 solution at 70 deg. C
Description: Eugsterite, sample contained a small amount of gypsumSample was Unsieved coarse powder. Original ASTER Spectral Library name was usgs.perknic.mineral.sulfate.none.coarse.eugstec.spectrum.txt
Measurement: Directional Hemispherical Reflectance
X Units: Wavelength (micrometers)
Y Units: Reflectance (percent)
wavelength	value
13.9	3.306
13.644	3.821
13.398	4.079
13.16	4.326
12.93	4.388
12.708	4.769
12.494	5.49
12.287	6.52
12.086	7.468
11.892	8.374
11.704	8.992
11.522	8.827
11.346	8.219
11.175	9.229
11.009	9.352
10.848	8.992
10.691	8.477
10.539	7.818
10.391	6.952
10.247	5.809
10.108	4.717
9.972	4.707
9.839	5.068
9.71	5.078
9.585	4.8
9.462	4.316
9.343	4.254
9.226	4.532
9.113	5.531
9.002	8.662
8.894	12.72
8.789	14.162
8.686	13.452
8.585	13.04
8.487	13.957
8.391	12.381
8.297	9.373
8.205	3.409
8.115	1.607
8.027	0.865
7.941	0.618
7.857	0.577
7.774	0.649
7.694	0.845
7.614	1.102
7.537	1.432
7.461	1.669
7.387	1.792
7.314	2.585
7.242	3.203
7.172	3.059
7.103	2.575
7.036	3.78
6.97	3.945
6.905	5.449
6.841	5.521
6.778	4.182
6.717	5.15
6.657	6.468
6.597	7.54
6.539	8.992
6.482	9.6
6.426	7.272
6.37	6.757
6.316	5.933
6.263	5.263
6.21	3.955
6.159	4.429
6.108	5.078
6.058	6.664
6.009	7.715
5.96	7.045
5.913	8.353
5.866	11.989
5.82	15.1
5.775	16.542
5.73	17.974
5.686	19.817
5.643	22.608
5.6	25.05
5.558	26.275
5.517	27.058
5.476	27.851
5.436	31.147
5.396	33.526
5.357	34.845
5.319	35.514
5.281	35.875
5.243	36.071
5.206	36.081
5.17	35.772
5.134	34.938
5.099	34.031
5.064	33.053
5.03	31.94
4.996	30.436
4.962	28.737
4.929	26.543
4.897	23.824
4.865	20.023
4.833	15.079
4.802	8.127
4.771	2.894
4.74	3.028
4.71	4.604
4.68	6.026
4.651	6.242
4.622	7.519
4.593	5.995
4.565	6.242
4.537	11.804
4.509	7.756
4.482	6.685
4.455	6.633
4.428	6.87
4.402	7.797
4.376	8.395
4.35	7.684
4.325	10.115
4.3	12.834
4.275	16.593
4.251	20.312
4.226	24.998
4.202	26.162
4.179	27.985
4.155	30.014
4.132	31.858
4.109	33.506
4.086	34.639
4.064	35.772
4.042	37.132
4.02	38.12
3.998	38.8
3.977	39.284
3.956	39.676
3.935	40.18
3.914	40.531
3.893	40.5
3.873	40.489
3.853	39.624
3.833	39.676
3.813	39.562
3.794	38.986
3.774	38.852
3.755	39.294
3.736	39.614
3.717	39.49
3.699	38.893
3.68	38.254
3.662	37.667
3.644	37.08
3.626	36.493
3.609	35.803
3.591	34.958
3.574	33.846
3.557	32.703
3.54	31.302
3.523	29.973
3.506	27.439
3.49	27.316
3.473	26.533
3.457	25.719
3.441	24.318
3.425	22.217
3.409	21.486
3.394	21.249
3.378	20.054
3.363	19.395
3.348	18.54
3.333	17.51
3.318	16.748
3.303	15.687
3.288	14.78
3.274	13.843
3.259	12.854
3.245	11.814
3.231	11.103
3.217	10.475
3.203	9.816
3.189	9.105
3.176	8.498
3.162	7.921
3.149	7.375
3.135	6.849
3.122	6.417
3.109	5.964
3.096	5.624
3.083	5.335
3.07	5.078
3.058	4.893
3.045	4.759
3.033	4.553
3.02	4.656
3.008	4.491
2.996	4.429
2.984	4.481
2.972	4.408
2.96	4.326
2.948	4.347
2.937	4.264
2.925	4.429
2.913	4.697
2.902	4.934
2.891	4.985
2.879	5.469
2.868	5.737
2.857	6.077
2.846	6.479
2.835	6.922
2.825	7.159
2.814	7.704
2.803	7.993
2.793	8.395
2.782	8.848
2.772	10.187
2.761	11.876
2.751	14.358
2.741	17.634
2.731	21.197
2.721	25.008
2.711	28.469
2.701	31.466
2.691	34.567
2.681	37.132
2.672	39.274
2.662	40.695
2.653	42.24
2.643	43.414
2.634	44.826
2.624	45.433
2.615	46.587
2.606	47.349
2.597	47.638
2.588	47.967
2.579	47.586
2.57	47.267
2.561	47.04
2.552	46.196
2.543	45.608
2.535	44.939
2.526	44.239
2.517	43.476
2.509	42.92
2.5	42.446
2.486	42.426
2.472	43.225
2.458	44.149
2.444	45.564
2.43	47.296
2.416	49.486
2.402	51.661
2.388	53.402
2.374	54.838
2.36	56.093
2.346	57.323
2.332	58.009
2.318	58.662
2.304	58.945
2.29	59
2.276	58.984
2.262	58.924
2.248	58.578
2.234	58.294
2.22	57.973
2.206	57.853
2.192	57.916
2.178	58.065
2.164	58.314
2.15	58.224
2.136	57.665
2.122	56.867
2.108	55.979
2.094	55.257
2.08	54.672
2.066	54.382
2.052	53.851
2.038	53.095
2.024	51.617
2.01	49.495
1.996	46.913
1.982	45.228
1.968	43.937
1.954	43.361
1.94	42.604
1.926	43.925
1.912	49.739
1.898	55.789
1.884	59.105
1.87	60.824
1.856	61.338
1.842	61.489
1.828	61.418
1.814	61.344
1.8	61.096
1.786	61.112
1.772	61.114
1.758	61.202
1.744	61.563
1.73	61.941
1.716	61.903
1.702	61.742
1.688	61.807
1.674	61.738
1.66	61.674
1.646	61.386
1.632	61.328
1.618	61.199
1.604	61.166
1.59	61.035
1.576	60.783
1.562	60.922
1.548	60.706
1.534	60.532
1.52	60.361
1.506	60.113
1.492	59.603
1.478	59.425
1.464	59.216
1.45	58.699
1.436	58.716
1.422	59.746
1.408	61.045
1.394	61.909
1.38	62.34
1.366	62.435
1.352	62.434
1.338	62.442
1.324	62.655
1.31	62.769
1.296	62.564
1.282	62.827
1.268	62.673
1.254	62.364
1.24	62.346
1.226	62.409
1.212	62.544
1.198	62.238
1.184	62.423
1.17	62.28
1.156	62.419
1.142	62.464
1.128	62.316
1.114	62.323
1.1	62.297
1.086	62.241
1.072	62.313
1.058	62.241
1.044	62.144
1.03	62.118
1.016	61.986
1.002	62.035
0.988	61.874
0.974	61.793
0.96	61.762
0.946	61.711
0.932	61.69
0.918	61.394
0.904	61.268
0.89	61.281
0.876	61.189
0.862	61.608
0.848	60.704
0.834	60.639
0.82	60.699
0.806	60.714
0.792	60.741
0.778	60.719
0.764	60.754
0.75	60.701
0.736	60.68
0.722	60.62
0.708	60.502
0.694	60.399
0.68	60.347
0.666	60.335
0.652	60.293
0.638	60.228
0.624	60.165
0.61	60.137
0.596	60.103
0.582	59.972
0.568	59.828
0.554	59.611
0.54	59.35
0.526	59.007
0.512	58.606
0.498	58.193
0.484	57.604
0.47	57.222
0.456	56.786
0.442	55.952
0.428	55.018
0.414	54.168
0.4	53.357
