Name: Siderite Fe^2+CO_3
Type: Mineral
Class: Carbonate
Subclass: None
Particle Size: Coarse
Sample No.: C-9A
Owner: JPL
Wavelength Range: TIR
Origin: N/A
Description: Particle size was 125-500um.Collected by JPL Original ASTER Spectral Library name was jpl.nicolet.mineral.carbonate.none.coarse.c09a.spectrum.txt
Measurement: Hemispherical reflectance
X Units: Wavelength (micrometers)
Y Units: Reflectance (percent)
wavelength	value
15.3853	4.3998
15.1161	4.539
14.8563	4.5967
14.6052	4.6344
14.3624	4.7474
14.1276	4.1434
13.9004	4.1933
13.6803	4.5151
13.4671	3.238
13.2604	4.1153
13.06	5.22
12.8656	7.8123
12.6769	7.4984
12.4936	8.5348
12.3155	5.3501
12.1425	4.9315
11.9742	4.4764
11.8106	4.9046
11.6513	5.5652
11.4963	10.1532
11.3454	11.7352
11.1983	4.0242
11.0551	4.1939
10.9154	4.6715
10.7793	4.7326
10.6465	5.2606
10.5169	5.4168
10.3904	5.6811
10.267	6.0466
10.1464	6.3633
10.0287	6.6721
9.9136	7.0719
9.8012	7.5434
9.6913	8.2081
9.5838	9.0068
9.4787	10.8516
9.3758	15.4065
9.2752	19.1516
9.1767	19.7749
9.0803	19.9483
8.9858	19.9198
8.8934	19.5392
8.8028	18.4494
8.714	17.0765
8.627	13.2197
8.5417	17.309
8.4581	17.6023
8.3761	17.9224
8.2957	17.8778
8.2169	17.557
8.1395	15.0749
8.0635	11.4769
7.989	9.0632
7.9158	7.3993
7.8439	6.3064
7.7734	6.0461
7.7041	5.7619
7.636	5.782
7.5691	5.8149
7.5034	6.1522
7.4388	6.2318
7.3753	7.0375
7.3129	7.7656
7.2515	9.1324
7.1912	11.8319
7.1318	14.0344
7.0734	14.5909
7.016	14.8411
6.9595	15.1546
6.9039	15.7168
6.8492	16.3445
6.7953	17.4481
6.7423	18.9918
6.6901	21.858
6.6387	24.0746
6.5881	25.0096
6.5382	25.3361
6.4892	25.5353
6.4408	22.3628
6.3931	10.6804
6.3462	4.0766
6.2999	1.5783
6.2543	0.8155
6.2094	0.7305
6.1651	0.5739
6.1214	0.6237
6.0784	0.6268
6.0359	0.6792
5.994	0.9098
5.9527	0.8198
5.912	0.8596
5.8718	1.0353
5.8322	1.0657
5.7931	1.3367
5.7545	1.4675
5.7165	1.7
5.6789	1.5082
5.6418	1.4113
5.6052	1.4109
5.5691	1.4488
5.5334	1.3649
5.4982	1.395
5.4635	1.5106
5.4291	1.9631
5.3952	2.6701
5.3618	3.4524
5.3287	4.3246
5.2961	5.1921
5.2638	5.8899
5.2319	6.6844
5.2004	7.2879
5.1693	7.343
5.1386	6.632
5.1082	7.3315
5.0782	7.8655
5.0485	8.2044
5.0192	8.3414
4.9902	8.6973
4.9616	9.1648
4.9332	9.7229
4.9052	10.9444
4.8776	13.3158
4.8502	15.0731
4.8231	15.9756
4.7963	16.3305
4.7699	16.4737
4.7437	16.0038
4.7178	14.3578
4.6922	11.6683
4.6668	10.3376
4.6418	10.4022
4.617	11.3616
4.5924	12.5813
4.5681	13.3563
4.5441	13.4188
4.5203	12.7066
4.4968	11.8137
4.4735	11.3393
4.4505	11.7133
4.4277	12.1429
4.4051	12.6244
4.3828	13.1202
4.3607	13.7244
4.3388	13.6143
4.3171	12.5804
4.2956	11.2055
4.2744	9.8683
4.2534	10.4417
4.2325	11.1444
4.2119	11.6007
4.1915	11.4782
4.1712	11.2353
4.1512	10.936
4.1313	10.4679
4.1117	9.7968
4.0922	9.0907
4.0729	8.2017
4.0538	7.4505
4.0349	6.8289
4.0161	6.4912
3.9976	6.3066
3.9792	6.2653
3.9609	6.3903
3.9428	6.6662
3.9249	6.9871
3.9072	6.8793
3.8896	7.1139
3.8722	7.2216
3.8549	7.1818
3.8378	7.4706
3.8208	7.7513
3.804	8.3572
3.7873	9.4481
3.7708	11.2391
3.7544	12.3069
3.7382	12.8931
3.7221	13.2335
3.7061	13.6052
3.6903	13.5916
3.6746	13.4223
3.659	13.3743
3.6436	13.0658
3.6283	12.7716
3.6131	12.1301
3.5981	11.717
3.5832	11.0721
3.5684	10.4166
3.5537	9.6275
3.5391	9.0981
3.5247	8.4762
3.5104	8.1782
3.4962	8.0746
3.4821	8.0226
3.4681	8.0256
3.4543	8.0319
3.4405	8.2457
3.4269	8.2147
3.4133	8.1013
3.3999	8.2459
3.3866	8.2787
3.3733	8.2598
3.3602	8.3441
3.3472	8.3209
3.3343	8.5132
3.3215	9.2875
3.3088	10.4807
3.2961	11.6963
3.2836	13.4137
3.2712	14.5881
3.2588	15.8517
3.2466	16.7404
3.2345	17.6539
3.2224	17.9313
3.2104	18.2126
3.1985	18.2682
3.1867	18.1705
3.175	18.0347
3.1634	17.9033
3.1519	17.8808
3.1404	17.5215
3.129	17.3077
3.1178	16.737
3.1065	16.475
3.0954	16.3395
3.0844	16.1292
3.0734	16.3632
3.0625	16.5534
3.0517	16.7024
3.041	16.5687
3.0303	16.55
3.0197	16.5691
3.0092	16.2611
2.9987	16.3511
2.9884	16.3497
2.9781	16.2343
2.9678	15.6979
2.9577	15.5128
2.9476	15.5047
2.9376	15.5569
2.9276	15.7657
2.9177	15.8762
2.9079	15.8824
2.8982	16.4775
2.8885	16.9192
2.8789	16.8887
2.8693	16.8538
2.8598	18.0146
2.8504	18.3278
2.841	18.4987
2.8317	19.3564
2.8224	19.711
2.8133	20.0182
2.8041	20.2715
2.7951	20.9228
2.786	22.0375
2.7771	23.193
2.7682	24.8358
2.7594	26.9138
2.7506	28.8049
2.7418	31.1296
2.7332	33.6266
2.7246	37.0966
2.716	40.1765
2.7075	42.7883
2.699	44.3645
2.6906	46.8756
2.6823	48.989
2.674	50.2986
2.6657	51.4955
2.6575	51.387
2.6494	51.5632
2.6413	51.6003
2.6332	51.3932
2.6252	51.4598
2.6173	51.0181
2.6094	50.4534
2.6015	49.5907
2.5937	48.5194
2.5859	46.9519
2.5782	45.0098
2.5706	42.9249
2.5629	40.3237
2.5554	38.1987
2.5478	36.6144
2.5403	35.8304
2.5329	35.918
2.5255	36.2527
2.5181	36.8305
2.5108	37.6583
2.5035	38.4327
2.4963	39.2805
2.4891	40.1676
2.482	41.4109
2.4749	42.9389
2.4678	44.5234
2.4608	46.21
2.4538	47.9283
2.4468	49.5445
2.4399	50.7633
2.4331	51.7751
2.4262	52.8356
2.4194	53.3846
2.4127	53.855
2.4059	54.1393
2.3993	54.219
2.3926	54.0874
2.386	53.6083
2.3795	53.0299
2.3729	52.041
2.3664	50.8097
2.36	49.8567
2.3535	48.8196
2.3471	48.2978
2.3408	47.6993
2.3345	47.5377
2.3282	47.6666
2.3219	48.1592
2.3157	48.4576
2.3095	49.2375
2.3034	49.787
2.2972	50.5322
2.2911	51.2283
2.2851	52.0854
2.279	52.7401
2.2731	53.8325
2.2671	54.671
2.2612	55.7916
2.2553	56.5799
2.2494	57.1541
2.2435	57.8271
2.2377	58.5934
2.232	59.4348
2.2262	59.9309
2.2205	60.5362
2.2148	60.9907
2.2091	61.4532
2.2035	61.8108
2.1979	62.147
2.1923	62.3948
2.1868	62.5569
2.1812	62.8652
2.1758	62.5871
2.1703	63.0473
2.1649	63.1363
2.1595	63.0929
2.1541	63.0361
2.1487	63.2632
2.1434	63.3133
2.1381	63.7572
2.1328	63.9885
2.1275	64.1501
2.1223	64.1247
2.1171	64.2823
2.112	64.6148
2.1068	64.6776
2.1017	64.5121
2.0966	64.8487
2.0915	64.9524
2.0865	64.8842
2.0814	64.8025
2.0764	64.4303
2.0715	64.9112
2.0665	64.9863
2.0616	64.8976
2.0567	64.9059
2.0518	64.6775
2.0469	64.5483
2.0421	64.5557
2.0373	64.5935
2.0325	64.3223
2.0277	64.2235
2.0229	63.7667
2.0182	63.2003
2.0135	63.4319
2.0088	62.8406
2.0042	62.9892
