Name: Zoisite (var. tanzanite) Ca2Al3(SiO4)3(OH)
Type: Mineral
Class: Silicate
Subclass: none
Particle Size: Solid
Sample No.: zoisite_1
Owner: JHU
Wavelength Range: TIR
Origin: Arusha, Tanzania via the Smithsonian (sample no. NMNH126029)
Description: The sample consisted of five euhedral, violet-blue crystals, with some clay material and mica adhering to a few surfaces.  Each crystal was about 7 mm x 10 mm, with a total weight of 5.9 g.  After removal of the coating material and crushing, microscopic examination showed about 1% brown alteration material, but otherwise the sample appeared pure. Particle size was 001 cleavage face. Original ASTER Spectral Library name was jhu.nicolet.mineral.silicate.sorosilicate.solid.zoisit1.spectrum.txt
Measurement: Bidirectional reflectance
X Units: Wavelength (micrometers)
Y Units: Reflectance (percent)
wavelength	value
25.0442	48.5487
24.3388	47.1327
23.6719	28.4277
23.0407	25.79
22.4422	39.3983
21.8741	39.1708
21.334	31.5487
20.8199	30.7743
20.33	25.7739
19.8627	20.4086
19.4163	26.0092
18.9896	22.0263
18.5812	21.0978
18.19	25.6183
17.815	29.3117
17.4551	42.9601
17.1094	51.2118
16.7772	33.8241
16.4576	26.3798
16.15	30.4252
15.8537	29.6474
15.568	27.0966
15.2925	37.1459
15.0265	41.1251
14.7697	42.3309
14.5214	31.7748
14.2814	21.017
14.0492	21.4409
13.8244	20.342
13.6067	16.788
13.3957	16.1479
13.1912	18.4738
12.9929	15.1626
12.8004	16.2529
12.6135	15.0278
12.432	16.4267
12.2557	17.8969
12.0843	19.562
11.9176	20.663
11.7555	23.5424
11.5977	27.3066
11.444	22.8535
11.2944	26.6425
11.1487	34.6625
11.0067	40.7894
10.8682	36.0985
10.7332	32.33
10.6015	41.9579
10.473	51.8512
10.3476	61.0933
10.2251	61.6637
10.1056	55.264
9.9887	54.4418
9.8746	43.6661
9.763	31.0346
9.6539	20.5781
9.5472	15.4497
9.4429	12.7346
9.3408	13.5695
9.2409	15.9087
9.1431	20.3017
9.0474	36.5805
8.9536	40.6107
8.8618	47.014
8.7718	45.7865
8.6837	43.9784
8.5973	38.7235
8.5126	32.0038
8.4295	16.0371
8.3481	5.7495
8.2682	4.6416
8.1898	5.458
8.1129	6.2314
8.0374	6.8789
7.9634	7.436
7.8906	7.9446
7.8192	8.4221
7.7491	8.8818
7.6802	9.2512
7.6126	9.549
7.5461	9.8486
7.4807	10.0549
7.4165	10.2724
7.3534	10.4638
7.2914	10.6035
7.2303	10.7539
7.1703	10.8706
7.1113	11.029
7.0533	11.1052
6.9962	11.1709
6.94	11.2556
6.8847	11.3344
6.8302	11.3928
6.7767	11.4836
6.7239	11.5029
6.672	11.5566
6.6209	11.6216
6.5705	11.6321
6.5209	11.7038
6.4721	11.7529
6.424	11.7785
6.3766	11.8708
6.3299	11.9658
6.2838	12.0058
6.2385	12.0612
6.1937	12.0847
6.1496	12.1491
6.1062	12.1611
6.0633	12.2165
6.0211	12.2192
5.9794	12.2209
5.9383	12.1841
5.8978	12.2004
5.8578	12.2373
5.8184	12.175
5.7794	12.2837
5.741	12.4087
5.7031	12.459
5.6657	12.4575
5.6288	12.4409
5.5924	12.4702
5.5564	12.4651
5.5209	12.4887
5.4859	12.5127
5.4513	12.5293
5.4171	12.5429
5.3833	12.5669
5.35	12.5598
5.3171	12.5905
5.2846	12.5991
5.2524	12.6235
5.2207	12.6164
5.1893	12.6294
5.1584	12.6543
5.1277	12.6518
5.0975	12.6355
5.0676	12.6308
5.038	12.6423
5.0088	12.6132
4.98	12.6091
4.9514	12.5913
4.9232	12.5993
4.8953	12.6164
4.8678	12.603
4.8405	12.6147
4.8135	12.6108
4.7868	12.6245
4.7605	12.6333
4.7344	12.6601
4.7086	12.677
4.6831	12.6609
4.6578	12.6867
4.6328	12.7114
4.6081	12.6767
4.5837	12.6247
4.5595	12.622
4.5356	12.6289
4.5119	12.6367
4.4884	12.6455
4.4652	12.6318
4.4423	12.6318
4.4196	12.635
4.3971	12.6367
4.3748	12.6333
4.3528	12.6469
4.331	12.6538
4.3094	12.666
4.288	12.665
4.2668	12.6831
4.2458	12.6926
4.2251	12.6826
4.2045	12.6919
4.1841	12.7202
4.164	12.7151
4.144	12.7417
4.1242	12.7133
4.1046	12.7207
4.0852	12.7446
4.066	12.7417
4.047	12.7256
4.0281	12.7219
4.0094	12.7248
3.9909	12.7148
3.9725	12.7317
3.9544	12.7243
3.9363	12.7412
3.9185	12.7314
3.9008	12.7241
3.8833	12.7446
3.8659	12.7226
3.8487	12.728
3.8316	12.7285
3.8147	12.7324
3.7979	12.7339
3.7813	12.7324
3.7648	12.7426
3.7485	12.7363
3.7323	12.7299
3.7162	12.7392
3.7003	12.7309
3.6845	12.7231
3.6689	12.7185
3.6534	12.7158
3.638	12.7011
3.6227	12.6894
3.6076	12.687
3.5926	12.6655
3.5777	12.6899
3.563	12.6689
3.5484	12.6787
3.5338	12.6445
3.5195	12.6596
3.5052	12.6921
3.491	12.7263
3.477	12.7278
3.463	12.7094
3.4492	12.7404
3.4355	12.7392
3.4219	12.8198
3.4084	12.8415
3.395	12.8178
3.3817	12.8139
3.3685	12.882
3.3554	12.8327
3.3425	12.7971
3.3296	12.771
3.3168	12.7531
3.3041	12.7541
3.2915	12.7446
3.279	12.7287
3.2666	12.7158
3.2543	12.728
3.2421	12.7241
3.23	12.7492
3.218	12.7463
3.206	12.8022
3.1942	12.8371
3.1824	12.8925
3.1707	12.9482
3.1591	12.8264
3.1476	12.4856
3.1362	12.3056
3.1249	12.2719
3.1136	12.2951
3.1024	12.3401
3.0913	12.3496
3.0803	12.3332
3.0694	12.3283
3.0585	12.3076
3.0477	12.3007
3.037	12.2954
3.0264	12.2959
3.0158	12.2705
3.0053	12.2734
2.9949	12.2846
2.9845	12.29
2.9743	12.2822
2.9641	12.2522
2.9539	12.2658
2.9439	12.2675
2.9339	12.2356
2.9239	12.2151
2.9141	12.2082
2.9043	12.1963
2.8946	12.2033
2.8849	12.1831
2.8753	12.1867
2.8658	12.1975
2.8563	12.175
2.8469	12.1692
2.8375	12.1496
2.8282	12.1308
2.819	12.1201
2.8098	12.1279
2.8007	12.1064
2.7917	12.094
2.7827	12.0947
2.7738	12.0761
2.7649	12.0324
2.7561	12.0146
2.7473	12.039
2.7386	12.0014
2.7299	12.0117
2.7213	12.0063
2.7128	12.0102
2.7043	12.0063
2.6959	11.9424
2.6875	11.9736
2.6791	11.9321
2.6709	11.9536
2.6626	11.9394
2.6545	11.938
2.6463	11.9165
2.6382	11.9087
2.6302	11.8789
2.6222	11.9052
2.6143	11.8886
2.6064	11.8349
2.5986	11.9052
2.5908	11.8623
2.583	11.8466
2.5753	11.8379
2.5677	11.8833
2.5601	11.8559
2.5525	11.8657
2.545	11.8818
2.5375	11.8872
2.5301	11.8383
2.5227	11.8652
2.5154	11.8652
2.5081	11.8574
2.5008	11.9008
2.4936	11.8447
2.4864	11.8525
2.4793	11.8535
2.4722	11.8271
2.4651	11.7793
2.4581	11.8672
2.4511	11.8613
2.4442	11.8716
2.4373	11.8965
2.4305	11.83
2.4236	11.8847
2.4169	11.8691
2.4101	11.936
2.4034	11.9023
2.3967	11.9345
2.3901	11.9199
2.3835	11.9472
2.377	11.938
2.3704	11.9536
2.364	11.9824
2.3575	11.9765
2.3511	11.9785
2.3447	12.0205
2.3384	12.0019
2.3321	12.0019
2.3258	12.0097
2.3195	12.0508
2.3133	12.0117
2.3071	12.0693
2.301	12.0869
2.2949	12.0517
2.2888	12.1133
2.2828	12.0898
2.2767	12.1738
2.2708	12.1513
2.2648	12.1425
2.2589	12.1797
2.253	12.1543
2.2471	12.1679
2.2413	12.1787
2.2355	12.2246
2.2297	12.2343
2.224	12.2265
2.2183	12.2773
2.2126	12.2578
2.207	12.2158
2.2013	12.291
2.1957	12.3174
2.1902	12.2666
2.1846	12.2197
2.1791	12.3134
2.1736	12.3252
2.1682	12.3759
2.1628	12.3525
2.1574	12.3593
2.152	12.3486
2.1466	12.3125
2.1413	12.3457
2.136	12.3984
2.1308	12.3213
2.1255	12.4433
2.1203	12.3965
2.1151	12.3877
2.11	12.4228
2.1048	12.3203
2.0997	12.3838
2.0946	12.373
2.0895	12.4345
2.0845	12.3603
2.0795	12.3613
