Name: Natrojarosite NaFe_3^3+(SO_4)_2(OH)_6
Type: Mineral
Class: Sulfate
Subclass: None
Particle Size: Medium
Sample No.: SO-7C
Owner: JPL
Wavelength Range: TIR
Origin: USA, Utah, Tooele County, Gold Hill
Description: Particle size was 45-125um.Collected by Ward's Original ASTER Spectral Library name was jpl.nicolet.mineral.sulfate.none.medium.so07c.spectrum.txt
Measurement: Hemispherical reflectance
X Units: Wavelength (micrometers)
Y Units: Reflectance (percent)
wavelength	value
15.3853	0.8281
15.1161	0.428
14.8563	0.6424
14.6052	0.4394
14.3624	0.4128
14.1276	0.4208
13.9004	0.7656
13.6803	0.9225
13.4671	1.3462
13.2604	1.5711
13.06	1.7547
12.8656	1.5821
12.6769	1.6325
12.4936	1.541
12.3155	1.475
12.1425	1.5105
11.9742	1.9087
11.8106	2.0866
11.6513	2.25
11.4963	2.1083
11.3454	2.27
11.1983	2.6349
11.0551	2.7433
10.9154	3.2186
10.7793	3.5931
10.6465	4.2016
10.5169	4.1672
10.3904	4.3888
10.267	4.5373
10.1464	4.173
10.0287	3.7468
9.9136	4.0023
9.8012	4.9599
9.6913	4.7479
9.5838	2.4082
9.4787	0.8072
9.3758	1.561
9.2752	2.5744
9.1767	4.3
9.0803	6.6429
8.9858	6.9646
8.8934	5.3868
8.8028	3.3398
8.714	1.9815
8.627	1.4711
8.5417	1.4094
8.4581	1.3105
8.3761	1.728
8.2957	2.1381
8.2169	2.0869
8.1395	1.9063
8.0635	1.9362
7.989	2.1225
7.9158	2.7818
7.8439	3.4514
7.7734	4.4943
7.7041	5.5637
7.636	5.6725
7.5691	6.1312
7.5034	6.4557
7.4388	6.7469
7.3753	6.8812
7.3129	7.1116
7.2515	7.3203
7.1912	7.348
7.1318	7.306
7.0734	6.5289
7.016	5.9502
6.9595	7.0709
6.9039	8.3354
6.8492	9.1089
6.7953	9.7719
6.7423	10.9228
6.6901	12.4386
6.6387	13.7315
6.5881	14.2139
6.5382	14.286
6.4892	14.5897
6.4408	13.8675
6.3931	13.7796
6.3462	13.5327
6.2999	12.9098
6.2543	13.3536
6.2094	13.3549
6.1651	12.9822
6.1214	11.7597
6.0784	12.104
6.0359	12.7193
5.994	13.7043
5.9527	15.2047
5.912	16.164
5.8718	17.1279
5.8322	17.3436
5.7931	17.9835
5.7545	18.3372
5.7165	18.5829
5.6789	18.529
5.6418	18.9593
5.6052	18.6951
5.5691	19.2345
5.5334	19.9951
5.4982	21.1495
5.4635	22.4516
5.4291	23.3357
5.3952	23.9546
5.3618	24.474
5.3287	24.686
5.2961	24.8208
5.2638	24.3905
5.2319	24.027
5.2004	23.0755
5.1693	21.5705
5.1386	19.4073
5.1082	15.6758
5.0782	11.8128
5.0485	8.1158
5.0192	6.5195
4.9902	9.2809
4.9616	10.6293
4.9332	10.1862
4.9052	7.0723
4.8776	6.5521
4.8502	8.4677
4.8231	10.6387
4.7963	11.3175
4.7699	11.9386
4.7437	13.4021
4.7178	12.8531
4.6922	13.8008
4.6668	15.3877
4.6418	15.8878
4.617	16.2055
4.5924	16.6184
4.5681	16.5248
4.5441	16.479
4.5203	18.5516
4.4968	20.3587
4.4735	21.1191
4.4505	22.3769
4.4277	23.7725
4.4051	24.5647
4.3828	25.1387
4.3607	25.6295
4.3388	25.7984
4.3171	25.903
4.2956	25.8388
4.2744	26.1893
4.2534	27.2289
4.2325	27.4659
4.2119	28.4748
4.1915	29.1033
4.1712	29.4515
4.1512	29.6359
4.1313	29.7376
4.1117	29.629
4.0922	29.6926
4.0729	29.5149
4.0538	29.5142
4.0349	29.5029
4.0161	29.0141
3.9976	28.7317
3.9792	28.8046
3.9609	28.7956
3.9428	28.6126
3.9249	28.2138
3.9072	27.7826
3.8896	27.5044
3.8722	27.0556
3.8549	26.6624
3.8378	26.0993
3.8208	25.6647
3.804	25.2919
3.7873	24.8817
3.7708	24.2925
3.7544	23.9159
3.7382	23.4493
3.7221	22.7396
3.7061	22.3217
3.6903	21.7845
3.6746	21.3892
3.659	20.8097
3.6436	20.2883
3.6283	19.8119
3.6131	19.2426
3.5981	18.8451
3.5832	18.4202
3.5684	17.9594
3.5537	17.5949
3.5391	17.1939
3.5247	16.8317
3.5104	16.4847
3.4962	16.0628
3.4821	15.7206
3.4681	15.2356
3.4543	15.0329
3.4405	14.7997
3.4269	14.3852
3.4133	14.1107
3.3999	13.8279
3.3866	13.5077
3.3733	13.1691
3.3602	12.9057
3.3472	12.4519
3.3343	12.0455
3.3215	11.7914
3.3088	11.1807
3.2961	10.7922
3.2836	10.2296
3.2712	9.7459
3.2588	9.4203
3.2466	8.9418
3.2345	8.4637
3.2224	7.918
3.2104	7.5211
3.1985	6.8495
3.1867	6.5958
3.175	6.4633
3.1634	6.5157
3.1519	6.3029
3.1404	5.9663
3.129	5.5818
3.1178	5.4993
3.1065	5.2852
3.0954	5.0043
3.0844	4.6676
3.0734	4.3096
3.0625	3.733
3.0517	3.2807
3.041	2.9942
3.0303	2.8035
3.0197	2.6304
3.0092	2.4695
2.9987	2.3877
2.9884	2.2412
2.9781	2.2426
2.9678	1.4961
2.9577	1.3314
2.9476	1.082
2.9376	1.1391
2.9276	1.1173
2.9177	1.6122
2.9079	1.6824
2.8982	2.0361
2.8885	2.624
2.8789	3.4458
2.8693	4.3575
2.8598	5.4757
2.8504	6.4262
2.841	7.5694
2.8317	9.5551
2.8224	11.2626
2.8133	12.9168
2.8041	14.2821
2.7951	15.1675
2.786	17.287
2.7771	20.2218
2.7682	23.1314
2.7594	26.6969
2.7506	29.9887
2.7418	33.7041
2.7332	36.5438
2.7246	39.6947
2.716	41.3914
2.7075	43.5417
2.699	44.9054
2.6906	44.7087
2.6823	44.1382
2.674	43.6111
2.6657	43.9043
2.6575	41.8144
2.6494	40.4928
2.6413	39.1571
2.6332	37.4217
2.6252	36.8335
2.6173	37.3571
2.6094	37.6663
2.6015	39.2684
2.5937	42.218
2.5859	43.4021
2.5782	45.2906
2.5706	46.7071
2.5629	48.1873
2.5554	48.1374
2.5478	48.1563
2.5403	47.8563
2.5329	47.26
2.5255	46.1028
2.5181	44.8974
2.5108	45.5034
2.5035	48.1279
2.4963	50.3945
2.4891	51.7051
2.482	51.8651
2.4749	51.4105
2.4678	50.8099
2.4608	50.659
2.4538	51.7787
2.4468	53.4415
2.4399	54.9045
2.4331	55.2777
2.4262	55.454
2.4194	55.1189
2.4127	55.3425
2.4059	56.2296
2.3993	57.7094
2.3926	59.8549
2.386	62.0958
2.3795	64.0587
2.3729	65.5756
2.3664	66.8406
2.36	67.9065
2.3535	68.6546
2.3471	69.2723
2.3408	69.5603
2.3345	69.4319
2.3282	69.0752
2.3219	68.4053
2.3157	66.8272
2.3095	64.5153
2.3034	63.1666
2.2972	63.0865
2.2911	61.757
2.2851	58.893
2.279	55.7513
2.2731	54.0611
2.2671	53.5543
2.2612	54.2509
2.2553	57.3045
2.2494	60.1775
2.2435	61.5932
2.2377	62.4295
2.232	62.7969
2.2262	63.2592
2.2205	63.9545
2.2148	64.9171
2.2091	65.9418
2.2035	66.7751
2.1979	67.5753
2.1923	68.0869
2.1868	68.9427
2.1812	69.5623
2.1758	70.0016
2.1703	70.4132
2.1649	70.6682
2.1595	71.0361
2.1541	71.3076
2.1487	71.6747
2.1434	71.9643
2.1381	72.3514
2.1328	72.7289
2.1275	73.0235
2.1223	73.2193
2.1171	73.3876
2.112	73.3814
2.1068	74.0692
2.1017	74.3377
2.0966	74.224
2.0915	74.4671
2.0865	74.6987
2.0814	74.8158
2.0764	74.9512
2.0715	75.0883
2.0665	75.5512
2.0616	75.5076
2.0567	75.8832
2.0518	76.1821
2.0469	76.4312
2.0421	76.5876
2.0373	76.5478
2.0325	77.205
2.0277	77.3271
2.0229	77.4814
2.0182	77.6691
2.0135	77.9075
2.0088	77.8207
2.0042	78.0093
