Name: Tremolite Ca_2(Mg,Fe^2+)_5Si_8O_22(OH)_2
Type: Mineral
Class: Silicate
Subclass: Inosilicate
Particle Size: Medium
Sample No.: IN-5A
Owner: JPL
Wavelength Range: VSWIR
Description: Particle size was 45-125um.Collected by JPL Original ASTER Spectral Library name was jpl.beckman.mineral.silicate.inosilicate.medium.in05a.spectrum.txt
Measurement: Hemispherical reflectance
X Units: Wavelength (micrometers)
Y Units: Reflectance (percent)
wavelength	value
0.4	67.52
0.403	68
0.406	68.38
0.409	68.79
0.412	69.15
0.415	69.39
0.418	69.68
0.421	69.89
0.424	70.1
0.427	70.42
0.43	70.78
0.433	70.83
0.436	70.87
0.439	71.34
0.442	71.67
0.445	71.87
0.448	72.09
0.451	72.19
0.454	72.27
0.457	72.6
0.46	73.02
0.463	73.03
0.466	73.23
0.469	73.13
0.472	73.39
0.475	73.57
0.478	73.79
0.481	73.85
0.484	73.98
0.487	73.99
0.49	74.16
0.493	74.36
0.496	74.62
0.499	74.79
0.502	74.75
0.505	74.77
0.508	75.14
0.511	75.28
0.514	75.34
0.517	75.51
0.52	75.51
0.523	75.69
0.526	75.75
0.529	75.86
0.532	75.88
0.535	75.92
0.538	76.1
0.541	76.2
0.544	76.31
0.547	76.41
0.55	76.46
0.553	76.48
0.556	76.49
0.559	76.79
0.562	77.15
0.565	77.24
0.568	77.12
0.571	77.09
0.574	77.14
0.577	77.2
0.58	76.96
0.583	76.98
0.586	77.08
0.589	77.29
0.592	77.29
0.595	77.17
0.598	77.37
0.601	77.46
0.604	77.64
0.607	77.7
0.61	77.53
0.613	77.59
0.616	77.79
0.619	77.59
0.622	77.68
0.625	77.77
0.628	77.69
0.631	77.81
0.634	77.8
0.637	77.78
0.64	77.74
0.643	77.83
0.646	78.01
0.649	77.86
0.652	78.06
0.655	77.98
0.658	77.89
0.661	78.18
0.664	78.19
0.667	77.94
0.67	78.02
0.673	78.22
0.676	78.27
0.679	78.35
0.682	78.13
0.685	78.13
0.688	78.19
0.691	78.33
0.694	78.18
0.697	78.32
0.7	78.37
0.703	78.24
0.706	78.42
0.709	78.38
0.712	78.39
0.715	78.4
0.718	78.46
0.721	78.37
0.724	78.32
0.727	78.13
0.73	78.45
0.733	78.48
0.736	78.58
0.739	78.31
0.742	78.46
0.745	78.47
0.748	78.44
0.751	78.39
0.754	78.24
0.757	78.33
0.76	78.37
0.763	78.47
0.766	78.47
0.769	78.44
0.772	78.36
0.775	78.43
0.778	78.5
0.781	78.48
0.784	78.34
0.787	78.31
0.79	78.35
0.793	78.56
0.796	78.46
0.799	78.35
0.808	78.27
0.82	78.26
0.832	78.15
0.844	78
0.856	77.91
0.868	77.82
0.88	77.54
0.892	77.3
0.904	77.05
0.916	76.71
0.928	76.28
0.94	75.25
0.952	74.55
0.964	74.65
0.976	73.89
0.988	73.17
1	72.58
1.012	72.02
1.024	71.6
1.036	71.58
1.048	71.68
1.06	72.48
1.072	73.32
1.084	74.39
1.096	75.39
1.108	76.22
1.12	76.93
1.132	77.44
1.144	77.78
1.156	78.01
1.168	78.15
1.18	78.37
1.192	78.46
1.204	78.73
1.216	78.68
1.228	78.85
1.24	78.98
1.252	79
1.264	78.94
1.276	78.71
1.288	79.1
1.3	78.88
1.312	79.16
1.324	79.11
1.336	79.08
1.348	79.19
1.36	79.11
1.372	78.03
1.384	70.12
1.396	70.32
1.408	78.91
1.42	79.09
1.432	79.29
1.444	79.29
1.456	79.36
1.468	79.03
1.48	79.35
1.492	79.47
1.504	79.5
1.516	79.54
1.528	79.48
1.54	79.47
1.552	79.63
1.564	79.64
1.576	79.75
1.588	79.73
1.6	79.74
1.612	79.65
1.624	79.73
1.636	79.68
1.648	79.77
1.66	79.91
1.672	79.89
1.684	79.82
1.696	79.84
1.708	79.87
1.72	79.9
1.732	79.78
1.744	79.62
1.756	79.64
1.768	79.69
1.78	79.6
1.792	79.61
1.804	79.54
1.816	79.4
1.828	79.19
1.84	79
1.852	78.78
1.864	78.7
1.876	78.58
1.888	78.39
1.9	78.04
1.912	77.95
1.924	77.92
1.936	78.03
1.948	77.89
1.96	77.79
1.972	77.44
1.984	76.9
1.996	76.64
2.008	76.65
2.02	77.13
2.032	77.12
2.044	76.41
2.056	75.81
2.068	75.43
2.08	75.1
2.092	74.12
2.104	72.42
2.116	71.63
2.128	72.06
2.14	73.26
2.152	74.02
2.164	74.52
2.176	74.68
2.188	74.81
2.2	74.96
2.212	74.81
2.224	74.64
2.236	73.68
2.248	71.18
2.26	65.98
2.272	58.6
2.284	50.89
2.296	44.84
2.308	46.02
2.32	53.22
2.332	61.87
2.344	65.3
2.356	62.14
2.368	55.81
2.38	51.73
2.392	53.39
2.404	57.85
2.416	60.86
2.428	61.28
2.44	60.14
2.452	59.11
2.464	58.49
2.476	58.58
2.488	59.53
2.5	60.6
