Name: Dolomite CaMg(CO_3)_2
Type: Mineral
Class: Carbonate
Subclass: None
Particle Size: Fine
Sample No.: C-5A
Owner: JPL
Wavelength Range: VSWIR
Origin: USA, Colorado
Description: Red banded dolomite. Particle size was 0-45um.Collected by Ward's Original ASTER Spectral Library name was jpl.beckman.mineral.carbonate.none.fine.c05a.spectrum.txt
Measurement: Hemispherical reflectance
X Units: Wavelength (micrometers)
Y Units: Reflectance (percent)
wavelength	value
0.4	25.39
0.403	25.28
0.406	25.62
0.409	25.62
0.412	25.74
0.415	25.97
0.418	25.97
0.421	26.25
0.424	26.2
0.427	26.59
0.43	26.71
0.433	27.05
0.436	27.51
0.439	27.45
0.442	27.96
0.445	27.96
0.448	28.19
0.451	28.25
0.454	28.25
0.457	28.71
0.46	28.83
0.463	28.94
0.466	29.17
0.469	29.4
0.472	29.4
0.475	29.76
0.478	29.7
0.481	30.05
0.484	30.33
0.487	30.33
0.49	30.85
0.493	30.8
0.496	31.2
0.499	31.37
0.502	31.37
0.505	31.78
0.508	31.83
0.511	32.18
0.514	32.24
0.517	32.57
0.52	32.8
0.523	33.09
0.526	33.44
0.529	33.49
0.532	34.12
0.535	34.23
0.538	34.92
0.541	35.33
0.544	35.78
0.547	36.76
0.55	37.38
0.553	38.47
0.556	39.1
0.559	40.42
0.562	41.8
0.565	42.88
0.568	43.91
0.571	45.17
0.574	46.26
0.577	47.75
0.58	48.61
0.583	49.87
0.586	50.61
0.589	51.59
0.592	52.61
0.595	52.96
0.598	54.04
0.601	54.39
0.604	55.14
0.607	55.7
0.61	55.7
0.613	56.39
0.616	56.57
0.619	56.97
0.622	57.31
0.625	57.31
0.628	57.94
0.631	58.06
0.634	58.34
0.637	58.75
0.64	58.52
0.643	59.2
0.646	59.2
0.649	59.66
0.652	59.95
0.655	59.89
0.658	60.41
0.661	60.51
0.664	60.86
0.667	61.15
0.67	61.09
0.673	61.78
0.676	61.72
0.679	62.13
0.682	62.52
0.685	62.35
0.688	62.98
0.691	63.09
0.694	63.32
0.697	63.61
0.7	63.89
0.703	63.83
0.706	64.41
0.709	64.35
0.712	64.64
0.715	65.22
0.718	65.04
0.721	65.44
0.724	65.44
0.727	65.84
0.73	65.9
0.733	66.07
0.736	66.3
0.739	66.13
0.742	66.65
0.745	66.47
0.748	66.82
0.751	66.76
0.754	66.93
0.757	67.1
0.76	66.88
0.763	67.33
0.766	67.05
0.769	67.44
0.772	67.27
0.775	67.44
0.778	67.38
0.781	67.33
0.784	67.73
0.787	67.44
0.79	67.79
0.793	67.56
0.796	67.67
0.799	68.02
0.808	67.96
0.82	68.13
0.832	68.19
0.844	68.42
0.856	68.48
0.868	68.81
0.88	68.93
0.892	69.22
0.904	69.62
0.916	70.02
0.928	70.37
0.94	70.94
0.952	71.34
0.964	71.8
0.976	72.31
0.988	72.54
1	72.83
1.012	73
1.024	73
1.036	73.29
1.048	73.35
1.06	73.52
1.072	73.69
1.084	73.74
1.096	73.85
1.108	73.74
1.12	73.97
1.132	74.14
1.144	73.97
1.156	74.03
1.168	74.05
1.18	74.1
1.192	74.25
1.204	74.13
1.216	74.13
1.228	74.07
1.24	74.13
1.252	74.07
1.264	74.11
1.276	73.92
1.288	74.13
1.3	74.05
1.312	74.1
1.324	74.07
1.336	74.06
1.348	74.09
1.36	74.09
1.372	74.09
1.384	73.98
1.396	73.86
1.408	73.71
1.42	73.84
1.432	73.9
1.444	74.05
1.456	74.22
1.468	74.16
1.48	74.4
1.492	74.51
1.504	74.51
1.516	74.57
1.528	74.57
1.54	74.63
1.552	74.68
1.564	74.8
1.576	74.74
1.588	74.8
1.6	74.8
1.612	74.89
1.624	74.76
1.636	74.85
1.648	74.83
1.66	74.82
1.672	74.92
1.684	74.9
1.696	74.82
1.708	75.04
1.72	75.04
1.732	74.98
1.744	75.1
1.756	75.1
1.768	75.1
1.78	75.21
1.792	75.04
1.804	75.14
1.816	75.11
1.828	75.1
1.84	75.03
1.852	74.97
1.864	74.88
1.876	74.87
1.888	74.57
1.9	74.04
1.912	73.86
1.924	73.84
1.936	73.76
1.948	73.91
1.96	73.98
1.972	74.2
1.984	74.38
1.996	74.66
2.008	75.09
2.02	75.21
2.032	75.37
2.044	75.59
2.056	75.61
2.068	75.52
2.08	75.71
2.092	75.84
2.104	75.97
2.116	75.87
2.128	75.88
2.14	75.85
2.152	75.68
2.164	75.57
2.176	75.4
2.188	75
2.2	74.91
2.212	74.41
2.224	74.52
2.236	74.09
2.248	73.5
2.26	72.8
2.272	72.11
2.284	71.74
2.296	71.1
2.308	71.16
2.32	71.46
2.332	72.34
2.344	73.69
2.356	74.55
2.368	74.73
2.38	74.44
2.392	74.2
2.404	73.75
2.416	73.06
2.428	72.1
2.44	70.98
2.452	69.69
2.464	68.45
2.476	67.22
2.488	66.09
2.5	65.19
