Name: Fluorite CaF2
Type: Mineral
Class: Halide
Subclass: None
Particle Size: Fine
Sample No.: flourite_1
Owner: JHU
Wavelength Range: TIR
Origin: Donated by Norma Vergo; sample from Bingham, New Mexico.
Description: The sample was a large piece of a transparent single crystal and appeared to be pure fluorite. Particle size was less than 2  Micrometers. Original ASTER Spectral Library name was jhu.nicolet.mineral.halide.none.powder.flouri1.spectrum.txt
Measurement: Transmission
X Units: Wavelength (micrometers)
Y Units: Transmittance (percent)
wavelength	value
25.0442	54.2264
24.3388	55.3788
23.6719	57.8553
23.0407	63.828
22.4422	71.6443
21.8741	79.2029
21.334	84.6892
20.8199	88.3025
20.33	90.3689
19.8627	91.6492
19.4163	92.9226
18.9896	93.8201
18.5812	93.6677
18.19	93.6209
17.815	93.8396
17.4551	94.5486
17.1094	95.2478
16.7772	96.2185
16.4576	97.1072
16.15	97.7517
15.8537	98.3132
15.568	98.7527
15.2925	98.907
15.0265	98.5652
14.7697	98.4143
14.5214	98.3162
14.2814	98.3806
14.0492	98.3362
13.8244	98.2908
13.6067	98.1897
13.3957	98.199
13.1912	98.0935
12.9929	98.137
12.8004	98.0378
12.6135	97.8142
12.432	97.5662
12.2557	97.4499
12.0843	97.6233
11.9176	97.8357
11.7555	98.1467
11.5977	98.3884
11.444	98.7996
11.2944	99.1311
11.1487	99.5271
11.0067	100.016
10.8682	100.493
10.7332	101.062
10.6015	101.68
10.473	102.219
10.3476	102.52
10.2251	102.556
10.1056	102.701
9.9887	102.804
9.8746	102.78
9.763	102.648
9.6539	102.532
9.5472	102.156
9.4429	101.692
9.3408	101.261
9.2409	100.933
9.1431	100.861
9.0474	100.948
8.9536	101.137
8.8618	101.338
8.7718	101.252
8.6837	101.306
8.5973	101.32
8.5126	101.36
8.4295	101.363
8.3481	101.306
8.2682	101.299
8.1898	101.187
8.1129	101.115
8.0374	101.06
7.9634	100.989
7.8906	100.928
7.8192	100.854
7.7491	100.751
7.6802	100.688
7.6126	100.598
7.5461	100.544
7.4807	100.454
7.4165	100.403
7.3534	100.325
7.2914	100.306
7.2303	100.344
7.1703	100.273
7.1113	100.268
7.0533	100.058
6.9962	100.013
6.94	100.029
6.8847	99.9512
6.8302	99.8564
6.7767	99.7683
6.7239	99.7539
6.672	99.657
6.6209	99.5906
6.5705	99.3281
6.5209	99.4092
6.4721	99.2578
6.424	98.999
6.3766	99.043
6.3299	98.9119
6.2838	98.7578
6.2385	98.6182
6.1937	98.5322
6.1496	99.0095
6.1062	98.9678
6.0633	99.3584
6.0211	100.004
5.9794	99.9473
5.9383	99.6584
5.8978	99.7219
5.8578	99.8972
5.8184	99.6885
5.7794	99.8176
5.741	99.6453
5.7031	99.5039
5.6657	99.457
5.6288	99.3933
5.5924	99.3437
5.5564	99.2634
5.5209	99.2385
5.4859	99.2158
5.4513	99.1887
5.4171	99.0915
5.3833	99.125
5.35	99.032
5.3171	99.0654
5.2846	99.0461
5.2524	99.0549
5.2207	99.0115
5.1893	99.0022
5.1584	98.9805
5.1277	98.9509
5.0975	98.9101
5.0676	98.8816
5.038	98.8503
5.0088	98.7976
4.98	98.7663
4.9514	98.7275
4.9232	98.7002
4.8953	98.6863
4.8678	98.6638
4.8405	98.6426
4.8135	98.6565
4.7868	98.6345
4.7605	98.6394
4.7344	98.6318
4.7086	98.6084
4.6831	98.5781
4.6578	98.5691
4.6328	98.6035
4.6081	98.5986
4.5837	98.5976
4.5595	98.6038
4.5356	98.5393
4.5119	98.5305
4.4884	98.5144
4.4652	98.4875
4.4423	98.469
4.4196	98.4514
4.3971	98.4421
4.3748	98.406
4.3528	98.3953
4.331	98.3704
4.3094	98.3581
4.288	98.3533
4.2668	98.28
4.2458	98.3186
4.2251	98.2771
4.2045	98.2322
4.1841	98.197
4.164	98.1936
4.144	98.1863
4.1242	98.178
4.1046	98.1389
4.0852	98.1306
4.066	98.0984
4.047	98.0657
4.0281	98.0559
4.0094	98.03
3.9909	98.0354
3.9725	97.9958
3.9544	97.9734
3.9363	97.9407
3.9185	97.9358
3.9008	97.8967
3.8833	97.8777
3.8659	97.8435
3.8487	97.8318
3.8316	97.8147
3.8147	97.7849
3.7979	97.7659
3.7813	97.7356
3.7648	97.7331
3.7485	97.7292
3.7323	97.717
3.7162	97.6916
3.7003	97.6638
3.6845	97.6414
3.6689	97.6218
3.6534	97.5974
3.638	97.5901
3.6227	97.5681
3.6076	97.5745
3.5926	97.5427
3.5777	97.5281
3.563	97.5486
3.5484	97.5124
3.5338	97.5095
3.5195	97.5203
3.5052	97.4768
3.491	97.4612
3.477	97.4246
3.463	97.4314
3.4492	97.4436
3.4355	97.4612
3.4219	97.4519
3.4084	97.3923
3.395	97.3811
3.3817	97.3953
3.3685	97.3894
3.3554	97.3787
3.3425	97.3904
3.3296	97.404
3.3168	97.3967
3.3041	97.3772
3.2915	97.4001
3.279	97.3498
3.2666	97.3479
3.2543	97.2893
3.2421	97.3269
3.23	97.3201
3.218	97.3284
3.206	97.3069
3.1942	97.2908
3.1824	97.2366
3.1707	97.2151
3.1591	97.1956
3.1476	97.1448
3.1362	97.1013
3.1249	97.0276
3.1136	96.9534
3.1024	96.9031
3.0913	96.8249
3.0803	96.7361
3.0694	96.6892
3.0585	96.5867
3.0477	96.5476
3.037	96.405
3.0264	96.2439
3.0158	96.114
3.0053	95.9216
2.9949	95.6804
2.9845	95.4373
2.9743	95.073
2.9641	94.657
2.9539	94.3171
2.9439	94.0759
2.9339	93.9978
2.9239	93.9109
2.9141	93.8162
2.9043	93.822
2.8946	93.9578
2.8849	94.1169
2.8753	94.3064
2.8658	94.5173
2.8563	94.7742
2.8469	94.9021
2.8375	94.9959
2.8282	95.0173
2.819	94.988
2.8098	95.0876
2.8007	95.1794
2.7917	95.4304
2.7827	95.6521
2.7738	95.9265
2.7649	96.0242
2.7561	95.9587
2.7473	96.2146
2.7386	95.9382
2.7299	96.0984
2.7213	95.9158
2.7128	95.8923
2.7043	95.7078
2.6959	95.4841
2.6875	95.4265
2.6791	95.2156
2.6709	94.95
2.6626	95.1072
2.6545	94.9968
2.6463	95.0359
2.6382	94.9763
2.6302	94.6541
2.6222	94.7625
2.6143	94.6658
2.6064	94.5242
2.5986	94.6414
2.5908	94.532
2.583	94.3015
2.5753	94.3357
2.5677	94.2781
2.5601	94.1931
2.5525	94.2537
2.545	94.1726
2.5375	94.1677
2.5301	94.0994
2.5227	94.0154
2.5154	93.9412
2.5081	93.8982
2.5008	93.822
2.4936	93.7302
2.4864	93.6892
2.4793	93.7498
2.4722	93.6052
2.4651	93.5544
2.4581	93.4959
2.4511	93.5584
2.4442	93.4998
2.4373	93.5115
2.4305	93.3904
2.4236	93.3318
2.4169	93.3474
2.4101	93.2185
2.4034	93.2009
2.3967	93.199
2.3901	93.1814
2.3835	93.0955
2.377	93.0584
2.3704	93.1033
2.364	93.0408
2.3575	93.033
2.3511	93.033
2.3447	93.0154
2.3384	93.0076
2.3321	92.9841
2.3258	92.9529
2.3195	92.8748
2.3133	92.8787
2.3071	92.8611
2.301	92.9763
2.2949	92.9177
2.2888	92.8982
2.2828	92.9138
2.2767	92.9529
2.2708	92.8435
2.2648	92.8826
2.2589	92.8748
2.253	92.8923
2.2471	92.8787
2.2413	92.8845
2.2355	92.908
2.2297	92.9763
2.224	93.1052
2.2183	92.9314
2.2126	92.9763
2.207	93.1033
2.2013	93.0877
2.1957	93.0466
2.1902	92.9861
2.1846	92.9939
2.1791	93.0466
2.1736	93.1326
2.1682	93.1189
2.1628	93.2439
2.1574	93.1794
2.152	93.1365
2.1466	93.2615
2.1413	93.1873
2.136	93.1951
2.1308	93.3005
2.1255	93.2732
2.1203	93.1755
2.1151	93.4373
2.11	93.3669
2.1048	93.2849
2.0997	93.3552
2.0946	93.3005
2.0895	93.4216
2.0845	93.3357
2.0795	93.3513
