Name: Quartz SiO2
Type: Mineral
Class: Silicate
Subclass: Tectosilicate
Particle Size: Coarse
Sample No.: quartz_2
Owner: JHU
Wavelength Range: TIR
Origin: Rock Springs, Arkansas via Hunt and Salisbury Collection#32B (purchased from Ward's Natural Science Establishment);
Description: No solid sample was available, but the powdered sample grains were crystal clear under the microscope and the sample appeared very pure quartz; pure quartz according to XRD analysis and within the limits of microprobe error. Particle size was 75 - 250  Micrometers. (Silica Group) Original ASTER Spectral Library name was jhu.nicolet.mineral.silicate.tectosilicate.coarse.quartz2.spectrum.txt
Measurement: Bidirectional reflectance
X Units: Wavelength (micrometers)
Y Units: Reflectance (percent)
wavelength	value
25.0442	6.186
24.3388	3.1741
23.6719	3.8608
23.0407	4.5776
22.4422	5.9746
21.8741	8.605
21.334	9.9077
20.8199	11.3991
20.33	12.8779
19.8627	13.1457
19.4163	8.365
18.9896	6.2639
18.5812	6.5115
18.19	6.7488
17.815	3.7017
17.4551	2.2698
17.1094	2.6274
16.7772	2.8579
16.4576	2.8794
16.15	2.8054
15.8537	2.8401
15.568	2.7158
15.2925	2.7273
15.0265	2.6531
14.7697	2.561
14.5214	2.5552
14.2814	2.0034
14.0492	2.2983
13.8244	2.4724
13.6067	2.5286
13.3957	2.6247
13.1912	2.7424
12.9929	3.2268
12.8004	4.8406
12.6135	3.6831
12.432	4.0786
12.2557	1.1765
12.0843	1.6396
11.9176	1.9399
11.7555	2.1338
11.5977	2.3057
11.444	2.3872
11.2944	2.4951
11.1487	2.5647
11.0067	2.6465
10.8682	2.6726
10.7332	2.7432
10.6015	2.7961
10.473	2.8638
10.3476	2.9365
10.2251	3.0608
10.1056	3.1909
9.9887	3.4014
9.8746	3.6731
9.763	4.0298
9.6539	4.5693
9.5472	5.3581
9.4429	7.1421
9.3408	11.5083
9.2409	13.8086
9.1431	14.2778
9.0474	14.5346
8.9536	14.6779
8.8618	14.6355
8.7718	14.1135
8.6837	12.9257
8.5973	11.1462
8.5126	14.2668
8.4295	14.2849
8.3481	14.0371
8.2682	14.0359
8.1898	13.7729
8.1129	12.1479
8.0374	10.5859
7.9634	9.4983
7.8906	7.9485
7.8192	6.7905
7.7491	6.4038
7.6802	5.6194
7.6126	4.2551
7.5461	2.9626
7.4807	1.3596
7.4165	0.3108
7.3534	0.1091
7.2914	0.2126
7.2303	0.3611
7.1703	0.5107
7.1113	0.7019
7.0533	0.8157
6.9962	0.9707
6.94	1.1204
6.8847	1.1746
6.8302	1.127
6.7767	1.05
6.7239	0.9639
6.672	1.019
6.6209	1.0569
6.5705	0.9856
6.5209	1.1003
6.4721	1.625
6.424	1.8455
6.3766	1.562
6.3299	1.2686
6.2838	1.0334
6.2385	0.9414
6.1937	0.9387
6.1496	1.1145
6.1062	1.4363
6.0633	1.6414
6.0211	1.6025
5.9794	1.3699
5.9383	1.2375
5.8978	1.4197
5.8578	1.772
5.8184	2.1528
5.7794	2.4995
5.741	2.7998
5.7031	2.875
5.6657	2.2707
5.6288	1.5476
5.5924	1.3757
5.5564	1.3896
5.5209	1.5791
5.4859	1.8782
5.4513	2.064
5.4171	1.647
5.3833	1.1763
5.35	1.0774
5.3171	1.0845
5.2846	1.1243
5.2524	1.3022
5.2207	1.7683
5.1893	2.0049
5.1584	1.9231
5.1277	1.8525
5.0975	1.7939
5.0676	1.5847
5.038	1.5549
5.0088	1.5503
4.98	1.6899
4.9514	2.1992
4.9232	2.6179
4.8953	4.0452
4.8678	5.8
4.8405	6.8638
4.8135	7.5608
4.7868	8.1096
4.7605	8.511
4.7344	8.7658
4.7086	8.6299
4.6831	7.8179
4.6578	8.5578
4.6328	9.373
4.6081	9.8508
4.5837	10.0193
4.5595	9.8711
4.5356	9.1977
4.5119	8.0774
4.4884	7.1816
4.4652	6.9197
4.4423	7.3911
4.4196	7.7761
4.3971	8.3323
4.3748	9.051
4.3528	9.6609
4.331	9.9983
4.3094	9.9953
4.288	9.9194
4.2668	10.1631
4.2458	10.2556
4.2251	10.2168
4.2045	10.2392
4.1841	10.3259
4.164	10.5293
4.144	10.6797
4.1242	10.8745
4.1046	11.1013
4.0852	11.3325
4.066	11.4692
4.047	11.5002
4.0281	11.4533
4.0094	11.4543
3.9909	11.4953
3.9725	11.6091
3.9544	11.7695
3.9363	11.8955
3.9185	11.9682
3.9008	11.9438
3.8833	11.8381
3.8659	11.747
3.8487	11.7248
3.8316	11.7773
3.8147	11.8586
3.7979	11.8906
3.7813	11.8567
3.7648	11.7649
3.7485	11.6972
3.7323	11.7175
3.7162	11.83
3.7003	12.0139
3.6845	12.2202
3.6689	12.3767
3.6534	12.4934
3.638	12.5617
3.6227	12.5742
3.6076	12.602
3.5926	12.6357
3.5777	12.6989
3.563	12.7688
3.5484	12.8349
3.5338	12.9001
3.5195	12.9367
3.5052	12.8903
3.491	12.9922
3.477	13.0576
3.463	13.1059
3.4492	13.0898
3.4355	13.0361
3.4219	12.8715
3.4084	12.9218
3.395	13.04
3.3817	13.0319
3.3685	13.0915
3.3554	13.1894
3.3425	13.2173
3.3296	13.2221
3.3168	13.2207
3.3041	13.2055
3.2915	13.1921
3.279	13.1882
3.2666	13.1801
3.2543	13.1657
3.2421	13.177
3.23	13.1591
3.218	13.1401
3.206	13.1433
3.1942	13.1125
3.1824	13.1098
3.1707	13.0678
3.1591	13.0439
3.1476	12.9968
3.1362	12.8632
3.1249	12.8369
3.1136	12.8733
3.1024	12.9321
3.0913	12.9211
3.0803	12.9121
3.0694	12.882
3.0585	12.8073
3.0477	12.7251
3.037	12.6115
3.0264	12.5593
3.0158	12.562
3.0053	12.6025
2.9949	12.6594
2.9845	12.6726
2.9743	12.5288
2.9641	12.1804
2.9539	12.2026
2.9439	12.4204
2.9339	12.5315
2.9239	12.5586
2.9141	12.5561
2.9043	12.6438
2.8946	12.761
2.8849	12.8139
2.8753	12.7805
2.8658	12.8244
2.8563	12.9272
2.8469	12.9575
2.8375	12.9929
2.8282	13.0405
2.819	13.071
2.8098	13.0854
2.8007	13.0974
2.7917	13.1118
2.7827	13.1111
2.7738	13.1714
2.7649	13.1496
2.7561	13.1975
2.7473	13.2177
2.7386	13.2812
2.7299	13.2846
2.7213	13.3457
2.7128	13.3567
2.7043	13.3789
2.6959	13.4597
2.6875	13.4687
2.6791	13.5068
2.6709	13.5446
2.6626	13.5156
2.6545	13.487
2.6463	13.4721
2.6382	13.4748
2.6302	13.4797
2.6222	13.458
2.6143	13.4445
2.6064	13.434
2.5986	13.4497
2.5908	13.446
2.583	13.4485
2.5753	13.4018
2.5677	13.395
2.5601	13.4026
2.5525	13.3784
2.545	13.3591
2.5375	13.3476
2.5301	13.3354
2.5227	13.3388
2.5154	13.3369
2.5081	13.3354
2.5008	13.2915
2.4936	13.3181
2.4864	13.2905
2.4793	13.2854
2.4722	13.2617
2.4651	13.2524
2.4581	13.2878
2.4511	13.237
2.4442	13.2216
2.4373	13.2436
2.4305	13.1943
2.4236	13.1867
2.4169	13.2297
2.4101	13.2102
2.4034	13.2031
2.3967	13.1684
2.3901	13.1792
2.3835	13.1831
2.377	13.1836
2.3704	13.1992
2.364	13.1674
2.3575	13.1601
2.3511	13.2055
2.3447	13.1709
2.3384	13.1225
2.3321	13.125
2.3258	13.1284
2.3195	13.1626
2.3133	13.145
2.3071	13.1728
2.301	13.146
2.2949	13.1303
2.2888	13.1533
2.2828	13.1201
2.2767	13.1557
2.2708	13.143
2.2648	13.1384
2.2589	13.1355
2.253	13.1606
2.2471	13.1391
2.2413	13.1645
2.2355	13.2173
2.2297	13.1587
2.224	13.1865
2.2183	13.2104
2.2126	13.2251
2.207	13.2121
2.2013	13.1775
2.1957	13.2226
2.1902	13.2509
2.1846	13.2407
2.1791	13.2597
2.1736	13.2981
2.1682	13.2888
2.1628	13.2812
2.1574	13.3173
2.152	13.2727
2.1466	13.2685
2.1413	13.3232
2.136	13.3606
2.1308	13.3813
2.1255	13.3567
2.1203	13.4326
2.1151	13.3977
2.11	13.3947
2.1048	13.4292
2.0997	13.498
2.0946	13.5332
2.0895	13.5527
2.0845	13.5676
2.0795	13.5522
