Name: Rhodochrosite MnCO_3
Type: Mineral
Class: Carbonate
Subclass: None
Particle Size: Coarse
Sample No.: C-8A
Owner: JPL
Wavelength Range: TIR
Origin: USA, Montana, Silver Bow County, Butte
Description: Particle size was 125-500um.Collected by Ward's Original ASTER Spectral Library name was jpl.nicolet.mineral.carbonate.none.coarse.c08a.spectrum.txt
Measurement: Hemispherical reflectance
X Units: Wavelength (micrometers)
Y Units: Reflectance (percent)
wavelength	value
15.3853	4.9707
15.1161	5.2147
14.8563	5.4938
14.6052	5.3744
14.3624	5.108
14.1276	4.5268
13.9004	4.0859
13.6803	2.4174
13.4671	3.2655
13.2604	4.7636
13.06	6.406
12.8656	6.9827
12.6769	7.4718
12.4936	8.1805
12.3155	8.1019
12.1425	7.6068
11.9742	5.6107
11.8106	5.7628
11.6513	6.8337
11.4963	13.0863
11.3454	12.8158
11.1983	5.026
11.0551	5.4408
10.9154	5.7473
10.7793	6.1383
10.6465	5.8837
10.5169	6.0006
10.3904	6.3308
10.267	6.6309
10.1464	6.5568
10.0287	6.5865
9.9136	6.4617
9.8012	5.6082
9.6913	5.8802
9.5838	6.7387
9.4787	6.9215
9.3758	8.4743
9.2752	9.414
9.1767	8.8554
9.0803	9.5447
8.9858	9.6066
8.8934	9.5801
8.8028	9.2903
8.714	8.2065
8.627	6.9422
8.5417	7.8857
8.4581	8.237
8.3761	8.2555
8.2957	8.6824
8.2169	8.818
8.1395	8.5244
8.0635	7.6278
7.989	6.9923
7.9158	6.7198
7.8439	6.6745
7.7734	6.7362
7.7041	6.7575
7.636	7.0547
7.5691	7.3607
7.5034	7.7262
7.4388	8.3707
7.3753	9.1172
7.3129	10.2428
7.2515	12.1425
7.1912	14.7544
7.1318	20.3623
7.0734	20.6976
7.016	20.9899
6.9595	22.0794
6.9039	23.0431
6.8492	24.4659
6.7953	26.4626
6.7423	28.6138
6.6901	32.6059
6.6387	36.1635
6.5881	37.2606
6.5382	37.9143
6.4892	39.2598
6.4408	31.5691
6.3931	13.2326
6.3462	4.8045
6.2999	2.1096
6.2543	1.0659
6.2094	0.5957
6.1651	0.4993
6.1214	0.6247
6.0784	0.5092
6.0359	0.5412
5.994	0.6869
5.9527	0.7334
5.912	0.9327
5.8718	1.0088
5.8322	0.999
5.7931	1.1885
5.7545	1.338
5.7165	1.405
5.6789	1.4497
5.6418	1.5391
5.6052	1.5241
5.5691	1.3242
5.5334	1.2629
5.4982	1.521
5.4635	3.3048
5.4291	5.3994
5.3952	7.4543
5.3618	9.1705
5.3287	10.9767
5.2961	12.5268
5.2638	14.209
5.2319	16.1105
5.2004	17.6932
5.1693	17.9308
5.1386	13.348
5.1082	16.2551
5.0782	18.0463
5.0485	18.1794
5.0192	18.1517
4.9902	18.3564
4.9616	19.4947
4.9332	20.5757
4.9052	22.2016
4.8776	24.9605
4.8502	26.3474
4.8231	27.0084
4.7963	26.8872
4.7699	24.8811
4.7437	20.8462
4.7178	10.0604
4.6922	7.9174
4.6668	8.6628
4.6418	12.0043
4.617	15.3821
4.5924	17.7966
4.5681	18.5385
4.5441	18.4429
4.5203	18.0801
4.4968	17.4391
4.4735	18.3559
4.4505	20.8184
4.4277	23.7728
4.4051	23.5952
4.3828	23.221
4.3607	24.0971
4.3388	25.8177
4.3171	26.204
4.2956	25.1892
4.2744	22.0675
4.2534	23.4747
4.2325	23.6415
4.2119	22.9298
4.1915	21.7176
4.1712	20.3234
4.1512	18.8477
4.1313	16.4208
4.1117	13.3805
4.0922	10.2336
4.0729	6.7882
4.0538	4.1151
4.0349	3.1085
4.0161	2.6191
3.9976	2.4697
3.9792	2.6432
3.9609	2.8095
3.9428	3.1147
3.9249	3.1248
3.9072	3.2128
3.8896	3.3235
3.8722	3.4764
3.8549	3.3778
3.8378	3.6768
3.8208	4.8491
3.804	6.916
3.7873	12.723
3.7708	19.1321
3.7544	20.5517
3.7382	22.1472
3.7221	23.9392
3.7061	25.0484
3.6903	25.9594
3.6746	26.6952
3.659	27.441
3.6436	27.6048
3.6283	25.9952
3.6131	20.5589
3.5981	16.7929
3.5832	15.4837
3.5684	7.9489
3.5537	4.0984
3.5391	3.4689
3.5247	3.1396
3.5104	3.0825
3.4962	3.2507
3.4821	3.7049
3.4681	3.7977
3.4543	3.9274
3.4405	3.9221
3.4269	3.9597
3.4133	3.8734
3.3999	3.8575
3.3866	3.7596
3.3733	3.8247
3.3602	3.5613
3.3472	3.6519
3.3343	6.9439
3.3215	10.7927
3.3088	12.8499
3.2961	13.842
3.2836	14.4444
3.2712	14.7069
3.2588	14.8462
3.2466	14.9514
3.2345	14.7091
3.2224	14.7431
3.2104	14.1848
3.1985	13.0443
3.1867	12.2048
3.175	11.9589
3.1634	11.6046
3.1519	11.2698
3.1404	10.9271
3.129	9.985
3.1178	9.3346
3.1065	9.3716
3.0954	9.2825
3.0844	9.4645
3.0734	9.4085
3.0625	9.5116
3.0517	9.4462
3.041	9.3926
3.0303	9.2232
3.0197	8.9622
3.0092	9.1098
2.9987	8.9167
2.9884	8.8703
2.9781	8.598
2.9678	8.4681
2.9577	8.4026
2.9476	8.522
2.9376	8.8359
2.9276	8.8732
2.9177	8.941
2.9079	9.1459
2.8982	9.4245
2.8885	9.8202
2.8789	9.7737
2.8693	10.2298
2.8598	10.6685
2.8504	11.143
2.841	11.2983
2.8317	11.5412
2.8224	11.906
2.8133	12.0662
2.8041	11.313
2.7951	12.6445
2.786	13.9715
2.7771	15.1124
2.7682	16.7022
2.7594	17.9218
2.7506	19.7114
2.7418	22.5217
2.7332	25.8282
2.7246	31.0615
2.716	35.8025
2.7075	41.8113
2.699	46.9856
2.6906	51.3788
2.6823	54.6963
2.674	57.093
2.6657	59.6575
2.6575	59.382
2.6494	60.3053
2.6413	61.2653
2.6332	62.2191
2.6252	62.2957
2.6173	62.8431
2.6094	61.4398
2.6015	58.8645
2.5937	58.3919
2.5859	53.6851
2.5782	45.4977
2.5706	35.4407
2.5629	30.021
2.5554	27.3855
2.5478	28.426
2.5403	30.9911
2.5329	33.3393
2.5255	34.5975
2.5181	35.6891
2.5108	36.3667
2.5035	37.3051
2.4963	38.5844
2.4891	40.7691
2.482	43.8456
2.4749	47.2994
2.4678	50.5273
2.4608	53.0035
2.4538	55.4753
2.4468	57.3485
2.4399	59.2578
2.4331	60.636
2.4262	61.7245
2.4194	63.0085
2.4127	64.6681
2.4059	65.6296
2.3993	65.5875
2.3926	64.2725
2.386	59.2047
2.3795	50.873
2.3729	45.4223
2.3664	43.1655
2.36	42.4733
2.3535	43.374
2.3471	45.1053
2.3408	46.1441
2.3345	47.1263
2.3282	48.1807
2.3219	49.0855
2.3157	49.9697
2.3095	51.2691
2.3034	52.9361
2.2972	54.8869
2.2911	57.2018
2.2851	59.1545
2.279	61.0549
2.2731	62.3198
2.2671	63.9702
2.2612	64.9526
2.2553	66.1846
2.2494	67.2131
2.2435	68.3596
2.2377	69.1399
2.232	69.9077
2.2262	70.5382
2.2205	70.9275
2.2148	71.5234
2.2091	71.9038
2.2035	71.8538
2.1979	72.1111
2.1923	72.2366
2.1868	72.4745
2.1812	72.0672
2.1758	71.6424
2.1703	71.4636
2.1649	71.4541
2.1595	71.628
2.1541	72.0835
2.1487	72.8478
2.1434	73.2138
2.1381	73.8041
2.1328	73.9917
2.1275	74.1431
2.1223	74.2998
2.1171	74.4619
2.112	74.3332
2.1068	74.3714
2.1017	74.4682
2.0966	74.6815
2.0915	74.624
2.0865	74.608
2.0814	74.4471
2.0764	74.4944
2.0715	74.451
2.0665	74.1886
2.0616	74.3071
2.0567	74.047
2.0518	73.9542
2.0469	73.7385
2.0421	73.2171
2.0373	73.1025
2.0325	72.4531
2.0277	72.01
2.0229	71.4427
2.0182	70.4106
2.0135	69.2358
2.0088	68.8262
2.0042	68.9076
