Name: Richterite Na2Ca(Mg,Fe+2)5Si8O22(OH)2
Type: Mineral
Class: Silicate
Subclass: Inosilicate
Particle Size: Solid
Sample No.: richter_1
Owner: JHU
Wavelength Range: TIR
Origin: Wilberforce, Ontario, Canada via the Smithsonian (sample no.NMNH 150800)
Description: The sample consisted of two large (6.49 and 6.45 g) pieces and 2 smaller fragments, black in color. All fragments were parts of single crystals. One fragment had significant calcite contamination; all fragments had about 1% contamination with small blotchy inclusions of calcite. The crushed sample was treated with HCl, after which all grains appeared pure under the microscope. Sample had cleavage face. (chain silicates); (Amphibole Group) Original ASTER Spectral Library name was jhu.nicolet.mineral.silicate.inosilicate.solid.richte1.spectrum.txt
Measurement: Bidirectional reflectance
X Units: Wavelength (micrometers)
Y Units: Reflectance (percent)
wavelength	value
25.0442	26.5058
24.3388	27.9267
23.6719	31.0351
23.0407	35.1586
22.4422	42.6151
21.8741	52.3143
21.334	46.0204
20.8199	43.872
20.33	48.8573
19.8627	52.715
19.4163	55.0868
18.9896	57.2062
18.5812	62.2237
18.19	54.0316
17.815	49.1293
17.4551	43.3807
17.1094	26.8979
16.7772	14.0009
16.4576	10.3398
16.15	10.9734
15.8537	11.7365
15.568	12.9375
15.2925	14.437
15.0265	16.2778
14.7697	13.7451
14.5214	13.2939
14.2814	13.4358
14.0492	13.8896
13.8244	14.1103
13.6067	15.3418
13.3957	16.4296
13.1912	15.0444
12.9929	13.8017
12.8004	14.5195
12.6135	15.1611
12.432	15.7236
12.2557	16.236
12.0843	16.9018
11.9176	17.6909
11.7555	18.4892
11.5977	19.2568
11.444	20.5082
11.2944	22.111
11.1487	23.8351
11.0067	26.163
10.8682	28.5656
10.7332	28.3605
10.6015	30.2441
10.473	36.5819
10.3476	44.5333
10.2251	52.4708
10.1056	57.6395
9.9887	57.1698
9.8746	51.0763
9.763	39.5014
9.6539	32.2516
9.5472	33.7646
9.4429	38.1437
9.3408	40.1684
9.2409	40.0624
9.1431	37.7655
9.0474	35.248
8.9536	35.269
8.8618	32.9467
8.7718	34.1986
8.6837	36.9926
8.5973	32.6298
8.5126	21.4785
8.4295	12.0615
8.3481	6.2842
8.2682	3.6504
8.1898	4.144
8.1129	4.9443
8.0374	5.5889
7.9634	6.1445
7.8906	6.6535
7.8192	7.135
7.7491	7.53
7.6802	7.8911
7.6126	8.1782
7.5461	8.4414
7.4807	8.6697
7.4165	8.8796
7.3534	9.0454
7.2914	9.1941
7.2303	9.354
7.1703	9.5376
7.1113	9.7165
7.0533	9.843
6.9962	9.917
6.94	9.9702
6.8847	10.0652
6.8302	10.1474
6.7767	10.2483
6.7239	10.2873
6.672	10.3601
6.6209	10.4375
6.5705	10.5351
6.5209	10.5991
6.4721	10.6484
6.424	10.6386
6.3766	10.6301
6.3299	10.6487
6.2838	10.6723
6.2385	10.6845
6.1937	10.6743
6.1496	10.6831
6.1062	10.6758
6.0633	10.7131
6.0211	10.7085
5.9794	10.6858
5.9383	10.6469
5.8978	10.5937
5.8578	10.5412
5.8184	10.4973
5.7794	10.6115
5.741	10.7588
5.7031	10.7778
5.6657	10.7368
5.6288	10.747
5.5924	10.749
5.5564	10.7658
5.5209	10.78
5.4859	10.8022
5.4513	10.823
5.4171	10.8386
5.3833	10.864
5.35	10.8886
5.3171	10.9035
5.2846	10.9233
5.2524	10.9521
5.2207	10.9636
5.1893	10.9787
5.1584	10.9785
5.1277	10.9912
5.0975	10.9709
5.0676	10.9648
5.038	10.9551
5.0088	10.9616
4.98	10.9541
4.9514	10.9619
4.9232	10.9614
4.8953	10.9843
4.8678	10.9951
4.8405	11.0068
4.8135	11.0195
4.7868	11.0371
4.7605	11.0571
4.7344	11.0901
4.7086	11.1211
4.6831	11.1179
4.6578	11.1565
4.6328	11.206
4.6081	11.2485
4.5837	11.2907
4.5595	11.3479
4.5356	11.4052
4.5119	11.4751
4.4884	11.5556
4.4652	11.6074
4.4423	11.645
4.4196	11.6889
4.3971	11.7192
4.3748	11.7524
4.3528	11.778
4.331	11.7885
4.3094	11.8
4.288	11.8254
4.2668	11.8476
4.2458	11.8562
4.2251	11.8799
4.2045	11.8965
4.1841	11.9148
4.164	11.9394
4.144	11.9397
4.1242	11.9568
4.1046	11.957
4.0852	11.9707
4.066	11.9499
4.047	11.9414
4.0281	11.8955
4.0094	11.8325
3.9909	11.7358
3.9725	11.7434
3.9544	11.7939
3.9363	11.8891
3.9185	11.9309
3.9008	11.9653
3.8833	11.9814
3.8659	11.9819
3.8487	12.0097
3.8316	12.0478
3.8147	12.1142
3.7979	12.1848
3.7813	12.2549
3.7648	12.2871
3.7485	12.3086
3.7323	12.3213
3.7162	12.3186
3.7003	12.33
3.6845	12.333
3.6689	12.332
3.6534	12.3388
3.638	12.3342
3.6227	12.3227
3.6076	12.3413
3.5926	12.3286
3.5777	12.3022
3.563	12.2939
3.5484	12.2763
3.5338	12.2212
3.5195	12.1455
3.5052	12.1489
3.491	12.1479
3.477	12.1382
3.463	12.209
3.4492	12.2422
3.4355	12.2715
3.4219	12.3174
3.4084	12.3584
3.395	12.333
3.3817	12.334
3.3685	12.3923
3.3554	12.3071
3.3425	12.3076
3.3296	12.3579
3.3168	12.3833
3.3041	12.4026
3.2915	12.3967
3.279	12.3979
3.2666	12.3781
3.2543	12.3737
3.2421	12.3579
3.23	12.3679
3.218	12.3896
3.206	12.4123
3.1942	12.3999
3.1824	12.3996
3.1707	12.4013
3.1591	12.3962
3.1476	12.3862
3.1362	12.3632
3.1249	12.3403
3.1136	12.3425
3.1024	12.3664
3.0913	12.3769
3.0803	12.3759
3.0694	12.3874
3.0585	12.3801
3.0477	12.3711
3.037	12.3764
3.0264	12.3545
3.0158	12.3401
3.0053	12.3274
2.9949	12.3276
2.9845	12.3125
2.9743	12.2988
2.9641	12.2739
2.9539	12.2668
2.9439	12.2524
2.9339	12.2368
2.9239	12.2219
2.9141	12.2129
2.9043	12.2334
2.8946	12.206
2.8849	12.2173
2.8753	12.1985
2.8658	12.1914
2.8563	12.1933
2.8469	12.2063
2.8375	12.1721
2.8282	12.1465
2.819	12.1777
2.8098	12.1748
2.8007	12.1967
2.7917	12.1621
2.7827	12.1692
2.7738	12.1836
2.7649	12.1416
2.7561	12.0783
2.7473	12.0219
2.7386	11.7226
2.7299	11.3703
2.7213	11.2658
2.7128	11.4201
2.7043	11.2668
2.6959	11.2129
2.6875	11.3476
2.6791	11.747
2.6709	12.2983
2.6626	12.519
2.6545	12.497
2.6463	12.4946
2.6382	12.5083
2.6302	12.5014
2.6222	12.5107
2.6143	12.5229
2.6064	12.5097
2.5986	12.4951
2.5908	12.5063
2.583	12.4819
2.5753	12.479
2.5677	12.4428
2.5601	12.416
2.5525	12.4492
2.545	12.458
2.5375	12.4306
2.5301	12.4697
2.5227	12.4922
2.5154	12.4843
2.5081	12.5
2.5008	12.5215
2.4936	12.4941
2.4864	12.4834
2.4793	12.5122
2.4722	12.4619
2.4651	12.4555
2.4581	12.4795
2.4511	12.4951
2.4442	12.4961
2.4373	12.4912
2.4305	12.52
2.4236	12.541
2.4169	12.5278
2.4101	12.5879
2.4034	12.5644
2.3967	12.4809
2.3901	12.3379
2.3835	12.2539
2.377	12.1875
2.3704	12.3383
2.364	12.5215
2.3575	12.58
2.3511	12.6601
2.3447	12.6943
2.3384	12.7173
2.3321	12.6587
2.3258	12.5586
2.3195	12.3286
2.3133	12.1704
2.3071	12.2998
2.301	12.498
2.2949	12.6699
2.2888	12.8007
2.2828	12.8559
2.2767	12.9257
2.2708	12.9541
2.2648	13.0527
2.2589	13.1172
2.253	13.125
2.2471	13.1494
2.2413	13.2158
2.2355	13.1953
2.2297	13.2695
2.224	13.2539
2.2183	13.2509
2.2126	13.3007
2.207	13.2363
2.2013	13.2822
2.1957	13.3242
2.1902	13.3281
2.1846	13.3613
2.1791	13.3857
2.1736	13.375
2.1682	13.3515
2.1628	13.4433
2.1574	13.4492
2.152	13.4531
2.1466	13.3925
2.1413	13.4228
2.136	13.4111
2.1308	13.4072
2.1255	13.4707
2.1203	13.4238
2.1151	13.4892
2.11	13.4423
2.1048	13.4814
2.0997	13.4804
2.0946	13.5595
2.0895	13.5595
2.0845	13.4804
2.0795	13.5234
