Name: Fayalite Fe_2SiO_4
Type: Mineral
Class: Silicate
Subclass: Nesosilicate
Particle Size: Fine
Sample No.: NS-1A
Owner: JPL
Wavelength Range: TIR
Description: Particle size was 0-45um.Collected by JPL Original ASTER Spectral Library name was jpl.nicolet.mineral.silicate.nesosilicate.fine.ns01a.spectrum.txt
Measurement: Hemispherical reflectance
X Units: Wavelength (micrometers)
Y Units: Reflectance (percent)
wavelength	value
15.3853	4.1735
15.1161	4.4765
14.8563	4.995
14.6052	5.0264
14.3624	5.5411
14.1276	5.552
13.9004	5.6512
13.6803	5.7338
13.4671	6.3314
13.2604	6.3923
13.06	5.7025
12.8656	5.6821
12.6769	6.266
12.4936	6.7296
12.3155	7.2046
12.1425	7.2979
11.9742	6.5427
11.8106	7.3923
11.6513	8.0223
11.4963	8.4628
11.3454	8.497
11.1983	8.2522
11.0551	8.5209
10.9154	7.8059
10.7793	7.4721
10.6465	8.6277
10.5169	9.4534
10.3904	8.4868
10.267	7.9234
10.1464	7.9907
10.0287	9.1974
9.9136	10.0772
9.8012	10.1397
9.6913	9.813
9.5838	9.5172
9.4787	8.4562
9.3758	7.3507
9.2752	7.0041
9.1767	8.3805
9.0803	7.2918
8.9858	5.4513
8.8934	5.3999
8.8028	6.8254
8.714	7.3576
8.627	6.0537
8.5417	5.3098
8.4581	5.3004
8.3761	5.4114
8.2957	5.7469
8.2169	6.0557
8.1395	6.5365
8.0635	7.1375
7.989	7.6028
7.9158	7.9036
7.8439	8.148
7.7734	8.4443
7.7041	8.7094
7.636	9.1219
7.5691	9.4691
7.5034	9.9095
7.4388	10.041
7.3753	10.1817
7.3129	10.5772
7.2515	10.9796
7.1912	11.2052
7.1318	11.5023
7.0734	11.6
7.016	11.9363
6.9595	12.5876
6.9039	12.6607
6.8492	13.0357
6.7953	13.296
6.7423	13.1955
6.6901	13.3855
6.6387	14.127
6.5881	13.6957
6.5382	13.5098
6.4892	14.228
6.4408	13.5151
6.3931	13.3079
6.3462	13.3515
6.2999	12.6353
6.2543	12.3788
6.2094	11.7846
6.1651	11.3013
6.1214	10.9795
6.0784	10.8488
6.0359	11.1408
5.994	11.6619
5.9527	12.0165
5.912	12.2197
5.8718	12.4527
5.8322	12.5063
5.7931	12.1321
5.7545	12.0419
5.7165	11.8706
5.6789	11.879
5.6418	12.0854
5.6052	11.9726
5.5691	12.1094
5.5334	12.3517
5.4982	12.6774
5.4635	12.6693
5.4291	12.6449
5.3952	12.8565
5.3618	13.0589
5.3287	13.2898
5.2961	13.4679
5.2638	13.7797
5.2319	14.0721
5.2004	14.5135
5.1693	14.9499
5.1386	15.0817
5.1082	15.3423
5.0782	15.4908
5.0485	15.5912
5.0192	15.7351
4.9902	15.816
4.9616	16.0579
4.9332	16.2373
4.9052	16.5102
4.8776	16.5398
4.8502	16.6735
4.8231	16.8556
4.7963	16.9616
4.7699	17.1145
4.7437	17.3548
4.7178	17.3607
4.6922	17.3754
4.6668	17.6072
4.6418	17.6642
4.617	17.7955
4.5924	17.8715
4.5681	17.9426
4.5441	18.063
4.5203	18.0415
4.4968	18.2299
4.4735	18.2535
4.4505	18.3527
4.4277	18.3929
4.4051	18.453
4.3828	18.4084
4.3607	18.4587
4.3388	18.6136
4.3171	18.6418
4.2956	18.8159
4.2744	19.0464
4.2534	18.7938
4.2325	18.8669
4.2119	19.0116
4.1915	18.9895
4.1712	19.0386
4.1512	19.1427
4.1313	19.0717
4.1117	19.0375
4.0922	19.1628
4.0729	19.2067
4.0538	19.1906
4.0349	19.3116
4.0161	19.2781
3.9976	19.3581
3.9792	19.3451
3.9609	19.3499
3.9428	19.4078
3.9249	19.4894
3.9072	19.517
3.8896	19.4822
3.8722	19.6434
3.8549	19.3958
3.8378	19.5736
3.8208	19.5235
3.804	19.4951
3.7873	19.4925
3.7708	19.5222
3.7544	19.4176
3.7382	19.5316
3.7221	19.4634
3.7061	19.3856
3.6903	19.381
3.6746	19.3283
3.659	19.2806
3.6436	19.2341
3.6283	19.1172
3.6131	19.0323
3.5981	19.1577
3.5832	18.9912
3.5684	18.9389
3.5537	18.8923
3.5391	18.7637
3.5247	18.6865
3.5104	18.59
3.4962	18.4949
3.4821	18.3263
3.4681	18.2294
3.4543	18.318
3.4405	18.1319
3.4269	17.9789
3.4133	17.8204
3.3999	17.9468
3.3866	17.7352
3.3733	17.595
3.3602	17.4891
3.3472	17.3776
3.3343	17.2554
3.3215	17.1707
3.3088	17.0121
3.2961	16.9813
3.2836	16.7948
3.2712	16.6034
3.2588	16.3984
3.2466	16.2746
3.2345	15.9931
3.2224	15.8117
3.2104	15.5848
3.1985	15.606
3.1867	15.3664
3.175	15.2269
3.1634	15.2273
3.1519	15.0811
3.1404	15.0515
3.129	15.01
3.1178	15.0211
3.1065	14.7889
3.0954	14.8332
3.0844	14.7355
3.0734	14.8838
3.0625	14.7057
3.0517	14.7029
3.041	14.6345
3.0303	14.632
3.0197	14.5583
3.0092	14.6615
2.9987	14.5813
2.9884	14.7282
2.9781	14.5441
2.9678	14.2759
2.9577	14.4129
2.9476	14.3543
2.9376	14.3791
2.9276	14.4314
2.9177	14.5444
2.9079	14.6475
2.8982	14.631
2.8885	14.7498
2.8789	14.5602
2.8693	14.735
2.8598	14.8446
2.8504	14.7534
2.841	14.6259
2.8317	14.61
2.8224	14.1872
2.8133	13.9709
2.8041	13.9074
2.7951	13.2355
2.786	13.797
2.7771	13.9912
2.7682	12.6929
2.7594	12.3717
2.7506	14.837
2.7418	17.1779
2.7332	17.6844
2.7246	18.326
2.716	19.2066
2.7075	19.5729
2.699	19.6952
2.6906	19.7081
2.6823	19.8016
2.674	20.0457
2.6657	20.571
2.6575	19.8917
2.6494	19.7777
2.6413	19.8763
2.6332	20.0392
2.6252	19.8789
2.6173	20.3521
2.6094	19.932
2.6015	19.8461
2.5937	20.4957
2.5859	20.0277
2.5782	20.1152
2.5706	20.1264
2.5629	20.2696
2.5554	19.9789
2.5478	19.8572
2.5403	20.0372
2.5329	20.1622
2.5255	20.0827
2.5181	20.1349
2.5108	20.2377
2.5035	20.2164
2.4963	20.2312
2.4891	20.3429
2.482	20.3518
2.4749	20.4005
2.4678	20.3945
2.4608	20.6966
2.4538	20.5868
2.4468	20.5615
2.4399	20.6373
2.4331	20.5293
2.4262	20.6904
2.4194	20.6231
2.4127	20.8671
2.4059	20.927
2.3993	20.8837
2.3926	21.1925
2.386	21.0984
2.3795	21.1655
2.3729	21.3749
2.3664	21.1455
2.36	21.1924
2.3535	21.0349
2.3471	21.0878
2.3408	21.135
2.3345	21.452
2.3282	21.1538
2.3219	21.446
2.3157	21.5031
2.3095	21.8967
2.3034	21.9047
2.2972	22.0762
2.2911	22.0784
2.2851	22.2382
2.279	22.3874
2.2731	22.4051
2.2671	22.4706
2.2612	22.6647
2.2553	22.5407
2.2494	22.7623
2.2435	22.7466
2.2377	22.6637
2.232	22.8682
2.2262	22.781
2.2205	22.8393
2.2148	23.0347
2.2091	23.0646
2.2035	22.9557
2.1979	23.1896
2.1923	23.175
2.1868	23.1876
2.1812	23.388
2.1758	23.1283
2.1703	23.3029
2.1649	23.395
2.1595	23.3211
2.1541	23.1909
2.1487	23.2884
2.1434	23.2537
2.1381	23.5527
2.1328	23.6483
2.1275	23.3896
2.1223	23.3572
2.1171	23.4368
2.112	23.6562
2.1068	23.7326
2.1017	23.6065
2.0966	23.9259
2.0915	23.3439
2.0865	23.5074
2.0814	23.5188
2.0764	23.925
2.0715	23.8141
2.0665	23.3568
2.0616	24.1179
2.0567	23.814
2.0518	23.6345
2.0469	23.7371
2.0421	23.6682
2.0373	23.7088
2.0325	23.8932
2.0277	23.8735
2.0229	23.7172
2.0182	23.7874
2.0135	23.494
2.0088	24.025
2.0042	24.0001
