Name: Labradorite (Feldspar) (NaSi,CaAl)AlSi_2O_8
Type: Mineral
Class: Silicate
Subclass: Tectosilicate
Particle Size: Coarse
Sample No.: TS-2B
Owner: JPL
Wavelength Range: TIR
Origin: Canada, Quebec, Lake St. John
Description: Particle size was 125-500um.Collected by Ward's Original ASTER Spectral Library name was jpl.nicolet.mineral.silicate.tectosilicate.coarse.ts02b.spectrum.txt
Measurement: Hemispherical reflectance
X Units: Wavelength (micrometers)
Y Units: Reflectance (percent)
wavelength	value
15.3853	4.3165
15.1161	2.4498
14.8563	2.0971
14.6052	2.4261
14.3624	2.6406
14.1276	2.8671
13.9004	3.0486
13.6803	3.3685
13.4671	3.7529
13.2604	3.4673
13.06	3.1282
12.8656	3.0671
12.6769	2.7355
12.4936	2.7924
12.3155	3.3436
12.1425	3.8627
11.9742	4.2975
11.8106	4.8161
11.6513	5.3123
11.4963	5.7729
11.3454	6.847
11.1983	8.0448
11.0551	9.25
10.9154	10.5543
10.7793	11.3602
10.6465	11.9184
10.5169	12.6643
10.3904	12.4926
10.267	12.1938
10.1464	12.7236
10.0287	13.8728
9.9136	13.8149
9.8012	13.0765
9.6913	12.4333
9.5838	11.2345
9.4787	9.6206
9.3758	8.1365
9.2752	7.3528
9.1767	7.4148
9.0803	8.1598
8.9858	9.1037
8.8934	9.7662
8.8028	10.3097
8.714	10.5828
8.627	9.9655
8.5417	9.4939
8.4581	9.1258
8.3761	8.2269
8.2957	5.7239
8.2169	2.4442
8.1395	1.1132
8.0635	0.7165
7.989	0.5214
7.9158	0.4307
7.8439	0.4965
7.7734	0.5356
7.7041	0.6764
7.636	0.6529
7.5691	0.8345
7.5034	0.8374
7.4388	1.0008
7.3753	1.116
7.3129	1.1222
7.2515	1.1977
7.1912	1.2872
7.1318	1.4025
7.0734	1.3706
7.016	1.5125
6.9595	1.5097
6.9039	1.471
6.8492	1.6734
6.7953	1.6794
6.7423	1.6988
6.6901	1.7901
6.6387	1.8684
6.5881	1.8459
6.5382	1.9738
6.4892	1.951
6.4408	1.9166
6.3931	1.8712
6.3462	1.8582
6.2999	1.8461
6.2543	1.8136
6.2094	1.8798
6.1651	1.8011
6.1214	1.8587
6.0784	1.9164
6.0359	1.9163
5.994	1.9638
5.9527	1.9273
5.912	2.0406
5.8718	2.0776
5.8322	2.1755
5.7931	2.1858
5.7545	2.259
5.7165	2.3374
5.6789	2.4268
5.6418	2.3448
5.6052	2.5065
5.5691	2.5914
5.5334	2.6468
5.4982	2.7805
5.4635	2.912
5.4291	3.0765
5.3952	3.1356
5.3618	3.3569
5.3287	3.5904
5.2961	3.7153
5.2638	3.8495
5.2319	4.0639
5.2004	4.2417
5.1693	4.5434
5.1386	5.0374
5.1082	5.4463
5.0782	6.0749
5.0485	6.4864
5.0192	7.157
4.9902	7.5814
4.9616	8.0442
4.9332	8.431
4.9052	8.7146
4.8776	9.1884
4.8502	9.3233
4.8231	9.6077
4.7963	9.9728
4.7699	10.3158
4.7437	10.6683
4.7178	11.0617
4.6922	11.6406
4.6668	12.2681
4.6418	12.9928
4.617	13.7649
4.5924	14.6786
4.5681	15.6297
4.5441	16.5019
4.5203	17.5686
4.4968	18.4071
4.4735	19.3186
4.4505	20.11
4.4277	20.9414
4.4051	21.6696
4.3828	22.3886
4.3607	23.1988
4.3388	23.9352
4.3171	24.3878
4.2956	24.5778
4.2744	25.1887
4.2534	26.3696
4.2325	26.6938
4.2119	27.9022
4.1915	28.6524
4.1712	29.1135
4.1512	29.2465
4.1313	29.4022
4.1117	29.6066
4.0922	29.5815
4.0729	29.5489
4.0538	29.6602
4.0349	29.3593
4.0161	28.7496
3.9976	27.6202
3.9792	26.8229
3.9609	27.3887
3.9428	28.5689
3.9249	28.9387
3.9072	29.053
3.8896	29.2148
3.8722	29.2675
3.8549	29.262
3.8378	29.4093
3.8208	29.7581
3.804	30.0148
3.7873	30.1763
3.7708	30.1558
3.7544	30.0312
3.7382	30.0968
3.7221	29.995
3.7061	29.9991
3.6903	29.8513
3.6746	29.7303
3.659	29.5652
3.6436	29.3885
3.6283	29.209
3.6131	29.1284
3.5981	28.9489
3.5832	28.4897
3.5684	28.4099
3.5537	28.2077
3.5391	27.6798
3.5247	27.3882
3.5104	26.774
3.4962	26.2361
3.4821	25.9729
3.4681	25.9646
3.4543	26.1413
3.4405	25.8031
3.4269	25.5729
3.4133	25.1443
3.3999	24.9544
3.3866	24.5651
3.3733	24.2691
3.3602	23.8482
3.3472	23.3605
3.3343	23.74
3.3215	23.3191
3.3088	23.1347
3.2961	22.696
3.2836	22.5043
3.2712	22.0763
3.2588	21.5556
3.2466	21.2682
3.2345	20.8549
3.2224	20.6233
3.2104	20.1806
3.1985	19.8902
3.1867	19.3893
3.175	18.9519
3.1634	18.5462
3.1519	18.0203
3.1404	17.7688
3.129	17.4219
3.1178	16.9112
3.1065	16.6777
3.0954	16.343
3.0844	16.0481
3.0734	15.7869
3.0625	15.3809
3.0517	15.2974
3.041	14.9155
3.0303	14.6189
3.0197	14.4279
3.0092	14.3039
2.9987	14.004
2.9884	13.664
2.9781	13.3613
2.9678	13.3399
2.9577	12.9213
2.9476	12.7487
2.9376	12.6754
2.9276	12.6657
2.9177	12.6295
2.9079	12.5275
2.8982	12.671
2.8885	12.6633
2.8789	12.7354
2.8693	12.7422
2.8598	12.8941
2.8504	12.6701
2.841	12.7438
2.8317	12.6345
2.8224	12.7665
2.8133	12.5924
2.8041	12.7264
2.7951	12.5679
2.786	12.4702
2.7771	11.5462
2.7682	11.2722
2.7594	10.8573
2.7506	11.2229
2.7418	11.8312
2.7332	12.5807
2.7246	14.0868
2.716	16.2012
2.7075	18.9972
2.699	21.7237
2.6906	23.8148
2.6823	24.9571
2.674	25.7285
2.6657	26.4323
2.6575	25.9325
2.6494	25.8311
2.6413	25.9965
2.6332	26.0163
2.6252	26.0222
2.6173	26.4314
2.6094	25.9481
2.6015	25.9671
2.5937	26.6216
2.5859	25.8667
2.5782	25.9399
2.5706	25.7869
2.5629	26.0354
2.5554	25.6724
2.5478	25.6287
2.5403	25.3203
2.5329	25.2998
2.5255	25.2284
2.5181	25.0833
2.5108	25.196
2.5035	25.321
2.4963	25.1367
2.4891	25.0728
2.482	25.0637
2.4749	24.9473
2.4678	25.0197
2.4608	24.9359
2.4538	24.7929
2.4468	24.6748
2.4399	24.8705
2.4331	24.9933
2.4262	24.7075
2.4194	24.8606
2.4127	24.6385
2.4059	24.74
2.3993	24.8583
2.3926	24.6321
2.386	24.5568
2.3795	24.5793
2.3729	24.5251
2.3664	24.6703
2.36	24.3735
2.3535	24.2626
2.3471	24.22
2.3408	24.2849
2.3345	24.3479
2.3282	24.245
2.3219	24.2346
2.3157	24.1322
2.3095	24.1278
2.3034	24.395
2.2972	23.853
2.2911	24.3898
2.2851	23.9795
2.279	24.1969
2.2731	24.1347
2.2671	24.0945
2.2612	23.9834
2.2553	23.9605
2.2494	23.9176
2.2435	23.8844
2.2377	23.7417
2.232	23.8871
2.2262	23.5861
2.2205	23.7173
2.2148	23.7669
2.2091	23.4616
2.2035	23.4339
2.1979	23.4372
2.1923	23.65
2.1868	23.6354
2.1812	23.4038
2.1758	23.6013
2.1703	23.3046
2.1649	23.533
2.1595	23.2744
2.1541	23.3977
2.1487	23.4992
2.1434	23.4261
2.1381	23.2313
2.1328	23.51
2.1275	23.2259
2.1223	23.3687
2.1171	23.0178
2.112	23.2501
2.1068	23.0824
2.1017	23.0555
2.0966	23.5153
2.0915	23.0044
2.0865	23.1233
2.0814	22.7898
2.0764	23.5313
2.0715	22.7679
2.0665	22.968
2.0616	22.7182
2.0567	22.6474
2.0518	22.7914
2.0469	22.7342
2.0421	22.8935
2.0373	22.8334
2.0325	22.8343
2.0277	22.1152
2.0229	23.0973
2.0182	22.6467
2.0135	22.538
2.0088	22.4716
2.0042	22.6078
