Name: Almandine Garnet Fe_3Al_2(SiO_4)_3
Type: Mineral
Class: Silicate
Subclass: Nesosilicate
Particle Size: Medium
Sample No.: NS-4A
Owner: JPL
Wavelength Range: TIR
Origin: USA, Arizona, Graham County, Stanley Butte
Description: Particle size was 45-125um.Collected by Burminco Original ASTER Spectral Library name was jpl.nicolet.mineral.silicate.nesosilicate.medium.ns04a.spectrum.txt
Measurement: Hemispherical reflectance
X Units: Wavelength (micrometers)
Y Units: Reflectance (percent)
wavelength	value
15.3853	1.6738
15.1161	2.2327
14.8563	3.0845
14.6052	4.1236
14.3624	4.5057
14.1276	5.0949
13.9004	5.4617
13.6803	6.001
13.4671	6.3912
13.2604	6.5289
13.06	6.8015
12.8656	7.3743
12.6769	7.9234
12.4936	8.5191
12.3155	9.1864
12.1425	10.3886
11.9742	12.1329
11.8106	14.8597
11.6513	19.6271
11.4963	26.9661
11.3454	23.2975
11.1983	23.286
11.0551	31.8377
10.9154	26.6897
10.7793	12.1608
10.6465	4.9591
10.5169	11.6522
10.3904	28.072
10.267	38.5292
10.1464	40.8158
10.0287	40.814
9.9136	39.5042
9.8012	36.0858
9.6913	29.3319
9.5838	18.155
9.4787	9.685
9.3758	4.7185
9.2752	2.7576
9.1767	1.907
9.0803	1.5322
8.9858	1.4921
8.8934	1.7296
8.8028	1.6138
8.714	1.9126
8.627	2.0944
8.5417	2.3255
8.4581	2.4853
8.3761	2.8427
8.2957	3.2466
8.2169	3.8935
8.1395	4.1075
8.0635	4.6424
7.989	5.2325
7.9158	5.9414
7.8439	6.792
7.7734	7.4617
7.7041	8.1927
7.636	8.2542
7.5691	8.2759
7.5034	8.5043
7.4388	8.5275
7.3753	8.3639
7.3129	8.3152
7.2515	8.3629
7.1912	8.6001
7.1318	9.4663
7.0734	10.2779
7.016	11.3239
6.9595	12.046
6.9039	11.8096
6.8492	11.742
6.7953	11.8888
6.7423	11.6747
6.6901	12.2508
6.6387	13.5901
6.5881	14.2744
6.5382	15.1049
6.4892	16.8364
6.4408	16.7419
6.3931	17.5322
6.3462	19.2148
6.2999	19.5683
6.2543	20.5278
6.2094	20.8927
6.1651	21.284
6.1214	21.2919
6.0784	21.4921
6.0359	21.2439
5.994	21.2337
5.9527	20.368
5.912	18.9761
5.8718	16.919
5.8322	14.288
5.7931	11.8773
5.7545	10.3633
5.7165	9.3641
5.6789	8.6602
5.6418	8.5756
5.6052	8.3673
5.5691	8.692
5.5334	8.7672
5.4982	9.0938
5.4635	10.0293
5.4291	10.6418
5.3952	11.4568
5.3618	12.3238
5.3287	12.5167
5.2961	12.7122
5.2638	12.9639
5.2319	13.6298
5.2004	14.606
5.1693	15.5631
5.1386	16.9822
5.1082	18.6869
5.0782	20.7082
5.0485	22.7437
5.0192	24.5389
4.9902	25.6401
4.9616	26.41
4.9332	27.2106
4.9052	27.7721
4.8776	28.2447
4.8502	28.5373
4.8231	29.0424
4.7963	29.5272
4.7699	30.0285
4.7437	30.6601
4.7178	31.0494
4.6922	31.4796
4.6668	31.7412
4.6418	32.2152
4.617	32.6066
4.5924	33.0138
4.5681	33.367
4.5441	33.7449
4.5203	34.0071
4.4968	34.3939
4.4735	34.8171
4.4505	35.0074
4.4277	35.4613
4.4051	35.7704
4.3828	36.182
4.3607	36.5751
4.3388	36.9203
4.3171	37.3606
4.2956	37.701
4.2744	38.0622
4.2534	38.5221
4.2325	38.8049
4.2119	39.1252
4.1915	39.4024
4.1712	39.8115
4.1512	40.0731
4.1313	40.5337
4.1117	40.8054
4.0922	41.1747
4.0729	41.5265
4.0538	41.8808
4.0349	42.1717
4.0161	42.3144
3.9976	42.5212
3.9792	42.627
3.9609	42.8383
3.9428	43.2141
3.9249	43.3709
3.9072	43.5992
3.8896	43.8496
3.8722	43.9493
3.8549	44.1233
3.8378	44.3821
3.8208	44.3803
3.804	44.4445
3.7873	44.8201
3.7708	45.198
3.7544	45.5399
3.7382	45.8157
3.7221	46.0355
3.7061	46.4643
3.6903	46.7186
3.6746	46.9002
3.659	47.1781
3.6436	47.4473
3.6283	47.6711
3.6131	47.7908
3.5981	48.17
3.5832	48.2622
3.5684	48.3898
3.5537	48.6025
3.5391	48.7542
3.5247	48.7335
3.5104	48.8401
3.4962	48.774
3.4821	48.7339
3.4681	48.9348
3.4543	48.9957
3.4405	49.0607
3.4269	49.1884
3.4133	49.1244
3.3999	49.2946
3.3866	49.3411
3.3733	49.3316
3.3602	49.4083
3.3472	49.3893
3.3343	49.3741
3.3215	49.4657
3.3088	49.4421
3.2961	49.5327
3.2836	49.4298
3.2712	49.5463
3.2588	49.3744
3.2466	49.1907
3.2345	49.0714
3.2224	48.9885
3.2104	48.7386
3.1985	48.5972
3.1867	48.3977
3.175	48.1519
3.1634	48.0219
3.1519	47.8278
3.1404	47.6223
3.129	47.3337
3.1178	47.0609
3.1065	46.942
3.0954	46.6617
3.0844	46.3879
3.0734	46.1451
3.0625	45.9081
3.0517	45.6603
3.041	45.4714
3.0303	45.1776
3.0197	44.7046
3.0092	44.4082
2.9987	44.1704
2.9884	43.6827
2.9781	43.4013
2.9678	43.0026
2.9577	42.7338
2.9476	42.5285
2.9376	41.94
2.9276	41.6972
2.9177	41.3906
2.9079	41.1712
2.8982	40.7097
2.8885	40.5891
2.8789	40.3172
2.8693	39.9934
2.8598	39.6602
2.8504	39.4127
2.841	39.2291
2.8317	38.9303
2.8224	38.444
2.8133	38.106
2.8041	38.2726
2.7951	37.5858
2.786	37.7001
2.7771	37.1215
2.7682	37.2964
2.7594	36.7064
2.7506	36.9083
2.7418	37.6043
2.7332	37.7105
2.7246	39.586
2.716	40.3811
2.7075	42.2394
2.699	43.1433
2.6906	43.3993
2.6823	43.6036
2.674	43.4284
2.6657	44.622
2.6575	42.8417
2.6494	42.2841
2.6413	42.0065
2.6332	41.9808
2.6252	41.6796
2.6173	42.1319
2.6094	40.9341
2.6015	40.7051
2.5937	41.7457
2.5859	40.1864
2.5782	39.6381
2.5706	39.3889
2.5629	39.4803
2.5554	38.6719
2.5478	38.4669
2.5403	38.0505
2.5329	37.8835
2.5255	37.5183
2.5181	37.3815
2.5108	36.9794
2.5035	36.9628
2.4963	36.6953
2.4891	36.421
2.482	36.1346
2.4749	35.9825
2.4678	35.674
2.4608	35.6344
2.4538	35.4661
2.4468	35.2593
2.4399	35.1006
2.4331	34.9156
2.4262	34.9021
2.4194	34.5835
2.4127	34.5943
2.4059	34.4861
2.3993	34.2862
2.3926	34.3476
2.386	33.9083
2.3795	34.0902
2.3729	33.7306
2.3664	33.9436
2.36	33.7605
2.3535	33.6983
2.3471	33.6636
2.3408	33.5334
2.3345	33.5469
2.3282	33.3794
2.3219	33.474
2.3157	33.4389
2.3095	33.4654
2.3034	33.3456
2.2972	33.409
2.2911	33.4433
2.2851	33.2676
2.279	33.3559
2.2731	33.3222
2.2671	33.4324
2.2612	33.4372
2.2553	33.6312
2.2494	33.5986
2.2435	33.4932
2.2377	33.5216
2.232	33.5672
2.2262	33.5029
2.2205	33.435
2.2148	33.5504
2.2091	33.7663
2.2035	33.6443
2.1979	33.8977
2.1923	33.8692
2.1868	33.9702
2.1812	34.1714
2.1758	34.0145
2.1703	33.8546
2.1649	34.1724
2.1595	34.2196
2.1541	34.0769
2.1487	34.2972
2.1434	34.3149
2.1381	34.3251
2.1328	34.434
2.1275	34.639
2.1223	34.6816
2.1171	34.5711
2.112	34.6825
2.1068	35.2739
2.1017	35.0287
2.0966	35.1283
2.0915	34.7744
2.0865	35.133
2.0814	35.277
2.0764	35.123
2.0715	35.4935
2.0665	35.21
2.0616	35.1589
2.0567	35.6126
2.0518	35.7075
2.0469	35.3983
2.0421	35.2614
2.0373	35.6463
2.0325	35.6403
2.0277	35.4123
2.0229	35.5421
2.0182	35.7142
2.0135	35.9153
2.0088	35.9743
2.0042	35.6538
