Name: Hedenbergite CaFe+2Si2O6
Type: Mineral
Class: Silicate
Subclass: Inosilicate
Particle Size: Fine
Sample No.: hedenber_1
Owner: JHU
Wavelength Range: TIR
Origin: Eureka Mine, 2nd Level, Sub-level 1, 135 N, 645E, Ducktown,Tennesse, via the Smithsonian (sample no. NMNH 119197)
Description: The sample was made up of three large pieces and three small fragments, weighing altogether about 28 g.  All pieces are deep green and parts of single crystals.  They display a very small amount of veining.  Surfaces of the pieces have a veneer of contamination Ñprobably the same as the veining.  There is also an extremely small amount of sulphide contamination. Particle size was less than 2 Micrometers. (Single chain Pyroxene Group) Original ASTER Spectral Library name was jhu.nicolet.mineral.silicate.inosilicate.powder.hedenb1.spectrum.txt
Measurement: Transmission
X Units: Wavelength (micrometers)
Y Units: Transmittance (percent)
wavelength	value
25.0442	49.3007
24.3388	49.9022
23.6719	56.5936
23.0407	54.5741
22.4422	45.9081
21.8741	37.0097
21.334	33.0194
20.8199	33.6933
20.33	42.0477
19.8627	41.5468
19.4163	38.6337
18.9896	42.6366
18.5812	47.6991
18.19	57.0555
17.815	66.9012
17.4551	73.6678
17.1094	78.5291
16.7772	81.407
16.4576	81.9246
16.15	79.4353
15.8537	69.0452
15.568	76.0291
15.2925	85.012
15.0265	82.8025
14.7697	80.2693
14.5214	87.9529
14.2814	89.241
14.0492	89.448
13.8244	88.447
13.6067	87.1023
13.3957	85.0628
13.1912	82.6097
12.9929	79.9241
12.8004	76.762
12.6135	73.908
12.432	70.0784
12.2557	65.201
12.0843	58.6703
11.9176	49.41
11.7555	37.9965
11.5977	31.8163
11.444	34.2641
11.2944	40.2621
11.1487	44.1698
11.0067	44.0951
10.8682	41.3949
10.7332	51.2694
10.6015	52.5589
10.473	41.9662
10.3476	34.5392
10.2251	39.0824
10.1056	43.9218
9.9887	54.4862
9.8746	61.2852
9.763	61.412
9.6539	55.7318
9.5472	47.6261
9.4429	36.182
9.3408	28.2563
9.2409	31.0087
9.1431	34.497
9.0474	42.0233
8.9536	53.1454
8.8618	59.9554
8.7718	65.085
8.6837	68.9652
8.5973	71.9551
8.5126	74.1651
8.4295	76.2186
8.3481	78.1961
8.2682	79.9412
8.1898	81.3626
8.1129	82.6192
8.0374	83.699
7.9634	84.8948
7.8906	85.8506
7.8192	86.4817
7.7491	87.1487
7.6802	87.7344
7.6126	88.3379
7.5461	88.9153
7.4807	89.3943
7.4165	89.8352
7.3534	90.2129
7.2914	90.5291
7.2303	90.7449
7.1703	91.5144
7.1113	91.8211
7.0533	91.867
6.9962	92.1943
6.94	92.6487
6.8847	92.7852
6.8302	92.7617
6.7767	92.8193
6.7239	92.8106
6.672	92.916
6.6209	93.0315
6.5705	93.1721
6.5209	93.0859
6.4721	93.2092
6.424	93.405
6.3766	93.5271
6.3299	93.6299
6.2838	93.8025
6.2385	93.8889
6.1937	94.085
6.1496	93.6126
6.1062	93.4685
6.0633	93.6914
6.0211	94.5186
5.9794	95.3967
5.9383	95.1863
5.8978	94.95
5.8578	94.9294
5.8184	95.0427
5.7794	95.0742
5.741	95.0881
5.7031	95.0271
5.6657	94.9844
5.6288	94.9043
5.5924	94.8467
5.5564	94.7786
5.5209	94.748
5.4859	94.6619
5.4513	94.5322
5.4171	94.498
5.3833	94.3147
5.35	94.2878
5.3171	94.1875
5.2846	94.1238
5.2524	94.072
5.2207	94.0059
5.1893	93.9258
5.1584	93.793
5.1277	93.6445
5.0975	93.47
5.0676	93.3369
5.038	93.4314
5.0088	93.449
4.98	93.3933
4.9514	93.3162
4.9232	93.2432
4.8953	93.1924
4.8678	93.1387
4.8405	93.0398
4.8135	93.0501
4.7868	93.0449
4.7605	92.9072
4.7344	92.8367
4.7086	92.8171
4.6831	92.7503
4.6578	92.6697
4.6328	92.6221
4.6081	92.6628
4.5837	92.4539
4.5595	92.364
4.5356	92.29
4.5119	92.1924
4.4884	92.1397
4.4652	91.959
4.4423	91.8591
4.4196	91.752
4.3971	91.6943
4.3748	91.5996
4.3528	91.4473
4.331	91.3884
4.3094	91.294
4.288	91.1541
4.2668	91.0574
4.2458	91.0154
4.2251	90.8333
4.2045	90.7214
4.1841	90.6785
4.164	90.5476
4.144	90.3694
4.1242	90.3215
4.1046	90.2214
4.0852	90.0515
4.066	89.9685
4.047	89.8113
4.0281	89.7644
4.0094	89.6497
3.9909	89.4705
3.9725	89.2966
3.9544	89.2664
3.9363	89.2151
3.9185	89.0525
3.9008	88.9822
3.8833	88.8103
3.8659	88.7107
3.8487	88.5969
3.8316	88.5393
3.8147	88.4177
3.7979	88.3167
3.7813	88.1917
3.7648	88.0701
3.7485	87.9065
3.7323	87.8401
3.7162	87.7337
3.7003	87.4671
3.6845	87.4168
3.6689	87.2781
3.6534	87.1946
3.638	87.0296
3.6227	86.9031
3.6076	86.8064
3.5926	86.7244
3.5777	86.5452
3.563	86.4138
3.5484	86.2449
3.5338	86.1209
3.5195	85.9475
3.5052	85.9514
3.491	85.7683
3.477	85.5154
3.463	85.4265
3.4492	85.2835
3.4355	85.2625
3.4219	85.2034
3.4084	84.9827
3.395	84.7869
3.3817	84.8128
3.3685	84.8792
3.3554	84.5935
3.3425	84.5008
3.3296	84.3601
3.3168	84.2034
3.3041	84.1057
3.2915	84.0022
3.279	83.885
3.2666	83.7771
3.2543	83.6565
3.2421	83.6287
3.23	83.4846
3.218	83.3245
3.206	83.1931
3.1942	83.0589
3.1824	82.9256
3.1707	82.7796
3.1591	82.5584
3.1476	82.4197
3.1362	82.2244
3.1249	82.135
3.1136	81.9803
3.1024	81.6565
3.0913	81.4046
3.0803	81.1365
3.0694	81.0232
3.0585	80.7835
3.0477	80.596
3.037	80.3538
3.0264	80.2386
3.0158	80.0642
3.0053	79.7464
2.9949	79.3904
2.9845	79.1541
2.9743	78.6307
2.9641	78.3143
2.9539	78.0721
2.9439	77.7986
2.9339	77.532
2.9239	77.2391
2.9141	77.1209
2.9043	77.1102
2.8946	77.0525
2.8849	76.8484
2.8753	76.7205
2.8658	76.6844
2.8563	76.5809
2.8469	76.6766
2.8375	76.6062
2.8282	76.7127
2.819	76.9891
2.8098	77.0271
2.8007	77.1092
2.7917	77.1834
2.7827	77.2693
2.7738	77.3904
2.7649	77.5477
2.7561	77.657
2.7473	77.7244
2.7386	77.8211
2.7299	77.5896
2.7213	77.5213
2.7128	77.533
2.7043	77.4617
2.6959	77.4705
2.6875	77.3455
2.6791	77.2156
2.6709	77.2381
2.6626	77.1111
2.6545	76.949
2.6463	76.7967
2.6382	76.7264
2.6302	76.5828
2.6222	76.4373
2.6143	76.4266
2.6064	76.2049
2.5986	76.1678
2.5908	76.0828
2.583	76.0682
2.5753	75.8045
2.5677	75.6229
2.5601	75.6385
2.5525	75.4813
2.545	75.2303
2.5375	75.367
2.5301	75.1219
2.5227	74.7547
2.5154	74.6648
2.5081	74.6014
2.5008	74.3592
2.4936	74.3592
2.4864	74.3523
2.4793	74.115
2.4722	74.1014
2.4651	73.992
2.4581	73.7752
2.4511	73.658
2.4442	73.5779
2.4373	73.3162
2.4305	73.2947
2.4236	73.1424
2.4169	73.0994
2.4101	72.8533
2.4034	72.869
2.3967	72.7361
2.3901	72.5486
2.3835	72.5233
2.377	72.2479
2.3704	72.3045
2.364	72.2752
2.3575	72.1365
2.3511	71.9998
2.3447	71.8162
2.3384	71.783
2.3321	71.6268
2.3258	71.3553
2.3195	71.5565
2.3133	71.4471
2.3071	71.1424
2.301	71.0311
2.2949	71.2889
2.2888	71.0096
2.2828	70.6639
2.2767	70.5174
2.2708	70.4803
2.2648	70.6678
2.2589	70.4393
2.253	70.1795
2.2471	70.3611
2.2413	70.1444
2.2355	70.0428
2.2297	70.0252
2.224	69.8846
2.2183	69.8319
2.2126	69.8611
2.207	69.5506
2.2013	69.5623
2.1957	69.5721
2.1902	69.3514
2.1846	69.2733
2.1791	69.1912
2.1736	69.1951
2.1682	69.0076
2.1628	69.0701
2.1574	68.8768
2.152	68.6795
2.1466	68.7654
2.1413	69.1268
2.136	68.8612
2.1308	68.6092
2.1255	68.619
2.1203	68.4139
2.1151	68.6737
2.11	68.4627
2.1048	68.3455
2.0997	68.8123
2.0946	68.6014
2.0895	68.3045
2.0845	68.283
2.0795	68.4998
