Name: Smithsonite PbCO_3
Type: Mineral
Class: Carbonate
Subclass: None
Particle Size: Coarse
Sample No.: C-11A
Owner: JPL
Wavelength Range: TIR
Origin: N/A
Description: Particle size was 125-500um.Collected by JPL Original ASTER Spectral Library name was jpl.nicolet.mineral.carbonate.none.coarse.c11a.spectrum.txt
Measurement: Hemispherical reflectance
X Units: Wavelength (micrometers)
Y Units: Reflectance (percent)
wavelength	value
15.3853	6.1151
15.1161	5.9536
14.8563	6.2635
14.6052	6.022
14.3624	5.9863
14.1276	5.3513
13.9004	4.9277
13.6803	5.0074
13.4671	7.2423
13.2604	2.6137
13.06	4.1825
12.8656	4.9259
12.6769	5.3113
12.4936	5.6811
12.3155	5.9048
12.1425	5.6801
11.9742	5.8082
11.8106	5.9348
11.6513	8.4826
11.4963	16.8048
11.3454	23.1642
11.1983	4.0329
11.0551	3.6453
10.9154	4.022
10.7793	4.2472
10.6465	4.3322
10.5169	4.3789
10.3904	4.6452
10.267	4.6694
10.1464	4.9411
10.0287	5.0766
9.9136	5.221
9.8012	5.0792
9.6913	4.9575
9.5838	4.7929
9.4787	4.879
9.3758	5.09
9.2752	5.0652
9.1767	4.92
9.0803	5.1711
8.9858	5.2102
8.8934	5.3977
8.8028	5.5061
8.714	5.7416
8.627	5.58
8.5417	5.6155
8.4581	5.63
8.3761	5.7234
8.2957	5.8685
8.2169	6.0945
8.1395	6.2097
8.0635	6.2914
7.989	6.5662
7.9158	6.8577
7.8439	7.0108
7.7734	7.3363
7.7041	7.6055
7.636	8.0372
7.5691	8.5213
7.5034	9.1401
7.4388	9.9374
7.3753	10.8018
7.3129	12.0654
7.2515	14.2327
7.1912	16.7892
7.1318	23.5934
7.0734	24.5471
7.016	24.7841
6.9595	25.1071
6.9039	25.5653
6.8492	26.6432
6.7953	28.4409
6.7423	30.54
6.6901	34.1178
6.6387	37.1943
6.5881	38.0771
6.5382	38.4687
6.4892	38.0857
6.4408	31.1783
6.3931	20.1935
6.3462	9.8541
6.2999	3.4277
6.2543	1.3492
6.2094	0.998
6.1651	0.5905
6.1214	0.5557
6.0784	0.4648
6.0359	0.6167
5.994	0.6063
5.9527	0.6976
5.912	0.8462
5.8718	0.8342
5.8322	1.1682
5.7931	1.1549
5.7545	1.1561
5.7165	1.4033
5.6789	1.514
5.6418	1.4828
5.6052	1.5258
5.5691	1.5189
5.5334	1.4334
5.4982	1.5049
5.4635	1.6203
5.4291	1.9225
5.3952	3.3462
5.3618	4.9459
5.3287	6.3909
5.2961	7.7647
5.2638	8.6071
5.2319	9.2991
5.2004	9.9021
5.1693	10.0505
5.1386	9.4706
5.1082	7.3503
5.0782	10.5327
5.0485	11.402
5.0192	11.6885
4.9902	11.7711
4.9616	12.0506
4.9332	12.2293
4.9052	12.3803
4.8776	12.556
4.8502	12.6351
4.8231	12.5999
4.7963	12.318
4.7699	11.8986
4.7437	10.8203
4.7178	8.3157
4.6922	5.4689
4.6668	5.1761
4.6418	5.9421
4.617	7.4233
4.5924	8.2186
4.5681	8.8745
4.5441	9.2631
4.5203	9.4212
4.4968	9.3436
4.4735	9.5081
4.4505	10.0201
4.4277	10.6501
4.4051	10.3623
4.3828	10.662
4.3607	11.0714
4.3388	11.2771
4.3171	11.5238
4.2956	11.7475
4.2744	11.9547
4.2534	11.7019
4.2325	11.4403
4.2119	10.7175
4.1915	10.1944
4.1712	9.8218
4.1512	9.0572
4.1313	8.2675
4.1117	7.2298
4.0922	6.0725
4.0729	4.8494
4.0538	3.6866
4.0349	3.0006
4.0161	2.9285
3.9976	2.6901
3.9792	2.8334
3.9609	2.8952
3.9428	3.0149
3.9249	3.1399
3.9072	3.197
3.8896	3.1007
3.8722	3.1159
3.8549	3.3359
3.8378	3.3468
3.8208	3.5489
3.804	4.1067
3.7873	4.7311
3.7708	6.1259
3.7544	7.5207
3.7382	8.1889
3.7221	8.3569
3.7061	8.7224
3.6903	9.1979
3.6746	9.4137
3.659	9.2102
3.6436	9.0865
3.6283	8.418
3.6131	6.828
3.5981	6.6688
3.5832	5.2773
3.5684	3.5718
3.5537	3.3652
3.5391	3.3324
3.5247	3.2215
3.5104	3.0565
3.4962	3.0293
3.4821	3.3312
3.4681	3.2437
3.4543	3.3664
3.4405	3.4358
3.4269	3.3752
3.4133	3.3618
3.3999	3.3272
3.3866	3.1711
3.3733	3.3345
3.3602	3.3196
3.3472	3.2613
3.3343	3.2793
3.3215	3.7675
3.3088	4.2474
3.2961	4.4536
3.2836	4.7659
3.2712	4.8099
3.2588	4.9238
3.2466	4.8814
3.2345	4.8261
3.2224	4.9221
3.2104	4.8289
3.1985	4.835
3.1867	4.7624
3.175	4.8099
3.1634	4.8199
3.1519	4.6269
3.1404	4.6636
3.129	4.5221
3.1178	4.4956
3.1065	4.4668
3.0954	4.3912
3.0844	4.5408
3.0734	4.4617
3.0625	4.3286
3.0517	4.372
3.041	4.3882
3.0303	4.4274
3.0197	4.3342
3.0092	4.2883
2.9987	4.3958
2.9884	4.5451
2.9781	4.4633
2.9678	4.4755
2.9577	4.5252
2.9476	4.3169
2.9376	4.7361
2.9276	4.8044
2.9177	5.2305
2.9079	4.9844
2.8982	5.4252
2.8885	5.5441
2.8789	5.7093
2.8693	5.9067
2.8598	6.0293
2.8504	6.5268
2.841	6.8749
2.8317	6.9358
2.8224	7.3806
2.8133	7.9065
2.8041	8.1229
2.7951	8.6768
2.786	9.9206
2.7771	11.3631
2.7682	13.122
2.7594	15.2331
2.7506	18.4555
2.7418	21.5127
2.7332	24.2636
2.7246	27.607
2.716	29.777
2.7075	32.7791
2.699	35.4274
2.6906	37.7893
2.6823	40.0276
2.674	41.6362
2.6657	43.4848
2.6575	43.5337
2.6494	44.1167
2.6413	44.8198
2.6332	45.3585
2.6252	45.5226
2.6173	46.0029
2.6094	45.0686
2.6015	43.8021
2.5937	43.1889
2.5859	39.6253
2.5782	33.4969
2.5706	26.6537
2.5629	23.4889
2.5554	22.2948
2.5478	22.8834
2.5403	24.46
2.5329	25.794
2.5255	26.745
2.5181	27.5353
2.5108	28.0522
2.5035	28.7261
2.4963	29.4886
2.4891	30.7745
2.482	32.5001
2.4749	34.6237
2.4678	37.0874
2.4608	39.099
2.4538	40.6874
2.4468	42.4601
2.4399	43.9876
2.4331	44.9887
2.4262	45.8996
2.4194	46.9572
2.4127	48.1964
2.4059	48.403
2.3993	48.3418
2.3926	46.4439
2.386	42.27
2.3795	37.9468
2.3729	35.9078
2.3664	35.141
2.36	35.3488
2.3535	36.1997
2.3471	37.3757
2.3408	37.9733
2.3345	38.4354
2.3282	39.0598
2.3219	39.5339
2.3157	40.6738
2.3095	41.8036
2.3034	43.0343
2.2972	44.2704
2.2911	46.1426
2.2851	47.6565
2.279	49.1179
2.2731	50.3646
2.2671	51.5587
2.2612	52.7966
2.2553	53.9539
2.2494	55.2173
2.2435	56.1854
2.2377	57.0355
2.232	57.9936
2.2262	58.8287
2.2205	59.7262
2.2148	60.1891
2.2091	60.7644
2.2035	61.0252
2.1979	61.3744
2.1923	61.4834
2.1868	61.5351
2.1812	61.6782
2.1758	61.1447
2.1703	60.9899
2.1649	60.8612
2.1595	61.1048
2.1541	60.9852
2.1487	61.4065
2.1434	61.8264
2.1381	62.2603
2.1328	62.5331
2.1275	62.5127
2.1223	62.3402
2.1171	62.636
2.112	62.3459
2.1068	62.2757
2.1017	62.8041
2.0966	62.4606
2.0915	62.7522
2.0865	62.4934
2.0814	62.4687
2.0764	62.2014
2.0715	62.4235
2.0665	62.1997
2.0616	62.3091
2.0567	62.0574
2.0518	62.4017
2.0469	61.8492
2.0421	61.762
2.0373	62.0336
2.0325	61.6674
2.0277	61.3951
2.0229	60.8833
2.0182	60.4596
2.0135	59.8357
2.0088	59.4665
2.0042	59.5764
