Name: Alunite KAl_3(SO_4)_2(OH)_6
Type: Mineral
Class: Sulfate
Subclass: None
Particle Size: Medium
Sample No.: SO-4A
Owner: JPL
Wavelength Range: TIR
Origin: USA, Utah
Description: Particle size was 45-125um.Collected by Ward's Original ASTER Spectral Library name was jpl.nicolet.mineral.sulfate.none.medium.so04a.spectrum.txt
Measurement: Hemispherical reflectance
X Units: Wavelength (micrometers)
Y Units: Reflectance (percent)
wavelength	value
15.3853	5.4354
15.1161	6.167
14.8563	12.3826
14.6052	18.3511
14.3624	19.1832
14.1276	16.8495
13.9004	10.2262
13.6803	4.0651
13.4671	1.2265
13.2604	0.1943
13.06	0.5576
12.8656	0.4669
12.6769	0.9112
12.4936	0.9283
12.3155	1.0677
12.1425	1.3413
11.9742	1.763
11.8106	1.95
11.6513	2.2402
11.4963	2.4885
11.3454	2.5486
11.1983	2.605
11.0551	2.8623
10.9154	3.2273
10.7793	3.391
10.6465	3.5635
10.5169	3.8255
10.3904	4.1199
10.267	4.2986
10.1464	4.6532
10.0287	4.937
9.9136	5.3616
9.8012	6.7725
9.6913	6.2119
9.5838	7.3091
9.4787	9.8692
9.3758	14.7168
9.2752	25.8833
9.1767	28.9662
9.0803	29.7573
8.9858	30.098
8.8934	29.1676
8.8028	26.5947
8.714	21.9097
8.627	14.1988
8.5417	17.5633
8.4581	6.7418
8.3761	3.6564
8.2957	2.4256
8.2169	2.3208
8.1395	2.5819
8.0635	2.8046
7.989	3.7266
7.9158	4.3283
7.8439	3.764
7.7734	1.7296
7.7041	0.5396
7.636	0.4558
7.5691	0.4631
7.5034	0.6551
7.4388	0.8965
7.3753	1.1538
7.3129	1.4265
7.2515	1.6804
7.1912	1.6164
7.1318	1.8712
7.0734	1.8662
7.016	1.8146
6.9595	1.8928
6.9039	2.0129
6.8492	2.2241
6.7953	2.0463
6.7423	1.9456
6.6901	2.1353
6.6387	2.3502
6.5881	2.7892
6.5382	3.2538
6.4892	3.7449
6.4408	3.8861
6.3931	3.658
6.3462	3.6117
6.2999	3.3125
6.2543	3.319
6.2094	2.9942
6.1651	2.8586
6.1214	2.6527
6.0784	2.5863
6.0359	2.6038
5.994	2.8516
5.9527	2.953
5.912	3.2436
5.8718	4.0309
5.8322	5.0685
5.7931	6.0105
5.7545	7.0148
5.7165	7.7618
5.6789	8.3581
5.6418	9.0093
5.6052	9.4567
5.5691	9.5573
5.5334	9.9494
5.4982	10.659
5.4635	12.0103
5.4291	13.1014
5.3952	13.8493
5.3618	14.3149
5.3287	14.4009
5.2961	14.5968
5.2638	14.9624
5.2319	15.4443
5.2004	15.6898
5.1693	15.8108
5.1386	15.9201
5.1082	16.1412
5.0782	16.4482
5.0485	16.564
5.0192	16.5127
4.9902	16.4595
4.9616	16.1525
4.9332	15.5954
4.9052	14.2796
4.8776	12.4812
4.8502	9.6764
4.8231	10.823
4.7963	9.5292
4.7699	5.5416
4.7437	3.0409
4.7178	2.6753
4.6922	2.8511
4.6668	3.121
4.6418	2.7901
4.617	2.3937
4.5924	2.2831
4.5681	2.4067
4.5441	2.5312
4.5203	2.6225
4.4968	2.5068
4.4735	2.8291
4.4505	2.901
4.4277	3.124
4.4051	3.2362
4.3828	3.1964
4.3607	3.2073
4.3388	3.4633
4.3171	4.0673
4.2956	4.7326
4.2744	5.1286
4.2534	5.6265
4.2325	6.1449
4.2119	6.6664
4.1915	6.9321
4.1712	6.8533
4.1512	6.7577
4.1313	6.7315
4.1117	6.8482
4.0922	6.8172
4.0729	7.1045
4.0538	7.2556
4.0349	7.343
4.0161	7.4126
3.9976	7.4877
3.9792	7.5607
3.9609	7.7499
3.9428	7.787
3.9249	7.8431
3.9072	7.9743
3.8896	7.9838
3.8722	7.2923
3.8549	7.9503
3.8378	7.8971
3.8208	7.9302
3.804	7.7518
3.7873	7.679
3.7708	7.4925
3.7544	7.4181
3.7382	7.0384
3.7221	6.7698
3.7061	6.5975
3.6903	6.2829
3.6746	6.0621
3.659	5.82
3.6436	5.5705
3.6283	5.3342
3.6131	5.0378
3.5981	4.8663
3.5832	4.6666
3.5684	4.5111
3.5537	4.2864
3.5391	4.1459
3.5247	3.9697
3.5104	3.8378
3.4962	3.7702
3.4821	3.7326
3.4681	3.5306
3.4543	3.5557
3.4405	3.2443
3.4269	3.2693
3.4133	3.1644
3.3999	3.1149
3.3866	3.0399
3.3733	2.956
3.3602	2.9524
3.3472	2.7768
3.3343	2.8304
3.3215	2.8078
3.3088	2.6626
3.2961	2.6643
3.2836	2.6053
3.2712	2.5941
3.2588	2.6135
3.2466	2.6765
3.2345	2.5099
3.2224	2.6522
3.2104	2.5853
3.1985	2.6699
3.1867	2.61
3.175	2.5331
3.1634	2.3893
3.1519	2.6136
3.1404	2.3933
3.129	2.4649
3.1178	2.5271
3.1065	2.4716
3.0954	2.4264
3.0844	2.3794
3.0734	2.4628
3.0625	2.5242
3.0517	2.5608
3.041	2.4341
3.0303	2.5728
3.0197	2.6233
3.0092	2.6145
2.9987	2.5637
2.9884	2.6012
2.9781	2.6377
2.9678	2.5016
2.9577	2.6387
2.9476	2.6664
2.9376	2.8648
2.9276	2.6776
2.9177	2.9442
2.9079	3.3782
2.8982	3.4888
2.8885	4.1778
2.8789	5.9133
2.8693	11.5988
2.8598	4.8628
2.8504	1.9965
2.841	2.3277
2.8317	0.8354
2.8224	0.7268
2.8133	1.1692
2.8041	1.3715
2.7951	1.478
2.786	1.8545
2.7771	2.0864
2.7682	2.5632
2.7594	3.8857
2.7506	5.2878
2.7418	6.7783
2.7332	9.8002
2.7246	12.4368
2.716	14.8109
2.7075	18.142
2.699	20.3723
2.6906	20.7988
2.6823	19.881
2.674	20.9131
2.6657	22.7699
2.6575	23.5583
2.6494	27.5669
2.6413	29.0426
2.6332	28.108
2.6252	26.6763
2.6173	26.3264
2.6094	24.3453
2.6015	24.1683
2.5937	22.8184
2.5859	20.1742
2.5782	20.3981
2.5706	20.9421
2.5629	20.2917
2.5554	21.1249
2.5478	21.2711
2.5403	19.8702
2.5329	18.9763
2.5255	16.0445
2.5181	12.3033
2.5108	11.9046
2.5035	15.3923
2.4963	18.4337
2.4891	21.5742
2.482	23.1745
2.4749	21.0907
2.4678	19.0505
2.4608	20.9005
2.4538	22.9419
2.4468	22.9628
2.4399	21.436
2.4331	19.468
2.4262	21.0857
2.4194	23.3936
2.4127	25.6942
2.4059	27.0251
2.3993	26.8394
2.3926	27.9636
2.386	31.3917
2.3795	36.683
2.3729	40.994
2.3664	43.7553
2.36	45.2047
2.3535	45.4375
2.3471	45.1332
2.3408	43.5101
2.3345	39.9589
2.3282	36.8634
2.3219	33.8713
2.3157	35.2718
2.3095	40.598
2.3034	46.4008
2.2972	49.3509
2.2911	50.7896
2.2851	51.6403
2.279	52.1945
2.2731	52.476
2.2671	52.7572
2.2612	52.5211
2.2553	52.9826
2.2494	52.8885
2.2435	52.7539
2.2377	51.4958
2.232	50.3782
2.2262	47.5303
2.2205	40.5858
2.2148	32.3971
2.2091	27.6457
2.2035	31.389
2.1979	33.886
2.1923	27.7468
2.1868	25.7929
2.1812	22.9539
2.1758	24.0562
2.1703	22.6339
2.1649	22.9901
2.1595	22.4574
2.1541	23.0052
2.1487	25.3684
2.1434	26.2937
2.1381	27.789
2.1328	29.1515
2.1275	30.5769
2.1223	33.395
2.1171	36.4364
2.112	39.1175
2.1068	41.958
2.1017	43.4984
2.0966	44.0439
2.0915	45.5189
2.0865	46.052
2.0814	46.5552
2.0764	46.264
2.0715	45.9515
2.0665	46.3675
2.0616	46.0957
2.0567	46.4361
2.0518	46.7762
2.0469	47.3245
2.0421	47.8528
2.0373	48.0885
2.0325	48.5693
2.0277	49.075
2.0229	49.0236
2.0182	49.1087
2.0135	48.7304
2.0088	49.2706
2.0042	49.4911
