Name: Erionite (K2,Ca,Na2)2Al4Si14O36.15H2O
Type: Mineral
Class: Silicate
Subclass: Tectosilicate
Particle Size: Fine
Sample No.: erionite_1
Owner: JHU
Wavelength Range: TIR
Origin: Donated by W. J. Ehmann;  Sample #15 from Rome, Oregon.
Description: The hand sample was a cream-colored, earthy mass.  As a result, the "solid" sample had very weak reststrahlen bands.  Petrographically the sample appeared to be pure. Particle size was less than 2 Micrometers.(Zeolite Group) Original ASTER Spectral Library name was jhu.nicolet.mineral.silicate.tectosilicate.powder.erioni1.spectrum.txt
Measurement: Transmission
X Units: Wavelength (micrometers)
Y Units: Transmittance (percent)
wavelength	value
25.0442	50.6327
24.3388	48.953
23.6719	43.7186
23.0407	37.9921
22.4422	34.8046
21.8741	30.8222
21.334	28.9101
20.8199	33.8593
20.33	43.5233
19.8627	49.1092
19.4163	51.0819
18.9896	54.9061
18.5812	57.4227
18.19	59.0038
17.815	60.2186
17.4551	59.3748
17.1094	57.5643
16.7772	58.9998
16.4576	61.2479
16.15	61.8504
15.8537	61.7996
15.568	62.9539
15.2925	65.575
15.0265	66.1727
14.7697	65.8836
14.5214	65.1336
14.2814	64.243
14.0492	64.2117
13.8244	64.0863
13.6067	64.4827
13.3957	65.182
13.1912	65.3812
12.9929	64.5355
12.8004	61.141
12.6135	62.7479
12.432	65.1073
12.2557	73.5823
12.0843	76.5857
11.9176	76.4119
11.7555	73.0433
11.5977	68.2698
11.444	63.7913
11.2944	60.6156
11.1487	58.036
11.0067	55.4354
10.8682	52.7098
10.7332	49.3964
10.6015	45.0331
10.473	39.5458
10.3476	33.0839
10.2251	26.0156
10.1056	19.4106
9.9887	14.2754
9.8746	10.7231
9.763	8.4419
9.6539	7.0141
9.5472	6.4507
9.4429	6.2695
9.3408	6.5801
9.2409	6.8677
9.1431	7.6509
9.0474	9.4262
8.9536	11.6606
8.8618	14.0664
8.7718	16.1919
8.6837	18.5693
8.5973	21.2138
8.5126	24.9023
8.4295	30.3363
8.3481	37.1085
8.2682	45.1105
8.1898	53.6962
8.1129	61.6602
8.0374	67.9837
7.9634	72.3592
7.8906	75.2881
7.8192	77.6124
7.7491	79.3809
7.6802	80.8575
7.6126	81.9226
7.5461	82.989
7.4807	83.8562
7.4165	84.5135
7.3534	84.947
7.2914	85.3269
7.2303	85.6975
7.1703	85.2664
7.1113	85.3555
7.0533	86.1465
6.9962	86.4802
6.94	86.7656
6.8847	86.8653
6.8302	86.9724
6.7767	87.5271
6.7239	88.169
6.672	88.7666
6.6209	89.086
6.5705	89.2215
6.5209	89.1726
6.4721	89.0047
6.424	88.6873
6.3766	88.3299
6.3299	87.5567
6.2838	86.5799
6.2385	85.2361
6.1937	82.6355
6.1496	79.4793
6.1062	78.8211
6.0633	79.782
6.0211	81.1292
5.9794	83.127
5.9383	85.5752
5.8978	87.6604
5.8578	89.0095
5.8184	89.865
5.7794	90.4717
5.741	90.8347
5.7031	91.1384
5.6657	91.4111
5.6288	91.5156
5.5924	91.6221
5.5564	91.6741
5.5209	91.8135
5.4859	91.9378
5.4513	92.0852
5.4171	92.1738
5.3833	92.198
5.35	92.1453
5.3171	92.2869
5.2846	92.3972
5.2524	92.5156
5.2207	92.6846
5.1893	92.8015
5.1584	92.8943
5.1277	92.9912
5.0975	93.0449
5.0676	93.0508
5.038	93.0801
5.0088	93.1377
4.98	93.1326
4.9514	93.2854
4.9232	93.3279
4.8953	93.4255
4.8678	93.4026
4.8405	93.4919
4.8135	93.4724
4.7868	93.5549
4.7605	93.5203
4.7344	93.5413
4.7086	93.4045
4.6831	93.4685
4.6578	93.4451
4.6328	93.469
4.6081	93.5999
4.5837	93.5232
4.5595	93.533
4.5356	93.5164
4.5119	93.4597
4.4884	93.4871
4.4652	93.4627
4.4423	93.4382
4.4196	93.5007
4.3971	93.4519
4.3748	93.4753
4.3528	93.552
4.331	93.5549
4.3094	93.5837
4.288	93.5798
4.2668	93.5818
4.2458	93.6609
4.2251	93.6609
4.2045	93.6838
4.1841	93.6912
4.164	93.7556
4.144	93.7405
4.1242	93.8396
4.1046	93.8347
4.0852	93.8503
4.066	93.844
4.047	93.844
4.0281	93.9011
4.0094	93.8938
3.9909	93.8718
3.9725	93.8152
3.9544	93.8484
3.9363	93.8289
3.9185	93.8494
3.9008	93.7971
3.8833	93.7068
3.8659	93.656
3.8487	93.5979
3.8316	93.4788
3.8147	93.4539
3.7979	93.3533
3.7813	93.2581
3.7648	93.1389
3.7485	92.9402
3.7323	92.8484
3.7162	92.7722
3.7003	92.5505
3.6845	92.4431
3.6689	92.2776
3.6534	92.0525
3.638	91.8948
3.6227	91.6287
3.6076	91.3674
3.5926	91.2595
3.5777	91.0198
3.563	90.7156
3.5484	90.4475
3.5338	90.0427
3.5195	89.5906
3.5052	88.491
3.491	88.5427
3.477	88.3123
3.463	88.0237
3.4492	87.4422
3.4355	86.7273
3.4219	85.5222
3.4084	85.2503
3.395	85.5296
3.3817	85.0789
3.3685	84.8245
3.3554	84.7425
3.3425	84.2996
3.3296	83.8074
3.3168	83.2073
3.3041	82.6404
3.2915	82.1092
3.279	81.4656
3.2666	80.7698
3.2543	80.012
3.2421	79.2498
3.23	78.4803
3.218	77.5433
3.206	76.7732
3.1942	75.9002
3.1824	75.2933
3.1707	74.3611
3.1591	73.533
3.1476	72.6531
3.1362	71.7498
3.1249	71.0154
3.1136	70.1551
3.1024	69.4666
3.0913	68.8436
3.0803	68.1668
3.0694	67.659
3.0585	67.1375
3.0477	66.5955
3.037	66.1688
3.0264	65.7088
3.0158	65.0672
3.0053	64.3944
2.9949	63.7254
2.9845	63.1688
2.9743	62.576
2.9641	62.203
2.9539	61.8319
2.9439	61.7108
2.9339	61.5682
2.9239	61.4383
2.9141	61.5936
2.9043	61.8709
2.8946	61.9071
2.8849	62.3299
2.8753	62.4764
2.8658	63.0086
2.8563	63.6131
2.8469	64.368
2.8375	65.0711
2.8282	65.6287
2.819	66.199
2.8098	66.8416
2.8007	67.5633
2.7917	68.4022
2.7827	69.2381
2.7738	70.3611
2.7649	71.6815
2.7561	73.6873
2.7473	76.2391
2.7386	78.9109
2.7299	81.8055
2.7213	84.031
2.7128	85.657
2.7043	86.9783
2.6959	87.8904
2.6875	88.5047
2.6791	88.8396
2.6709	89.0359
2.6626	89.1843
2.6545	89.4002
2.6463	89.5086
2.6382	89.6599
2.6302	89.7351
2.6222	89.6521
2.6143	89.6257
2.6064	89.6326
2.5986	89.9295
2.5908	90.0056
2.583	90.2146
2.5753	90.0554
2.5677	90.0271
2.5601	89.9802
2.5525	90.0506
2.545	89.992
2.5375	90.075
2.5301	89.9685
2.5227	89.822
2.5154	89.9334
2.5081	90.1716
2.5008	90.1033
2.4936	89.9939
2.4864	90.033
2.4793	89.9685
2.4722	90.0408
2.4651	89.9802
2.4581	90.1189
2.4511	90.1697
2.4442	90.1443
2.4373	90.031
2.4305	89.9451
2.4236	89.9939
2.4169	90.0017
2.4101	90.2498
2.4034	90.3142
2.3967	90.0994
2.3901	90.0779
2.3835	90.0857
2.377	90.1091
2.3704	90.1111
2.364	89.9392
2.3575	89.8982
2.3511	89.7966
2.3447	90.0896
2.3384	89.9724
2.3321	89.8279
2.3258	89.7654
2.3195	90.0466
2.3133	90.1716
2.3071	89.8767
2.301	89.7966
2.2949	89.908
2.2888	89.824
2.2828	89.533
2.2767	89.7654
2.2708	89.6033
2.2648	89.7966
2.2589	89.6892
2.253	89.7966
2.2471	89.781
2.2413	89.5408
2.2355	89.658
2.2297	89.5154
2.224	89.5701
2.2183	89.4236
2.2126	89.5564
2.207	89.572
2.2013	89.3045
2.1957	89.1404
2.1902	89.3357
2.1846	89.4177
2.1791	89.2771
2.1736	89.3279
2.1682	89.4451
2.1628	89.6795
2.1574	89.4607
2.152	89.1404
2.1466	89.3435
2.1413	89.2654
2.136	89.2654
2.1308	89.4705
2.1255	89.5076
2.1203	89.156
2.1151	89.1873
2.11	89.1756
2.1048	89.2498
2.0997	89.3709
2.0946	89.2146
2.0895	89.1013
2.0845	89.1091
2.0795	88.6482
