Name: Smectite Na0.33Fe2+3(Si,Al)4 O10.3H2O
Type: Mineral
Class: Silicate
Subclass: Phyllosilicate
Particle Size: Fine
Sample No.: smectite_1
Owner: JHU
Wavelength Range: TIR
Origin: Grant Co., Washington, USA via the Clay Mineral SocietySource Clay Mineral Repository #CMS SWa-1
Description: Described by CMS as a ferruginous smectite, the sample was a brown, earthy clay. The less than 2 micrometers size fraction is pure Fe-smectite (probably nontronite).  The larger size fraction contains a small amount of quartz and was discarded.(Sheet silicates); Smectite GroupSample particle size was less than 2  Micrometers. Original ASTER Spectral Library name was jhu.nicolet.mineral.silicate.phyllosilicate.powder.smecti1.spectrum.txt
Measurement: Transmission
X Units: Wavelength (micrometers)
Y Units: Transmittance (percent)
wavelength	value
25.0442	62.2694
24.3388	54.7342
23.6719	47.6268
23.0407	47.078
22.4422	47.8436
21.8741	48.0038
21.334	51.5565
20.8199	55.1053
20.33	49.8368
19.8627	50.1581
19.4163	51.1883
18.9896	55.1971
18.5812	59.9178
18.19	64.3963
17.815	68.2362
17.4551	71.7518
17.1094	75.2674
16.7772	77.6609
16.4576	79.8543
16.15	81.9451
15.8537	84.0779
15.568	85.4221
15.2925	85.949
15.0265	85.6038
14.7697	84.6897
14.5214	85.8123
14.2814	87.7039
14.0492	89.6062
13.8244	91.1912
13.6067	91.2009
13.3957	90.2849
13.1912	88.6018
12.9929	87.3845
12.8004	85.9788
12.6135	85.5926
12.432	84.1619
12.2557	80.0926
12.0843	80.4656
11.9176	80.7732
11.7555	78.3123
11.5977	74.5023
11.444	71.6414
11.2944	74.0784
11.1487	73.9666
11.0067	70.18
10.8682	66.4193
10.7332	63.5355
10.6015	60.2547
10.473	55.9542
10.3476	51.1085
10.2251	46.2404
10.1056	41.4931
9.9887	37.6134
9.8746	35.2443
9.763	34.3495
9.6539	34.8195
9.5472	37.2912
9.4429	41.6593
9.3408	46.89
9.2409	51.8368
9.1431	55.2049
9.0474	57.1917
8.9536	59.0018
8.8618	61.1297
8.7718	63.6698
8.6837	66.578
8.5973	69.5733
8.5126	72.126
8.4295	74.9666
8.3481	77.7103
8.2682	79.9432
8.1898	81.6641
8.1129	83.1409
8.0374	84.3653
7.9634	85.5489
7.8906	86.593
7.8192	87.2971
7.7491	88.0286
7.6802	88.6243
7.6126	89.2532
7.5461	89.9277
7.4807	90.4187
7.4165	90.8255
7.3534	91.2825
7.2914	91.6824
7.2303	91.9807
7.1703	92.5684
7.1113	92.8396
7.0533	92.8301
6.9962	93.1765
6.94	93.6934
6.8847	93.9414
6.8302	94.0105
6.7767	94.2195
6.7239	94.5002
6.672	94.8259
6.6209	95.1296
6.5705	95.4172
6.5209	95.541
6.4721	95.7302
6.424	95.9365
6.3766	95.9482
6.3299	95.8801
6.2838	95.5652
6.2385	94.594
6.1937	92.3535
6.1496	90.2676
6.1062	90.5144
6.0633	92.2813
6.0211	94.3477
5.9794	95.915
5.9383	95.9221
5.8978	95.9229
5.8578	96.0723
5.8184	96.4119
5.7794	96.6279
5.741	96.7637
5.7031	96.8054
5.6657	96.8533
5.6288	96.9609
5.5924	96.9895
5.5564	97.001
5.5209	97.0303
5.4859	97.0771
5.4513	97.1199
5.4171	97.2468
5.3833	97.2732
5.35	97.4639
5.3171	97.5476
5.2846	97.6641
5.2524	97.7263
5.2207	97.8113
5.1893	97.8645
5.1584	97.9717
5.1277	98.0037
5.0975	98.0945
5.0676	98.1543
5.038	98.2273
5.0088	98.2822
4.98	98.3611
4.9514	98.4072
4.9232	98.3972
4.8953	98.417
4.8678	98.4668
4.8405	98.4929
4.8135	98.5049
4.7868	98.5173
4.7605	98.4971
4.7344	98.5476
4.7086	98.5498
4.6831	98.5408
4.6578	98.5593
4.6328	98.5964
4.6081	98.7412
4.5837	98.6025
4.5595	98.5964
4.5356	98.5752
4.5119	98.5967
4.4884	98.5681
4.4652	98.5681
4.4423	98.6445
4.4196	98.6433
4.3971	98.6484
4.3748	98.6855
4.3528	98.654
4.331	98.6477
4.3094	98.6943
4.288	98.7363
4.2668	98.7234
4.2458	98.7695
4.2251	98.7725
4.2045	98.7117
4.1841	98.751
4.164	98.7266
4.144	98.6738
4.1242	98.6838
4.1046	98.7297
4.0852	98.6912
4.066	98.654
4.047	98.6687
4.0281	98.6457
4.0094	98.6404
3.9909	98.5686
3.9725	98.5496
3.9544	98.5657
3.9363	98.5471
3.9185	98.5369
3.9008	98.5442
3.8833	98.512
3.8659	98.4255
3.8487	98.4582
3.8316	98.4089
3.8147	98.387
3.7979	98.3425
3.7813	98.3196
3.7648	98.2659
3.7485	98.2327
3.7323	98.196
3.7162	98.1155
3.7003	98.0622
3.6845	98.0261
3.6689	97.9836
3.6534	97.8962
3.638	97.864
3.6227	97.7839
3.6076	97.7439
3.5926	97.7229
3.5777	97.6755
3.563	97.5784
3.5484	97.5276
3.5338	97.4685
3.5195	97.3484
3.5052	97.342
3.491	97.2195
3.477	97.1355
3.463	97.074
3.4492	97.0139
3.4355	96.9285
3.4219	96.8767
3.4084	96.6316
3.395	96.5803
3.3817	96.5222
3.3685	96.491
3.3554	96.2546
3.3425	96.1169
3.3296	95.9333
3.3168	95.7834
3.3041	95.6443
3.2915	95.5486
3.279	95.2971
3.2666	95.0564
3.2543	94.8445
3.2421	94.6873
3.23	94.3962
3.218	94.1472
3.206	93.822
3.1942	93.4236
3.1824	93.0271
3.1707	92.6052
3.1591	92.1404
3.1476	91.6838
3.1362	91.2463
3.1249	90.6819
3.1136	90.2029
3.1024	89.6995
3.0913	89.3396
3.0803	88.9827
3.0694	88.7346
3.0585	88.3357
3.0477	87.8162
3.037	87.2088
3.0264	86.5427
3.0158	85.7952
3.0053	85.0408
2.9949	84.4143
2.9845	83.7405
2.9743	83.0413
2.9641	82.5315
2.9539	82.0603
2.9439	81.8123
2.9339	81.6863
2.9239	81.6941
2.9141	81.7517
2.9043	81.9695
2.8946	82.24
2.8849	82.5603
2.8753	82.7361
2.8658	82.948
2.8563	83.1678
2.8469	83.074
2.8375	82.2596
2.8282	80.4695
2.819	78.7185
2.8098	77.2703
2.8007	76.3553
2.7917	76.6648
2.7827	77.7869
2.7738	78.9314
2.7649	80.2
2.7561	81.9031
2.7473	84.2205
2.7386	86.656
2.7299	88.8748
2.7213	90.8914
2.7128	92.2859
2.7043	93.3445
2.6959	93.9607
2.6875	94.3748
2.6791	94.4734
2.6709	94.5359
2.6626	94.5398
2.6545	94.4529
2.6463	94.4763
2.6382	94.4255
2.6302	94.408
2.6222	94.364
2.6143	94.4968
2.6064	94.4392
2.5986	94.3044
2.5908	94.2966
2.583	94.3982
2.5753	94.2166
2.5677	94.1453
2.5601	94.2966
2.5525	94.1287
2.545	93.9529
2.5375	93.9929
2.5301	94.0115
2.5227	93.6853
2.5154	93.9373
2.5081	93.9226
2.5008	93.7537
2.4936	93.6794
2.4864	93.5867
2.4793	93.5896
2.4722	93.571
2.4651	93.5671
2.4581	93.488
2.4511	93.3132
2.4442	93.3025
2.4373	93.2732
2.4305	93.2302
2.4236	93.3318
2.4169	93.283
2.4101	93.3142
2.4034	93.0701
2.3967	92.8923
2.3901	92.6755
2.3835	92.7595
2.377	92.8982
2.3704	93.1306
2.364	92.9744
2.3575	92.7185
2.3511	92.8845
2.3447	92.5545
2.3384	92.5584
2.3321	92.3943
2.3258	92.6248
2.3195	92.7654
2.3133	92.3533
2.3071	92.3611
2.301	92.4216
2.2949	92.2966
2.2888	92.0466
2.2828	92.072
2.2767	92.2752
2.2708	92.363
2.2648	92.3845
2.2589	92.0955
2.253	92.0115
2.2471	92.0115
2.2413	92.0017
2.2355	92.1013
2.2297	92.197
2.224	91.8767
2.2183	91.9216
2.2126	91.9705
2.207	91.7341
2.2013	91.8123
2.1957	91.742
2.1902	91.8201
2.1846	91.7185
2.1791	91.7205
2.1736	91.8591
2.1682	91.8689
2.1628	91.908
2.1574	91.7029
2.152	91.4236
2.1466	91.4314
2.1413	91.5623
2.136	91.5505
2.1308	91.7283
2.1255	91.4607
2.1203	91.5955
2.1151	91.4646
2.11	91.3943
2.1048	91.3513
2.0997	91.6951
2.0946	91.8298
2.0895	91.3455
2.0845	91.5779
2.0795	91.7673
