Name: Siderite Fe^2+CO_3
Type: Mineral
Class: Carbonate
Subclass: None
Particle Size: Medium
Sample No.: C-9A
Owner: JPL
Wavelength Range: VSWIR
Origin: None.Collectd by:  JPL
Description: Particle size was 45-125um. Original ASTER Spectral Library name was jpl.perkin.mineral.carbonate.none.medium.c09a.spectrum.txt
Measurement: Hemispherical reflectance
X Units: Wavelength (micrometers)
Y Units: Reflectance (percent)
wavelength	value
2.5	43.504
2.494	44.0008
2.488	44.7069
2.482	45.6421
2.476	46.5113
2.47	47.5691
2.464	48.7858
2.458	49.9394
2.452	51.0763
2.446	52.0792
2.44	53.0274
2.434	53.727
2.428	54.325
2.422	54.9014
2.416	55.4281
2.41	55.6646
2.404	55.8232
2.398	55.9329
2.392	55.9041
2.386	55.7602
2.38	55.3751
2.374	54.9589
2.368	54.3127
2.362	53.6543
2.356	53.0144
2.35	52.4556
2.344	51.9488
2.338	51.6418
2.332	51.5251
2.326	51.5904
2.32	51.793
2.314	51.9948
2.308	52.4588
2.302	52.9349
2.296	53.4129
2.29	53.9856
2.284	54.5991
2.278	55.1792
2.272	55.8106
2.266	56.3906
2.26	57.0184
2.254	57.5996
2.248	58.1748
2.242	58.6939
2.236	59.2507
2.23	59.6645
2.224	60.1153
2.218	60.5836
2.212	60.9723
2.206	61.2899
2.2	61.6506
2.194	61.7648
2.188	61.985
2.182	62.1858
2.176	62.3879
2.17	62.5451
2.164	62.6625
2.158	62.8305
2.152	62.963
2.146	63.1438
2.14	63.2951
2.134	63.3691
2.128	63.4482
2.122	63.3249
2.116	63.2197
2.11	63.11
2.104	63.0167
2.098	62.9728
2.092	63.0597
2.086	63.1299
2.08	63.1895
2.074	63.2305
2.068	63.3456
2.062	63.3997
2.056	63.4071
2.05	63.456
2.044	63.421
2.038	63.4485
2.032	63.4027
2.026	63.2062
2.02	63.0445
2.014	62.9602
2.008	62.7491
2.002	62.6625
1.996	62.6309
1.99	62.5565
1.984	62.5206
1.978	62.4252
1.972	62.4763
1.966	62.4195
1.96	62.3533
1.954	62.4638
1.948	62.4123
1.942	62.4199
1.936	62.4537
1.93	62.5288
1.924	62.5409
1.918	62.6098
1.912	62.7482
1.906	62.8543
1.9	63.0233
1.894	63.2125
1.888	63.3063
1.882	63.4184
1.876	63.5156
1.87	63.5431
1.864	63.7209
1.858	63.7617
1.852	63.8108
1.846	63.8316
1.84	63.8766
1.834	63.9466
1.828	63.9431
1.822	63.9732
1.816	63.9692
1.81	63.9315
1.804	63.932
1.798	63.7856
1.792	63.7119
1.786	63.5588
1.78	63.4926
1.774	63.3517
1.768	63.2436
1.762	63.1043
1.756	62.9523
1.75	62.7853
1.744	62.6209
1.738	62.4835
1.732	62.2791
1.726	62.0402
1.72	61.8448
1.714	61.5825
1.708	61.3143
1.702	60.9821
1.696	60.6593
1.69	60.2651
1.684	59.9475
1.678	59.499
1.672	59.083
1.666	58.6168
1.66	58.1177
1.654	57.5146
1.648	56.9329
1.642	56.3201
1.636	55.7517
1.63	55.1037
1.624	54.4222
1.618	53.6455
1.612	52.9253
1.606	52.1258
1.6	51.2944
1.594	50.4126
1.588	49.5276
1.582	48.5981
1.576	47.6171
1.57	46.6328
1.564	45.6777
1.558	44.587
1.552	43.5934
1.546	42.4765
1.54	41.3383
1.534	40.3057
1.528	39.1683
1.522	38.0826
1.516	36.9548
1.51	35.9165
1.504	34.7892
1.498	33.6724
1.492	32.5722
1.486	31.5224
1.48	30.4808
1.474	29.4666
1.468	28.4501
1.462	27.479
1.456	26.5554
1.45	25.6673
1.444	24.8181
1.438	23.8673
1.432	23.0208
1.426	22.2713
1.42	21.4298
1.414	20.7473
1.408	20.0366
1.402	19.4281
1.396	18.8178
1.39	18.1376
1.384	17.6097
1.378	17.1144
1.372	16.4712
1.366	16.1826
1.36	15.6159
1.354	15.2255
1.348	14.8003
1.342	14.4671
1.336	14.1329
1.33	13.7947
1.324	13.5471
1.318	13.2332
1.312	12.9601
1.306	12.8136
1.3	12.5355
1.294	12.3725
1.288	12.2591
1.282	12.1081
1.276	11.9529
1.27	11.8429
1.264	11.7735
1.258	11.7011
1.252	11.5709
1.246	11.4914
1.24	11.4357
1.234	11.3769
1.228	11.3976
1.222	11.3059
1.216	11.2942
1.21	11.2894
1.204	11.2627
1.198	11.2335
1.192	11.2573
1.186	11.2323
1.18	11.2465
1.174	11.2247
1.168	11.2243
1.162	11.2309
1.156	11.246
1.15	11.1862
1.144	11.1529
1.138	11.1534
1.132	11.0917
1.126	11.0462
1.12	10.9941
1.114	10.9582
1.108	10.9042
1.102	10.8126
1.096	10.6892
1.09	10.7532
1.084	10.6821
1.078	10.6545
1.072	10.661
1.066	10.5995
1.06	10.9985
1.054	10.7642
1.048	10.6755
1.042	10.6299
1.036	10.601
1.03	10.6995
1.024	10.5676
1.018	10.7246
1.012	10.8733
1.006	10.9664
1	11.088
0.994	11.2622
0.988	11.458
0.982	11.7204
0.976	11.9563
0.97	12.2233
0.964	12.496
0.958	12.8842
0.952	13.3194
0.946	13.7098
0.94	14.2272
0.934	14.759
0.928	15.3757
0.922	15.955
0.916	16.6269
0.91	17.3815
0.904	18.1296
0.898	18.9629
0.892	19.8494
0.886	20.796
0.88	21.7371
0.874	22.7603
0.868	23.8366
0.862	24.9203
0.856	26.715
0.85	28.0226
0.844	29.3857
0.838	30.7216
0.832	32.136
0.826	33.5769
0.82	35.034
0.814	36.4291
0.808	37.844
0.802	39.2167
0.796	40.5472
0.79	41.8375
0.784	43.0767
0.778	44.2045
0.772	45.2677
0.766	46.2145
0.76	47.0843
0.754	47.7878
0.748	48.3783
0.742	48.85
0.736	49.1646
0.73	49.3566
0.724	49.4115
0.718	49.3509
0.712	49.1503
0.706	48.8394
0.7	48.3938
0.694	47.83
0.688	47.1578
0.682	46.3526
0.676	45.4989
0.67	44.5953
0.664	43.6701
0.658	42.7778
0.652	41.9221
0.646	41.1148
0.64	40.3356
0.634	39.6155
0.628	38.9154
0.622	38.2309
0.616	37.5439
0.61	36.8559
0.604	36.1514
0.598	35.3958
0.592	34.6104
0.586	33.7091
0.58	32.7269
0.574	31.7193
0.568	30.6324
0.562	29.5117
0.556	28.3033
0.55	27.0935
0.544	25.8287
0.538	24.5464
0.532	23.2871
0.526	22.1276
0.52	21.1128
0.514	20.2998
0.508	19.6504
0.502	19.1155
0.496	18.54
0.49	17.656
0.484	16.8873
0.478	16.5323
0.472	16.1591
0.466	15.6963
0.46	15.2951
0.454	14.7856
0.448	14.2678
0.442	13.8413
0.436	13.4811
0.43	13.0797
0.424	12.637
0.418	12.2119
0.412	11.7378
0.406	11.202
0.4	10.5422
