Name: Cerussite, PbCO3
Type: Mineral
Class: Carbonate
Subclass: None
Particle Size: Fine
Sample No.: cerussite_1
Owner: JHU
Wavelength Range: TIR
Origin: Sample from Australia; donated by Norma Vergo.
Description: The sample was a light tan irregular mass and appeared to be a pure carbonate, both in hand specimen and under the microscope. Particle size was Less than 2 Micrometers. Original ASTER Spectral Library name was jhu.nicolet.mineral.carbonate.none.powder.ceruss1.spectrum.txt
Measurement: Transmission
X Units: Wavelength (micrometers)
Y Units: Transmittance (percent)
wavelength	value
25.0442	99.1638
24.3388	98.6912
23.6719	98.8083
23.0407	98.5408
22.4422	98.9138
21.8741	98.4236
21.334	97.4216
20.8199	96.7595
20.33	96.0203
19.8627	95.9412
19.4163	95.7664
18.9896	95.6755
18.5812	95.2556
18.19	95.1892
17.815	95.239
17.4551	94.8533
17.1094	95.0232
16.7772	95.3162
16.4576	95.7927
16.15	96.031
15.8537	95.532
15.568	94.8347
15.2925	94.0916
15.0265	91.4314
14.7697	66.4412
14.5214	97.4045
14.2814	96.4983
14.0492	96.0232
13.8244	95.1409
13.6067	94.8748
13.3957	94.8962
13.1912	94.6174
12.9929	94.2146
12.8004	93.7361
12.6135	93.4451
12.432	93.1189
12.2557	92.283
12.0843	90.0452
11.9176	71.2894
11.7555	91.7986
11.5977	93.3181
11.444	93.0779
11.2944	92.4705
11.1487	91.9783
11.0067	91.3435
10.8682	90.7879
10.7332	90.4685
10.6015	90.3699
10.473	90.2009
10.3476	89.5398
10.2251	88.6008
10.1056	87.6297
9.9887	87.3015
9.8746	86.8015
9.763	86.2425
9.6539	85.3616
9.5472	82.9388
9.4429	86.2449
9.3408	85.9749
9.2409	85.6272
9.1431	85.0701
9.0474	84.6092
8.9536	85.1038
8.8618	84.9646
8.7718	84.7996
8.6837	84.5799
8.5973	84.3408
8.5126	83.8269
8.4295	83.283
8.3481	82.6931
8.2682	81.9883
8.1898	81.2625
8.1129	80.2918
8.0374	79.1268
7.9634	77.7635
7.8906	76.1797
7.8192	74.3445
7.7491	72.283
7.6802	70.252
7.6126	68.5613
7.5461	66.5931
7.4807	63.8302
7.4165	60.3651
7.3534	55.5936
7.2914	49.4252
7.2303	41.6884
7.1703	36.9093
7.1113	41.1749
7.0533	46.0013
6.9962	46.1
6.94	48.1747
6.8847	53.6632
6.8302	59.7806
6.7767	66.0867
6.7239	72.5352
6.672	78.1121
6.6209	82.4139
6.5705	85.6248
6.5209	88.2127
6.4721	90.4099
6.424	92.2266
6.3766	93.8416
6.3299	95.5635
6.2838	98.7292
6.2385	102.115
6.1937	97.1794
6.1496	95.8245
6.1062	95.8958
6.0633	96.3093
6.0211	96.7217
5.9794	97.178
5.9383	97.1279
5.8978	96.8477
5.8578	96.4949
5.8184	95.4265
5.7794	92.0652
5.741	94.3584
5.7031	96.543
5.6657	96.0901
5.6288	95.7141
5.5924	95.3982
5.5564	95.0674
5.5209	94.6912
5.4859	94.364
5.4513	94.0674
5.4171	93.7656
5.3833	93.4944
5.35	93.2102
5.3171	92.9363
5.2846	92.6707
5.2524	92.4246
5.2207	92.1533
5.1893	91.9065
5.1584	91.6878
5.1277	91.4336
5.0975	91.2063
5.0676	91.0027
5.038	90.7539
5.0088	90.5481
4.98	90.3233
4.9514	90.1111
4.9232	89.8923
4.8953	89.6787
4.8678	89.5379
4.8405	89.3718
4.8135	89.2324
4.7868	89.0437
4.7605	88.8904
4.7344	88.6775
4.7086	88.542
4.6831	88.3943
4.6578	88.2244
4.6328	88.1121
4.6081	88.0039
4.5837	87.8965
4.5595	87.7803
4.5356	87.5574
4.5119	87.3838
4.4884	87.1836
4.4652	86.9973
4.4423	86.8313
4.4196	86.6316
4.3971	86.4519
4.3748	86.2825
4.3528	86.1043
4.331	85.9265
4.3094	85.7215
4.288	85.4178
4.2668	85.1741
4.2458	85.0764
4.2251	84.8387
4.2045	84.6624
4.1841	84.2537
4.164	83.6394
4.144	83.8289
4.1242	84.5125
4.1046	84.6717
4.0852	84.5818
4.066	84.4265
4.047	84.3225
4.0281	84.2259
4.0094	84.1101
3.9909	84.033
3.9725	83.9466
3.9544	83.8582
3.9363	83.7781
3.9185	83.6902
3.9008	83.5745
3.8833	83.4378
3.8659	83.3089
3.8487	83.178
3.8316	83.0266
3.8147	82.8963
3.7979	82.7639
3.7813	82.6062
3.7648	82.4783
3.7485	82.3377
3.7323	82.2171
3.7162	82.0818
3.7003	81.9163
3.6845	81.7498
3.6689	81.5545
3.6534	81.4417
3.638	81.4182
3.6227	81.3616
3.6076	81.2371
3.5926	81.1643
3.5777	81.1062
3.563	81.0237
3.5484	80.9534
3.5338	80.8343
3.5195	80.7039
3.5052	80.3807
3.491	80.4236
3.477	80.3933
3.463	80.2542
3.4492	80.0389
3.4355	79.8191
3.4219	79.4046
3.4084	79.4119
3.395	79.5642
3.3817	79.4788
3.3685	79.4241
3.3554	79.3831
3.3425	79.3265
3.3296	79.2366
3.3168	79.1463
3.3041	79.0335
3.2915	78.9085
3.279	78.7757
3.2666	78.6228
3.2543	78.5057
3.2421	78.4148
3.23	78.284
3.218	78.1585
3.206	78.0643
3.1942	77.9666
3.1824	77.8611
3.1707	77.7791
3.1591	77.7752
3.1476	77.8772
3.1362	77.6424
3.1249	77.0516
3.1136	76.8187
3.1024	76.6272
3.0913	76.4178
3.0803	76.2635
3.0694	76.0965
3.0585	76.0281
3.0477	75.9314
3.037	75.8357
3.0264	75.7273
3.0158	75.6629
3.0053	75.5506
2.9949	75.4168
2.9845	75.3143
2.9743	75.2391
2.9641	75.2186
2.9539	75.3377
2.9439	75.7068
2.9339	76.2742
2.9239	76.8914
2.9141	76.8797
2.9043	75.9881
2.8946	75.3885
2.8849	75.5037
2.8753	75.9266
2.8658	75.9217
2.8563	75.9021
2.8469	75.6336
2.8375	75.2772
2.8282	74.8826
2.819	74.5682
2.8098	74.324
2.8007	74.1912
2.7917	74.0203
2.7827	74.0086
2.7738	74.1453
2.7649	74.1961
2.7561	74.2732
2.7473	74.2381
2.7386	74.3484
2.7299	74.1375
2.7213	74.0369
2.7128	74.0125
2.7043	74.0135
2.6959	73.8553
2.6875	73.7586
2.6791	73.6678
2.6709	73.5906
2.6626	73.494
2.6545	73.3787
2.6463	73.3406
2.6382	73.1951
2.6302	73.201
2.6222	73.1092
2.6143	73.0203
2.6064	72.9266
2.5986	72.8592
2.5908	72.7498
2.583	72.7039
2.5753	72.5936
2.5677	72.4734
2.5601	72.4373
2.5525	72.41
2.545	72.2859
2.5375	72.2225
2.5301	72.1727
2.5227	72.0701
2.5154	72.0858
2.5081	71.9998
2.5008	71.8514
2.4936	71.7576
2.4864	71.744
2.4793	71.7147
2.4722	71.6346
2.4651	71.4764
2.4581	71.449
2.4511	71.535
2.4442	71.3865
2.4373	71.3377
2.4305	71.2303
2.4236	71.1014
2.4169	71.1033
2.4101	70.992
2.4034	70.9373
2.3967	70.8553
2.3901	70.824
2.3835	70.699
2.377	70.6697
2.3704	70.742
2.364	70.5252
2.3575	70.4686
2.3511	70.3826
2.3447	70.3358
2.3384	70.3533
2.3321	70.2674
2.3258	70.2069
2.3195	70.0311
2.3133	69.9139
2.3071	69.8475
2.301	69.91
2.2949	69.8611
2.2888	69.6736
2.2828	69.7186
2.2767	69.6268
2.2708	69.5506
2.2648	69.4471
2.2589	69.4471
2.253	69.3631
2.2471	69.2694
2.2413	69.1893
2.2355	69.1815
2.2297	69.0858
2.224	69.1424
2.2183	69.1248
2.2126	69.033
2.207	68.9334
2.2013	68.7908
2.1957	68.7205
2.1902	68.6737
2.1846	68.6639
2.1791	68.6502
2.1736	68.4608
2.1682	68.2908
2.1628	68.1502
2.1574	68.3768
2.152	68.2186
2.1466	68.2049
2.1413	68.0897
2.136	68.1131
2.1308	68.0155
2.1255	67.867
2.1203	67.8748
2.1151	67.8944
2.11	67.8201
2.1048	67.6756
2.0997	67.6287
2.0946	67.5975
2.0895	67.5936
2.0845	67.4686
2.0795	67.3201
