Name: Olivine (Fo51) (Fe+2,Mg)2SiO4
Type: Mineral
Class: Silicate
Subclass: Nesosilicate
Particle Size: Coarse
Sample No.: olivine_5
Owner: JHU
Wavelength Range: TIR
Origin: Kiglapait Intrusion, Labrador via Trude King #KI3188(obtained from S.A. Morse, Univ. of Mass.)
Description: Initially, the specimen was contaminated with pyroxene, spinel, and ilmenite.  Heavy liquid separation, followed by magnetic separation and hand picking, allowed olivines of different iron content to be obtained.  Sample ground to <60 micrometers and wet sieved.  Sample preparation by Trude King, USGS, Denver.Particle size was 0-60 micrometers, but Packed powder simulates coarse. (Isolated tetrahedra); (Olivine Group) Original ASTER Spectral Library name was jhu.nicolet.mineral.silicate.nesosilicate.packed.olivin5.spectrum.txt
Measurement: Bidirectional reflectance
X Units: Wavelength (micrometers)
Y Units: Reflectance (percent)
wavelength	value
25.0442	9.685
24.3388	8.8762
23.6719	7.2549
23.0407	6.146
22.4422	5.8418
21.8741	5.772
21.334	6.1694
20.8199	7.3808
20.33	7.8662
19.8627	7.8154
19.4163	8.7312
18.9896	9.456
18.5812	9.6987
18.19	8.4756
17.815	5.9355
17.4551	4.741
17.1094	4.8481
16.7772	5.1828
16.4576	5.4377
16.15	5.1894
15.8537	4.2466
15.568	3.5815
15.2925	3.6501
15.0265	3.9233
14.7697	4.1743
14.5214	4.4001
14.2814	4.6694
14.0492	4.8108
13.8244	4.9353
13.6067	5.0908
13.3957	5.168
13.1912	5.2407
12.9929	5.2463
12.8004	5.29
12.6135	5.2483
12.432	5.1841
12.2557	5.209
12.0843	5.3472
11.9176	5.0845
11.7555	5.583
11.5977	6.2681
11.444	7.2842
11.2944	8.1345
11.1487	8.7561
11.0067	9.456
10.8682	10.1933
10.7332	10.583
10.6015	8.3576
10.473	7.8955
10.3476	9.6513
10.2251	9.0854
10.1056	8.4555
9.9887	8.0195
9.8746	7.7012
9.763	7.5688
9.6539	7.5461
9.5472	7.2849
9.4429	6.2375
9.3408	4.7429
9.2409	3.5342
9.1431	3.0566
9.0474	3.0649
8.9536	3.2412
8.8618	3.6496
8.7718	3.9424
8.6837	4.1626
8.5973	4.3567
8.5126	4.5745
8.4295	4.7578
8.3481	4.9299
8.2682	5.115
8.1898	5.2685
8.1129	5.3982
8.0374	5.456
7.9634	5.4756
7.8906	5.49
7.8192	5.5107
7.7491	5.4914
7.6802	5.4785
7.6126	5.5212
7.5461	5.6015
7.4807	5.6821
7.4165	5.7358
7.3534	5.7939
7.2914	5.8415
7.2303	5.8782
7.1703	5.8965
7.1113	5.9206
7.0533	5.9692
6.9962	5.9941
6.94	6.008
6.8847	6.02
6.8302	6.0578
6.7767	6.0991
6.7239	6.1028
6.672	6.0928
6.6209	6.0906
6.5705	6.0923
6.5209	6.0708
6.4721	6.0571
6.424	6.032
6.3766	6.0119
6.3299	5.9883
6.2838	5.9719
6.2385	5.9443
6.1937	5.8955
6.1496	5.8081
6.1062	5.6416
6.0633	5.4333
6.0211	5.406
5.9794	5.4524
5.9383	5.4634
5.8978	5.4836
5.8578	5.5027
5.8184	5.5119
5.7794	5.4375
5.741	5.281
5.7031	5.1528
5.6657	5.1521
5.6288	5.2453
5.5924	5.3286
5.5564	5.3494
5.5209	5.3642
5.4859	5.4028
5.4513	5.4707
5.4171	5.5268
5.3833	5.5698
5.35	5.5984
5.3171	5.6338
5.2846	5.6855
5.2524	5.7368
5.2207	5.7959
5.1893	5.8342
5.1584	5.8635
5.1277	5.8938
5.0975	5.9111
5.0676	5.926
5.038	5.97
5.0088	6.0439
4.98	6.1189
4.9514	6.2085
4.9232	6.2707
4.8953	6.3252
4.8678	6.3662
4.8405	6.4099
4.8135	6.4253
4.7868	6.4477
4.7605	6.4707
4.7344	6.4922
4.7086	6.5254
4.6831	6.5488
4.6578	6.5781
4.6328	6.5969
4.6081	6.635
4.5837	6.6719
4.5595	6.6972
4.5356	6.7148
4.5119	6.7483
4.4884	6.7761
4.4652	6.8149
4.4423	6.8513
4.4196	6.8838
4.3971	6.9282
4.3748	6.9548
4.3528	6.9868
4.331	7.011
4.3094	7.0332
4.288	7.0744
4.2668	7.1086
4.2458	7.143
4.2251	7.1582
4.2045	7.1911
4.1841	7.2151
4.164	7.2378
4.144	7.2588
4.1242	7.2778
4.1046	7.3056
4.0852	7.3393
4.066	7.3542
4.047	7.3894
4.0281	7.416
4.0094	7.4389
3.9909	7.4604
3.9725	7.4792
3.9544	7.4975
3.9363	7.5349
3.9185	7.562
3.9008	7.5932
3.8833	7.6189
3.8659	7.6257
3.8487	7.646
3.8316	7.6589
3.8147	7.6887
3.7979	7.7031
3.7813	7.7295
3.7648	7.7461
3.7485	7.7612
3.7323	7.7724
3.7162	7.7795
3.7003	7.7878
3.6845	7.8022
3.6689	7.813
3.6534	7.8215
3.638	7.8481
3.6227	7.854
3.6076	7.8601
3.5926	7.8659
3.5777	7.8535
3.563	7.8528
3.5484	7.8503
3.5338	7.8376
3.5195	7.7827
3.5052	7.574
3.491	7.6875
3.477	7.7363
3.463	7.7295
3.4492	7.6775
3.4355	7.5686
3.4219	7.3406
3.4084	7.4404
3.395	7.6426
3.3817	7.6401
3.3685	7.716
3.3554	7.8113
3.3425	7.8388
3.3296	7.8401
3.3168	7.8345
3.3041	7.8428
3.2915	7.8308
3.279	7.8188
3.2666	7.8061
3.2543	7.7973
3.2421	7.7783
3.23	7.7514
3.218	7.7312
3.206	7.7258
3.1942	7.7012
3.1824	7.676
3.1707	7.6423
3.1591	7.6289
3.1476	7.5937
3.1362	7.5637
3.1249	7.5622
3.1136	7.5408
3.1024	7.5146
3.0913	7.4958
3.0803	7.4885
3.0694	7.4653
3.0585	7.4436
3.0477	7.4304
3.037	7.4075
3.0264	7.4013
3.0158	7.3677
3.0053	7.3393
2.9949	7.3174
2.9845	7.3052
2.9743	7.2754
2.9641	7.2722
2.9539	7.239
2.9439	7.2234
2.9339	7.1916
2.9239	7.186
2.9141	7.1618
2.9043	7.1467
2.8946	7.1252
2.8849	7.1033
2.8753	7.0918
2.8658	7.0666
2.8563	7.0525
2.8469	7.0368
2.8375	7.0093
2.8282	6.9504
2.819	6.9419
2.8098	6.9328
2.8007	6.917
2.7917	6.9211
2.7827	6.9153
2.7738	6.9043
2.7649	6.9109
2.7561	6.895
2.7473	6.8821
2.7386	6.9189
2.7299	6.9226
2.7213	7.0119
2.7128	7.1811
2.7043	7.5715
2.6959	7.853
2.6875	7.947
2.6791	7.9866
2.6709	8.0071
2.6626	7.9966
2.6545	7.9714
2.6463	7.9743
2.6382	7.9634
2.6302	7.9629
2.6222	7.9546
2.6143	7.9472
2.6064	7.9365
2.5986	7.935
2.5908	7.9204
2.583	7.9153
2.5753	7.9023
2.5677	7.8728
2.5601	7.8667
2.5525	7.8481
2.545	7.8176
2.5375	7.8481
2.5301	7.8069
2.5227	7.81
2.5154	7.7851
2.5081	7.7844
2.5008	7.7737
2.4936	7.7795
2.4864	7.7434
2.4793	7.7585
2.4722	7.7436
2.4651	7.7353
2.4581	7.7492
2.4511	7.7295
2.4442	7.7095
2.4373	7.6933
2.4305	7.7075
2.4236	7.6592
2.4169	7.6911
2.4101	7.6816
2.4034	7.6543
2.3967	7.6553
2.3901	7.6286
2.3835	7.6323
2.377	7.6211
2.3704	7.5854
2.364	7.5986
2.3575	7.5957
2.3511	7.5762
2.3447	7.5742
2.3384	7.562
2.3321	7.5386
2.3258	7.5478
2.3195	7.5307
2.3133	7.5322
2.3071	7.5513
2.301	7.5381
2.2949	7.5332
2.2888	7.5483
2.2828	7.5229
2.2767	7.522
2.2708	7.5449
2.2648	7.5386
2.2589	7.5361
2.253	7.5561
2.2471	7.5466
2.2413	7.5346
2.2355	7.552
2.2297	7.5359
2.224	7.5139
2.2183	7.5107
2.2126	7.5298
2.207	7.511
2.2013	7.5012
2.1957	7.4953
2.1902	7.5185
2.1846	7.5163
2.1791	7.529
2.1736	7.5051
2.1682	7.5071
2.1628	7.5513
2.1574	7.5359
2.152	7.4973
2.1466	7.5395
2.1413	7.5586
2.136	7.5539
2.1308	7.5598
2.1255	7.5776
2.1203	7.5552
2.1151	7.5801
2.11	7.5483
2.1048	7.561
2.0997	7.561
2.0946	7.6294
2.0895	7.6211
2.0845	7.6054
2.0795	7.6125
