Name: Ferroaxinite Ca_2Fe^2+Al_2BSi_4O_15(OH)
Type: Mineral
Class: Silicate
Subclass: Cyclosilicate
Particle Size: Coarse
Sample No.: CS-4A
Owner: JPL
Wavelength Range: TIR
Origin: Mexico, Baja California Norte, Los Gavelontos
Description: Particle size was 125-500um.Collected by Ward's Original ASTER Spectral Library name was jpl.nicolet.mineral.silicate.cyclosilicate.coarse.cs04a.spectrum.txt
Measurement: Hemispherical reflectance
X Units: Wavelength (micrometers)
Y Units: Reflectance (percent)
wavelength	value
15.3853	1.5904
15.1161	2.7487
14.8563	2.2492
14.6052	1.3533
14.3624	2.1879
14.1276	2.5623
13.9004	3.3544
13.6803	3.4042
13.4671	4.1053
13.2604	4.6971
13.06	5.4399
12.8656	6.0739
12.6769	5.6288
12.4936	6.4723
12.3155	7.7388
12.1425	9.0571
11.9742	9.0939
11.8106	11.6904
11.6513	13.521
11.4963	16.6644
11.3454	19.7638
11.1983	20.6177
11.0551	13.6857
10.9154	16.6712
10.7793	19.9493
10.6465	25.296
10.5169	26.8444
10.3904	16.2256
10.267	9.71
10.1464	8.5336
10.0287	8.3471
9.9136	10.9186
9.8012	6.6535
9.6913	8.8562
9.5838	16.5823
9.4787	18.055
9.3758	23.5578
9.2752	23.3224
9.1767	24.7781
9.0803	23.5542
8.9858	14.675
8.8934	9.0327
8.8028	6.3562
8.714	5.7737
8.627	2.576
8.5417	0.9684
8.4581	0.3332
8.3761	0.159
8.2957	0.2557
8.2169	0.2031
8.1395	0.3437
8.0635	0.2594
7.989	0.4911
7.9158	0.4658
7.8439	0.6244
7.7734	0.7494
7.7041	0.8206
7.636	1.027
7.5691	0.9902
7.5034	1.1636
7.4388	1.4128
7.3753	1.5242
7.3129	1.599
7.2515	1.7277
7.1912	1.8912
7.1318	2.085
7.0734	2.2342
7.016	2.1666
6.9595	2.34
6.9039	2.4366
6.8492	2.4378
6.7953	2.5691
6.7423	2.6053
6.6901	2.5244
6.6387	2.7831
6.5881	2.8708
6.5382	2.9807
6.4892	3.2295
6.4408	3.1593
6.3931	3.21
6.3462	3.4255
6.2999	3.5283
6.2543	3.4911
6.2094	3.6995
6.1651	3.7778
6.1214	3.9069
6.0784	3.9027
6.0359	3.8728
5.994	3.683
5.9527	3.4972
5.912	3.2194
5.8718	3.0167
5.8322	2.7719
5.7931	2.5602
5.7545	2.408
5.7165	2.6829
5.6789	2.7811
5.6418	3.0733
5.6052	3.1885
5.5691	3.3882
5.5334	3.4907
5.4982	3.6095
5.4635	3.7391
5.4291	3.7064
5.3952	3.8624
5.3618	3.9852
5.3287	3.9779
5.2961	4.219
5.2638	4.3869
5.2319	4.2485
5.2004	4.3275
5.1693	4.3367
5.1386	4.4936
5.1082	4.6545
5.0782	4.893
5.0485	5.1456
5.0192	5.3603
4.9902	5.6635
4.9616	5.9121
4.9332	6.1432
4.9052	6.5675
4.8776	7.1896
4.8502	7.6895
4.8231	8.1799
4.7963	8.6336
4.7699	9.3379
4.7437	10.0187
4.7178	10.6891
4.6922	11.4485
4.6668	12.6482
4.6418	13.6982
4.617	14.9329
4.5924	15.8658
4.5681	16.0959
4.5441	16.3159
4.5203	16.3925
4.4968	16.6896
4.4735	17.8734
4.4505	19.0556
4.4277	20.5067
4.4051	21.9369
4.3828	23.5187
4.3607	24.9937
4.3388	26.0262
4.3171	26.8208
4.2956	27.5219
4.2744	28.109
4.2534	28.3565
4.2325	29.0123
4.2119	29.0598
4.1915	29.1134
4.1712	29.2761
4.1512	29.4421
4.1313	29.3783
4.1117	29.2743
4.0922	28.9388
4.0729	28.5499
4.0538	28.4745
4.0349	28.3895
4.0161	29.1128
3.9976	29.7912
3.9792	28.7142
3.9609	30.4947
3.9428	30.4568
3.9249	30.6239
3.9072	31.1655
3.8896	31.319
3.8722	31.1832
3.8549	30.268
3.8378	29.1227
3.8208	28.0603
3.804	27.3494
3.7873	27.1788
3.7708	27.3327
3.7544	27.7866
3.7382	28.0571
3.7221	28.0545
3.7061	27.4603
3.6903	26.6986
3.6746	25.772
3.659	25.295
3.6436	25.2584
3.6283	25.7414
3.6131	26.1631
3.5981	26.2344
3.5832	26.0961
3.5684	25.7431
3.5537	25.3521
3.5391	24.8663
3.5247	24.6238
3.5104	24.6108
3.4962	24.3517
3.4821	23.8799
3.4681	23.3077
3.4543	22.5668
3.4405	22.1808
3.4269	22.173
3.4133	22.0537
3.3999	21.2538
3.3866	19.7862
3.3733	17.9627
3.3602	16.6609
3.3472	16.5989
3.3343	16.7957
3.3215	17.0377
3.3088	17.1863
3.2961	16.9091
3.2836	16.2384
3.2712	15.3343
3.2588	14.3302
3.2466	13.5224
3.2345	12.8036
3.2224	12.4196
3.2104	11.9849
3.1985	12.0126
3.1867	11.7229
3.175	11.2771
3.1634	10.9926
3.1519	11.0669
3.1404	11.0361
3.129	10.8312
3.1178	10.4087
3.1065	9.8822
3.0954	9.0454
3.0844	8.4262
3.0734	8.2656
3.0625	7.8746
3.0517	7.9258
3.041	7.9732
3.0303	8.1067
3.0197	7.9869
3.0092	7.7523
2.9987	7.3891
2.9884	6.9157
2.9781	6.9029
2.9678	6.6468
2.9577	6.5548
2.9476	5.5964
2.9376	5.5184
2.9276	6.0642
2.9177	6.4731
2.9079	6.737
2.8982	6.9398
2.8885	7.1165
2.8789	7.0826
2.8693	7.1241
2.8598	7.3711
2.8504	7.505
2.841	8.1332
2.8317	8.7066
2.8224	9.1767
2.8133	9.7416
2.8041	9.9833
2.7951	9.9062
2.786	10.0307
2.7771	10.2267
2.7682	11.1196
2.7594	11.8552
2.7506	12.7585
2.7418	13.6173
2.7332	14.0198
2.7246	16.289
2.716	17.8398
2.7075	20.515
2.699	21.9958
2.6906	23.0725
2.6823	23.7604
2.674	23.6933
2.6657	24.288
2.6575	23.7251
2.6494	26.1736
2.6413	28.0055
2.6332	28.9856
2.6252	29.1557
2.6173	30.2035
2.6094	29.6967
2.6015	29.3913
2.5937	30.0983
2.5859	28.6573
2.5782	28.8133
2.5706	28.3726
2.5629	27.5292
2.5554	25.8157
2.5478	25.2368
2.5403	24.4744
2.5329	23.9123
2.5255	23.6576
2.5181	23.3193
2.5108	23.11
2.5035	22.7939
2.4963	22.2481
2.4891	22.2259
2.482	22.0716
2.4749	21.9956
2.4678	21.6949
2.4608	21.1098
2.4538	20.6811
2.4468	19.9236
2.4399	19.4206
2.4331	19.0759
2.4262	18.325
2.4194	17.6811
2.4127	16.9011
2.4059	16.2783
2.3993	15.6883
2.3926	14.9418
2.386	13.976
2.3795	12.4086
2.3729	10.8057
2.3664	10.5995
2.36	11.0177
2.3535	11.1487
2.3471	10.6998
2.3408	10.2415
2.3345	8.7836
2.3282	7.8497
2.3219	7.4287
2.3157	8.0851
2.3095	7.9359
2.3034	7.7892
2.2972	7.9249
2.2911	8.5176
2.2851	8.5986
2.279	8.8377
2.2731	8.8611
2.2671	9.0245
2.2612	9.2096
2.2553	9.4978
2.2494	9.5194
2.2435	9.4666
2.2377	9.2544
2.232	9.2592
2.2262	9.3241
2.2205	9.4415
2.2148	9.0927
2.2091	9.3346
2.2035	9.2173
2.1979	8.8572
2.1923	8.9435
2.1868	8.8084
2.1812	8.8444
2.1758	8.9808
2.1703	8.8287
2.1649	8.5895
2.1595	8.7094
2.1541	8.7329
2.1487	8.5458
2.1434	8.6824
2.1381	8.5869
2.1328	8.6587
2.1275	8.3936
2.1223	8.5513
2.1171	8.6418
2.112	8.4464
2.1068	8.2064
2.1017	8.8432
2.0966	8.5973
2.0915	8.4149
2.0865	8.5923
2.0814	8.3642
2.0764	8.6151
2.0715	8.5206
2.0665	8.6395
2.0616	8.4376
2.0567	8.4177
2.0518	8.3084
2.0469	8.3593
2.0421	8.703
2.0373	8.3691
2.0325	8.4833
2.0277	8.5079
2.0229	8.6012
2.0182	8.563
2.0135	8.6875
2.0088	8.4579
2.0042	8.8029
