Name: Calcite CaCO_3
Type: Mineral
Class: Carbonate
Subclass: None
Particle Size: Medium
Sample No.: C-3A
Owner: JPL
Wavelength Range: VSWIR
Origin: Italy.
Description: TravertineParticle size was 45-125um.Collected by:  Ward's Original ASTER Spectral Library name was jpl.perkin.mineral.carbonate.none.medium.c03a.spectrum.txt
Measurement: Hemispherical reflectance
X Units: Wavelength (micrometers)
Y Units: Reflectance (percent)
wavelength	value
2.5	52.4647
2.494	52.9178
2.488	53.7965
2.482	55.2963
2.476	57.084
2.47	59.3639
2.464	61.7925
2.458	64.1976
2.452	66.1493
2.446	67.8633
2.44	69.351
2.434	70.6739
2.428	71.8067
2.422	72.8999
2.416	73.8219
2.41	74.3139
2.404	74.7782
2.398	75.0895
2.392	75.3073
2.386	75.4548
2.38	75.043
2.374	73.8788
2.368	71.8308
2.362	68.8843
2.356	65.3058
2.35	61.7855
2.344	59.2587
2.338	58.2946
2.332	58.7493
2.326	60.063
2.32	61.6618
2.314	63.0406
2.308	64.0726
2.302	64.8863
2.296	65.7409
2.29	66.8332
2.284	68.2087
2.278	69.7754
2.272	71.4479
2.266	72.9525
2.26	74.3687
2.254	75.4382
2.248	76.4733
2.242	77.3546
2.236	78.2152
2.23	78.9331
2.224	79.6443
2.218	80.1259
2.212	80.5769
2.206	81.03
2.2	81.3593
2.194	81.6035
2.188	81.6897
2.182	81.6331
2.176	81.351
2.17	81.1246
2.164	80.9009
2.158	80.8797
2.152	80.8918
2.146	81.3627
2.14	81.906
2.134	82.2857
2.128	82.2656
2.122	82.2266
2.116	82.0627
2.11	81.9067
2.104	81.8109
2.098	81.7611
2.092	81.884
2.086	82
2.08	82.0148
2.074	82.0914
2.068	82.1451
2.062	82.0845
2.056	82.1673
2.05	82.1319
2.044	82.0884
2.038	81.9961
2.032	81.7775
2.026	81.4574
2.02	81.1455
2.014	80.7069
2.008	80.0192
2.002	79.1252
1.996	78.5581
1.99	78.8671
1.984	79.1506
1.978	79.1935
1.972	79.1259
1.966	78.9707
1.96	79.0503
1.954	79.0946
1.948	79.1007
1.942	79.1509
1.936	79.2844
1.93	79.4457
1.924	79.7908
1.918	80.2568
1.912	80.8562
1.906	81.5627
1.9	82.2452
1.894	82.7727
1.888	82.8939
1.882	82.295
1.876	82.0832
1.87	82.8724
1.864	83.7737
1.858	84.307
1.852	84.6717
1.846	84.8599
1.84	85.0894
1.834	85.4294
1.828	85.6617
1.822	85.8662
1.816	85.9965
1.81	86.1695
1.804	86.2347
1.798	86.3064
1.792	86.3241
1.786	86.3007
1.78	86.3036
1.774	86.2958
1.768	86.2035
1.762	86.0206
1.756	86.0362
1.75	86.1175
1.744	86.1752
1.738	86.2341
1.732	86.3016
1.726	86.2462
1.72	86.3645
1.714	86.4609
1.708	86.5675
1.702	86.6288
1.696	86.6203
1.69	86.7154
1.684	86.8157
1.678	86.8437
1.672	86.9016
1.666	86.8762
1.66	86.9037
1.654	86.9176
1.648	86.9533
1.642	86.9611
1.636	87.0255
1.63	87.0211
1.624	87.0007
1.618	87.089
1.612	87.1608
1.606	87.1496
1.6	87.1601
1.594	87.142
1.588	87.1337
1.582	87.0993
1.576	87.0319
1.57	86.9704
1.564	86.8684
1.558	86.9591
1.552	86.9614
1.546	86.8603
1.54	86.9657
1.534	86.8388
1.528	86.798
1.522	86.73
1.516	86.6739
1.51	86.655
1.504	86.6108
1.498	86.5332
1.492	86.4868
1.486	86.3979
1.48	86.2698
1.474	86.3319
1.468	86.2184
1.462	86.318
1.456	86.1836
1.45	86.3076
1.444	86.277
1.438	86.3143
1.432	86.3482
1.426	86.4888
1.42	86.6659
1.414	86.75
1.408	86.9805
1.402	87.0949
1.396	87.4039
1.39	87.4643
1.384	87.6444
1.378	87.7001
1.372	87.7518
1.366	87.8042
1.36	87.763
1.354	87.8465
1.348	87.7872
1.342	87.7998
1.336	87.8588
1.33	87.8937
1.324	87.8322
1.318	87.9487
1.312	87.8377
1.306	87.9424
1.3	87.8752
1.294	87.8942
1.288	87.8241
1.282	87.881
1.276	87.9048
1.27	87.8967
1.264	87.8171
1.258	87.9061
1.252	87.8344
1.246	87.8415
1.24	87.8315
1.234	87.8398
1.228	87.8787
1.222	87.7991
1.216	87.7969
1.21	87.8237
1.204	87.8097
1.198	87.7984
1.192	87.8236
1.186	87.744
1.18	87.8191
1.174	87.7838
1.168	87.7831
1.162	87.8313
1.156	87.7492
1.15	87.7702
1.144	87.8533
1.138	87.8339
1.132	87.7879
1.126	87.8049
1.12	87.7428
1.114	87.7649
1.108	87.7963
1.102	87.7824
1.096	87.7377
1.09	87.8353
1.084	87.8153
1.078	87.7952
1.072	87.8654
1.066	87.7709
1.06	87.7523
1.054	87.6703
1.048	87.7605
1.042	87.8087
1.036	87.7332
1.03	87.7248
1.024	87.8073
1.018	87.7448
1.012	87.6934
1.006	87.7532
1	87.7215
0.994	87.7196
0.988	87.7478
0.982	87.629
0.976	87.67
0.97	87.7076
0.964	87.7036
0.958	87.6413
0.952	87.686
0.946	87.6687
0.94	87.6825
0.934	87.5775
0.928	87.5843
0.922	87.6466
0.916	87.5721
0.91	87.5047
0.904	87.5324
0.898	87.4474
0.892	87.5139
0.886	87.4242
0.88	87.4207
0.874	87.3908
0.868	87.3802
0.862	87.3806
0.856	87.3818
0.85	87.2687
0.844	87.3043
0.838	87.2762
0.832	87.2324
0.826	87.2208
0.82	87.2223
0.814	87.1834
0.808	87.1051
0.802	87.1213
0.796	87.0063
0.79	86.9079
0.784	86.8532
0.778	86.7806
0.772	86.7308
0.766	86.6354
0.76	86.5797
0.754	86.4436
0.748	86.4022
0.742	86.3069
0.736	86.2206
0.73	86.1147
0.724	86.0178
0.718	85.8885
0.712	85.7665
0.706	85.6303
0.7	85.4991
0.694	85.3254
0.688	85.1797
0.682	85.0186
0.676	84.8279
0.67	84.654
0.664	84.452
0.658	84.2739
0.652	84.0525
0.646	83.858
0.64	83.6397
0.634	83.4074
0.628	83.1633
0.622	82.8731
0.616	82.6019
0.61	82.2973
0.604	81.9806
0.598	81.6803
0.592	81.389
0.586	81.0195
0.58	80.6089
0.574	80.2186
0.568	79.7715
0.562	79.3441
0.556	78.8458
0.55	78.3566
0.544	77.8376
0.538	77.3107
0.532	76.7719
0.526	76.214
0.52	75.6432
0.514	75.0415
0.508	74.4324
0.502	73.8078
0.496	73.1213
0.49	72.451
0.484	71.7581
0.478	71.1018
0.472	70.4707
0.466	69.7716
0.46	69.0521
0.454	68.3114
0.448	67.513
0.442	66.6236
0.436	65.7661
0.43	64.8225
0.424	63.8525
0.418	62.8743
0.412	61.8377
0.406	60.7714
0.4	59.6294
