Name: Olivine (Fo18) (Fe+2,Mg)2SiO4
Type: Mineral
Class: Silicate
Subclass: Nesosilicate
Particle Size: Coarse
Sample No.: olivine_2
Owner: JHU
Wavelength Range: TIR
Origin: Kiglapait Intrusion, Labrador via Trude King #KI3377(obtained from S.A. Morse, Univ. of Mass.)
Description: Initially, the specimen was contaminated with pyroxene, spinel, and ilmenite.  Heavy liquid separation, followed by magnetic separation and hand picking, allowed olivines of different iron content to be obtained.  The sample was ground to <60 micrometers and wet sieved.  Sample preparation by Trude King, USGS, Denver. Particle size was 0-60 micrometers, but packed powder simulates coarse. (Isolated tetrahedra); (Olivine Group) Original ASTER Spectral Library name was jhu.nicolet.mineral.silicate.nesosilicate.packed.olivin2.spectrum.txt
Measurement: Bidirectional reflectance
X Units: Wavelength (micrometers)
Y Units: Reflectance (percent)
wavelength	value
25.0442	3.6948
24.3388	4.105
23.6719	4.0669
23.0407	4.1196
22.4422	4.4287
21.8741	5.0517
21.334	6.1301
20.8199	6.9292
20.33	7.0622
19.8627	7.9792
19.4163	8.4861
18.9896	8.3991
18.5812	6.7143
18.19	4.7261
17.815	4.2522
17.4551	4.8122
17.1094	5.2095
16.7772	5.3708
16.4576	4.6499
16.15	3.1423
15.8537	2.8032
15.568	3.1521
15.2925	3.4756
15.0265	3.8076
14.7697	4.0466
14.5214	4.2248
14.2814	4.4333
14.0492	4.5876
13.8244	4.6045
13.6067	4.5945
13.3957	4.5627
13.1912	4.5329
12.9929	4.5185
12.8004	4.4431
12.6135	4.3608
12.432	4.3574
12.2557	4.4299
12.0843	4.904
11.9176	4.2754
11.7555	5.418
11.5977	6.935
11.444	8.2007
11.2944	8.977
11.1487	9.6167
11.0067	10.237
10.8682	9.7202
10.7332	6.4011
10.6015	7.6357
10.473	9.3559
10.3476	7.7634
10.2251	6.9477
10.1056	6.3625
9.9887	6.1523
9.8746	6.2153
9.763	6.207
9.6539	5.1833
9.5472	3.7244
9.4429	2.6121
9.3408	2.2585
9.2409	2.4187
9.1431	2.706
9.0474	3.0178
8.9536	3.3682
8.8618	3.6309
8.7718	3.8865
8.6837	4.1531
8.5973	4.386
8.5126	4.6645
8.4295	4.9011
8.3481	5.1675
8.2682	5.4258
8.1898	5.6208
8.1129	5.6741
8.0374	5.6284
7.9634	5.592
7.8906	5.5449
7.8192	5.4829
7.7491	5.5229
7.6802	5.6267
7.6126	5.7637
7.5461	5.894
7.4807	5.9739
7.4165	6.0347
7.3534	6.0925
7.2914	6.1035
7.2303	6.1079
7.1703	6.112
7.1113	6.1384
7.0533	6.1445
6.9962	6.1655
6.94	6.1745
6.8847	6.1899
6.8302	6.1875
6.7767	6.1714
6.7239	6.1262
6.672	6.1196
6.6209	6.133
6.5705	6.1362
6.5209	6.1003
6.4721	6.073
6.424	6.0322
6.3766	5.9563
6.3299	5.8835
6.2838	5.8076
6.2385	5.7253
6.1937	5.6084
6.1496	5.4001
6.1062	5.0742
6.0633	4.9087
6.0211	5.0107
5.9794	5.0351
5.9383	5.0293
5.8978	5.0635
5.8578	5.0847
5.8184	4.9953
5.7794	4.7878
5.741	4.5893
5.7031	4.5483
5.6657	4.6577
5.6288	4.7583
5.5924	4.7991
5.5564	4.8432
5.5209	4.9126
5.4859	5.0149
5.4513	5.1001
5.4171	5.1609
5.3833	5.2041
5.35	5.292
5.3171	5.3921
5.2846	5.4787
5.2524	5.5576
5.2207	5.6128
5.1893	5.6582
5.1584	5.708
5.1277	5.779
5.0975	5.8862
5.0676	6.0017
5.038	6.1233
5.0088	6.218
4.98	6.2991
4.9514	6.3738
4.9232	6.4375
4.8953	6.5034
4.8678	6.5781
4.8405	6.6506
4.8135	6.7021
4.7868	6.7676
4.7605	6.831
4.7344	6.9023
4.7086	6.9736
4.6831	7.0505
4.6578	7.1238
4.6328	7.2048
4.6081	7.2978
4.5837	7.3745
4.5595	7.4563
4.5356	7.5476
4.5119	7.6264
4.4884	7.7187
4.4652	7.8125
4.4423	7.8948
4.4196	7.9936
4.3971	8.0962
4.3748	8.2041
4.3528	8.2949
4.331	8.3742
4.3094	8.4719
4.288	8.5722
4.2668	8.676
4.2458	8.7793
4.2251	8.8872
4.2045	9.0005
4.1841	9.1025
4.164	9.2192
4.144	9.3054
4.1242	9.4104
4.1046	9.5158
4.0852	9.6264
4.066	9.728
4.047	9.8301
4.0281	9.9394
4.0094	10.0573
3.9909	10.185
3.9725	10.2922
3.9544	10.4009
3.9363	10.5197
3.9185	10.6272
3.9008	10.7478
3.8833	10.8698
3.8659	10.9641
3.8487	11.0844
3.8316	11.1792
3.8147	11.2895
3.7979	11.414
3.7813	11.5217
3.7648	11.6379
3.7485	11.7273
3.7323	11.8374
3.7162	11.9402
3.7003	12.0315
3.6845	12.1242
3.6689	12.2238
3.6534	12.3152
3.638	12.4055
3.6227	12.4953
3.6076	12.5937
3.5926	12.6819
3.5777	12.7578
3.563	12.8215
3.5484	12.8884
3.5338	12.906
3.5195	12.8403
3.5052	12.581
3.491	12.8388
3.477	12.9773
3.463	13.0515
3.4492	13.0024
3.4355	12.8745
3.4219	12.5783
3.4084	12.7756
3.395	13.155
3.3817	13.2265
3.3685	13.3994
3.3554	13.6152
3.3425	13.728
3.3296	13.7749
3.3168	13.8227
3.3041	13.8005
3.2915	13.8828
3.279	13.9128
3.2666	13.8977
3.2543	13.9106
3.2421	13.9318
3.23	13.9536
3.218	13.9416
3.206	13.947
3.1942	13.9355
3.1824	13.9314
3.1707	13.9206
3.1591	13.9123
3.1476	13.8867
3.1362	13.8532
3.1249	13.843
3.1136	13.8349
3.1024	13.8393
3.0913	13.8315
3.0803	13.8303
3.0694	13.8239
3.0585	13.8117
3.0477	13.82
3.037	13.8081
3.0264	13.7717
3.0158	13.7463
3.0053	13.7141
2.9949	13.6811
2.9845	13.6579
2.9743	13.6145
2.9641	13.5888
2.9539	13.5603
2.9439	13.56
2.9339	13.5627
2.9239	13.5656
2.9141	13.5666
2.9043	13.5813
2.8946	13.5703
2.8849	13.5222
2.8753	13.4936
2.8658	13.4421
2.8563	13.3891
2.8469	13.3278
2.8375	13.2299
2.8282	13.0854
2.819	12.9487
2.8098	12.864
2.8007	12.8266
2.7917	12.852
2.7827	12.9489
2.7738	13.1318
2.7649	13.4235
2.7561	13.7758
2.7473	14.4675
2.7386	15.3693
2.7299	16.3027
2.7213	17.4411
2.7128	18.1286
2.7043	18.5756
2.6959	18.8884
2.6875	19.0822
2.6791	19.2416
2.6709	19.3674
2.6626	19.4194
2.6545	19.4313
2.6463	19.4777
2.6382	19.4926
2.6302	19.5695
2.6222	19.5624
2.6143	19.6003
2.6064	19.6137
2.5986	19.6225
2.5908	19.6662
2.583	19.6867
2.5753	19.7077
2.5677	19.6984
2.5601	19.7214
2.5525	19.6921
2.545	19.6979
2.5375	19.7338
2.5301	19.7033
2.5227	19.7172
2.5154	19.707
2.5081	19.737
2.5008	19.7041
2.4936	19.7312
2.4864	19.7048
2.4793	19.6914
2.4722	19.7006
2.4651	19.6218
2.4581	19.6586
2.4511	19.7089
2.4442	19.6572
2.4373	19.6398
2.4305	19.6499
2.4236	19.6555
2.4169	19.6376
2.4101	19.6325
2.4034	19.6076
2.3967	19.5644
2.3901	19.5439
2.3835	19.5397
2.377	19.5605
2.3704	19.5219
2.364	19.4936
2.3575	19.4633
2.3511	19.4682
2.3447	19.4511
2.3384	19.4091
2.3321	19.392
2.3258	19.374
2.3195	19.3554
2.3133	19.2841
2.3071	19.3203
2.301	19.2753
2.2949	19.2929
2.2888	19.2734
2.2828	19.2348
2.2767	19.2258
2.2708	19.2001
2.2648	19.2246
2.2589	19.2314
2.253	19.2021
2.2471	19.1772
2.2413	19.164
2.2355	19.1833
2.2297	19.155
2.224	19.1489
2.2183	19.1799
2.2126	19.1579
2.207	19.1052
2.2013	19.0937
2.1957	19.0764
2.1902	19.0966
2.1846	19.0351
2.1791	19.0478
2.1736	19.0217
2.1682	19.0373
2.1628	19.0112
2.1574	19.0317
2.152	18.9633
2.1466	18.9335
2.1413	18.9526
2.136	18.9191
2.1308	18.8664
2.1255	18.8696
2.1203	18.8613
2.1151	18.8837
2.11	18.8156
2.1048	18.8325
2.0997	18.8325
2.0946	18.8417
2.0895	18.8315
2.0845	18.7666
2.0795	18.767
