Name: Quartz SiO_2
Type: Mineral
Class: Silicate
Subclass: Tectosilicate
Particle Size: Fine
Sample No.: TS-1C
Owner: JPL
Wavelength Range: VSWIR
Origin: USA, South Dakota, Custer County, Custer
Description: Rose quartz. Particle size was 0-45um.Collected by Ward's Original ASTER Spectral Library name was jpl.beckman.mineral.silicate.tectosilicate.fine.ts01c.spectrum.txt
Measurement: Hemispherical reflectance
X Units: Wavelength (micrometers)
Y Units: Reflectance (percent)
wavelength	value
0.4	75.69
0.403	75.92
0.406	75.91
0.409	76.04
0.412	76.06
0.415	76.12
0.418	76.22
0.421	76.23
0.424	76.35
0.427	76.4
0.43	76.23
0.433	76.42
0.436	76.55
0.439	76.49
0.442	76.42
0.445	76.72
0.448	76.62
0.451	76.48
0.454	76.61
0.457	76.77
0.46	76.79
0.463	76.64
0.466	76.84
0.469	76.93
0.472	76.8
0.475	76.84
0.478	76.96
0.481	77
0.484	76.9
0.487	76.87
0.49	77.09
0.493	77.05
0.496	76.99
0.499	77.14
0.502	77.25
0.505	77.15
0.508	77.14
0.511	77.44
0.514	77.49
0.517	77.41
0.52	77.48
0.523	77.54
0.526	77.59
0.529	77.48
0.532	77.6
0.535	77.54
0.538	77.54
0.541	77.52
0.544	77.66
0.547	77.68
0.55	77.78
0.553	77.75
0.556	77.98
0.559	77.93
0.562	78.35
0.565	78.26
0.568	78.02
0.571	77.96
0.574	77.68
0.577	77.81
0.58	77.82
0.583	77.74
0.586	77.73
0.589	77.9
0.592	77.93
0.595	77.88
0.598	78.02
0.601	78.23
0.604	78.05
0.607	77.93
0.61	78.28
0.613	78.28
0.616	78
0.619	77.9
0.622	78.07
0.625	78.04
0.628	77.94
0.631	78.13
0.634	78.19
0.637	77.97
0.64	78.09
0.643	78.14
0.646	77.96
0.649	77.97
0.652	78.02
0.655	78.07
0.658	78.03
0.661	78.05
0.664	78.2
0.667	78.07
0.67	78.04
0.673	78.26
0.676	78.2
0.679	78.14
0.682	78.09
0.685	78.15
0.688	78.17
0.691	78.04
0.694	78.25
0.697	78.28
0.7	78.13
0.703	78.07
0.706	77.97
0.709	77.95
0.712	78.11
0.715	78.1
0.718	77.98
0.721	78.12
0.724	78.16
0.727	78.14
0.73	78.04
0.733	78.22
0.736	78.24
0.739	78.19
0.742	78.01
0.745	77.98
0.748	77.98
0.751	77.97
0.754	77.92
0.757	78.03
0.76	77.99
0.763	77.84
0.766	78.01
0.769	77.98
0.772	78.02
0.775	77.79
0.778	77.86
0.781	77.97
0.784	77.84
0.787	78.04
0.79	78.03
0.793	77.95
0.796	78.12
0.799	78.1
0.808	78.18
0.82	78.22
0.832	78.27
0.844	78.19
0.856	78.29
0.868	78.25
0.88	78.18
0.892	78.26
0.904	78.1
0.916	78.18
0.928	78.16
0.94	78.29
0.952	78.18
0.964	78.19
0.976	78.18
0.988	78.18
1	78.16
1.012	78.26
1.024	78.24
1.036	78.24
1.048	78.21
1.06	78.17
1.072	78.25
1.084	78.25
1.096	78.24
1.108	78.19
1.12	78.29
1.132	78.28
1.144	78.26
1.156	78.16
1.168	78.1
1.18	78.08
1.192	78.07
1.204	78.01
1.216	78.04
1.228	78.01
1.24	78.12
1.252	78.1
1.264	78.12
1.276	78.07
1.288	78.09
1.3	78.07
1.312	78.01
1.324	77.95
1.336	77.91
1.348	77.85
1.36	77.87
1.372	77.87
1.384	77.83
1.396	77.83
1.408	77.68
1.42	77.81
1.432	77.8
1.444	77.81
1.456	77.98
1.468	77.87
1.48	77.91
1.492	77.98
1.504	77.86
1.516	77.88
1.528	77.92
1.54	77.87
1.552	77.88
1.564	77.91
1.576	77.82
1.588	77.88
1.6	77.81
1.612	77.89
1.624	77.94
1.636	77.93
1.648	77.92
1.66	77.97
1.672	77.97
1.684	78.01
1.696	77.99
1.708	78.07
1.72	77.93
1.732	77.96
1.744	77.9
1.756	77.86
1.768	77.78
1.78	77.97
1.792	77.97
1.804	77.92
1.816	77.91
1.828	77.86
1.84	77.96
1.852	77.8
1.864	77.79
1.876	77.79
1.888	77.77
1.9	77.63
1.912	77.58
1.924	77.7
1.936	77.59
1.948	77.61
1.96	77.71
1.972	77.65
1.984	77.86
1.996	77.94
2.008	77.97
2.02	78.04
2.032	78.04
2.044	78.11
2.056	78.08
2.068	78.15
2.08	78.3
2.092	78.29
2.104	78.38
2.116	78.59
2.128	78.59
2.14	78.48
2.152	78.32
2.164	78.13
2.176	78.05
2.188	77.96
2.2	77.8
2.212	77.83
2.224	77.86
2.236	77.88
2.248	77.86
2.26	77.89
2.272	77.92
2.284	77.93
2.296	77.95
2.308	78.1
2.32	78.24
2.332	78.2
2.344	78.34
2.356	78.35
2.368	78.32
2.38	78.34
2.392	78.26
2.404	78.26
2.416	78.32
2.428	78.35
2.44	78.29
2.452	78.22
2.464	78.14
2.476	78.18
2.488	78.53
2.5	78.9
