Name: Lepidolite K(Li,Al)3(Si,Al)_4O_10(F,OH)_2
Type: Mineral
Class: Silicate
Subclass: Phyllosilicate
Particle Size: Fine
Sample No.: PS-13B
Owner: JPL
Wavelength Range: TIR
Origin: South Africa
Description: Lavender lepidolite.Particle size was 0-45um.Collected by Ward's Original ASTER Spectral Library name was jpl.nicolet.mineral.silicate.phyllosilicate.fine.ps13b.spectrum.txt
Measurement: Hemispherical reflectance
X Units: Wavelength (micrometers)
Y Units: Reflectance (percent)
wavelength	value
15.3853	1.9523
15.1161	2.1935
14.8563	2.9367
14.6052	2.8125
14.3624	3.0924
14.1276	3.1958
13.9004	3.1188
13.6803	2.9
13.4671	2.756
13.2604	2.5969
13.06	2.3483
12.8656	2.6721
12.6769	2.7734
12.4936	3.5132
12.3155	4.1188
12.1425	5.364
11.9742	5.696
11.8106	7.0839
11.6513	7.2692
11.4963	6.7604
11.3454	6.4856
11.1983	6.3942
11.0551	5.849
10.9154	5.792
10.7793	5.5946
10.6465	5.5237
10.5169	5.9703
10.3904	6.1501
10.267	6.2633
10.1464	6.7884
10.0287	7.7452
9.9136	8.5245
9.8012	9.034
9.6913	9.885
9.5838	10.9303
9.4787	9.5001
9.3758	9.4897
9.2752	10.216
9.1767	10.005
9.0803	9.6794
8.9858	9.5259
8.8934	8.8043
8.8028	7.7967
8.714	6.9828
8.627	6.1864
8.5417	5.4467
8.4581	4.6222
8.3761	3.672
8.2957	3.0226
8.2169	2.6136
8.1395	2.1475
8.0635	1.7685
7.989	1.8161
7.9158	1.9654
7.8439	2.2289
7.7734	2.746
7.7041	3.4521
7.636	4.3277
7.5691	5.2394
7.5034	6.1021
7.4388	6.995
7.3753	7.8706
7.3129	8.7217
7.2515	9.9257
7.1912	10.8406
7.1318	11.9071
7.0734	13.0966
7.016	13.9478
6.9595	15.0436
6.9039	16.0522
6.8492	17.0253
6.7953	17.9252
6.7423	18.9378
6.6901	20.079
6.6387	21.6176
6.5881	21.7586
6.5382	22.2247
6.4892	23.5815
6.4408	23.1681
6.3931	23.0409
6.3462	23.0698
6.2999	22.649
6.2543	22.4887
6.2094	22.4698
6.1651	22.4735
6.1214	22.3736
6.0784	22.336
6.0359	21.9858
5.994	21.6778
5.9527	21.3446
5.912	21.4533
5.8718	21.9391
5.8322	22.6001
5.7931	22.2159
5.7545	21.9571
5.7165	21.4819
5.6789	20.8655
5.6418	20.684
5.6052	20.9275
5.5691	21.0529
5.5334	21.3549
5.4982	22.1901
5.4635	22.782
5.4291	23.1226
5.3952	23.5934
5.3618	24.046
5.3287	25.4061
5.2961	27.2028
5.2638	29.4585
5.2319	32.072
5.2004	34.9144
5.1693	37.7619
5.1386	40.1551
5.1082	42.2054
5.0782	43.377
5.0485	43.5987
5.0192	44.1965
4.9902	44.3199
4.9616	44.5098
4.9332	44.2842
4.9052	44.897
4.8776	45.8015
4.8502	46.5446
4.8231	46.933
4.7963	47.3459
4.7699	48.0545
4.7437	49.1516
4.7178	49.9283
4.6922	50.7708
4.6668	51.9542
4.6418	53.607
4.617	55.3163
4.5924	56.7466
4.5681	58.1376
4.5441	59.7477
4.5203	61.1602
4.4968	62.3392
4.4735	63.6948
4.4505	65.1649
4.4277	66.6481
4.4051	67.8803
4.3828	68.9252
4.3607	69.8736
4.3388	70.5295
4.3171	70.9709
4.2956	71.2291
4.2744	71.2235
4.2534	71.451
4.2325	72.0211
4.2119	72.3033
4.1915	72.3421
4.1712	72.434
4.1512	72.5991
4.1313	72.6939
4.1117	72.8012
4.0922	72.9576
4.0729	72.9784
4.0538	73.0755
4.0349	73.1481
4.0161	73.0574
3.9976	73.0965
3.9792	73.0338
3.9609	73.2175
3.9428	73.5037
3.9249	73.6834
3.9072	73.8402
3.8896	73.8319
3.8722	73.9315
3.8549	74.0236
3.8378	74.0736
3.8208	74.049
3.804	73.9446
3.7873	73.8034
3.7708	73.4881
3.7544	72.999
3.7382	72.2935
3.7221	71.837
3.7061	71.492
3.6903	71.4901
3.6746	71.2718
3.659	71.1114
3.6436	71.048
3.6283	70.8668
3.6131	70.7698
3.5981	70.4693
3.5832	70.0249
3.5684	69.5387
3.5537	69.255
3.5391	68.8183
3.5247	68.1228
3.5104	66.8796
3.4962	66.1965
3.4821	66.2122
3.4681	66.0068
3.4543	65.5374
3.4405	64.9091
3.4269	63.8379
3.4133	62.858
3.3999	62.9743
3.3866	62.885
3.3733	62.5562
3.3602	62.7441
3.3472	62.716
3.3343	62.362
3.3215	62.0899
3.3088	61.6222
3.2961	61.2351
3.2836	60.7513
3.2712	60.2434
3.2588	59.8844
3.2466	59.3726
3.2345	58.8301
3.2224	58.282
3.2104	57.8332
3.1985	57.1382
3.1867	56.4402
3.175	56.1331
3.1634	55.4828
3.1519	55.0795
3.1404	54.5871
3.129	54.0962
3.1178	53.4681
3.1065	52.9535
3.0954	52.5776
3.0844	52.1482
3.0734	51.8376
3.0625	51.4152
3.0517	51.1298
3.041	50.9416
3.0303	50.5423
3.0197	50.3834
3.0092	50.0037
2.9987	49.9676
2.9884	49.697
2.9781	49.3169
2.9678	49.1153
2.9577	48.8036
2.9476	48.259
2.9376	48.0136
2.9276	47.5077
2.9177	46.9489
2.9079	46.4838
2.8982	46.2647
2.8885	46.3364
2.8789	46.3838
2.8693	46.4819
2.8598	46.6813
2.8504	46.4305
2.841	45.4921
2.8317	44.7831
2.8224	44.0162
2.8133	42.6083
2.8041	40.2873
2.7951	35.9795
2.786	28.635
2.7771	17.4657
2.7682	9.7006
2.7594	6.4135
2.7506	6.1168
2.7418	6.5835
2.7332	7.4363
2.7246	11.5862
2.716	23.7757
2.7075	36.448
2.699	45.2578
2.6906	58.4544
2.6823	61.5442
2.674	63.3627
2.6657	66.6195
2.6575	66.7761
2.6494	67.9231
2.6413	68.3309
2.6332	68.569
2.6252	68.342
2.6173	68.8575
2.6094	68.5898
2.6015	69.3061
2.5937	71.4812
2.5859	71.1753
2.5782	71.0955
2.5706	71.6274
2.5629	72.1106
2.5554	72.0916
2.5478	72.4692
2.5403	72.6977
2.5329	72.6863
2.5255	72.2853
2.5181	71.6648
2.5108	70.7991
2.5035	70.2034
2.4963	69.3545
2.4891	69.1524
2.482	68.8465
2.4749	68.5386
2.4678	68.0404
2.4608	67.438
2.4538	67.0587
2.4468	66.3351
2.4399	65.9244
2.4331	66.1004
2.4262	66.9988
2.4194	68.1643
2.4127	69.4005
2.4059	70.8084
2.3993	71.7027
2.3926	71.9558
2.386	72.091
2.3795	72.0107
2.3729	72.161
2.3664	71.8919
2.36	71.4257
2.3535	70.7431
2.3471	70.3785
2.3408	70.9034
2.3345	72.0199
2.3282	73.4895
2.3219	74.8944
2.3157	76.3791
2.3095	77.4899
2.3034	78.6709
2.2972	79.397
2.2911	80.1641
2.2851	80.5017
2.279	80.7617
2.2731	80.8316
2.2671	80.8174
2.2612	80.9269
2.2553	80.7766
2.2494	80.7821
2.2435	80.5492
2.2377	80.3824
2.232	80.0992
2.2262	79.1779
2.2205	77.6734
2.2148	74.808
2.2091	70.2358
2.2035	66.0938
2.1979	63.9691
2.1923	64.1556
2.1868	67.224
2.1812	71.6862
2.1758	75.3331
2.1703	78.6524
2.1649	80.1931
2.1595	81.4194
2.1541	82.1476
2.1487	82.9125
2.1434	83.1468
2.1381	83.5022
2.1328	83.4618
2.1275	83.5496
2.1223	83.4652
2.1171	83.1896
2.112	83.646
2.1068	83.7961
2.1017	84.4793
2.0966	84.6698
2.0915	84.8283
2.0865	85.0214
2.0814	85.3798
2.0764	85.3101
2.0715	85.8258
2.0665	85.3621
2.0616	86.0602
2.0567	86.0059
2.0518	85.7807
2.0469	85.9591
2.0421	85.9711
2.0373	85.981
2.0325	86.0114
2.0277	86.0664
2.0229	86.1118
2.0182	86.3324
2.0135	86.1327
2.0088	85.8764
2.0042	86.3122
