Name: Albite (Feldspar) (K,Na)AlSi_3O_8
Type: Mineral
Class: Silicate
Subclass: Tectosilicate
Particle Size: Fine
Sample No.: TS-6A
Owner: JPL
Wavelength Range: VSWIR
Description: Particle size was 0-45um.Collected by JPL Original ASTER Spectral Library name was jpl.beckman.mineral.silicate.tectosilicate.fine.ts06a.spectrum.txt
Measurement: Hemispherical reflectance
X Units: Wavelength (micrometers)
Y Units: Reflectance (percent)
wavelength	value
0.4	69.69
0.403	69.97
0.406	70.17
0.409	70.55
0.412	70.73
0.415	70.88
0.418	71.09
0.421	71.5
0.424	71.54
0.427	71.66
0.43	72.06
0.433	72.34
0.436	72.36
0.439	72.67
0.442	72.84
0.445	72.98
0.448	72.92
0.451	73.27
0.454	73.48
0.457	73.4
0.46	73.55
0.463	73.85
0.466	73.89
0.469	74.09
0.472	74.21
0.475	74.13
0.478	74.43
0.481	74.54
0.484	74.72
0.487	74.72
0.49	74.72
0.493	74.78
0.496	74.83
0.499	75.06
0.502	75.06
0.505	75.14
0.508	75.25
0.511	75.41
0.514	75.69
0.517	75.53
0.52	75.61
0.523	75.77
0.526	75.85
0.529	75.8
0.532	75.87
0.535	76.05
0.538	76.07
0.541	75.89
0.544	76.12
0.547	76.35
0.55	76.22
0.553	76.28
0.556	76.43
0.559	76.53
0.562	76.85
0.565	76.66
0.568	76.7
0.571	76.77
0.574	76.58
0.577	76.44
0.58	76.4
0.583	76.57
0.586	76.5
0.589	76.33
0.592	76.52
0.595	76.62
0.598	76.69
0.601	76.7
0.604	76.74
0.607	76.9
0.61	76.82
0.613	76.6
0.616	76.78
0.619	76.8
0.622	76.78
0.625	76.63
0.628	76.68
0.631	76.87
0.634	76.81
0.637	76.66
0.64	76.75
0.643	76.86
0.646	76.9
0.649	76.73
0.652	76.84
0.655	76.9
0.658	76.71
0.661	76.82
0.664	76.88
0.667	76.97
0.67	76.81
0.673	76.93
0.676	76.98
0.679	76.97
0.682	76.87
0.685	77.04
0.688	77.04
0.691	77.04
0.694	76.9
0.697	77.04
0.7	76.96
0.703	76.89
0.706	76.98
0.709	77.04
0.712	76.95
0.715	76.9
0.718	77.1
0.721	77
0.724	76.93
0.727	76.95
0.73	77.09
0.733	77.03
0.736	77.1
0.739	76.93
0.742	77.18
0.745	76.95
0.748	77.07
0.751	77.08
0.754	77.14
0.757	77.13
0.76	77.12
0.763	77.09
0.766	77.19
0.769	77.15
0.772	77.17
0.775	77.07
0.778	77.22
0.781	77.22
0.784	77.24
0.787	77.3
0.79	77.32
0.793	77.18
0.796	77.33
0.799	77.31
0.808	77.34
0.82	77.44
0.832	77.4
0.844	77.42
0.856	77.51
0.868	77.47
0.88	77.29
0.892	77.4
0.904	77.25
0.916	77.26
0.928	77.33
0.94	77.28
0.952	77.38
0.964	77.29
0.976	77.3
0.988	77.18
1	77.18
1.012	77.2
1.024	77.18
1.036	77.19
1.048	77.16
1.06	77.09
1.072	77.2
1.084	77.04
1.096	77.15
1.108	77.13
1.12	77.13
1.132	77.07
1.144	76.96
1.156	77.03
1.168	77.04
1.18	76.95
1.192	76.91
1.204	76.85
1.216	76.79
1.228	76.85
1.24	76.91
1.252	76.87
1.264	76.87
1.276	76.85
1.288	76.87
1.3	76.71
1.312	76.77
1.324	76.85
1.336	76.85
1.348	76.95
1.36	76.93
1.372	76.91
1.384	76.77
1.396	76.45
1.408	76.33
1.42	76.89
1.432	77.15
1.444	77.33
1.456	77.39
1.468	77.4
1.48	77.47
1.492	77.63
1.504	77.6
1.516	77.75
1.528	77.82
1.54	77.84
1.552	77.87
1.564	77.88
1.576	77.93
1.588	78.03
1.6	78.11
1.612	78.07
1.624	78.09
1.636	78.07
1.648	78.15
1.66	78.2
1.672	78.29
1.684	78.29
1.696	78.36
1.708	78.46
1.72	78.38
1.732	78.28
1.744	78.24
1.756	78.22
1.768	78.23
1.78	78.24
1.792	78.28
1.804	78.42
1.816	78.37
1.828	78.37
1.84	78.25
1.852	78.28
1.864	78.19
1.876	77.94
1.888	77.69
1.9	77.34
1.912	77.32
1.924	77.42
1.936	77.48
1.948	77.55
1.96	77.65
1.972	77.78
1.984	77.88
1.996	78.16
2.008	78.41
2.02	78.55
2.032	78.58
2.044	78.56
2.056	78.59
2.068	78.68
2.08	78.79
2.092	78.9
2.104	79
2.116	79.18
2.128	79.11
2.14	78.86
2.152	78.6
2.164	78.23
2.176	77.72
2.188	77.2
2.2	77.26
2.212	77.42
2.224	77.84
2.236	77.92
2.248	77.94
2.26	77.99
2.272	78.03
2.284	77.95
2.296	77.94
2.308	77.87
2.32	77.76
2.332	77.77
2.344	77.65
2.356	77.71
2.368	77.66
2.38	77.78
2.392	77.63
2.404	77.47
2.416	77.23
2.428	77.11
2.44	76.98
2.452	76.87
2.464	76.86
2.476	76.72
2.488	76.99
2.5	77.07
