Name: Mimetite Pb_5(AsO_4)_3Cl
Type: Mineral
Class: Arsenate
Subclass: None
Particle Size: Coarse
Sample No.: A-1A
Owner: JPL
Wavelength Range: TIR
Origin: Mexico, Chihuahua, Ingla Tierra Mine
Description: Particle size was 125-500um.Collected by JPL Original ASTER Spectral Library name was jpl.nicolet.mineral.arsenate.none.coarse.a01a.spectrum.txt
Measurement: Hemispherical reflectance
X Units: Wavelength (micrometers)
Y Units: Reflectance (percent)
wavelength	value
15.3853	6.1491
15.1161	6.1541
14.8563	6.1793
14.6052	6.8753
14.3624	6.9963
14.1276	7.7601
13.9004	8.1811
13.6803	8.9252
13.4671	10.2431
13.2604	11.9814
13.06	15.5403
12.8656	22.0569
12.6769	21.6975
12.4936	17.6406
12.3155	18.5511
12.1425	22.8188
11.9742	18.0309
11.8106	11.1317
11.6513	3.5086
11.4963	0.5308
11.3454	0.4891
11.1983	0.6124
11.0551	0.9897
10.9154	1.3965
10.7793	1.6726
10.6465	2.1523
10.5169	2.208
10.3904	2.2623
10.267	2.6328
10.1464	2.6758
10.0287	2.8629
9.9136	3.0603
9.8012	3.4008
9.6913	3.7235
9.5838	3.8932
9.4787	5.3504
9.3758	6.0149
9.2752	5.5576
9.1767	4.8232
9.0803	4.8683
8.9858	5.3219
8.8934	6.1653
8.8028	7.008
8.714	7.3551
8.627	7.7264
8.5417	8.0288
8.4581	8.5465
8.3761	9.234
8.2957	10.0718
8.2169	11.8001
8.1395	13.7073
8.0635	15.3807
7.989	16.1601
7.9158	15.5744
7.8439	13.7727
7.7734	10.9747
7.7041	9.0316
7.636	7.9041
7.5691	7.7629
7.5034	8.6923
7.4388	9.4593
7.3753	9.1433
7.3129	9.0076
7.2515	8.8096
7.1912	8.7267
7.1318	8.6664
7.0734	8.4931
7.016	8.2573
6.9595	8.5688
6.9039	9.1743
6.8492	10.932
6.7953	12.377
6.7423	12.5685
6.6901	12.3824
6.6387	11.7544
6.5881	8.9731
6.5382	6.4308
6.4892	5.8888
6.4408	5.5256
6.3931	5.1629
6.3462	4.9646
6.2999	4.7698
6.2543	4.9136
6.2094	5.2712
6.1651	5.5737
6.1214	6.1868
6.0784	6.9336
6.0359	8.2831
5.994	11.5582
5.9527	15.3243
5.912	19.3972
5.8718	22.864
5.8322	27.624
5.7931	29.8973
5.7545	33.4512
5.7165	37.4967
5.6789	41.1555
5.6418	44.8017
5.6052	46.1148
5.5691	48.5133
5.5334	50.5745
5.4982	52.3986
5.4635	54.0225
5.4291	54.7959
5.3952	55.0074
5.3618	54.5541
5.3287	55.2762
5.2961	55.9843
5.2638	55.3737
5.2319	54.9843
5.2004	54.6878
5.1693	55.5326
5.1386	56.1962
5.1082	56.0407
5.0782	56.054
5.0485	55.9439
5.0192	55.8013
4.9902	56.1831
4.9616	57.1247
4.9332	57.9193
4.9052	57.9317
4.8776	57.749
4.8502	58.1113
4.8231	58.7963
4.7963	59.6721
4.7699	60.7079
4.7437	60.9847
4.7178	60.7661
4.6922	60.4819
4.6668	60.5395
4.6418	60.9484
4.617	61.3282
4.5924	61.3473
4.5681	61.1718
4.5441	61.0021
4.5203	60.8328
4.4968	60.6606
4.4735	60.2273
4.4505	59.657
4.4277	58.5602
4.4051	57.048
4.3828	55.0074
4.3607	53.3311
4.3388	52.0283
4.3171	50.1134
4.2956	48.2887
4.2744	46.8909
4.2534	46.8654
4.2325	48.9357
4.2119	49.875
4.1915	50.6477
4.1712	51.3617
4.1512	51.8998
4.1313	52.5143
4.1117	52.9616
4.0922	53.6976
4.0729	54.2244
4.0538	54.9973
4.0349	56.0542
4.0161	58.1529
3.9976	60.0712
3.9792	61.1975
3.9609	62.0784
3.9428	62.5622
3.9249	62.8789
3.9072	62.8551
3.8896	62.8252
3.8722	62.6638
3.8549	62.2685
3.8378	62.2563
3.8208	62.2428
3.804	62.1551
3.7873	62.1633
3.7708	61.8762
3.7544	61.4597
3.7382	60.7785
3.7221	59.914
3.7061	59.0201
3.6903	57.9861
3.6746	56.9163
3.659	56.348
3.6436	55.9759
3.6283	55.9255
3.6131	56.0861
3.5981	56.2938
3.5832	56.3949
3.5684	56.4439
3.5537	56.2489
3.5391	55.9954
3.5247	55.6254
3.5104	54.9767
3.4962	54.5796
3.4821	54.3622
3.4681	54.0708
3.4543	53.7517
3.4405	53.2623
3.4269	52.4122
3.4133	51.8546
3.3999	51.4765
3.3866	51.2086
3.3733	50.2754
3.3602	49.9404
3.3472	49.5478
3.3343	49.0061
3.3215	48.3416
3.3088	47.6934
3.2961	46.8574
3.2836	45.9787
3.2712	45.1594
3.2588	44.2903
3.2466	43.3662
3.2345	42.7436
3.2224	41.5879
3.2104	40.7247
3.1985	39.8336
3.1867	38.9078
3.175	38.0341
3.1634	37.2384
3.1519	36.1888
3.1404	35.5406
3.129	34.7789
3.1178	34.0275
3.1065	33.4855
3.0954	32.9928
3.0844	32.4873
3.0734	32.185
3.0625	31.7055
3.0517	31.1151
3.041	30.6773
3.0303	30.049
3.0197	29.5959
3.0092	28.8022
2.9987	28.4014
2.9884	27.6581
2.9781	27.069
2.9678	26.32
2.9577	25.4225
2.9476	25.709
2.9376	26.0628
2.9276	26.6005
2.9177	27.0341
2.9079	27.3841
2.8982	27.731
2.8885	27.9895
2.8789	27.6213
2.8693	27.3501
2.8598	26.8851
2.8504	27.3596
2.841	28.8063
2.8317	30.2431
2.8224	33.808
2.8133	36.9132
2.8041	39.9103
2.7951	41.737
2.786	45.1823
2.7771	47.414
2.7682	50.1198
2.7594	51.6801
2.7506	53.9068
2.7418	57.1665
2.7332	59.0102
2.7246	63.2072
2.716	64.387
2.7075	66.9327
2.699	68.1174
2.6906	69.2381
2.6823	70.2641
2.674	70.6553
2.6657	73.0856
2.6575	70.8619
2.6494	70.7879
2.6413	71.2306
2.6332	71.7608
2.6252	71.8076
2.6173	73.1558
2.6094	72.4931
2.6015	72.4444
2.5937	74.2959
2.5859	72.9913
2.5782	72.5367
2.5706	72.779
2.5629	73.462
2.5554	72.2843
2.5478	72.6045
2.5403	72.1414
2.5329	72.3115
2.5255	72.1473
2.5181	72.3365
2.5108	72.2492
2.5035	72.412
2.4963	72.4086
2.4891	72.8036
2.482	72.8244
2.4749	72.8872
2.4678	73.0557
2.4608	73.015
2.4538	73.2697
2.4468	73.2666
2.4399	73.2034
2.4331	73.4196
2.4262	73.3947
2.4194	73.6048
2.4127	73.5964
2.4059	73.6123
2.3993	73.715
2.3926	73.9245
2.386	74.0306
2.3795	74.2394
2.3729	74.2693
2.3664	74.2058
2.36	74.1408
2.3535	74.0723
2.3471	73.8387
2.3408	73.5676
2.3345	73.5151
2.3282	73.5307
2.3219	73.7198
2.3157	74.0693
2.3095	74.344
2.3034	74.3834
2.2972	74.7359
2.2911	74.542
2.2851	74.6317
2.279	74.5517
2.2731	74.1605
2.2671	74.0552
2.2612	74.2546
2.2553	74.5503
2.2494	74.9973
2.2435	75.0482
2.2377	75.4398
2.232	75.5814
2.2262	75.6559
2.2205	75.698
2.2148	75.8024
2.2091	75.7958
2.2035	75.7575
2.1979	75.7418
2.1923	75.8438
2.1868	75.9126
2.1812	76.0037
2.1758	76.155
2.1703	76.0254
2.1649	76.1452
2.1595	76.0871
2.1541	75.9854
2.1487	76.2163
2.1434	76.0691
2.1381	76.1657
2.1328	76.0929
2.1275	76.2996
2.1223	76.2046
2.1171	76.3057
2.112	76.4139
2.1068	76.2732
2.1017	76.1445
2.0966	76.1498
2.0915	76.3562
2.0865	76.3065
2.0814	76.4262
2.0764	76.2201
2.0715	76.471
2.0665	76.16
2.0616	76.3479
2.0567	76.0561
2.0518	76.3594
2.0469	76.3815
2.0421	76.2681
2.0373	76.1429
2.0325	76.1582
2.0277	76.2776
2.0229	76.1007
2.0182	76.1595
2.0135	76.1852
2.0088	76.1553
2.0042	76.35
