Name: Quartz SiO_2
Type: Mineral
Class: Silicate
Subclass: Tectosilicate
Particle Size: Medium
Sample No.: TS-1E
Owner: JPL
Wavelength Range: VSWIR
Description: Crysoprase. Particle size was 45-125um.Collected by JPL Original ASTER Spectral Library name was jpl.beckman.mineral.silicate.tectosilicate.medium.ts01e.spectrum.txt
Measurement: Hemispherical reflectance
X Units: Wavelength (micrometers)
Y Units: Reflectance (percent)
wavelength	value
0.4	59.28
0.403	60.16
0.406	60.82
0.409	61.58
0.412	62.33
0.415	63.17
0.418	64.21
0.421	65.23
0.424	66.09
0.427	66.84
0.43	67.78
0.433	68.32
0.436	68.99
0.439	69.29
0.442	69.9
0.445	70.21
0.448	70.38
0.451	70.98
0.454	71.26
0.457	71.49
0.46	71.8
0.463	72.17
0.466	72.62
0.469	72.78
0.472	73.16
0.475	73.57
0.478	73.94
0.481	74.03
0.484	74.28
0.487	74.41
0.49	74.66
0.493	74.79
0.496	74.99
0.499	75.23
0.502	75.35
0.505	75.32
0.508	75.51
0.511	75.71
0.514	75.8
0.517	75.83
0.52	75.96
0.523	76.07
0.526	76.05
0.529	75.96
0.532	76.2
0.535	76.11
0.538	76.01
0.541	76.16
0.544	76.08
0.547	76.25
0.55	76.29
0.553	76.16
0.556	76.08
0.559	76.26
0.562	76.59
0.565	76.27
0.568	76.15
0.571	75.83
0.574	75.4
0.577	75.17
0.58	74.82
0.583	74.54
0.586	74.21
0.589	73.92
0.592	73.82
0.595	73.29
0.598	73.01
0.601	72.8
0.604	72.39
0.607	71.75
0.61	71.55
0.613	70.95
0.616	70.39
0.619	69.84
0.622	69.66
0.625	69.13
0.628	68.91
0.631	68.38
0.634	68.25
0.637	68.03
0.64	67.68
0.643	67.29
0.646	67.43
0.649	67.38
0.652	67.33
0.655	67.28
0.658	67.55
0.661	67.58
0.664	67.6
0.667	67.66
0.67	67.97
0.673	67.96
0.676	68.15
0.679	68.37
0.682	68.71
0.685	68.75
0.688	68.84
0.691	69.08
0.694	69.39
0.697	69.44
0.7	69.45
0.703	69.62
0.706	69.88
0.709	70.01
0.712	70.15
0.715	70.26
0.718	70.36
0.721	70.63
0.724	70.69
0.727	70.69
0.73	70.99
0.733	71.34
0.736	71.23
0.739	71.44
0.742	71.94
0.745	72.25
0.748	72.45
0.751	72.61
0.754	73.11
0.757	73.53
0.76	73.63
0.763	74.13
0.766	74.45
0.769	74.8
0.772	75.1
0.775	75.52
0.778	75.83
0.781	75.96
0.784	76.47
0.787	76.71
0.79	76.89
0.793	77.02
0.796	77.35
0.799	77.56
0.808	78.02
0.82	78.48
0.832	78.8
0.844	78.99
0.856	79.19
0.868	79.12
0.88	78.86
0.892	78.74
0.904	78.37
0.916	78.1
0.928	77.67
0.94	77.12
0.952	76.63
0.964	76.03
0.976	75.47
0.988	74.93
1	74.39
1.012	73.81
1.024	73.19
1.036	72.76
1.048	72.38
1.06	72.09
1.072	71.87
1.084	71.59
1.096	71.45
1.108	71.39
1.12	71.47
1.132	71.61
1.144	71.7
1.156	71.88
1.168	72.06
1.18	72.37
1.192	72.61
1.204	73.08
1.216	73.46
1.228	73.89
1.24	74.31
1.252	74.72
1.264	75.15
1.276	75.68
1.288	76.21
1.3	76.64
1.312	77.09
1.324	77.42
1.336	77.73
1.348	77.97
1.36	78.13
1.372	78.06
1.384	77.56
1.396	75.81
1.408	72.33
1.42	74.17
1.432	74.93
1.444	75.51
1.456	75.83
1.468	76.19
1.48	76.54
1.492	76.99
1.504	77.21
1.516	77.51
1.528	77.8
1.54	77.98
1.552	78.19
1.564	78.26
1.576	78.41
1.588	78.5
1.6	78.67
1.612	78.65
1.624	78.77
1.636	78.61
1.648	78.73
1.66	78.77
1.672	78.87
1.684	78.87
1.696	78.9
1.708	78.94
1.72	78.92
1.732	78.89
1.744	78.72
1.756	78.62
1.768	78.44
1.78	78.45
1.792	78.51
1.804	78.52
1.816	78.45
1.828	78.46
1.84	78.36
1.852	78.11
1.864	77.42
1.876	75.79
1.888	72.96
1.9	69.77
1.912	68.2
1.924	68.4
1.936	69.04
1.948	69.84
1.96	70.71
1.972	71.68
1.984	72.64
1.996	73.48
2.008	74.14
2.02	74.88
2.032	75.24
2.044	75.62
2.056	75.73
2.068	75.94
2.08	76.06
2.092	76.23
2.104	76.33
2.116	76.33
2.128	76.15
2.14	75.69
2.152	74.92
2.164	73.85
2.176	72.45
2.188	70.75
2.2	69.1
2.212	68.02
2.224	67.67
2.236	67.48
2.248	67.42
2.26	67.49
2.272	67.45
2.284	67.29
2.296	67.08
2.308	67.23
2.32	68.06
2.332	69.06
2.344	69.92
2.356	70.49
2.368	70.58
2.38	70.43
2.392	69.93
2.404	69.19
2.416	68.4
2.428	67.54
2.44	66.52
2.452	65.43
2.464	64.25
2.476	63.11
2.488	62.65
2.5	62.17
