Name: Quartz SiO_2
Type: Mineral
Class: Silicate
Subclass: Tectosilicate
Particle Size: Fine
Sample No.: TS-1C
Owner: JPL
Wavelength Range: TIR
Origin: USA, South Dakota, Custer County, Custer
Description: Rose quartz. Particle size was 0-45um.Collected by Ward's Original ASTER Spectral Library name was jpl.nicolet.mineral.silicate.tectosilicate.fine.ts01c.spectrum.txt
Measurement: Hemispherical reflectance
X Units: Wavelength (micrometers)
Y Units: Reflectance (percent)
wavelength	value
15.3853	17.1237
15.1161	16.9335
14.8563	14.3362
14.6052	9.2122
14.3624	3.4504
14.1276	8.4594
13.9004	12.9475
13.6803	14.0878
13.4671	13.2238
13.2604	11.1559
13.06	7.4852
12.8656	7.2449
12.6769	5.4275
12.4936	5.9345
12.3155	1.6342
12.1425	3.9271
11.9742	8.4336
11.8106	11.555
11.6513	13.9098
11.4963	14.6797
11.3454	16.097
11.1983	16.2181
11.0551	16.9361
10.9154	17.2086
10.7793	16.5226
10.6465	15.5571
10.5169	14.6669
10.3904	14.1498
10.267	13.287
10.1464	12.0069
10.0287	11.0517
9.9136	11.0231
9.8012	10.5875
9.6913	10.09
9.5838	9.946
9.4787	11.6707
9.3758	18.4653
9.2752	23.3476
9.1767	23.4843
9.0803	23.3483
8.9858	23.1376
8.8934	22.6565
8.8028	21.5071
8.714	19.7664
8.627	13.659
8.5417	19.9218
8.4581	20.0604
8.3761	19.697
8.2957	20.5822
8.2169	22.9482
8.1395	21.9239
8.0635	15.9576
7.989	11.6636
7.9158	7.7126
7.8439	4.8063
7.7734	3.5746
7.7041	2.7488
7.636	1.7257
7.5691	0.9979
7.5034	0.691
7.4388	0.5166
7.3753	0.4463
7.3129	0.4744
7.2515	0.8029
7.1912	1.3744
7.1318	1.8423
7.0734	2.5763
7.016	3.3382
6.9595	4.3524
6.9039	5.164
6.8492	5.3442
6.7953	5.515
6.7423	4.8395
6.6901	4.8976
6.6387	6.0072
6.5881	5.6104
6.5382	5.7421
6.4892	10.0255
6.4408	13.1059
6.3931	12.7171
6.3462	10.0952
6.2999	7.3737
6.2543	5.3999
6.2094	4.7715
6.1651	6.195
6.1214	10.0863
6.0784	13.2559
6.0359	13.6522
5.994	12.4325
5.9527	9.8305
5.912	10.5865
5.8718	14.3721
5.8322	18.0715
5.7931	21.2387
5.7545	24.0976
5.7165	25.8726
5.6789	23.6625
5.6418	16.758
5.6052	12.8661
5.5691	12.2242
5.5334	13.8216
5.4982	17.1629
5.4635	20.1377
5.4291	18.4605
5.3952	11.5529
5.3618	7.1011
5.3287	6.8108
5.2961	7.6974
5.2638	10.0708
5.2319	15.5294
5.2004	20.3109
5.1693	20.0833
5.1386	19.3186
5.1082	19.1361
5.0782	17.0966
5.0485	16.149
5.0192	15.7284
4.9902	16.6749
4.9616	21.3966
4.9332	25.0508
4.9052	31.9818
4.8776	43.6046
4.8502	50.3303
4.8231	54.3095
4.7963	57.1378
4.7699	59.3061
4.7437	60.8518
4.7178	61.2527
4.6922	57.9826
4.6668	58.921
4.6418	62.937
4.617	65.725
4.5924	66.7519
4.5681	66.6876
4.5441	64.8741
4.5203	60.6957
4.4968	55.5366
4.4735	53.6103
4.4505	55.0882
4.4277	56.7942
4.4051	59.1506
4.3828	62.0685
4.3607	64.9564
4.3388	66.7331
4.3171	67.0441
4.2956	66.3198
4.2744	66.6852
4.2534	67.9936
4.2325	67.2881
4.2119	68.0872
4.1915	68.5023
4.1712	69.3783
4.1512	70.0475
4.1313	70.7649
4.1117	71.641
4.0922	72.5492
4.0729	73.1291
4.0538	73.3913
4.0349	73.2351
4.0161	72.9899
3.9976	73.1422
3.9792	73.5664
3.9609	74.1115
3.9428	74.5697
3.9249	74.8741
3.9072	74.8897
3.8896	74.6092
3.8722	74.2819
3.8549	74.1229
3.8378	74.1891
3.8208	74.41
3.804	74.5563
3.7873	74.4682
3.7708	74.2224
3.7544	73.8852
3.7382	73.7532
3.7221	74.1105
3.7061	74.5867
3.6903	75.2571
3.6746	75.805
3.659	76.1556
3.6436	76.3534
3.6283	76.3299
3.6131	76.2249
3.5981	76.4039
3.5832	76.3656
3.5684	76.5418
3.5537	76.6415
3.5391	76.6735
3.5247	76.705
3.5104	76.341
3.4962	75.9209
3.4821	76.372
3.4681	76.3379
3.4543	76.3268
3.4405	75.9767
3.4269	75.3053
3.4133	74.8007
3.3999	75.2972
3.3866	75.446
3.3733	75.362
3.3602	75.8143
3.3472	75.7162
3.3343	75.7724
3.3215	75.9693
3.3088	75.7908
3.2961	75.7182
3.2836	75.5271
3.2712	75.3047
3.2588	75.1526
3.2466	74.8913
3.2345	74.7813
3.2224	74.6055
3.2104	74.3448
3.1985	74.2232
3.1867	73.8345
3.175	73.5876
3.1634	73.3956
3.1519	73.0547
3.1404	72.5517
3.129	72.2107
3.1178	72.0593
3.1065	71.7396
3.0954	71.6829
3.0844	71.3661
3.0734	71.1325
3.0625	70.6551
3.0517	70.2766
3.041	69.9231
3.0303	69.499
3.0197	69.2474
3.0092	69.1059
2.9987	69.0517
2.9884	68.9958
2.9781	68.4742
2.9678	67.6953
2.9577	66.8759
2.9476	67.693
2.9376	68.0737
2.9276	68.1558
2.9177	67.917
2.9079	68.2025
2.8982	68.3858
2.8885	68.5521
2.8789	68.3687
2.8693	68.1592
2.8598	68.9252
2.8504	69.2224
2.841	69.3361
2.8317	69.5116
2.8224	69.6234
2.8133	69.8951
2.8041	70.3829
2.7951	70.2454
2.786	70.6296
2.7771	70.9206
2.7682	71.1262
2.7594	70.8042
2.7506	71.2527
2.7418	72.4355
2.7332	72.7854
2.7246	74.8671
2.716	75.8903
2.7075	77.4264
2.699	78.5519
2.6906	79.5061
2.6823	80.1073
2.674	80.6408
2.6657	81.7605
2.6575	81.0516
2.6494	81.0024
2.6413	81.1334
2.6332	81.3914
2.6252	81.2051
2.6173	81.853
2.6094	81.4373
2.6015	81.5132
2.5937	82.0664
2.5859	81.6475
2.5782	81.4938
2.5706	81.6597
2.5629	81.7975
2.5554	81.3647
2.5478	81.5781
2.5403	81.3656
2.5329	81.5264
2.5255	81.5091
2.5181	81.4825
2.5108	81.4332
2.5035	81.4231
2.4963	81.4848
2.4891	81.4864
2.482	81.5866
2.4749	81.4424
2.4678	81.4726
2.4608	81.6696
2.4538	81.5653
2.4468	81.5377
2.4399	81.6692
2.4331	81.7291
2.4262	81.7149
2.4194	81.626
2.4127	81.5265
2.4059	81.5894
2.3993	81.6193
2.3926	81.6917
2.386	81.7328
2.3795	81.7162
2.3729	81.7896
2.3664	81.8914
2.36	81.7428
2.3535	81.6718
2.3471	81.6817
2.3408	81.7089
2.3345	81.7245
2.3282	81.9154
2.3219	81.7846
2.3157	81.9049
2.3095	81.6937
2.3034	81.9301
2.2972	81.7067
2.2911	81.8967
2.2851	81.8935
2.279	81.836
2.2731	81.8508
2.2671	81.7181
2.2612	82.106
2.2553	81.8077
2.2494	81.8703
2.2435	81.955
2.2377	81.9363
2.232	81.7249
2.2262	81.8114
2.2205	81.9248
2.2148	81.6574
2.2091	81.7653
2.2035	81.8246
2.1979	81.9516
2.1923	81.5691
2.1868	82.0369
2.1812	81.7173
2.1758	82.002
2.1703	81.9225
2.1649	81.8034
2.1595	81.8617
2.1541	81.8728
2.1487	81.9471
2.1434	82.1084
2.1381	82.2513
2.1328	82.0202
2.1275	82.0673
2.1223	81.9822
2.1171	82.0147
2.112	81.8704
2.1068	82.1529
2.1017	82.2487
2.0966	82.1934
2.0915	82.1846
2.0865	82.0196
2.0814	81.8269
2.0764	82.3419
2.0715	82.3332
2.0665	82.1063
2.0616	82.1172
2.0567	82.0823
2.0518	82.1822
2.0469	82.0291
2.0421	82.0395
2.0373	82.2674
2.0325	81.9187
2.0277	82.3409
2.0229	82.2227
2.0182	81.9822
2.0135	81.9141
2.0088	82.2826
2.0042	82.0557
