Name: Cassiterite SnO_2
Type: Mineral
Class: Oxide
Subclass: None
Particle Size: Medium
Sample No.: O-3A
Owner: JPL
Wavelength Range: TIR
Origin: USA, South Dakota, Lawrence County, Tinton
Description: Particle size was 45-125um.Collected by Burminco Original ASTER Spectral Library name was jpl.nicolet.mineral.oxide.none.medium.o03a.spectrum.txt
Measurement: Hemispherical reflectance
X Units: Wavelength (micrometers)
Y Units: Reflectance (percent)
wavelength	value
15.3853	29.3879
15.1161	28.5573
14.8563	27.3663
14.6052	26.4582
14.3624	26.8624
14.1276	26.6359
13.9004	25.7913
13.6803	24.4647
13.4671	22.9887
13.2604	21.1057
13.06	19.6986
12.8656	18.9919
12.6769	18.7117
12.4936	18.6426
12.3155	17.5073
12.1425	16.8419
11.9742	16.592
11.8106	16.6226
11.6513	16.4708
11.4963	15.8806
11.3454	15.3112
11.1983	14.8486
11.0551	14.752
10.9154	14.6981
10.7793	14.6219
10.6465	14.4829
10.5169	14.554
10.3904	14.7002
10.267	14.6754
10.1464	14.7664
10.0287	14.7617
9.9136	15.0497
9.8012	15.2221
9.6913	15.3158
9.5838	15.5422
9.4787	15.5478
9.3758	15.5815
9.2752	15.6483
9.1767	15.5803
9.0803	15.6019
8.9858	15.4909
8.8934	15.4192
8.8028	15.2039
8.714	15.1518
8.627	14.5819
8.5417	14.576
8.4581	14.5787
8.3761	14.6436
8.2957	14.5696
8.2169	14.5133
8.1395	14.2409
8.0635	13.9444
7.989	13.7502
7.9158	13.666
7.8439	13.6224
7.7734	13.5937
7.7041	13.6
7.636	13.4304
7.5691	13.5598
7.5034	13.5145
7.4388	13.4552
7.3753	13.4697
7.3129	13.5209
7.2515	13.4432
7.1912	13.3819
7.1318	13.3853
7.0734	13.2679
7.016	13.1919
6.9595	13.1818
6.9039	13.1325
6.8492	13.0245
6.7953	13.0026
6.7423	12.8324
6.6901	12.8603
6.6387	12.9464
6.5881	12.7238
6.5382	12.4696
6.4892	12.7202
6.4408	12.499
6.3931	12.4309
6.3462	12.4258
6.2999	12.2485
6.2543	12.2434
6.2094	12.1848
6.1651	12.1257
6.1214	11.9988
6.0784	11.8957
6.0359	11.894
5.994	11.6706
5.9527	11.4262
5.912	11.2439
5.8718	11.2555
5.8322	11.2443
5.7931	11.1248
5.7545	11.3174
5.7165	11.2814
5.6789	11.4888
5.6418	11.6412
5.6052	11.5803
5.5691	11.6331
5.5334	11.6021
5.4982	11.6382
5.4635	11.5783
5.4291	11.5172
5.3952	11.3607
5.3618	11.2312
5.3287	11.1903
5.2961	11.1346
5.2638	11.0895
5.2319	11.0326
5.2004	10.9575
5.1693	10.8476
5.1386	10.7124
5.1082	10.752
5.0782	10.6068
5.0485	10.5948
5.0192	10.3015
4.9902	10.3539
4.9616	10.3064
4.9332	10.2586
4.9052	10.1391
4.8776	10.2385
4.8502	10.0421
4.8231	9.9715
4.7963	9.9308
4.7699	9.9046
4.7437	9.7902
4.7178	9.7594
4.6922	9.5849
4.6668	9.5911
4.6418	9.5745
4.617	9.381
4.5924	9.4097
4.5681	9.2874
4.5441	9.1756
4.5203	9.108
4.4968	9.1585
4.4735	9.0449
4.4505	8.9189
4.4277	8.9204
4.4051	8.7674
4.3828	8.6821
4.3607	8.6165
4.3388	8.5876
4.3171	8.5074
4.2956	8.3514
4.2744	8.3457
4.2534	8.3012
4.2325	8.0877
4.2119	8.1629
4.1915	8.2498
4.1712	8.0915
4.1512	8.0192
4.1313	7.995
4.1117	7.9434
4.0922	7.8451
4.0729	7.8533
4.0538	7.8664
4.0349	7.7605
4.0161	7.6451
3.9976	7.7555
3.9792	7.5563
3.9609	7.5159
3.9428	7.4439
3.9249	7.4673
3.9072	7.3678
3.8896	7.359
3.8722	7.3503
3.8549	7.2637
3.8378	7.1115
3.8208	7.1207
3.804	7.0662
3.7873	7.0212
3.7708	7.0537
3.7544	7.0488
3.7382	7.0349
3.7221	6.9002
3.7061	6.7415
3.6903	6.865
3.6746	6.8251
3.659	6.7635
3.6436	6.8174
3.6283	6.7969
3.6131	6.7245
3.5981	6.7547
3.5832	6.7606
3.5684	6.56
3.5537	6.5301
3.5391	6.4633
3.5247	6.5138
3.5104	6.4989
3.4962	6.3964
3.4821	6.3526
3.4681	6.3125
3.4543	6.4035
3.4405	6.2753
3.4269	6.4346
3.4133	6.2802
3.3999	6.2501
3.3866	6.3021
3.3733	6.1034
3.3602	6.101
3.3472	6.053
3.3343	6.0571
3.3215	5.9478
3.3088	5.8871
3.2961	6.0111
3.2836	5.809
3.2712	5.9292
3.2588	5.8473
3.2466	5.7353
3.2345	5.7843
3.2224	5.71
3.2104	5.6229
3.1985	5.7126
3.1867	5.4931
3.175	5.6589
3.1634	5.4399
3.1519	5.495
3.1404	5.4725
3.129	5.0746
3.1178	5.347
3.1065	5.3489
3.0954	5.2619
3.0844	5.2248
3.0734	5.021
3.0625	5.0711
3.0517	5.0483
3.041	5.0389
3.0303	5.0165
3.0197	4.9724
3.0092	4.8886
2.9987	4.7631
2.9884	4.9467
2.9781	4.7789
2.9678	4.7833
2.9577	4.5884
2.9476	4.7192
2.9376	4.5606
2.9276	4.6015
2.9177	4.5308
2.9079	4.7558
2.8982	4.4734
2.8885	4.7392
2.8789	4.5512
2.8693	4.8817
2.8598	4.9568
2.8504	5.0762
2.841	5.2051
2.8317	5.4252
2.8224	5.4306
2.8133	5.5539
2.8041	5.7759
2.7951	5.6955
2.786	5.5298
2.7771	5.9086
2.7682	5.7269
2.7594	5.9119
2.7506	5.9683
2.7418	6.0504
2.7332	6.188
2.7246	6.2805
2.716	6.2263
2.7075	6.5066
2.699	6.4862
2.6906	6.6716
2.6823	6.677
2.674	6.729
2.6657	6.6871
2.6575	6.8686
2.6494	6.7443
2.6413	6.7745
2.6332	6.9133
2.6252	6.761
2.6173	6.7985
2.6094	6.958
2.6015	6.6711
2.5937	6.8864
2.5859	6.9373
2.5782	6.8522
2.5706	6.9886
2.5629	6.8842
2.5554	6.9005
2.5478	6.737
2.5403	7.0382
2.5329	6.8117
2.5255	6.7969
2.5181	6.9754
2.5108	7.0699
2.5035	6.9615
2.4963	6.8442
2.4891	7.0678
2.482	6.8834
2.4749	6.8535
2.4678	6.8717
2.4608	7.1182
2.4538	7.0208
2.4468	6.9953
2.4399	7.0079
2.4331	7.1312
2.4262	7.0862
2.4194	7.0732
2.4127	7.1062
2.4059	7.0399
2.3993	6.9071
2.3926	7.0129
2.386	7.028
2.3795	7.1719
2.3729	6.972
2.3664	6.9956
2.36	7.03
2.3535	6.93
2.3471	6.9759
2.3408	7.0583
2.3345	7.0305
2.3282	7.0724
2.3219	7.0296
2.3157	7.1505
2.3095	6.9712
2.3034	7.3594
2.2972	7.0759
2.2911	6.9295
2.2851	7.203
2.279	7.0217
2.2731	7.207
2.2671	7.0233
2.2612	7.1916
2.2553	7.3277
2.2494	7.2166
2.2435	6.946
2.2377	7.2071
2.232	7.2148
2.2262	7.2719
2.2205	7.0151
2.2148	7.0314
2.2091	7.081
2.2035	7.1198
2.1979	7.4545
2.1923	7.168
2.1868	7.2161
2.1812	7.0789
2.1758	7.2154
2.1703	7.0077
2.1649	7.1632
2.1595	7.1828
2.1541	7.2066
2.1487	7.059
2.1434	7.2008
2.1381	6.9479
2.1328	7.2663
2.1275	7.2927
2.1223	7.3077
2.1171	7.1842
2.112	6.8607
2.1068	7.2473
2.1017	7.1997
2.0966	6.9711
2.0915	6.8362
2.0865	6.9877
2.0814	7.2631
2.0764	6.7621
2.0715	7.3096
2.0665	7.2808
2.0616	7.0534
2.0567	7.2725
2.0518	7.0099
2.0469	7.2815
2.0421	7.3456
2.0373	7.2667
2.0325	7.2674
2.0277	7.1441
2.0229	7.072
2.0182	7.227
2.0135	7.1878
2.0088	7.2785
2.0042	7.2251
