Name: Hematite alpha Fe_2O_3
Type: Mineral
Class: Oxide
Subclass: None
Particle Size: Fine
Sample No.: O-1A
Owner: JPL
Wavelength Range: VSWIR
Origin: USA, Alabama, Birmingham.
Description: Particle size was 0-45um.Collected by:  Burminco Original ASTER Spectral Library name was jpl.perkin.mineral.oxide.none.fine.o01a.spectrum.txt
Measurement: Hemispherical reflectance
X Units: Wavelength (micrometers)
Y Units: Reflectance (percent)
wavelength	value
2.5	23.2365
2.494	23.2416
2.488	23.2107
2.482	23.1344
2.476	23.2357
2.47	23.3288
2.464	23.1794
2.458	23.1708
2.452	23.2635
2.446	23.2649
2.44	23.2643
2.434	23.2463
2.428	23.3019
2.422	23.2304
2.416	23.1985
2.41	23.1996
2.404	23.1966
2.398	23.1934
2.392	23.1818
2.386	23.1514
2.38	23.2172
2.374	23.1231
2.368	23.2444
2.362	23.1446
2.356	23.1241
2.35	23.1442
2.344	23.1043
2.338	23.0996
2.332	23.0455
2.326	22.9917
2.32	23.0603
2.314	22.9558
2.308	23.0105
2.302	22.9604
2.296	22.906
2.29	22.8767
2.284	22.8786
2.278	22.827
2.272	22.7195
2.266	22.7617
2.26	22.7324
2.254	22.6788
2.248	22.6189
2.242	22.6799
2.236	22.5749
2.23	22.5855
2.224	22.5345
2.218	22.5818
2.212	22.669
2.206	22.6076
2.2	22.5966
2.194	22.5411
2.188	22.582
2.182	22.6022
2.176	22.587
2.17	22.552
2.164	22.6005
2.158	22.5994
2.152	22.5997
2.146	22.645
2.14	22.5634
2.134	22.4489
2.128	22.4248
2.122	22.3639
2.116	22.2127
2.11	22.111
2.104	21.976
2.098	21.8982
2.092	21.9537
2.086	21.9221
2.08	21.9055
2.074	21.9711
2.068	21.8964
2.062	21.8828
2.056	21.8562
2.05	21.8331
2.044	21.8185
2.038	21.8182
2.032	21.8265
2.026	21.7602
2.02	21.723
2.014	21.6806
2.008	21.6801
2.002	21.6551
1.996	21.5299
1.99	21.5729
1.984	21.421
1.978	21.3897
1.972	21.4295
1.966	21.2752
1.96	21.3148
1.954	21.1737
1.948	21.2962
1.942	21.2829
1.936	21.2218
1.93	21.1147
1.924	21.1651
1.918	21.1881
1.912	21.1223
1.906	21.1291
1.9	21.0722
1.894	21.1592
1.888	21.1664
1.882	21.1639
1.876	21.1375
1.87	21.1139
1.864	21.2271
1.858	21.1303
1.852	21.1172
1.846	21.1671
1.84	21.0721
1.834	21.0851
1.828	21.0825
1.822	21.0621
1.816	21.0337
1.81	21.0117
1.804	20.9913
1.798	20.97
1.792	20.9435
1.786	20.949
1.78	20.9213
1.774	20.878
1.768	20.873
1.762	20.8698
1.756	20.8721
1.75	20.8599
1.744	20.9043
1.738	20.8692
1.732	20.8363
1.726	20.803
1.72	20.8601
1.714	20.7592
1.708	20.7667
1.702	20.7586
1.696	20.7607
1.69	20.7927
1.684	20.7313
1.678	20.7255
1.672	20.7509
1.666	20.6628
1.66	20.7321
1.654	20.7047
1.648	20.6799
1.642	20.7387
1.636	20.6979
1.63	20.6793
1.624	20.646
1.618	20.6469
1.612	20.6797
1.606	20.6085
1.6	20.7023
1.594	20.6984
1.588	20.6494
1.582	20.674
1.576	20.6341
1.57	20.6526
1.564	20.6473
1.558	20.6686
1.552	20.6824
1.546	20.7205
1.54	20.6827
1.534	20.7237
1.528	20.6678
1.522	20.7089
1.516	20.675
1.51	20.7054
1.504	20.701
1.498	20.7628
1.492	20.7615
1.486	20.7628
1.48	20.7766
1.474	20.7793
1.468	20.8114
1.462	20.856
1.456	20.845
1.45	20.8281
1.444	20.8948
1.438	20.9656
1.432	20.8839
1.426	20.884
1.42	20.9564
1.414	20.9707
1.408	20.9616
1.402	21.0484
1.396	21.1678
1.39	21.2182
1.384	21.1772
1.378	21.2379
1.372	21.2564
1.366	21.347
1.36	21.3629
1.354	21.4338
1.348	21.3974
1.342	21.4806
1.336	21.5734
1.33	21.5774
1.324	21.5801
1.318	21.6136
1.312	21.7172
1.306	21.7843
1.3	21.8429
1.294	21.9013
1.288	21.9753
1.282	22.0472
1.276	22.0994
1.27	22.1141
1.264	22.2291
1.258	22.2994
1.252	22.335
1.246	22.415
1.24	22.4772
1.234	22.5219
1.228	22.6048
1.222	22.6631
1.216	22.78
1.21	22.8537
1.204	22.9032
1.198	22.9723
1.192	23.0986
1.186	23.1419
1.18	23.1944
1.174	23.2923
1.168	23.3132
1.162	23.3372
1.156	23.4435
1.15	23.5264
1.144	23.5365
1.138	23.5883
1.132	23.6751
1.126	23.7344
1.12	23.7494
1.114	23.7873
1.108	23.9193
1.102	23.9224
1.096	23.9274
1.09	23.9319
1.084	23.9302
1.078	23.943
1.072	24.0098
1.066	24.0389
1.06	23.8716
1.054	24.0085
1.048	23.884
1.042	23.7961
1.036	23.7826
1.03	23.6658
1.024	23.5478
1.018	23.3739
1.012	23.2145
1.006	22.9162
1	22.6796
0.994	22.2959
0.988	21.9061
0.982	21.5075
0.976	21.0208
0.97	20.5813
0.964	20.0585
0.958	19.6656
0.952	19.1224
0.946	18.6638
0.94	18.2668
0.934	17.8157
0.928	17.4824
0.922	17.131
0.916	16.7797
0.91	16.4819
0.904	16.2143
0.898	15.9705
0.892	15.7351
0.886	15.6096
0.88	15.5346
0.874	15.3171
0.868	15.2277
0.862	15.2377
0.856	15.3771
0.85	15.423
0.844	15.48
0.838	15.5495
0.832	15.6962
0.826	15.859
0.82	16.0274
0.814	16.2585
0.808	16.4967
0.802	16.7389
0.796	17.0145
0.79	17.293
0.784	17.5674
0.778	17.8385
0.772	18.0925
0.766	18.3022
0.76	18.4616
0.754	18.5513
0.748	18.5477
0.742	18.4636
0.736	18.2767
0.73	18.0002
0.724	17.6367
0.718	17.2144
0.712	16.74
0.706	16.2409
0.7	15.7366
0.694	15.2331
0.688	14.7528
0.682	14.3016
0.676	13.8729
0.67	13.4916
0.664	13.1412
0.658	12.8233
0.652	12.5417
0.646	12.2947
0.64	12.0598
0.634	11.8442
0.628	11.6263
0.622	11.3833
0.616	11.0954
0.61	10.7135
0.604	10.1969
0.598	9.5149
0.592	8.6665
0.586	7.6864
0.58	6.6518
0.574	5.6922
0.568	4.8875
0.562	4.27
0.556	3.8367
0.55	3.5426
0.544	3.3511
0.538	3.2223
0.532	3.129
0.526	3.0702
0.52	3.0319
0.514	3.0064
0.508	2.9942
0.502	2.9848
0.496	2.9803
0.49	2.9782
0.484	2.9742
0.478	2.9767
0.472	2.9854
0.466	3.0056
0.46	3.0236
0.454	3.0474
0.448	3.0682
0.442	3.0875
0.436	3.0991
0.43	3.1084
0.424	3.1145
0.418	3.1202
0.412	3.1269
0.406	3.1404
0.4	3.1546
