Name: Vermiculite (Mg,Fe^2+,Al)_3(Al,Si)_4O_10(OH)_2.4H_2O
Type: Mineral
Class: Silicate
Subclass: Phyllosilicate
Particle Size: Fine
Sample No.: PS-18B
Owner: JPL
Wavelength Range: VSWIR
Origin: USA, Montana, Lincoln County, Libby
Description: Particle size was 0-45um.Collected by Ward's Original ASTER Spectral Library name was jpl.beckman.mineral.silicate.phyllosilicate.fine.ps18b.spectrum.txt
Measurement: Hemispherical reflectance
X Units: Wavelength (micrometers)
Y Units: Reflectance (percent)
wavelength	value
0.4	14.66
0.403	14.99
0.406	15.11
0.409	15.62
0.412	15.85
0.415	16.31
0.418	16.7
0.421	17.11
0.424	17.73
0.427	18.13
0.43	19.11
0.433	19.56
0.436	20.48
0.439	21.04
0.442	21.61
0.445	22.41
0.448	22.75
0.451	23.38
0.454	23.67
0.457	24.18
0.46	24.47
0.463	24.47
0.466	24.87
0.469	24.93
0.472	25.1
0.475	25.44
0.478	25.62
0.481	26.13
0.484	26.36
0.487	27.05
0.49	27.45
0.493	27.91
0.496	28.71
0.499	29.05
0.502	30.03
0.505	30.49
0.508	31.22
0.511	32.09
0.514	32.42
0.517	33.28
0.52	33.74
0.523	34.42
0.526	34.88
0.529	35.28
0.532	35.9
0.535	36.08
0.538	36.59
0.541	36.88
0.544	37.22
0.547	37.67
0.55	37.9
0.553	38.36
0.556	38.59
0.559	38.88
0.562	39.16
0.565	39.39
0.568	39.5
0.571	39.79
0.574	40.02
0.577	39.9
0.58	40.36
0.583	40.25
0.586	40.64
0.589	40.64
0.592	40.87
0.595	41.16
0.598	41.27
0.601	41.79
0.604	41.67
0.607	42.08
0.61	42.02
0.613	42.35
0.616	42.35
0.619	42.53
0.622	42.64
0.625	42.81
0.628	43.1
0.631	42.93
0.634	43.45
0.637	43.33
0.64	43.56
0.643	43.85
0.646	43.95
0.649	44.18
0.652	44.07
0.655	44.12
0.658	44.07
0.661	44.18
0.664	44.7
0.667	44.7
0.67	44.81
0.673	44.64
0.676	44.7
0.679	44.76
0.682	44.87
0.685	45.1
0.688	44.87
0.691	45.04
0.694	45.1
0.697	45.04
0.7	45.1
0.703	45.04
0.706	45.39
0.709	45.27
0.712	45.5
0.715	45.56
0.718	45.61
0.721	45.9
0.724	45.67
0.727	46.07
0.73	46.18
0.733	46.3
0.736	46.41
0.739	46.3
0.742	46.76
0.745	46.7
0.748	47.04
0.751	47.22
0.754	47.32
0.757	47.84
0.76	47.78
0.763	48.18
0.766	48.18
0.769	48.13
0.772	48.64
0.775	48.64
0.778	48.87
0.781	49.03
0.784	48.87
0.787	49.32
0.79	49.15
0.793	49.38
0.796	49.38
0.799	49.9
0.808	50.13
0.82	50.3
0.832	50.41
0.844	50.58
0.856	50.63
0.868	50.58
0.88	50.41
0.892	50.53
0.904	50.47
0.916	50.53
0.928	50.53
0.94	50.63
0.952	50.75
0.964	51.03
0.976	51.09
0.988	51.21
1	51.44
1.012	51.61
1.024	51.78
1.036	51.84
1.048	51.9
1.06	52.01
1.072	52.07
1.084	52.07
1.096	52.35
1.108	52.46
1.12	52.75
1.132	52.81
1.144	52.92
1.156	53.2
1.168	53.42
1.18	53.74
1.192	54.02
1.204	54.35
1.216	54.58
1.228	54.8
1.24	55.32
1.252	55.66
1.264	56.05
1.276	56.31
1.288	56.75
1.3	57.09
1.312	57.42
1.324	57.69
1.336	57.96
1.348	58.28
1.36	58.45
1.372	58.22
1.384	57.94
1.396	57.14
1.408	56.92
1.42	56.54
1.432	57.01
1.444	57.54
1.456	58.17
1.468	58.57
1.48	59.19
1.492	59.83
1.504	60.45
1.516	60.85
1.528	61.31
1.54	61.7
1.552	62.05
1.564	62.16
1.576	62.5
1.588	62.62
1.6	62.95
1.612	63.17
1.624	63.44
1.636	63.48
1.648	63.63
1.66	63.91
1.672	64
1.684	64.04
1.696	64.32
1.708	64.37
1.72	64.59
1.732	64.59
1.744	64.48
1.756	64.59
1.768	64.65
1.78	64.65
1.792	64.59
1.804	64.86
1.816	64.73
1.828	64.79
1.84	64.83
1.852	64.73
1.864	63.91
1.876	62.37
1.888	59.24
1.9	54.59
1.912	51.01
1.924	50.15
1.936	51.16
1.948	52.45
1.96	53.49
1.972	54.46
1.984	55.72
1.996	57.03
2.008	57.99
2.02	58.98
2.032	59.8
2.044	60.43
2.056	60.87
2.068	61.53
2.08	62
2.092	62.21
2.104	62.69
2.116	63.05
2.128	63.25
2.14	63.45
2.152	63.71
2.164	63.67
2.176	63.62
2.188	63.42
2.2	63.3
2.212	63.14
2.224	62.91
2.236	62.59
2.248	61.95
2.26	60.99
2.272	59.41
2.284	57.43
2.296	55.42
2.308	54.49
2.32	54.37
2.332	54.8
2.344	55.13
2.356	54.89
2.368	54.05
2.38	53.1
2.392	52.49
2.404	51.88
2.416	51.75
2.428	51.18
2.44	50.57
2.452	49.9
2.464	49.27
2.476	48.38
2.488	47.65
2.5	46.87
