Name: Andesine (Feldspar) (NaSi,CaAl)AlSi_2O_8
Type: Mineral
Class: Silicate
Subclass: Tectosilicate
Particle Size: Medium
Sample No.: TS-4A
Owner: JPL
Wavelength Range: VSWIR
Origin: Unknown.
Description: Particle size was 45-125um. Collected by:  JPL Original ASTER Spectral Library name was jpl.perkin.mineral.silicate.tectosilicate.medium.ts04a.spectrum.txt
Measurement: Hemispherical reflectance
X Units: Wavelength (micrometers)
Y Units: Reflectance (percent)
wavelength	value
2.5	75.1995
2.494	75.3263
2.488	75.1059
2.482	75.416
2.476	75.5673
2.47	75.4022
2.464	75.6883
2.458	75.717
2.452	75.6803
2.446	75.8642
2.44	75.9409
2.434	75.9911
2.428	76.135
2.422	76.4844
2.416	76.767
2.41	76.9898
2.404	77.298
2.398	77.4883
2.392	77.5824
2.386	77.7497
2.38	77.9521
2.374	78.0674
2.368	78.1527
2.362	78.1541
2.356	78.168
2.35	78.1648
2.344	78.2169
2.338	78.3622
2.332	78.6176
2.326	78.7266
2.32	78.9805
2.314	79.2268
2.308	79.3652
2.302	79.6821
2.296	79.7017
2.29	79.8582
2.284	79.8623
2.278	79.8842
2.272	79.8868
2.266	79.8355
2.26	79.7675
2.254	79.7685
2.248	79.703
2.242	79.593
2.236	79.6008
2.23	79.4964
2.224	79.3459
2.218	79.0968
2.212	78.7881
2.206	78.3508
2.2	78.2664
2.194	78.3452
2.188	78.7976
2.182	79.4347
2.176	80.049
2.17	80.6003
2.164	80.9964
2.158	81.4567
2.152	81.6748
2.146	81.9157
2.14	81.8002
2.134	81.7563
2.128	81.6206
2.122	81.3893
2.116	81.0825
2.11	80.8259
2.104	80.6656
2.098	80.4919
2.092	80.5329
2.086	80.6545
2.08	80.6917
2.074	80.7481
2.068	80.8351
2.062	80.8632
2.056	80.9041
2.05	80.9229
2.044	80.9004
2.038	80.9405
2.032	80.8728
2.026	80.7012
2.02	80.7023
2.014	80.6042
2.008	80.5239
2.002	80.4512
1.996	80.2879
1.99	80.1377
1.984	79.9645
1.978	79.8082
1.972	79.7096
1.966	79.4074
1.96	79.3735
1.954	79.2975
1.948	79.2017
1.942	79.0957
1.936	78.9517
1.93	78.8194
1.924	78.709
1.918	78.4793
1.912	78.3598
1.906	78.524
1.9	79.269
1.894	79.9138
1.888	80.3696
1.882	80.7753
1.876	80.8683
1.87	81.0422
1.864	81.0954
1.858	81.1153
1.852	81.1331
1.846	81.1099
1.84	81.0895
1.834	81.1497
1.828	81.0501
1.822	81.0184
1.816	81.0739
1.81	81.1104
1.804	81.0329
1.798	81.0041
1.792	80.9845
1.786	80.9128
1.78	80.9707
1.774	80.8512
1.768	80.8196
1.762	80.7735
1.756	80.7826
1.75	80.8207
1.744	80.8801
1.738	80.8511
1.732	80.8213
1.726	80.8215
1.72	80.8009
1.714	80.7554
1.708	80.7226
1.702	80.6299
1.696	80.5969
1.69	80.5642
1.684	80.5774
1.678	80.5111
1.672	80.5296
1.666	80.428
1.66	80.454
1.654	80.3671
1.648	80.2612
1.642	80.2568
1.636	80.1789
1.63	80.1593
1.624	80.0714
1.618	80.0501
1.612	80.0078
1.606	79.8474
1.6	79.8642
1.594	79.7241
1.588	79.6158
1.582	79.585
1.576	79.4483
1.57	79.3251
1.564	79.2217
1.558	79.1107
1.552	78.951
1.546	78.8111
1.54	78.7386
1.534	78.5981
1.528	78.432
1.522	78.2376
1.516	78.1451
1.51	77.9584
1.504	77.794
1.498	77.5957
1.492	77.5323
1.486	77.2776
1.48	77.199
1.474	76.9426
1.468	76.788
1.462	76.6463
1.456	76.468
1.45	76.3192
1.444	76.1384
1.438	75.9187
1.432	75.6728
1.426	75.327
1.42	74.904
1.414	74.2033
1.408	74.207
1.402	74.4009
1.396	74.6545
1.39	75.0272
1.384	75.0805
1.378	75.1449
1.372	74.9316
1.366	74.9516
1.36	74.9245
1.354	74.7639
1.348	74.6407
1.342	74.6474
1.336	74.5769
1.33	74.4603
1.324	74.4676
1.318	74.3387
1.312	74.3726
1.306	74.3602
1.3	74.3126
1.294	74.3298
1.288	74.2751
1.282	74.3089
1.276	74.2923
1.27	74.3633
1.264	74.2997
1.258	74.353
1.252	74.3454
1.246	74.473
1.24	74.5736
1.234	74.5729
1.228	74.6254
1.222	74.773
1.216	74.8394
1.21	74.9027
1.204	75.016
1.198	75.1478
1.192	75.2728
1.186	75.3271
1.18	75.4935
1.174	75.6012
1.168	75.7263
1.162	75.8787
1.156	76.0489
1.15	76.3451
1.144	76.4367
1.138	76.6619
1.132	76.7763
1.126	76.9955
1.12	77.2138
1.114	77.3635
1.108	77.5502
1.102	77.7273
1.096	77.9592
1.09	78.0889
1.084	78.3795
1.078	78.5439
1.072	78.7127
1.066	78.8559
1.06	79.1015
1.054	79.2414
1.048	79.3796
1.042	79.5864
1.036	79.8034
1.03	79.8608
1.024	80.1275
1.018	80.2623
1.012	80.4855
1.006	80.5563
1	80.617
0.994	80.7628
0.988	80.9756
0.982	81.0422
0.976	81.1085
0.97	81.1783
0.964	81.2203
0.958	81.2632
0.952	81.3063
0.946	81.4152
0.94	81.4389
0.934	81.5263
0.928	81.4773
0.922	81.5577
0.916	81.6198
0.91	81.6513
0.904	81.6075
0.898	81.6311
0.892	81.6811
0.886	81.6456
0.88	81.7057
0.874	81.8138
0.868	81.7494
0.862	81.6983
0.856	81.9638
0.85	82.0387
0.844	82.0688
0.838	82.0875
0.832	82.0721
0.826	82.155
0.82	82.1356
0.814	82.1865
0.808	82.1703
0.802	82.19
0.796	82.1533
0.79	82.121
0.784	82.108
0.778	82.0749
0.772	82.0139
0.766	81.9751
0.76	81.9874
0.754	81.9267
0.748	81.9086
0.742	81.828
0.736	81.7949
0.73	81.7553
0.724	81.6836
0.718	81.637
0.712	81.6212
0.706	81.5376
0.7	81.5153
0.694	81.4447
0.688	81.4282
0.682	81.3697
0.676	81.3106
0.67	81.2787
0.664	81.2293
0.658	81.1839
0.652	81.1495
0.646	81.0989
0.64	81.0258
0.634	80.9725
0.628	80.9119
0.622	80.8518
0.616	80.7745
0.61	80.7169
0.604	80.6006
0.598	80.5475
0.592	80.5014
0.586	80.3862
0.58	80.2603
0.574	80.1071
0.568	79.9434
0.562	79.7389
0.556	79.547
0.55	79.2877
0.544	79.0068
0.538	78.6954
0.532	78.3563
0.526	77.953
0.52	77.5241
0.514	77.0499
0.508	76.5625
0.502	76.085
0.496	75.5518
0.49	75.038
0.484	74.5626
0.478	74.1126
0.472	73.7112
0.466	73.2939
0.46	72.876
0.454	72.3355
0.448	71.6895
0.442	70.9179
0.436	70.0259
0.43	69.0439
0.424	68.1434
0.418	67.3592
0.412	66.6983
0.406	65.9841
0.4	65.1765
