Name: Ulexite NaCaB_5O_6(OH)_6.5H_2O
Type: Mineral
Class: Borate
Subclass: None
Particle Size: Fine
Sample No.: B-3A
Owner: JPL
Wavelength Range: VSWIR
Origin: USA, California, Kern County, Boron
Description: Particle size was 0-45um.Collected by JPL Original ASTER Spectral Library name was jpl.beckman.mineral.borate.none.fine.b03.spectrum.txt
Measurement: Hemispherical reflectance
X Units: Wavelength (micrometers)
Y Units: Reflectance (percent)
wavelength	value
0.4	89.27
0.403	89.68
0.406	89.8
0.409	90.43
0.412	90.32
0.415	90.85
0.418	91.14
0.421	90.96
0.424	91.49
0.427	91.08
0.43	91.49
0.433	91.49
0.436	91.49
0.439	91.77
0.442	91.72
0.445	92.24
0.448	92.3
0.451	92.24
0.454	92.66
0.457	92.37
0.46	92.78
0.463	92.63
0.466	92.73
0.469	92.74
0.472	92.98
0.475	92.75
0.478	92.7
0.481	93.12
0.484	93.07
0.487	93.3
0.49	93.02
0.493	93.26
0.496	93.38
0.499	93.33
0.502	93.73
0.505	93.62
0.508	93.79
0.511	93.85
0.514	93.57
0.517	93.97
0.52	93.62
0.523	93.97
0.526	94.2
0.529	93.97
0.532	94.5
0.535	94.32
0.538	94.38
0.541	94.55
0.544	94.26
0.547	94.73
0.55	94.32
0.553	94.14
0.556	94.5
0.559	94.38
0.562	94.61
0.565	94.67
0.568	94.85
0.571	94.73
0.574	94.55
0.577	94.85
0.58	94.67
0.583	94.96
0.586	94.5
0.589	94.26
0.592	94.73
0.595	94.44
0.598	94.44
0.601	95.08
0.604	95.02
0.607	95.26
0.61	95.2
0.613	94.96
0.616	95.6
0.619	95.31
0.622	95.37
0.625	95.6
0.628	95.26
0.631	95.54
0.634	95.31
0.637	94.91
0.64	95.31
0.643	95.31
0.646	95.42
0.649	95.37
0.652	95.42
0.655	95.6
0.658	95.54
0.661	95.66
0.664	95.78
0.667	95.6
0.67	95.54
0.673	95.54
0.676	95.48
0.679	95.78
0.682	95.37
0.685	95.6
0.688	95.72
0.691	95.6
0.694	95.95
0.697	95.6
0.7	95.6
0.703	95.78
0.706	95.37
0.709	95.66
0.712	95.54
0.715	95.54
0.718	95.72
0.721	95.2
0.724	95.48
0.727	95.6
0.73	95.37
0.733	95.72
0.736	95.48
0.739	95.2
0.742	95.42
0.745	95.02
0.748	95.37
0.751	94.96
0.754	94.79
0.757	95.14
0.76	95.26
0.763	95.14
0.766	95.42
0.769	95.14
0.772	95.48
0.775	95.2
0.778	95.26
0.781	95.48
0.784	95.26
0.787	95.48
0.79	95.31
0.793	95.08
0.796	95.54
0.799	94.2
0.808	94.14
0.82	94.08
0.832	94.14
0.844	94.14
0.856	94.08
0.868	94.03
0.88	94.08
0.892	93.85
0.904	93.85
0.916	93.85
0.928	93.79
0.94	93.57
0.952	93.33
0.964	92.86
0.976	92.39
0.988	92.74
1	92.86
1.012	93.04
1.024	93.33
1.036	93.62
1.048	93.73
1.06	93.79
1.072	93.73
1.084	93.85
1.096	93.67
1.108	93.62
1.12	93.62
1.132	93.57
1.144	93.1
1.156	92.62
1.168	91.89
1.18	91
1.192	90.57
1.204	90.49
1.216	90.32
1.228	90.14
1.24	90.14
1.252	90.26
1.264	90.36
1.276	90.34
1.288	90.25
1.3	89.93
1.312	89.1
1.324	88.08
1.336	87.15
1.348	86.53
1.36	86.19
1.372	85.42
1.384	83.74
1.396	80.6
1.408	75.26
1.42	68.54
1.432	67.03
1.444	68.1
1.456	66.71
1.468	66.77
1.48	67.99
1.492	69.04
1.504	69.8
1.516	70.67
1.528	71.14
1.54	71.66
1.552	72.24
1.564	72.36
1.576	72.36
1.588	72.18
1.6	71.77
1.612	71.41
1.624	71.1
1.636	70.8
1.648	70.66
1.66	70.35
1.672	70.22
1.684	70.08
1.696	69.83
1.708	69.72
1.72	69.6
1.732	69.37
1.744	69.19
1.756	68.9
1.768	68.84
1.78	68.9
1.792	69.19
1.804	69.4
1.816	69.45
1.828	69.26
1.84	68.68
1.852	67.81
1.864	66.23
1.876	63.9
1.888	60.82
1.9	56.47
1.912	51.08
1.924	44.72
1.936	38.18
1.948	34.65
1.96	35.72
1.972	38.46
1.984	41.25
1.996	43.93
2.008	45.97
2.02	47.06
2.032	47.24
2.044	47.28
2.056	47.19
2.068	46.73
2.08	46.16
2.092	45.19
2.104	43.77
2.116	42.81
2.128	43.01
2.14	43.1
2.152	42.15
2.164	41.42
2.176	42.2
2.188	44.21
2.2	46.26
2.212	47.65
2.224	48.38
2.236	48.92
2.248	49.93
2.26	51.48
2.272	52.51
2.284	52.9
2.296	52.8
2.308	52.26
2.32	51.74
2.332	51.1
2.344	49.81
2.356	48.22
2.368	46.41
2.38	44.47
2.392	42.51
2.404	40.7
2.416	39.22
2.428	37.74
2.44	35.99
2.452	34.39
2.464	33.14
2.476	32.46
2.488	32.51
2.5	32.73
