Name: Johannsenite Ca(Mn,Fe^2+)(SiO_3)_2
Type: Mineral
Class: Silicate
Subclass: Inosilicate
Particle Size: Fine
Sample No.: IN-12A
Owner: JPL
Wavelength Range: VSWIR
Origin: USA, Arizona, Graham County, Aravaipa
Description: Particle size was 0-45um.Collected by Burminco Original ASTER Spectral Library name was jpl.beckman.mineral.silicate.inosilicate.fine.in12a.spectrum.txt
Measurement: Hemispherical reflectance
X Units: Wavelength (micrometers)
Y Units: Reflectance (percent)
wavelength	value
0.4	5.43
0.403	5.57
0.406	5.5
0.409	5.67
0.412	5.81
0.415	5.93
0.418	5.91
0.421	5.99
0.424	6.14
0.427	6.28
0.43	6.38
0.433	6.55
0.436	6.51
0.439	6.69
0.442	6.73
0.445	6.96
0.448	6.98
0.451	7.16
0.454	7.12
0.457	7.31
0.46	7.42
0.463	7.51
0.466	7.63
0.469	7.87
0.472	7.91
0.475	8.05
0.478	8.26
0.481	8.32
0.484	8.48
0.487	8.62
0.49	8.77
0.493	8.89
0.496	9.13
0.499	9.16
0.502	9.32
0.505	9.6
0.508	9.73
0.511	9.81
0.514	10.01
0.517	10.08
0.52	10.32
0.523	10.64
0.526	10.69
0.529	10.88
0.532	11.05
0.535	11.16
0.538	11.35
0.541	11.57
0.544	11.74
0.547	11.91
0.55	12.13
0.553	12.18
0.556	12.4
0.559	12.59
0.562	12.77
0.565	12.88
0.568	13.07
0.571	13.21
0.574	13.37
0.577	13.52
0.58	13.49
0.583	13.67
0.586	13.73
0.589	13.94
0.592	14.11
0.595	14.26
0.598	14.35
0.601	14.44
0.604	14.55
0.607	14.73
0.61	14.84
0.613	15.06
0.616	15.05
0.619	15.14
0.622	15.22
0.625	15.45
0.628	15.59
0.631	15.66
0.634	15.7
0.637	15.77
0.64	15.88
0.643	16.11
0.646	16.15
0.649	16.33
0.652	16.28
0.655	16.45
0.658	16.57
0.661	16.75
0.664	16.87
0.667	17.01
0.67	16.99
0.673	17.05
0.676	17.14
0.679	17.35
0.682	17.4
0.685	17.43
0.688	17.4
0.691	17.48
0.694	17.56
0.697	17.65
0.7	17.74
0.703	17.68
0.706	17.81
0.709	17.79
0.712	17.95
0.715	17.89
0.718	17.98
0.721	18.08
0.724	18.21
0.727	18.27
0.73	18.29
0.733	18.32
0.736	18.46
0.739	18.54
0.742	18.56
0.745	18.58
0.748	18.57
0.751	18.79
0.754	18.88
0.757	18.94
0.76	18.92
0.763	18.97
0.766	19.05
0.769	19.19
0.772	19.24
0.775	19.38
0.778	19.39
0.781	19.43
0.784	19.41
0.787	19.72
0.79	19.8
0.793	19.95
0.796	19.99
0.799	20.16
0.808	20.52
0.82	20.86
0.832	21.21
0.844	21.48
0.856	21.69
0.868	22.09
0.88	22.29
0.892	22.49
0.904	22.69
0.916	22.72
0.928	22.97
0.94	23.18
0.952	23.36
0.964	23.58
0.976	23.78
0.988	24.16
1	24.31
1.012	24.71
1.024	24.97
1.036	25.41
1.048	25.71
1.06	25.97
1.072	26.21
1.084	26.62
1.096	26.82
1.108	27.05
1.12	27.34
1.132	27.57
1.144	27.71
1.156	28.1
1.168	28.39
1.18	28.65
1.192	28.95
1.204	29.39
1.216	29.78
1.228	30.1
1.24	30.52
1.252	31.04
1.264	31.48
1.276	31.8
1.288	32.29
1.3	32.91
1.312	33.38
1.324	33.84
1.336	34.22
1.348	34.7
1.36	35.28
1.372	35.71
1.384	36.09
1.396	36.4
1.408	36.67
1.42	37.23
1.432	37.66
1.444	38.07
1.456	38.54
1.468	38.98
1.48	39.44
1.492	39.9
1.504	40.37
1.516	40.81
1.528	41.12
1.54	41.62
1.552	42.07
1.564	42.42
1.576	42.73
1.588	43.11
1.6	43.55
1.612	44.02
1.624	44.32
1.636	44.68
1.648	45.09
1.66	45.41
1.672	45.77
1.684	46.19
1.696	46.6
1.708	46.83
1.72	47.2
1.732	47.52
1.744	47.87
1.756	48.14
1.768	48.49
1.78	48.81
1.792	49.03
1.804	49.42
1.816	49.67
1.828	50.13
1.84	50.31
1.852	50.5
1.864	50.72
1.876	50.63
1.888	49.83
1.9	48.55
1.912	48.16
1.924	48.7
1.936	49.21
1.948	49.71
1.96	50.18
1.972	50.86
1.984	51.45
1.996	51.96
2.008	52.53
2.02	53.17
2.032	53.7
2.044	54.08
2.056	54.48
2.068	54.87
2.08	55.16
2.092	55.64
2.104	56
2.116	56.33
2.128	56.75
2.14	56.93
2.152	56.94
2.164	57.24
2.176	57.27
2.188	57.3
2.2	57.45
2.212	57.46
2.224	57.35
2.236	57.55
2.248	57.63
2.26	57.43
2.272	57.34
2.284	57.22
2.296	57.31
2.308	57.78
2.32	58.26
2.332	58.33
2.344	58.41
2.356	58.35
2.368	58.05
2.38	57.71
2.392	57.41
2.404	57.21
2.416	56.97
2.428	56.66
2.44	56.35
2.452	56.05
2.464	55.45
2.476	55.06
2.488	55.01
2.5	54.89
