Name: Oligoclase (Feldspar) (NaSi,CaAl)AlSi_2O_8
Type: Mineral
Class: Silicate
Subclass: Tectosilicate
Particle Size: Medium
Sample No.: TS-3A
Owner: JPL
Wavelength Range: VSWIR
Origin: Unknown.
Description: Particle size was 45-125um.Collected by:  JPL Original ASTER Spectral Library name was jpl.perkin.mineral.silicate.tectosilicate.medium.ts03a.spectrum.txt
Measurement: Hemispherical reflectance
X Units: Wavelength (micrometers)
Y Units: Reflectance (percent)
wavelength	value
2.5	71.6223
2.494	71.9898
2.488	71.7538
2.482	71.8197
2.476	71.973
2.47	72.2005
2.464	72.4038
2.458	72.5685
2.452	72.7885
2.446	73.0571
2.44	73.042
2.434	73.337
2.428	73.5399
2.422	73.8322
2.416	74.2176
2.41	74.4831
2.404	74.8013
2.398	74.9554
2.392	75.1952
2.386	75.2517
2.38	75.2284
2.374	74.9674
2.368	74.6798
2.362	74.2299
2.356	73.9909
2.35	74.013
2.344	74.4416
2.338	74.8277
2.332	75.3931
2.326	75.9697
2.32	76.6109
2.314	77.2523
2.308	77.5757
2.302	78.007
2.296	78.1876
2.29	78.3892
2.284	78.6103
2.278	78.8151
2.272	78.7184
2.266	78.7565
2.26	78.7231
2.254	78.7447
2.248	78.8458
2.242	79.0457
2.236	79.0929
2.23	79.1321
2.224	79.0733
2.218	78.7951
2.212	78.4034
2.206	77.7299
2.2	77.3821
2.194	77.327
2.188	77.9779
2.182	78.7554
2.176	79.5906
2.17	80.2622
2.164	80.7011
2.158	81.0815
2.152	81.3286
2.146	81.4958
2.14	81.5442
2.134	81.366
2.128	81.1258
2.122	80.94
2.116	80.6444
2.11	80.4079
2.104	80.1502
2.098	80.0406
2.092	80.0047
2.086	80.039
2.08	80.0872
2.074	80.0742
2.068	80.0238
2.062	79.982
2.056	80.0088
2.05	79.9335
2.044	79.8026
2.038	79.6728
2.032	79.4878
2.026	79.4051
2.02	79.0243
2.014	78.7763
2.008	78.4938
2.002	78.1655
1.996	77.871
1.99	77.3743
1.984	77.0474
1.978	76.6223
1.972	76.3181
1.966	75.9469
1.96	75.6238
1.954	75.2901
1.948	75.2179
1.942	75.1239
1.936	74.9622
1.93	74.9798
1.924	75.1361
1.918	75.4616
1.912	76.1003
1.906	76.8069
1.9	77.9638
1.894	79.0581
1.888	80.2141
1.882	80.8434
1.876	81.3889
1.87	81.7369
1.864	81.9692
1.858	82.0329
1.852	82.1177
1.846	82.1716
1.84	82.1601
1.834	82.1392
1.828	82.2652
1.822	82.2224
1.816	82.3154
1.81	82.3008
1.804	82.22
1.798	82.2678
1.792	82.2284
1.786	82.2666
1.78	82.2001
1.774	82.2221
1.768	82.2274
1.762	82.1555
1.756	82.1035
1.75	82.1811
1.744	82.3274
1.738	82.2885
1.732	82.2952
1.726	82.3157
1.72	82.3111
1.714	82.2893
1.708	82.1924
1.702	82.2603
1.696	82.1689
1.69	82.1477
1.684	82.1994
1.678	82.2038
1.672	82.1318
1.666	82.0687
1.66	82.1171
1.654	82.0085
1.648	82.0885
1.642	82.132
1.636	81.9424
1.63	82.0143
1.624	82.0027
1.618	81.9979
1.612	81.9851
1.606	82.0356
1.6	81.8886
1.594	81.8103
1.588	81.8835
1.582	81.7508
1.576	81.6812
1.57	81.666
1.564	81.5772
1.558	81.5219
1.552	81.5168
1.546	81.5025
1.54	81.3457
1.534	81.2902
1.528	81.2197
1.522	81.1249
1.516	81.0063
1.51	80.9403
1.504	80.7559
1.498	80.6324
1.492	80.517
1.486	80.3252
1.48	80.1837
1.474	80.0342
1.468	79.9465
1.462	79.8754
1.456	79.8383
1.45	79.7644
1.444	79.5887
1.438	79.6672
1.432	79.5645
1.426	79.415
1.42	79.0239
1.414	78.315
1.408	78.461
1.402	78.9229
1.396	79.7741
1.39	80.3585
1.384	80.6536
1.378	80.5881
1.372	80.6826
1.366	80.6445
1.36	80.5968
1.354	80.6179
1.348	80.595
1.342	80.4896
1.336	80.63
1.33	80.4797
1.324	80.415
1.318	80.3822
1.312	80.4215
1.306	80.3443
1.3	80.3309
1.294	80.3037
1.288	80.2459
1.282	80.2976
1.276	80.3479
1.27	80.1927
1.264	80.1804
1.258	80.2928
1.252	80.1903
1.246	80.1781
1.24	80.2051
1.234	80.1541
1.228	80.1439
1.222	80.1561
1.216	80.0831
1.21	80.1347
1.204	80.0944
1.198	80.1497
1.192	80.0782
1.186	80.1398
1.18	80.1955
1.174	80.1925
1.168	80.2595
1.162	80.2148
1.156	80.2643
1.15	80.3123
1.144	80.3544
1.138	80.3646
1.132	80.4298
1.126	80.5205
1.12	80.4319
1.114	80.6372
1.108	80.629
1.102	80.6555
1.096	80.6971
1.09	80.6887
1.084	80.8045
1.078	80.7935
1.072	80.8902
1.066	80.825
1.06	80.9803
1.054	81.0384
1.048	80.9733
1.042	81.0894
1.036	81.1463
1.03	81.2085
1.024	81.2186
1.018	81.3111
1.012	81.4104
1.006	81.3856
1	81.3914
0.994	81.4696
0.988	81.5025
0.982	81.5506
0.976	81.5501
0.97	81.5484
0.964	81.5922
0.958	81.61
0.952	81.6518
0.946	81.6209
0.94	81.6808
0.934	81.6665
0.928	81.6763
0.922	81.6375
0.916	81.7437
0.91	81.6668
0.904	81.7114
0.898	81.6784
0.892	81.6424
0.886	81.6406
0.88	81.7157
0.874	81.6205
0.868	81.5808
0.862	81.5982
0.856	81.6065
0.85	81.5609
0.844	81.5191
0.838	81.5416
0.832	81.4917
0.826	81.5061
0.82	81.4928
0.814	81.4732
0.808	81.4427
0.802	81.4053
0.796	81.3029
0.79	81.306
0.784	81.3239
0.778	81.2493
0.772	81.1855
0.766	81.1524
0.76	81.1724
0.754	81.11
0.748	81.1091
0.742	81.0274
0.736	81.0076
0.73	80.9664
0.724	80.9487
0.718	80.9168
0.712	80.9022
0.706	80.8707
0.7	80.8217
0.694	80.7977
0.688	80.7527
0.682	80.7027
0.676	80.6815
0.67	80.652
0.664	80.6242
0.658	80.5981
0.652	80.5598
0.646	80.528
0.64	80.4629
0.634	80.4147
0.628	80.3732
0.622	80.3071
0.616	80.2646
0.61	80.1635
0.604	80.0465
0.598	79.9711
0.592	79.8605
0.586	79.6919
0.58	79.5004
0.574	79.2865
0.568	79.0847
0.562	78.8374
0.556	78.6294
0.55	78.4056
0.544	78.2229
0.538	78.0844
0.532	77.9657
0.526	77.9126
0.52	77.8686
0.514	77.811
0.508	77.7455
0.502	77.6213
0.496	77.4572
0.49	77.1792
0.484	76.8864
0.478	76.5885
0.472	76.3019
0.466	76.0135
0.46	75.641
0.454	75.2005
0.448	74.8424
0.442	74.4921
0.436	74.1394
0.43	73.7661
0.424	73.4086
0.418	73.0668
0.412	72.7306
0.406	72.2986
0.4	71.7694
