Name: Quartz SiO_2
Type: Mineral
Class: Silicate
Subclass: Tectosilicate
Particle Size: Coarse
Sample No.: TS-1E
Owner: JPL
Wavelength Range: VSWIR
Origin: Unknown.
Description: CrysopraseParticle size was 125-500um.Collected by:  JPL Original ASTER Spectral Library name was jpl.perkin.mineral.silicate.tectosilicate.coarse.ts01e.spectrum.txt
Measurement: Hemispherical reflectance
X Units: Wavelength (micrometers)
Y Units: Reflectance (percent)
wavelength	value
2.5	44.4769
2.494	44.6332
2.488	45.3372
2.482	45.7256
2.476	46.2799
2.47	46.9316
2.464	47.6448
2.458	48.6896
2.452	49.4926
2.446	50.6093
2.44	51.5177
2.434	52.4215
2.428	53.0012
2.422	53.6617
2.416	54.2355
2.41	55.0094
2.404	55.7453
2.398	56.4912
2.392	57.2039
2.386	57.7563
2.38	58.1592
2.374	58.3828
2.368	58.5371
2.362	58.5248
2.356	58.2764
2.35	57.9105
2.344	57.3998
2.338	56.6258
2.332	55.4939
2.326	54.4159
2.32	53.4818
2.314	52.9226
2.308	52.6359
2.302	52.6457
2.296	52.9219
2.29	53.2659
2.284	53.6779
2.278	53.8353
2.272	54.004
2.266	54.0299
2.26	53.8135
2.254	53.7047
2.248	53.7649
2.242	53.9282
2.236	54.266
2.23	54.3434
2.224	54.3151
2.218	54.4315
2.212	54.6614
2.206	55.4759
2.2	56.8679
2.194	58.4464
2.188	60.0079
2.182	61.5455
2.176	63.0998
2.17	64.4661
2.164	65.5119
2.158	66.4882
2.152	67.2606
2.146	67.9645
2.14	68.352
2.134	68.7304
2.128	68.8945
2.122	68.9161
2.116	68.8016
2.11	68.568
2.104	68.3303
2.098	68.2927
2.092	68.3602
2.086	68.5374
2.08	68.5376
2.074	68.5565
2.068	68.5742
2.062	68.5295
2.056	68.5074
2.05	68.3589
2.044	68.3068
2.038	68.0543
2.032	67.7828
2.026	67.3504
2.02	66.9717
2.014	66.3873
2.008	65.9082
2.002	65.4047
1.996	64.8476
1.99	64.1006
1.984	63.3815
1.978	62.6101
1.972	61.91
1.966	61.0899
1.96	60.4042
1.954	59.7717
1.948	59.1164
1.942	58.603
1.936	57.9771
1.93	57.4997
1.924	56.9498
1.918	56.6832
1.912	56.4092
1.906	57.0902
1.9	59.4784
1.894	62.9888
1.888	66.6624
1.882	69.3821
1.876	71.1546
1.87	72.4858
1.864	73.2321
1.858	73.6591
1.852	73.8898
1.846	74.098
1.84	74.2648
1.834	74.3509
1.828	74.3386
1.822	74.379
1.816	74.3267
1.81	74.3924
1.804	74.5561
1.798	74.4188
1.792	74.4994
1.786	74.5208
1.78	74.494
1.774	74.5744
1.768	74.6297
1.762	74.6751
1.756	74.7842
1.75	74.8559
1.744	74.8168
1.738	74.9633
1.732	75.0076
1.726	75.0362
1.72	75.0795
1.714	75.1474
1.708	75.1107
1.702	75.1408
1.696	75.1242
1.69	75.0197
1.684	75.0286
1.678	75.078
1.672	75.0376
1.666	74.9861
1.66	74.9978
1.654	74.9999
1.648	74.955
1.642	74.9013
1.636	74.9455
1.63	74.939
1.624	74.91
1.618	74.812
1.612	74.8521
1.606	74.8146
1.6	74.6309
1.594	74.6845
1.588	74.4555
1.582	74.4383
1.576	74.2858
1.57	74.2244
1.564	74.0802
1.558	73.9697
1.552	73.8266
1.546	73.6724
1.54	73.4885
1.534	73.2609
1.528	73.1357
1.522	72.9218
1.516	72.6873
1.51	72.4632
1.504	72.2457
1.498	71.9775
1.492	71.5415
1.486	71.3352
1.48	70.9218
1.474	70.5958
1.468	70.2199
1.462	69.9985
1.456	69.774
1.45	69.5672
1.444	69.1332
1.438	68.5591
1.432	67.8963
1.426	67.2279
1.42	66.7303
1.414	61.6623
1.408	64.9709
1.402	68.5516
1.396	71.2687
1.39	72.7807
1.384	73.6221
1.378	73.8554
1.372	74.0461
1.366	74.0362
1.36	73.9176
1.354	73.7516
1.348	73.4891
1.342	73.2954
1.336	72.9286
1.33	72.6592
1.324	72.3284
1.318	71.9376
1.312	71.5938
1.306	71.1525
1.3	70.6169
1.294	70.1628
1.288	69.6573
1.282	69.1727
1.276	68.7248
1.27	68.2916
1.264	67.8012
1.258	67.2892
1.252	66.8073
1.246	66.413
1.24	66.0103
1.234	65.6864
1.228	65.3482
1.222	64.9728
1.216	64.5422
1.21	64.2435
1.204	63.8217
1.198	63.529
1.192	63.1503
1.186	62.9436
1.18	62.6487
1.174	62.3986
1.168	62.198
1.162	61.977
1.156	61.7307
1.15	61.5515
1.144	61.5236
1.138	61.459
1.132	61.2975
1.126	61.2241
1.12	61.2255
1.114	61.2095
1.108	61.1993
1.102	61.2188
1.096	61.289
1.09	61.3572
1.084	61.5931
1.078	61.8129
1.072	62.0409
1.066	62.2526
1.06	62.5318
1.054	62.8587
1.048	63.1842
1.042	63.5733
1.036	63.978
1.03	64.4559
1.024	64.8713
1.018	65.499
1.012	65.9196
1.006	66.522
1	67.075
0.994	67.6978
0.988	68.22
0.982	68.7682
0.976	69.3934
0.97	69.9764
0.964	70.4113
0.958	71.0601
0.952	71.7402
0.946	72.3777
0.94	72.873
0.934	73.4335
0.928	73.8004
0.922	74.2903
0.916	74.6325
0.91	74.9796
0.904	75.3323
0.898	75.6286
0.892	75.8766
0.886	76.103
0.88	76.3641
0.874	76.3662
0.868	76.5865
0.862	76.5629
0.856	76.7727
0.85	76.6866
0.844	76.6643
0.838	76.5719
0.832	76.4351
0.826	76.2144
0.82	75.9156
0.814	75.4958
0.808	75.026
0.802	74.4394
0.796	73.7336
0.79	72.8877
0.784	71.9882
0.778	70.8608
0.772	69.6275
0.766	68.3859
0.76	67.0414
0.754	65.79
0.748	64.5667
0.742	63.5654
0.736	62.7289
0.73	62.1069
0.724	61.6336
0.718	61.2095
0.712	60.7306
0.706	60.1771
0.7	59.5522
0.694	59.0083
0.688	58.4683
0.682	57.9368
0.676	57.3465
0.67	56.8027
0.664	56.415
0.658	56.2532
0.652	56.1738
0.646	56.2509
0.64	56.7803
0.634	57.726
0.628	58.8319
0.622	60.0429
0.616	61.4656
0.61	63.0398
0.604	64.5639
0.598	66.0447
0.592	67.4513
0.586	68.6451
0.58	69.668
0.574	70.4861
0.568	71.0992
0.562	71.5468
0.556	71.7945
0.55	71.9263
0.544	71.9574
0.538	71.907
0.532	71.7535
0.526	71.5578
0.52	71.2991
0.514	70.9283
0.508	70.4755
0.502	69.9326
0.496	69.3156
0.49	68.5774
0.484	67.6932
0.478	66.7262
0.472	65.6162
0.466	64.4302
0.46	63.1727
0.454	61.9613
0.448	60.7589
0.442	59.4342
0.436	57.8855
0.43	55.7242
0.424	52.9989
0.418	50.1159
0.412	47.5854
0.406	45.545
0.4	43.7776
