Name: Cummingtonite (Mg,Fe^2+)_7Si_8O_22(OH)_2
Type: Mineral
Class: Silicate
Subclass: Inosilicate
Particle Size: Medium
Sample No.: IN-6A
Owner: JPL
Wavelength Range: VSWIR
Origin: USA, South Dakota
Description: Particle size was 45-125um.Collected by Ward's Original ASTER Spectral Library name was jpl.beckman.mineral.silicate.inosilicate.medium.in06a.spectrum.txt
Measurement: Hemispherical reflectance
X Units: Wavelength (micrometers)
Y Units: Reflectance (percent)
wavelength	value
0.4	5.91
0.403	5.91
0.406	6.02
0.409	6.08
0.412	6.09
0.415	6.56
0.418	6.48
0.421	6.54
0.424	6.59
0.427	6.65
0.43	6.58
0.433	6.7
0.436	6.66
0.439	6.54
0.442	6.58
0.445	6.63
0.448	6.7
0.451	6.71
0.454	6.74
0.457	7.1
0.46	7.08
0.463	7.12
0.466	7.19
0.469	7.35
0.472	7.27
0.475	7.26
0.478	7.24
0.481	7.34
0.484	7.43
0.487	7.4
0.49	7.32
0.493	7.28
0.496	7.36
0.499	7.39
0.502	7.48
0.505	7.37
0.508	7.32
0.511	7.28
0.514	7.68
0.517	7.97
0.52	8.03
0.523	8.11
0.526	8
0.529	8.06
0.532	8.1
0.535	7.98
0.538	7.98
0.541	8.09
0.544	8.12
0.547	8.08
0.55	8.15
0.553	8.18
0.556	8.25
0.559	8.24
0.562	8.29
0.565	8.06
0.568	8.17
0.571	8.33
0.574	8.21
0.577	8.17
0.58	8.02
0.583	7.97
0.586	7.96
0.589	7.98
0.592	8.03
0.595	7.89
0.598	7.91
0.601	7.9
0.604	7.89
0.607	7.92
0.61	8.14
0.613	8.21
0.616	8.05
0.619	8.09
0.622	8.13
0.625	8.16
0.628	7.9
0.631	8.09
0.634	8.03
0.637	8.06
0.64	8.03
0.643	8.09
0.646	8.07
0.649	7.99
0.652	7.93
0.655	7.98
0.658	8.02
0.661	7.86
0.664	7.92
0.667	7.85
0.67	7.85
0.673	7.92
0.676	7.7
0.679	7.73
0.682	7.67
0.685	7.72
0.688	7.68
0.691	7.83
0.694	7.79
0.697	7.91
0.7	7.82
0.703	7.71
0.706	7.73
0.709	7.71
0.712	7.72
0.715	7.72
0.718	7.74
0.721	7.76
0.724	7.67
0.727	7.72
0.73	7.79
0.733	7.84
0.736	7.83
0.739	7.63
0.742	7.48
0.745	7.43
0.748	7.45
0.751	7.47
0.754	7.49
0.757	7.55
0.76	7.54
0.763	7.53
0.766	7.49
0.769	7.36
0.772	7.42
0.775	7.45
0.778	7.52
0.781	7.47
0.784	7.47
0.787	7.51
0.79	7.42
0.793	7.43
0.796	7.63
0.799	7.48
0.808	7.76
0.82	7.62
0.832	7.46
0.844	7.17
0.856	6.84
0.868	6.6
0.88	6.25
0.892	6.12
0.904	5.82
0.916	5.72
0.928	5.58
0.94	5.48
0.952	5.37
0.964	5.36
0.976	5.36
0.988	5.35
1	5.42
1.012	5.65
1.024	5.79
1.036	5.96
1.048	6.19
1.06	6.53
1.072	6.8
1.084	6.97
1.096	7.16
1.108	7.3
1.12	7.44
1.132	7.51
1.144	7.47
1.156	7.52
1.168	7.57
1.18	7.63
1.192	7.71
1.204	7.77
1.216	7.75
1.228	7.92
1.24	8.01
1.252	8.08
1.264	8.2
1.276	8.31
1.288	8.29
1.3	8.46
1.312	8.5
1.324	8.68
1.336	8.78
1.348	8.84
1.36	8.87
1.372	8.98
1.384	9.05
1.396	9.01
1.408	8.91
1.42	9.3
1.432	9.39
1.444	9.51
1.456	9.6
1.468	9.67
1.48	9.77
1.492	9.78
1.504	9.82
1.516	9.94
1.528	9.95
1.54	10.01
1.552	10.05
1.564	10.05
1.576	10.1
1.588	10.1
1.6	10.18
1.612	10.2
1.624	10.18
1.636	10.27
1.648	10.21
1.66	10.28
1.672	10.29
1.684	10.42
1.696	10.43
1.708	10.46
1.72	10.43
1.732	10.41
1.744	10.45
1.756	10.43
1.768	10.4
1.78	10.52
1.792	10.61
1.804	10.6
1.816	10.53
1.828	10.61
1.84	10.59
1.852	10.61
1.864	10.63
1.876	10.56
1.888	10.55
1.9	10.53
1.912	10.64
1.924	10.54
1.936	10.51
1.948	10.49
1.96	10.54
1.972	10.54
1.984	10.53
1.996	10.49
2.008	10.53
2.02	10.49
2.032	10.55
2.044	10.5
2.056	10.45
2.068	10.45
2.08	10.4
2.092	10.37
2.104	10.26
2.116	10.28
2.128	10.26
2.14	10.21
2.152	10.05
2.164	9.98
2.176	9.93
2.188	9.87
2.2	9.85
2.212	9.72
2.224	9.61
2.236	9.46
2.248	9.34
2.26	9.34
2.272	9.28
2.284	9.16
2.296	8.93
2.308	8.84
2.32	8.61
2.332	8.47
2.344	8.46
2.356	8.56
2.368	8.59
2.38	8.6
2.392	8.59
2.404	8.44
2.416	8.45
2.428	8.41
2.44	8.39
2.452	8.28
2.464	8.34
2.476	8.28
2.488	8.28
2.5	8.39
