Name: Talc Mg_3Si_4O_10(OH)_2
Type: Mineral
Class: Silicate
Subclass: Phyllosilicate
Particle Size: Coarse
Sample No.: PS-14A
Owner: JPL
Wavelength Range: VSWIR
Origin: USA, Georgia, Cherokee County, Holly Springs.
Description: Particle size was 125-500um.Collected by:  Burminco Original ASTER Spectral Library name was jpl.perkin.mineral.silicate.phyllosilicate.coarse.ps14a.spectrum.txt
Measurement: Hemispherical reflectance
X Units: Wavelength (micrometers)
Y Units: Reflectance (percent)
wavelength	value
2.5	54.4522
2.494	54.6736
2.488	55.5523
2.482	55.7756
2.476	54.1017
2.47	50.9828
2.464	48.7983
2.458	48.6724
2.452	50.3029
2.446	51.7963
2.44	52.372
2.434	52.5336
2.428	53.1902
2.422	54.5901
2.416	56.442
2.41	56.8486
2.404	53.9275
2.398	48.5904
2.392	43.4122
2.386	41.2718
2.38	42.7621
2.374	46.4423
2.368	50.9325
2.362	54.79
2.356	57.671
2.35	60.0494
2.344	61.4926
2.338	60.4147
2.332	54.9654
2.326	46.5627
2.32	37.3912
2.314	31.1628
2.308	29.7218
2.302	32.6282
2.296	35.7903
2.29	37.1668
2.284	40.1989
2.278	47.2636
2.272	55.0765
2.266	61.2565
2.26	66.2121
2.254	70.4852
2.248	73.4734
2.242	74.0876
2.236	72.0137
2.23	70.4536
2.224	73.1957
2.218	77.2589
2.212	78.8479
2.206	79.0178
2.2	79.0837
2.194	78.7526
2.188	77.8958
2.182	76.2859
2.176	74.8363
2.17	74.7221
2.164	75.7094
2.158	76.5749
2.152	76.4796
2.146	75.3487
2.14	74.1493
2.134	73.4298
2.128	73.3847
2.122	74.5288
2.116	75.1309
2.11	75.8845
2.104	76.3226
2.098	75.703
2.092	74.9525
2.086	73.9777
2.08	72.5579
2.074	74.0408
2.068	78.1216
2.062	80.1109
2.056	80.9609
2.05	81.8747
2.044	82.5448
2.038	83.2426
2.032	83.7522
2.026	83.1817
2.02	81.9178
2.014	81.1271
2.008	81.8878
2.002	83.0786
1.996	83.5581
1.99	84.0986
1.984	84.8996
1.978	85.1953
1.972	85.4789
1.966	85.5701
1.96	85.6616
1.954	85.558
1.948	85.5416
1.942	85.6204
1.936	85.8005
1.93	85.975
1.924	85.9765
1.918	86.1442
1.912	86.1224
1.906	86.2288
1.9	86.1991
1.894	86.3999
1.888	86.4714
1.882	86.455
1.876	86.4499
1.87	86.511
1.864	86.6968
1.858	86.9509
1.852	87.1855
1.846	87.1113
1.84	87.0231
1.834	86.7985
1.828	86.9296
1.822	87.3202
1.816	87.6353
1.81	88.0433
1.804	88.3423
1.798	88.4638
1.792	88.565
1.786	88.5512
1.78	88.5719
1.774	88.5796
1.768	88.6495
1.762	88.6836
1.756	88.778
1.75	88.8201
1.744	88.7545
1.738	88.9499
1.732	88.8561
1.726	88.8319
1.72	88.8631
1.714	88.8549
1.708	88.9075
1.702	88.9215
1.696	88.9184
1.69	88.8871
1.684	88.893
1.678	88.92
1.672	88.865
1.666	88.8833
1.66	88.9845
1.654	88.8806
1.648	88.905
1.642	88.8486
1.636	88.9044
1.63	88.9119
1.624	88.8493
1.618	88.9972
1.612	88.8979
1.606	88.9728
1.6	88.9225
1.594	89.0344
1.588	89.0062
1.582	89.0012
1.576	88.9643
1.57	88.9814
1.564	88.9547
1.558	88.8942
1.552	88.8073
1.546	88.5908
1.54	88.2453
1.534	88.1858
1.528	88.4602
1.522	88.7374
1.516	88.8363
1.51	88.6907
1.504	88.5938
1.498	88.4723
1.492	88.7246
1.486	88.6624
1.48	88.5751
1.474	88.4685
1.468	88.5214
1.462	88.4925
1.456	88.5246
1.45	88.3529
1.444	88.2986
1.438	88.1836
1.432	88.1529
1.426	88.0347
1.42	88.2058
1.414	88.1956
1.408	86.5247
1.402	82.1574
1.396	66.9635
1.39	64.2005
1.384	85.8917
1.378	87.5472
1.372	87.8029
1.366	87.8083
1.36	87.1833
1.354	87.588
1.348	87.4604
1.342	87.5146
1.336	87.2515
1.33	87.0427
1.324	86.8535
1.318	86.896
1.312	86.9014
1.306	86.9819
1.3	85.7436
1.294	86.4184
1.288	86.5908
1.282	85.5848
1.276	84.2604
1.27	85.4087
1.264	85.9786
1.258	85.9046
1.252	85.7137
1.246	85.6154
1.24	85.2962
1.234	85.0293
1.228	84.8347
1.222	84.5716
1.216	84.3029
1.21	84.0023
1.204	83.7206
1.198	83.4584
1.192	83.0613
1.186	82.8069
1.18	82.3589
1.174	82.0086
1.168	81.6586
1.162	81.2693
1.156	80.8908
1.15	80.4159
1.144	80.0216
1.138	79.6178
1.132	79.1754
1.126	78.7943
1.12	78.3082
1.114	78.0017
1.108	77.4539
1.102	77.2018
1.096	76.7878
1.09	76.3612
1.084	76.0527
1.078	75.7834
1.072	75.3255
1.066	75.1806
1.06	74.9112
1.054	74.5689
1.048	74.4313
1.042	74.3599
1.036	74.2206
1.03	74.0262
1.024	73.9243
1.018	73.9126
1.012	73.9673
1.006	73.914
1	73.903
0.994	73.8881
0.988	74.0689
0.982	73.9701
0.976	74.0936
0.97	74.1526
0.964	74.2849
0.958	74.261
0.952	72.7663
0.946	73.5467
0.94	74.4746
0.934	74.47
0.928	74.442
0.922	74.4319
0.916	74.4233
0.91	74.2933
0.904	74.191
0.898	74.0399
0.892	73.884
0.886	73.6473
0.88	73.6899
0.874	73.4925
0.868	73.5058
0.862	73.4237
0.856	73.4969
0.85	73.6703
0.844	73.8447
0.838	74.0831
0.832	74.4019
0.826	74.7409
0.82	75.1545
0.814	75.5661
0.808	76.0185
0.802	76.5522
0.796	77.0271
0.79	77.5863
0.784	78.0706
0.778	78.5546
0.772	79.0251
0.766	79.5299
0.76	79.9327
0.754	80.3631
0.748	80.7644
0.742	81.0808
0.736	81.3426
0.73	81.472
0.724	81.9449
0.718	82.2674
0.712	82.5336
0.706	82.7356
0.7	82.9073
0.694	83.0353
0.688	83.1622
0.682	83.237
0.676	83.2453
0.67	83.2903
0.664	83.2709
0.658	83.3835
0.652	83.4858
0.646	83.5179
0.64	83.7239
0.634	84.0822
0.628	84.4447
0.622	84.7878
0.616	85.2331
0.61	85.6857
0.604	86.0824
0.598	86.4799
0.592	86.8862
0.586	87.1571
0.58	87.3897
0.574	87.5448
0.568	87.6776
0.562	87.7373
0.556	87.7178
0.55	87.6898
0.544	87.6011
0.538	87.516
0.532	87.4085
0.526	87.2656
0.52	87.1477
0.514	86.9843
0.508	86.7768
0.502	86.5089
0.496	86.2687
0.49	86.0329
0.484	85.6879
0.478	85.4678
0.472	85.2426
0.466	84.975
0.46	84.6738
0.454	84.4213
0.448	84.1966
0.442	83.9297
0.436	83.6089
0.43	83.1948
0.424	82.5997
0.418	81.8764
0.412	81.0658
0.406	80.4474
0.4	79.9081
