Name: Calcite CaCO_3
Type: Mineral
Class: Carbonate
Subclass: None
Particle Size: Fine
Sample No.: C-3E
Owner: JPL
Wavelength Range: TIR
Origin: N/A
Description: Particle size was 0-45um.Collected by JPL Original ASTER Spectral Library name was jpl.nicolet.mineral.carbonate.none.fine.c03e.spectrum.txt
Measurement: Hemispherical reflectance
X Units: Wavelength (micrometers)
Y Units: Reflectance (percent)
wavelength	value
15.3853	35.8077
15.1161	39.2412
14.8563	42.1612
14.6052	42.4398
14.3624	34.3871
14.1276	10.7736
13.9004	9.5899
13.6803	38.4003
13.4671	48.152
13.2604	48.9426
13.06	43.7718
12.8656	40.2535
12.6769	41.5107
12.4936	43.9078
12.3155	45.7218
12.1425	47.9934
11.9742	46.3383
11.8106	22.0271
11.6513	27.4458
11.4963	7.9744
11.3454	8.0112
11.1983	30.8102
11.0551	41.032
10.9154	44.6385
10.7793	41.308
10.6465	38.4534
10.5169	38.9306
10.3904	42.4473
10.267	41.7072
10.1464	40.0728
10.0287	37.2447
9.9136	35.2352
9.8012	35.4778
9.6913	38.7617
9.5838	41.8599
9.4787	43.3662
9.3758	40.8347
9.2752	41.4946
9.1767	40.6417
9.0803	43.1936
8.9858	42.797
8.8934	41.0733
8.8028	38.2968
8.714	32.7242
8.627	25.7117
8.5417	23.7841
8.4581	22.8435
8.3761	25.7328
8.2957	28.1609
8.2169	29.0909
8.1395	28.0274
8.0635	26.1136
7.989	27.1028
7.9158	24.74
7.8439	24.5091
7.7734	22.8495
7.7041	20.9804
7.636	17.3938
7.5691	15.3963
7.5034	14.5627
7.4388	13.0835
7.3753	11.4207
7.3129	9.0642
7.2515	7.5069
7.1912	7.0381
7.1318	7.7165
7.0734	9.183
7.016	9.1865
6.9595	9.0846
6.9039	9.2544
6.8492	9.9288
6.7953	10.4966
6.7423	11.3855
6.6901	12.8585
6.6387	14.6357
6.5881	16.0838
6.5382	17.9908
6.4892	20.426
6.4408	19.5252
6.3931	13.0204
6.3462	8.2759
6.2999	4.5766
6.2543	4.199
6.2094	3.4657
6.1651	3.2449
6.1214	3.7043
6.0784	4.4161
6.0359	5.6984
5.994	7.4811
5.9527	8.8793
5.912	10.7325
5.8718	12.0997
5.8322	12.2091
5.7931	12.0497
5.7545	11.9568
5.7165	14.0066
5.6789	16.5047
5.6418	20.3261
5.6052	12.8251
5.5691	2.1088
5.5334	12.7303
5.4982	28.7075
5.4635	37.6931
5.4291	44.938
5.3952	51.0157
5.3618	55.9683
5.3287	60.1666
5.2961	63.9559
5.2638	66.3103
5.2319	68.5798
5.2004	70.4696
5.1693	71.681
5.1386	72.7907
5.1082	66.8343
5.0782	73.7925
5.0485	75.5651
5.0192	75.6324
4.9902	75.431
4.9616	75.0324
4.9332	74.7912
4.9052	75.0498
4.8776	75.362
4.8502	75.6643
4.8231	75.9019
4.7963	75.8497
4.7699	74.8843
4.7437	71.5896
4.7178	63.744
4.6922	52.0571
4.6668	49.5488
4.6418	56.1268
4.617	64.1517
4.5924	66.567
4.5681	67.1899
4.5441	67.5357
4.5203	67.7569
4.4968	68.6222
4.4735	71.4757
4.4505	73.6148
4.4277	75.8799
4.4051	77.0775
4.3828	77.7335
4.3607	76.6768
4.3388	75.1461
4.3171	74.8302
4.2956	75.4872
4.2744	75.5502
4.2534	74.9169
4.2325	73.7187
4.2119	73.3385
4.1915	72.272
4.1712	70.7834
4.1512	68.8124
4.1313	65.7628
4.1117	62.0347
4.0922	58.208
4.0729	53.063
4.0538	45.92
4.0349	31.9291
4.0161	21.1567
3.9976	10.1323
3.9792	6.7265
3.9609	8.0724
3.9428	15.19
3.9249	19.7856
3.9072	21.7407
3.8896	22.4791
3.8722	23.2732
3.8549	24.2086
3.8378	26.6886
3.8208	35.0331
3.804	46.1256
3.7873	61.2077
3.7708	67.2776
3.7544	69.7212
3.7382	71.6641
3.7221	73.2311
3.7061	73.9776
3.6903	74.3988
3.6746	74.222
3.659	73.8324
3.6436	73.1875
3.6283	72.1451
3.6131	70.7345
3.5981	68.3192
3.5832	63.2718
3.5684	58.5365
3.5537	57.145
3.5391	50.2039
3.5247	35.7506
3.5104	23.9902
3.4962	19.4313
3.4821	15.6215
3.4681	19.9292
3.4543	27.1848
3.4405	28.2269
3.4269	28.5194
3.4133	28.2106
3.3999	27.5386
3.3866	26.6154
3.3733	25.7462
3.3602	23.3984
3.3472	22.3213
3.3343	44.0452
3.3215	54.7761
3.3088	59.483
3.2961	62.5748
3.2836	64.6276
3.2712	66.6353
3.2588	67.7341
3.2466	68.6624
3.2345	69.6191
3.2224	70.3458
3.2104	70.8257
3.1985	71.3093
3.1867	71.3606
3.175	70.81
3.1634	69.3017
3.1519	67.6348
3.1404	68.3054
3.129	69.1187
3.1178	67.889
3.1065	66.9663
3.0954	68.6272
3.0844	70.2326
3.0734	71.3435
3.0625	71.7998
3.0517	72.5335
3.041	72.9678
3.0303	73.3525
3.0197	73.7717
3.0092	74.1131
2.9987	74.1507
2.9884	74.0866
2.9781	74.1867
2.9678	73.9495
2.9577	74.2764
2.9476	74.4671
2.9376	74.7892
2.9276	75.0654
2.9177	75.3857
2.9079	75.6952
2.8982	75.9203
2.8885	76.2042
2.8789	76.4026
2.8693	76.7965
2.8598	77.0904
2.8504	77.3654
2.841	77.2968
2.8317	77.1871
2.8224	76.7157
2.8133	75.7595
2.8041	74.8258
2.7951	71.5684
2.786	70.1959
2.7771	73.5652
2.7682	77.5336
2.7594	79.5643
2.7506	80.9915
2.7418	82.9645
2.7332	83.3865
2.7246	85.4563
2.716	85.71
2.7075	86.7997
2.699	88.2949
2.6906	90.4889
2.6823	91.752
2.674	92.4726
2.6657	94.1447
2.6575	92.9258
2.6494	93.047
2.6413	93.0706
2.6332	93.2361
2.6252	93.3441
2.6173	93.7653
2.6094	93.1103
2.6015	92.4862
2.5937	93.1617
2.5859	90.9023
2.5782	90.0183
2.5706	89.1561
2.5629	87.2625
2.5554	82.6512
2.5478	77.6339
2.5403	73.8907
2.5329	73.6629
2.5255	76.2545
2.5181	78.3318
2.5108	79.5384
2.5035	80.1587
2.4963	80.517
2.4891	81.0441
2.482	82.2941
2.4749	83.8482
2.4678	85.5963
2.4608	87.4032
2.4538	88.6241
2.4468	89.4881
2.4399	90.4387
2.4331	91.1649
2.4262	91.9274
2.4194	92.2985
2.4127	92.8009
2.4059	92.673
2.3993	92.7818
2.3926	92.8483
2.386	92.722
2.3795	92.3545
2.3729	91.6519
2.3664	90.4984
2.36	88.0522
2.3535	85.0388
2.3471	83.1274
2.3408	82.152
2.3345	82.5746
2.3282	83.7554
2.3219	85.1806
2.3157	85.8354
2.3095	86.4595
2.3034	86.8432
2.2972	87.1842
2.2911	87.7167
2.2851	88.7438
2.279	89.5431
2.2731	90.4943
2.2671	91.1423
2.2612	91.9196
2.2553	92.4204
2.2494	92.8763
2.2435	93.29
2.2377	93.6475
2.232	93.8741
2.2262	94.1083
2.2205	94.382
2.2148	94.5196
2.2091	94.593
2.2035	94.8901
2.1979	94.8747
2.1923	94.9575
2.1868	95.0717
2.1812	94.8084
2.1758	94.8652
2.1703	94.6906
2.1649	94.4601
2.1595	94.399
2.1541	94.3431
2.1487	94.3391
2.1434	94.8614
2.1381	95.0133
2.1328	95.1452
2.1275	95.208
2.1223	95.4595
2.1171	95.4112
2.112	95.4628
2.1068	95.4743
2.1017	95.825
2.0966	95.6976
2.0915	95.9416
2.0865	95.471
2.0814	95.9121
2.0764	95.571
2.0715	95.4483
2.0665	95.8049
2.0616	95.743
2.0567	95.8248
2.0518	95.9191
2.0469	95.7336
2.0421	95.8602
2.0373	95.7552
2.0325	95.3596
2.0277	95.5205
2.0229	95.3974
2.0182	95.5749
2.0135	95.2315
2.0088	95.1538
2.0042	94.7544
