Name: Magnetite Fe+2Fe2+3O4
Type: Mineral
Class: Oxide
Subclass: None
Particle Size: Coarse
Sample No.: magnet_1
Owner: JHU
Wavelength Range: TIR
Origin: Santa Barbara, Minas Gerais, Brazil via the Smithsonian(sample no. NMNH 114111)
Description: The sample was composed of two large (3 cm x 3 cm x 2 cm) fragments of a single crystal, weighing 26.7 g.  The crystal fragments were dark gray in color, with good crystal faces, all of which had a red-brown, earthy material adhering in places.  These coatings were removed by ultrasonic cleaning. Particle size was 75-250 micrometers.(Spinel Group) Original ASTER Spectral Library name was jhu.nicolet.mineral.oxide.none.coarse.magnet1.spectrum.txt
Measurement: Bidirectional reflectance
X Units: Wavelength (micrometers)
Y Units: Reflectance (percent)
wavelength	value
25.0442	12.6562
24.3388	12.9023
23.6719	12.6047
23.0407	12.2407
22.4422	12.1255
21.8741	11.9743
21.334	11.8156
20.8199	11.8315
20.33	11.7868
19.8627	11.6758
19.4163	11.6323
18.9896	11.7238
18.5812	12.2002
18.19	13.3764
17.815	14.8405
17.4551	14.1555
17.1094	12.7668
16.7772	11.8474
16.4576	11.4184
16.15	11.063
15.8537	10.8523
15.568	10.6848
15.2925	10.5163
15.0265	10.3225
14.7697	10.1972
14.5214	10.1074
14.2814	10.0249
14.0492	9.8952
13.8244	9.8279
13.6067	9.7419
13.3957	9.7182
13.1912	9.6369
12.9929	9.584
12.8004	9.5532
12.6135	9.5115
12.432	9.499
12.2557	9.4775
12.0843	9.428
11.9176	9.3825
11.7555	9.3452
11.5977	9.3423
11.444	9.3178
11.2944	9.3442
11.1487	9.3205
11.0067	9.2907
10.8682	9.258
10.7332	9.2507
10.6015	9.2636
10.473	9.2585
10.3476	9.2094
10.2251	9.1621
10.1056	9.136
9.9887	9.1277
9.8746	9.1106
9.763	9.0854
9.6539	9.0862
9.5472	9.0996
9.4429	9.0735
9.3408	9.081
9.2409	9.0473
9.1431	9.0261
9.0474	9.0232
8.9536	8.9885
8.8618	8.945
8.7718	8.8857
8.6837	8.8296
8.5973	8.7912
8.5126	8.7793
8.4295	8.758
8.3481	8.7429
8.2682	8.6968
8.1898	8.6953
8.1129	8.6841
8.0374	8.6548
7.9634	8.6142
7.8906	8.5718
7.8192	8.5556
7.7491	8.5398
7.6802	8.5154
7.6126	8.4931
7.5461	8.4631
7.4807	8.4414
7.4165	8.4328
7.3534	8.4206
7.2914	8.4077
7.2303	8.3789
7.1703	8.3496
7.1113	8.3464
7.0533	8.333
6.9962	8.3259
6.94	8.3181
6.8847	8.3042
6.8302	8.2849
6.7767	8.2829
6.7239	8.2678
6.672	8.2485
6.6209	8.2297
6.5705	8.2009
6.5209	8.2199
6.4721	8.1943
6.424	8.1582
6.3766	8.1596
6.3299	8.1562
6.2838	8.1506
6.2385	8.1321
6.1937	8.0989
6.1496	8.0925
6.1062	8.0635
6.0633	8.0493
6.0211	8.053
5.9794	8.0288
5.9383	7.988
5.8978	7.9817
5.8578	8.0144
5.8184	7.9934
5.7794	8.0085
5.741	7.997
5.7031	7.9851
5.6657	7.9736
5.6288	7.9629
5.5924	7.9565
5.5564	7.9338
5.5209	7.9299
5.4859	7.927
5.4513	7.9143
5.4171	7.8879
5.3833	7.8818
5.35	7.8508
5.3171	7.8479
5.2846	7.831
5.2524	7.8281
5.2207	7.8091
5.1893	7.802
5.1584	7.7959
5.1277	7.7783
5.0975	7.7695
5.0676	7.7551
5.038	7.7348
5.0088	7.7378
4.98	7.7292
4.9514	7.716
4.9232	7.6953
4.8953	7.7024
4.8678	7.7014
4.8405	7.6894
4.8135	7.6755
4.7868	7.6645
4.7605	7.6462
4.7344	7.6438
4.7086	7.6264
4.6831	7.6223
4.6578	7.6042
4.6328	7.591
4.6081	7.5964
4.5837	7.5786
4.5595	7.5686
4.5356	7.5544
4.5119	7.5359
4.4884	7.5249
4.4652	7.5381
4.4423	7.5149
4.4196	7.508
4.3971	7.5097
4.3748	7.5058
4.3528	7.5024
4.331	7.5
4.3094	7.4883
4.288	7.4765
4.2668	7.4758
4.2458	7.4741
4.2251	7.4582
4.2045	7.4602
4.1841	7.4436
4.164	7.438
4.144	7.4324
4.1242	7.4331
4.1046	7.4275
4.0852	7.4084
4.066	7.4023
4.047	7.3857
4.0281	7.3821
4.0094	7.3723
3.9909	7.364
3.9725	7.3613
3.9544	7.3567
3.9363	7.3413
3.9185	7.3454
3.9008	7.3347
3.8833	7.324
3.8659	7.3237
3.8487	7.3254
3.8316	7.3169
3.8147	7.3086
3.7979	7.2978
3.7813	7.289
3.7648	7.2942
3.7485	7.2795
3.7323	7.2727
3.7162	7.2727
3.7003	7.249
3.6845	7.248
3.6689	7.2324
3.6534	7.2319
3.638	7.2138
3.6227	7.2173
3.6076	7.2055
3.5926	7.1968
3.5777	7.1911
3.563	7.1872
3.5484	7.1792
3.5338	7.1687
3.5195	7.1667
3.5052	7.1599
3.491	7.1601
3.477	7.1545
3.463	7.1411
3.4492	7.1413
3.4355	7.1313
3.4219	7.1411
3.4084	7.1533
3.395	7.1252
3.3817	7.1372
3.3685	7.1189
3.3554	7.1045
3.3425	7.0971
3.3296	7.0935
3.3168	7.0798
3.3041	7.0859
3.2915	7.074
3.279	7.0583
3.2666	7.0386
3.2543	7.0405
3.2421	7.0442
3.23	7.0315
3.218	7.0139
3.206	7.0088
3.1942	7.0027
3.1824	7.0032
3.1707	7.0051
3.1591	6.9905
3.1476	6.9748
3.1362	6.9792
3.1249	6.9668
3.1136	6.9555
3.1024	6.9638
3.0913	6.9499
3.0803	6.9485
3.0694	6.9485
3.0585	6.9287
3.0477	6.9333
3.037	6.918
3.0264	6.9094
3.0158	6.8913
3.0053	6.884
2.9949	6.9023
2.9845	6.8821
2.9743	6.8721
2.9641	6.8669
2.9539	6.854
2.9439	6.8518
2.9339	6.8376
2.9239	6.831
2.9141	6.7949
2.9043	6.8159
2.8946	6.8078
2.8849	6.7898
2.8753	6.7981
2.8658	6.7803
2.8563	6.7678
2.8469	6.7744
2.8375	6.7383
2.8282	6.7436
2.819	6.7265
2.8098	6.7361
2.8007	6.7124
2.7917	6.7182
2.7827	6.6838
2.7738	6.7014
2.7649	6.6733
2.7561	6.6699
2.7473	6.688
2.7386	6.657
2.7299	6.643
2.7213	6.6516
2.7128	6.6313
2.7043	6.6338
2.6959	6.5962
2.6875	6.5796
2.6791	6.5913
2.6709	6.5691
2.6626	6.5879
2.6545	6.5532
2.6463	6.5493
2.6382	6.5461
2.6302	6.5019
2.6222	6.4956
2.6143	6.4822
2.6064	6.4848
2.5986	6.4712
2.5908	6.4665
2.583	6.4455
2.5753	6.4492
2.5677	6.4385
2.5601	6.4204
2.5525	6.4236
2.545	6.4048
2.5375	6.4109
2.5301	6.4043
2.5227	6.4018
2.5154	6.3628
2.5081	6.3486
2.5008	6.3345
2.4936	6.3389
2.4864	6.3384
2.4793	6.2851
2.4722	6.31
2.4651	6.2602
2.4581	6.2871
2.4511	6.2554
2.4442	6.2627
2.4373	6.2466
2.4305	6.2222
2.4236	6.2324
2.4169	6.2373
2.4101	6.2182
2.4034	6.2097
2.3967	6.1626
2.3901	6.1816
2.3835	6.1601
2.377	6.1448
2.3704	6.1548
2.364	6.1514
2.3575	6.1272
2.3511	6.1284
2.3447	6.0691
2.3384	6.0835
2.3321	6.06
2.3258	6.0488
2.3195	6.0395
2.3133	6.0154
2.3071	6.0483
2.301	6.0107
2.2949	5.9975
2.2888	6.0039
2.2828	6.0063
2.2767	5.9758
2.2708	5.968
2.2648	5.9619
2.2589	5.9609
2.253	5.9424
2.2471	5.9475
2.2413	5.9643
2.2355	5.9468
2.2297	5.927
2.224	5.9165
2.2183	5.8916
2.2126	5.9155
2.207	5.8994
2.2013	5.8965
2.1957	5.8574
2.1902	5.8694
2.1846	5.8262
2.1791	5.8413
2.1736	5.8262
2.1682	5.8459
2.1628	5.8789
2.1574	5.8139
2.152	5.8166
2.1466	5.8257
2.1413	5.8262
2.136	5.8042
2.1308	5.8286
2.1255	5.8042
2.1203	5.8069
2.1151	5.7795
2.11	5.8198
2.1048	5.802
2.0997	5.7873
2.0946	5.7883
2.0895	5.8059
2.0845	5.7698
2.0795	5.7925
