Name: Mimetite Pb_5(AsO_4)_3Cl
Type: Mineral
Class: Arsenate
Subclass: None
Particle Size: Medium
Sample No.: A-1A
Owner: JPL
Wavelength Range: VSWIR
Origin: Mexico, Chihuahua, Ingla Tierra Mine
Description: Particle size was 45-125um.Collected by JPL Original ASTER Spectral Library name was jpl.beckman.mineral.arsenate.none.medium.a01.spectrum.txt
Measurement: Hemispherical reflectance
X Units: Wavelength (micrometers)
Y Units: Reflectance (percent)
wavelength	value
0.4	26.61
0.403	27.05
0.406	27.4
0.409	27.81
0.412	28.11
0.415	28.51
0.418	29.08
0.421	29.59
0.424	30.24
0.427	30.75
0.43	31.43
0.433	32.1
0.436	32.83
0.439	33.68
0.442	34.43
0.445	35.3
0.448	36.17
0.451	37.07
0.454	38.07
0.457	38.97
0.46	39.66
0.463	41.09
0.466	42.29
0.469	43.46
0.472	44.69
0.475	45.91
0.478	47.06
0.481	48.43
0.484	49.73
0.487	51.05
0.49	52.28
0.493	53.49
0.496	54.77
0.499	56.06
0.502	57.44
0.505	58.66
0.508	59.83
0.511	60.96
0.514	62.2
0.517	63.37
0.52	64.51
0.523	65.44
0.526	66.42
0.529	67.34
0.532	68.18
0.535	68.96
0.538	69.78
0.541	70.39
0.544	71.1
0.547	71.77
0.55	72.47
0.553	73.1
0.556	73.75
0.559	74.12
0.562	75.11
0.565	75.74
0.568	76.18
0.571	76.56
0.574	76.96
0.577	77.4
0.58	77.64
0.583	78.14
0.586	78.58
0.589	78.73
0.592	79.1
0.595	79.56
0.598	79.8
0.601	80.28
0.604	80.46
0.607	80.76
0.61	80.91
0.613	81.17
0.616	81.22
0.619	81.35
0.622	81.66
0.625	81.7
0.628	81.89
0.631	81.96
0.634	82.01
0.637	82.22
0.64	82.09
0.643	82.3
0.646	82.37
0.649	82.5
0.652	82.67
0.655	82.61
0.658	82.7
0.661	82.7
0.664	82.9
0.667	82.87
0.67	83
0.673	83.27
0.676	83.27
0.679	83.45
0.682	83.47
0.685	83.67
0.688	83.58
0.691	83.63
0.694	83.76
0.697	83.83
0.7	83.97
0.703	83.94
0.706	84.03
0.709	84.14
0.712	84.3
0.715	84.41
0.718	84.26
0.721	84.43
0.724	84.45
0.727	84.48
0.73	84.47
0.733	84.58
0.736	84.47
0.739	84.69
0.742	84.72
0.745	84.65
0.748	84.77
0.751	84.73
0.754	84.93
0.757	84.84
0.76	84.95
0.763	84.89
0.766	85.13
0.769	84.97
0.772	85.07
0.775	85.09
0.778	85.04
0.781	85.3
0.784	85.1
0.787	85.17
0.79	85.2
0.793	85.27
0.796	85.26
0.799	85.23
0.808	85.32
0.82	85.51
0.832	85.7
0.844	85.96
0.856	86.23
0.868	86.46
0.88	86.58
0.892	86.69
0.904	86.82
0.916	86.94
0.928	87.05
0.94	87.16
0.952	87.3
0.964	87.47
0.976	87.47
0.988	87.65
1	87.57
1.012	87.82
1.024	88
1.036	88.2
1.048	88.3
1.06	88.5
1.072	88.6
1.084	88.67
1.096	88.8
1.108	88.89
1.12	89
1.132	89.05
1.144	89.04
1.156	89.02
1.168	89.05
1.18	89.04
1.192	88.95
1.204	89.06
1.216	88.95
1.228	88.93
1.24	88.97
1.252	88.99
1.264	89.04
1.276	89.01
1.288	89.01
1.3	88.84
1.312	88.76
1.324	88.67
1.336	88.53
1.348	88.48
1.36	88.48
1.372	88.34
1.384	88.23
1.396	88.1
1.408	87.9
1.42	87.9
1.432	87.74
1.444	87.66
1.456	87.57
1.468	87.53
1.48	87.53
1.492	87.54
1.504	87.5
1.516	87.37
1.528	87.32
1.54	87.35
1.552	87.12
1.564	86.94
1.576	86.93
1.588	86.78
1.6	86.68
1.612	86.61
1.624	86.54
1.636	86.43
1.648	86.21
1.66	86.15
1.672	86.06
1.684	85.91
1.696	85.8
1.708	85.72
1.72	85.58
1.732	85.34
1.744	85.11
1.756	84.91
1.768	84.71
1.78	84.54
1.792	84.4
1.804	84.23
1.816	84.1
1.828	83.94
1.84	83.7
1.852	83.52
1.864	83.22
1.876	82.91
1.888	82.59
1.9	82.21
1.912	81.9
1.924	81.65
1.936	81.55
1.948	81.45
1.96	81.38
1.972	81.42
1.984	81.52
1.996	81.69
2.008	81.66
2.02	81.74
2.032	81.79
2.044	81.79
2.056	81.85
2.068	81.91
2.08	81.97
2.092	81.95
2.104	82.08
2.116	82.23
2.128	82.2
2.14	81.95
2.152	81.82
2.164	81.69
2.176	81.47
2.188	81.39
2.2	81.3
2.212	81.19
2.224	81.15
2.236	81.03
2.248	80.74
2.26	80.58
2.272	80.7
2.284	80.71
2.296	80.7
2.308	80.45
2.32	80.48
2.332	80.62
2.344	80.75
2.356	80.92
2.368	80.94
2.38	80.91
2.392	80.77
2.404	80.69
2.416	80.6
2.428	80.59
2.44	80.46
2.452	80.43
2.464	80.35
2.476	80.34
2.488	80.53
2.5	80.87
