Name: Cookeite LiAl_4(Si_3Al)O_10(OH)_8
Type: Mineral
Class: Silicate
Subclass: Phyllosilicate
Particle Size: Fine
Sample No.: PS-9A
Owner: JPL
Wavelength Range: VSWIR
Origin: USA, Arkansas, Pulaski County
Description: Particle size was 0-45um.Collected by JPL Original ASTER Spectral Library name was jpl.beckman.mineral.silicate.phyllosilicate.fine.ps09a.spectrum.txt
Measurement: Hemispherical reflectance
X Units: Wavelength (micrometers)
Y Units: Reflectance (percent)
wavelength	value
0.4	30.16
0.403	30.88
0.406	31.18
0.409	31.64
0.412	31.96
0.415	32.34
0.418	32.76
0.421	33.47
0.424	33.93
0.427	34.38
0.43	34.92
0.433	35.54
0.436	36.11
0.439	36.62
0.442	37.29
0.445	37.44
0.448	37.83
0.451	38.02
0.454	38.34
0.457	38.43
0.46	38.56
0.463	38.69
0.466	39.02
0.469	39.05
0.472	39.3
0.475	39.29
0.478	39.52
0.481	39.62
0.484	39.96
0.487	40.4
0.49	40.35
0.493	40.72
0.496	40.95
0.499	41.41
0.502	41.58
0.505	42.16
0.508	42.5
0.511	42.86
0.514	43.02
0.517	43.34
0.52	43.75
0.523	44.03
0.526	44.42
0.529	44.68
0.532	45
0.535	45.07
0.538	45.54
0.541	45.7
0.544	46.03
0.547	46.44
0.55	46.44
0.553	46.82
0.556	46.9
0.559	46.94
0.562	47.56
0.565	47.56
0.568	47.84
0.571	47.88
0.574	47.95
0.577	48.09
0.58	48.33
0.583	48.21
0.586	48.21
0.589	48.39
0.592	48.42
0.595	48.54
0.598	48.65
0.601	48.64
0.604	48.66
0.607	48.82
0.61	48.87
0.613	48.87
0.616	48.9
0.619	48.82
0.622	48.74
0.625	48.79
0.628	48.89
0.631	49.01
0.634	48.96
0.637	49.07
0.64	48.79
0.643	48.98
0.646	49.07
0.649	49.21
0.652	49.21
0.655	49.3
0.658	49.05
0.661	49.27
0.664	49.21
0.667	49.35
0.67	49.3
0.673	49.56
0.676	49.41
0.679	49.29
0.682	49.38
0.685	49.41
0.688	49.46
0.691	49.55
0.694	49.47
0.697	49.35
0.7	49.54
0.703	49.42
0.706	49.58
0.709	49.64
0.712	49.76
0.715	49.61
0.718	49.75
0.721	49.81
0.724	49.79
0.727	49.69
0.73	49.81
0.733	49.7
0.736	49.75
0.739	49.81
0.742	49.83
0.745	49.81
0.748	49.8
0.751	49.74
0.754	49.95
0.757	49.89
0.76	50.09
0.763	49.88
0.766	49.91
0.769	49.79
0.772	50.05
0.775	50.06
0.778	50.11
0.781	49.88
0.784	49.96
0.787	49.76
0.79	49.93
0.793	49.82
0.796	49.94
0.799	49.86
0.808	50.09
0.82	50.02
0.832	50.1
0.844	49.9
0.856	50.15
0.868	49.88
0.88	49.97
0.892	49.82
0.904	49.91
0.916	49.97
0.928	49.91
0.94	49.95
0.952	49.92
0.964	50.01
0.976	50.06
0.988	50.08
1	50.1
1.012	50.2
1.024	50.16
1.036	50.27
1.048	50.21
1.06	50.32
1.072	50.4
1.084	50.38
1.096	50.45
1.108	50.38
1.12	50.57
1.132	50.57
1.144	50.64
1.156	50.65
1.168	50.56
1.18	50.62
1.192	50.63
1.204	50.74
1.216	50.7
1.228	50.66
1.24	50.66
1.252	50.76
1.264	50.77
1.276	50.74
1.288	50.89
1.3	50.61
1.312	50.73
1.324	50.63
1.336	50.6
1.348	50.67
1.36	50.49
1.372	50.59
1.384	49.71
1.396	49.1
1.408	49.36
1.42	50.02
1.432	50.17
1.444	50.26
1.456	50.27
1.468	50.34
1.48	50.34
1.492	50.48
1.504	50.6
1.516	50.56
1.528	50.64
1.54	50.64
1.552	50.53
1.564	50.6
1.576	50.44
1.588	50.48
1.6	50.45
1.612	50.6
1.624	50.49
1.636	50.61
1.648	50.54
1.66	50.74
1.672	50.68
1.684	50.75
1.696	50.62
1.708	50.84
1.72	50.74
1.732	50.73
1.744	50.62
1.756	50.69
1.768	50.66
1.78	50.53
1.792	50.54
1.804	50.4
1.816	50.37
1.828	50.27
1.84	50.34
1.852	50.22
1.864	50.33
1.876	50.18
1.888	50.04
1.9	49.74
1.912	49.65
1.924	49.6
1.936	49.6
1.948	49.5
1.96	49.62
1.972	49.49
1.984	49.55
1.996	49.55
2.008	49.63
2.02	49.57
2.032	49.7
2.044	49.7
2.056	49.73
2.068	49.78
2.08	49.85
2.092	49.76
2.104	49.81
2.116	49.88
2.128	49.74
2.14	49.21
2.152	48.22
2.164	46.81
2.176	46.08
2.188	45.88
2.2	46
2.212	46.08
2.224	46.72
2.236	47.11
2.248	47.15
2.26	47.52
2.272	47.65
2.284	47.68
2.296	47.22
2.308	46.72
2.32	46.18
2.332	45.6
2.344	44.67
2.356	44.29
2.368	44.26
2.38	44.87
2.392	45.12
2.404	45.36
2.416	45.22
2.428	45.07
2.44	44.89
2.452	44.8
2.464	44.6
2.476	44.53
2.488	44.51
2.5	44.67
