Name: Olivine (Fo29) (Fe+2,Mg)2SiO4
Type: Mineral
Class: Silicate
Subclass: Nesosilicate
Particle Size: Coarse
Sample No.: olivine_3
Owner: JHU
Wavelength Range: TIR
Origin: Kiglapait Intrusion, Labrador via Trude King #KI3291(obtained from S.A. Morse, Univ. of Mass.)
Description: Initially, the specimen was contaminated with pyroxene, spinel, and ilmenite.  Heavy liquid separation, followed by magnetic separation and hand picking, allowed olivines of different iron content to be obtained.  The sample was ground to <60 micrometers and wet sieved.  Sample preparation by Trude King, USGS, Denver. Particle size was 0-60 micrometers, but packed powder simulates coarse. (Isolated tetrahedra); (Olivine Group) Original ASTER Spectral Library name was jhu.nicolet.mineral.silicate.nesosilicate.packed.olivin3.spectrum.txt
Measurement: Bidirectional reflectance
X Units: Wavelength (micrometers)
Y Units: Reflectance (percent)
wavelength	value
25.0442	6.9648
24.3388	6.0403
23.6719	5.73
23.0407	5.3984
22.4422	5.5693
21.8741	5.895
21.334	6.8738
20.8199	7.8979
20.33	7.9497
19.8627	8.7114
19.4163	9.6919
18.9896	10.2966
18.5812	9.4594
18.19	6.8506
17.815	5.0312
17.4551	5.0996
17.1094	5.5388
16.7772	5.79
16.4576	5.4717
16.15	4.2419
15.8537	3.323
15.568	3.3088
15.2925	3.6111
15.0265	3.9304
14.7697	4.1943
14.5214	4.3916
14.2814	4.5742
14.0492	4.7361
13.8244	4.8166
13.6067	4.9109
13.3957	4.9629
13.1912	5.0266
12.9929	5.061
12.8004	5.1216
12.6135	5.1484
12.432	5.2539
12.2557	5.3752
12.0843	5.741
11.9176	5.2024
11.7555	6.0244
11.5977	7.1201
11.444	8.2917
11.2944	9.1716
11.1487	9.9626
11.0067	10.7326
10.8682	11.2744
10.7332	9.3923
10.6015	7.7964
10.473	10.1555
10.3476	9.9153
10.2251	8.6299
10.1056	7.6953
9.9887	7.0381
9.8746	6.7336
9.763	6.6616
9.6539	6.2529
9.5472	4.9221
9.4429	3.4089
9.3408	2.4558
9.2409	2.2842
9.1431	2.4495
9.0474	2.6872
8.9536	2.9238
8.8618	3.1616
8.7718	3.3406
8.6837	3.5205
8.5973	3.6426
8.5126	3.8232
8.4295	3.9621
8.3481	4.1138
8.2682	4.2986
8.1898	4.4744
8.1129	4.5625
8.0374	4.5913
7.9634	4.633
7.8906	4.657
7.8192	4.6555
7.7491	4.6423
7.6802	4.6921
7.6126	4.7668
7.5461	4.8472
7.4807	4.9055
7.4165	4.9541
7.3534	4.9873
7.2914	5.0161
7.2303	5.0156
7.1703	5.0444
7.1113	5.0676
7.0533	5.0967
6.9962	5.1047
6.94	5.1301
6.8847	5.1404
6.8302	5.1435
6.7767	5.1492
6.7239	5.1362
6.672	5.1286
6.6209	5.1321
6.5705	5.124
6.5209	5.0998
6.4721	5.1023
6.424	5.0762
6.3766	5.0361
6.3299	4.9939
6.2838	4.9463
6.2385	4.9011
6.1937	4.8423
6.1496	4.7151
6.1062	4.5679
6.0633	4.4602
6.0211	4.4763
5.9794	4.5024
5.9383	4.5066
5.8978	4.5173
5.8578	4.5369
5.8184	4.521
5.7794	4.4165
5.741	4.2878
5.7031	4.2532
5.6657	4.2883
5.6288	4.3464
5.5924	4.3696
5.5564	4.4026
5.5209	4.4397
5.4859	4.4809
5.4513	4.5342
5.4171	4.5713
5.3833	4.5867
5.35	4.6145
5.3171	4.654
5.2846	4.7073
5.2524	4.7441
5.2207	4.7834
5.1893	4.8118
5.1584	4.8259
5.1277	4.8454
5.0975	4.885
5.0676	4.9304
5.038	4.9966
5.0088	5.0571
4.98	5.1157
4.9514	5.157
4.9232	5.1904
4.8953	5.2305
4.8678	5.2666
4.8405	5.2976
4.8135	5.3213
4.7868	5.3606
4.7605	5.3933
4.7344	5.4177
4.7086	5.446
4.6831	5.4773
4.6578	5.5093
4.6328	5.5449
4.6081	5.5796
4.5837	5.616
4.5595	5.6479
4.5356	5.6755
4.5119	5.7165
4.4884	5.7595
4.4652	5.7864
4.4423	5.8342
4.4196	5.8747
4.3971	5.9209
4.3748	5.9636
4.3528	6.0105
4.331	6.0495
4.3094	6.0825
4.288	6.1282
4.2668	6.1665
4.2458	6.2168
4.2251	6.2634
4.2045	6.3059
4.1841	6.3374
4.164	6.3786
4.144	6.425
4.1242	6.4685
4.1046	6.5034
4.0852	6.5444
4.066	6.5891
4.047	6.6321
4.0281	6.677
4.0094	6.7173
3.9909	6.7527
3.9725	6.7961
3.9544	6.8474
3.9363	6.8984
3.9185	6.9426
3.9008	6.9824
3.8833	7.02
3.8659	7.0505
3.8487	7.0981
3.8316	7.1411
3.8147	7.1704
3.7979	7.2053
3.7813	7.2544
3.7648	7.2912
3.7485	7.3362
3.7323	7.3618
3.7162	7.394
3.7003	7.438
3.6845	7.4648
3.6689	7.5019
3.6534	7.5344
3.638	7.5666
3.6227	7.6013
3.6076	7.6274
3.5926	7.6548
3.5777	7.6782
3.563	7.6904
3.5484	7.7109
3.5338	7.7248
3.5195	7.7041
3.5052	7.6003
3.491	7.6621
3.477	7.7012
3.463	7.7224
3.4492	7.7012
3.4355	7.6523
3.4219	7.5271
3.4084	7.573
3.395	7.7124
3.3817	7.7104
3.3685	7.772
3.3554	7.8428
3.3425	7.8852
3.3296	7.8921
3.3168	7.8862
3.3041	7.8962
3.2915	7.8955
3.279	7.8816
3.2666	7.8779
3.2543	7.8579
3.2421	7.8562
3.23	7.8191
3.218	7.8091
3.206	7.7715
3.1942	7.7561
3.1824	7.7156
3.1707	7.697
3.1591	7.6738
3.1476	7.6484
3.1362	7.6223
3.1249	7.602
3.1136	7.5959
3.1024	7.5783
3.0913	7.5681
3.0803	7.5603
3.0694	7.5425
3.0585	7.5449
3.0477	7.5303
3.037	7.5122
3.0264	7.499
3.0158	7.4814
3.0053	7.4626
2.9949	7.4568
2.9845	7.4487
2.9743	7.435
2.9641	7.414
2.9539	7.3979
2.9439	7.4136
2.9339	7.4131
2.9239	7.4106
2.9141	7.4055
2.9043	7.3972
2.8946	7.3869
2.8849	7.3684
2.8753	7.3525
2.8658	7.3379
2.8563	7.3425
2.8469	7.3259
2.8375	7.3296
2.8282	7.3147
2.819	7.3083
2.8098	7.2734
2.8007	7.2485
2.7917	7.2422
2.7827	7.2898
2.7738	7.3166
2.7649	7.3684
2.7561	7.448
2.7473	7.532
2.7386	7.6997
2.7299	7.875
2.7213	8.2077
2.7128	8.5469
2.7043	8.8249
2.6959	9.0134
2.6875	9.1101
2.6791	9.1946
2.6709	9.2832
2.6626	9.2693
2.6545	9.2812
2.6463	9.2571
2.6382	9.2893
2.6302	9.3127
2.6222	9.2788
2.6143	9.2624
2.6064	9.2688
2.5986	9.2607
2.5908	9.2649
2.583	9.2649
2.5753	9.216
2.5677	9.2246
2.5601	9.2309
2.5525	9.2185
2.545	9.2129
2.5375	9.2099
2.5301	9.1816
2.5227	9.1841
2.5154	9.1474
2.5081	9.1733
2.5008	9.1887
2.4936	9.1719
2.4864	9.1596
2.4793	9.1469
2.4722	9.1428
2.4651	9.1516
2.4581	9.1365
2.4511	9.1477
2.4442	9.1015
2.4373	9.1089
2.4305	9.0981
2.4236	9.1147
2.4169	9.1074
2.4101	9.1037
2.4034	9.0898
2.3967	9.0752
2.3901	9.0527
2.3835	9.0488
2.377	9.0566
2.3704	9.0534
2.364	9.0478
2.3575	9.0351
2.3511	9.0312
2.3447	9.0132
2.3384	9.0268
2.3321	9.001
2.3258	8.9743
2.3195	9.0229
2.3133	9.0063
2.3071	9.0166
2.301	9.0019
2.2949	9.0263
2.2888	9.0254
2.2828	9.0166
2.2767	9.0102
2.2708	9.0366
2.2648	9.0132
2.2589	9.0322
2.253	9.061
2.2471	9.063
2.2413	9.0349
2.2355	9.0588
2.2297	9.029
2.224	9.0537
2.2183	9.0537
2.2126	9.0407
2.207	9.0637
2.2013	9.0266
2.1957	9.0368
2.1902	9.0898
2.1846	9.0664
2.1791	9.0864
2.1736	9.06
2.1682	9.0747
2.1628	9.0925
2.1574	9.0696
2.152	9.0481
2.1466	9.0776
2.1413	9.0786
2.136	9.1025
2.1308	9.0715
2.1255	9.1242
2.1203	9.1445
2.1151	9.0971
2.11	9.091
2.1048	9.145
2.0997	9.1675
2.0946	9.1797
2.0895	9.1504
2.0845	9.1777
2.0795	9.1587
