Name: Montmorillonite (Na,Ca)_0.33(Al,Mg)_2Si_4O_10(OH)_2.H_2O
Type: Mineral
Class: Silicate
Subclass: Phyllosilicate
Particle Size: Fine
Sample No.: PS-2D
Owner: JPL
Wavelength Range: VSWIR
Origin: USA, Wyoming, Crook County
Description: Particle size was 0-45um.Collected by Clay Mineral Society Original ASTER Spectral Library name was jpl.beckman.mineral.silicate.phyllosilicate.fine.ps02d.spectrum.txt
Measurement: Hemispherical reflectance
X Units: Wavelength (micrometers)
Y Units: Reflectance (percent)
wavelength	value
0.4	53.49
0.403	54.44
0.406	55.29
0.409	56.22
0.412	56.92
0.415	57.76
0.418	58.59
0.421	59.4
0.424	60.11
0.427	60.8
0.43	61.44
0.433	61.89
0.436	62.56
0.439	63.37
0.442	64.07
0.445	64.7
0.448	65.14
0.451	65.55
0.454	65.89
0.457	66.47
0.46	66.65
0.463	67.06
0.466	67.44
0.469	67.73
0.472	67.99
0.475	68.23
0.478	68.38
0.481	68.6
0.484	68.89
0.487	69.07
0.49	69.12
0.493	69.43
0.496	69.74
0.499	70.06
0.502	70.24
0.505	70.58
0.508	70.71
0.511	71.22
0.514	71.74
0.517	72.1
0.52	72.6
0.523	72.93
0.526	73.26
0.529	73.61
0.532	73.82
0.535	73.9
0.538	74.3
0.541	74.46
0.544	74.66
0.547	75.13
0.55	75.19
0.553	75.34
0.556	75.39
0.559	75.4
0.562	75.99
0.565	76.05
0.568	76.09
0.571	75.92
0.574	75.89
0.577	75.98
0.58	76.03
0.583	75.79
0.586	75.81
0.589	75.8
0.592	75.86
0.595	75.93
0.598	75.95
0.601	76.04
0.604	75.83
0.607	75.9
0.61	76.01
0.613	76.06
0.616	75.8
0.619	75.81
0.622	75.8
0.625	75.86
0.628	75.8
0.631	75.83
0.634	75.93
0.637	75.88
0.64	75.97
0.643	75.97
0.646	76.14
0.649	75.98
0.652	76.2
0.655	76.23
0.658	76.34
0.661	76.5
0.664	76.6
0.667	76.85
0.67	76.75
0.673	76.81
0.676	76.97
0.679	77.13
0.682	77.07
0.685	77.27
0.688	77.38
0.691	77.49
0.694	77.54
0.697	77.52
0.7	77.67
0.703	77.75
0.706	77.96
0.709	78.02
0.712	78.09
0.715	78.08
0.718	78.11
0.721	78.36
0.724	78.31
0.727	78.39
0.73	78.37
0.733	78.44
0.736	78.52
0.739	78.39
0.742	78.5
0.745	78.6
0.748	78.43
0.751	78.5
0.754	78.68
0.757	78.6
0.76	78.6
0.763	78.61
0.766	78.61
0.769	78.69
0.772	78.74
0.775	78.73
0.778	78.71
0.781	78.73
0.784	78.71
0.787	78.77
0.79	78.81
0.793	78.83
0.796	78.82
0.799	79.01
0.808	78.99
0.82	79.02
0.832	78.9
0.844	78.95
0.856	79.01
0.868	78.98
0.88	78.9
0.892	78.95
0.904	78.84
0.916	78.84
0.928	78.93
0.94	79
0.952	79.02
0.964	79.12
0.976	79.32
0.988	79.38
1	79.61
1.012	79.69
1.024	79.84
1.036	80.03
1.048	80.07
1.06	80.18
1.072	80.23
1.084	80.27
1.096	80.27
1.108	80.3
1.12	80.37
1.132	80.44
1.144	80.08
1.156	80.14
1.168	80.2
1.18	80.32
1.192	80.43
1.204	80.58
1.216	80.63
1.228	80.7
1.24	80.72
1.252	80.83
1.264	80.84
1.276	80.87
1.288	80.93
1.3	80.82
1.312	80.54
1.324	80.36
1.336	80.15
1.348	79.95
1.36	79.58
1.372	78.14
1.384	74.77
1.396	69.65
1.408	66.88
1.42	70.6
1.432	74.09
1.444	75.34
1.456	75.56
1.468	76.48
1.48	77.62
1.492	78.3
1.504	78.97
1.516	79.46
1.528	79.89
1.54	80.18
1.552	80.46
1.564	80.61
1.576	80.89
1.588	81.07
1.6	81.2
1.612	81.37
1.624	81.44
1.636	81.52
1.648	81.68
1.66	81.74
1.672	81.74
1.684	81.75
1.696	81.72
1.708	81.63
1.72	81.42
1.732	81.12
1.744	80.94
1.756	80.66
1.768	80.41
1.78	80.28
1.792	80.14
1.804	79.99
1.816	79.72
1.828	79.53
1.84	79.03
1.852	78.08
1.864	75.53
1.876	69.51
1.888	59.94
1.9	53.49
1.912	56.1
1.924	60.66
1.936	63.14
1.948	64.3
1.96	65.29
1.972	66.52
1.984	68.05
1.996	69.68
2.008	71.11
2.02	72.39
2.032	73.3
2.044	73.98
2.056	74.39
2.068	74.63
2.08	74.78
2.092	74.86
2.104	75.25
2.116	75.58
2.128	75.54
2.14	75.12
2.152	73.78
2.164	71.55
2.176	68.32
2.188	64.83
2.2	62.79
2.212	63.72
2.224	66.17
2.236	68.07
2.248	69.88
2.26	70.85
2.272	70.77
2.284	70
2.296	68.84
2.308	67.54
2.32	66.41
2.332	65.24
2.344	63.82
2.356	62.65
2.368	61.5
2.38	60.45
2.392	59.32
2.404	58.32
2.416	57.22
2.428	56.04
2.44	54.9
2.452	53.95
2.464	53.11
2.476	52.34
2.488	51.8
2.5	51.26
