Name: Cordierite Mg2Al4Si5O18
Type: Mineral
Class: Silicate
Subclass: Cyclosilicate
Particle Size: Solid
Sample No.: cordier_2
Owner: JHU
Wavelength Range: TIR
Origin: Sample from Orijarvi, Finland via the Smithsonian  (sampleno. NMNH 78228).
Description: The sample consists of three pieces, each about 2 cm x 4 cm x 1 cm.  There are some heterogeneities in color, but the samples are predominantly blue-gray.  They appear fairly pure, but do have a few veins with discoloration along them.  Under the petrographic microscope all samples appear to be cordierite, but grains have a small amount of alteration and some microcrystalline inclusions. Sampled measured had fracture surface. (Ring Silicates) Original ASTER Spectral Library name was jhu.nicolet.mineral.silicate.cyclosilicate.solid.cordie2.spectrum.txt
Measurement: Bidirectional reflectance
X Units: Wavelength (micrometers)
Y Units: Reflectance (percent)
wavelength	value
25.0442	27.2304
24.3388	31.1269
23.6719	26.8447
23.0407	14.3266
22.4422	18.343
21.8741	19.5341
21.334	19.2451
20.8199	20.842
20.33	20.2426
19.8627	12.7624
19.4163	6.218
18.9896	6.2012
18.5812	7.459
18.19	8.8706
17.815	10.7973
17.4551	8.7929
17.1094	8.5581
16.7772	8.1738
16.4576	8.0534
16.15	8.5742
15.8537	8.5361
15.568	8.5022
15.2925	8.9389
15.0265	9.8271
14.7697	9.4878
14.5214	7.9253
14.2814	8.9004
14.0492	8.801
13.8244	9.6247
13.6067	10.5166
13.3957	11.8198
13.1912	13.8017
12.9929	15.7802
12.8004	13.0766
12.6135	9.3845
12.432	7.22
12.2557	7.832
12.0843	8.2163
11.9176	8.7026
11.7555	9.239
11.5977	9.748
11.444	10.3137
11.2944	11.0637
11.1487	12.3879
11.0067	14.4482
10.8682	13.7009
10.7332	14.3408
10.6015	20.3337
10.473	27.7726
10.3476	30.8608
10.2251	31.2116
10.1056	29.9816
9.9887	21.967
9.8746	13.875
9.763	15.8591
9.6539	13.7385
9.5472	12.8838
9.4429	13.623
9.3408	13.0266
9.2409	12.3716
9.1431	11.7959
9.0474	11.9255
8.9536	13.0283
8.8618	14.6433
8.7718	16.9973
8.6837	13.8625
8.5973	17.0737
8.5126	18.5607
8.4295	20.624
8.3481	20.9345
8.2682	21.3181
8.1898	22.2634
8.1129	22.3183
8.0374	17.434
7.9634	12.0193
7.8906	7.8147
7.8192	4.7705
7.7491	2.9243
7.6802	2.6609
7.6126	3.019
7.5461	3.4231
7.4807	3.7004
7.4165	4.0122
7.3534	4.2353
7.2914	4.435
7.2303	4.6133
7.1703	4.6721
7.1113	4.8772
7.0533	4.9087
6.9962	5.1067
6.94	5.2912
6.8847	5.3608
6.8302	5.3638
6.7767	5.4902
6.7239	5.5068
6.672	5.7029
6.6209	5.8467
6.5705	5.6938
6.5209	5.8022
6.4721	5.9719
6.424	5.8398
6.3766	5.8835
6.3299	6.039
6.2838	6.0842
6.2385	6.0891
6.1937	6.0964
6.1496	6.1853
6.1062	6.2082
6.0633	6.279
6.0211	6.1477
5.9794	6.2031
5.9383	5.8557
5.8978	6.0019
5.8578	6.291
5.8184	6.2886
5.7794	6.3025
5.741	6.3911
5.7031	6.4346
5.6657	6.4614
5.6288	6.4931
5.5924	6.5364
5.5564	6.4907
5.5209	6.5588
5.4859	6.5664
5.4513	6.6357
5.4171	6.655
5.3833	6.6492
5.35	6.5835
5.3171	6.6772
5.2846	6.7114
5.2524	6.7117
5.2207	6.719
5.1893	6.7666
5.1584	6.7671
5.1277	6.7986
5.0975	6.811
5.0676	6.8186
5.038	6.8547
5.0088	6.8674
4.98	6.8857
4.9514	6.9216
4.9232	6.9155
4.8953	6.9482
4.8678	6.9455
4.8405	6.9534
4.8135	6.9651
4.7868	6.97
4.7605	6.9795
4.7344	6.9949
4.7086	6.9958
4.6831	6.9944
4.6578	7.0112
4.6328	7.0368
4.6081	7.0412
4.5837	7.0554
4.5595	7.0771
4.5356	7.0815
4.5119	7.0962
4.4884	7.0971
4.4652	7.0862
4.4423	7.0669
4.4196	7.0505
4.3971	7.0368
4.3748	7.0112
4.3528	6.7947
4.331	6.3828
4.3094	5.8901
4.288	5.3757
4.2668	5.2727
4.2458	4.7261
4.2251	4.9221
4.2045	6.3491
4.1841	7.011
4.164	7.0569
4.144	7.0791
4.1242	7.0788
4.1046	7.1003
4.0852	7.0918
4.066	7.0845
4.047	7.0962
4.0281	7.1028
4.0094	7.1003
3.9909	7.0998
3.9725	7.114
3.9544	7.104
3.9363	7.1162
3.9185	7.1242
3.9008	7.1157
3.8833	7.1172
3.8659	7.0913
3.8487	7.091
3.8316	7.0825
3.8147	7.0691
3.7979	7.0639
3.7813	7.0583
3.7648	7.0466
3.7485	7.0359
3.7323	7.0139
3.7162	7.0066
3.7003	6.9914
3.6845	6.9863
3.6689	6.9756
3.6534	6.958
3.638	6.948
3.6227	6.9443
3.6076	6.9367
3.5926	6.9233
3.5777	6.9189
3.563	6.8962
3.5484	6.894
3.5338	6.8877
3.5195	6.8728
3.5052	6.8161
3.491	6.7781
3.477	6.7649
3.463	6.7785
3.4492	6.7666
3.4355	6.7705
3.4219	6.7754
3.4084	6.6618
3.395	6.6162
3.3817	6.6152
3.3685	6.594
3.3554	6.5764
3.3425	6.5864
3.3296	6.5857
3.3168	6.5749
3.3041	6.5571
3.2915	6.5535
3.279	6.5266
3.2666	6.4961
3.2543	6.4902
3.2421	6.4746
3.23	6.4597
3.218	6.4426
3.206	6.4206
3.1942	6.4204
3.1824	6.4092
3.1707	6.3811
3.1591	6.3594
3.1476	6.3379
3.1362	6.3318
3.1249	6.3032
3.1136	6.3042
3.1024	6.2622
3.0913	6.2514
3.0803	6.229
3.0694	6.2087
3.0585	6.1816
3.0477	6.1706
3.037	6.1272
3.0264	6.1238
3.0158	6.1216
3.0053	6.0842
2.9949	6.0825
2.9845	6.0388
2.9743	6.0561
2.9641	6.04
2.9539	6.0195
2.9439	5.9983
2.9339	5.9609
2.9239	5.9558
2.9141	5.915
2.9043	5.9184
2.8946	5.9106
2.8849	5.917
2.8753	5.894
2.8658	5.894
2.8563	5.8452
2.8469	5.8755
2.8375	5.8442
2.8282	5.7895
2.819	5.8545
2.8098	5.7842
2.8007	5.8723
2.7917	5.7685
2.7827	5.7173
2.7738	5.7124
2.7649	5.708
2.7561	5.5159
2.7473	5.6904
2.7386	5.8735
2.7299	5.7353
2.7213	5.6526
2.7128	5.6291
2.7043	5.6125
2.6959	5.5478
2.6875	5.6933
2.6791	5.7099
2.6709	5.7217
2.6626	5.9209
2.6545	5.9175
2.6463	5.841
2.6382	5.8882
2.6302	5.8462
2.6222	5.8677
2.6143	5.9582
2.6064	5.8345
2.5986	5.8098
2.5908	5.8498
2.583	5.8364
2.5753	5.8799
2.5677	5.8733
2.5601	5.8926
2.5525	5.7578
2.545	5.7724
2.5375	5.7571
2.5301	5.7641
2.5227	5.8
2.5154	5.7805
2.5081	5.7583
2.5008	5.7854
2.4936	5.7671
2.4864	5.7471
2.4793	5.7641
2.4722	5.7226
2.4651	5.7529
2.4581	5.7219
2.4511	5.72
2.4442	5.7305
2.4373	5.709
2.4305	5.7327
2.4236	5.7002
2.4169	5.678
2.4101	5.6933
2.4034	5.7016
2.3967	5.6806
2.3901	5.6682
2.3835	5.6203
2.377	5.676
2.3704	5.6216
2.364	5.6448
2.3575	5.623
2.3511	5.6465
2.3447	5.5813
2.3384	5.5842
2.3321	5.5823
2.3258	5.6123
2.3195	5.6343
2.3133	5.5918
2.3071	5.6262
2.301	5.5959
2.2949	5.6379
2.2888	5.6401
2.2828	5.6079
2.2767	5.6538
2.2708	5.6489
2.2648	5.5937
2.2589	5.6265
2.253	5.5713
2.2471	5.5879
2.2413	5.6118
2.2355	5.6133
2.2297	5.5972
2.224	5.6274
2.2183	5.5957
2.2126	5.5893
2.207	5.584
2.2013	5.563
2.1957	5.6045
2.1902	5.6064
2.1846	5.6562
2.1791	5.6406
2.1736	5.6123
2.1682	5.6084
2.1628	5.6714
2.1574	5.5845
2.152	5.6743
2.1466	5.6435
2.1413	5.6489
2.136	5.6055
2.1308	5.6059
2.1255	5.6767
2.1203	5.6216
2.1151	5.6455
2.11	5.647
2.1048	5.6279
2.0997	5.6924
2.0946	5.6758
2.0895	5.7031
2.0845	5.7388
2.0795	5.7178
