Name: Pectolite NaCa2Si308(OH)
Type: Mineral
Class: Silicate
Subclass: Inosilicate
Particle Size: Coarse
Sample No.: pectol_2
Owner: JHU
Wavelength Range: TIR
Origin: Thedford, Ontario, Canada via the Smithsonian (sample no.NMNH 94865)
Description: Sample consisted of a small (1 mm x 1 mm x 1 cm ) and one larger (5 mm x 6 mm x 1 cm) fragment. Sample appears to be composed of pure pectolite needles. However, microsopic examination revealed that it contained 2% of an isotropic mineral. Fibrous pectolite precludes effective sieving; the fine fraction was separated from the coarse fraction by elutriation in acetone. Particle size was 75 - 250  Micrometers.(Chain Silicates); (Pyrexenoid Group) Original ASTER Spectral Library name was jhu.nicolet.mineral.silicate.inosilicate.coarse.pectol2.spectrum.txt
Measurement: Bidirectional reflectance
X Units: Wavelength (micrometers)
Y Units: Reflectance (percent)
wavelength	value
25.0442	4.0779
24.3388	4.4878
23.6719	4.4541
23.0407	5.2317
22.4422	6.6335
21.8741	7.4724
21.334	8.1194
20.8199	8.7903
20.33	8.4558
19.8627	7.4299
19.4163	5.4277
18.9896	3.73
18.5812	3.3406
18.19	3.0559
17.815	2.5588
17.4551	2.3425
17.1094	2.3872
16.7772	2.5437
16.4576	2.7092
16.15	2.8352
15.8537	3.1201
15.568	3.8401
15.2925	2.9268
15.0265	3.6133
14.7697	5.207
14.5214	3.3179
14.2814	2.2881
14.0492	2.2551
13.8244	2.5381
13.6067	2.7122
13.3957	2.8618
13.1912	2.9858
12.9929	3.0369
12.8004	3.0898
12.6135	3.093
12.432	3.1252
12.2557	3.1226
12.0843	3.114
11.9176	3.0486
11.7555	3.0105
11.5977	3.0845
11.444	3.3691
11.2944	3.9211
11.1487	5.1409
11.0067	6.6941
10.8682	7.697
10.7332	8.6772
10.6015	7.0825
10.473	7.2392
10.3476	7.4302
10.2251	5.9829
10.1056	5.6501
9.9887	4.1562
9.8746	3.3655
9.763	4.54
9.6539	6.1238
9.5472	7.4118
9.4429	8.0574
9.3408	8.6294
9.2409	8.8598
9.1431	8.676
9.0474	7.8142
8.9536	5.6997
8.8618	3.5913
8.7718	2.1335
8.6837	1.3081
8.5973	0.8708
8.5126	0.6819
8.4295	0.6726
8.3481	0.7742
8.2682	0.9136
8.1898	1.0334
8.1129	1.1392
8.0374	1.2283
7.9634	1.2839
7.8906	1.3389
7.8192	1.3701
7.7491	1.4026
7.6802	1.4287
7.6126	1.446
7.5461	1.4438
7.4807	1.4197
7.4165	1.3686
7.3534	1.3032
7.2914	1.2358
7.2303	1.2046
7.1703	1.175
7.1113	1.064
7.0533	1.1228
6.9962	1.3076
6.94	1.4885
6.8847	1.6184
6.8302	1.696
6.7767	1.7331
6.7239	1.8015
6.672	1.9155
6.6209	2.0207
6.5705	2.1113
6.5209	2.199
6.4721	2.198
6.424	2.1479
6.3766	2.1848
6.3299	2.1699
6.2838	2.1765
6.2385	2.1658
6.1937	2.1179
6.1496	2.175
6.1062	2.2822
6.0633	2.4333
6.0211	2.5537
5.9794	2.6121
5.9383	2.5808
5.8978	2.6467
5.8578	2.7505
5.8184	2.7856
5.7794	2.8542
5.741	2.8752
5.7031	2.9155
5.6657	2.9573
5.6288	2.9553
5.5924	2.9255
5.5564	2.8733
5.5209	2.8142
5.4859	2.7561
5.4513	2.7222
5.4171	2.6728
5.3833	2.6714
5.35	2.6587
5.3171	2.6262
5.2846	2.53
5.2524	2.4497
5.2207	2.436
5.1893	2.4807
5.1584	2.5539
5.1277	2.623
5.0975	2.6589
5.0676	2.6611
5.038	2.719
5.0088	2.678
4.98	2.6758
4.9514	2.7234
4.9232	2.8418
4.8953	2.9841
4.8678	3.1003
4.8405	3.1726
4.8135	3.2344
4.7868	3.2673
4.7605	3.2861
4.7344	3.335
4.7086	3.4018
4.6831	3.4438
4.6578	3.477
4.6328	3.5005
4.6081	3.5234
4.5837	3.5351
4.5595	3.5391
4.5356	3.5456
4.5119	3.5579
4.4884	3.5488
4.4652	3.5474
4.4423	3.5388
4.4196	3.54
4.3971	3.529
4.3748	3.5349
4.3528	3.5361
4.331	3.5513
4.3094	3.5476
4.288	3.552
4.2668	3.5466
4.2458	3.5496
4.2251	3.5452
4.2045	3.5515
4.1841	3.5478
4.164	3.5618
4.144	3.563
4.1242	3.5727
4.1046	3.5908
4.0852	3.5945
4.066	3.6125
4.047	3.6155
4.0281	3.6262
4.0094	3.6313
3.9909	3.6338
3.9725	3.6384
3.9544	3.6514
3.9363	3.6496
3.9185	3.6614
3.9008	3.686
3.8833	3.6931
3.8659	3.709
3.8487	3.7224
3.8316	3.7324
3.8147	3.7397
3.7979	3.759
3.7813	3.7725
3.7648	3.7815
3.7485	3.782
3.7323	3.78
3.7162	3.7783
3.7003	3.7712
3.6845	3.7666
3.6689	3.7478
3.6534	3.7427
3.638	3.719
3.6227	3.6968
3.6076	3.6645
3.5926	3.6333
3.5777	3.6155
3.563	3.5896
3.5484	3.5908
3.5338	3.5986
3.5195	3.6033
3.5052	3.6247
3.491	3.6423
3.477	3.6645
3.463	3.6885
3.4492	3.7082
3.4355	3.7422
3.4219	3.7571
3.4084	3.7837
3.395	3.8142
3.3817	3.8415
3.3685	3.8721
3.3554	3.8879
3.3425	3.926
3.3296	3.9492
3.3168	3.9768
3.3041	4.0015
3.2915	4.0381
3.279	4.0708
3.2666	4.0915
3.2543	4.1128
3.2421	4.1492
3.23	4.1665
3.218	4.2002
3.206	4.2378
3.1942	4.2698
3.1824	4.3242
3.1707	4.3479
3.1591	4.3838
3.1476	4.4228
3.1362	4.4499
3.1249	4.5012
3.1136	4.5271
3.1024	4.5774
3.0913	4.605
3.0803	4.6562
3.0694	4.699
3.0585	4.7314
3.0477	4.7624
3.037	4.8315
3.0264	4.8655
3.0158	4.9153
3.0053	4.9248
2.9949	4.9748
2.9845	5.0122
2.9743	5.0603
2.9641	5.0947
2.9539	5.1135
2.9439	5.1633
2.9339	5.1933
2.9239	5.2278
2.9141	5.2773
2.9043	5.3193
2.8946	5.3403
2.8849	5.3633
2.8753	5.4075
2.8658	5.4402
2.8563	5.4822
2.8469	5.5046
2.8375	5.5525
2.8282	5.5825
2.819	5.6118
2.8098	5.6584
2.8007	5.6692
2.7917	5.6965
2.7827	5.7231
2.7738	5.7244
2.7649	5.7329
2.7561	5.7187
2.7473	5.7847
2.7386	5.7644
2.7299	5.8296
2.7213	5.7739
2.7128	5.8347
2.7043	5.8945
2.6959	5.9114
2.6875	5.959
2.6791	5.9592
2.6709	5.9734
2.6626	6.0559
2.6545	6.1174
2.6463	6.1643
2.6382	6.1684
2.6302	6.1946
2.6222	6.2583
2.6143	6.2839
2.6064	6.2861
2.5986	6.3518
2.5908	6.3935
2.583	6.3879
2.5753	6.4536
2.5677	6.467
2.5601	6.4682
2.5525	6.4878
2.545	6.518
2.5375	6.5481
2.5301	6.5371
2.5227	6.5388
2.5154	6.5625
2.5081	6.5588
2.5008	6.572
2.4936	6.5539
2.4864	6.5451
2.4793	6.5376
2.4722	6.5659
2.4651	6.5361
2.4581	6.5371
2.4511	6.5542
2.4442	6.5339
2.4373	6.5268
2.4305	6.5703
2.4236	6.5198
2.4169	6.5654
2.4101	6.5586
2.4034	6.5801
2.3967	6.5793
2.3901	6.5813
2.3835	6.6062
2.377	6.6111
2.3704	6.6433
2.364	6.6697
2.3575	6.675
2.3511	6.699
2.3447	6.7214
2.3384	6.699
2.3321	6.7417
2.3258	6.7888
2.3195	6.8005
2.3133	6.831
2.3071	6.8894
2.301	6.9158
2.2949	6.946
2.2888	7.0061
2.2828	7.0256
2.2767	7.0781
2.2708	7.1184
2.2648	7.1733
2.2589	7.2375
2.253	7.2812
2.2471	7.2939
2.2413	7.363
2.2355	7.4118
2.2297	7.4604
2.224	7.5368
2.2183	7.571
2.2126	7.5876
2.207	7.6079
2.2013	7.6997
2.1957	7.7605
2.1902	7.8408
2.1846	7.8926
2.1791	7.9048
2.1736	8.0046
2.1682	8.0356
2.1628	8.1133
2.1574	8.1987
2.152	8.1968
2.1466	8.247
2.1413	8.3076
2.136	8.4013
2.1308	8.4883
2.1255	8.5603
2.1203	8.5947
2.1151	8.6684
2.11	8.7597
2.1048	8.8213
2.0997	8.8667
2.0946	8.9238
2.0895	9.0356
2.0845	9.0478
2.0795	9.1157
