Name: Jadeite Na(Al,Fe+3)Si2O6
Type: Mineral
Class: Silicate
Subclass: Inosilicate
Particle Size: Fine
Sample No.: jadeite_1
Owner: JHU
Wavelength Range: TIR
Origin: Tibet, China via the Smithsonian (sample no. NMNH B18463).
Description: The sample was a single 1 cm x 4 cm piece weighing 11.5 g. No impurities were apparent, but one edge was weathered and coated with a light tan material which was easily removed by grinding.  Under the microscope the sample appeared pure.(Chain Silicates); (Pyroxene Group)Particle size was Less than 2 micrometers. Original ASTER Spectral Library name was jhu.nicolet.mineral.silicate.inosilicate.powder.jadeit1.spectrum.txt
Measurement: Transmission
X Units: Wavelength (micrometers)
Y Units: Transmittance (percent)
wavelength	value
25.0442	38.0468
24.3388	54.1444
23.6719	43.539
23.0407	28.6484
22.4422	28.7909
21.8741	17.8085
21.334	14.414
20.8199	14.9296
20.33	16.8007
19.8627	20.8066
19.4163	23.7988
18.9896	25.0624
18.5812	31.2655
18.19	51.5008
17.815	55.4022
17.4551	41.328
17.1094	26.0781
16.7772	26.3691
16.4576	29.579
16.15	41.5975
15.8537	61.6034
15.568	72.2117
15.2925	72.9881
15.0265	62.0233
14.7697	75.8299
14.5214	80.5789
14.2814	81.906
14.0492	82.2029
13.8244	81.8181
13.6067	80.5066
13.3957	71.6863
13.1912	79.6892
12.9929	80.617
12.8004	79.7019
12.6135	78.6077
12.432	76.5643
12.2557	73.5648
12.0843	68.3416
11.9176	59.5902
11.7555	45.8265
11.5977	44.6132
11.444	45.9789
11.2944	39.2733
11.1487	31.1606
11.0067	24.4296
10.8682	20.2133
10.7332	20.0473
10.6015	21.8896
10.473	23.0673
10.3476	20.1874
10.2251	14.542
10.1056	10.1255
9.9887	11.1484
9.8746	16.5141
9.763	20.1269
9.6539	19.2543
9.5472	14.4863
9.4429	13.854
9.3408	13.4375
9.2409	15.5341
9.1431	15.8271
9.0474	16.4628
8.9536	19.2636
8.8618	24.8027
8.7718	32.0448
8.6837	40.0126
8.5973	46.9652
8.5126	53.3358
8.4295	59.0023
8.3481	63.8924
8.2682	68.043
8.1898	71.3282
8.1129	74.0928
8.0374	76.2674
7.9634	78.0059
7.8906	79.5779
7.8192	81.0516
7.7491	82.0774
7.6802	83.0633
7.6126	84.1765
7.5461	84.9854
7.4807	85.6282
7.4165	86.3467
7.3534	87.0108
7.2914	87.5401
7.2303	87.9658
7.1703	87.9375
7.1113	88.1238
7.0533	88.4053
6.9962	88.531
6.94	87.8845
6.8847	88.3008
6.8302	89.2686
6.7767	89.4949
6.7239	90.0086
6.672	90.7764
6.6209	91.376
6.5705	91.6192
6.5209	91.6621
6.4721	91.7529
6.424	91.6013
6.3766	91.1643
6.3299	90.4951
6.2838	89.4541
6.2385	88.0134
6.1937	86.1114
6.1496	84.6638
6.1062	85.4451
6.0633	86.3015
6.0211	85.2647
5.9794	86.1065
5.9383	90.0235
5.8978	92.6719
5.8578	94.0388
5.8184	94.4456
5.7794	94.5957
5.741	94.5496
5.7031	94.6101
5.6657	94.7131
5.6288	94.8525
5.5924	94.9954
5.5564	95.207
5.5209	95.3516
5.4859	95.334
5.4513	95.5378
5.4171	96.0095
5.3833	96.3064
5.35	96.5156
5.3171	96.6638
5.2846	96.7451
5.2524	96.8142
5.2207	96.9128
5.1893	97.0085
5.1584	97.0798
5.1277	97.0828
5.0975	97.0977
5.0676	97.154
5.038	97.1389
5.0088	97.2283
4.98	97.2029
4.9514	97.2629
4.9232	97.3508
4.8953	97.385
4.8678	97.4504
4.8405	97.5481
4.8135	97.5959
4.7868	97.6228
4.7605	97.6697
4.7344	97.7024
4.7086	97.7336
4.6831	97.8303
4.6578	97.7966
4.6328	97.8855
4.6081	97.885
4.5837	97.9416
4.5595	97.8674
4.5356	98.0232
4.5119	97.9387
4.4884	98.0432
4.4652	98.0818
4.4423	97.9978
4.4196	98.032
4.3971	98.03
4.3748	98.0935
4.3528	98.0959
4.331	98.0852
4.3094	98.0183
4.288	98.0622
4.2668	98.0017
4.2458	98.0408
4.2251	98.0574
4.2045	98.0232
4.1841	98.0203
4.164	98.0417
4.144	98.03
4.1242	98.0315
4.1046	98.1287
4.0852	98.012
4.066	98.029
4.047	98.0359
4.0281	98.073
4.0094	97.9714
3.9909	97.9143
3.9725	97.9021
3.9544	97.9143
3.9363	97.9246
3.9185	97.9236
3.9008	97.9099
3.8833	97.7527
3.8659	97.7478
3.8487	97.6589
3.8316	97.6511
3.8147	97.5906
3.7979	97.5701
3.7813	97.4382
3.7648	97.3894
3.7485	97.342
3.7323	97.2986
3.7162	97.1951
3.7003	97.0373
3.6845	97.053
3.6689	96.9412
3.6534	96.8894
3.638	96.8845
3.6227	96.717
3.6076	96.5979
3.5926	96.5061
3.5777	96.5535
3.563	96.3396
3.5484	96.2737
3.5338	96.2678
3.5195	96.2073
3.5052	96.2463
3.491	96.053
3.477	96.0139
3.463	95.9812
3.4492	95.8772
3.4355	95.7048
3.4219	95.5471
3.4084	95.2971
3.395	95.0701
3.3817	94.7087
3.3685	94.5491
3.3554	94.1721
3.3425	93.9021
3.3296	93.7795
3.3168	93.6096
3.3041	93.4221
3.2915	93.1345
3.279	92.9822
3.2666	92.782
3.2543	92.5061
3.2421	92.2712
3.23	92.0076
3.218	91.5994
3.206	91.3396
3.1942	91.033
3.1824	90.7293
3.1707	90.3338
3.1591	89.9129
3.1476	89.3797
3.1362	88.7478
3.1249	88.157
3.1136	87.8162
3.1024	87.6511
3.0913	87.5037
3.0803	87.074
3.0694	86.7429
3.0585	86.5281
3.0477	86.5398
3.037	86.1609
3.0264	85.5818
3.0158	84.7244
3.0053	83.8094
2.9949	83.2244
2.9845	82.5603
2.9743	81.5867
2.9641	80.4744
2.9539	79.5857
2.9439	79.0789
2.9339	78.4978
2.9239	77.9539
2.9141	77.8592
2.9043	78.0506
2.8946	78.41
2.8849	79.1014
2.8753	79.699
2.8658	80.5906
2.8563	81.6756
2.8469	82.6336
2.8375	83.3474
2.8282	83.9197
2.819	84.5935
2.8098	85.117
2.8007	85.8943
2.7917	86.6961
2.7827	87.7498
2.7738	88.5789
2.7649	89.489
2.7561	90.6209
2.7473	91.5271
2.7386	92.3865
2.7299	92.906
2.7213	93.4529
2.7128	93.6716
2.7043	93.6882
2.6959	94.0193
2.6875	93.9031
2.6791	94.1443
2.6709	94.2781
2.6626	94.075
2.6545	94.1062
2.6463	93.7664
2.6382	93.8796
2.6302	94.0037
2.6222	93.864
2.6143	93.6755
2.6064	93.7195
2.5986	93.6218
2.5908	93.6482
2.583	93.7927
2.5753	93.3962
2.5677	93.324
2.5601	93.5056
2.5525	93.2849
2.545	93.2283
2.5375	93.4177
2.5301	93.2752
2.5227	92.9568
2.5154	93.1834
2.5081	93.2361
2.5008	93.1209
2.4936	93.0173
2.4864	92.9705
2.4793	92.7732
2.4722	92.7146
2.4651	93.0095
2.4581	92.988
2.4511	92.8943
2.4442	92.5466
2.4373	92.6345
2.4305	92.658
2.4236	92.8318
2.4169	92.5584
2.4101	92.6502
2.4034	92.4998
2.3967	92.4451
2.3901	92.3357
2.3835	92.3533
2.377	92.3787
2.3704	92.2439
2.364	92.117
2.3575	92.1111
2.3511	92.3474
2.3447	92.3045
2.3384	91.9627
2.3321	91.8982
2.3258	91.9177
2.3195	91.6834
2.3133	91.781
2.3071	91.906
2.301	91.7263
2.2949	91.5877
2.2888	91.6814
2.2828	91.6423
2.2767	91.4392
2.2708	91.7517
2.2648	91.7439
2.2589	91.281
2.253	91.5017
2.2471	91.2908
2.2413	91.2185
2.2355	90.9158
2.2297	91.2361
2.224	91.3455
2.2183	91.2263
2.2126	91.1267
2.207	91.1736
2.2013	91.1892
2.1957	90.8201
2.1902	90.9959
2.1846	90.9646
2.1791	90.5935
2.1736	91.1091
2.1682	91.0388
2.1628	90.8865
2.1574	90.8982
2.152	90.5505
2.1466	90.3865
2.1413	90.3552
2.136	90.4451
2.1308	90.5623
2.1255	90.2459
2.1203	90.531
2.1151	90.3201
2.11	90.2459
2.1048	90.3045
2.0997	90.363
2.0946	90.2732
2.0895	89.9334
2.0845	90.5935
2.0795	90.2381
