Name: Clinozoisite Ca2Al3(SiO4)3(OH)
Type: Mineral
Class: Silicate
Subclass: Sorosilicate
Particle Size: Coarse
Sample No.: clinozo_1
Owner: JHU
Wavelength Range: TIR
Origin: Sample from Baja California, Mexico via Smithsonian (sampleno. NMNH 112513-2.
Description: The sample was one large (2.5 cm x 2 cm x 2 cm) crystal with good crystal faces, weighing 19 g.  It was dark gray in color, with <<1% limonitic surface contamination, which was easily removed.  Under the microscope the sample appears to be pure and free from alteration.(Epidote Group) Particle size was 74-250 Micrometers. Original ASTER Spectral Library name was jhu.nicolet.mineral.silicate.sorosilicate.coarse.clinoz1.spectrum.txt
Measurement: Bidirectional reflectance
X Units: Wavelength (micrometers)
Y Units: Reflectance (percent)
wavelength	value
25.044	6.3506
24.339	7.8486
23.672	5.8577
23.041	6.1894
22.442	6.8645
21.874	6.4287
21.334	4.5469
20.82	4.3657
20.33	4.3516
19.863	4.7014
19.416	5.4936
18.99	6.0161
18.581	4.9416
18.19	5.2932
17.815	6.206
17.455	6.959
17.109	6.9646
16.777	4.3769
16.458	4.3137
16.15	3.4297
15.854	3.2505
15.568	4.4121
15.292	5.3862
15.027	5.3506
14.77	5.3747
14.521	4.0691
14.281	3.5405
14.049	2.6599
13.824	1.8027
13.607	1.6999
13.396	1.5142
13.191	1.7891
12.993	1.9844
12.8	2.2092
12.614	2.332
12.432	2.4766
12.256	2.6482
12.084	2.9297
11.918	3.3225
11.755	3.1855
11.598	3.5605
11.444	3.6348
11.294	4.886
11.149	5.7417
11.007	4.8684
10.868	3.9626
10.733	4.301
10.602	6.0801
10.473	8.2925
10.348	9.0949
10.225	7.8769
10.106	6.612
9.9887	6.0029
9.8746	3.427
9.763	1.4504
9.6539	2.1875
9.5472	3.6199
9.4429	4.5849
9.3408	4.7068
9.2409	4.1794
9.1431	4.0193
9.0474	4.365
8.9536	4.8706
8.8618	5.2417
8.7718	5.344
8.6837	4.5745
8.5973	3.3245
8.5126	2.0195
8.4295	1.02
8.3481	0.5754
8.2682	0.5806
8.1898	0.7122
8.1129	0.8528
8.0374	0.979
7.9634	1.1035
7.8906	1.2319
7.8192	1.345
7.7491	1.4597
7.6802	1.6099
7.6126	1.7825
7.5461	1.9485
7.4807	2.0862
7.4165	2.2134
7.3534	2.3393
7.2914	2.4333
7.2303	2.5215
7.1703	2.6313
7.1113	2.7275
7.0533	2.8262
6.9962	2.946
6.94	3.0185
6.8847	3.1182
6.8302	3.2236
6.7767	3.2673
6.7239	3.2837
6.672	3.2812
6.6209	3.2842
6.5705	3.2888
6.5209	3.3433
6.4721	3.4053
6.424	3.5139
6.3766	3.6548
6.3299	3.7458
6.2838	3.7744
6.2385	3.7729
6.1937	3.7158
6.1496	3.5915
6.1062	3.4184
6.0633	3.2639
6.0211	3.1389
5.9794	2.9724
5.9383	2.7568
5.8978	2.6811
5.8578	2.7703
5.8184	2.8393
5.7794	2.8374
5.741	2.7888
5.7031	2.6814
5.6657	2.5828
5.6288	2.5576
5.5924	2.6169
5.5564	2.7768
5.5209	3.0442
5.4859	3.3596
5.4513	3.6103
5.4171	3.7468
5.3833	3.8596
5.35	3.864
5.3171	3.8799
5.2846	3.9004
5.2524	3.8647
5.2207	3.8323
5.1893	3.8201
5.1584	4.0627
5.1277	4.4343
5.0975	4.605
5.0676	4.6548
5.038	4.6909
5.0088	4.6743
4.98	4.4709
4.9514	3.9978
4.9232	3.7668
4.8953	3.8235
4.8678	3.8567
4.8405	3.9766
4.8135	4.3879
4.7868	4.7068
4.7605	5.1953
4.7344	5.8623
4.7086	6.2378
4.6831	6.2724
4.6578	6.2429
4.6328	6.0327
4.6081	5.8838
4.5837	6.1699
4.5595	6.6514
4.5356	7.2163
4.5119	7.844
4.4884	8.4551
4.4652	9.0066
4.4423	9.5427
4.4196	9.9822
4.3971	10.287
4.3748	10.498
4.3528	10.683
4.331	10.844
4.3094	10.967
4.288	11.068
4.2668	11.164
4.2458	11.254
4.2251	11.342
4.2045	11.423
4.1841	11.541
4.164	11.664
4.144	11.737
4.1242	11.796
4.1046	11.802
4.0852	11.797
4.066	11.719
4.047	11.583
4.0281	11.375
4.0094	11.224
3.9909	11.331
3.9725	11.52
3.9544	11.647
3.9363	11.718
3.9185	11.755
3.9008	11.789
3.8833	11.832
3.8659	11.846
3.8487	11.86
3.8316	11.857
3.8147	11.844
3.7979	11.763
3.7813	11.667
3.7648	11.558
3.7485	11.482
3.7323	11.424
3.7162	11.349
3.7003	11.314
3.6845	11.271
3.6689	11.198
3.6534	11.049
3.638	10.925
3.6227	10.823
3.6076	10.785
3.5926	10.741
3.5777	10.688
3.563	10.567
3.5484	10.392
3.5338	10.172
3.5195	10.012
3.5052	9.8003
3.491	9.5998
3.477	9.4028
3.463	9.2107
3.4492	9.0603
3.4355	8.9751
3.4219	8.9214
3.4084	8.8393
3.395	8.6777
3.3817	8.5017
3.3685	8.2739
3.3554	8.0542
3.3425	7.8091
3.3296	7.4883
3.3168	7.1228
3.3041	6.7563
3.2915	6.4587
3.279	6.2444
3.2666	6.0754
3.2543	5.8911
3.2421	5.6736
3.23	5.3992
3.218	5.1162
3.206	4.8513
3.1942	4.6745
3.1824	4.5432
3.1707	4.3996
3.1591	4.2226
3.1476	4.0288
3.1362	3.8454
3.1249	3.7063
3.1136	3.5715
3.1024	3.4724
3.0913	3.3892
3.0803	3.3423
3.0694	3.2986
3.0585	3.2922
3.0477	3.2905
3.037	3.2588
3.0264	3.1565
3.0158	3.0273
3.0053	2.8975
2.9949	2.7778
2.9845	2.6621
2.9743	2.6189
2.9641	2.5898
2.9539	2.6282
2.9439	2.7349
2.9339	2.8611
2.9239	2.9468
2.9141	2.9705
2.9043	2.9812
2.8946	3.0068
2.8849	3.145
2.8753	3.3379
2.8658	3.5957
2.8563	3.8247
2.8469	4.136
2.8375	4.3738
2.8282	4.0857
2.819	4.2739
2.8098	4.6069
2.8007	5.0705
2.7917	5.7566
2.7827	6.2419
2.7738	6.8672
2.7649	7.4065
2.7561	7.8591
2.7473	8.2319
2.7386	8.4787
2.7299	8.7341
2.7213	9.2746
2.7128	10.012
2.7043	10.505
2.6959	10.907
2.6875	11.331
2.6791	11.727
2.6709	12.09
2.6626	12.416
2.6545	12.613
2.6463	12.711
2.6382	12.818
2.6302	12.876
2.6222	13.021
2.6143	13.224
2.6064	13.323
2.5986	13.484
2.5908	13.559
2.583	13.586
2.5753	13.621
2.5677	13.658
2.5601	13.692
2.5525	13.755
2.545	13.814
2.5375	13.955
2.5301	14.022
2.5227	14.162
2.5154	14.33
2.5081	14.443
2.5008	14.508
2.4936	14.524
2.4864	14.633
2.4793	14.771
2.4722	14.859
2.4651	14.92
2.4581	15.002
2.4511	15.115
2.4442	15.144
2.4373	15.115
2.4305	15.037
2.4236	14.978
2.4169	14.834
2.4101	14.639
2.4034	14.31
2.3967	13.967
2.3901	13.514
2.3835	12.786
2.377	11.711
2.3704	10.241
2.364	8.5547
2.3575	7.303
2.3511	6.7988
2.3447	6.9065
2.3384	7.3638
2.3321	8.0862
2.3258	8.8323
2.3195	9.5344
2.3133	10.078
2.3071	10.685
2.301	11.286
2.2949	11.903
2.2888	12.37
2.2828	12.762
2.2767	12.885
2.2708	12.734
2.2648	12.131
2.2589	11.651
2.253	11.645
2.2471	12.496
2.2413	13.515
2.2355	14.225
2.2297	14.614
2.224	14.932
2.2183	15.135
2.2126	15.235
2.207	15.278
2.2013	15.35
2.1957	15.437
2.1902	15.507
2.1846	15.611
2.1791	15.624
2.1736	15.695
2.1682	15.745
2.1628	15.846
2.1574	15.826
2.152	15.769
2.1466	15.785
2.1413	15.828
2.136	15.924
2.1308	15.854
2.1255	15.926
2.1203	15.964
2.1151	15.912
2.11	15.991
2.1048	15.95
2.0997	15.985
2.0946	16.042
2.0895	16.035
2.0845	16.028
2.0795	16.021
