Name: Dolomite CaMg(CO_3)_2
Type: Mineral
Class: Carbonate
Subclass: None
Particle Size: Medium
Sample No.: C-5A
Owner: JPL
Wavelength Range: VSWIR
Origin: USA, Colorado
Description: Red banded dolomite. Particle size was 45-125um.Collected by Ward's Original ASTER Spectral Library name was jpl.beckman.mineral.carbonate.none.medium.c05a.spectrum.txt
Measurement: Hemispherical reflectance
X Units: Wavelength (micrometers)
Y Units: Reflectance (percent)
wavelength	value
0.4	12.23
0.403	12.17
0.406	12.23
0.409	12.35
0.412	12.35
0.415	12.69
0.418	12.52
0.421	12.87
0.424	12.81
0.427	12.98
0.43	13.15
0.433	13.27
0.436	13.44
0.439	13.44
0.442	13.89
0.445	13.78
0.448	13.95
0.451	14.01
0.454	14.12
0.457	14.53
0.46	14.53
0.463	14.81
0.466	14.64
0.469	14.87
0.472	14.87
0.475	15.1
0.478	15.33
0.481	15.1
0.484	15.51
0.487	15.39
0.49	15.74
0.493	15.91
0.496	16.02
0.499	16.14
0.502	16.25
0.505	16.66
0.508	16.54
0.511	16.72
0.514	16.89
0.517	17.06
0.52	17.4
0.523	17.35
0.526	17.68
0.529	17.74
0.532	18.03
0.535	18.49
0.538	18.55
0.541	19.11
0.544	19.46
0.547	19.92
0.55	20.78
0.553	21.29
0.556	22.22
0.559	22.38
0.562	24.04
0.565	24.96
0.568	26.16
0.571	27.25
0.574	28.11
0.577	29.6
0.58	30.34
0.583	31.72
0.586	32.74
0.589	33.44
0.592	34.58
0.595	35.44
0.598	36.01
0.601	36.99
0.604	37.38
0.607	38.13
0.61	38.59
0.613	39.04
0.616	39.62
0.619	39.73
0.622	40.25
0.625	40.64
0.628	40.76
0.631	41.33
0.634	41.33
0.637	41.85
0.64	42.2
0.643	42.36
0.646	42.76
0.649	42.94
0.652	43.34
0.655	43.57
0.658	43.74
0.661	44.25
0.664	44.37
0.667	45
0.67	45.23
0.673	45.46
0.676	45.97
0.679	45.97
0.682	46.49
0.685	46.72
0.688	47.12
0.691	47.52
0.694	47.69
0.697	48.32
0.7	48.32
0.703	48.44
0.706	49.06
0.709	49.18
0.712	49.64
0.715	49.93
0.718	50.16
0.721	50.72
0.724	50.61
0.727	51.13
0.73	51.13
0.733	51.64
0.736	51.59
0.739	51.87
0.742	52.16
0.745	52.1
0.748	52.67
0.751	52.5
0.754	52.73
0.757	52.79
0.76	52.96
0.763	52.96
0.766	53.02
0.769	53.25
0.772	53.13
0.775	53.42
0.778	53.19
0.781	53.42
0.784	53.19
0.787	53.59
0.79	53.42
0.793	53.42
0.796	53.59
0.799	54.04
0.808	54.1
0.82	54.1
0.832	54.22
0.844	54.33
0.856	54.62
0.868	54.96
0.88	55.31
0.892	55.59
0.904	56.34
0.916	56.86
0.928	57.48
0.94	58.29
0.952	58.97
0.964	59.66
0.976	60.23
0.988	60.8
1	61.26
1.012	61.72
1.024	62.01
1.036	62.17
1.048	62.35
1.06	62.69
1.072	63.04
1.084	62.98
1.096	63.15
1.108	63.27
1.12	63.38
1.132	63.56
1.144	63.56
1.156	63.66
1.168	63.7
1.18	63.75
1.192	63.67
1.204	63.77
1.216	63.66
1.228	63.72
1.24	63.72
1.252	63.66
1.264	63.7
1.276	63.69
1.288	63.84
1.3	63.83
1.312	63.64
1.324	63.9
1.336	63.84
1.348	63.87
1.36	63.76
1.372	63.7
1.384	63.59
1.396	63.41
1.408	62.97
1.42	63.15
1.432	63.06
1.444	63.36
1.456	63.43
1.468	63.66
1.48	63.99
1.492	63.99
1.504	64.28
1.516	64.51
1.528	64.51
1.54	64.62
1.552	64.62
1.564	64.91
1.576	65.03
1.588	65.19
1.6	65.19
1.612	65.07
1.624	65.22
1.636	65.27
1.648	65.3
1.66	65.51
1.672	65.45
1.684	65.48
1.696	65.42
1.708	65.52
1.72	65.58
1.732	65.75
1.744	65.69
1.756	65.75
1.768	65.75
1.78	65.86
1.792	65.91
1.804	65.84
1.816	65.72
1.828	65.54
1.84	65.59
1.852	65.09
1.864	65.17
1.876	64.99
1.888	64.13
1.9	62.8
1.912	61.78
1.924	61.53
1.936	61.4
1.948	61.61
1.96	61.86
1.972	62.2
1.984	62.84
1.996	63.75
2.008	64.42
2.02	64.95
2.032	65.53
2.044	65.77
2.056	65.87
2.068	66.12
2.08	66.26
2.092	66.35
2.104	66.32
2.116	66.19
2.128	66.05
2.14	66.13
2.152	66.12
2.164	66.03
2.176	65.71
2.188	65.35
2.2	64.49
2.212	64.06
2.224	63.32
2.236	62.15
2.248	60.55
2.26	58.8
2.272	57.39
2.284	56.08
2.296	54.86
2.308	54.26
2.32	55.09
2.332	57.23
2.344	60.46
2.356	62.82
2.368	63.47
2.38	63.23
2.392	62.44
2.404	61.17
2.416	59.49
2.428	57.2
2.44	54.7
2.452	52.42
2.464	50.08
2.476	47.91
2.488	46.07
2.5	44.96
