Name: Cerussite PbCO_3
Type: Mineral
Class: Carbonate
Subclass: None
Particle Size: Medium
Sample No.: C-10A
Owner: JPL
Wavelength Range: TIR
Origin: USA, Arizona, Flux Mine
Description: Particle size was 45-125um.Collected by JPL Original ASTER Spectral Library name was jpl.nicolet.mineral.carbonate.none.medium.c10a.spectrum.txt
Measurement: Hemispherical reflectance
X Units: Wavelength (micrometers)
Y Units: Reflectance (percent)
wavelength	value
15.3853	17.4747
15.1161	14.3873
14.8563	8.419
14.6052	3.9353
14.3624	11.5154
14.1276	20.5528
13.9004	16.9639
13.6803	12.6772
13.4671	17.0169
13.2604	21.1691
13.06	20.0177
12.8656	16.5518
12.6769	15.8893
12.4936	16.9533
12.3155	14.615
12.1425	8.6715
11.9742	11.3973
11.8106	7.4312
11.6513	9.1452
11.4963	11.0862
11.3454	16.7078
11.1983	20.8072
11.0551	24.3954
10.9154	25.1122
10.7793	23.8349
10.6465	22.3053
10.5169	18.5439
10.3904	17.4732
10.267	17.5606
10.1464	11.4521
10.0287	10.243
9.9136	14.5904
9.8012	18.3947
9.6913	15.2712
9.5838	13.0275
9.4787	7.1275
9.3758	14.4628
9.2752	14.7948
9.1767	11.0247
9.0803	7.7266
8.9858	7.2095
8.8934	9.9839
8.8028	9.7371
8.714	10.4148
8.627	10.3904
8.5417	10.8165
8.4581	10.5352
8.3761	10.0512
8.2957	9.1799
8.2169	8.8546
8.1395	8.4608
8.0635	8.0396
7.989	7.6058
7.9158	7.3212
7.8439	7.1211
7.7734	7.1032
7.7041	7.3724
7.636	7.1836
7.5691	7.393
7.5034	7.9307
7.4388	8.7262
7.3753	9.7244
7.3129	11.3902
7.2515	15.0559
7.1912	17.5654
7.1318	16.3944
7.0734	13.2154
7.016	12.5556
6.9595	14.3952
6.9039	14.2315
6.8492	12.9893
6.7953	11.3908
6.7423	8.7959
6.6901	5.3982
6.6387	2.8169
6.5881	1.6509
6.5382	1.6793
6.4892	1.5454
6.4408	1.6644
6.3931	1.8964
6.3462	2.1511
6.2999	2.5931
6.2543	3.1709
6.2094	3.8106
6.1651	4.9042
6.1214	6.4098
6.0784	8.5697
6.0359	11.2898
5.994	14.234
5.9527	16.461
5.912	18.6798
5.8718	19.5213
5.8322	17.3078
5.7931	4.7958
5.7545	4.9621
5.7165	13.9221
5.6789	31.7557
5.6418	33.6787
5.6052	36.6887
5.5691	43.6686
5.5334	47.5324
5.4982	47.5731
5.4635	49.2328
5.4291	51.8488
5.3952	54.302
5.3618	56.1893
5.3287	56.5201
5.2961	57.1505
5.2638	58.7498
5.2319	61.3087
5.2004	62.9056
5.1693	63.6454
5.1386	63.898
5.1082	63.2722
5.0782	61.5718
5.0485	58.5125
5.0192	55.0819
4.9902	51.9132
4.9616	48.4395
4.9332	40.8653
4.9052	29.4659
4.8776	26.9315
4.8502	32.1985
4.8231	39.935
4.7963	45.1004
4.7699	46.1936
4.7437	49.0785
4.7178	50.9342
4.6922	50.692
4.6668	44.749
4.6418	42.6467
4.617	50.2648
4.5924	53.0827
4.5681	53.3755
4.5441	53.0555
4.5203	51.8164
4.4968	50.0296
4.4735	50.9341
4.4505	52.2054
4.4277	51.5572
4.4051	50.412
4.3828	48.0413
4.3607	44.2069
4.3388	39.1697
4.3171	33.634
4.2956	28.2641
4.2744	22.3906
4.2534	18.1668
4.2325	16.2361
4.2119	13.8473
4.1915	10.7511
4.1712	7.5841
4.1512	6.2297
4.1313	6.8239
4.1117	8.4678
4.0922	10.4146
4.0729	11.4597
4.0538	11.7152
4.0349	12.2932
4.0161	13.6088
3.9976	14.5715
3.9792	15.4431
3.9609	16.8315
3.9428	19.8833
3.9249	26.2846
3.9072	33.5967
3.8896	38.1733
3.8722	40.7407
3.8549	42.0681
3.8378	41.8996
3.8208	40.7546
3.804	38.9414
3.7873	36.4013
3.7708	33.0751
3.7544	29.6433
3.7382	26.8725
3.7221	24.3487
3.7061	21.122
3.6903	16.9492
3.6746	12.9706
3.659	10.5089
3.6436	10.0134
3.6283	10.7331
3.6131	10.9551
3.5981	10.6439
3.5832	10.6525
3.5684	10.7297
3.5537	11.3143
3.5391	12.272
3.5247	13.637
3.5104	15.9517
3.4962	19.3276
3.4821	23.2146
3.4681	27.1136
3.4543	30.3194
3.4405	33.3599
3.4269	36.0538
3.4133	38.5247
3.3999	40.7861
3.3866	42.8955
3.3733	44.9016
3.3602	46.857
3.3472	48.5387
3.3343	49.9737
3.3215	51.0439
3.3088	51.5222
3.2961	51.4658
3.2836	50.2683
3.2712	48.2158
3.2588	46.2398
3.2466	43.9146
3.2345	43.5887
3.2224	45.5775
3.2104	47.003
3.1985	47.1319
3.1867	46.5754
3.175	45.836
3.1634	45.1606
3.1519	44.3746
3.1404	43.5705
3.129	42.7057
3.1178	42.1587
3.1065	41.4439
3.0954	40.9272
3.0844	40.3197
3.0734	39.8807
3.0625	39.4
3.0517	38.9545
3.041	38.7348
3.0303	38.1679
3.0197	37.7924
3.0092	37.2632
2.9987	36.8351
2.9884	36.4377
2.9781	36.0252
2.9678	35.545
2.9577	35.0486
2.9476	34.8189
2.9376	34.6387
2.9276	34.45
2.9177	34.1446
2.9079	33.1711
2.8982	32.3993
2.8885	34.9133
2.8789	36.7699
2.8693	38.0032
2.8598	38.9591
2.8504	39.8567
2.841	40.798
2.8317	42.0952
2.8224	43.5536
2.8133	44.9599
2.8041	46.6037
2.7951	48.1892
2.786	50.1582
2.7771	51.3973
2.7682	53.2532
2.7594	54.4584
2.7506	56.1768
2.7418	59.317
2.7332	61.6871
2.7246	65.3874
2.716	66.7594
2.7075	68.1797
2.699	68.6795
2.6906	68.8713
2.6823	67.7697
2.674	64.4735
2.6657	60.944
2.6575	55.8504
2.6494	55.5864
2.6413	58.0161
2.6332	59.9188
2.6252	60.4558
2.6173	61.6055
2.6094	62.6708
2.6015	64.3629
2.5937	67.0288
2.5859	67.4556
2.5782	68.8653
2.5706	70.7892
2.5629	73.1324
2.5554	74.4743
2.5478	76.0161
2.5403	76.7493
2.5329	77.1962
2.5255	77.1192
2.5181	76.6959
2.5108	76.0373
2.5035	74.8813
2.4963	73.6518
2.4891	72.3346
2.482	71.6097
2.4749	71.0024
2.4678	70.4655
2.4608	70.0931
2.4538	70.618
2.4468	71.5871
2.4399	72.3189
2.4331	72.3762
2.4262	72.4796
2.4194	73.2761
2.4127	74.2125
2.4059	75.164
2.3993	76.1176
2.3926	76.9419
2.386	77.7973
2.3795	78.4722
2.3729	79.3843
2.3664	80.102
2.36	80.999
2.3535	81.6885
2.3471	82.4771
2.3408	83.2399
2.3345	83.8324
2.3282	84.5767
2.3219	85.3127
2.3157	85.679
2.3095	86.1036
2.3034	86.7266
2.2972	87.0529
2.2911	87.6443
2.2851	87.5637
2.279	87.754
2.2731	88.1112
2.2671	88.0291
2.2612	87.9824
2.2553	87.855
2.2494	87.9927
2.2435	88.2652
2.2377	88.4268
2.232	88.4488
2.2262	88.8641
2.2205	89.3953
2.2148	89.7617
2.2091	89.8914
2.2035	90.0446
2.1979	90.3408
2.1923	90.3379
2.1868	90.3223
2.1812	90.6056
2.1758	90.4819
2.1703	90.6292
2.1649	90.8834
2.1595	90.7656
2.1541	90.6119
2.1487	90.7153
2.1434	90.6748
2.1381	90.7022
2.1328	90.5545
2.1275	90.3445
2.1223	90.2106
2.1171	90.0752
2.112	89.7641
2.1068	89.7345
2.1017	89.5157
2.0966	89.0968
2.0915	88.884
2.0865	88.0248
2.0814	88.2363
2.0764	88.6632
2.0715	88.5834
2.0665	88.8406
2.0616	88.8555
2.0567	88.9416
2.0518	89.2399
2.0469	89.2474
2.0421	89.3248
2.0373	89.2818
2.0325	89.2348
2.0277	89.3376
2.0229	89.2012
2.0182	89.3161
2.0135	89.193
2.0088	89.0947
2.0042	88.8461
