Name: Tourmaline Na(Mg_3,Fe_3^2+)Al_6(BO_3)_3Si_6O_18(OH)_4
Type: Mineral
Class: Silicate
Subclass: Cyclosilicate
Particle Size: Fine
Sample No.: CS-1A
Owner: JPL
Wavelength Range: VSWIR
Origin: USA, New York, Overlook
Description: Particle size was 0-45um.Collected by Ward's Original ASTER Spectral Library name was jpl.beckman.mineral.silicate.cyclosilicate.fine.cs01a.spectrum.txt
Measurement: Hemispherical reflectance
X Units: Wavelength (micrometers)
Y Units: Reflectance (percent)
wavelength	value
0.4	6.78
0.403	6.59
0.406	6.72
0.409	6.64
0.412	6.58
0.415	6.52
0.418	6.39
0.421	6.52
0.424	6.45
0.427	6.44
0.43	6.44
0.433	6.35
0.436	6.53
0.439	6.45
0.442	6.5
0.445	6.5
0.448	6.44
0.451	6.53
0.454	6.64
0.457	6.58
0.46	6.6
0.463	6.62
0.466	6.6
0.469	6.48
0.472	6.53
0.475	6.67
0.478	6.49
0.481	6.57
0.484	6.47
0.487	6.53
0.49	6.68
0.493	6.64
0.496	6.72
0.499	6.64
0.502	6.68
0.505	6.68
0.508	6.79
0.511	6.64
0.514	6.72
0.517	6.72
0.52	6.78
0.523	6.95
0.526	6.71
0.529	6.83
0.532	6.85
0.535	6.73
0.538	6.91
0.541	6.77
0.544	6.82
0.547	6.9
0.55	6.92
0.553	7.03
0.556	6.94
0.559	6.87
0.562	6.96
0.565	6.87
0.568	6.98
0.571	7.06
0.574	7
0.577	6.97
0.58	6.92
0.583	6.86
0.586	7.07
0.589	6.88
0.592	6.94
0.595	6.75
0.598	6.76
0.601	6.88
0.604	6.82
0.607	6.71
0.61	6.56
0.613	6.52
0.616	6.58
0.619	6.45
0.622	6.32
0.625	6.23
0.628	6.16
0.631	6.16
0.634	5.99
0.637	5.89
0.64	5.82
0.643	5.81
0.646	5.76
0.649	5.77
0.652	5.67
0.655	5.59
0.658	5.41
0.661	5.53
0.664	5.37
0.667	5.34
0.67	5.29
0.673	5.23
0.676	5.32
0.679	5.29
0.682	5.18
0.685	5.17
0.688	5.19
0.691	5.24
0.694	5.19
0.697	5.13
0.7	5.14
0.703	5.11
0.706	5.12
0.709	5.12
0.712	5.05
0.715	5.35
0.718	5.2
0.721	5.23
0.724	5.18
0.727	5.11
0.73	5.3
0.733	5.24
0.736	5.29
0.739	5.19
0.742	5.16
0.745	5.34
0.748	5.36
0.751	5.22
0.754	5.4
0.757	5.35
0.76	5.45
0.763	5.45
0.766	5.46
0.769	5.5
0.772	5.67
0.775	5.64
0.778	5.72
0.781	5.73
0.784	5.96
0.787	6.06
0.79	6.12
0.793	6.2
0.796	6.19
0.799	6.24
0.808	6.82
0.82	7.06
0.832	7.53
0.844	7.89
0.856	8.3
0.868	8.45
0.88	8.69
0.892	8.82
0.904	8.83
0.916	8.63
0.928	8.63
0.94	8.41
0.952	8.13
0.964	7.87
0.976	7.57
0.988	7.38
1	7.2
1.012	6.96
1.024	6.81
1.036	6.61
1.048	6.43
1.06	6.35
1.072	6.25
1.084	6.07
1.096	6.05
1.108	6.02
1.12	5.93
1.132	5.92
1.144	5.96
1.156	5.91
1.168	5.97
1.18	6.05
1.192	6.09
1.204	6.1
1.216	6.29
1.228	6.32
1.24	6.43
1.252	6.56
1.264	6.79
1.276	6.95
1.288	7.16
1.3	7.42
1.312	7.6
1.324	7.77
1.336	7.99
1.348	8.29
1.36	8.63
1.372	8.84
1.384	9.18
1.396	9.46
1.408	9.69
1.42	10.04
1.432	10.29
1.444	10.7
1.456	11.09
1.468	11.46
1.48	11.9
1.492	12.29
1.504	12.76
1.516	13.06
1.528	13.41
1.54	13.88
1.552	14.27
1.564	14.78
1.576	15.18
1.588	15.61
1.6	16.11
1.612	16.57
1.624	17.04
1.636	17.54
1.648	17.99
1.66	18.4
1.672	18.79
1.684	19.24
1.696	19.78
1.708	20.26
1.72	20.7
1.732	21.17
1.744	21.61
1.756	22.1
1.768	22.6
1.78	23.05
1.792	23.61
1.804	24.02
1.816	24.62
1.828	25.02
1.84	25.5
1.852	25.85
1.864	26.28
1.876	26.75
1.888	27.15
1.9	27.54
1.912	27.97
1.924	28.43
1.936	28.77
1.948	29.06
1.96	29.41
1.972	29.82
1.984	30.23
1.996	30.53
2.008	31.03
2.02	31.38
2.032	31.7
2.044	32.06
2.056	32.31
2.068	32.56
2.08	32.99
2.092	33.35
2.104	33.67
2.116	33.93
2.128	34.2
2.14	34.33
2.152	34.46
2.164	34.63
2.176	34.64
2.188	34.27
2.2	33.75
2.212	33.97
2.224	34.55
2.236	34.66
2.248	35.03
2.26	35.76
2.272	36.09
2.284	36.16
2.296	36.08
2.308	36.16
2.32	36.07
2.332	35.84
2.344	35.47
2.356	35.05
2.368	35.24
2.38	36.07
2.392	36.71
2.404	37.14
2.416	37.32
2.428	37.35
2.44	37.29
2.452	37.22
2.464	37.14
2.476	37.11
2.488	37.34
2.5	37.57
