Name: Sanidine (Feldspar) (K,Na)AlSi_3O_8
Type: Mineral
Class: Silicate
Subclass: Tectosilicate
Particle Size: Fine
Sample No.: TS-14A
Owner: JPL
Wavelength Range: VSWIR
Description: Particle size was 0-45um.Collected by JPL Original ASTER Spectral Library name was jpl.beckman.mineral.silicate.tectosilicate.fine.ts14a.spectrum.txt
Measurement: Hemispherical reflectance
X Units: Wavelength (micrometers)
Y Units: Reflectance (percent)
wavelength	value
0.4	48.25
0.403	48.62
0.406	48.89
0.409	49.05
0.412	49.54
0.415	49.92
0.418	50.21
0.421	50.51
0.424	50.86
0.427	51.04
0.43	51.78
0.433	52.15
0.436	52.49
0.439	52.83
0.442	53.3
0.445	53.4
0.448	53.88
0.451	54.21
0.454	54.51
0.457	54.61
0.46	54.79
0.463	54.94
0.466	55.12
0.469	55.32
0.472	55.62
0.475	55.81
0.478	55.81
0.481	56.11
0.484	56.26
0.487	56.63
0.49	56.95
0.493	57.32
0.496	57.35
0.499	57.73
0.502	58.02
0.505	58.37
0.508	58.77
0.511	59.14
0.514	59.35
0.517	59.82
0.52	60.02
0.523	60.44
0.526	60.83
0.529	61.2
0.532	61.49
0.535	61.83
0.538	62.19
0.541	62.49
0.544	63.01
0.547	63.38
0.55	63.55
0.553	63.99
0.556	64.33
0.559	64.67
0.562	65.4
0.565	65.75
0.568	65.93
0.571	66.35
0.574	66.5
0.577	66.8
0.58	66.96
0.583	67.17
0.586	67.32
0.589	67.59
0.592	67.94
0.595	68
0.598	68.13
0.601	68.37
0.604	68.44
0.607	68.46
0.61	68.67
0.613	68.59
0.616	68.74
0.619	68.66
0.622	68.88
0.625	69.04
0.628	69.16
0.631	69.1
0.634	69.17
0.637	69.18
0.64	69.3
0.643	69.43
0.646	69.53
0.649	69.69
0.652	69.66
0.655	69.8
0.658	69.82
0.661	70.03
0.664	70.13
0.667	70.32
0.67	70.18
0.673	70.28
0.676	70.21
0.679	70.47
0.682	70.58
0.685	70.69
0.688	70.61
0.691	70.7
0.694	70.63
0.697	70.98
0.7	70.87
0.703	71.15
0.706	71.11
0.709	71.32
0.712	71.29
0.715	71.42
0.718	71.55
0.721	71.57
0.724	71.5
0.727	71.63
0.73	71.59
0.733	71.76
0.736	71.82
0.739	71.76
0.742	71.99
0.745	72.02
0.748	71.85
0.751	71.89
0.754	72.11
0.757	71.98
0.76	72.03
0.763	72.19
0.766	72.05
0.769	72.1
0.772	72.14
0.775	72.13
0.778	72.2
0.781	72.35
0.784	72.18
0.787	72.27
0.79	72.4
0.793	72.3
0.796	72.07
0.799	72.26
0.808	72.18
0.82	71.99
0.832	72.02
0.844	71.92
0.856	71.98
0.868	72
0.88	72.01
0.892	71.95
0.904	71.94
0.916	71.93
0.928	72.17
0.94	72.11
0.952	72.14
0.964	72.36
0.976	72.37
0.988	72.51
1	72.53
1.012	72.74
1.024	72.75
1.036	72.84
1.048	72.95
1.06	72.99
1.072	73.06
1.084	73.25
1.096	73.3
1.108	73.38
1.12	73.62
1.132	73.6
1.144	73.68
1.156	73.64
1.168	73.71
1.18	73.7
1.192	73.78
1.204	73.96
1.216	73.92
1.228	73.92
1.24	73.95
1.252	73.93
1.264	74.05
1.276	74.02
1.288	74.22
1.3	74.06
1.312	74.09
1.324	74.04
1.336	74.07
1.348	74.16
1.36	74.06
1.372	74.05
1.384	73.63
1.396	73.1
1.408	72.65
1.42	73.48
1.432	73.86
1.444	74.1
1.456	74.15
1.468	74.28
1.48	74.29
1.492	74.45
1.504	74.48
1.516	74.51
1.528	74.48
1.54	74.66
1.552	74.61
1.564	74.78
1.576	74.75
1.588	74.91
1.6	74.88
1.612	74.89
1.624	74.73
1.636	74.89
1.648	74.79
1.66	74.95
1.672	74.84
1.684	74.94
1.696	74.91
1.708	74.98
1.72	75.04
1.732	74.9
1.744	74.91
1.756	74.83
1.768	74.83
1.78	74.81
1.792	74.81
1.804	74.88
1.816	74.85
1.828	74.89
1.84	74.84
1.852	74.82
1.864	74.7
1.876	74.39
1.888	73.74
1.9	72.84
1.912	72.45
1.924	72.71
1.936	73.03
1.948	73.27
1.96	73.41
1.972	73.69
1.984	73.92
1.996	74.3
2.008	74.31
2.02	74.63
2.032	74.5
2.044	74.67
2.056	74.64
2.068	74.74
2.08	74.71
2.092	74.81
2.104	74.75
2.116	74.93
2.128	74.76
2.14	74.42
2.152	73.79
2.164	73.24
2.176	72.75
2.188	72.21
2.2	71.76
2.212	72.3
2.224	73.05
2.236	73.52
2.248	73.51
2.26	73.48
2.272	73.53
2.284	73.41
2.296	73.22
2.308	73.01
2.32	72.78
2.332	72.66
2.344	72.3
2.356	72.36
2.368	72.11
2.38	72.1
2.392	71.95
2.404	71.77
2.416	71.4
2.428	71.01
2.44	70.58
2.452	70.41
2.464	70.07
2.476	69.98
2.488	70.05
2.5	70.22
