Name: Marcasite FeS_2
Type: Mineral
Class: Sulfide
Subclass: None
Particle Size: Medium
Sample No.: S-10A
Owner: JPL
Wavelength Range: TIR
Origin: USA, Indiana, Jasper County, Rensselaer, Pleasant Ridge Quarry
Description: Particle size was 45-125um.Collected by Ward's Original ASTER Spectral Library name was jpl.nicolet.mineral.sulfide.none.medium.s10a.spectrum.txt
Measurement: Hemispherical reflectance
X Units: Wavelength (micrometers)
Y Units: Reflectance (percent)
wavelength	value
15.3853	19.5521
15.1161	19.3156
14.8563	19.7436
14.6052	20.1686
14.3624	20.3457
14.1276	20.2266
13.9004	20.2023
13.6803	19.8493
13.4671	19.5491
13.2604	18.8745
13.06	18.1419
12.8656	17.6717
12.6769	16.8377
12.4936	16.6945
12.3155	16.7808
12.1425	16.9547
11.9742	16.8626
11.8106	16.6211
11.6513	16.5657
11.4963	16.4904
11.3454	16.4277
11.1983	16.6046
11.0551	17.287
10.9154	18.077
10.7793	18.545
10.6465	18.6843
10.5169	18.6327
10.3904	18.1275
10.267	17.8014
10.1464	17.6088
10.0287	17.3974
9.9136	16.5761
9.8012	16.5299
9.6913	16.6754
9.5838	16.2737
9.4787	15.4331
9.3758	14.4297
9.2752	13.0424
9.1767	13.2989
9.0803	13.4009
8.9858	13.1408
8.8934	13.1656
8.8028	13.7809
8.714	14.6854
8.627	15.3234
8.5417	15.6309
8.4581	15.5151
8.3761	15.9605
8.2957	16.4405
8.2169	16.9909
8.1395	17.8375
8.0635	18.4608
7.989	18.6515
7.9158	18.8017
7.8439	18.7309
7.7734	18.6323
7.7041	18.5604
7.636	18.2951
7.5691	18.1261
7.5034	18.1375
7.4388	17.9251
7.3753	17.6984
7.3129	17.5869
7.2515	17.4125
7.1912	17.2749
7.1318	17.1663
7.0734	16.973
7.016	16.8553
6.9595	17.1021
6.9039	16.63
6.8492	16.2808
6.7953	16.2361
6.7423	15.3949
6.6901	15.5446
6.6387	16.4958
6.5881	15.8598
6.5382	15.6245
6.4892	16.5784
6.4408	15.5403
6.3931	15.293
6.3462	15.4629
6.2999	14.7402
6.2543	14.4402
6.2094	14.3401
6.1651	14.2141
6.1214	14.0463
6.0784	14.0067
6.0359	13.8721
5.994	14.0258
5.9527	14.0415
5.912	14.2519
5.8718	14.4657
5.8322	14.3304
5.7931	14.1314
5.7545	14.1662
5.7165	14.0364
5.6789	13.963
5.6418	14.1716
5.6052	13.7395
5.5691	13.8463
5.5334	13.625
5.4982	13.5569
5.4635	13.7425
5.4291	13.7289
5.3952	13.5432
5.3618	13.5436
5.3287	13.4807
5.2961	13.3913
5.2638	13.3604
5.2319	13.2812
5.2004	13.2769
5.1693	13.0422
5.1386	13.1359
5.1082	12.9956
5.0782	13.0412
5.0485	12.8933
5.0192	12.8057
4.9902	12.8076
4.9616	12.7601
4.9332	12.759
4.9052	12.732
4.8776	12.6689
4.8502	12.5741
4.8231	12.6286
4.7963	12.476
4.7699	12.4626
4.7437	12.3933
4.7178	12.3139
4.6922	12.3744
4.6668	12.2746
4.6418	12.3104
4.617	12.1965
4.5924	12.2127
4.5681	11.9955
4.5441	12.0573
4.5203	11.9707
4.4968	12.0088
4.4735	11.9689
4.4505	11.9533
4.4277	11.8704
4.4051	11.9055
4.3828	11.863
4.3607	11.7405
4.3388	11.809
4.3171	11.6793
4.2956	11.5734
4.2744	11.4232
4.2534	11.4201
4.2325	11.2814
4.2119	11.4692
4.1915	11.5197
4.1712	11.4844
4.1512	11.4079
4.1313	11.3549
4.1117	11.4576
4.0922	11.3144
4.0729	11.2112
4.0538	11.2101
4.0349	11.0258
4.0161	11.0019
3.9976	11.0258
3.9792	11.0504
3.9609	10.9489
3.9428	10.9226
3.9249	10.8438
3.9072	10.7767
3.8896	10.7864
3.8722	10.8227
3.8549	10.6088
3.8378	10.6304
3.8208	10.5665
3.804	10.5041
3.7873	10.5342
3.7708	10.4976
3.7544	10.3522
3.7382	10.3022
3.7221	10.1383
3.7061	10.1031
3.6903	10.079
3.6746	10.0233
3.659	9.7454
3.6436	9.8597
3.6283	9.593
3.6131	9.5826
3.5981	9.5865
3.5832	9.3909
3.5684	9.3021
3.5537	9.2757
3.5391	9.3036
3.5247	9.1752
3.5104	8.9662
3.4962	8.9593
3.4821	8.8132
3.4681	8.7349
3.4543	8.7071
3.4405	8.5468
3.4269	8.3692
3.4133	8.2736
3.3999	8.1235
3.3866	7.9791
3.3733	8.0258
3.3602	7.761
3.3472	7.6758
3.3343	7.4794
3.3215	7.2807
3.3088	7.185
3.2961	6.9783
3.2836	6.8945
3.2712	6.6539
3.2588	6.4387
3.2466	6.198
3.2345	6.119
3.2224	5.9742
3.2104	5.8708
3.1985	5.6033
3.1867	5.3784
3.175	5.4231
3.1634	5.4046
3.1519	5.2434
3.1404	5.2771
3.129	5.2274
3.1178	5.2954
3.1065	5.0797
3.0954	5.0342
3.0844	5.2514
3.0734	5.1609
3.0625	5.32
3.0517	5.4909
3.041	5.4804
3.0303	5.7303
3.0197	5.6321
3.0092	5.769
2.9987	5.8335
2.9884	5.9263
2.9781	5.945
2.9678	6.0591
2.9577	6.2446
2.9476	6.0909
2.9376	6.3862
2.9276	6.1809
2.9177	6.5865
2.9079	6.5291
2.8982	6.6891
2.8885	6.826
2.8789	6.9504
2.8693	7.2031
2.8598	7.4284
2.8504	7.4187
2.841	7.7169
2.8317	7.8715
2.8224	7.9758
2.8133	8.2587
2.8041	8.6221
2.7951	8.7245
2.786	9.1412
2.7771	9.2206
2.7682	9.5202
2.7594	9.6351
2.7506	9.7157
2.7418	10.0277
2.7332	10.1199
2.7246	10.4258
2.716	9.981
2.7075	10.1
2.699	10.0916
2.6906	10.153
2.6823	10.0458
2.674	10.207
2.6657	10.6738
2.6575	10.1443
2.6494	10.0586
2.6413	10.0389
2.6332	10.0757
2.6252	10.0864
2.6173	10.3354
2.6094	10.1743
2.6015	10.1319
2.5937	10.477
2.5859	10.0208
2.5782	9.7752
2.5706	10.1518
2.5629	10.3486
2.5554	9.9513
2.5478	9.9924
2.5403	9.9563
2.5329	9.7871
2.5255	9.7126
2.5181	9.9258
2.5108	9.7954
2.5035	10.0309
2.4963	9.868
2.4891	9.8928
2.482	9.7551
2.4749	9.8449
2.4678	9.8467
2.4608	9.625
2.4538	9.7734
2.4468	9.5609
2.4399	9.8325
2.4331	10.109
2.4262	9.8571
2.4194	9.9568
2.4127	9.8469
2.4059	9.6249
2.3993	9.7868
2.3926	9.7444
2.386	9.664
2.3795	9.8211
2.3729	9.8543
2.3664	9.5738
2.36	9.7614
2.3535	9.9015
2.3471	9.9138
2.3408	9.6228
2.3345	9.7752
2.3282	9.8737
2.3219	9.6887
2.3157	9.751
2.3095	9.645
2.3034	9.7307
2.2972	9.9376
2.2911	9.8754
2.2851	9.9173
2.279	10.0504
2.2731	9.7568
2.2671	9.7521
2.2612	9.7475
2.2553	9.6516
2.2494	9.7359
2.2435	9.8263
2.2377	9.7605
2.232	9.625
2.2262	9.6057
2.2205	9.8153
2.2148	9.4539
2.2091	9.7565
2.2035	9.8977
2.1979	9.718
2.1923	9.7033
2.1868	9.9295
2.1812	9.8446
2.1758	9.9371
2.1703	9.7421
2.1649	9.7881
2.1595	9.8149
2.1541	9.771
2.1487	9.7472
2.1434	9.7651
2.1381	9.9876
2.1328	9.8425
2.1275	10.0981
2.1223	9.765
2.1171	9.6828
2.112	9.9731
2.1068	9.795
2.1017	9.7554
2.0966	9.7766
2.0915	9.6255
2.0865	9.6142
2.0814	9.8203
2.0764	10.0849
2.0715	9.8613
2.0665	9.7425
2.0616	9.9445
2.0567	9.762
2.0518	9.7369
2.0469	9.8648
2.0421	9.9766
2.0373	9.9402
2.0325	9.9255
2.0277	9.5778
2.0229	9.8632
2.0182	10.1098
2.0135	9.7776
2.0088	9.7317
2.0042	10.0635
