Name: Nepheline (Na,K)AlSiO4
Type: Mineral
Class: Silicate
Subclass: Tectosilicate
Particle Size: Coarse
Sample No.: nephel_2
Owner: JHU
Wavelength Range: TIR
Origin: Brevig, Norway via Norma Vergo
Description: The hand sample was a massive chunk of unusually dark gray nepheline, weighing 15 g.  Under the microscope, the sample appeared to be almost entirely pure nepheline, although many grains showed fluid inclusions.  Particle size was 75-250  Micrometers.(Framework Silicates); (Feldspathoid Group) Original ASTER Spectral Library name was jhu.nicolet.mineral.silicate.tectosilicate.coarse.nephel2.spectrum.txt
Measurement: Bidirectional reflectance
X Units: Wavelength (micrometers)
Y Units: Reflectance (percent)
wavelength	value
25.0442	1.6245
24.3388	1.7671
23.6719	1.6777
23.0407	1.7483
22.4422	2.1846
21.8741	2.8762
21.334	4.281
20.8199	4.8025
20.33	2.8301
19.8627	1.5056
19.4163	1.9917
18.9896	2.0151
18.5812	1.1472
18.19	0.4067
17.815	0.4375
17.4551	0.5574
17.1094	0.5996
16.7772	0.7124
16.4576	0.7632
16.15	0.7944
15.8537	0.822
15.568	0.8853
15.2925	0.9499
15.0265	1.0234
14.7697	1.1904
14.5214	1.4258
14.2814	1.418
14.0492	1.1252
13.8244	0.7969
13.6067	0.5471
13.3957	0.5613
13.1912	0.6035
12.9929	0.6609
12.8004	0.7102
12.6135	0.824
12.432	0.9001
12.2557	0.9802
12.0843	1.0115
11.9176	1.0388
11.7555	1.0859
11.5977	1.1047
11.444	1.1226
11.2944	1.1902
11.1487	1.2498
11.0067	1.3328
10.8682	1.4087
10.7332	1.5457
10.6015	1.7895
10.473	2.2024
10.3476	2.8545
10.2251	3.6789
10.1056	4.1467
9.9887	4.678
9.8746	4.9797
9.763	5.0188
9.6539	4.6262
9.5472	4.9619
9.4429	4.0627
9.3408	3.2209
9.2409	2.9851
9.1431	3.5359
9.0474	3.74
8.9536	3.3796
8.8618	3.1643
8.7718	2.9385
8.6837	2.6423
8.5973	2.1934
8.5126	1.5166
8.4295	0.8137
8.3481	0.2839
8.2682	0.0789
8.1898	0.0847
8.1129	0.1084
8.0374	0.1533
7.9634	0.1985
7.8906	0.2419
7.8192	0.2944
7.7491	0.3374
7.6802	0.3867
7.6126	0.4377
7.5461	0.478
7.4807	0.5186
7.4165	0.5403
7.3534	0.5408
7.2914	0.5481
7.2303	0.5564
7.1703	0.5779
7.1113	0.6047
7.0533	0.6345
6.9962	0.679
6.94	0.7366
6.8847	0.7568
6.8302	0.7253
6.7767	0.686
6.7239	0.6802
6.672	0.7063
6.6209	0.7571
6.5705	0.8442
6.5209	0.9915
6.4721	1.134
6.424	1.2107
6.3766	1.1936
6.3299	1.1191
6.2838	1.0317
6.2385	0.9395
6.1937	0.8545
6.1496	0.7217
6.1062	0.6533
6.0633	0.6934
6.0211	0.7229
5.9794	0.7388
5.9383	0.7605
5.8978	0.7871
5.8578	0.844
5.8184	0.9307
5.7794	1.0339
5.741	1.1455
5.7031	1.2686
5.6657	1.3965
5.6288	1.5073
5.5924	1.6025
5.5564	1.7185
5.5209	1.865
5.4859	2.0549
5.4513	2.262
5.4171	2.4841
5.3833	2.7224
5.35	2.9665
5.3171	3.1628
5.2846	3.2678
5.2524	3.259
5.2207	3.0493
5.1893	2.6941
5.1584	2.4316
5.1277	2.2258
5.0975	2.2122
5.0676	2.3398
5.038	2.5303
5.0088	2.6577
4.98	2.7903
4.9514	2.7871
4.9232	2.6841
4.8953	2.5937
4.8678	2.6238
4.8405	2.7236
4.8135	2.8562
4.7868	3.0029
4.7605	3.1995
4.7344	3.4092
4.7086	3.604
4.6831	3.7976
4.6578	3.9773
4.6328	4.1145
4.6081	4.2414
4.5837	4.3718
4.5595	4.5161
4.5356	4.6724
4.5119	4.823
4.4884	4.9758
4.4652	5.124
4.4423	5.2683
4.4196	5.3884
4.3971	5.4946
4.3748	5.5793
4.3528	5.6374
4.331	5.6826
4.3094	5.719
4.288	5.7566
4.2668	5.7886
4.2458	5.821
4.2251	5.8523
4.2045	5.8852
4.1841	5.9155
4.164	5.9285
4.144	5.9419
4.1242	5.9651
4.1046	5.9812
4.0852	5.9956
4.066	6.0234
4.047	6.029
4.0281	6.0535
4.0094	6.0686
3.9909	6.0808
3.9725	6.0849
3.9544	6.0969
3.9363	6.1062
3.9185	6.1055
3.9008	6.1142
3.8833	6.1108
3.8659	6.114
3.8487	6.1023
3.8316	6.0913
3.8147	6.092
3.7979	6.0703
3.7813	6.0725
3.7648	6.0603
3.7485	6.0561
3.7323	6.0505
3.7162	6.029
3.7003	6.0134
3.6845	5.9949
3.6689	5.9682
3.6534	5.9475
3.638	5.9272
3.6227	5.8967
3.6076	5.8633
3.5926	5.8332
3.5777	5.8008
3.563	5.7607
3.5484	5.7102
3.5338	5.6684
3.5195	5.623
3.5052	5.5769
3.491	5.5259
3.477	5.4678
3.463	5.4131
3.4492	5.3459
3.4355	5.2878
3.4219	5.2121
3.4084	5.1516
3.395	5.0925
3.3817	5.0215
3.3685	4.9607
3.3554	4.8713
3.3425	4.8008
3.3296	4.7263
3.3168	4.6448
3.3041	4.5513
3.2915	4.4599
3.279	4.3686
3.2666	4.2883
3.2543	4.1999
3.2421	4.1077
3.23	4.0063
3.218	3.9106
3.206	3.8105
3.1942	3.7207
3.1824	3.6247
3.1707	3.5178
3.1591	3.4099
3.1476	3.313
3.1362	3.1992
3.1249	3.1033
3.1136	2.9756
3.1024	2.8726
3.0913	2.7393
3.0803	2.6384
3.0694	2.5569
3.0585	2.4963
3.0477	2.4451
3.037	2.4287
3.0264	2.3826
3.0158	2.3513
3.0053	2.2891
2.9949	2.2358
2.9845	2.1597
2.9743	2.0928
2.9641	2.0256
2.9539	1.9443
2.9439	1.8572
2.9339	1.7644
2.9239	1.6558
2.9141	1.5398
2.9043	1.4761
2.8946	1.4285
2.8849	1.3762
2.8753	1.2766
2.8658	1.2432
2.8563	1.2754
2.8469	1.3235
2.8375	1.3228
2.8282	1.2952
2.819	1.2673
2.8098	1.2678
2.8007	1.3098
2.7917	1.375
2.7827	1.449
2.7738	1.5051
2.7649	1.5786
2.7561	1.7541
2.7473	2.1184
2.7386	2.6633
2.7299	3.1653
2.7213	3.6145
2.7128	3.9814
2.7043	4.2949
2.6959	4.5469
2.6875	4.7339
2.6791	4.8882
2.6709	4.9753
2.6626	5.0969
2.6545	5.1726
2.6463	5.2324
2.6382	5.2717
2.6302	5.279
2.6222	5.2947
2.6143	5.29
2.6064	5.2895
2.5986	5.2739
2.5908	5.2539
2.583	5.2124
2.5753	5.1772
2.5677	5.1245
2.5601	5.0393
2.5525	4.9814
2.545	4.9392
2.5375	4.9053
2.5301	4.9011
2.5227	4.885
2.5154	4.9065
2.5081	4.9119
2.5008	4.9275
2.4936	4.9487
2.4864	4.9739
2.4793	4.9846
2.4722	5.0415
2.4651	5.0661
2.4581	5.1184
2.4511	5.1775
2.4442	5.2261
2.4373	5.2729
2.4305	5.3259
2.4236	5.3794
2.4169	5.3987
2.4101	5.4231
2.4034	5.4565
2.3967	5.4661
2.3901	5.4577
2.3835	5.4822
2.377	5.4704
2.3704	5.5039
2.364	5.4934
2.3575	5.4895
2.3511	5.4922
2.3447	5.488
2.3384	5.4863
2.3321	5.488
2.3258	5.4656
2.3195	5.4824
2.3133	5.4934
2.3071	5.4758
2.301	5.4783
2.2949	5.4851
2.2888	5.4827
2.2828	5.4704
2.2767	5.477
2.2708	5.4433
2.2648	5.477
2.2589	5.4687
2.253	5.4697
2.2471	5.4753
2.2413	5.4658
2.2355	5.4609
2.2297	5.4326
2.224	5.4814
2.2183	5.4709
2.2126	5.4475
2.207	5.4741
2.2013	5.4924
2.1957	5.4602
2.1902	5.4805
2.1846	5.5027
2.1791	5.477
2.1736	5.4973
2.1682	5.4707
2.1628	5.4675
2.1574	5.5061
2.152	5.5115
2.1466	5.5005
2.1413	5.488
2.136	5.5205
2.1308	5.5361
2.1255	5.5132
2.1203	5.5283
2.1151	5.5737
2.11	5.5442
2.1048	5.5576
2.0997	5.5508
2.0946	5.5749
2.0895	5.5954
2.0845	5.624
2.0795	5.5932
