Name: Natrolite Na_2Al_2Si_3O_10.2H_2O
Type: Mineral
Class: Silicate
Subclass: Tectosilicate
Particle Size: Coarse
Sample No.: TS-8A
Owner: JPL
Wavelength Range: VSWIR
Origin: India, Maharashtra, Poona
Description: Particle size was 125-500um.Collected by Ward's Original ASTER Spectral Library name was jpl.beckman.mineral.silicate.tectosilicate.coarse.ts08a.spectrum.txt
Measurement: Hemispherical reflectance
X Units: Wavelength (micrometers)
Y Units: Reflectance (percent)
wavelength	value
0.4	71.12
0.403	71.36
0.406	71.44
0.409	71.68
0.412	71.68
0.415	71.96
0.418	71.98
0.421	72.28
0.424	72.38
0.427	72.62
0.43	72.68
0.433	72.91
0.436	72.98
0.439	73.27
0.442	73.36
0.445	73.66
0.448	73.75
0.451	74.02
0.454	74.12
0.457	74.5
0.46	74.56
0.463	74.87
0.466	74.83
0.469	75.13
0.472	75.23
0.475	75.44
0.478	75.67
0.481	75.93
0.484	76.1
0.487	76.18
0.49	76.41
0.493	76.5
0.496	76.91
0.499	77.09
0.502	77.25
0.505	77.57
0.508	77.6
0.511	77.92
0.514	78.13
0.517	78.32
0.52	78.59
0.523	78.65
0.526	78.97
0.529	78.98
0.532	79.2
0.535	79.21
0.538	79.54
0.541	79.65
0.544	79.73
0.547	79.98
0.55	80.01
0.553	80.35
0.556	80.37
0.559	80.47
0.562	80.96
0.565	81.05
0.568	81.11
0.571	81.11
0.574	80.97
0.577	80.89
0.58	81.05
0.583	80.92
0.586	81.12
0.589	81.11
0.592	81.25
0.595	81.28
0.598	81.27
0.601	81.59
0.604	81.45
0.607	81.57
0.61	81.47
0.613	81.58
0.616	81.46
0.619	81.49
0.622	81.6
0.625	81.43
0.628	81.72
0.631	81.68
0.634	81.68
0.637	81.7
0.64	81.66
0.643	81.74
0.646	81.68
0.649	81.81
0.652	81.72
0.655	81.77
0.658	81.8
0.661	81.98
0.664	81.86
0.667	81.93
0.67	81.93
0.673	81.86
0.676	81.92
0.679	81.99
0.682	82.04
0.685	82.02
0.688	81.99
0.691	82.06
0.694	82.11
0.697	82.11
0.7	82
0.703	81.97
0.706	81.89
0.709	81.96
0.712	81.86
0.715	82.04
0.718	81.99
0.721	81.89
0.724	82.01
0.727	81.96
0.73	82.06
0.733	81.93
0.736	82.11
0.739	81.95
0.742	82.06
0.745	81.9
0.748	81.85
0.751	81.85
0.754	81.84
0.757	82.06
0.76	82.02
0.763	82.03
0.766	82.02
0.769	82.1
0.772	82.19
0.775	82.31
0.778	82.26
0.781	82.26
0.784	82.39
0.787	82.52
0.79	82.57
0.793	82.52
0.796	82.52
0.799	82.66
0.808	82.89
0.82	83.1
0.832	83.02
0.844	83.2
0.856	83.23
0.868	83.42
0.88	83.18
0.892	83.18
0.904	83.18
0.916	83.07
0.928	82.79
0.94	82.59
0.952	81.69
0.964	80.34
0.976	79.73
0.988	80.26
1	81.35
1.012	82.32
1.024	82.9
1.036	83.48
1.048	83.66
1.06	83.97
1.072	84.01
1.084	83.78
1.096	83.8
1.108	83.8
1.12	83.78
1.132	83.24
1.144	81.51
1.156	78.25
1.168	76.35
1.18	75.97
1.192	78.1
1.204	77.51
1.216	78.05
1.228	77.9
1.24	77.76
1.252	77.94
1.264	78.55
1.276	78.9
1.288	78.58
1.3	78.07
1.312	76.02
1.324	70.51
1.336	68.07
1.348	67.54
1.36	68.83
1.372	68.22
1.384	65.52
1.396	60.04
1.408	51.22
1.42	43.57
1.432	40.53
1.444	35.18
1.456	35.11
1.468	43.91
1.48	42.83
1.492	47.31
1.504	51.6
1.516	52.93
1.528	53.19
1.54	52.3
1.552	51.34
1.564	51.49
1.576	51.87
1.588	51.45
1.6	51.5
1.612	52.24
1.624	53.29
1.636	54.4
1.648	56.09
1.66	57.48
1.672	58.85
1.684	59.89
1.696	60.66
1.708	61.07
1.72	61.05
1.732	60.31
1.744	59.94
1.756	56.69
1.768	56.09
1.78	57.95
1.792	57.38
1.804	54.86
1.816	54.21
1.828	56.17
1.84	56.73
1.852	54.65
1.864	49.35
1.876	38.8
1.888	26.56
1.9	17.45
1.912	11.27
1.924	6.42
1.936	4.7
1.948	8.7
1.96	13.48
1.972	14.6
1.984	13.3
1.996	12.02
2.008	12.31
2.02	14.78
2.032	18.43
2.044	21.29
2.056	22.39
2.068	22.06
2.08	22.46
2.092	24.86
2.104	28.59
2.116	31.47
2.128	32.77
2.14	32.69
2.152	31.84
2.164	31.08
2.176	29.42
2.188	27.96
2.2	29.27
2.212	33.33
2.224	37.2
2.236	39.42
2.248	40.16
2.26	39.63
2.272	39.58
2.284	39.88
2.296	40.09
2.308	38.84
2.32	36.69
2.332	34.12
2.344	31.66
2.356	29.33
2.368	26.82
2.38	24.4
2.392	20.97
2.404	16.79
2.416	12.94
2.428	11.38
2.44	11.68
2.452	12.88
2.464	14.76
2.476	17.13
2.488	19.29
2.5	20.61
