Name: Nepheline (Na,K)AlSiO_4
Type: Mineral
Class: Silicate
Subclass: Tectosilicate
Particle Size: Coarse
Sample No.: TS-16A
Owner: JPL
Wavelength Range: VSWIR
Origin: Canada, Ontario, Hastings County, Bancroft
Description: Particle size was 125-500um.Collected by Ward's Original ASTER Spectral Library name was jpl.beckman.mineral.silicate.tectosilicate.coarse.ts16a.spectrum.txt
Measurement: Hemispherical reflectance
X Units: Wavelength (micrometers)
Y Units: Reflectance (percent)
wavelength	value
0.4	61.49
0.403	61.91
0.406	62.21
0.409	62.55
0.412	62.73
0.415	62.83
0.418	63.27
0.421	63.55
0.424	63.69
0.427	63.99
0.43	64.35
0.433	64.41
0.436	64.6
0.439	65
0.442	65.07
0.445	65.25
0.448	65.4
0.451	65.7
0.454	65.73
0.457	65.82
0.46	66.11
0.463	66.13
0.466	66.36
0.469	66.46
0.472	66.76
0.475	66.98
0.478	67.13
0.481	67.42
0.484	67.44
0.487	67.5
0.49	67.58
0.493	67.68
0.496	67.89
0.499	68.02
0.502	68.23
0.505	68.16
0.508	68.24
0.511	68.31
0.514	68.51
0.517	68.44
0.52	68.73
0.523	68.71
0.526	68.66
0.529	68.74
0.532	68.74
0.535	68.91
0.538	68.73
0.541	68.94
0.544	68.87
0.547	68.92
0.55	68.92
0.553	69.07
0.556	69.19
0.559	69.08
0.562	69.86
0.565	69.68
0.568	69.76
0.571	69.64
0.574	69.56
0.577	69.61
0.58	69.67
0.583	69.62
0.586	69.44
0.589	69.76
0.592	69.9
0.595	69.82
0.598	69.8
0.601	70.06
0.604	70
0.607	69.8
0.61	69.94
0.613	69.87
0.616	69.81
0.619	69.69
0.622	69.9
0.625	69.66
0.628	69.66
0.631	69.79
0.634	69.7
0.637	69.83
0.64	69.73
0.643	69.89
0.646	69.8
0.649	69.76
0.652	69.9
0.655	69.92
0.658	69.89
0.661	69.81
0.664	69.93
0.667	69.89
0.67	69.86
0.673	69.83
0.676	70.03
0.679	69.99
0.682	69.93
0.685	70.02
0.688	69.89
0.691	69.97
0.694	70.23
0.697	70.1
0.7	69.97
0.703	70.15
0.706	70.02
0.709	70.15
0.712	70.12
0.715	70.13
0.718	70.19
0.721	70.35
0.724	70.22
0.727	70.27
0.73	70.29
0.733	70.27
0.736	70.25
0.739	70.45
0.742	70.46
0.745	70.33
0.748	70.56
0.751	70.51
0.754	70.46
0.757	70.48
0.76	70.64
0.763	70.59
0.766	70.54
0.769	70.65
0.772	70.71
0.775	70.68
0.778	70.68
0.781	70.82
0.784	70.88
0.787	70.78
0.79	70.92
0.793	70.89
0.796	70.81
0.799	70.78
0.808	71.14
0.82	71.11
0.832	70.99
0.844	71.18
0.856	71.23
0.868	71.25
0.88	71.32
0.892	71.28
0.904	71.28
0.916	71.4
0.928	71.6
0.94	71.6
0.952	71.88
0.964	71.89
0.976	72.04
0.988	72.06
1	72.18
1.012	72.45
1.024	72.31
1.036	72.61
1.048	72.63
1.06	72.63
1.072	72.62
1.084	72.71
1.096	72.65
1.108	72.77
1.12	72.86
1.132	72.81
1.144	72.86
1.156	72.52
1.168	72.69
1.18	73
1.192	73.2
1.204	73.37
1.216	73.53
1.228	73.71
1.24	73.85
1.252	74.02
1.264	74.14
1.276	74.33
1.288	74.54
1.3	74.48
1.312	74.49
1.324	74.44
1.336	74.22
1.348	74.07
1.36	74.18
1.372	73.92
1.384	73.3
1.396	71.65
1.408	68.76
1.42	65.43
1.432	66.83
1.444	68.55
1.456	69.06
1.468	69.7
1.48	70.87
1.492	71.92
1.504	72.78
1.516	73.18
1.528	73.66
1.54	73.92
1.552	74.11
1.564	74.21
1.576	74.29
1.588	74.43
1.6	74.49
1.612	74.42
1.624	74.58
1.636	74.67
1.648	74.8
1.66	74.83
1.672	74.89
1.684	75.1
1.696	75.06
1.708	74.91
1.72	74.99
1.732	74.57
1.744	74.21
1.756	73.72
1.768	73.55
1.78	73.54
1.792	73.62
1.804	73.81
1.816	73.89
1.828	74.06
1.84	74.06
1.852	73.5
1.864	72.24
1.876	68.94
1.888	63.2
1.9	53.84
1.912	47.09
1.924	45.8
1.936	46.87
1.948	50.4
1.96	54.36
1.972	57.06
1.984	58.95
1.996	60.23
2.008	61.26
2.02	62.64
2.032	63.91
2.044	64.96
2.056	65.71
2.068	66.05
2.08	66.62
2.092	67.25
2.104	67.95
2.116	68.38
2.128	68.67
2.14	68.68
2.152	68.56
2.164	68.46
2.176	68.16
2.188	67.84
2.2	67.68
2.212	67.77
2.224	68.63
2.236	69.29
2.248	69.65
2.26	69.81
2.272	69.84
2.284	69.61
2.296	69.18
2.308	68.56
2.32	67.89
2.332	66.91
2.344	65.59
2.356	64.11
2.368	62.52
2.38	61.03
2.392	59.11
2.404	56.87
2.416	54.34
2.428	51.83
2.44	49.91
2.452	48.69
2.464	47.85
2.476	47.32
2.488	47.17
2.5	46.99
