Name: Albite (Feldspar) (K,Na)AlSi_3O_8
Type: Mineral
Class: Silicate
Subclass: Tectosilicate
Particle Size: Fine
Sample No.: TS-6A
Owner: JPL
Wavelength Range: TIR
Description: Particle size was 0-45um.Collected by JPL Original ASTER Spectral Library name was jpl.nicolet.mineral.silicate.tectosilicate.fine.ts06a.spectrum.txt
Measurement: Hemispherical reflectance
X Units: Wavelength (micrometers)
Y Units: Reflectance (percent)
wavelength	value
15.3853	3.0219
15.1161	2.5338
14.8563	2.7685
14.6052	2.9046
14.3624	3.1808
14.1276	3.2216
13.9004	2.8485
13.6803	3.0102
13.4671	2.8475
13.2604	2.8653
13.06	2.7831
12.8656	2.9284
12.6769	3.0285
12.4936	3.9321
12.3155	6.8197
12.1425	10.7188
11.9742	12.1836
11.8106	11.8451
11.6513	10.8465
11.4963	10.3521
11.3454	10.2609
11.1983	8.9773
11.0551	7.1674
10.9154	6.1765
10.7793	5.5991
10.6465	5.2172
10.5169	5.3537
10.3904	5.5134
10.267	5.6847
10.1464	6.3555
10.0287	6.8536
9.9136	7.1909
9.8012	7.0908
9.6913	6.9302
9.5838	6.4632
9.4787	5.6861
9.3758	4.5488
9.2752	4.5541
9.1767	4.5512
9.0803	4.8612
8.9858	5.0812
8.8934	5.5039
8.8028	5.705
8.714	5.9463
8.627	6.26
8.5417	6.0802
8.4581	6.6804
8.3761	6.8116
8.2957	6.6044
8.2169	4.9758
8.1395	2.9646
8.0635	1.685
7.989	1.2788
7.9158	0.9465
7.8439	0.7951
7.7734	0.9914
7.7041	1.2904
7.636	1.7089
7.5691	2.2556
7.5034	2.957
7.4388	3.5686
7.3753	4.3423
7.3129	5.2149
7.2515	5.7756
7.1912	6.5798
7.1318	7.3474
7.0734	8.2663
7.016	8.8107
6.9595	9.4739
6.9039	9.951
6.8492	10.7524
6.7953	11.3499
6.7423	11.9474
6.6901	12.5499
6.6387	13.5075
6.5881	14.0165
6.5382	14.4749
6.4892	15.4422
6.4408	15.4498
6.3931	15.3848
6.3462	15.4714
6.2999	15.0777
6.2543	15.1062
6.2094	15.4046
6.1651	15.8516
6.1214	16.4768
6.0784	16.8884
6.0359	17.3011
5.994	17.7033
5.9527	17.8192
5.912	18.0532
5.8718	18.2896
5.8322	18.7836
5.7931	18.8773
5.7545	18.991
5.7165	19.163
5.6789	19.2957
5.6418	19.8284
5.6052	20.0986
5.5691	20.5863
5.5334	21.9462
5.4982	23.4948
5.4635	25.017
5.4291	26.27
5.3952	27.6115
5.3618	28.7224
5.3287	29.6792
5.2961	30.3922
5.2638	31.0112
5.2319	31.9673
5.2004	33.2079
5.1693	34.6529
5.1386	36.1635
5.1082	37.8262
5.0782	39.5718
5.0485	41.2113
5.0192	42.7898
4.9902	44.0078
4.9616	45.1303
4.9332	46.0127
4.9052	46.5979
4.8776	47.3354
4.8502	47.98
4.8231	48.527
4.7963	48.8049
4.7699	49.3294
4.7437	49.8997
4.7178	50.7035
4.6922	51.569
4.6668	52.5947
4.6418	53.8906
4.617	55.339
4.5924	56.8088
4.5681	58.1991
4.5441	59.6491
4.5203	60.9292
4.4968	62.1795
4.4735	63.547
4.4505	64.6731
4.4277	65.6054
4.4051	66.7353
4.3828	67.7002
4.3607	68.737
4.3388	69.6272
4.3171	70.3651
4.2956	70.8892
4.2744	71.3994
4.2534	72.6766
4.2325	72.5277
4.2119	73.729
4.1915	74.5369
4.1712	74.9904
4.1512	75.1774
4.1313	75.4463
4.1117	75.5102
4.0922	75.6504
4.0729	75.6246
4.0538	75.5909
4.0349	75.1511
4.0161	74.5172
3.9976	72.9407
3.9792	71.9523
3.9609	72.6894
3.9428	74.2907
3.9249	74.9472
3.9072	75.2407
3.8896	75.342
3.8722	75.5564
3.8549	75.7281
3.8378	75.7951
3.8208	76.3275
3.804	76.7575
3.7873	76.8882
3.7708	77.0612
3.7544	76.963
3.7382	76.885
3.7221	76.9728
3.7061	76.7693
3.6903	76.6831
3.6746	76.4889
3.659	76.4702
3.6436	76.2915
3.6283	76.0269
3.6131	75.7082
3.5981	75.6038
3.5832	75.238
3.5684	74.8964
3.5537	74.6226
3.5391	74.0747
3.5247	73.2449
3.5104	71.9618
3.4962	70.9749
3.4821	70.6299
3.4681	70.8115
3.4543	70.9851
3.4405	70.5208
3.4269	69.6226
3.4133	68.8806
3.3999	68.8641
3.3866	68.7759
3.3733	68.2069
3.3602	68.3002
3.3472	68.233
3.3343	68.722
3.3215	68.7054
3.3088	68.3692
3.2961	68.1786
3.2836	67.5765
3.2712	67.2769
3.2588	66.7234
3.2466	66.2912
3.2345	65.8649
3.2224	65.3899
3.2104	64.9442
3.1985	64.428
3.1867	63.7878
3.175	63.3734
3.1634	62.8092
3.1519	62.1983
3.1404	61.6941
3.129	61.2967
3.1178	60.7906
3.1065	60.1468
3.0954	59.7282
3.0844	59.1237
3.0734	58.8287
3.0625	58.4
3.0517	58.0335
3.041	57.7015
3.0303	57.3831
3.0197	56.9339
3.0092	56.5462
2.9987	56.2766
2.9884	55.853
2.9781	55.4452
2.9678	55.356
2.9577	55.0035
2.9476	54.7461
2.9376	54.6899
2.9276	54.6375
2.9177	54.6202
2.9079	54.7164
2.8982	54.7226
2.8885	55.0208
2.8789	54.9595
2.8693	55.1199
2.8598	55.4307
2.8504	55.3194
2.841	55.4202
2.8317	55.4622
2.8224	55.4272
2.8133	55.5041
2.8041	55.5627
2.7951	54.4537
2.786	53.1657
2.7771	49.9116
2.7682	46.2408
2.7594	43.228
2.7506	44.2406
2.7418	46.5237
2.7332	49.089
2.7246	54.4381
2.716	61.0118
2.7075	67.7208
2.699	72.6795
2.6906	76.7397
2.6823	78.9046
2.674	80.1716
2.6657	81.8966
2.6575	81.1804
2.6494	81.3767
2.6413	81.6527
2.6332	81.9205
2.6252	81.9432
2.6173	82.5492
2.6094	82.0951
2.6015	82.2028
2.5937	82.998
2.5859	82.4897
2.5782	82.1824
2.5706	82.4637
2.5629	82.773
2.5554	82.2591
2.5478	82.3376
2.5403	82.2902
2.5329	82.2578
2.5255	82.3565
2.5181	82.3033
2.5108	82.2105
2.5035	82.1672
2.4963	82.1471
2.4891	82.215
2.482	82.2731
2.4749	82.1245
2.4678	82.1175
2.4608	82.1926
2.4538	82.2442
2.4468	82.0857
2.4399	82.2265
2.4331	82.2803
2.4262	82.3522
2.4194	82.5433
2.4127	82.3188
2.4059	82.5681
2.3993	82.745
2.3926	82.7744
2.386	82.695
2.3795	82.8701
2.3729	82.7534
2.3664	82.8335
2.36	82.7873
2.3535	82.6115
2.3471	82.5791
2.3408	82.708
2.3345	82.7163
2.3282	82.9776
2.3219	82.9823
2.3157	83.1854
2.3095	83.1214
2.3034	83.4095
2.2972	83.3159
2.2911	83.431
2.2851	83.569
2.279	83.7143
2.2731	83.3978
2.2671	83.5147
2.2612	83.5857
2.2553	83.5901
2.2494	83.2902
2.2435	83.5178
2.2377	83.4302
2.232	83.4154
2.2262	83.3902
2.2205	83.3116
2.2148	83.0844
2.2091	82.9526
2.2035	82.5994
2.1979	82.6197
2.1923	82.6164
2.1868	82.9324
2.1812	83.0428
2.1758	83.582
2.1703	83.6518
2.1649	83.7455
2.1595	83.7102
2.1541	83.8754
2.1487	84.1279
2.1434	84.0174
2.1381	84.0554
2.1328	84.0861
2.1275	83.9773
2.1223	84.2325
2.1171	84.144
2.112	83.8576
2.1068	84.1806
2.1017	84.1427
2.0966	84.2774
2.0915	84.52
2.0865	83.9467
2.0814	84.3965
2.0764	84.016
2.0715	84.3516
2.0665	84.3133
2.0616	84.1346
2.0567	83.9418
2.0518	84.1217
2.0469	84.0536
2.0421	83.9123
2.0373	84.3066
2.0325	83.9809
2.0277	84.3118
2.0229	84.1819
2.0182	84.2848
2.0135	83.7485
2.0088	84.0328
2.0042	84.1811
