Name: Almandine Fe3+2Al2(SiO4)3
Type: Mineral
Class: Silicate
Subclass: Nesosilicate
Particle Size: Fine
Sample No.: almandine_1
Owner: JHU
Wavelength Range: TIR
Origin: Sample from Stikine River, Fort Wrangell, Alaska, USA via theSmithsonian (sample no. NMNH 104490-7).
Description: The sample was a single deep maroon crystal about 2 cm in diameter with good crystal faces, except for one fractured edge.  Weight was 17 g.  A thin, soft, almost transparent film was buffed off crystal faces.  Microscopic examination showed contamination by about 1% opaques and 1% quartz. Particle size was less than 2 Micrometer.(Isolated Tetrahedra) (Garnet Group) Original ASTER Spectral Library name was jhu.nicolet.mineral.silicate.nesosilicate.powder.almand1.spectrum.txt
Measurement: Transmission
X Units: Wavelength (micrometers)
Y Units: Transmittance (percent)
wavelength	value
25.0442	68.5311
24.3387	65.1131
23.6719	57.3045
23.0407	45.6874
22.4422	32.7734
21.874	27.3906
21.334	27.5077
20.8199	25.9159
20.33	34.3378
19.8626	43.8397
19.4163	49.2342
18.9896	52.828
18.5812	62.8172
18.19	73.4109
17.815	50.6249
17.4551	43.2391
17.1094	51.0663
16.7772	62.9452
16.4576	74.2469
16.15	80.1287
15.8537	81.8758
15.568	81.2117
15.2925	89.2713
15.0265	92.8582
14.7697	93.9275
14.5214	92.6775
14.2814	91.5056
14.0492	90.1218
13.8244	87.4597
13.6067	85.1502
13.3957	81.7537
13.1912	78.7537
12.9929	75.0525
12.8004	70.452
12.6135	67.637
12.432	64.7034
12.2557	62.4334
12.0843	57.8734
11.9176	51.4842
11.7555	43.2894
11.5977	34.2758
11.444	25.7138
11.2944	32.1864
11.1487	26.9472
11.0067	31.58
10.8682	41.2929
10.7332	55.3993
10.6015	58.2777
10.473	34.8358
10.3476	23.9028
10.2252	32.4169
10.1056	35.9535
9.9887	37.5785
9.8746	43.7382
9.763	50.9813
9.6539	55.9608
9.5472	58.7791
9.4429	60.2694
9.3408	60.62
9.2409	61.0262
9.1431	63.2992
9.0474	67.0623
8.9536	70.6151
8.8618	73.6033
8.7718	75.055
8.6837	76.5843
8.5973	78.0955
8.5126	79.1873
8.4295	81.0984
8.3481	83.6404
8.2682	86.2061
8.1898	88.2683
8.1129	89.8601
8.0374	90.9531
7.9634	92.0007
7.8906	93.0945
7.8192	93.8945
7.7491	94.3962
7.6802	94.8779
7.6126	95.4675
7.5461	95.8069
7.4807	96.0759
7.4165	96.3748
7.3534	96.5381
7.2914	96.616
7.2303	96.1999
7.1703	96.2588
7.1113	96.3467
7.0533	96.7615
6.9962	96.6658
6.94	95.5986
6.8847	95.8369
6.8302	96.6152
6.7767	96.7097
6.7239	96.8582
6.672	97.03
6.6209	97.3008
6.5705	97.0664
6.5209	96.7998
6.4721	96.5752
6.424	96.2158
6.3766	95.9626
6.3299	95.4707
6.2838	94.7888
6.2385	93.1924
6.1937	91.1433
6.1496	90.3037
6.1062	91.3484
6.0633	91.7517
6.0211	90.5567
5.9794	90.5928
5.9383	93.364
5.8978	94.78
5.8578	95.2354
5.8184	94.9548
5.7794	94.7646
5.741	94.5828
5.7031	94.5254
5.6657	94.3435
5.6288	94.1982
5.5924	94.1064
5.5564	94.0579
5.5209	93.95
5.4859	93.9919
5.4513	94.0525
5.4171	93.9522
5.3833	93.8225
5.35	93.594
5.3171	93.5352
5.2846	93.3914
5.2524	93.3738
5.2207	93.4109
5.1893	93.3457
5.1584	93.2617
5.1277	93.2302
5.0975	93.1045
5.0676	92.9978
5.038	92.8479
5.0088	92.7517
4.98	92.6062
4.9514	92.5466
4.9232	92.4089
4.8953	92.3093
4.8678	92.2044
4.8405	92.0808
4.8135	91.9441
4.7868	91.9187
4.7605	91.7522
4.7344	91.614
4.7086	91.5095
4.6831	91.4119
4.6578	91.2537
4.6328	91.22
4.6081	91.1292
4.5837	91.0076
4.5595	90.8172
4.5356	90.7341
4.5119	90.5051
4.4884	90.5164
4.4652	90.3167
4.4423	90.2019
4.4196	90.0974
4.3971	89.9988
4.3748	89.8684
4.3528	89.8015
4.331	89.6116
4.3094	89.5393
4.288	89.3694
4.2668	89.2366
4.2458	89.1819
4.2251	89.0691
4.2045	88.9422
4.1841	88.8875
4.164	88.7659
4.144	88.7073
4.1242	88.553
4.1046	88.4944
4.0852	88.2893
4.066	88.155
4.047	88.1853
4.0281	88.1218
4.0094	87.9607
3.9909	87.7737
3.9725	87.6775
3.9544	87.5725
3.9363	87.512
3.9185	87.4549
3.9008	87.3386
3.8833	87.1228
3.8659	87.0628
3.8487	86.9431
3.8316	86.8142
3.8147	86.8006
3.7979	86.6819
3.7813	86.5276
3.7648	86.4353
3.7485	86.3308
3.7323	86.2498
3.7162	86.1233
3.7003	85.992
3.6845	85.8968
3.6689	85.7757
3.6534	85.6599
3.638	85.6209
3.6227	85.4534
3.6076	85.3553
3.5926	85.2459
3.5777	85.2342
3.563	85.0979
3.5484	85.031
3.5338	84.8557
3.5195	84.7737
3.5052	84.4168
3.491	84.7283
3.477	84.5843
3.463	84.5291
3.4492	84.4475
3.4355	84.1292
3.4219	83.5681
3.4084	83.5511
3.395	83.6936
3.3817	83.4568
3.3685	83.4573
3.3554	83.2132
3.3425	83.0515
3.3296	83.012
3.3168	82.867
3.3041	82.7947
3.2915	82.658
3.279	82.4886
3.2666	82.4353
3.2543	82.1834
3.2421	82.1097
3.23	81.9041
3.218	81.5994
3.206	81.4734
3.1942	81.2879
3.1824	81.1375
3.1707	81.0017
3.1591	80.7547
3.1476	80.4949
3.1362	80.0672
3.1249	79.6375
3.1136	79.5457
3.1024	79.6844
3.0913	79.5994
3.0803	79.3348
3.0694	79.1238
3.0585	79.116
3.0477	79.1033
3.037	78.9002
3.0264	78.4119
3.0158	78.0398
3.0053	77.3416
2.9949	76.907
2.9845	76.5096
2.9743	75.8289
2.9641	74.907
2.9539	74.1131
2.9439	73.4647
2.9339	72.8055
2.9239	72.3553
2.9141	72.242
2.9043	72.3885
2.8946	72.5877
2.8849	73.2068
2.8753	73.5281
2.8658	73.8719
2.8563	74.3992
2.8469	75.1141
2.8375	75.3445
2.8282	75.5398
2.819	75.7938
2.8098	75.8602
2.8007	76.201
2.7917	76.5525
2.7827	76.8836
2.7738	77.1697
2.7649	77.4881
2.7561	77.7732
2.7473	77.9891
2.7386	78.2039
2.7299	78.3943
2.7213	78.3865
2.7128	78.3045
2.7043	78.3728
2.6959	78.4178
2.6875	78.4852
2.6791	78.2547
2.6709	78.3162
2.6626	78.1521
2.6545	78.0828
2.6463	77.9617
2.6382	77.9725
2.6302	77.8719
2.6222	77.699
2.6143	77.7625
2.6064	77.5906
2.5986	77.4578
2.5908	77.5838
2.583	77.617
2.5753	77.4881
2.5677	77.3006
2.5601	77.1561
2.5525	77.0623
2.545	76.9744
2.5375	77.0486
2.5301	77.0408
2.5227	76.9353
2.5154	76.8631
2.5081	76.8475
2.5008	76.6287
2.4936	76.8064
2.4864	76.6248
2.4793	76.5623
2.4722	76.4393
2.4651	76.4178
2.4581	76.449
2.4511	76.2068
2.4442	76.0506
2.4373	76.0799
2.4305	76.1971
2.4236	76.1893
2.4169	75.9959
2.4101	76.2303
2.4034	75.8865
2.3967	75.8709
2.3901	75.9842
2.3835	75.658
2.377	75.4607
2.3704	75.5467
2.364	75.3143
2.3575	75.3377
2.3511	75.6365
2.3447	75.4217
2.3384	75.3514
2.3321	75.1502
2.3258	75.1639
2.3195	75.1717
2.3133	74.7147
2.3071	75.2439
2.301	75.0018
2.2949	74.9627
2.2888	74.9783
2.2828	74.6814
2.2767	74.6014
2.2708	74.7732
2.2648	74.7049
2.2589	74.6482
2.253	74.6795
2.2471	74.4451
2.2413	74.5955
2.2355	74.2654
2.2297	74.2654
2.224	74.2967
2.2183	74.2596
2.2126	74.0486
2.207	74.1248
2.2013	74.0467
2.1957	74.1053
2.1902	74.0193
2.1846	73.8514
2.1791	73.7068
2.1736	73.6756
2.1682	73.7537
2.1628	73.785
2.1574	73.9178
2.152	73.4256
2.1466	73.4568
2.1413	73.3553
2.136	73.2342
2.1308	73.4881
2.1255	73.0467
2.1203	73.2225
2.1151	73.1795
2.11	73.0936
2.1048	73.3201
2.0997	73.2889
2.0946	73.1873
2.0895	72.9217
2.0845	72.9959
2.0795	72.9373
