Name: Chlorite
Type: Mineral
Class: Silicate
Subclass: Phyllosilicate
Particle Size: Fine
Sample No.: PS-12E
Owner: JPL
Wavelength Range: VSWIR
Origin: USA, Vermont.
Description: Particle size was 0-45um.Collected by:  Ward's Original ASTER Spectral Library name was jpl.perkin.mineral.silicate.phyllosilicate.fine.ps12e.spectrum.txt
Measurement: Hemispherical reflectance
X Units: Wavelength (micrometers)
Y Units: Reflectance (percent)
wavelength	value
2.5	35.2921
2.494	35.1892
2.488	35.3967
2.482	35.3657
2.476	35.3914
2.47	35.5713
2.464	35.9633
2.458	36.3046
2.452	36.551
2.446	36.9725
2.44	37.3034
2.434	37.4649
2.428	37.6516
2.422	37.8704
2.416	37.9012
2.41	37.9091
2.404	37.7253
2.398	37.5472
2.392	37.3947
2.386	37.2672
2.38	37.1336
2.374	36.9888
2.368	36.6435
2.362	36.0781
2.356	35.6084
2.35	34.9785
2.344	34.5388
2.338	34.1981
2.332	34.1425
2.326	34.224
2.32	34.5038
2.314	34.8647
2.308	35.2851
2.302	35.4812
2.296	35.7898
2.29	36.0901
2.284	36.7693
2.278	37.4143
2.272	37.841
2.266	37.9492
2.26	37.7866
2.254	37.5763
2.248	37.4771
2.242	38.1153
2.236	39.1001
2.23	40.1104
2.224	40.8891
2.218	41.384
2.212	41.865
2.206	41.9978
2.2	42.2245
2.194	42.3818
2.188	42.5064
2.182	42.7238
2.176	42.91
2.17	43.0446
2.164	43.0498
2.158	43.2362
2.152	43.3753
2.146	43.4074
2.14	43.4214
2.134	43.3124
2.128	43.2675
2.122	43.101
2.116	42.9522
2.11	42.8516
2.104	42.7487
2.098	42.7095
2.092	42.7572
2.086	42.8164
2.08	42.8334
2.074	42.8345
2.068	42.8466
2.062	42.8746
2.056	42.8094
2.05	42.7997
2.044	42.701
2.038	42.5503
2.032	42.5012
2.026	42.3081
2.02	42.0865
2.014	41.9827
2.008	41.8084
2.002	41.7008
1.996	41.6586
1.99	41.5935
1.984	41.5577
1.978	41.6259
1.972	41.7196
1.966	41.7666
1.96	41.8347
1.954	41.8728
1.948	41.8395
1.942	41.9792
1.936	42.0815
1.93	42.1228
1.924	42.2018
1.918	42.1681
1.912	42.2709
1.906	42.2432
1.9	42.2581
1.894	42.3191
1.888	42.2535
1.882	42.1979
1.876	42.1862
1.87	42.2834
1.864	42.2903
1.858	42.3725
1.852	42.4396
1.846	42.4774
1.84	42.5197
1.834	42.4998
1.828	42.4889
1.822	42.4976
1.816	42.4658
1.81	42.4806
1.804	42.4394
1.798	42.4181
1.792	42.369
1.786	42.3463
1.78	42.3034
1.774	42.2193
1.768	42.1629
1.762	42.125
1.756	42.095
1.75	41.9727
1.744	42.0417
1.738	41.9998
1.732	41.8511
1.726	41.8029
1.72	41.8245
1.714	41.7077
1.708	41.5795
1.702	41.4387
1.696	41.4181
1.69	41.3508
1.684	41.26
1.678	41.2003
1.672	41.0666
1.666	41.0514
1.66	40.8959
1.654	40.7963
1.648	40.7549
1.642	40.6174
1.636	40.4959
1.63	40.4366
1.624	40.3108
1.618	40.1809
1.612	39.9921
1.606	39.9014
1.6	39.6916
1.594	39.6099
1.588	39.4676
1.582	39.3546
1.576	39.1582
1.57	39.0133
1.564	38.857
1.558	38.7755
1.552	38.6121
1.546	38.4862
1.54	38.3864
1.534	38.266
1.528	38.1121
1.522	38.0377
1.516	37.8999
1.51	37.8812
1.504	37.8377
1.498	37.6828
1.492	37.6084
1.486	37.4525
1.48	37.2451
1.474	37.1072
1.468	36.8881
1.462	36.6799
1.456	36.4809
1.45	36.283
1.444	36.1063
1.438	35.987
1.432	35.9083
1.426	35.8608
1.42	35.6223
1.414	35.1559
1.408	34.9229
1.402	34.7745
1.396	33.9758
1.39	33.8328
1.384	35.0359
1.378	35.0389
1.372	34.8837
1.366	34.6405
1.36	34.4518
1.354	34.3112
1.348	34.0663
1.342	33.8526
1.336	33.6228
1.33	33.3943
1.324	33.2283
1.318	32.9433
1.312	32.7426
1.306	32.5374
1.3	32.3013
1.294	32.1199
1.288	31.8896
1.282	31.6384
1.276	31.4116
1.27	31.1643
1.264	30.9097
1.258	30.6822
1.252	30.5037
1.246	30.2521
1.24	30.0072
1.234	29.7434
1.228	29.5094
1.222	29.2297
1.216	29.0596
1.21	28.8127
1.204	28.5683
1.198	28.4426
1.192	28.1778
1.186	27.9751
1.18	27.7403
1.174	27.5568
1.168	27.4264
1.162	27.2188
1.156	27.1581
1.15	26.9062
1.144	26.783
1.138	26.7179
1.132	26.6063
1.126	26.437
1.12	26.3703
1.114	26.3642
1.108	26.2742
1.102	26.1978
1.096	25.9916
1.09	26.0075
1.084	25.9753
1.078	25.9678
1.072	25.939
1.066	25.9324
1.06	25.8794
1.054	25.8607
1.048	25.8655
1.042	25.8087
1.036	25.7736
1.03	25.649
1.024	25.6493
1.018	25.635
1.012	25.5464
1.006	25.465
1	25.5215
0.994	25.3049
0.988	25.1721
0.982	25.0591
0.976	24.8625
0.97	24.7307
0.964	24.58
0.958	24.4492
0.952	24.2568
0.946	24.0429
0.94	23.9282
0.934	23.6927
0.928	23.5016
0.922	23.4465
0.916	23.3304
0.91	23.1801
0.904	23.1701
0.898	23.1296
0.892	23.0764
0.886	23.1369
0.88	23.1279
0.874	23.2516
0.868	23.368
0.862	23.4011
0.856	23.759
0.85	23.9364
0.844	24.0907
0.838	24.2174
0.832	24.3616
0.826	24.4954
0.82	24.5979
0.814	24.6635
0.808	24.6785
0.802	24.6371
0.796	24.5408
0.79	24.3801
0.784	24.2011
0.778	23.9587
0.772	23.662
0.766	23.3907
0.76	23.0893
0.754	22.8118
0.748	22.5425
0.742	22.3171
0.736	22.1023
0.73	21.9457
0.724	21.8153
0.718	21.7358
0.712	21.6927
0.706	21.7024
0.7	21.7616
0.694	21.8639
0.688	21.9985
0.682	22.1864
0.676	22.3929
0.67	22.6507
0.664	22.9173
0.658	23.2217
0.652	23.5322
0.646	23.8736
0.64	24.2302
0.634	24.5847
0.628	24.9631
0.622	25.3419
0.616	25.7266
0.61	26.1027
0.604	26.4781
0.598	26.8726
0.592	27.2526
0.586	27.6116
0.58	27.9409
0.574	28.2547
0.568	28.5317
0.562	28.7748
0.556	28.9574
0.55	29.1037
0.544	29.2012
0.538	29.2732
0.532	29.379
0.526	29.503
0.52	29.6143
0.514	29.6083
0.508	29.4561
0.502	29.155
0.496	28.6724
0.49	28.6992
0.484	28.3442
0.478	27.7511
0.472	26.9492
0.466	26.2822
0.46	25.761
0.454	25.3333
0.448	25.3433
0.442	25.3724
0.436	24.8751
0.43	24.3698
0.424	23.7903
0.418	22.9943
0.412	22.3677
0.406	21.9898
0.4	21.8812
