Name: Kernite Na_2B_4O_6(OH)_2.3H_2O
Type: Mineral
Class: Borate
Subclass: None
Particle Size: Medium
Sample No.: B-2A
Owner: JPL
Wavelength Range: VSWIR
Origin: USA, California, Kern County, Boron
Description: Particle size was 45-125um.Collected by JPL Original ASTER Spectral Library name was jpl.beckman.mineral.borate.none.medium.b02.spectrum.txt
Measurement: Hemispherical reflectance
X Units: Wavelength (micrometers)
Y Units: Reflectance (percent)
wavelength	value
0.4	88.65
0.403	88.99
0.406	88.82
0.409	89.57
0.412	89.34
0.415	89.91
0.418	89.8
0.421	89.97
0.424	89.8
0.427	90.03
0.43	90.25
0.433	90.13
0.436	90.48
0.439	90.42
0.442	90.65
0.445	90.59
0.448	91.29
0.451	90.71
0.454	91.35
0.457	91.3
0.46	91.35
0.463	91.59
0.466	91.71
0.469	91.43
0.472	91.72
0.475	91.38
0.478	91.91
0.481	91.68
0.484	92.04
0.487	92.21
0.49	92.11
0.493	91.94
0.496	92.45
0.499	92.4
0.502	92.4
0.505	92.75
0.508	92.35
0.511	92.75
0.514	92.58
0.517	92.86
0.52	92.63
0.523	92.98
0.526	92.98
0.529	92.98
0.532	92.98
0.535	93.44
0.538	93.38
0.541	93.38
0.544	93.38
0.547	93.09
0.55	93.27
0.553	93.15
0.556	93.38
0.559	93.78
0.562	93.5
0.565	93.78
0.568	93.78
0.571	93.56
0.574	93.56
0.577	93.72
0.58	93.78
0.583	93.38
0.586	93.6
0.589	93.33
0.592	93.83
0.595	93.33
0.598	93.89
0.601	93.56
0.604	94.3
0.607	94.12
0.61	94.35
0.613	94.18
0.616	94.3
0.619	94.41
0.622	94.18
0.625	94.41
0.628	94.3
0.631	94.35
0.634	94.06
0.637	94.35
0.64	94.3
0.643	94.58
0.646	94.41
0.649	94.58
0.652	94.35
0.655	94.76
0.658	94.24
0.661	94.64
0.664	94.47
0.667	94.7
0.67	94.7
0.673	94.76
0.676	94.41
0.679	94.76
0.682	94.64
0.685	94.64
0.688	94.47
0.691	94.7
0.694	94.99
0.697	94.64
0.7	94.7
0.703	94.53
0.706	94.93
0.709	94.64
0.712	94.76
0.715	94.47
0.718	94.76
0.721	94.3
0.724	94.81
0.727	94.58
0.73	94.7
0.733	94.47
0.736	94.58
0.739	94.47
0.742	94.47
0.745	94.18
0.748	94.3
0.751	94.24
0.754	94.18
0.757	94.06
0.76	94.24
0.763	94.12
0.766	94.24
0.769	94.3
0.772	94.47
0.775	94.7
0.778	94.35
0.781	94.53
0.784	94.24
0.787	94.58
0.79	94.06
0.793	94.7
0.796	94.18
0.799	93.6
0.808	93.56
0.82	93.33
0.832	93.56
0.844	93.5
0.856	93.56
0.868	93.5
0.88	93.44
0.892	93.33
0.904	93.27
0.916	93.44
0.928	93.33
0.94	93.33
0.952	93.15
0.964	92.58
0.976	90.74
0.988	90.45
1	91.84
1.012	92.29
1.024	92.46
1.036	92.63
1.048	92.75
1.06	92.75
1.072	92.75
1.084	92.81
1.096	92.81
1.108	92.69
1.12	92.75
1.132	92.69
1.144	92.29
1.156	91.88
1.168	91.16
1.18	90.35
1.192	89.64
1.204	89.05
1.216	88.65
1.228	88.19
1.24	87.62
1.252	86.88
1.264	87.25
1.276	87.98
1.288	88.07
1.3	87.64
1.312	86.88
1.324	87.03
1.336	86.9
1.348	86.42
1.36	86.07
1.372	85.22
1.384	84.47
1.396	82.59
1.408	78.49
1.42	71.02
1.432	60.29
1.444	60.2
1.456	64.32
1.468	63.29
1.48	61.8
1.492	61.06
1.504	61.35
1.516	62.2
1.528	62.89
1.54	62.77
1.552	62.71
1.564	62.71
1.576	62.94
1.588	63.46
1.6	63.91
1.612	64.65
1.624	65.43
1.636	65.99
1.648	66.48
1.66	66.81
1.672	66.8
1.684	66.66
1.696	66.48
1.708	66.18
1.72	65.79
1.732	65.33
1.744	64.76
1.756	64.19
1.768	63.5
1.78	62.99
1.792	63.04
1.804	63.48
1.816	63.93
1.828	64.28
1.84	64.5
1.852	64.16
1.864	63.4
1.876	61.68
1.888	58.83
1.9	55.01
1.912	51.08
1.924	47.27
1.936	43.22
1.948	39.53
1.96	37.17
1.972	36.18
1.984	36.22
1.996	36.81
2.008	37.76
2.02	38.84
2.032	39.31
2.044	39.81
2.056	41.41
2.068	43.49
2.08	45
2.092	45.89
2.104	46.73
2.116	47.17
2.128	46.91
2.14	46.28
2.152	45.06
2.164	42.07
2.176	37.41
2.188	35.61
2.2	38.4
2.212	42.13
2.224	44.92
2.236	46.87
2.248	48.03
2.26	48.77
2.272	49.49
2.284	50.55
2.296	51.86
2.308	52.39
2.32	51.93
2.332	50.8
2.344	49.3
2.356	47.69
2.368	45.52
2.38	43.07
2.392	40.91
2.404	39.41
2.416	38.35
2.428	37.62
2.44	37.23
2.452	37
2.464	36.77
2.476	36.59
2.488	36.53
2.5	36.4
