Name: Cookeite LiAl_4(Si_3Al)O_10(OH)_8
Type: Mineral
Class: Silicate
Subclass: Phyllosilicate
Particle Size: Medium
Sample No.: PS-9A
Owner: JPL
Wavelength Range: TIR
Origin: USA, Arkansas, Pulaski County
Description: Particle size was 45-125um.Collected by JPL Original ASTER Spectral Library name was jpl.nicolet.mineral.silicate.phyllosilicate.medium.ps09a.spectrum.txt
Measurement: Hemispherical reflectance
X Units: Wavelength (micrometers)
Y Units: Reflectance (percent)
wavelength	value
15.3853	4.8014
15.1161	4.3199
14.8563	3.9109
14.6052	4.0356
14.3624	3.6809
14.1276	3.6797
13.9004	4.2951
13.6803	4.4803
13.4671	3.6776
13.2604	3.2571
13.06	2.9331
12.8656	3.2667
12.6769	3.584
12.4936	3.6592
12.3155	2.8291
12.1425	2.8497
11.9742	3.2453
11.8106	4.237
11.6513	5.3698
11.4963	6.3481
11.3454	7.4
11.1983	7.6601
11.0551	8.1998
10.9154	8.4559
10.7793	8.1793
10.6465	8.8796
10.5169	8.8674
10.3904	10.0406
10.267	12.2873
10.1464	13.6951
10.0287	15.6192
9.9136	19.881
9.8012	21.306
9.6913	22.1736
9.5838	21.6168
9.4787	25.6937
9.3758	30.293
9.2752	30.6254
9.1767	30.1522
9.0803	28.4737
8.9858	21.7425
8.8934	21.0826
8.8028	16.6583
8.714	12.0511
8.627	7.7482
8.5417	7.5598
8.4581	6.5284
8.3761	6.0372
8.2957	5.5376
8.2169	5.5736
8.1395	4.5814
8.0635	3.2662
7.989	2.516
7.9158	2.2614
7.8439	2.1738
7.7734	2.3538
7.7041	2.6479
7.636	2.9053
7.5691	3.2714
7.5034	3.6176
7.4388	3.8604
7.3753	4.2384
7.3129	4.6311
7.2515	4.9164
7.1912	5.2485
7.1318	5.5422
7.0734	5.9462
7.016	6.1653
6.9595	6.6481
6.9039	6.8695
6.8492	7.0988
6.7953	7.5259
6.7423	7.6808
6.6901	7.809
6.6387	8.2606
6.5881	8.389
6.5382	8.4216
6.4892	9.0602
6.4408	9.516
6.3931	9.5942
6.3462	9.5038
6.2999	9.252
6.2543	9.1506
6.2094	9.0299
6.1651	9.1128
6.1214	9.5043
6.0784	9.686
6.0359	9.7004
5.994	9.6481
5.9527	9.4813
5.912	9.8712
5.8718	10.4082
5.8322	10.9561
5.7931	11.3147
5.7545	11.7878
5.7165	12.0205
5.6789	11.8986
5.6418	11.5793
5.6052	10.9942
5.5691	10.8484
5.5334	10.8993
5.4982	11.1614
5.4635	11.3397
5.4291	11.4599
5.3952	10.8691
5.3618	10.6349
5.3287	10.7665
5.2961	11.3885
5.2638	11.9816
5.2319	12.9742
5.2004	13.9851
5.1693	14.5636
5.1386	14.9706
5.1082	15.397
5.0782	15.4288
5.0485	15.7143
5.0192	15.7753
4.9902	15.9762
4.9616	16.6336
4.9332	16.9508
4.9052	17.6389
4.8776	18.5446
4.8502	19.0003
4.8231	19.2776
4.7963	19.5767
4.7699	19.7138
4.7437	20.021
4.7178	20.5588
4.6922	20.8182
4.6668	21.5371
4.6418	22.4466
4.617	23.4694
4.5924	24.3133
4.5681	25.1471
4.5441	26.0539
4.5203	26.6996
4.4968	27.485
4.4735	28.5731
4.4505	29.6773
4.4277	30.8166
4.4051	32.4619
4.3828	34.3515
4.3607	35.818
4.3388	36.6757
4.3171	37.335
4.2956	37.6505
4.2744	37.8347
4.2534	38.5568
4.2325	38.7454
4.2119	39.3005
4.1915	39.5335
4.1712	39.8996
4.1512	40.1852
4.1313	40.4274
4.1117	40.6848
4.0922	40.7792
4.0729	40.8906
4.0538	40.8991
4.0349	40.8919
4.0161	40.8612
3.9976	40.895
3.9792	41.0228
3.9609	41.0987
3.9428	41.1059
3.9249	41.0199
3.9072	41.0435
3.8896	40.7383
3.8722	40.582
3.8549	40.461
3.8378	40.3899
3.8208	40.2083
3.804	40.0602
3.7873	39.8331
3.7708	39.5547
3.7544	39.3849
3.7382	38.9226
3.7221	38.4783
3.7061	38.0315
3.6903	37.8634
3.6746	37.6059
3.659	37.4858
3.6436	37.2023
3.6283	36.911
3.6131	36.7438
3.5981	36.5882
3.5832	36.3081
3.5684	36.0825
3.5537	35.7608
3.5391	35.2859
3.5247	34.8882
3.5104	34.2823
3.4962	33.847
3.4821	33.6362
3.4681	33.1991
3.4543	32.6769
3.4405	32.0898
3.4269	31.5603
3.4133	31.0959
3.3999	30.5569
3.3866	30.1837
3.3733	29.6375
3.3602	29.3283
3.3472	28.6297
3.3343	28.0261
3.3215	27.2382
3.3088	26.6035
3.2961	25.7875
3.2836	25.0538
3.2712	24.3593
3.2588	23.8616
3.2466	23.1137
3.2345	22.3676
3.2224	21.7436
3.2104	21.0602
3.1985	20.48
3.1867	19.6219
3.175	18.8466
3.1634	17.9058
3.1519	17.0721
3.1404	16.0319
3.129	15.0468
3.1178	14.026
3.1065	13.2794
3.0954	12.2749
3.0844	11.6003
3.0734	10.8468
3.0625	10.1438
3.0517	9.8659
3.041	9.2139
3.0303	8.8284
3.0197	8.4784
3.0092	8.1678
2.9987	8.1162
2.9884	8.0928
2.9781	8.3934
2.9678	8.8458
2.9577	9.2982
2.9476	10.192
2.9376	10.8917
2.9276	11.2151
2.9177	10.8074
2.9079	10.1726
2.8982	9.523
2.8885	8.918
2.8789	8.6166
2.8693	8.3539
2.8598	8.0996
2.8504	7.9898
2.841	7.9796
2.8317	7.9536
2.8224	8.2359
2.8133	8.5731
2.8041	8.9365
2.7951	8.855
2.786	8.8269
2.7771	8.5486
2.7682	7.7276
2.7594	6.2896
2.7506	5.8427
2.7418	5.4297
2.7332	5.1854
2.7246	5.3731
2.716	6.155
2.7075	7.6739
2.699	11.512
2.6906	19.5858
2.6823	24.4232
2.674	27.2623
2.6657	29.3294
2.6575	30.5051
2.6494	31.5969
2.6413	32.3491
2.6332	32.4341
2.6252	32.834
2.6173	32.8968
2.6094	33.3688
2.6015	33.6637
2.5937	34.5068
2.5859	35.2887
2.5782	35.8281
2.5706	36.6003
2.5629	36.8895
2.5554	37.2447
2.5478	37.519
2.5403	37.9464
2.5329	38.0873
2.5255	38.6416
2.5181	38.221
2.5108	38.4088
2.5035	38.2654
2.4963	38.3209
2.4891	38.3891
2.482	38.7711
2.4749	39.4456
2.4678	39.4792
2.4608	39.5465
2.4538	39.1676
2.4468	39.0889
2.4399	39.246
2.4331	39.5545
2.4262	40.2721
2.4194	40.5279
2.4127	40.7042
2.4059	40.5259
2.3993	40.0806
2.3926	39.6749
2.386	38.9239
2.3795	37.7498
2.3729	36.6695
2.3664	35.7063
2.36	35.3132
2.3535	36.2848
2.3471	37.9731
2.3408	39.3989
2.3345	40.9823
2.3282	41.9876
2.3219	42.9301
2.3157	44.1879
2.3095	45.121
2.3034	46.3421
2.2972	47.3573
2.2911	48.091
2.2851	48.2685
2.279	48.3903
2.2731	48.0864
2.2671	47.5765
2.2612	46.6509
2.2553	46.1667
2.2494	45.9072
2.2435	45.8825
2.2377	45.8492
2.232	45.7105
2.2262	44.6053
2.2205	42.7262
2.2148	41.4247
2.2091	41.2293
2.2035	43.0038
2.1979	42.6947
2.1923	42.1728
2.1868	41.7593
2.1812	41.4776
2.1758	42.3571
2.1703	43.8851
2.1649	45.883
2.1595	48.8879
2.1541	52.3628
2.1487	54.8019
2.1434	56.5867
2.1381	57.3613
2.1328	57.8817
2.1275	58.2125
2.1223	58.3516
2.1171	58.5479
2.112	58.4685
2.1068	58.8053
2.1017	58.6169
2.0966	58.8511
2.0915	58.7125
2.0865	58.9889
2.0814	58.8785
2.0764	59.4425
2.0715	58.9451
2.0665	58.7487
2.0616	59.039
2.0567	59.0089
2.0518	58.2817
2.0469	58.2522
2.0421	58.096
2.0373	57.9022
2.0325	57.8443
2.0277	57.6747
2.0229	57.5243
2.0182	58.0409
2.0135	57.7074
2.0088	58.1013
2.0042	58.0299
