Name: Inderite MgB3O3(OH)5 * 5H2O
Type: Mineral
Class: Borate
Subclass: None
Particle Size: Coarse
Sample No.: NMNH137833
Owner: Smithsonian Institute, National Museum of Nat. History
Wavelength Range: All
Origin: Kern County, CA
Description: Inderite from Kern County, CASample was Unsieved coarse powder. Original ASTER Spectral Library name was usgs.perknic.mineral.borate.none.coarse.inderic.spectrum.txt
Measurement: Directional Hemispherical Reflectance
X Units: Wavelength (micrometers)
Y Units: Reflectance (percent)
wavelength	value
13.9	2.729
13.644	2.729
13.398	3.162
13.16	2.173
12.93	2.719
12.708	3.08
12.494	3.595
12.287	2.441
12.086	2.781
11.892	3.069
11.704	3.677
11.522	4.007
11.346	4.161
11.175	4.223
11.009	4.058
10.848	3.286
10.691	2.997
10.539	3.162
10.391	3.44
10.247	3.832
10.108	4.264
9.972	4.13
9.839	4.038
9.71	3.471
9.585	4.316
9.462	4.697
9.343	3.43
9.226	2.06
9.113	1.555
9.002	1.37
8.894	1.648
8.789	2.194
8.686	2.163
8.585	1.617
8.487	1.566
8.391	1.463
8.297	1.154
8.205	1.154
8.115	1.267
8.027	1.401
7.941	1.555
7.857	1.7
7.774	1.597
7.694	1.38
7.614	1.617
7.537	1.936
7.461	2.338
7.387	2.647
7.314	2.287
7.242	1.833
7.172	2.266
7.103	2.441
7.036	1.535
6.97	0.968
6.905	1.143
6.841	0.865
6.778	0.875
6.717	1.081
6.657	1.318
6.597	1.504
6.539	1.658
6.482	1.679
6.426	1.73
6.37	1.761
6.316	1.895
6.263	1.988
6.21	2.07
6.159	1.967
6.108	1.772
6.058	1.473
6.009	1.391
5.96	1.421
5.913	1.339
5.866	1.226
5.82	1.112
5.775	1.174
5.73	1.452
5.686	2.009
5.643	2.359
5.6	2.647
5.558	2.905
5.517	3.131
5.476	3.327
5.436	3.492
5.396	3.76
5.357	3.935
5.319	4.038
5.281	4.171
5.243	4.347
5.206	4.408
5.17	4.46
5.134	4.542
5.099	4.563
5.064	4.573
5.03	4.563
4.996	4.553
4.962	4.594
4.929	4.614
4.897	4.604
4.865	4.532
4.833	4.553
4.802	4.553
4.771	4.522
4.74	4.635
4.71	4.573
4.68	4.481
4.651	4.419
4.622	4.439
4.593	4.45
4.565	4.347
4.537	4.316
4.509	4.274
4.482	4.182
4.455	4.161
4.428	4.11
4.402	4.058
4.376	4.017
4.35	3.955
4.325	3.914
4.3	3.914
4.275	3.883
4.251	3.862
4.226	4.017
4.202	3.914
4.179	3.976
4.155	4.017
4.132	4.079
4.109	4.254
4.086	4.285
4.064	4.357
4.042	4.388
4.02	4.347
3.998	4.244
3.977	4.223
3.956	4.274
3.935	4.429
3.914	4.408
3.893	4.553
3.873	4.594
3.853	4.738
3.833	4.769
3.813	4.707
3.794	4.707
3.774	4.625
3.755	4.553
3.736	4.47
3.717	4.378
3.699	4.213
3.68	4.12
3.662	3.966
3.644	3.862
3.626	3.873
3.609	3.667
3.591	3.646
3.574	3.502
3.557	3.554
3.54	3.286
3.523	3.111
3.506	2.822
3.49	2.75
3.473	2.596
3.457	2.534
3.441	2.379
3.425	2.215
3.409	2.245
3.394	2.215
3.378	2.142
3.363	2.163
3.348	2.276
3.333	2.194
3.318	2.204
3.303	2.317
3.288	2.276
3.274	2.256
3.259	2.215
3.245	2.307
3.231	2.173
3.217	2.225
3.203	2.297
3.189	2.225
3.176	2.225
3.162	2.173
3.149	2.163
3.135	2.101
3.122	2.091
3.109	2.06
3.096	2.019
3.083	1.947
3.07	1.947
3.058	1.936
3.045	1.772
3.033	1.658
3.02	1.607
3.008	1.597
2.996	1.638
2.984	1.524
2.972	1.586
2.96	1.442
2.948	1.391
2.937	1.401
2.925	1.38
2.913	1.545
2.902	1.483
2.891	1.298
2.879	1.267
2.868	1.215
2.857	1.051
2.846	0.968
2.835	1.03
2.825	1.143
2.814	1.38
2.803	1.38
2.793	1.267
2.782	1.421
2.772	1.617
2.761	1.504
2.751	1.967
2.741	2.75
2.731	3.234
2.721	4.048
2.711	4.717
2.701	5.562
2.691	6.19
2.681	7.282
2.672	7.55
2.662	8.291
2.653	8.662
2.643	9.425
2.634	9.661
2.624	9.96
2.615	10.259
2.606	10.413
2.597	10.671
2.588	10.98
2.579	11.011
2.57	11.011
2.561	10.877
2.552	11.114
2.543	11
2.535	10.743
2.526	10.733
2.517	10.671
2.509	10.382
2.5	10.29
2.486	10.4
2.472	10.572
2.458	11.165
2.444	11.43
2.43	12.22
2.416	12.823
2.402	13.384
2.388	13.868
2.374	14.703
2.36	15.568
2.346	16.657
2.332	17.555
2.318	18.138
2.304	18.471
2.29	18.564
2.276	18.573
2.262	18.166
2.248	17.566
2.234	17.218
2.22	17.308
2.206	17.488
2.192	16.891
2.178	16.209
2.164	16.437
2.15	16.495
2.136	16.672
2.122	17.346
2.108	16.771
2.094	17.472
2.08	17.68
2.066	17.411
2.052	17.034
2.038	16.581
2.024	16.048
2.01	15.274
1.996	14.508
1.982	14.27
1.968	14.699
1.954	15.154
1.94	14.907
1.926	13.935
1.912	16.792
1.898	20.588
1.884	22.915
1.87	24.745
1.856	25.527
1.842	25.62
1.828	25.598
1.814	25.485
1.8	25.217
1.786	24.693
1.772	24.474
1.758	24.297
1.744	24.207
1.73	24.203
1.716	24.195
1.702	24.394
1.688	24.587
1.674	24.525
1.66	24.461
1.646	24.593
1.632	24.72
1.618	24.888
1.604	24.925
1.59	25.211
1.576	25.299
1.562	25.366
1.548	25.416
1.534	25.672
1.52	25.691
1.506	25.868
1.492	25.688
1.478	25.273
1.464	25.824
1.45	25.446
1.436	27.266
1.422	23.718
1.408	35.582
1.394	44.418
1.38	48.476
1.366	49.348
1.352	50.379
1.338	51.479
1.324	53.529
1.31	54.491
1.296	54.773
1.282	54.569
1.268	54.75
1.254	54.886
1.24	54.71
1.226	54.519
1.212	55.513
1.198	55.74
1.184	56.394
1.17	56.216
1.156	57.826
1.142	58.916
1.128	59.15
1.114	59.226
1.1	59.422
1.086	59.463
1.072	59.373
1.058	59.238
1.044	59.165
1.03	58.708
1.016	58.531
1.002	58.331
0.988	58.075
0.974	56.444
0.96	58.829
0.946	59.398
0.932	59.461
0.918	59.403
0.904	59.189
0.89	59.431
0.876	59.25
0.862	59.622
0.848	59.411
0.834	59.471
0.82	59.468
0.806	59.334
0.792	59.17
0.778	58.921
0.764	58.722
0.75	58.506
0.736	58.404
0.722	58.356
0.708	58.333
0.694	58.35
0.68	58.351
0.666	58.391
0.652	58.349
0.638	58.285
0.624	58.19
0.61	58.145
0.596	57.992
0.582	57.788
0.568	57.507
0.554	57.081
0.54	56.54
0.526	55.888
0.512	55.146
0.498	54.409
0.484	53.701
0.47	53.116
0.456	52.513
0.442	51.713
0.428	50.861
0.414	50.119
0.4	49.51
