Name: Andesine (Feldspar) (NaSi,CaAl)AlSi_2O_8
Type: Mineral
Class: Silicate
Subclass: Tectosilicate
Particle Size: Fine
Sample No.: TS-4A
Owner: JPL
Wavelength Range: TIR
Description: Particle size was 0-45um.Collected by JPL Original ASTER Spectral Library name was jpl.nicolet.mineral.silicate.tectosilicate.fine.ts04a.spectrum.txt
Measurement: Hemispherical reflectance
X Units: Wavelength (micrometers)
Y Units: Reflectance (percent)
wavelength	value
15.3853	3.341
15.1161	2.2523
14.8563	2.7089
14.6052	2.5343
14.3624	3.2947
14.1276	2.9921
13.9004	2.752
13.6803	2.8266
13.4671	2.6685
13.2604	2.7928
13.06	2.4952
12.8656	2.6274
12.6769	2.8631
12.4936	3.8485
12.3155	6.6631
12.1425	11.1347
11.9742	12.3006
11.8106	11.5796
11.6513	10.6971
11.4963	10.1793
11.3454	9.8057
11.1983	8.2614
11.0551	6.455
10.9154	5.5615
10.7793	5.2338
10.6465	5.1733
10.5169	5.0989
10.3904	5.0899
10.267	5.4845
10.1464	6.0079
10.0287	6.44
9.9136	7.0163
9.8012	6.7931
9.6913	6.559
9.5838	6.3457
9.4787	5.3432
9.3758	4.3667
9.2752	4.0954
9.1767	4.2347
9.0803	4.5597
8.9858	4.8814
8.8934	5.1619
8.8028	5.5018
8.714	5.782
8.627	5.9642
8.5417	6.2943
8.4581	6.4733
8.3761	6.6621
8.2957	6.3747
8.2169	4.7339
8.1395	2.7978
8.0635	1.4515
7.989	0.9976
7.9158	0.6298
7.8439	0.596
7.7734	0.6456
7.7041	1.0641
7.636	1.4221
7.5691	1.9599
7.5034	2.6359
7.4388	3.3201
7.3753	4.1146
7.3129	5.0287
7.2515	5.9007
7.1912	6.8119
7.1318	7.7884
7.0734	8.4648
7.016	9.1464
6.9595	9.8369
6.9039	10.385
6.8492	11.0584
6.7953	11.8582
6.7423	12.4276
6.6901	13.1478
6.6387	13.9826
6.5881	14.3769
6.5382	14.9156
6.4892	15.7502
6.4408	15.7876
6.3931	15.7116
6.3462	15.7991
6.2999	15.4625
6.2543	15.6214
6.2094	15.8895
6.1651	16.3414
6.1214	17.0651
6.0784	17.5757
6.0359	17.9235
5.994	18.3111
5.9527	18.6097
5.912	18.6633
5.8718	18.9937
5.8322	19.4162
5.7931	19.5966
5.7545	19.7871
5.7165	20.024
5.6789	20.2295
5.6418	20.7092
5.6052	21.0581
5.5691	21.7593
5.5334	23.0319
5.4982	24.4615
5.4635	25.953
5.4291	27.4667
5.3952	28.7383
5.3618	30.0273
5.3287	30.8516
5.2961	31.6595
5.2638	32.3979
5.2319	33.2611
5.2004	34.5483
5.1693	36.0201
5.1386	37.5868
5.1082	39.2322
5.0782	41.0822
5.0485	42.8062
5.0192	44.3923
4.9902	45.7118
4.9616	46.8109
4.9332	47.7085
4.9052	48.3016
4.8776	48.9872
4.8502	49.6065
4.8231	50.2352
4.7963	50.6674
4.7699	51.0834
4.7437	51.7249
4.7178	52.504
4.6922	53.4302
4.6668	54.5934
4.6418	55.8256
4.617	57.3292
4.5924	58.7842
4.5681	60.2101
4.5441	61.7502
4.5203	63.1524
4.4968	64.4983
4.4735	65.881
4.4505	66.9474
4.4277	68.1799
4.4051	69.1638
4.3828	70.2821
4.3607	71.2848
4.3388	72.285
4.3171	73.0018
4.2956	73.558
4.2744	74.2384
4.2534	75.4199
4.2325	75.3504
4.2119	76.7601
4.1915	77.6674
4.1712	77.9829
4.1512	78.412
4.1313	78.6474
4.1117	78.7719
4.0922	78.8747
4.0729	78.9387
4.0538	79.0006
4.0349	78.7457
4.0161	78.463
3.9976	77.6851
3.9792	77.0562
3.9609	77.4358
3.9428	78.3355
3.9249	78.8686
3.9072	79.0422
3.8896	79.2194
3.8722	79.2033
3.8549	79.3707
3.8378	79.4416
3.8208	79.6238
3.804	79.8809
3.7873	80.0079
3.7708	80.0337
3.7544	80.0176
3.7382	79.9243
3.7221	79.7706
3.7061	79.6298
3.6903	79.4851
3.6746	79.2853
3.659	79.1919
3.6436	79.0537
3.6283	78.7359
3.6131	78.4883
3.5981	78.2234
3.5832	77.9443
3.5684	77.6325
3.5537	77.1525
3.5391	76.6178
3.5247	75.9119
3.5104	74.0531
3.4962	73.1556
3.4821	73.2006
3.4681	73.2633
3.4543	73.2299
3.4405	72.373
3.4269	70.9164
3.4133	69.9053
3.3999	70.3892
3.3866	70.6429
3.3733	70.0235
3.3602	70.7417
3.3472	71.0114
3.3343	71.1282
3.3215	71.0056
3.3088	70.7068
3.2961	70.2396
3.2836	70.0091
3.2712	69.3958
3.2588	68.8541
3.2466	68.3425
3.2345	67.7915
3.2224	67.5337
3.2104	67.0086
3.1985	66.3758
3.1867	65.8681
3.175	65.2934
3.1634	64.7781
3.1519	64.2702
3.1404	63.7446
3.129	63.1609
3.1178	62.6722
3.1065	62.1413
3.0954	61.7189
3.0844	61.4906
3.0734	61.0082
3.0625	60.7484
3.0517	60.3726
3.041	60.1341
3.0303	59.831
3.0197	59.4956
3.0092	59.1833
2.9987	59.026
2.9884	58.6536
2.9781	58.4934
2.9678	58.2029
2.9577	58.232
2.9476	58.0833
2.9376	57.9502
2.9276	57.8623
2.9177	57.9026
2.9079	58.0309
2.8982	57.9903
2.8885	58.2214
2.8789	58.238
2.8693	58.3154
2.8598	58.2291
2.8504	58.5442
2.841	58.7412
2.8317	58.7036
2.8224	59.0338
2.8133	59.0429
2.8041	59.1325
2.7951	58.1384
2.786	56.69
2.7771	53.6668
2.7682	49.9995
2.7594	47.1487
2.7506	47.8908
2.7418	50.2545
2.7332	53.1481
2.7246	58.0017
2.716	64.5842
2.7075	71.0211
2.699	76.3867
2.6906	80.5817
2.6823	83.3787
2.674	84.4873
2.6657	85.9197
2.6575	85.5504
2.6494	85.8157
2.6413	86.0405
2.6332	86.2495
2.6252	86.2715
2.6173	86.6119
2.6094	86.5149
2.6015	86.5055
2.5937	87.1255
2.5859	86.8605
2.5782	86.6729
2.5706	86.8336
2.5629	87.13
2.5554	86.6789
2.5478	86.8707
2.5403	86.7414
2.5329	86.6992
2.5255	86.6753
2.5181	86.7554
2.5108	86.6497
2.5035	86.7516
2.4963	86.6866
2.4891	86.6412
2.482	86.6321
2.4749	86.8399
2.4678	86.6286
2.4608	86.6776
2.4538	86.7333
2.4468	86.6063
2.4399	86.7407
2.4331	86.7854
2.4262	86.8512
2.4194	86.9203
2.4127	87.2003
2.4059	87.434
2.3993	87.3794
2.3926	87.3895
2.386	87.4899
2.3795	87.3824
2.3729	87.6424
2.3664	87.6575
2.36	87.4924
2.3535	87.5039
2.3471	87.4722
2.3408	87.4423
2.3345	87.469
2.3282	87.6017
2.3219	87.8415
2.3157	87.9559
2.3095	87.9055
2.3034	88.0124
2.2972	88.1575
2.2911	88.07
2.2851	88.1536
2.279	88.1048
2.2731	88.3596
2.2671	88.3032
2.2612	88.3527
2.2553	88.1308
2.2494	88.0733
2.2435	88.1049
2.2377	88.258
2.232	88.1071
2.2262	88.1225
2.2205	88.0458
2.2148	87.9873
2.2091	87.6547
2.2035	87.3574
2.1979	87.2402
2.1923	87.3816
2.1868	87.8601
2.1812	88.036
2.1758	88.2262
2.1703	88.5651
2.1649	88.6303
2.1595	88.6044
2.1541	88.8259
2.1487	88.8722
2.1434	88.719
2.1381	88.8908
2.1328	88.8997
2.1275	88.9924
2.1223	88.9418
2.1171	88.932
2.112	88.9167
2.1068	89.0343
2.1017	89.1607
2.0966	89.2579
2.0915	88.6727
2.0865	89.2164
2.0814	88.9109
2.0764	89.2221
2.0715	89.1931
2.0665	89.1955
2.0616	89.234
2.0567	88.7264
2.0518	88.8873
2.0469	89.1238
2.0421	88.986
2.0373	88.6922
2.0325	88.9544
2.0277	88.7999
2.0229	89.296
2.0182	89.0172
2.0135	89.0218
2.0088	89.0442
2.0042	88.892
