Name: Gypsum CaSO4 * 2H2O
Type: Mineral
Class: Sulfate
Subclass: None
Particle Size: Coarse
Sample No.: gypsumc
Owner: USGS
Wavelength Range: All
Origin: Mesquite playa, California
Description: Gypsum from Mesquite Playa, CASample was Unsieved coarse powder. Original ASTER Spectral Library name was usgs.perknic.mineral.sulfate.none.coarse.gypsumc.spectrum.txt
Measurement: Directional Hemispherical Reflectance
X Units: Wavelength (micrometers)
Y Units: Reflectance (percent)
wavelength	value
13.9	1.174
13.644	1.318
13.398	1.473
13.16	1.514
12.93	1.7
12.708	1.72
12.494	1.875
12.287	1.967
12.086	2.081
11.892	2.122
11.704	2.173
11.522	2.317
11.346	2.369
11.175	2.482
11.009	2.523
10.848	2.575
10.691	2.575
10.539	2.699
10.391	2.822
10.247	2.905
10.108	3.018
9.972	3.111
9.839	3.409
9.71	3.564
9.585	3.945
9.462	4.192
9.343	4.697
9.226	5.469
9.113	7.159
9.002	11.217
8.894	16.047
8.789	19.611
8.686	21.28
8.585	19.961
8.487	15.213
8.391	10.31
8.297	7.344
8.205	3.193
8.115	1.535
8.027	0.937
7.941	0.742
7.857	0.711
7.774	0.793
7.694	0.803
7.614	0.979
7.537	1.051
7.461	1.185
7.387	1.298
7.314	1.473
7.242	1.607
7.172	1.751
7.103	1.71
7.036	1.905
6.97	1.978
6.905	2.039
6.841	2.101
6.778	2.122
6.717	2.276
6.657	2.317
6.597	2.348
6.539	2.359
6.482	2.338
6.426	2.328
6.37	2.328
6.316	2.297
6.263	2.276
6.21	2.39
6.159	3.203
6.108	1.298
6.058	1.473
6.009	1.669
5.96	1.627
5.913	1.648
5.866	2.019
5.82	2.297
5.775	2.482
5.73	2.75
5.686	2.997
5.643	3.203
5.6	3.43
5.558	3.636
5.517	3.986
5.476	4.378
5.436	4.779
5.396	4.995
5.357	5.078
5.319	5.253
5.281	5.387
5.243	5.562
5.206	5.614
5.17	5.541
5.134	5.469
5.099	5.377
5.064	5.274
5.03	5.325
4.996	5.315
4.962	5.171
4.929	5.222
4.897	5.006
4.865	4.81
4.833	4.553
4.802	4.151
4.771	3.523
4.74	2.894
4.71	2.709
4.68	2.76
4.651	2.863
4.622	2.925
4.593	2.812
4.565	2.678
4.537	2.503
4.509	2.544
4.482	2.534
4.455	2.544
4.428	2.637
4.402	2.822
4.376	2.977
4.35	3.121
4.325	3.389
4.3	3.801
4.275	4.305
4.251	4.728
4.226	5.253
4.202	5.727
4.179	6.17
4.155	6.674
4.132	7.148
4.109	7.591
4.086	8.158
4.064	8.724
4.042	9.373
4.02	9.878
3.998	10.176
3.977	9.775
3.956	10.506
3.935	11.382
3.914	11.999
3.893	12.442
3.873	11.732
3.853	12.988
3.833	13.163
3.813	13.308
3.794	13.215
3.774	13.359
3.755	13.338
3.736	13.236
3.717	13.153
3.699	13.133
3.68	12.782
3.662	12.535
3.644	12.041
3.626	11.598
3.609	11.103
3.591	10.661
3.574	10.341
3.557	9.888
3.54	9.589
3.523	9.342
3.506	8.827
3.49	8.518
3.473	8.271
3.457	7.952
3.441	7.643
3.425	7.241
3.409	7.128
3.394	6.891
3.378	6.52
3.363	6.242
3.348	5.974
3.333	5.727
3.318	5.521
3.303	5.243
3.288	4.975
3.274	4.81
3.259	4.532
3.245	4.439
3.231	4.171
3.217	3.986
3.203	3.924
3.189	3.677
3.176	3.574
3.162	3.378
3.149	3.142
3.135	3.069
3.122	2.863
3.109	2.874
3.096	2.781
3.083	2.482
3.07	2.606
3.058	2.472
3.045	2.472
3.033	2.41
3.02	2.534
3.008	2.575
2.996	2.493
2.984	2.513
2.972	2.771
2.96	3.1
2.948	3.492
2.937	4.079
2.925	3.832
2.913	2.554
2.902	1.967
2.891	1.607
2.879	1.442
2.868	1.339
2.857	1.617
2.846	1.452
2.835	1.761
2.825	1.957
2.814	1.854
2.803	1.586
2.793	1.761
2.782	1.648
2.772	1.555
2.761	1.875
2.751	1.936
2.741	2.462
2.731	2.348
2.721	2.75
2.711	3.008
2.701	3.358
2.691	3.883
2.681	4.171
2.672	4.676
2.662	4.903
2.653	5.232
2.643	5.789
2.634	5.819
2.624	5.892
2.615	5.984
2.606	6.056
2.597	6.098
2.588	6.231
2.579	6.19
2.57	6.211
2.561	6.314
2.552	6.355
2.543	6.52
2.535	6.52
2.526	6.54
2.517	6.499
2.509	6.304
2.5	6.231
2.486	6.262
2.472	6.322
2.458	6.774
2.444	6.912
2.43	7.366
2.416	8.14
2.402	9.394
2.388	11.126
2.374	12.843
2.36	14.083
2.346	15.088
2.332	15.653
2.318	15.867
2.304	15.571
2.29	14.904
2.276	13.821
2.262	14.036
2.248	14.216
2.234	13.532
2.22	12.688
2.206	13.611
2.192	14.28
2.178	14.661
2.164	15.559
2.15	16.559
2.136	17.292
2.122	18.265
2.108	19.309
2.094	20.286
2.08	20.75
2.066	20.673
2.052	20.529
2.038	19.306
2.024	17.405
2.01	14.022
1.996	9.46
1.982	8.138
1.968	7.755
1.954	6.518
1.94	6.694
1.926	8.682
1.912	11.34
1.898	15.106
1.884	20.109
1.87	26.089
1.856	29.783
1.842	31.344
1.828	31.346
1.814	30.419
1.8	28.645
1.786	25.878
1.772	24.79
1.758	23.305
1.744	24.25
1.73	28.585
1.716	33.705
1.702	37.657
1.688	39.577
1.674	40.166
1.66	39.651
1.646	38.654
1.632	37.142
1.618	35.575
1.604	33.589
1.59	31.466
1.576	29.568
1.562	26.829
1.548	23.095
1.534	22.952
1.52	23.666
1.506	21.692
1.492	19.774
1.478	20.527
1.464	19.244
1.45	15.607
1.436	21.87
1.422	26.284
1.408	31.434
1.394	33.948
1.38	35.133
1.366	36.751
1.352	38.971
1.338	41.338
1.324	42.583
1.31	43.549
1.296	43.836
1.282	43.91
1.268	43.569
1.254	43.247
1.24	41.699
1.226	41.539
1.212	39.903
1.198	40.358
1.184	40.642
1.17	42.846
1.156	45.244
1.142	46.348
1.128	46.523
1.114	46.651
1.1	47.072
1.086	47.149
1.072	47.049
1.058	46.941
1.044	46.61
1.03	46.13
1.016	45.319
1.002	44.578
0.988	44.971
0.974	45.638
0.96	45.978
0.946	46.318
0.932	46.399
0.918	46.276
0.904	46.22
0.89	46.472
0.876	46.542
0.862	46.372
0.848	46.422
0.834	46.401
0.82	46.444
0.806	46.464
0.792	46.383
0.778	46.322
0.764	46.202
0.75	46.132
0.736	46.005
0.722	45.834
0.708	45.619
0.694	45.403
0.68	45.186
0.666	44.965
0.652	44.733
0.638	44.462
0.624	44.217
0.61	43.891
0.596	43.407
0.582	42.619
0.568	41.579
0.554	40.336
0.54	39.143
0.526	37.979
0.512	36.907
0.498	35.933
0.484	34.969
0.47	34.374
0.456	33.774
0.442	32.732
0.428	31.472
0.414	30.488
0.4	29.622
