Name: Pinnoite MgB2O4 * 3H2O
Type: Mineral
Class: Borate
Subclass: None
Particle Size: Coarse
Sample No.: NMNH123943
Owner: Smithsonian Institute, National Museum of Nat. History
Wavelength Range: All
Origin: Smithsonian Institute, National Museum of Nat. History
Description: Pinnoite - syntheticSample was Unsieved coarse powder. Original ASTER Spectral Library name was usgs.perknic.mineral.borate.none.coarse.pinnoic.spectrum.txt
Measurement: Directional Hemispherical Reflectance
X Units: Wavelength (micrometers)
Y Units: Reflectance (percent)
wavelength	value
13.9	1.494
13.644	1.555
13.398	1.669
13.16	1.751
12.93	1.895
12.708	1.947
12.494	1.875
12.287	1.627
12.086	1.978
11.892	2.194
11.704	2.338
11.522	1.926
11.346	1.597
11.175	1.689
11.009	1.761
10.848	1.967
10.691	2.173
10.539	2.74
10.391	2.956
10.247	2.637
10.108	1.978
9.972	1.452
9.839	1.246
9.71	1.597
9.585	1.648
9.462	1.648
9.343	1.792
9.226	1.514
9.113	0.7
9.002	0.669
8.894	0.927
8.789	1.03
8.686	1.37
8.585	1.627
8.487	2.081
8.391	2.153
8.297	2.05
8.205	1.617
8.115	1.246
8.027	0.968
7.941	0.793
7.857	0.783
7.774	0.989
7.694	1.143
7.614	1.205
7.537	1.133
7.461	0.762
7.387	0.639
7.314	0.577
7.242	0.597
7.172	0.556
7.103	0.587
7.036	0.567
6.97	0.597
6.905	0.659
6.841	0.618
6.778	0.587
6.717	0.659
6.657	0.762
6.597	0.762
6.539	0.896
6.482	0.948
6.426	1.092
6.37	1.205
6.316	1.339
6.263	1.401
6.21	1.349
6.159	1.246
6.108	1.071
6.058	1.174
6.009	1.246
5.96	1.308
5.913	1.535
5.866	1.72
5.82	1.854
5.775	2.266
5.73	2.41
5.686	2.554
5.643	2.544
5.6	2.905
5.558	3.038
5.517	3.193
5.476	3.224
5.436	3.43
5.396	3.471
5.357	3.43
5.319	3.44
5.281	3.327
5.243	3.348
5.206	3.296
5.17	3.43
5.134	3.543
5.099	3.687
5.064	3.78
5.03	3.904
4.996	3.924
4.962	3.914
4.929	3.914
4.897	3.873
4.865	3.914
4.833	4.058
4.802	4.141
4.771	4.233
4.74	4.336
4.71	4.439
4.68	4.491
4.651	4.45
4.622	4.347
4.593	4.336
4.565	4.274
4.537	4.233
4.509	4.202
4.482	4.192
4.455	4.171
4.428	4.151
4.402	4.161
4.376	4.048
4.35	4.141
4.325	4.202
4.3	4.347
4.275	4.46
4.251	4.46
4.226	4.645
4.202	4.45
4.179	4.429
4.155	4.316
4.132	4.141
4.109	4.058
4.086	3.893
4.064	3.821
4.042	3.76
4.02	3.605
3.998	3.265
3.977	2.925
3.956	2.719
3.935	2.781
3.914	2.874
3.893	3.069
3.873	3.296
3.853	3.461
3.833	3.667
3.813	3.852
3.794	4.007
3.774	4.223
3.755	4.336
3.736	4.47
3.717	4.501
3.699	4.481
3.68	4.439
3.662	4.429
3.644	4.419
3.626	4.398
3.609	4.233
3.591	4.192
3.574	4.079
3.557	4.069
3.54	4.027
3.523	3.914
3.506	3.914
3.49	3.78
3.473	3.615
3.457	3.44
3.441	3.193
3.425	3.038
3.409	2.925
3.394	2.729
3.378	2.699
3.363	2.523
3.348	2.462
3.333	2.297
3.318	2.142
3.303	2.029
3.288	1.854
3.274	1.792
3.259	1.782
3.245	1.7
3.231	1.669
3.217	1.597
3.203	1.483
3.189	1.36
3.176	1.329
3.162	1.174
3.149	1.123
3.135	1.174
3.122	1.02
3.109	0.968
3.096	0.855
3.083	0.824
3.07	0.793
3.058	0.69
3.045	0.917
3.033	0.824
3.02	0.762
3.008	0.834
2.996	0.783
2.984	0.7
2.972	0.742
2.96	0.742
2.948	0.917
2.937	0.793
2.925	0.556
2.913	0.474
2.902	0.464
2.891	0.597
2.879	0.669
2.868	0.783
2.857	0.824
2.846	0.937
2.835	1.02
2.825	1.215
2.814	1.051
2.803	1.123
2.793	0.731
2.782	0.772
2.772	1.133
2.761	1.524
2.751	2.163
2.741	2.616
2.731	3.955
2.721	4.501
2.711	5.83
2.701	7.673
2.691	8.765
2.681	9.816
2.672	10.166
2.662	11.309
2.653	12.123
2.643	13.122
2.634	13.184
2.624	14.07
2.615	13.72
2.606	13.895
2.597	14.894
2.588	14.801
2.579	15.718
2.57	14.78
2.561	14.276
2.552	15.388
2.543	14.904
2.535	14.667
2.526	14.451
2.517	15.285
2.509	15.635
2.5	16.089
2.486	16.583
2.472	16.735
2.458	17.061
2.444	17.97
2.43	18.988
2.416	19.755
2.402	20.288
2.388	21.108
2.374	22.585
2.36	23.772
2.346	24.738
2.332	25.212
2.318	26.069
2.304	26.432
2.29	26.568
2.276	26.432
2.262	25.231
2.248	24.154
2.234	23.256
2.22	22.05
2.206	21.863
2.192	22.346
2.178	23.006
2.164	24.188
2.15	24.131
2.136	20.252
2.122	19.857
2.108	23.25
2.094	26.726
2.08	26.719
2.066	25.813
2.052	27
2.038	28.477
2.024	28.119
2.01	27.45
1.996	26.963
1.982	26.549
1.968	26.608
1.954	26.412
1.94	26.9
1.926	27.955
1.912	30.186
1.898	33.549
1.884	36.066
1.87	37.409
1.856	37.978
1.842	38.288
1.828	38.27
1.814	38.331
1.8	38.062
1.786	38.071
1.772	38.102
1.758	38.029
1.744	38.369
1.73	39.251
1.716	38.647
1.702	38.337
1.688	38.121
1.674	37.673
1.66	37.363
1.646	37.187
1.632	38.088
1.618	39.211
1.604	40.181
1.59	40.34
1.576	39.735
1.562	36.97
1.548	36.506
1.534	36.403
1.52	34.976
1.506	35.34
1.492	35.914
1.478	36.333
1.464	36.828
1.45	32.589
1.436	31.976
1.422	38.615
1.408	37.988
1.394	46.449
1.38	48.653
1.366	49.261
1.352	50.163
1.338	51.4
1.324	52.136
1.31	53.03
1.296	53.303
1.282	53.14
1.268	53.009
1.254	53.356
1.24	53.296
1.226	53.882
1.212	54.157
1.198	54.288
1.184	54.546
1.17	54.606
1.156	54.962
1.142	55.359
1.128	55.446
1.114	55.495
1.1	55.35
1.086	55.469
1.072	55.478
1.058	55.462
1.044	55.354
1.03	55.345
1.016	55.16
1.002	54.977
0.988	53.548
0.974	54.671
0.96	55.191
0.946	55.503
0.932	55.52
0.918	55.486
0.904	55.566
0.89	55.41
0.876	55.553
0.862	55.304
0.848	55.289
0.834	55.307
0.82	55.304
0.806	55.382
0.792	55.438
0.778	55.494
0.764	55.469
0.75	55.536
0.736	55.654
0.722	55.735
0.708	55.815
0.694	55.902
0.68	56.005
0.666	56.088
0.652	56.172
0.638	56.255
0.624	56.306
0.61	56.359
0.596	56.389
0.582	56.408
0.568	56.408
0.554	56.397
0.54	56.395
0.526	56.359
0.512	56.309
0.498	56.284
0.484	56.108
0.47	55.997
0.456	55.917
0.442	55.743
0.428	55.637
0.414	55.548
0.4	55.525
