Name: Chlorite
Type: Mineral
Class: Silicate
Subclass: Phyllosilicate
Particle Size: Coarse
Sample No.: PS-12E
Owner: JPL
Wavelength Range: VSWIR
Origin: USA, Vermont
Description: Particle size was 125-500um.Collected by Ward's Original ASTER Spectral Library name was jpl.beckman.mineral.silicate.phyllosilicate.coarse.ps12e.spectrum.txt
Measurement: Hemispherical reflectance
X Units: Wavelength (micrometers)
Y Units: Reflectance (percent)
wavelength	value
0.4	7.94
0.403	7.89
0.406	7.81
0.409	7.75
0.412	8.01
0.415	7.94
0.418	8.16
0.421	8.36
0.424	8.33
0.427	8.41
0.43	8.63
0.433	8.68
0.436	8.65
0.439	8.77
0.442	8.86
0.445	8.86
0.448	8.81
0.451	8.7
0.454	8.77
0.457	8.81
0.46	8.89
0.463	8.94
0.466	9.18
0.469	9.29
0.472	9.57
0.475	9.56
0.478	9.81
0.481	9.99
0.484	10.1
0.487	10.2
0.49	10.13
0.493	9.96
0.496	10.1
0.499	10.18
0.502	10.27
0.505	10.38
0.508	10.35
0.511	10.46
0.514	10.45
0.517	10.38
0.52	10.37
0.523	10.35
0.526	10.35
0.529	10.29
0.532	10.16
0.535	9.99
0.538	10.13
0.541	9.99
0.544	10.01
0.547	9.89
0.55	9.89
0.553	9.95
0.556	9.72
0.559	9.68
0.562	9.65
0.565	9.63
0.568	9.58
0.571	9.46
0.574	9.42
0.577	9.2
0.58	9.18
0.583	9.01
0.586	8.88
0.589	8.84
0.592	8.67
0.595	8.64
0.598	8.53
0.601	8.44
0.604	8.36
0.607	8.24
0.61	8.22
0.613	8.14
0.616	7.94
0.619	8
0.622	7.81
0.625	7.72
0.628	7.74
0.631	7.48
0.634	7.53
0.637	7.4
0.64	7.31
0.643	7.24
0.646	7.13
0.649	7.1
0.652	6.96
0.655	6.96
0.658	6.85
0.661	6.68
0.664	6.85
0.667	6.66
0.67	6.67
0.673	6.55
0.676	6.46
0.679	6.38
0.682	6.5
0.685	6.38
0.688	6.29
0.691	6.26
0.694	6.21
0.697	6.28
0.7	6.22
0.703	6.32
0.706	6.16
0.709	6.15
0.712	6.22
0.715	6.32
0.718	6.17
0.721	6.2
0.724	6.13
0.727	6.26
0.73	6.32
0.733	6.2
0.736	6.26
0.739	6.33
0.742	6.43
0.745	6.48
0.748	6.38
0.751	6.42
0.754	6.53
0.757	6.61
0.76	6.7
0.763	6.64
0.766	6.66
0.769	6.86
0.772	6.98
0.775	6.88
0.778	7.1
0.781	7.09
0.784	7.22
0.787	7.27
0.79	7.31
0.793	7.3
0.796	7.23
0.799	7.39
0.808	7.59
0.82	7.46
0.832	7.32
0.844	7.17
0.856	7.14
0.868	7.08
0.88	7.02
0.892	6.89
0.904	6.94
0.916	7
0.928	7.13
0.94	7.25
0.952	7.27
0.964	7.44
0.976	7.49
0.988	7.69
1	7.6
1.012	7.73
1.024	7.74
1.036	7.79
1.048	7.83
1.06	7.74
1.072	7.75
1.084	7.73
1.096	7.82
1.108	7.85
1.12	7.87
1.132	8.01
1.144	8.18
1.156	8.37
1.168	8.48
1.18	8.75
1.192	8.85
1.204	9
1.216	9.29
1.228	9.5
1.24	9.91
1.252	10.22
1.264	10.56
1.276	10.84
1.288	11.1
1.3	11.39
1.312	11.67
1.324	12.07
1.336	12.34
1.348	12.78
1.36	13.16
1.372	13.57
1.384	12.73
1.396	13.03
1.408	13.54
1.42	14.38
1.432	14.43
1.444	14.71
1.456	15.22
1.468	15.84
1.48	16.36
1.492	16.69
1.504	16.89
1.516	17.01
1.528	17.3
1.54	17.71
1.552	18.1
1.564	18.67
1.576	19.18
1.588	19.78
1.6	20.35
1.612	20.85
1.624	21.34
1.636	21.9
1.648	22.48
1.66	22.95
1.672	23.46
1.684	23.86
1.696	24.28
1.708	24.89
1.72	25.37
1.732	25.67
1.744	25.95
1.756	26.36
1.768	26.8
1.78	27.16
1.792	27.41
1.804	27.72
1.816	27.77
1.828	27.84
1.84	27.79
1.852	27.58
1.864	27.48
1.876	27.55
1.888	28.1
1.9	28.69
1.912	28.88
1.924	28.89
1.936	28.48
1.948	27.93
1.96	27.71
1.972	27.12
1.984	26.89
1.996	27.29
2.008	28.12
2.02	29.49
2.032	30.72
2.044	31.57
2.056	32.2
2.068	32.64
2.08	33
2.092	32.95
2.104	32.88
2.116	32.91
2.128	33.03
2.14	32.93
2.152	32.8
2.164	32.57
2.176	31.94
2.188	31.03
2.2	30.04
2.212	28.44
2.224	25.17
2.236	20.98
2.248	18.81
2.26	19
2.272	18.6
2.284	17.21
2.296	15.86
2.308	14.96
2.32	14.19
2.332	14.02
2.344	14.74
2.356	16.33
2.368	17.94
2.38	19.17
2.392	19.85
2.404	20.64
2.416	20.93
2.428	20.6
2.44	19.92
2.452	19.22
2.464	18.54
2.476	18
2.488	17.8
2.5	17.81
