Name: Albite NaAlSi3O8
Type: Mineral
Class: Silicate
Subclass: Tectosilicate
Particle Size: Fine
Sample No.: albite_1
Owner: JHU
Wavelength Range: TIR
Origin: Sample from Rutherford, Virginia, USA via the Smithsonian(sample no. NMNHC5390) and Bruce Hemingway.
Description: The sample was a large (2 cm x 2 cm x 2 cm) fragment of a twinned crystal.  The sample appeared very fresh.  It was translucent and light gray to white in color.  This is a sample of the classic Amelia albite. Particle size was less than 2 Micrometers.(Framework silicates) (Feldspar Group) Original ASTER Spectral Library name was jhu.nicolet.mineral.silicate.tectosilicate.powder.albite1.spectrum.txt
Measurement: Transmission
X Units: Wavelength (micrometers)
Y Units: Transmittance (percent)
wavelength	value
25.0442	54.6874
24.3388	59.6288
23.6719	43.6171
23.0407	50.6092
22.4422	75.6814
21.8741	69.3397
21.334	67.6444
20.8199	70.4764
20.33	85.8338
19.8627	87.3299
19.4163	83.7498
18.9896	65.8866
18.5812	68.4061
18.19	82.3963
17.815	80.3826
17.4551	68.4227
17.1094	46.1376
16.7772	45.5399
16.4576	54.7518
16.15	70.5174
15.8537	82.1062
15.568	74.533
15.2925	64.6561
15.0265	84.9959
14.7697	88.2654
14.5214	88.7468
14.2814	87.24
14.0492	82.0281
13.8244	66.5921
13.6067	75.1873
13.3957	63.016
13.1912	64.6546
12.9929	75.5452
12.8004	76.115
12.6135	75.6023
12.432	89.3943
12.2557	91.2151
12.0843	91.6311
11.9176	91.0042
11.7555	89.5335
11.5977	87.0315
11.444	84.4138
11.2944	82.8128
11.1487	80.6678
11.0067	77.6561
10.8682	72.9861
10.7332	68.1258
10.6015	60.9749
10.473	51.5868
10.3476	39.9574
10.2251	26.9184
10.1056	16.0786
9.9887	14.8364
9.8746	16.0898
9.763	17.9751
9.6539	14.4609
9.5472	18.291
9.4429	23.8935
9.3408	32.4496
9.2409	36.9613
9.1431	27.2675
9.0474	27.8984
8.9536	34.4442
8.8618	33.1801
8.7718	25.914
8.6837	25.9228
8.5973	25.9726
8.5126	31.3637
8.4295	42.1552
8.3481	52.9894
8.2682	60.6837
8.1898	66.741
8.1129	71.0281
8.0374	74.3143
7.9634	76.8729
7.8906	78.919
7.8192	80.545
7.7491	82.0769
7.6802	83.2129
7.6126	84.1629
7.5461	85.0694
7.4807	85.8753
7.4165	86.5183
7.3534	87.127
7.2914	87.7605
7.2303	88.1768
7.1703	88.739
7.1113	89.3425
7.0533	89.6658
6.9962	89.918
6.94	90.0925
6.8847	90.5637
6.8302	91.0403
6.7767	91.28
6.7239	91.6355
6.672	91.95
6.6209	92.0869
6.5705	92.3308
6.5209	92.4981
6.4721	92.6082
6.424	92.7839
6.3766	92.8242
6.3299	92.762
6.2838	92.6453
6.2385	92.252
6.1937	91.7734
6.1496	91.8416
6.1062	92.3147
6.0633	92.7229
6.0211	92.9141
5.9794	92.9277
5.9383	93.6814
5.8978	94.0505
5.8578	94.2947
5.8184	94.3972
5.7794	94.3604
5.741	94.4795
5.7031	94.5994
5.6657	94.6677
5.6288	94.8643
5.5924	94.8662
5.5564	94.9929
5.5209	95.196
5.4859	95.4148
5.4513	95.6289
5.4171	95.8118
5.3833	95.9119
5.35	96.1018
5.3171	96.2341
5.2846	96.3164
5.2524	96.3572
5.2207	96.3689
5.1893	96.4958
5.1584	96.6277
5.1277	96.6892
5.0975	96.7803
5.0676	96.8721
5.038	96.9651
5.0088	97.0247
4.98	97.1238
4.9514	97.323
4.9232	97.3137
4.8953	97.3337
4.8678	97.4216
4.8405	97.5017
4.8135	97.6081
4.7868	97.5642
4.7605	97.6086
4.7344	97.6697
4.7086	97.7234
4.6831	97.7781
4.6578	97.8328
4.6328	97.8767
4.6081	97.8464
4.5837	98.0564
4.5595	98.0647
4.5356	98.0989
4.5119	98.1448
4.4884	98.2175
4.4652	98.2097
4.4423	98.2024
4.4196	98.3933
4.3971	98.4006
4.3748	98.4978
4.3528	98.4573
4.331	98.5779
4.3094	98.6174
4.288	98.6355
4.2668	98.6872
4.2458	98.7292
4.2251	98.7854
4.2045	98.8264
4.1841	98.8127
4.164	98.8376
4.144	98.8611
4.1242	98.8845
4.1046	98.885
4.0852	98.9392
4.066	98.9324
4.047	99.0076
4.0281	98.9597
4.0094	98.9372
3.9909	98.8562
3.9725	98.9607
3.9544	98.9675
3.9363	99.0203
3.9185	99.1584
3.9008	99.1912
3.8833	99.0544
3.8659	99.0642
3.8487	99.1804
3.8316	99.1858
3.8147	99.1999
3.7979	99.2156
3.7813	99.3132
3.7648	99.2761
3.7485	99.2996
3.7323	99.2185
3.7162	99.3049
3.7003	99.2917
3.6845	99.3186
3.6689	99.2756
3.6534	99.321
3.638	99.4084
3.6227	99.4138
3.6076	99.3308
3.5926	99.4045
3.5777	99.3591
3.563	99.3747
3.5484	99.3518
3.5338	99.3943
3.5195	99.4119
3.5052	99.3103
3.491	99.4143
3.477	99.2673
3.463	99.2029
3.4492	99.3147
3.4355	99.3552
3.4219	99.4177
3.4084	99.4534
3.395	99.4079
3.3817	99.2908
3.3685	99.3889
3.3554	99.3318
3.3425	99.344
3.3296	99.3396
3.3168	99.3533
3.3041	99.3127
3.2915	99.322
3.279	99.3318
3.2666	99.3689
3.2543	99.2429
3.2421	99.2312
3.23	99.1902
3.218	99.115
3.206	99.0632
3.1942	98.988
3.1824	98.946
3.1707	98.8962
3.1591	98.7966
3.1476	98.6218
3.1362	98.5496
3.1249	98.448
3.1136	98.4675
3.1024	98.3689
3.0913	98.3074
3.0803	98.3953
3.0694	98.4294
3.0585	98.2165
3.0477	98.3162
3.037	98.0837
3.0264	98.0271
3.0158	97.7234
3.0053	97.5369
2.9949	97.4695
2.9845	97.2195
2.9743	96.8787
2.9641	96.446
2.9539	96.0994
2.9439	95.9119
2.9339	95.7966
2.9239	95.5525
2.9141	95.5349
2.9043	95.614
2.8946	95.9968
2.8849	96.3289
2.8753	96.6423
2.8658	97.1765
2.8563	97.5554
2.8469	97.8474
2.8375	98.0359
2.8282	98.321
2.819	98.3943
2.8098	98.5603
2.8007	98.8513
2.7917	99.1882
2.7827	99.488
2.7738	99.6453
2.7649	99.9158
2.7561	100.493
2.7473	100.782
2.7386	101.152
2.7299	101.312
2.7213	101.543
2.7128	101.538
2.7043	101.766
2.6959	101.993
2.6875	102.125
2.6791	102.488
2.6709	102.383
2.6626	102.36
2.6545	102.449
2.6463	102.425
2.6382	102.575
2.6302	102.466
2.6222	102.657
2.6143	102.689
2.6064	102.865
2.5986	102.714
2.5908	102.993
2.583	102.984
2.5753	102.902
2.5677	103.009
2.5601	103.009
2.5525	102.884
2.545	103.066
2.5375	103.132
2.5301	103.161
2.5227	103.116
2.5154	103.116
2.5081	103.159
2.5008	103.429
2.4936	103.241
2.4864	103.431
2.4793	103.452
2.4722	103.564
2.4651	103.691
2.4581	103.577
2.4511	103.808
2.4442	103.634
2.4373	103.876
2.4305	103.657
2.4236	103.624
2.4169	103.745
2.4101	104.015
2.4034	104.023
2.3967	104.001
2.3901	103.827
2.3835	103.929
2.377	104.173
2.3704	104.009
2.364	104.017
2.3575	104.079
2.3511	104.077
2.3447	104.103
2.3384	104.14
2.3321	103.859
2.3258	104.093
2.3195	104.398
2.3133	104.22
2.3071	104.452
2.301	104.327
2.2949	104.249
2.2888	104.353
2.2828	104.212
2.2767	104.273
2.2708	104.226
2.2648	104.581
2.2589	104.316
2.253	104.452
2.2471	104.347
2.2413	104.343
2.2355	104.464
2.2297	104.394
2.224	104.116
2.2183	104.284
2.2126	104.226
2.207	103.988
2.2013	104.679
2.1957	104.253
2.1902	104.409
2.1846	104.441
2.1791	104.339
2.1736	104.507
2.1682	104.39
2.1628	104.769
2.1574	104.171
2.152	104.566
2.1466	104.296
2.1413	104.304
2.136	104.222
2.1308	104.238
2.1255	103.851
2.1203	104.374
2.1151	104.156
2.11	104.257
2.1048	104.296
2.0997	104.284
2.0946	104.054
2.0895	104.253
2.0845	104.468
2.0795	103.831
