Name: Grossular Garnet Ca_3Al_2(SiO_4)_3
Type: Mineral
Class: Silicate
Subclass: Nesosilicate
Particle Size: Fine
Sample No.: NS-3B
Owner: JPL
Wavelength Range: VSWIR
Origin: Mexico, Lake Jaco.
Description: Particle size was 0-45um.Collected by:  David New Original ASTER Spectral Library name was jpl.perkin.mineral.silicate.nesosilicate.fine.ns03b.spectrum.txt
Measurement: Hemispherical reflectance
X Units: Wavelength (micrometers)
Y Units: Reflectance (percent)
wavelength	value
2.5	75.4547
2.494	75.4249
2.488	75.6471
2.482	75.6783
2.476	75.687
2.47	75.8002
2.464	75.9672
2.458	76.0952
2.452	76.0419
2.446	76.2291
2.44	76.1918
2.434	76.3878
2.428	76.4891
2.422	76.5504
2.416	76.7219
2.41	76.7471
2.404	76.7263
2.398	76.8433
2.392	77.0339
2.386	77.1152
2.38	77.218
2.374	77.3274
2.368	77.3991
2.362	77.5097
2.356	77.5871
2.35	77.5656
2.344	77.7158
2.338	77.7729
2.332	77.8287
2.326	77.7771
2.32	77.7754
2.314	77.8532
2.308	77.8135
2.302	77.8837
2.296	77.8745
2.29	77.9938
2.284	77.9188
2.278	77.9676
2.272	77.9766
2.266	78.0402
2.26	78.0733
2.254	78.1267
2.248	78.2083
2.242	78.1948
2.236	78.24
2.23	78.3183
2.224	78.3763
2.218	78.4664
2.212	78.5951
2.206	78.8148
2.2	78.9118
2.194	78.9737
2.188	79.1605
2.182	79.2215
2.176	79.4246
2.17	79.6201
2.164	79.7427
2.158	79.9977
2.152	80.1775
2.146	80.1762
2.14	80.2245
2.134	80.2218
2.128	80.043
2.122	79.8728
2.116	79.6931
2.11	79.4464
2.104	79.162
2.098	79.1193
2.092	79.189
2.086	79.2456
2.08	79.3384
2.074	79.3316
2.068	79.4788
2.062	79.5421
2.056	79.6095
2.05	79.6946
2.044	79.7545
2.038	79.7914
2.032	79.8007
2.026	79.8849
2.02	79.8618
2.014	79.798
2.008	79.8356
2.002	79.8458
1.996	79.763
1.99	79.7522
1.984	79.6439
1.978	79.4618
1.972	79.4837
1.966	79.5145
1.96	79.3573
1.954	79.3533
1.948	79.4239
1.942	79.5354
1.936	79.3749
1.93	79.5248
1.924	79.431
1.918	79.5675
1.912	79.5605
1.906	79.7442
1.9	79.9925
1.894	80.1888
1.888	80.3801
1.882	80.4884
1.876	80.585
1.87	80.6117
1.864	80.6338
1.858	80.7286
1.852	80.7055
1.846	80.7927
1.84	80.8447
1.834	80.832
1.828	80.8729
1.822	80.8915
1.816	80.977
1.81	80.9648
1.804	80.9966
1.798	81.0252
1.792	80.99
1.786	80.9953
1.78	80.9823
1.774	80.9869
1.768	80.8888
1.762	80.9713
1.756	80.9725
1.75	80.9585
1.744	81.0373
1.738	81.1082
1.732	81.1347
1.726	81.1729
1.72	81.1301
1.714	81.126
1.708	81.1253
1.702	81.1331
1.696	81.1072
1.69	81.201
1.684	81.1468
1.678	81.1466
1.672	81.2055
1.666	81.2652
1.66	81.32
1.654	81.2335
1.648	81.2505
1.642	81.2773
1.636	81.3271
1.63	81.2866
1.624	81.3619
1.618	81.3443
1.612	81.3534
1.606	81.4235
1.6	81.3738
1.594	81.3203
1.588	81.3331
1.582	81.34
1.576	81.3336
1.57	81.3751
1.564	81.3913
1.558	81.3597
1.552	81.4451
1.546	81.3005
1.54	81.3087
1.534	81.2964
1.528	81.3378
1.522	81.3161
1.516	81.3127
1.51	81.2686
1.504	81.2291
1.498	81.3323
1.492	81.3113
1.486	81.2314
1.48	81.2314
1.474	81.2186
1.468	81.242
1.462	81.2482
1.456	81.2686
1.45	81.2024
1.444	81.2155
1.438	81.236
1.432	81.154
1.426	81.1484
1.42	81.1552
1.414	81.1105
1.408	81.097
1.402	81.2192
1.396	81.2533
1.39	81.3334
1.384	81.4032
1.378	81.4195
1.372	81.3564
1.366	81.4521
1.36	81.4606
1.354	81.4094
1.348	81.3777
1.342	81.385
1.336	81.4245
1.33	81.389
1.324	81.4394
1.318	81.4184
1.312	81.4196
1.306	81.3715
1.3	81.4362
1.294	81.4573
1.288	81.4342
1.282	81.4499
1.276	81.3297
1.27	81.3421
1.264	81.4075
1.258	81.322
1.252	81.3442
1.246	81.3779
1.24	81.3085
1.234	81.3532
1.228	81.3253
1.222	81.3592
1.216	81.3761
1.21	81.3434
1.204	81.3826
1.198	81.3148
1.192	81.2981
1.186	81.3439
1.18	81.3684
1.174	81.3356
1.168	81.2863
1.162	81.3206
1.156	81.3654
1.15	81.3954
1.144	81.362
1.138	81.4103
1.132	81.35
1.126	81.3626
1.12	81.3537
1.114	81.3356
1.108	81.2969
1.102	81.3972
1.096	81.3226
1.09	81.3321
1.084	81.3321
1.078	81.2605
1.072	81.3804
1.066	81.3262
1.06	81.3696
1.054	81.2852
1.048	81.3508
1.042	81.2598
1.036	81.3374
1.03	81.2155
1.024	81.2824
1.018	81.2772
1.012	81.2655
1.006	81.2135
1	81.1654
0.994	81.1268
0.988	81.056
0.982	80.9663
0.976	80.9978
0.97	80.8488
0.964	80.8403
0.958	80.7547
0.952	80.7712
0.946	80.7048
0.94	80.5992
0.934	80.5707
0.928	80.5492
0.922	80.4333
0.916	80.4163
0.91	80.3403
0.904	80.2613
0.898	80.3007
0.892	80.2596
0.886	80.2032
0.88	80.1556
0.874	80.1847
0.868	80.2328
0.862	80.2427
0.856	80.3566
0.85	80.4285
0.844	80.532
0.838	80.6133
0.832	80.6574
0.826	80.7448
0.82	80.7498
0.814	80.8144
0.808	80.7941
0.802	80.8532
0.796	80.8044
0.79	80.8283
0.784	80.8277
0.778	80.893
0.772	80.7939
0.766	80.7799
0.76	80.814
0.754	80.7726
0.748	80.7326
0.742	80.7197
0.736	80.6928
0.73	80.5974
0.724	80.5818
0.718	80.5453
0.712	80.5128
0.706	80.4314
0.7	80.3751
0.694	80.3002
0.688	80.2307
0.682	80.1349
0.676	80.0349
0.67	79.9597
0.664	79.8364
0.658	79.7416
0.652	79.6291
0.646	79.5422
0.64	79.4445
0.634	79.319
0.628	79.2168
0.622	79.0868
0.616	78.9726
0.61	78.8208
0.604	78.6902
0.598	78.5694
0.592	78.471
0.586	78.3126
0.58	78.2114
0.574	78.0752
0.568	77.9609
0.562	77.855
0.556	77.7411
0.55	77.6085
0.544	77.4984
0.538	77.3523
0.532	77.223
0.526	77.0711
0.52	76.8959
0.514	76.7274
0.508	76.5611
0.502	76.365
0.496	76.1345
0.49	75.9171
0.484	75.7025
0.478	75.4545
0.472	75.1703
0.466	74.8371
0.46	74.4594
0.454	73.9676
0.448	73.3019
0.442	72.0959
0.436	70.7767
0.43	70.2629
0.424	70.3853
0.418	70.3828
0.412	70.0271
0.406	69.4565
0.4	68.6122
