Name: Sanidine (K,Na)Al3O8
Type: Mineral
Class: Silicate
Subclass: Tectosilicate
Particle Size: Fine
Sample No.: sanidine_1
Owner: JHU
Wavelength Range: TIR
Origin: Volkesfeld bei Kempenick, Eifel, Rheinland, Germany via DaveStewart, USGS
Description: The hand sample was a large (56.16 g) fragment of what appeared to be a badly fractured single crystal. Small fragments were transparent but "smoky." The sample showed no significant contamination under the microscope. Particle size was Less than 2 Micrometers.(Feldspar Group) Original ASTER Spectral Library name was jhu.nicolet.mineral.silicate.tectosilicate.powder.sanidi1.spectrum.txt
Measurement: Transmission
X Units: Wavelength (micrometers)
Y Units: Transmittance (percent)
wavelength	value
25.0442	58.7596
24.3388	54.7889
23.6719	50.869
23.0407	50.3329
22.4422	57.576
21.8741	68.3768
21.334	74.3318
20.8199	79.6365
20.33	82.6136
19.8627	82.8318
19.4163	81.5779
18.9896	79.1766
18.5812	70.3499
18.19	66.0291
17.815	67.4022
17.4551	60.9588
17.1094	57.1219
16.7772	62.1322
16.4576	67.6917
16.15	71.1805
15.8537	71.8135
15.568	71.4571
15.2925	80.8633
15.0265	83.9932
14.7697	84.7273
14.5214	83.2586
14.2814	78.4571
14.0492	75.2618
13.8244	74.2891
13.6067	75.2247
13.3957	76.6573
13.1912	77.1692
12.9929	76.8204
12.8004	78.0213
12.6135	81.2654
12.432	87.9522
12.2557	90.5547
12.0843	88.8684
11.9176	86.6126
11.7555	84.1241
11.5977	81.595
11.444	78.9935
11.2944	76.417
11.1487	73.4649
11.0067	69.9529
10.8682	66.2669
10.7332	62.4305
10.6015	57.6197
10.473	52.2914
10.3476	46.7772
10.2251	41.7367
10.1056	37.5946
9.9887	34.4301
9.8746	32.6684
9.763	32.038
9.6539	31.8603
9.5472	32.9399
9.4429	36.0998
9.3408	41.0551
9.2409	43.8817
9.1431	44.0541
9.0474	43.0692
8.9536	42.1073
8.8618	41.9154
8.7718	42.9042
8.6837	45.9511
8.5973	50.8402
8.5126	55.4637
8.4295	59.3954
8.3481	62.8443
8.2682	65.6969
8.1898	67.8221
8.1129	69.4559
8.0374	70.9193
7.9634	72.3748
7.8906	73.5076
7.8192	74.4776
7.7491	75.4285
7.6802	76.219
7.6126	77.0003
7.5461	77.6888
7.4807	78.3255
7.4165	78.8392
7.3534	79.3841
7.2914	79.8821
7.2303	80.1546
7.1703	81.0552
7.1113	81.6331
7.0533	81.9341
6.9962	82.408
6.94	82.8626
6.8847	83.1546
6.8302	83.386
6.7767	83.6348
6.7239	83.9695
6.672	84.3426
6.6209	84.6575
6.5705	85.0008
6.5209	85.2198
6.4721	85.4331
6.424	85.6043
6.3766	85.6775
6.3299	85.7354
6.2838	85.7354
6.2385	85.5525
6.1937	85.0647
6.1496	84.6746
6.1062	85.0144
6.0633	85.5105
6.0211	86.8106
5.9794	87.7781
5.9383	87.7881
5.8978	87.7278
5.8578	87.8089
5.8184	88.0112
5.7794	88.1914
5.741	88.2659
5.7031	88.2959
5.6657	88.3277
5.6288	88.4082
5.5924	88.5435
5.5564	88.6521
5.5209	88.8069
5.4859	88.9768
5.4513	89.1951
5.4171	89.3501
5.3833	89.4417
5.35	89.5903
5.3171	89.719
5.2846	89.864
5.2524	90.0122
5.2207	90.1096
5.1893	90.2454
5.1584	90.3511
5.1277	90.5081
5.0975	90.6589
5.0676	90.7688
5.038	90.8665
5.0088	90.9539
4.98	91.0169
4.9514	91.1126
4.9232	91.1238
4.8953	91.178
4.8678	91.2207
4.8405	91.2434
4.8135	91.334
4.7868	91.3689
4.7605	91.4563
4.7344	91.5154
4.7086	91.5413
4.6831	91.5554
4.6578	91.6018
4.6328	91.6961
4.6081	91.8938
4.5837	91.7947
4.5595	91.8399
4.5356	91.9114
4.5119	91.9539
4.4884	92.0471
4.4652	92.0759
4.4423	92.0647
4.4196	92.1287
4.3971	92.2073
4.3748	92.2571
4.3528	92.2898
4.331	92.3484
4.3094	92.3733
4.288	92.4314
4.2668	92.437
4.2458	92.4819
4.2251	92.5005
4.2045	92.4929
4.1841	92.551
4.164	92.5752
4.144	92.5169
4.1242	92.5986
4.1046	92.6541
4.0852	92.6284
4.066	92.5586
4.047	92.5996
4.0281	92.6101
4.0094	92.6187
3.9909	92.6218
3.9725	92.5667
3.9544	92.6616
3.9363	92.6694
3.9185	92.7415
3.9008	92.7813
3.8833	92.7065
3.8659	92.6331
3.8487	92.646
3.8316	92.6953
3.8147	92.7666
3.7979	92.7549
3.7813	92.7783
3.7648	92.7683
3.7485	92.7451
3.7323	92.7488
3.7162	92.7131
3.7003	92.6519
3.6845	92.6604
3.6689	92.668
3.6534	92.6736
3.638	92.6672
3.6227	92.6301
3.6076	92.583
3.5926	92.655
3.5777	92.5808
3.563	92.5613
3.5484	92.4971
3.5338	92.4963
3.5195	92.4832
3.5052	92.4241
3.491	92.3799
3.477	92.3059
3.463	92.3359
3.4492	92.2747
3.4355	92.2395
3.4219	92.1814
3.4084	92.031
3.395	92.1104
3.3817	92.2139
3.3685	92.2766
3.3554	92.1921
3.3425	92.2405
3.3296	92.2107
3.3168	92.1404
3.3041	92.1004
3.2915	92.0371
3.279	92.0147
3.2666	92.0266
3.2543	92.0762
3.2421	92.0413
3.23	92.0156
3.218	91.9092
3.206	91.8594
3.1942	91.7783
3.1824	91.7031
3.1707	91.6096
3.1591	91.5059
3.1476	91.3821
3.1362	91.198
3.1249	91.0713
3.1136	90.9297
3.1024	90.7185
3.0913	90.3623
3.0803	90.1321
3.0694	89.99
3.0585	89.8425
3.0477	89.707
3.037	89.5713
3.0264	89.3582
3.0158	88.9551
3.0053	88.5379
2.9949	87.9954
2.9845	87.4368
2.9743	86.5593
2.9641	85.7473
2.9539	84.9632
2.9439	84.4021
2.9339	83.928
2.9239	83.5393
2.9141	83.4534
2.9043	83.3738
2.8946	83.5662
2.8849	83.7967
2.8753	83.9363
2.8658	84.2522
2.8563	84.5711
2.8469	84.9988
2.8375	85.4358
2.8282	86.0218
2.819	86.5535
2.8098	86.9265
2.8007	87.2366
2.7917	87.7717
2.7827	88.1511
2.7738	88.4968
2.7649	88.9568
2.7561	89.5647
2.7473	89.9324
2.7386	90.0999
2.7299	90.0764
2.7213	89.8054
2.7128	89.699
2.7043	90.2405
2.6959	90.5828
2.6875	90.74
2.6791	90.8303
2.6709	90.8162
2.6626	90.6604
2.6545	90.6936
2.6463	90.6546
2.6382	90.5452
2.6302	90.5291
2.6222	90.5789
2.6143	90.5701
2.6064	90.5667
2.5986	90.4929
2.5908	90.4675
2.583	90.5217
2.5753	90.4124
2.5677	90.3494
2.5601	90.3709
2.5525	90.2307
2.545	90.1463
2.5375	90.2888
2.5301	90.3006
2.5227	89.947
2.5154	90.0003
2.5081	90.0506
2.5008	89.9592
2.4936	89.9607
2.4864	89.9763
2.4793	89.9109
2.4722	89.8269
2.4651	89.8152
2.4581	89.9197
2.4511	89.6804
2.4442	89.5935
2.4373	89.7048
2.4305	89.5027
2.4236	89.6297
2.4169	89.6834
2.4101	89.5545
2.4034	89.2586
2.3967	89.3064
2.3901	89.3963
2.3835	89.3123
2.377	89.2791
2.3704	89.4646
2.364	89.3884
2.3575	89.157
2.3511	89.2478
2.3447	89.1756
2.3384	89.0759
2.3321	88.9617
2.3258	89.0408
2.3195	89.1795
2.3133	89.0701
2.3071	88.8494
2.301	88.8963
2.2949	88.9256
2.2888	88.8513
2.2828	88.6922
2.2767	88.5857
2.2708	88.5359
2.2648	88.6648
2.2589	88.6892
2.253	88.6814
2.2471	88.8748
2.2413	88.5515
2.2355	88.4666
2.2297	88.7341
2.224	88.4031
2.2183	88.531
2.2126	88.4588
2.207	88.6463
2.2013	88.5125
2.1957	88.3084
2.1902	88.242
2.1846	88.1209
2.1791	88.0935
2.1736	88.3523
2.1682	88.3133
2.1628	88.2966
2.1574	88.1052
2.152	88.0115
2.1466	88.1297
2.1413	87.8943
2.136	88.074
2.1308	88.2302
2.1255	88.1531
2.1203	88.0662
2.1151	87.9383
2.11	87.864
2.1048	87.8826
2.0997	88.3123
2.0946	88.2498
2.0895	87.8006
2.0845	87.6482
2.0795	87.8865
