Name: Erionite (K2,Ca,Na2)2Al4Si14O36.15H2O
Type: Mineral
Class: Silicate
Subclass: Tectosilicate
Particle Size: Solid
Sample No.: erionite_1
Owner: JHU
Wavelength Range: TIR
Origin: Donated by W. J. Ehmann;  Sample #15 from Rome, Oregon.
Description: The hand sample was a cream-colored, earthy mass.  As a result, the "solid" sample had very weak reststrahlen bands.  Petrographically the sample appeared to be pure.Sample was earthy surface.(Zeolite Group) Original ASTER Spectral Library name was jhu.nicolet.mineral.silicate.tectosilicate.solid.erioni1.spectrum.txt
Measurement: Bidirectional reflectance
X Units: Wavelength (micrometers)
Y Units: Reflectance (percent)
wavelength	value
25.0442	2.3887
24.3388	2.1792
23.6719	2.3894
23.0407	2.5801
22.4422	2.5644
21.8741	2.4678
21.334	2.6916
20.8199	2.4536
20.33	1.8542
19.8627	1.4673
19.4163	1.3188
18.9896	1.2808
18.5812	1.1638
18.19	1.0923
17.815	1.0662
17.4551	1.1077
17.1094	1.0388
16.7772	1.0193
16.4576	1.0225
16.15	1.0398
15.8537	1.0635
15.568	0.989
15.2925	0.9629
15.0265	1.0496
14.7697	1.0881
14.5214	1.1235
14.2814	1.1501
14.0492	1.1758
13.8244	1.1455
13.6067	1.1316
13.3957	1.2117
13.1912	1.2527
12.9929	1.2546
12.8004	1.2017
12.6135	1.1235
12.432	1.2519
12.2557	1.6255
12.0843	1.9692
11.9176	2.3086
11.7555	2.5278
11.5977	2.6304
11.444	2.7241
11.2944	2.8337
11.1487	2.9785
11.0067	3.0427
10.8682	3.0356
10.7332	2.9487
10.6015	2.7759
10.473	2.6392
10.3476	2.5366
10.2251	2.4546
10.1056	2.3777
9.9887	2.4045
9.8746	2.5254
9.763	2.7173
9.6539	2.9346
9.5472	3.0911
9.4429	3.1638
9.3408	3.114
9.2409	2.956
9.1431	2.7141
9.0474	2.449
8.9536	2.219
8.8618	2.0315
8.7718	1.9145
8.6837	1.8665
8.5973	1.8706
8.5126	1.9065
8.4295	1.9446
8.3481	1.8572
8.2682	1.6528
8.1898	1.4094
8.1129	1.1394
8.0374	0.8372
7.9634	0.5461
7.8906	0.4138
7.8192	0.3787
7.7491	0.426
7.6802	0.5278
7.6126	0.6416
7.5461	0.7852
7.4807	0.9414
7.4165	1.0854
7.3534	1.2436
7.2914	1.408
7.2303	1.5706
7.1703	1.718
7.1113	1.8538
7.0533	1.9751
6.9962	2.0908
6.94	2.2319
6.8847	2.3572
6.8302	2.4763
6.7767	2.5703
6.7239	2.654
6.672	2.7422
6.6209	2.8225
6.5705	2.8965
6.5209	2.97
6.4721	2.9883
6.424	2.9531
6.3766	2.876
6.3299	2.6787
6.2838	2.3547
6.2385	1.8953
6.1937	1.3782
6.1496	1.0481
6.1062	0.9648
6.0633	0.9878
6.0211	1.1003
5.9794	1.3083
5.9383	1.6587
5.8978	2.1526
5.8578	2.7424
5.8184	3.2649
5.7794	3.6697
5.741	3.9319
5.7031	4.0979
5.6657	4.1863
5.6288	4.2517
5.5924	4.3208
5.5564	4.4067
5.5209	4.5342
5.4859	4.6877
5.4513	4.8765
5.4171	5.0622
5.3833	5.2275
5.35	5.3393
5.3171	5.436
5.2846	5.4819
5.2524	5.53
5.2207	5.5725
5.1893	5.6274
5.1584	5.6992
5.1277	5.7871
5.0975	5.9057
5.0676	6.0244
5.038	6.1506
5.0088	6.2839
4.98	6.4009
4.9514	6.5234
4.9232	6.6089
4.8953	6.6687
4.8678	6.727
4.8405	6.7849
4.8135	6.8435
4.7868	6.9048
4.7605	6.9646
4.7344	7.0146
4.7086	7.0696
4.6831	7.1145
4.6578	7.1587
4.6328	7.2195
4.6081	7.2668
4.5837	7.342
4.5595	7.4089
4.5356	7.4846
4.5119	7.5644
4.4884	7.6511
4.4652	7.7373
4.4423	7.8388
4.4196	7.9404
4.3971	8.0371
4.3748	8.1528
4.3528	8.2776
4.331	8.404
4.3094	8.5283
4.288	8.644
4.2668	8.7129
4.2458	8.9243
4.2251	9.0947
4.2045	9.2605
4.1841	9.4006
4.164	9.5439
4.144	9.7004
4.1242	9.8562
4.1046	10.001
4.0852	10.1369
4.066	10.2583
4.047	10.3882
4.0281	10.5036
4.0094	10.6003
3.9909	10.6748
3.9725	10.7363
3.9544	10.7846
3.9363	10.8408
3.9185	10.8662
3.9008	10.8777
3.8833	10.8857
3.8659	10.8757
3.8487	10.8637
3.8316	10.8388
3.8147	10.8051
3.7979	10.759
3.7813	10.7004
3.7648	10.6435
3.7485	10.5759
3.7323	10.5019
3.7162	10.4067
3.7003	10.311
3.6845	10.2112
3.6689	10.1059
3.6534	9.9895
3.638	9.8657
3.6227	9.7395
3.6076	9.5962
3.5926	9.4502
3.5777	9.2837
3.563	9.1094
3.5484	8.9433
3.5338	8.7473
3.5195	8.5298
3.5052	8.2927
3.491	8.1167
3.477	7.937
3.463	7.7529
3.4492	7.5327
3.4355	7.3005
3.4219	7.0317
3.4084	6.8015
3.395	6.6062
3.3817	6.3738
3.3685	6.1592
3.3554	5.9692
3.3425	5.7466
3.3296	5.5159
3.3168	5.2878
3.3041	5.0476
3.2915	4.823
3.279	4.6045
3.2666	4.383
3.2543	4.1733
3.2421	3.9673
3.23	3.7663
3.218	3.562
3.206	3.3811
3.1942	3.1958
3.1824	3.0185
3.1707	2.852
3.1591	2.6919
3.1476	2.5413
3.1362	2.3979
3.1249	2.2722
3.1136	2.1609
3.1024	2.0591
3.0913	1.9756
3.0803	1.9128
3.0694	1.8765
3.0585	1.8381
3.0477	1.8166
3.037	1.7913
3.0264	1.75
3.0158	1.7148
3.0053	1.6692
2.9949	1.6121
2.9845	1.5632
2.9743	1.5083
2.9641	1.4648
2.9539	1.4248
2.9439	1.3982
2.9339	1.3667
2.9239	1.3328
2.9141	1.3259
2.9043	1.3125
2.8946	1.3118
2.8849	1.3074
2.8753	1.2913
2.8658	1.2888
2.8563	1.3052
2.8469	1.3049
2.8375	1.2966
2.8282	1.2871
2.819	1.2781
2.8098	1.2788
2.8007	1.2659
2.7917	1.2483
2.7827	1.2415
2.7738	1.2292
2.7649	1.219
2.7561	1.2698
2.7473	1.3865
2.7386	1.6003
2.7299	1.9983
2.7213	2.6355
2.7128	3.5547
2.7043	4.5217
2.6959	5.4399
2.6875	6.2117
2.6791	6.7893
2.6709	7.2512
2.6626	7.8108
2.6545	8.146
2.6463	8.4233
2.6382	8.6628
2.6302	8.7822
2.6222	8.9575
2.6143	9.0715
2.6064	9.1242
2.5986	9.2202
2.5908	9.2673
2.583	9.2849
2.5753	9.3359
2.5677	9.3481
2.5601	9.3689
2.5525	9.4011
2.545	9.4526
2.5375	9.5154
2.5301	9.5674
2.5227	9.6506
2.5154	9.7395
2.5081	9.8401
2.5008	9.9477
2.4936	10.0427
2.4864	10.1694
2.4793	10.2741
2.4722	10.3899
2.4651	10.5136
2.4581	10.6538
2.4511	10.7998
2.4442	10.9106
2.4373	11.07
2.4305	11.2212
2.4236	11.3633
2.4169	11.5132
2.4101	11.6718
2.4034	11.8139
2.3967	11.9255
2.3901	12.0512
2.3835	12.185
2.377	12.2934
2.3704	12.435
2.364	12.5385
2.3575	12.6633
2.3511	12.7636
2.3447	12.8789
2.3384	12.9499
2.3321	13.0258
2.3258	13.1201
2.3195	13.1633
2.3133	13.2202
2.3071	13.2441
2.301	13.2885
2.2949	13.3672
2.2888	13.4619
2.2828	13.5424
2.2767	13.5434
2.2708	13.6186
2.2648	13.6567
2.2589	13.6631
2.253	13.6528
2.2471	13.6523
2.2413	13.685
2.2355	13.747
2.2297	13.7588
2.224	13.789
2.2183	13.812
2.2126	13.8486
2.207	13.8628
2.2013	13.8984
2.1957	13.9218
2.1902	13.9506
2.1846	13.9819
2.1791	13.9548
2.1736	14.0239
2.1682	14.0395
2.1628	14.0805
2.1574	14.0705
2.152	14.0527
2.1466	13.9997
2.1413	14.0239
2.136	14.0442
2.1308	14.0361
2.1255	14.0258
2.1203	13.9756
2.1151	13.9724
2.11	13.9795
2.1048	13.9724
2.0997	13.9863
2.0946	13.9572
2.0895	13.9565
2.0845	13.9438
2.0795	13.9267
