Name: Riebeckite Na_2(Fe^2+,Mg)_3,Fe_2^3+Si_8O_22(OH)_2
Type: Mineral
Class: Silicate
Subclass: Inosilicate
Particle Size: Coarse
Sample No.: IN-7A
Owner: JPL
Wavelength Range: TIR
Origin: Canada, Ontario
Description: Particle size was 125-500um.Collected by Ward's Original ASTER Spectral Library name was jpl.nicolet.mineral.silicate.inosilicate.coarse.in07a.spectrum.txt
Measurement: Hemispherical reflectance
X Units: Wavelength (micrometers)
Y Units: Reflectance (percent)
wavelength	value
15.3853	2.4091
15.1161	2.4537
14.8563	2.1179
14.6052	2.2197
14.3624	2.0962
14.1276	2.3546
13.9004	2.7655
13.6803	2.8768
13.4671	3.024
13.2604	2.8481
13.06	3.0723
12.8656	3.5905
12.6769	3.6128
12.4936	3.9728
12.3155	4.2542
12.1425	4.6814
11.9742	5.0961
11.8106	5.7205
11.6513	6.5329
11.4963	7.1933
11.3454	7.8331
11.1983	8.4214
11.0551	9.4484
10.9154	10.2264
10.7793	10.619
10.6465	12.2789
10.5169	14.5732
10.3904	17.4717
10.267	20.3348
10.1464	21.1023
10.0287	20.4407
9.9136	17.9768
9.8012	14.5361
9.6913	13.7335
9.5838	15.3004
9.4787	16.6617
9.3758	16.3044
9.2752	13.3179
9.1767	8.8684
9.0803	5.2567
8.9858	4.0228
8.8934	5.0293
8.8028	6.2007
8.714	3.5698
8.627	0.9558
8.5417	0.3108
8.4581	0.3592
8.3761	0.391
8.2957	0.3028
8.2169	0.4788
8.1395	0.4388
8.0635	0.5298
7.989	0.6851
7.9158	0.7576
7.8439	0.7861
7.7734	0.9243
7.7041	1.0299
7.636	1.2707
7.5691	1.2663
7.5034	1.3983
7.4388	1.5359
7.3753	1.5953
7.3129	1.7794
7.2515	1.8237
7.1912	1.9039
7.1318	2.0522
7.0734	2.3213
7.016	2.3242
6.9595	2.5852
6.9039	2.7535
6.8492	2.8333
6.7953	3.0356
6.7423	3.0216
6.6901	3.2201
6.6387	3.4173
6.5881	3.3546
6.5382	3.1112
6.4892	3.3495
6.4408	2.9343
6.3931	2.7417
6.3462	2.7095
6.2999	2.5931
6.2543	2.6031
6.2094	2.6254
6.1651	2.5141
6.1214	2.7437
6.0784	2.8089
6.0359	2.7957
5.994	2.7436
5.9527	2.857
5.912	2.8561
5.8718	2.9273
5.8322	2.9971
5.7931	2.9435
5.7545	2.9841
5.7165	3.1166
5.6789	3.0778
5.6418	3.3668
5.6052	3.2545
5.5691	3.3542
5.5334	3.5846
5.4982	3.808
5.4635	4.2625
5.4291	4.479
5.3952	4.9416
5.3618	5.1388
5.3287	5.187
5.2961	5.3281
5.2638	5.4677
5.2319	5.6132
5.2004	5.6409
5.1693	5.6538
5.1386	5.5546
5.1082	5.5691
5.0782	5.5148
5.0485	5.6788
5.0192	5.8492
4.9902	5.9751
4.9616	6.277
4.9332	6.6066
4.9052	7.0587
4.8776	7.6711
4.8502	8.1627
4.8231	8.8163
4.7963	9.3999
4.7699	10.0908
4.7437	10.7342
4.7178	11.4301
4.6922	12.3951
4.6668	13.3442
4.6418	14.4912
4.617	15.8974
4.5924	17.3314
4.5681	18.8121
4.5441	20.1003
4.5203	21.2677
4.4968	22.1317
4.4735	22.9798
4.4505	23.6625
4.4277	24.1189
4.4051	24.5452
4.3828	24.8616
4.3607	25.2894
4.3388	25.4592
4.3171	25.7466
4.2956	26.1396
4.2744	26.5316
4.2534	26.6437
4.2325	27.0982
4.2119	27.1753
4.1915	27.3928
4.1712	27.7344
4.1512	27.9323
4.1313	28.2651
4.1117	28.6156
4.0922	28.9854
4.0729	29.2635
4.0538	29.5552
4.0349	29.6424
4.0161	29.8362
3.9976	29.8593
3.9792	30.0881
3.9609	30.3675
3.9428	31.0678
3.9249	31.5208
3.9072	31.7851
3.8896	32.1182
3.8722	32.477
3.8549	32.7047
3.8378	33.008
3.8208	33.3357
3.804	33.6495
3.7873	33.9285
3.7708	34.1534
3.7544	34.4435
3.7382	34.6606
3.7221	34.7157
3.7061	34.7933
3.6903	35.1867
3.6746	35.3463
3.659	35.4168
3.6436	35.6071
3.6283	35.7911
3.6131	35.9524
3.5981	35.9662
3.5832	36.1868
3.5684	36.3286
3.5537	36.265
3.5391	36.2834
3.5247	36.2088
3.5104	36.0607
3.4962	35.894
3.4821	35.8364
3.4681	36.0054
3.4543	36.2076
3.4405	36.1287
3.4269	35.8671
3.4133	35.7124
3.3999	35.7632
3.3866	35.494
3.3733	35.2661
3.3602	35.0373
3.3472	34.9168
3.3343	34.7969
3.3215	34.6574
3.3088	34.2633
3.2961	33.996
3.2836	33.8955
3.2712	33.9356
3.2588	34.0326
3.2466	34.3742
3.2345	34.5404
3.2224	34.6471
3.2104	34.5761
3.1985	34.3672
3.1867	33.9836
3.175	33.4972
3.1634	33.0154
3.1519	32.681
3.1404	32.6436
3.129	32.5468
3.1178	32.5172
3.1065	32.5048
3.0954	32.2954
3.0844	32.1187
3.0734	31.9151
3.0625	31.8029
3.0517	31.2512
3.041	31.2763
3.0303	30.6942
3.0197	30.353
3.0092	29.9395
2.9987	29.4395
2.9884	29.0482
2.9781	28.5706
2.9678	28.2376
2.9577	27.9213
2.9476	27.7014
2.9376	27.2337
2.9276	26.9309
2.9177	26.7104
2.9079	26.3099
2.8982	25.9389
2.8885	25.6627
2.8789	25.3354
2.8693	25.1355
2.8598	24.6383
2.8504	24.2695
2.841	23.7539
2.8317	23.3191
2.8224	23.1628
2.8133	22.8695
2.8041	22.7534
2.7951	21.9094
2.786	20.9647
2.7771	18.0693
2.7682	13.8736
2.7594	10.3185
2.7506	6.7622
2.7418	5.9319
2.7332	5.3815
2.7246	5.4643
2.716	5.9837
2.7075	7.4614
2.699	11.2272
2.6906	20.6151
2.6823	31.558
2.674	36.9432
2.6657	40.0302
2.6575	38.6901
2.6494	38.6394
2.6413	38.6812
2.6332	38.9851
2.6252	39.0031
2.6173	40.5905
2.6094	40.3723
2.6015	40.5074
2.5937	41.9368
2.5859	40.4873
2.5782	40.0633
2.5706	40.1847
2.5629	40.4539
2.5554	39.7868
2.5478	40.0429
2.5403	39.6922
2.5329	39.6814
2.5255	39.3203
2.5181	38.7584
2.5108	38.4072
2.5035	38.359
2.4963	38.2663
2.4891	38.3318
2.482	38.2693
2.4749	38.2152
2.4678	38.446
2.4608	38.459
2.4538	38.2143
2.4468	38.2876
2.4399	38.2375
2.4331	37.9771
2.4262	37.1503
2.4194	35.8409
2.4127	34.5
2.4059	32.9595
2.3993	31.6052
2.3926	31.2897
2.386	31.521
2.3795	32.4291
2.3729	34.0404
2.3664	34.7325
2.36	34.3433
2.3535	33.5349
2.3471	31.8159
2.3408	30.5298
2.3345	29.3376
2.3282	28.8189
2.3219	29.4653
2.3157	30.6306
2.3095	32.9216
2.3034	35.2506
2.2972	37.2441
2.2911	38.3516
2.2851	39.3834
2.279	40.0022
2.2731	40.2323
2.2671	40.4621
2.2612	40.5227
2.2553	40.5933
2.2494	40.9428
2.2435	41.0073
2.2377	40.9584
2.232	40.9761
2.2262	40.9295
2.2205	40.8195
2.2148	40.6022
2.2091	40.4059
2.2035	40.3196
2.1979	40.2246
2.1923	39.9999
2.1868	39.9966
2.1812	39.6567
2.1758	39.978
2.1703	39.5485
2.1649	39.3932
2.1595	39.2415
2.1541	39.0786
2.1487	39.1175
2.1434	38.571
2.1381	38.5206
2.1328	38.2604
2.1275	38.1854
2.1223	37.9716
2.1171	38.0477
2.112	37.8608
2.1068	37.9326
2.1017	37.8292
2.0966	37.6684
2.0915	37.7112
2.0865	37.8796
2.0814	37.6677
2.0764	37.7102
2.0715	37.553
2.0665	37.5027
2.0616	37.3436
2.0567	37.2476
2.0518	37.3486
2.0469	37.2392
2.0421	37.0413
2.0373	36.9051
2.0325	36.6949
2.0277	36.4783
2.0229	36.1747
2.0182	36.3756
2.0135	36.3816
2.0088	36.0816
2.0042	35.6413
