Name: Realgar AsS
Type: Mineral
Class: Sulfide
Subclass: None
Particle Size: Coarse
Sample No.: S-3A
Owner: JPL
Wavelength Range: TIR
Description: Particle size was 125-500um.Collected by JPL Original ASTER Spectral Library name was jpl.nicolet.mineral.sulfide.none.coarse.s03a.spectrum.txt
Measurement: Hemispherical reflectance
X Units: Wavelength (micrometers)
Y Units: Reflectance (percent)
wavelength	value
15.3853	16.6048
15.1161	13.9127
14.8563	11.1723
14.6052	9.6455
14.3624	8.956
14.1276	11.639
13.9004	11.5649
13.6803	13.4994
13.4671	15.362
13.2604	17.8219
13.06	19.6239
12.8656	20.1477
12.6769	20.1716
12.4936	20.3642
12.3155	20.4934
12.1425	21.1218
11.9742	22.1292
11.8106	23.2452
11.6513	25.2139
11.4963	26.455
11.3454	27.7934
11.1983	29.2943
11.0551	30.5939
10.9154	32.1712
10.7793	33.6839
10.6465	35.1324
10.5169	36.5896
10.3904	37.8035
10.267	37.9611
10.1464	37.3877
10.0287	36.5978
9.9136	35.8438
9.8012	34.6511
9.6913	34.077
9.5838	33.7658
9.4787	33.8491
9.3758	34.5981
9.2752	35.215
9.1767	35.8511
9.0803	36.4085
8.9858	36.824
8.8934	37.6654
8.8028	38.4134
8.714	39.3913
8.627	40.6585
8.5417	41.7684
8.4581	43.1011
8.3761	44.4314
8.2957	45.4429
8.2169	46.7167
8.1395	47.628
8.0635	48.4344
7.989	48.9545
7.9158	49.2645
7.8439	49.5715
7.7734	49.8565
7.7041	50.1781
7.636	50.2871
7.5691	50.772
7.5034	50.9886
7.4388	51.1036
7.3753	50.984
7.3129	50.7785
7.2515	50.5526
7.1912	50.5441
7.1318	50.053
7.0734	49.5091
7.016	49.0047
6.9595	49.0988
6.9039	48.8372
6.8492	49.1274
6.7953	49.8182
6.7423	50.1877
6.6901	50.3747
6.6387	50.7952
6.5881	49.9119
6.5382	49.0453
6.4892	48.9149
6.4408	47.272
6.3931	45.908
6.3462	44.4143
6.2999	41.5603
6.2543	38.6249
6.2094	35.6792
6.1651	33.1213
6.1214	31.7227
6.0784	31.5269
6.0359	32.3433
5.994	34.2137
5.9527	36.6638
5.912	39.9032
5.8718	43.5899
5.8322	47.5029
5.7931	50.913
5.7545	54.2929
5.7165	57.0828
5.6789	59.1147
5.6418	61.0857
5.6052	62.1937
5.5691	63.3407
5.5334	64.234
5.4982	64.9693
5.4635	65.5912
5.4291	65.8929
5.3952	66.0858
5.3618	66.3617
5.3287	66.4784
5.2961	66.5794
5.2638	66.6272
5.2319	66.5276
5.2004	66.3353
5.1693	66.0815
5.1386	65.7791
5.1082	65.4494
5.0782	65.0617
5.0485	64.4687
5.0192	64.0253
4.9902	63.4633
4.9616	62.9768
4.9332	62.4023
4.9052	61.8846
4.8776	61.3824
4.8502	60.9879
4.8231	60.6025
4.7963	60.1915
4.7699	59.9238
4.7437	59.6851
4.7178	59.5827
4.6922	59.5708
4.6668	59.5856
4.6418	59.5097
4.617	59.6786
4.5924	59.9428
4.5681	60.1661
4.5441	60.3835
4.5203	60.6989
4.4968	60.9782
4.4735	61.3217
4.4505	61.5226
4.4277	61.7786
4.4051	62.1246
4.3828	62.4023
4.3607	62.6442
4.3388	62.7231
4.3171	62.8406
4.2956	62.7739
4.2744	62.6616
4.2534	63.3056
4.2325	63.3093
4.2119	63.7426
4.1915	64.1788
4.1712	64.3575
4.1512	64.5208
4.1313	64.7124
4.1117	65.0129
4.0922	65.1756
4.0729	65.3961
4.0538	65.6716
4.0349	65.998
4.0161	66.2478
3.9976	66.4792
3.9792	66.7672
3.9609	66.9531
3.9428	67.0649
3.9249	67.2199
3.9072	67.2848
3.8896	67.2405
3.8722	67.2633
3.8549	67.0635
3.8378	66.8019
3.8208	66.5897
3.804	66.2813
3.7873	65.9473
3.7708	65.5667
3.7544	65.1506
3.7382	64.7203
3.7221	64.1245
3.7061	63.5941
3.6903	63.0011
3.6746	62.336
3.659	61.7107
3.6436	60.9795
3.6283	60.3059
3.6131	59.4297
3.5981	58.7117
3.5832	57.7938
3.5684	56.94
3.5537	56.0357
3.5391	54.994
3.5247	53.8883
3.5104	52.5449
3.4962	51.4143
3.4821	50.6088
3.4681	49.8708
3.4543	48.8173
3.4405	47.629
3.4269	46.0571
3.4133	45.0767
3.3999	44.5746
3.3866	43.7688
3.3733	42.6819
3.3602	42.0826
3.3472	41.1492
3.3343	40.1094
3.3215	39.1048
3.3088	38.0643
3.2961	36.915
3.2836	35.976
3.2712	34.8773
3.2588	33.7846
3.2466	32.7863
3.2345	31.8082
3.2224	30.8759
3.2104	29.9365
3.1985	28.9114
3.1867	27.9656
3.175	27.2112
3.1634	26.3747
3.1519	25.7638
3.1404	24.9966
3.129	24.2805
3.1178	23.8947
3.1065	23.4063
3.0954	22.992
3.0844	22.7132
3.0734	22.4448
3.0625	22.0907
3.0517	21.8551
3.041	21.778
3.0303	21.9313
3.0197	21.5027
3.0092	21.4486
2.9987	21.2204
2.9884	21.1927
2.9781	21.0769
2.9678	20.566
2.9577	20.7693
2.9476	20.8758
2.9376	20.8929
2.9276	21.0373
2.9177	21.334
2.9079	21.4545
2.8982	22.0207
2.8885	22.1739
2.8789	22.7203
2.8693	23.0925
2.8598	23.6915
2.8504	24.2493
2.841	25.0971
2.8317	25.3853
2.8224	26.4814
2.8133	27.2704
2.8041	28.5066
2.7951	29.4444
2.786	31.0297
2.7771	32.3913
2.7682	33.9802
2.7594	35.8352
2.7506	38.1683
2.7418	41.239
2.7332	44.7627
2.7246	49.9417
2.716	55.0508
2.7075	60.3916
2.699	65.0149
2.6906	68.3207
2.6823	70.7456
2.674	72.6612
2.6657	74.5125
2.6575	75.0399
2.6494	75.7807
2.6413	76.4955
2.6332	77.2443
2.6252	77.7585
2.6173	78.4561
2.6094	78.7449
2.6015	78.9564
2.5937	79.6042
2.5859	79.4017
2.5782	79.4072
2.5706	79.5167
2.5629	79.8015
2.5554	79.5908
2.5478	79.6797
2.5403	79.6039
2.5329	79.6259
2.5255	79.8559
2.5181	79.7743
2.5108	80.0557
2.5035	80.2315
2.4963	80.3601
2.4891	80.714
2.482	80.9494
2.4749	81.0993
2.4678	81.5214
2.4608	81.6789
2.4538	81.9828
2.4468	82.103
2.4399	82.5216
2.4331	82.7929
2.4262	82.8719
2.4194	83.1395
2.4127	83.2126
2.4059	83.6869
2.3993	83.6924
2.3926	83.7333
2.386	84.2504
2.3795	84.2122
2.3729	84.5155
2.3664	84.6349
2.36	84.695
2.3535	84.6736
2.3471	84.9297
2.3408	84.9235
2.3345	85.0306
2.3282	85.0877
2.3219	85.2758
2.3157	85.2544
2.3095	85.3176
2.3034	85.4431
2.2972	85.3959
2.2911	85.5984
2.2851	85.7305
2.279	85.6835
2.2731	85.7137
2.2671	85.6511
2.2612	85.8622
2.2553	85.7894
2.2494	85.6485
2.2435	85.7651
2.2377	85.9458
2.232	85.8998
2.2262	86.1199
2.2205	85.906
2.2148	86.0192
2.2091	86.0391
2.2035	85.8511
2.1979	86.0477
2.1923	85.9362
2.1868	86.0121
2.1812	85.9322
2.1758	85.801
2.1703	85.9016
2.1649	85.7918
2.1595	85.7423
2.1541	85.642
2.1487	85.6779
2.1434	85.6063
2.1381	85.5868
2.1328	85.573
2.1275	85.6366
2.1223	85.5187
2.1171	85.2325
2.112	85.205
2.1068	85.1432
2.1017	85.2747
2.0966	84.8606
2.0915	85.0423
2.0865	85.1743
2.0814	84.5043
2.0764	84.3492
2.0715	84.7344
2.0665	84.0849
2.0616	84.1627
2.0567	84.2813
2.0518	83.9997
2.0469	83.8557
2.0421	83.7298
2.0373	83.5143
2.0325	83.5584
2.0277	83.1868
2.0229	83.0266
2.0182	82.918
2.0135	82.6745
2.0088	82.447
2.0042	82.1986
