Name: Colemanite Ca_2B_6O_11.5H_2O
Type: Mineral
Class: Borate
Subclass: None
Particle Size: Coarse
Sample No.: B-1A
Owner: JPL
Wavelength Range: VSWIR
Origin: USA, California, Kern County, Boron
Description: Particle size was 125-500um.Collected by Burminco Original ASTER Spectral Library name was jpl.beckman.mineral.borate.none.coarse.b01ac.spectrum.txt
Measurement: Hemispherical reflectance
X Units: Wavelength (micrometers)
Y Units: Reflectance (percent)
wavelength	value
0.4	73.59
0.403	74.3
0.406	74.58
0.409	74.99
0.412	75.35
0.415	75.52
0.418	76.33
0.421	76.1
0.424	76.39
0.427	76.57
0.43	76.86
0.433	77.21
0.436	77.27
0.439	77.67
0.442	77.67
0.445	77.97
0.448	78.38
0.451	78.08
0.454	78.79
0.457	78.79
0.46	78.97
0.463	78.87
0.466	79.04
0.469	79.57
0.472	79.28
0.475	79.52
0.478	79.65
0.481	79.83
0.484	80.12
0.487	79.94
0.49	80.48
0.493	80.43
0.496	80.55
0.499	80.96
0.502	80.84
0.505	81.2
0.508	81.02
0.511	81.14
0.514	81.43
0.517	81.37
0.52	81.61
0.523	81.72
0.526	81.84
0.529	82.3
0.532	81.9
0.535	82.07
0.538	82.59
0.541	82.18
0.544	82.48
0.547	82.12
0.55	82.48
0.553	82.71
0.556	82.48
0.559	82.48
0.562	82.83
0.565	83.24
0.568	83.12
0.571	83.36
0.574	83.3
0.577	83.24
0.58	83
0.583	83.06
0.586	83.3
0.589	83.06
0.592	83.24
0.595	82.89
0.598	83.42
0.601	83.53
0.604	83.47
0.607	83.65
0.61	83.76
0.613	83.82
0.616	84.17
0.619	84.29
0.622	84.34
0.625	83.93
0.628	84.4
0.631	84.23
0.634	84.34
0.637	84.17
0.64	84.05
0.643	84.4
0.646	84.4
0.649	84.52
0.652	84.23
0.655	84.46
0.658	84.64
0.661	84.7
0.664	84.52
0.667	84.4
0.67	84.75
0.673	84.58
0.676	84.7
0.679	84.46
0.682	84.7
0.685	84.81
0.688	84.58
0.691	84.81
0.694	84.46
0.697	84.93
0.7	84.64
0.703	84.64
0.706	84.81
0.709	84.87
0.712	84.4
0.715	84.81
0.718	84.58
0.721	84.52
0.724	84.46
0.727	84.4
0.73	84.7
0.733	84.4
0.736	84.4
0.739	84.34
0.742	83.82
0.745	83.82
0.748	83.87
0.751	83.93
0.754	84.17
0.757	83.93
0.76	84.23
0.763	84.29
0.766	84.4
0.769	84.4
0.772	84.17
0.775	84.7
0.778	84.64
0.781	84.58
0.784	84.7
0.787	84.29
0.79	84.58
0.793	84.46
0.796	84.52
0.799	84.46
0.808	84.34
0.82	84.29
0.832	84.17
0.844	84.17
0.856	84.11
0.868	84.05
0.88	83.99
0.892	83.93
0.904	83.87
0.916	83.59
0.928	83.18
0.94	82.83
0.952	81.31
0.964	76.77
0.976	76.18
0.988	79.5
1	80.78
1.012	81.55
1.024	81.9
1.036	82.07
1.048	82.12
1.06	82.12
1.072	81.96
1.084	81.61
1.096	81.37
1.108	81.08
1.12	80.9
1.132	80.49
1.144	79.5
1.156	78.21
1.168	76.5
1.18	75.02
1.192	74.72
1.204	74.58
1.216	73.54
1.228	72.2
1.24	72.43
1.252	72.61
1.264	72.23
1.276	71.64
1.288	70.86
1.3	69.62
1.312	67.69
1.324	65.4
1.336	63.18
1.348	62.69
1.36	60.95
1.372	58.03
1.384	53.04
1.396	45.3
1.408	31.58
1.42	18.73
1.432	28.1
1.444	31.2
1.456	32.48
1.468	34.75
1.48	35.86
1.492	35.39
1.504	34.4
1.516	32.72
1.528	30.97
1.54	28.87
1.552	27.59
1.564	27.3
1.576	27.65
1.588	27.65
1.6	26.83
1.612	25.25
1.624	23.62
1.636	22.22
1.648	21.23
1.66	20.7
1.672	20.63
1.684	20.8
1.696	21.21
1.708	21.78
1.72	22.36
1.732	22.42
1.744	22.42
1.756	22.25
1.768	22.02
1.78	21.9
1.792	21.9
1.804	21.95
1.816	21.93
1.828	22.03
1.84	22.11
1.852	22.1
1.864	21.74
1.876	20.87
1.888	19.71
1.9	18.26
1.912	16.18
1.924	13.68
1.936	11.26
1.948	9.58
1.96	9.06
1.972	9.05
1.984	9.45
1.996	9.66
2.008	10.05
2.02	10.45
2.032	10.47
2.044	10.57
2.056	10.55
2.068	10.26
2.08	8.93
2.092	6.76
2.104	5.27
2.116	5.56
2.128	6.56
2.14	7.3
2.152	7.08
2.164	6.58
2.176	6.04
2.188	5.77
2.2	5.5
2.212	5.79
2.224	6.43
2.236	7.16
2.248	7.96
2.26	8.59
2.272	9.21
2.284	9.43
2.296	9.64
2.308	9.68
2.32	9.22
2.332	8.74
2.344	8.04
2.356	7.24
2.368	6.27
2.38	5.42
2.392	4.63
2.404	4
2.416	3.61
2.428	3.38
2.44	3.21
2.452	3.09
2.464	2.93
2.476	2.99
2.488	2.99
2.5	2.87
