Name: Tschermigite (NH_4)Al(SO_4)_2.12H_2O
Type: Mineral
Class: Sulfate
Subclass: None
Particle Size: Fine
Sample No.: SO-6A
Owner: JPL
Wavelength Range: TIR
Origin: USA, Nevada, Esmeralda County, Silver Peak
Description: Particle size was 0-45um.Collected by Burminco Original ASTER Spectral Library name was jpl.nicolet.mineral.sulfate.none.fine.so06a.spectrum.txt
Measurement: Hemispherical reflectance
X Units: Wavelength (micrometers)
Y Units: Reflectance (percent)
wavelength	value
15.3853	0.8536
15.1161	1.0188
14.8563	1.193
14.6052	1.1908
14.3624	1.1568
14.1276	0.9082
13.9004	0.8878
13.6803	0.7733
13.4671	0.576
13.2604	0.8839
13.06	0.7421
12.8656	0.8436
12.6769	0.9886
12.4936	0.9766
12.3155	1.2272
12.1425	1.2048
11.9742	1.26
11.8106	1.1406
11.6513	1.3115
11.4963	1.3857
11.3454	1.176
11.1983	1.064
11.0551	1.1441
10.9154	1.0255
10.7793	1.1055
10.6465	1.0382
10.5169	1.0381
10.3904	1.1063
10.267	1.4017
10.1464	1.3427
10.0287	1.6539
9.9136	1.8145
9.8012	1.9878
9.6913	2.0817
9.5838	2.0468
9.4787	2.2999
9.3758	2.328
9.2752	2.575
9.1767	3.7269
9.0803	4.9637
8.9858	4.822
8.8934	4.208
8.8028	2.579
8.714	0.7974
8.627	0.2134
8.5417	0.1605
8.4581	0.3961
8.3761	0.3764
8.2957	0.1158
8.2169	0.4557
8.1395	0.5949
8.0635	0.7388
7.989	1.067
7.9158	1.2232
7.8439	1.4321
7.7734	1.5659
7.7041	1.6346
7.636	1.63
7.5691	1.7602
7.5034	1.6769
7.4388	1.7364
7.3753	1.8426
7.3129	1.7587
7.2515	1.6367
7.1912	1.7209
7.1318	1.5777
7.0734	1.695
7.016	1.4615
6.9595	1.4264
6.9039	1.3337
6.8492	1.4495
6.7953	1.3782
6.7423	1.3978
6.6901	1.3789
6.6387	1.4168
6.5881	1.5118
6.5382	1.325
6.4892	1.2821
6.4408	1.2706
6.3931	1.0631
6.3462	1.1514
6.2999	1.0517
6.2543	0.885
6.2094	0.9012
6.1651	0.8367
6.1214	0.7386
6.0784	0.7952
6.0359	0.6477
5.994	0.7389
5.9527	0.6402
5.912	0.8034
5.8718	0.8978
5.8322	0.8521
5.7931	0.8358
5.7545	1.189
5.7165	1.0488
5.6789	1.1336
5.6418	1.3398
5.6052	1.4034
5.5691	1.5966
5.5334	1.62
5.4982	1.7912
5.4635	1.9427
5.4291	2.0946
5.3952	2.259
5.3618	2.3695
5.3287	2.4092
5.2961	2.4994
5.2638	2.5884
5.2319	2.597
5.2004	2.6643
5.1693	2.7962
5.1386	2.8208
5.1082	2.8551
5.0782	2.8239
5.0485	2.9146
5.0192	3.0049
4.9902	2.9736
4.9616	3.0046
4.9332	2.9863
4.9052	2.9655
4.8776	2.9243
4.8502	2.8053
4.8231	2.5396
4.7963	2.5366
4.7699	2.6135
4.7437	2.5516
4.7178	2.5136
4.6922	2.7643
4.6668	2.7609
4.6418	2.6518
4.617	2.652
4.5924	2.7622
4.5681	2.6151
4.5441	2.7371
4.5203	2.7082
4.4968	2.6671
4.4735	2.5744
4.4505	2.533
4.4277	2.6335
4.4051	2.4879
4.3828	2.3367
4.3607	2.2061
4.3388	2.1056
4.3171	2.1246
4.2956	1.9755
4.2744	1.9202
4.2534	1.8232
4.2325	1.8365
4.2119	1.7592
4.1915	1.5669
4.1712	1.5608
4.1512	1.3025
4.1313	1.3304
4.1117	1.2786
4.0922	1.1759
4.0729	1.2232
4.0538	1.0685
4.0349	1.0139
4.0161	1.1112
3.9976	1.0336
3.9792	0.9333
3.9609	1.0751
3.9428	1.1113
3.9249	1.0773
3.9072	1.0229
3.8896	1.136
3.8722	1.1317
3.8549	1.1565
3.8378	1.1583
3.8208	1.1381
3.804	1.1611
3.7873	1.2161
3.7708	1.0789
3.7544	1.132
3.7382	1.1034
3.7221	1.0438
3.7061	1.1096
3.6903	0.9932
3.6746	1.0637
3.659	1.0565
3.6436	1.122
3.6283	1.1179
3.6131	1.062
3.5981	1.0004
3.5832	1.0717
3.5684	0.9656
3.5537	1.044
3.5391	0.9437
3.5247	0.9793
3.5104	0.9325
3.4962	0.8998
3.4821	1.0919
3.4681	0.9894
3.4543	0.9869
3.4405	0.8375
3.4269	0.7903
3.4133	0.9126
3.3999	0.8497
3.3866	0.8511
3.3733	0.7554
3.3602	0.7167
3.3472	0.7914
3.3343	0.8311
3.3215	0.6557
3.3088	0.6946
3.2961	0.656
3.2836	0.7619
3.2712	0.6517
3.2588	0.585
3.2466	0.5486
3.2345	0.6116
3.2224	0.5987
3.2104	0.5077
3.1985	0.4368
3.1867	0.6441
3.175	0.6047
3.1634	0.503
3.1519	0.5701
3.1404	0.5426
3.129	0.57
3.1178	0.6932
3.1065	0.5386
3.0954	0.5596
3.0844	0.5956
3.0734	0.661
3.0625	0.5401
3.0517	0.736
3.041	0.7773
3.0303	0.7839
3.0197	0.7154
3.0092	0.7577
2.9987	0.5894
2.9884	0.8064
2.9781	0.6762
2.9678	0.8692
2.9577	0.5448
2.9476	0.4774
2.9376	0.5023
2.9276	0.3437
2.9177	0.364
2.9079	0.4151
2.8982	0.4218
2.8885	0.2416
2.8789	0.3311
2.8693	0.4664
2.8598	0.3403
2.8504	0.3537
2.841	0.5313
2.8317	0.2938
2.8224	0.2666
2.8133	0.5071
2.8041	0.3246
2.7951	0.4605
2.786	0.703
2.7771	0.9952
2.7682	1.567
2.7594	2.4093
2.7506	3.1968
2.7418	4.8187
2.7332	5.8584
2.7246	7.5891
2.716	8.5076
2.7075	9.6852
2.699	10.6653
2.6906	11.3407
2.6823	12.2319
2.674	13.0441
2.6657	14.0473
2.6575	14.4812
2.6494	14.9593
2.6413	15.5272
2.6332	16.1902
2.6252	16.4186
2.6173	17.1768
2.6094	17.2259
2.6015	17.5141
2.5937	17.9698
2.5859	17.8283
2.5782	18.0103
2.5706	18.0416
2.5629	18.1799
2.5554	17.8382
2.5478	17.7865
2.5403	17.8131
2.5329	17.7035
2.5255	17.851
2.5181	18.1658
2.5108	18.492
2.5035	18.8498
2.4963	19.3239
2.4891	19.7455
2.482	20.1084
2.4749	20.6382
2.4678	20.951
2.4608	21.4943
2.4538	21.8872
2.4468	22.3365
2.4399	22.9359
2.4331	23.7632
2.4262	24.4982
2.4194	25.1094
2.4127	25.7768
2.4059	26.1742
2.3993	26.912
2.3926	27.1437
2.386	27.6752
2.3795	28.0336
2.3729	28.1803
2.3664	28.1789
2.36	28.5004
2.3535	28.5925
2.3471	28.8321
2.3408	28.6766
2.3345	28.6967
2.3282	28.4452
2.3219	28.3611
2.3157	28.2028
2.3095	28.2493
2.3034	28.3861
2.2972	28.3654
2.2911	28.5244
2.2851	28.3982
2.279	28.5386
2.2731	28.605
2.2671	28.5863
2.2612	28.6543
2.2553	28.69
2.2494	28.6535
2.2435	28.6509
2.2377	28.4893
2.232	28.5827
2.2262	28.3303
2.2205	28.2286
2.2148	28.3418
2.2091	28.325
2.2035	28.1826
2.1979	28.104
2.1923	28.0908
2.1868	28.0635
2.1812	27.9559
2.1758	27.9555
2.1703	27.8011
2.1649	27.7152
2.1595	28.0098
2.1541	28.0625
2.1487	27.5701
2.1434	28.1157
2.1381	27.9816
2.1328	28.26
2.1275	28.5897
2.1223	28.5589
2.1171	28.7721
2.112	28.8751
2.1068	28.8325
2.1017	29.2513
2.0966	29.2212
2.0915	29.253
2.0865	29.3819
2.0814	29.4613
2.0764	29.5789
2.0715	29.5151
2.0665	29.5461
2.0616	29.6508
2.0567	29.269
2.0518	29.4242
2.0469	29.27
2.0421	28.7651
2.0373	28.3577
2.0325	28.0291
2.0277	27.8573
2.0229	26.884
2.0182	26.4858
2.0135	26.0658
2.0088	25.1445
2.0042	24.4364
