Name: Calcite CaCO3
Type: Mineral
Class: Carbonate
Subclass: None
Particle Size: Coarse
Sample No.: calcite_2
Owner: JHU
Wavelength Range: TIR
Origin: Hunt and Salisbury Collection #48B; Sample from CherokeeCo., Kansas.
Description: No solid sample is available for the specimen.  Microscopic examination of the white powder fraction indicated pure calcite. Particle size was 74-250 Micrometers. Original ASTER Spectral Library name was jhu.nicolet.mineral.carbonate.none.coarse.calcit2.spectrum.txt
Measurement: Bidirectional reflectance
X Units: Wavelength (micrometers)
Y Units: Reflectance (percent)
wavelength	value
25.0442	4.8774
24.3388	3.52
23.6719	2.1706
23.0407	1.4233
22.4422	1.0715
21.8741	0.8008
21.334	0.8198
20.8199	0.9102
20.33	0.9028
19.8627	1.0103
19.4163	1.0393
18.9896	1.1831
18.5812	1.165
18.19	1.3049
17.815	1.3684
17.4551	1.4104
17.1094	1.4531
16.7772	1.531
16.4576	1.5964
16.15	1.7744
15.8537	1.8867
15.568	2.0146
15.2925	2.198
15.0265	2.4048
14.7697	2.512
14.5214	2.4268
14.2814	1.9343
14.0492	1.5583
13.8244	1.6565
13.6067	2.4934
13.3957	2.886
13.1912	2.7219
12.9929	2.3498
12.8004	2.2908
12.6135	2.4294
12.432	2.5395
12.2557	2.5762
12.0843	2.6973
11.9176	2.5935
11.7555	2.178
11.5977	2.3523
11.444	2.1746
11.2944	4.9653
11.1487	3.74
11.0067	2.4475
10.8682	2.457
10.7332	2.2258
10.6015	2.2178
10.473	2.3025
10.3476	2.4304
10.2251	2.2978
10.1056	2.2498
9.9887	2.1514
9.8746	2.103
9.763	2.1619
9.6539	2.3962
9.5472	2.4993
9.4429	2.5527
9.3408	2.4753
9.2409	2.3057
9.1431	2.5754
9.0474	2.5552
8.9536	2.4914
8.8618	2.4143
8.7718	2.3059
8.6837	2.1748
8.5973	2.041
8.5126	2.0478
8.4295	2.0764
8.3481	2.168
8.2682	2.2297
8.1898	2.2673
8.1129	2.2541
8.0374	2.2532
7.9634	2.2976
7.8906	2.2881
7.8192	2.3079
7.7491	2.3125
7.6802	2.2827
7.6126	2.2368
7.5461	2.2473
7.4807	2.271
7.4165	2.2788
7.3534	2.2703
7.2914	2.2327
7.2303	2.3052
7.1703	2.5569
7.1113	3.0142
7.0533	3.3433
6.9962	3.4153
6.94	3.4736
6.8847	3.6501
6.8302	3.8826
6.7767	4.1758
6.7239	4.7261
6.672	5.5205
6.6209	6.2773
6.5705	7.2378
6.5209	8.2707
6.4721	9.1916
6.424	7.9262
6.3766	6.7856
6.3299	5.4282
6.2838	4.2964
6.2385	3.0901
6.1937	1.7917
6.1496	0.9783
6.1062	0.7224
6.0633	0.7483
6.0211	0.8232
5.9794	0.9009
5.9383	0.9727
5.8978	1.0395
5.8578	1.083
5.8184	1.0947
5.7794	1.1121
5.741	1.1414
5.7031	1.2139
5.6657	1.3123
5.6288	1.3699
5.5924	1.1216
5.5564	0.8564
5.5209	1.394
5.4859	1.7849
5.4513	2.1291
5.4171	2.5024
5.3833	2.8638
5.35	3.1914
5.3171	3.5039
5.2846	3.7715
5.2524	3.9834
5.2207	4.156
5.1893	4.3249
5.1584	4.4487
5.1277	4.5051
5.0975	3.5566
5.0676	4.7468
5.038	4.8115
5.0088	4.8003
4.98	4.7851
4.9514	4.758
4.9232	4.7627
4.8953	4.7983
4.8678	4.8232
4.8405	4.8523
4.8135	4.8713
4.7868	4.8567
4.7605	4.6682
4.7344	4.2226
4.7086	3.2942
4.6831	2.7097
4.6578	2.7075
4.6328	3.3113
4.6081	3.8183
4.5837	3.9729
4.5595	4.0093
4.5356	4.029
4.5119	4.051
4.4884	4.2065
4.4652	4.5058
4.4423	4.7488
4.4196	4.979
4.3971	5.0808
4.3748	5.1238
4.3528	4.8992
4.331	4.7995
4.3094	4.7981
4.288	4.885
4.2668	4.8647
4.2458	4.7737
4.2251	4.6675
4.2045	4.5798
4.1841	4.4282
4.164	4.2502
4.144	4.0193
4.1242	3.7165
4.1046	3.4148
4.0852	3.1172
4.066	2.76
4.047	2.3579
4.0281	1.9119
4.0094	1.6343
3.9909	1.3757
3.9725	1.3083
3.9544	1.3999
3.9363	1.6548
3.9185	1.7151
3.9008	1.7576
3.8833	1.7866
3.8659	1.7971
3.8487	1.8296
3.8316	1.9524
3.8147	2.2288
3.7979	2.8066
3.7813	3.7058
3.7648	4.1174
3.7485	4.3223
3.7323	4.5591
3.7162	4.7173
3.7003	4.7952
3.6845	4.8342
3.6689	4.8201
3.6534	4.7632
3.638	4.6628
3.6227	4.5449
3.6076	4.3545
3.5926	4.0278
3.5777	3.4824
3.563	3.2651
3.5484	3.0107
3.5338	2.5351
3.5195	2.0193
3.5052	1.8044
3.491	1.6873
3.477	1.6064
3.463	1.8142
3.4492	1.9285
3.4355	1.9431
3.4219	1.9451
3.4084	1.9463
3.395	1.9197
3.3817	1.8845
3.3685	1.8635
3.3554	1.7751
3.3425	1.9248
3.3296	2.6865
3.3168	3.1973
3.3041	3.543
3.2915	3.8281
3.279	4.0698
3.2666	4.3015
3.2543	4.4748
3.2421	4.626
3.23	4.7825
3.218	4.9321
3.206	5.0525
3.1942	5.1409
3.1824	5.1789
3.1707	5.0642
3.1591	4.7285
3.1476	4.6011
3.1362	4.741
3.1249	4.8218
3.1136	4.5654
3.1024	4.5791
3.0913	4.853
3.0803	5.1694
3.0694	5.3376
3.0585	5.4822
3.0477	5.6565
3.037	5.8
3.0264	5.9238
3.0158	6.0149
3.0053	6.102
2.9949	6.1975
2.9845	6.2554
2.9743	6.2707
2.9641	6.2722
2.9539	6.279
2.9439	6.2795
2.9339	6.3091
2.9239	6.3196
2.9141	6.3403
2.9043	6.3567
2.8946	6.365
2.8849	6.3872
2.8753	6.3667
2.8658	6.3503
2.8563	6.3193
2.8469	6.2732
2.8375	6.1506
2.8282	5.9687
2.819	5.7419
2.8098	5.4365
2.8007	5.0723
2.7917	4.5774
2.7827	4.5537
2.7738	5.0913
2.7649	5.5974
2.7561	5.8679
2.7473	5.9927
2.7386	6.0539
2.7299	6.1814
2.7213	6.2893
2.7128	6.4707
2.7043	6.6809
2.6959	6.8288
2.6875	6.9624
2.6791	7.0354
2.6709	7.0715
2.6626	7.1174
2.6545	7.1592
2.6463	7.1618
2.6382	7.1689
2.6302	7.1269
2.6222	7.1299
2.6143	7.0947
2.6064	7.0281
2.5986	6.9905
2.5908	6.8706
2.583	6.688
2.5753	6.5769
2.5677	6.3689
2.5601	5.9585
2.5525	5.362
2.545	4.7834
2.5375	4.4724
2.5301	4.5517
2.5227	4.8176
2.5154	5.061
2.5081	5.1929
2.5008	5.2788
2.4936	5.3227
2.4864	5.4104
2.4793	5.5849
2.4722	5.8315
2.4651	6.091
2.4581	6.3291
2.4511	6.5058
2.4442	6.6382
2.4373	6.7685
2.4305	6.8657
2.4236	6.9592
2.4169	7.0459
2.4101	7.0801
2.4034	7.0859
2.3967	7.0705
2.3901	7.0874
2.3835	7.0432
2.377	6.9487
2.3704	6.8137
2.364	6.5683
2.3575	6.1929
2.3511	5.8071
2.3447	5.5957
2.3384	5.4995
2.3321	5.5896
2.3258	5.7607
2.3195	5.9199
2.3133	6.0339
2.3071	6.1113
2.301	6.1855
2.2949	6.2544
2.2888	6.3481
2.2828	6.467
2.2767	6.6108
2.2708	6.7265
2.2648	6.8437
2.2589	6.9306
2.253	7.0383
2.2471	7.0718
2.2413	7.167
2.2355	7.1929
2.2297	7.2344
2.224	7.2744
2.2183	7.2871
2.2126	7.3506
2.207	7.3623
2.2013	7.3769
2.1957	7.3823
2.1902	7.375
2.1846	7.3774
2.1791	7.3359
2.1736	7.3464
2.1682	7.3318
2.1628	7.3098
2.1574	7.3208
2.152	7.3147
2.1466	7.3359
2.1413	7.3874
2.136	7.4118
2.1308	7.4287
2.1255	7.4289
2.1203	7.4446
2.1151	7.4541
2.11	7.4721
2.1048	7.4507
2.0997	7.5166
2.0946	7.5403
2.0895	7.5268
2.0845	7.5449
2.0795	7.5256
