Name: Calcite CaCO_3
Type: Mineral
Class: Carbonate
Subclass: None
Particle Size: Fine
Sample No.: C-3A
Owner: JPL
Wavelength Range: TIR
Origin: Italy
Description: TravertineParticle size was 0-45um.Collected by Ward's Original ASTER Spectral Library name was jpl.nicolet.mineral.carbonate.none.fine.c03a.spectrum.txt
Measurement: Hemispherical reflectance
X Units: Wavelength (micrometers)
Y Units: Reflectance (percent)
wavelength	value
15.3853	27.5578
15.1161	28.4732
14.8563	28.6927
14.6052	32.6617
14.3624	27.6416
14.1276	9.2274
13.9004	8.0227
13.6803	31.496
13.4671	40.2178
13.2604	41.5765
13.06	38.4173
12.8656	35.9056
12.6769	37.3711
12.4936	39.2537
12.3155	41.0194
12.1425	42.7752
11.9742	41.5949
11.8106	20.3685
11.6513	25.8215
11.4963	7.5496
11.3454	8.0719
11.1983	30.8364
11.0551	38.6274
10.9154	41.3033
10.7793	38.3166
10.6465	36.5326
10.5169	37.2595
10.3904	40.3381
10.267	39.2818
10.1464	37.3363
10.0287	34.4749
9.9136	32.6007
9.8012	32.7273
9.6913	35.4634
9.5838	37.2575
9.4787	37.662
9.3758	33.9204
9.2752	32.2275
9.1767	29.2917
9.0803	31.1263
8.9858	28.4109
8.8934	23.2862
8.8028	18.0054
8.714	16.2289
8.627	13.9498
8.5417	14.0373
8.4581	15.6168
8.3761	20.4867
8.2957	24.5053
8.2169	26.6062
8.1395	26.2854
8.0635	24.9375
7.989	25.5755
7.9158	23.565
7.8439	22.9843
7.7734	21.3882
7.7041	19.5688
7.636	15.9847
7.5691	14.072
7.5034	13.0732
7.4388	11.3723
7.3753	9.7592
7.3129	7.755
7.2515	6.5993
7.1912	6.2692
7.1318	7.1095
7.0734	8.8097
7.016	8.6411
6.9595	8.5763
6.9039	8.5721
6.8492	9.0271
6.7953	9.5134
6.7423	9.8459
6.6901	10.7163
6.6387	12.1037
6.5881	13.4515
6.5382	14.9234
6.4892	16.3727
6.4408	16.2658
6.3931	11.7246
6.3462	7.8815
6.2999	4.7351
6.2543	4.6053
6.2094	4.3147
6.1651	4.083
6.1214	4.6777
6.0784	5.4301
6.0359	6.5608
5.994	8.1804
5.9527	9.4323
5.912	11.275
5.8718	12.5591
5.8322	12.9509
5.7931	12.6924
5.7545	12.6931
5.7165	14.7659
5.6789	17.2042
5.6418	20.1349
5.6052	12.4697
5.5691	2.2665
5.5334	12.8979
5.4982	28.6956
5.4635	37.7165
5.4291	44.7088
5.3952	50.1729
5.3618	54.5278
5.3287	58.1562
5.2961	61.5874
5.2638	63.8474
5.2319	66.1505
5.2004	67.9986
5.1693	68.9519
5.1386	69.8687
5.1082	64.8185
5.0782	70.524
5.0485	71.8779
5.0192	71.9794
4.9902	71.7459
4.9616	71.7476
4.9332	71.7009
4.9052	72.0119
4.8776	72.4192
4.8502	72.5782
4.8231	72.6265
4.7963	72.4214
4.7699	71.5778
4.7437	68.6673
4.7178	61.6976
4.6922	51.4597
4.6668	49.0615
4.6418	54.7397
4.617	61.3604
4.5924	63.5981
4.5681	64.4601
4.5441	64.9805
4.5203	65.3008
4.4968	66.124
4.4735	68.2678
4.4505	70.0149
4.4277	71.7921
4.4051	72.6174
4.3828	73.1919
4.3607	72.3588
4.3388	71.2782
4.3171	71.1878
4.2956	71.7592
4.2744	70.534
4.2534	71.1177
4.2325	70.9704
4.2119	70.6367
4.1915	69.8928
4.1712	68.582
4.1512	66.7647
4.1313	64.0444
4.1117	60.6347
4.0922	57.0456
4.0729	52.0024
4.0538	45.2458
4.0349	31.9665
4.0161	20.8006
3.9976	10.0411
3.9792	6.6316
3.9609	8.2347
3.9428	15.0799
3.9249	19.7543
3.9072	21.6485
3.8896	22.697
3.8722	23.311
3.8549	24.2351
3.8378	26.7756
3.8208	34.7696
3.804	45.5657
3.7873	59.2449
3.7708	64.5189
3.7544	66.6062
3.7382	67.9946
3.7221	69.1617
3.7061	69.4764
3.6903	69.645
3.6746	69.2329
3.659	68.7782
3.6436	67.9244
3.6283	66.8861
3.6131	65.5015
3.5981	63.3643
3.5832	59.1445
3.5684	55.1424
3.5537	53.5416
3.5391	47.1864
3.5247	34.4476
3.5104	23.591
3.4962	19.1341
3.4821	15.5504
3.4681	19.4806
3.4543	26.0033
3.4405	27.1743
3.4269	27.3224
3.4133	27.1184
3.3999	26.4165
3.3866	25.5786
3.3733	24.7461
3.3602	22.5549
3.3472	21.9245
3.3343	39.9475
3.3215	48.2149
3.3088	51.5278
3.2961	53.4018
3.2836	54.4557
3.2712	55.2834
3.2588	55.5468
3.2466	55.7997
3.2345	56.0417
3.2224	55.7585
3.2104	55.7082
3.1985	55.4533
3.1867	55.0593
3.175	54.5177
3.1634	53.3347
3.1519	52.3381
3.1404	52.0274
3.129	51.977
3.1178	51.1917
3.1065	50.5308
3.0954	50.9439
3.0844	51.2243
3.0734	51.4823
3.0625	51.4954
3.0517	51.3784
3.041	51.4807
3.0303	51.3196
3.0197	51.3059
3.0092	51.3255
2.9987	51.1265
2.9884	50.9028
2.9781	50.8115
2.9678	50.4019
2.9577	50.3615
2.9476	50.3218
2.9376	50.2135
2.9276	50.5107
2.9177	51.0394
2.9079	51.5587
2.8982	51.8118
2.8885	52.4285
2.8789	53.0036
2.8693	53.3408
2.8598	54.1263
2.8504	55.1075
2.841	55.5568
2.8317	56.3877
2.8224	56.6819
2.8133	57.5679
2.8041	58.5034
2.7951	58.2998
2.786	59.006
2.7771	62.0561
2.7682	65.8194
2.7594	68.4281
2.7506	70.8386
2.7418	73.8682
2.7332	75.8716
2.7246	78.7587
2.716	79.9763
2.7075	82.3969
2.699	84.7234
2.6906	86.862
2.6823	88.0555
2.674	88.9899
2.6657	90.6808
2.6575	89.8813
2.6494	90.0057
2.6413	90.1355
2.6332	90.6782
2.6252	90.8183
2.6173	91.185
2.6094	90.6157
2.6015	90.2488
2.5937	90.9033
2.5859	88.9737
2.5782	88.2025
2.5706	87.4171
2.5629	85.7469
2.5554	81.5663
2.5478	76.8799
2.5403	73.4359
2.5329	73.3918
2.5255	75.5248
2.5181	77.6567
2.5108	78.6922
2.5035	79.3777
2.4963	79.7861
2.4891	80.2534
2.482	81.237
2.4749	82.9308
2.4678	84.6441
2.4608	86.1579
2.4538	87.3027
2.4468	88.1318
2.4399	89.0161
2.4331	89.9206
2.4262	90.3909
2.4194	90.8222
2.4127	91.2752
2.4059	91.2328
2.3993	91.3636
2.3926	91.613
2.386	91.6205
2.3795	91.1974
2.3729	90.5437
2.3664	89.4867
2.36	87.1774
2.3535	84.6843
2.3471	82.7094
2.3408	82.0025
2.3345	82.2732
2.3282	83.4142
2.3219	84.7947
2.3157	85.5015
2.3095	85.968
2.3034	86.3839
2.2972	86.7129
2.2911	87.2873
2.2851	88.1015
2.279	88.98
2.2731	89.7057
2.2671	90.3768
2.2612	91.0958
2.2553	91.6668
2.2494	92.0104
2.2435	92.3621
2.2377	92.7438
2.232	92.9518
2.2262	93.2063
2.2205	93.4379
2.2148	93.3773
2.2091	93.6271
2.2035	93.8206
2.1979	93.7919
2.1923	94.0414
2.1868	94.0556
2.1812	93.7771
2.1758	93.6823
2.1703	93.5663
2.1649	93.3059
2.1595	93.4339
2.1541	93.2587
2.1487	93.3445
2.1434	93.9567
2.1381	93.7883
2.1328	93.9961
2.1275	93.9462
2.1223	94.2558
2.1171	94.1794
2.112	94.3997
2.1068	94.3327
2.1017	94.5374
2.0966	94.235
2.0915	94.4893
2.0865	94.0354
2.0814	94.467
2.0764	94.1567
2.0715	94.3593
2.0665	94.6125
2.0616	94.0536
2.0567	94.3965
2.0518	94.3321
2.0469	93.9739
2.0421	94.265
2.0373	94.2987
2.0325	93.7764
2.0277	94.1538
2.0229	93.8567
2.0182	93.8981
2.0135	93.5842
2.0088	93.4322
2.0042	93.1584
