Name: Tourmaline (Schorl) NaFe3+2Al6(BO3)3Si6O18(OH)4
Type: Mineral
Class: Silicate
Subclass: Cyclosilicate
Particle Size: Fine
Sample No.: tourmal_2
Owner: JHU
Wavelength Range: TIR
Origin: Minas Gerais, Brazil via the Hunt and Salisbury Collection#120B (purchased from Ward's Natural Science Establishment)
Description: The sample was a translucent, blue, single crystal.  It appeared quite pure under the petrographic microscope.(Ring Silicates)Particle size was Less than 2  Micrometers. Original ASTER Spectral Library name was jhu.nicolet.mineral.silicate.cyclosilicate.powder.tourma2.spectrum.txt
Measurement: Transmission
X Units: Wavelength (micrometers)
Y Units: Transmittance (percent)
wavelength	value
25.0442	33.6718
24.3388	25.5195
23.6719	18.0312
23.0407	19.9082
22.4422	18.8789
21.8741	21.5488
21.334	19.082
20.8199	13.3515
20.33	9.0488
19.8627	7.166
19.4163	6.4424
18.9896	8.1611
18.5812	11.1875
18.19	12.7666
17.815	14.4843
17.4551	17.9335
17.1094	17.1386
16.7772	19.9687
16.4576	22.0517
16.15	26.0439
15.8537	30.8486
15.568	29.872
15.2925	29.4257
15.0265	32.5819
14.7697	36.1054
14.5214	38.705
14.2814	30.5478
14.0492	30.2079
13.8244	37.5121
13.6067	43.9686
13.3957	40.5141
13.1912	42.4667
12.9929	46.9218
12.8004	38.4789
12.6135	47.6078
12.432	57.8495
12.2557	58.536
12.0843	61.7913
11.9176	63.3182
11.7555	59.9222
11.5977	62.6327
11.444	64.4451
11.2944	58.0003
11.1487	50.8339
11.0067	43.9891
10.8682	34.912
10.7332	26.2783
10.6015	18.1621
10.473	11.8447
10.3476	8.0703
10.2251	6.2978
10.1056	6.5122
9.9887	7.7051
9.8746	8.0693
9.763	7.8618
9.6539	8.5332
9.5472	9.6855
9.4429	11.125
9.3408	13.0786
9.2409	19.4326
9.1431	22.8193
9.0474	20.1152
8.9536	20.9711
8.8618	28.8114
8.7718	41.0009
8.6837	51.2093
8.5973	58.2728
8.5126	63.4051
8.4295	66.8128
8.3481	67.6964
8.2682	66.161
8.1898	59.8575
8.1129	46.1639
8.0374	33.3888
7.9634	23.4296
7.8906	17.1711
7.8192	16.8378
7.7491	19.5783
7.6802	21.4836
7.6126	21.4008
7.5461	19.6723
7.4807	20.2961
7.4165	22.749
7.3534	26.0234
7.2914	30.1586
7.2303	34.1659
7.1703	39.5062
7.1113	43.6532
7.0533	47.6503
6.9962	51.9591
6.94	56.7694
6.8847	61.494
6.8302	65.3407
6.7767	68.3743
6.7239	70.918
6.672	73.1111
6.6209	75.0674
6.5705	76.835
6.5209	78.4043
6.4721	79.7139
6.424	80.9678
6.3766	81.9505
6.3299	82.7918
6.2838	83.416
6.2385	83.4392
6.1937	83.3064
6.1496	83.7146
6.1062	85.1707
6.0633	85.76
6.0211	84.9451
5.9794	85.0672
5.9383	87.7849
5.8978	89.1785
5.8578	90.1091
5.8184	90.8181
5.7794	91.4231
5.741	92.1406
5.7031	92.7683
5.6657	93.2764
5.6288	93.6619
5.5924	93.8523
5.5564	94.1475
5.5209	94.322
5.4859	94.6257
5.4513	95.0359
5.4171	95.3916
5.3833	95.6086
5.35	95.9268
5.3171	96.2327
5.2846	96.4687
5.2524	96.6335
5.2207	96.7371
5.1893	96.9587
5.1584	97.1562
5.1277	97.2256
5.0975	97.281
5.0676	97.3513
5.038	97.4919
5.0088	97.5886
4.98	97.7917
4.9514	98.0168
4.9232	98.1731
4.8953	98.366
4.8678	98.5359
4.8405	98.7356
4.8135	98.9353
4.7868	99.0828
4.7605	99.1931
4.7344	99.3215
4.7086	99.3601
4.6831	99.4875
4.6578	99.4993
4.6328	99.5964
4.6081	99.5671
4.5837	99.5676
4.5595	99.4827
4.5356	99.3621
4.5119	99.2019
4.4884	99.1091
4.4652	98.9831
4.4423	98.8601
4.4196	98.8088
4.3971	98.7234
4.3748	98.762
4.3528	98.7165
4.331	98.7092
4.3094	98.7019
4.288	98.8015
4.2668	98.842
4.2458	98.8806
4.2251	98.9763
4.2045	98.9807
4.1841	99.0398
4.164	99.137
4.144	99.2068
4.1242	99.2073
4.1046	99.2947
4.0852	99.2639
4.066	99.3064
4.047	99.3318
4.0281	99.3113
4.0094	99.2117
3.9909	99.1404
3.9725	99.0686
3.9544	98.9626
3.9363	98.8479
3.9185	98.7654
3.9008	98.5764
3.8833	98.3474
3.8659	98.1604
3.8487	98.0046
3.8316	97.8679
3.8147	97.7507
3.7979	97.7698
3.7813	97.7996
3.7648	97.8259
3.7485	97.7996
3.7323	97.7781
3.7162	97.7873
3.7003	97.7224
3.6845	97.7522
3.6689	97.697
3.6534	97.7263
3.638	97.6609
3.6227	97.6682
3.6076	97.5881
3.5926	97.5662
3.5777	97.4646
3.563	97.363
3.5484	97.3044
3.5338	97.2288
3.5195	97.0471
3.5052	96.8415
3.491	96.842
3.477	96.5374
3.463	96.406
3.4492	96.26
3.4355	96.0818
3.4219	95.8591
3.4084	95.7292
3.395	95.6707
3.3817	95.2815
3.3685	95.197
3.3554	95.3635
3.3425	95.2908
3.3296	95.1311
3.3168	94.9626
3.3041	94.8225
3.2915	94.6736
3.279	94.5452
3.2666	94.3787
3.2543	94.0945
3.2421	93.8816
3.23	93.614
3.218	93.4119
3.206	93.2029
3.1942	92.9988
3.1824	92.7166
3.1707	92.4646
3.1591	92.2517
3.1476	91.7351
3.1362	91.4685
3.1249	91.0242
3.1136	90.8259
3.1024	90.7927
3.0913	90.6638
3.0803	90.3953
3.0694	90.0291
3.0585	89.822
3.0477	89.7849
3.037	89.2654
3.0264	88.6257
3.0158	87.9812
3.0053	87.4031
2.9949	86.8689
2.9845	86.4939
2.9743	86.1834
2.9641	85.7469
2.9539	85.3943
2.9439	84.9383
2.9339	84.4138
2.9239	83.5779
2.9141	82.2195
2.9043	80.2459
2.8946	76.8289
2.8849	72.5858
2.8753	69.4158
2.8658	69.6678
2.8563	72.1258
2.8469	73.242
2.8375	72.8133
2.8282	69.5516
2.819	64.4334
2.8098	65.7742
2.8007	71.8045
2.7917	82.0008
2.7827	91.3953
2.7738	94.3123
2.7649	94.5271
2.7561	88.3455
2.7473	89.8865
2.7386	93.5369
2.7299	95.657
2.7213	95.5583
2.7128	95.407
2.7043	95.1794
2.6959	95.4343
2.6875	95.1834
2.6791	95.1091
2.6709	95.2771
2.6626	95.1834
2.6545	94.949
2.6463	94.8445
2.6382	94.7283
2.6302	94.6462
2.6222	94.5896
2.6143	94.5154
2.6064	94.4763
2.5986	94.2732
2.5908	94.4138
2.583	94.1462
2.5753	93.9138
2.5677	93.8455
2.5601	93.7986
2.5525	93.738
2.545	93.6462
2.5375	93.7537
2.5301	93.4099
2.5227	93.5056
2.5154	93.3748
2.5081	93.1892
2.5008	93.1169
2.4936	93.0896
2.4864	93.1287
2.4793	93.2127
2.4722	93.0779
2.4651	93.0388
2.4581	92.7927
2.4511	92.9392
2.4442	92.8162
2.4373	92.8513
2.4305	92.7986
2.4236	92.5408
2.4169	92.4373
2.4101	92.6736
2.4034	92.3201
2.3967	92.3513
2.3901	92.1736
2.3835	92.2127
2.377	92.1052
2.3704	92.156
2.364	91.9373
2.3575	92.0252
2.3511	91.8943
2.3447	91.7673
2.3384	92.1326
2.3321	91.8045
2.3258	91.6267
2.3195	91.656
2.3133	91.9685
2.3071	91.3045
2.301	91.4685
2.2949	91.2966
2.2888	91.4158
2.2828	91.406
2.2767	91.4627
2.2708	90.9334
2.2648	91.0935
2.2589	90.9568
2.253	90.6873
2.2471	90.8865
2.2413	90.5349
2.2355	90.8826
2.2297	90.6287
2.224	90.5154
2.2183	90.3513
2.2126	90.2224
2.207	90.3435
2.2013	90.4607
2.1957	90.3787
2.1902	90.1677
2.1846	90.1638
2.1791	89.8904
2.1736	89.9451
2.1682	89.8787
2.1628	89.6834
2.1574	89.8006
2.152	89.7654
2.1466	89.1248
2.1413	89.5779
2.136	89.3513
2.1308	89.1404
2.1255	88.4841
2.1203	89.2107
2.1151	89.0466
2.11	88.8123
2.1048	88.4216
2.0997	88.5466
2.0946	88.4607
2.0895	88.7381
2.0845	88.6951
2.0795	87.4529
