Name: Buddingtonite (Feldspar) (NH_4)AlSi_3O_8.0.5H_2O
Type: Mineral
Class: Silicate
Subclass: Tectosilicate
Particle Size: Fine
Sample No.: TS-11A
Owner: JPL
Wavelength Range: VSWIR
Origin: USA, California, Lake County, Sulfur Bank
Description: Particle size was 0-45um.Collected by Krohn, Dennis Original ASTER Spectral Library name was jpl.beckman.mineral.silicate.tectosilicate.fine.ts11a.spectrum.txt
Measurement: Hemispherical reflectance
X Units: Wavelength (micrometers)
Y Units: Reflectance (percent)
wavelength	value
0.4	31.64
0.403	32.51
0.406	33.29
0.409	33.82
0.412	34.3
0.415	34.9
0.418	35.43
0.421	35.67
0.424	36.06
0.427	36.38
0.43	36.64
0.433	36.99
0.436	37.49
0.439	38.08
0.442	38.58
0.445	39.1
0.448	39.73
0.451	40.33
0.454	40.69
0.457	41.18
0.46	41.48
0.463	42.09
0.466	42.48
0.469	43.06
0.472	43.28
0.475	43.6
0.478	44.16
0.481	44.71
0.484	44.88
0.487	45.23
0.49	45.74
0.493	46.22
0.496	46.34
0.499	46.73
0.502	47.24
0.505	47.77
0.508	47.74
0.511	48.35
0.514	48.81
0.517	49.12
0.52	49.33
0.523	49.76
0.526	50.24
0.529	50.48
0.532	50.73
0.535	51.22
0.538	51.61
0.541	51.73
0.544	52.2
0.547	52.57
0.55	52.89
0.553	53.18
0.556	53.53
0.559	53.72
0.562	54.4
0.565	54.51
0.568	54.75
0.571	55.06
0.574	54.97
0.577	55.3
0.58	55.51
0.583	55.6
0.586	55.95
0.589	56.29
0.592	56.56
0.595	56.57
0.598	56.93
0.601	57.27
0.604	57.43
0.607	57.56
0.61	57.88
0.613	58.15
0.616	58.12
0.619	58.28
0.622	58.59
0.625	58.72
0.628	58.86
0.631	59.08
0.634	59.43
0.637	59.39
0.64	59.65
0.643	59.87
0.646	59.92
0.649	60.11
0.652	60.41
0.655	60.6
0.658	60.61
0.661	60.75
0.664	60.98
0.667	61.24
0.67	61.27
0.673	61.52
0.676	61.75
0.679	61.7
0.682	61.94
0.685	62.1
0.688	62.15
0.691	62.26
0.694	62.55
0.697	62.59
0.7	62.61
0.703	62.84
0.706	62.74
0.709	62.93
0.712	63.22
0.715	63.13
0.718	63.28
0.721	63.59
0.724	63.73
0.727	63.82
0.73	63.94
0.733	64.06
0.736	63.94
0.739	64.1
0.742	64.27
0.745	64.19
0.748	64.25
0.751	64.46
0.754	64.6
0.757	64.47
0.76	64.66
0.763	64.95
0.766	64.89
0.769	64.89
0.772	64.99
0.775	65.22
0.778	65.15
0.781	65.28
0.784	65.4
0.787	65.62
0.79	65.49
0.793	65.78
0.796	65.86
0.799	65.8
0.808	66.02
0.82	66.28
0.832	66.37
0.844	66.63
0.856	66.85
0.868	66.92
0.88	66.91
0.892	66.96
0.904	66.99
0.916	67.21
0.928	67.34
0.94	67.42
0.952	67.63
0.964	67.7
0.976	67.78
0.988	67.94
1	68.05
1.012	68.24
1.024	68.33
1.036	68.38
1.048	68.34
1.06	68.42
1.072	68.53
1.084	68.75
1.096	68.75
1.108	68.9
1.12	69
1.132	69.08
1.144	69.17
1.156	69.25
1.168	69.41
1.18	69.57
1.192	69.55
1.204	69.69
1.216	69.64
1.228	69.68
1.24	69.69
1.252	69.82
1.264	69.89
1.276	70
1.288	70.15
1.3	70.25
1.312	70.25
1.324	70.26
1.336	70.3
1.348	70.48
1.36	70.58
1.372	70.47
1.384	70.17
1.396	69.22
1.408	68.05
1.42	68.68
1.432	69.81
1.444	70.08
1.456	70.13
1.468	70.22
1.48	70.16
1.492	70.01
1.504	69.78
1.516	69.49
1.528	69.02
1.54	68.35
1.552	67.89
1.564	67.77
1.576	68.3
1.588	68.77
1.6	69.15
1.612	69.31
1.624	69.38
1.636	69.44
1.648	69.74
1.66	69.94
1.672	70.11
1.684	70.12
1.696	70.22
1.708	70.27
1.72	70.33
1.732	70.21
1.744	70.2
1.756	70.24
1.768	70.07
1.78	70.2
1.792	70.12
1.804	70.09
1.816	69.99
1.828	69.99
1.84	69.92
1.852	69.6
1.864	69.41
1.876	68.76
1.888	67.57
1.9	66.23
1.912	65.5
1.924	65.35
1.936	65.05
1.948	64.59
1.96	63.9
1.972	62.66
1.984	60.65
1.996	58.13
2.008	56.03
2.02	55.25
2.032	55.17
2.044	55.17
2.056	54.86
2.068	54.14
2.08	52.81
2.092	51.05
2.104	49.24
2.116	48.36
2.128	48.42
2.14	49.19
2.152	50.36
2.164	51.54
2.176	52.75
2.188	53.82
2.2	54.55
2.212	55.32
2.224	56.45
2.236	57.74
2.248	58.99
2.26	60.08
2.272	61
2.284	61.8
2.296	62.26
2.308	62.42
2.32	62.42
2.332	62.32
2.344	62.45
2.356	62.68
2.368	62.86
2.38	63.16
2.392	63.21
2.404	63.21
2.416	63.03
2.428	62.65
2.44	62.39
2.452	62.14
2.464	62.03
2.476	61.84
2.488	61.82
2.5	61.79
