Name: Orthoclase (Feldspar) (K,Na)AlSi_3O_8
Type: Mineral
Class: Silicate
Subclass: Tectosilicate
Particle Size: Fine
Sample No.: TS-12A
Owner: JPL
Wavelength Range: VSWIR
Origin: India
Description: Particle size was 0-45um.Collected by Burminco Original ASTER Spectral Library name was jpl.beckman.mineral.silicate.tectosilicate.fine.ts12a.spectrum.txt
Measurement: Hemispherical reflectance
X Units: Wavelength (micrometers)
Y Units: Reflectance (percent)
wavelength	value
0.4	77.48
0.403	77.81
0.406	78.06
0.409	78.03
0.412	78.04
0.415	78.29
0.418	78.32
0.421	78.39
0.424	78.43
0.427	78.64
0.43	78.82
0.433	78.92
0.436	78.93
0.439	79.21
0.442	79.2
0.445	79.36
0.448	79.46
0.451	79.53
0.454	79.64
0.457	79.74
0.46	79.85
0.463	79.91
0.466	79.97
0.469	80.06
0.472	80.05
0.475	80.25
0.478	80.18
0.481	80.09
0.484	80.29
0.487	80.51
0.49	80.37
0.493	80.5
0.496	80.45
0.499	80.66
0.502	80.53
0.505	80.65
0.508	80.8
0.511	80.77
0.514	80.83
0.517	80.86
0.52	80.84
0.523	81.03
0.526	81.01
0.529	81.04
0.532	81.16
0.535	81.16
0.538	81.14
0.541	81.27
0.544	81.1
0.547	81.33
0.55	81.17
0.553	81.34
0.556	81.34
0.559	81.43
0.562	81.76
0.565	81.64
0.568	81.91
0.571	81.86
0.574	81.62
0.577	81.67
0.58	81.67
0.583	81.58
0.586	81.74
0.589	81.68
0.592	81.96
0.595	81.81
0.598	81.87
0.601	81.94
0.604	82.01
0.607	81.86
0.61	81.91
0.613	82.04
0.616	82.02
0.619	81.84
0.622	81.83
0.625	81.92
0.628	81.94
0.631	81.89
0.634	81.99
0.637	82.01
0.64	81.99
0.643	81.91
0.646	81.94
0.649	82.05
0.652	82.05
0.655	82.07
0.658	82.06
0.661	82.1
0.664	82.21
0.667	82.03
0.67	82.13
0.673	82.27
0.676	82.2
0.679	82.25
0.682	82.17
0.685	82.17
0.688	82.32
0.691	82.27
0.694	82.16
0.697	82.29
0.7	82.19
0.703	82.21
0.706	82.22
0.709	82.22
0.712	82.24
0.715	82.22
0.718	82.36
0.721	82.45
0.724	82.25
0.727	82.32
0.73	82.35
0.733	82.29
0.736	82.38
0.739	82.22
0.742	82.43
0.745	82.42
0.748	82.35
0.751	82.35
0.754	82.35
0.757	82.34
0.76	82.35
0.763	82.35
0.766	82.48
0.769	82.47
0.772	82.49
0.775	82.42
0.778	82.41
0.781	82.39
0.784	82.44
0.787	82.32
0.79	82.38
0.793	82.54
0.796	82.53
0.799	82.34
0.808	82.79
0.82	82.7
0.832	82.71
0.844	82.68
0.856	82.72
0.868	82.7
0.88	82.7
0.892	82.63
0.904	82.69
0.916	82.59
0.928	82.58
0.94	82.55
0.952	82.55
0.964	82.56
0.976	82.51
0.988	82.42
1	82.39
1.012	82.4
1.024	82.43
1.036	82.37
1.048	82.33
1.06	82.38
1.072	82.44
1.084	82.45
1.096	82.45
1.108	82.43
1.12	82.54
1.132	82.53
1.144	82.44
1.156	82.53
1.168	82.42
1.18	82.47
1.192	82.53
1.204	82.53
1.216	82.47
1.228	82.43
1.24	82.54
1.252	82.48
1.264	82.43
1.276	82.52
1.288	82.51
1.3	82.52
1.312	82.49
1.324	82.41
1.336	82.45
1.348	82.41
1.36	82.39
1.372	82.38
1.384	82.32
1.396	82.35
1.408	82.25
1.42	82.36
1.432	82.37
1.444	82.37
1.456	82.4
1.468	82.48
1.48	82.44
1.492	82.46
1.504	82.49
1.516	82.57
1.528	82.51
1.54	82.53
1.552	82.51
1.564	82.55
1.576	82.64
1.588	82.62
1.6	82.65
1.612	82.6
1.624	82.63
1.636	82.57
1.648	82.5
1.66	82.62
1.672	82.64
1.684	82.67
1.696	82.6
1.708	82.72
1.72	82.69
1.732	82.63
1.744	82.55
1.756	82.48
1.768	82.54
1.78	82.46
1.792	82.49
1.804	82.56
1.816	82.55
1.828	82.46
1.84	82.52
1.852	82.41
1.864	82.39
1.876	82.26
1.888	82.11
1.9	81.98
1.912	81.85
1.924	81.83
1.936	81.85
1.948	82.03
1.96	82.03
1.972	82.19
1.984	82.41
1.996	82.51
2.008	82.54
2.02	82.65
2.032	82.76
2.044	82.66
2.056	82.71
2.068	82.78
2.08	82.78
2.092	82.87
2.104	82.98
2.116	83.13
2.128	83.09
2.14	83.05
2.152	82.81
2.164	82.67
2.176	82.54
2.188	82.32
2.2	82.37
2.212	82.18
2.224	82.27
2.236	82.31
2.248	82.27
2.26	82.33
2.272	82.39
2.284	82.43
2.296	82.45
2.308	82.6
2.32	82.7
2.332	82.79
2.344	82.91
2.356	82.76
2.368	82.74
2.38	82.6
2.392	82.62
2.404	82.67
2.416	82.6
2.428	82.46
2.44	82.39
2.452	82.25
2.464	82.13
2.476	82.1
2.488	82.53
2.5	82.77
