Name: Marcasite FeS_2
Type: Mineral
Class: Sulfide
Subclass: None
Particle Size: Fine
Sample No.: S-10A
Owner: JPL
Wavelength Range: TIR
Origin: USA, Indiana, Jasper County, Rensselaer, Pleasant Ridge Quarry
Description: Particle size was 0-45um.Collected by Ward's Original ASTER Spectral Library name was jpl.nicolet.mineral.sulfide.none.fine.s10a.spectrum.txt
Measurement: Hemispherical reflectance
X Units: Wavelength (micrometers)
Y Units: Reflectance (percent)
wavelength	value
15.3853	2.3493
15.1161	2.0124
14.8563	2.293
14.6052	3.0026
14.3624	3.7268
14.1276	3.6602
13.9004	3.7554
13.6803	3.7225
13.4671	3.7761
13.2604	3.5288
13.06	3.2542
12.8656	3.2258
12.6769	2.9842
12.4936	2.2573
12.3155	2.124
12.1425	2.1679
11.9742	1.9758
11.8106	1.9877
11.6513	2.0832
11.4963	2.7196
11.3454	3.5575
11.1983	4.1839
11.0551	4.4086
10.9154	4.8765
10.7793	5.1784
10.6465	5.3594
10.5169	5.4492
10.3904	5.1391
10.267	4.6022
10.1464	4.5046
10.0287	4.1651
9.9136	2.9576
9.8012	1.9042
9.6913	3.8837
9.5838	3.8862
9.4787	3.4428
9.3758	3.2661
9.2752	3.5495
9.1767	3.1722
9.0803	3.2327
8.9858	3.5834
8.8934	4.0388
8.8028	4.6307
8.714	5.3612
8.627	5.1876
8.5417	4.4875
8.4581	4.5587
8.3761	4.4172
8.2957	4.3308
8.2169	4.3122
8.1395	4.7621
8.0635	5.6864
7.989	6.0956
7.9158	6.5164
7.8439	7.1656
7.7734	7.3997
7.7041	7.9101
7.636	8.326
7.5691	8.8248
7.5034	9.1813
7.4388	9.3709
7.3753	9.6493
7.3129	9.726
7.2515	9.8054
7.1912	9.9729
7.1318	9.99
7.0734	9.7482
7.016	9.4668
6.9595	9.0126
6.9039	7.8763
6.8492	6.5904
6.7953	4.8888
6.7423	3.741
6.6901	3.1903
6.6387	4.085
6.5881	5.0218
6.5382	6.1858
6.4892	7.8248
6.4408	7.993
6.3931	8.0484
6.3462	8.2856
6.2999	7.6799
6.2543	7.1906
6.2094	6.1009
6.1651	5.316
6.1214	4.8418
6.0784	4.8798
6.0359	5.1157
5.994	5.8959
5.9527	6.4114
5.912	7.1722
5.8718	8.4346
5.8322	9.3532
5.7931	9.9421
5.7545	10.3672
5.7165	10.7571
5.6789	11.2349
5.6418	11.9604
5.6052	12.413
5.5691	13.0294
5.5334	13.2639
5.4982	13.6215
5.4635	14.0596
5.4291	14.1511
5.3952	14.5397
5.3618	14.6769
5.3287	14.7848
5.2961	14.877
5.2638	14.9232
5.2319	14.8532
5.2004	14.6974
5.1693	14.5676
5.1386	14.272
5.1082	13.7866
5.0782	13.3823
5.0485	12.9259
5.0192	12.6262
4.9902	12.4977
4.9616	12.1579
4.9332	12.1148
4.9052	12.2071
4.8776	12.2624
4.8502	12.0732
4.8231	11.6481
4.7963	11.7768
4.7699	12.2364
4.7437	12.5059
4.7178	12.0408
4.6922	11.7468
4.6668	11.8778
4.6418	11.7598
4.617	11.6423
4.5924	11.2148
4.5681	11.1457
4.5441	11.0763
4.5203	11.0798
4.4968	11.2174
4.4735	11.3095
4.4505	11.2913
4.4277	11.5983
4.4051	11.5805
4.3828	11.462
4.3607	11.414
4.3388	11.2639
4.3171	11.2924
4.2956	11.2933
4.2744	11.3016
4.2534	11.5931
4.2325	11.3799
4.2119	11.748
4.1915	11.8975
4.1712	11.986
4.1512	12.1901
4.1313	12.1787
4.1117	12.1586
4.0922	12.1917
4.0729	12.2764
4.0538	12.2567
4.0349	12.3226
4.0161	12.4412
3.9976	12.4354
3.9792	12.5602
3.9609	12.5972
3.9428	12.6395
3.9249	12.5909
3.9072	12.5032
3.8896	12.524
3.8722	12.3864
3.8549	12.3231
3.8378	12.0831
3.8208	11.9721
3.804	11.8756
3.7873	11.6027
3.7708	11.4243
3.7544	11.253
3.7382	10.9194
3.7221	10.6576
3.7061	10.2675
3.6903	10.1533
3.6746	9.8174
3.659	9.5576
3.6436	9.3186
3.6283	8.9647
3.6131	8.7501
3.5981	8.4395
3.5832	8.3205
3.5684	8.0173
3.5537	7.6618
3.5391	7.4391
3.5247	7.2929
3.5104	7.0298
3.4962	6.6853
3.4821	6.6159
3.4681	6.3189
3.4543	6.0352
3.4405	5.6887
3.4269	5.4824
3.4133	5.2146
3.3999	5.0178
3.3866	4.7662
3.3733	4.4725
3.3602	4.2916
3.3472	4.1499
3.3343	3.8636
3.3215	3.7778
3.3088	3.5257
3.2961	3.2883
3.2836	2.9444
3.2712	3.0997
3.2588	3.0578
3.2466	2.7427
3.2345	2.7249
3.2224	2.6303
3.2104	2.6006
3.1985	2.5738
3.1867	2.3548
3.175	2.2989
3.1634	2.3093
3.1519	1.9966
3.1404	2.0997
3.129	1.9956
3.1178	1.6926
3.1065	1.6301
3.0954	1.5655
3.0844	1.4592
3.0734	1.5252
3.0625	1.3698
3.0517	1.4535
3.041	1.3153
3.0303	1.4162
3.0197	1.4904
3.0092	1.4536
2.9987	1.6492
2.9884	1.6046
2.9781	1.575
2.9678	1.6122
2.9577	1.7066
2.9476	1.709
2.9376	1.8576
2.9276	1.9185
2.9177	1.923
2.9079	2.048
2.8982	2.2356
2.8885	2.627
2.8789	2.8311
2.8693	3.3535
2.8598	3.7794
2.8504	4.0534
2.841	4.6044
2.8317	4.7428
2.8224	5.2757
2.8133	5.5519
2.8041	6.0908
2.7951	6.2861
2.786	6.9594
2.7771	7.4256
2.7682	8.1297
2.7594	8.8587
2.7506	9.7615
2.7418	11.1375
2.7332	11.8065
2.7246	13.1333
2.716	13.9044
2.7075	14.5605
2.699	15.1705
2.6906	15.5356
2.6823	15.9785
2.674	16.367
2.6657	16.9469
2.6575	16.5305
2.6494	16.3747
2.6413	16.4162
2.6332	16.4043
2.6252	16.5024
2.6173	16.9405
2.6094	16.6906
2.6015	16.8616
2.5937	17.4896
2.5859	17.1089
2.5782	16.992
2.5706	17.1777
2.5629	17.3513
2.5554	17.0835
2.5478	17.2444
2.5403	17.3129
2.5329	17.3901
2.5255	17.424
2.5181	17.5038
2.5108	17.657
2.5035	17.7626
2.4963	17.9311
2.4891	18.1509
2.482	18.4215
2.4749	18.296
2.4678	18.5815
2.4608	18.5722
2.4538	18.6867
2.4468	18.7248
2.4399	18.8651
2.4331	18.8406
2.4262	18.9156
2.4194	18.9645
2.4127	18.8571
2.4059	18.4316
2.3993	18.6715
2.3926	18.8567
2.386	19.0363
2.3795	19.2982
2.3729	19.3471
2.3664	19.8369
2.36	19.5589
2.3535	19.78
2.3471	19.6826
2.3408	20.0171
2.3345	20.1023
2.3282	20.1133
2.3219	20.1514
2.3157	20.3593
2.3095	20.126
2.3034	20.1488
2.2972	20.3154
2.2911	20.0313
2.2851	20.4147
2.279	20.2982
2.2731	20.4605
2.2671	20.3549
2.2612	20.3442
2.2553	20.3099
2.2494	20.466
2.2435	20.213
2.2377	20.2952
2.232	20.2251
2.2262	20.1003
2.2205	20.1271
2.2148	20.1462
2.2091	20.202
2.2035	20.355
2.1979	20.0106
2.1923	19.9761
2.1868	19.7961
2.1812	19.8531
2.1758	19.6917
2.1703	19.8481
2.1649	19.7209
2.1595	19.7197
2.1541	19.8219
2.1487	19.4056
2.1434	19.5607
2.1381	19.2638
2.1328	19.0292
2.1275	18.8261
2.1223	18.4655
2.1171	18.7551
2.112	18.2742
2.1068	18.6376
2.1017	18.2265
2.0966	18.648
2.0915	18.2563
2.0865	18.4176
2.0814	18.0542
2.0764	18.4214
2.0715	18.4961
2.0665	18.539
2.0616	18.5181
2.0567	18.4624
2.0518	18.931
2.0469	18.9018
2.0421	18.8326
2.0373	18.7125
2.0325	18.9249
2.0277	18.7934
2.0229	18.7199
2.0182	18.8744
2.0135	18.8587
2.0088	18.9618
2.0042	18.6655
