Name: Datolite CaBSiO4(OH)
Type: Mineral
Class: Silicate
Subclass: Nesosilicate
Particle Size: Solid
Sample No.: datolite_1
Owner: JHU
Wavelength Range: TIR
Origin: Hunt and Salisbury Collection #442B;  Sample fromConnecticut.
Description: White particulate samples appear to be pure datolite, with <<1% of the grains containing fluid inclusions. Sample had polished surface.(Ring Silicates) (Humite Group) Original ASTER Spectral Library name was jhu.nicolet.mineral.silicate.nesosilicate.solid.datoli1.spectrum.txt
Measurement: Bidirectional reflectance
X Units: Wavelength (micrometers)
Y Units: Reflectance (percent)
wavelength	value
25.0442	10.5923
24.3388	12.1467
23.6719	13.0163
23.0407	14.1052
22.4422	15.5813
21.8741	17.5952
21.334	22.0942
20.8199	28.4958
20.33	34.5302
19.8627	36.5819
19.4163	36.1557
18.9896	33.6969
18.5812	20.9426
18.19	8.6838
17.815	6.4258
17.4551	8.4077
17.1094	9.0725
16.7772	8.7055
16.4576	9.6911
16.15	10.3528
15.8537	11.0866
15.568	11.8874
15.2925	12.6345
15.0265	13.4907
14.7697	15.2607
14.5214	16.8625
14.2814	12.101
14.0492	12.4685
13.8244	13.6845
13.6067	14.7124
13.3957	15.7922
13.1912	17.2441
12.9929	19.892
12.8004	26.6108
12.6135	16.8586
12.432	12.1924
12.2557	15.3376
12.0843	17.6162
11.9176	21.0449
11.7555	24.6337
11.5977	14.7048
11.444	17.9397
11.2944	21.2502
11.1487	23.9604
11.0067	29.6376
10.8682	31.7663
10.7332	29.0922
10.6015	38.2082
10.473	33.1364
10.3476	26.4914
10.2251	38.6947
10.1056	44.5756
9.9887	48.3302
9.8746	49.2675
9.763	29.6662
9.6539	29.9772
9.5472	40.0748
9.4429	46.5048
9.3408	45.6459
9.2409	40.7577
9.1431	39.0832
9.0474	41.6193
8.9536	49.7335
8.8618	57.141
8.7718	55.0636
8.6837	44.8619
8.5973	41.4767
8.5126	36.1669
8.4295	31.9777
8.3481	28.4565
8.2682	20.8952
8.1898	13.5598
8.1129	7.959
8.0374	4.199
7.9634	1.7134
7.8906	0.9717
7.8192	1.2231
7.7491	1.6296
7.6802	2.0398
7.6126	2.4521
7.5461	2.8374
7.4807	3.1592
7.4165	3.4426
7.3534	3.7085
7.2914	3.9514
7.2303	4.1745
7.1703	4.3901
7.1113	4.5998
7.0533	4.7859
6.9962	4.9604
6.94	5.1113
6.8847	5.2593
6.8302	5.4026
6.7767	5.5215
6.7239	5.6338
6.672	5.7366
6.6209	5.8457
6.5705	5.979
6.5209	6.1157
6.4721	6.187
6.424	6.2351
6.3766	6.3408
6.3299	6.4458
6.2838	6.5415
6.2385	6.626
6.1937	6.6936
6.1496	6.7593
6.1062	6.8108
6.0633	6.8518
6.0211	6.9075
5.9794	6.9407
5.9383	6.9765
5.8978	7.022
5.8578	7.084
5.8184	7.1301
5.7794	7.1929
5.741	7.2588
5.7031	7.3105
5.6657	7.3584
5.6288	7.4118
5.5924	7.4582
5.5564	7.4968
5.5209	7.531
5.4859	7.5652
5.4513	7.5998
5.4171	7.6345
5.3833	7.6675
5.35	7.6931
5.3171	7.729
5.2846	7.7578
5.2524	7.7851
5.2207	7.8164
5.1893	7.8476
5.1584	7.8799
5.1277	7.9079
5.0975	7.9319
5.0676	7.9577
5.038	7.9829
5.0088	8.0051
4.98	8.0346
4.9514	8.0622
4.9232	8.0942
4.8953	8.1291
4.8678	8.1584
4.8405	8.1848
4.8135	8.2099
4.7868	8.2392
4.7605	8.2641
4.7344	8.2868
4.7086	8.3086
4.6831	8.333
4.6578	8.3581
4.6328	8.3808
4.6081	8.4057
4.5837	8.4341
4.5595	8.4624
4.5356	8.4907
4.5119	8.5178
4.4884	8.5429
4.4652	8.5644
4.4423	8.5815
4.4196	8.5974
4.3971	8.612
4.3748	8.6301
4.3528	8.6428
4.331	8.6482
4.3094	8.6704
4.288	8.6936
4.2668	8.7168
4.2458	8.7402
4.2251	8.7634
4.2045	8.7861
4.1841	8.8147
4.164	8.8479
4.144	8.8745
4.1242	8.8962
4.1046	8.9199
4.0852	8.9375
4.066	8.9472
4.047	8.9604
4.0281	8.9741
4.0094	8.9907
3.9909	9.0051
3.9725	9.0212
3.9544	9.0373
3.9363	9.0515
3.9185	9.0566
3.9008	9.0595
3.8833	9.0564
3.8659	9.05
3.8487	9.0803
3.8316	9.0898
3.8147	9.1042
3.7979	9.1223
3.7813	9.1365
3.7648	9.1479
3.7485	9.1584
3.7323	9.1692
3.7162	9.1875
3.7003	9.2051
3.6845	9.2231
3.6689	9.2368
3.6534	9.2497
3.638	9.2646
3.6227	9.2756
3.6076	9.2737
3.5926	9.2583
3.5777	9.2134
3.563	9.1618
3.5484	9.1557
3.5338	9.1455
3.5195	9.2021
3.5052	9.2732
3.491	9.2705
3.477	9.2671
3.463	9.2597
3.4492	9.2632
3.4355	9.2998
3.4219	9.3274
3.4084	9.3127
3.395	9.2995
3.3817	9.2981
3.3685	9.3332
3.3554	9.3359
3.3425	9.3186
3.3296	9.3169
3.3168	9.3205
3.3041	9.3432
3.2915	9.3503
3.279	9.341
3.2666	9.3327
3.2543	9.3237
3.2421	9.3086
3.23	9.3127
3.218	9.313
3.206	9.2971
3.1942	9.2971
3.1824	9.303
3.1707	9.3142
3.1591	9.3154
3.1476	9.3222
3.1362	9.3347
3.1249	9.3354
3.1136	9.3459
3.1024	9.3496
3.0913	9.3445
3.0803	9.3467
3.0694	9.3489
3.0585	9.3454
3.0477	9.3442
3.037	9.3442
3.0264	9.3471
3.0158	9.3589
3.0053	9.3637
2.9949	9.3545
2.9845	9.3506
2.9743	9.3432
2.9641	9.3449
2.9539	9.3537
2.9439	9.3645
2.9339	9.3843
2.9239	9.407
2.9141	9.4341
2.9043	9.4765
2.8946	9.5525
2.8849	9.6931
2.8753	10.0515
2.8658	10.041
2.8563	7.9895
2.8469	8.2046
2.8375	8.5581
2.8282	8.7517
2.819	8.8752
2.8098	8.9407
2.8007	8.978
2.7917	9.0032
2.7827	9
2.7738	9.0007
2.7649	8.9931
2.7561	8.9902
2.7473	9.0019
2.7386	9.0002
2.7299	9.0232
2.7213	9.0224
2.7128	9.031
2.7043	9.0349
2.6959	9.0163
2.6875	9.031
2.6791	9.0503
2.6709	9.0613
2.6626	9.0801
2.6545	9.0906
2.6463	9.0959
2.6382	9.0759
2.6302	9.0669
2.6222	9.0886
2.6143	9.0969
2.6064	9.0852
2.5986	9.0991
2.5908	9.1181
2.583	9.1594
2.5753	9.1738
2.5677	9.1533
2.5601	9.114
2.5525	9.1115
2.545	9.1286
2.5375	9.1343
2.5301	9.1162
2.5227	9.0722
2.5154	9.0669
2.5081	9.0764
2.5008	9.0796
2.4936	9.0515
2.4864	9.0432
2.4793	9.02
2.4722	8.9988
2.4651	9.019
2.4581	9.0417
2.4511	9.0371
2.4442	9.0241
2.4373	9.0256
2.4305	9.0754
2.4236	9.0732
2.4169	8.9929
2.4101	8.957
2.4034	8.9807
2.3967	8.9719
2.3901	8.9585
2.3835	8.9729
2.377	9.0823
2.3704	9.1848
2.364	9.2429
2.3575	9.2439
2.3511	9.1706
2.3447	9.103
2.3384	9.1406
2.3321	9.156
2.3258	9.1308
2.3195	9.1372
2.3133	9.1228
2.3071	9.1706
2.301	9.1511
2.2949	9.1321
2.2888	9.0796
2.2828	9.0307
2.2767	9.0427
2.2708	9.0469
2.2648	9.0285
2.2589	9.0207
2.253	9.0241
2.2471	9.0405
2.2413	9.0471
2.2355	9.0263
2.2297	9.01
2.224	9.0005
2.2183	9.0102
2.2126	9.0395
2.207	9.0571
2.2013	9.0476
2.1957	9.0158
2.1902	9.0117
2.1846	8.9978
2.1791	8.9726
2.1736	8.9638
2.1682	8.9504
2.1628	8.9258
2.1574	8.9253
2.152	8.936
2.1466	8.9697
2.1413	8.9944
2.136	8.99
2.1308	8.9695
2.1255	8.9563
2.1203	8.9665
2.1151	9.0022
2.11	9.0766
2.1048	9.1675
2.0997	9.2466
2.0946	9.2988
2.0895	9.32
2.0845	9.28
2.0795	9.247
