Name: Chlorite
Type: Mineral
Class: Silicate
Subclass: Phyllosilicate
Particle Size: Fine
Sample No.: PS-12E
Owner: JPL
Wavelength Range: TIR
Origin: USA, Vermont
Description: Particle size was 0-45um.Collected by Ward's Original ASTER Spectral Library name was jpl.nicolet.mineral.silicate.phyllosilicate.fine.ps12e.spectrum.txt
Measurement: Hemispherical reflectance
X Units: Wavelength (micrometers)
Y Units: Reflectance (percent)
wavelength	value
15.3853	3.7769
15.1161	3.4701
14.8563	3.0818
14.6052	2.7612
14.3624	2.3634
14.1276	2.243
13.9004	2.7168
13.6803	2.5753
13.4671	2.4842
13.2604	2.9226
13.06	2.973
12.8656	2.4112
12.6769	2.0752
12.4936	1.781
12.3155	1.7231
12.1425	1.8392
11.9742	2.0283
11.8106	2.7545
11.6513	3.385
11.4963	3.5101
11.3454	3.72
11.1983	4.0266
11.0551	4.1319
10.9154	4.492
10.7793	4.9814
10.6465	5.4711
10.5169	6.2468
10.3904	6.6693
10.267	6.8804
10.1464	7.8527
10.0287	9.1298
9.9136	10.3416
9.8012	11.4289
9.6913	11.7224
9.5838	9.94
9.4787	8.8645
9.3758	9.7911
9.2752	8.4738
9.1767	6.1467
9.0803	5.1172
8.9858	3.7322
8.8934	2.6232
8.8028	2.4345
8.714	2.3107
8.627	2.2274
8.5417	2.5384
8.4581	2.9211
8.3761	3.6776
8.2957	4.0133
8.2169	4.8458
8.1395	5.4286
8.0635	6.1003
7.989	6.7316
7.9158	7.3539
7.8439	7.8655
7.7734	8.3352
7.7041	8.7889
7.636	9.3871
7.5691	9.8284
7.5034	10.2325
7.4388	10.6123
7.3753	11.0342
7.3129	11.3848
7.2515	11.7983
7.1912	12.4052
7.1318	12.6408
7.0734	13.0092
7.016	13.384
6.9595	14.0873
6.9039	14.2387
6.8492	14.4322
6.7953	14.7711
6.7423	14.6363
6.6901	14.7488
6.6387	14.935
6.5881	14.4446
6.5382	14.1494
6.4892	14.1819
6.4408	13.3634
6.3931	12.8943
6.3462	12.6458
6.2999	12.3839
6.2543	12.5182
6.2094	12.5924
6.1651	12.7064
6.1214	13.0646
6.0784	13.3864
6.0359	13.6387
5.994	13.8978
5.9527	13.9846
5.912	14.1063
5.8718	14.3284
5.8322	14.6394
5.7931	15.0355
5.7545	15.7541
5.7165	16.3858
5.6789	16.5594
5.6418	17.0172
5.6052	16.9228
5.5691	17.0036
5.5334	17.267
5.4982	17.4919
5.4635	17.9147
5.4291	18.1833
5.3952	18.3616
5.3618	18.4609
5.3287	18.5528
5.2961	18.7761
5.2638	18.9638
5.2319	19.3912
5.2004	20.0061
5.1693	20.4702
5.1386	20.9261
5.1082	21.0149
5.0782	21.0484
5.0485	21.0396
5.0192	20.9116
4.9902	20.7934
4.9616	21.1406
4.9332	21.8722
4.9052	22.7537
4.8776	23.7491
4.8502	24.7758
4.8231	25.6216
4.7963	26.4086
4.7699	27.1221
4.7437	28.0298
4.7178	29.3021
4.6922	30.5393
4.6668	31.6808
4.6418	32.3992
4.617	32.9328
4.5924	33.7304
4.5681	34.8079
4.5441	35.5668
4.5203	36.1117
4.4968	36.561
4.4735	37.0769
4.4505	37.4532
4.4277	37.8361
4.4051	38.1146
4.3828	38.2941
4.3607	38.5387
4.3388	38.7488
4.3171	39.0208
4.2956	39.3004
4.2744	39.479
4.2534	39.619
4.2325	39.9626
4.2119	39.9274
4.1915	40.0074
4.1712	40.1679
4.1512	40.3982
4.1313	40.5272
4.1117	40.6167
4.0922	40.6821
4.0729	40.6837
4.0538	40.9617
4.0349	40.9196
4.0161	40.9553
3.9976	40.9867
3.9792	40.9458
3.9609	40.9234
3.9428	41.0047
3.9249	41.0213
3.9072	41.0185
3.8896	40.8534
3.8722	40.8568
3.8549	40.7568
3.8378	40.536
3.8208	40.4971
3.804	40.4488
3.7873	40.2842
3.7708	40.2742
3.7544	40.0903
3.7382	39.8578
3.7221	39.6426
3.7061	39.5258
3.6903	39.3133
3.6746	39.2137
3.659	38.957
3.6436	38.7395
3.6283	38.3812
3.6131	38.1152
3.5981	37.7203
3.5832	37.0823
3.5684	36.5733
3.5537	36.334
3.5391	35.9623
3.5247	35.4431
3.5104	35.0483
3.4962	34.5449
3.4821	34.178
3.4681	33.774
3.4543	33.3641
3.4405	32.8228
3.4269	32.4968
3.4133	31.8562
3.3999	31.6235
3.3866	31.2504
3.3733	30.7721
3.3602	30.3445
3.3472	29.951
3.3343	29.4472
3.3215	29.0297
3.3088	28.6405
3.2961	28.1103
3.2836	27.7178
3.2712	27.2755
3.2588	26.8306
3.2466	26.2519
3.2345	25.4152
3.2224	24.745
3.2104	23.8861
3.1985	22.9023
3.1867	21.9754
3.175	20.8952
3.1634	19.8218
3.1519	18.9501
3.1404	17.9323
3.129	16.7388
3.1178	15.7523
3.1065	14.543
3.0954	13.3728
3.0844	12.349
3.0734	11.1897
3.0625	10.1757
3.0517	9.0922
3.041	8.5485
3.0303	7.8391
3.0197	7.2873
3.0092	6.6595
2.9987	6.2833
2.9884	5.6437
2.9781	5.2884
2.9678	5.0299
2.9577	4.6357
2.9476	4.5004
2.9376	4.2675
2.9276	4.0102
2.9177	4.2092
2.9079	4.2694
2.8982	4.5444
2.8885	4.7873
2.8789	5.2107
2.8693	5.3626
2.8598	5.2963
2.8504	4.9607
2.841	4.7691
2.8317	4.6039
2.8224	4.0812
2.8133	4.0108
2.8041	4.2367
2.7951	4.3848
2.786	4.8167
2.7771	6.4279
2.7682	8.0744
2.7594	9.1073
2.7506	10.484
2.7418	11.9069
2.7332	12.3186
2.7246	11.4659
2.716	12.6634
2.7075	24.8968
2.699	35.6609
2.6906	37.8372
2.6823	39.5293
2.674	40.5137
2.6657	41.5967
2.6575	41.4085
2.6494	41.5016
2.6413	41.7643
2.6332	41.8391
2.6252	42.0457
2.6173	42.0978
2.6094	41.7404
2.6015	41.6068
2.5937	41.9382
2.5859	41.3765
2.5782	41.244
2.5706	41.3357
2.5629	41.5282
2.5554	41.5053
2.5478	41.6936
2.5403	41.8778
2.5329	42.0193
2.5255	42.0511
2.5181	42.1988
2.5108	42.2364
2.5035	42.223
2.4963	42.3865
2.4891	42.2508
2.482	42.363
2.4749	42.4843
2.4678	42.8991
2.4608	43.0997
2.4538	43.6458
2.4468	44.1849
2.4399	44.4957
2.4331	44.4143
2.4262	44.8014
2.4194	45.069
2.4127	44.849
2.4059	44.7085
2.3993	44.4816
2.3926	44.0865
2.386	44.1238
2.3795	43.8804
2.3729	43.5362
2.3664	42.8503
2.36	42.1302
2.3535	41.4392
2.3471	40.7283
2.3408	40.234
2.3345	40.2893
2.3282	40.2543
2.3219	40.7317
2.3157	41.3885
2.3095	41.8143
2.3034	42.0496
2.2972	42.037
2.2911	42.5868
2.2851	43.5808
2.279	44.3691
2.2731	44.673
2.2671	44.8609
2.2612	44.5216
2.2553	44.2085
2.2494	43.8383
2.2435	44.6421
2.2377	46.0527
2.232	47.0097
2.2262	47.7482
2.2205	48.4581
2.2148	48.6731
2.2091	48.7638
2.2035	49.2626
2.1979	49.1332
2.1923	49.4929
2.1868	49.3768
2.1812	49.5181
2.1758	49.463
2.1703	49.6309
2.1649	49.7431
2.1595	49.8978
2.1541	49.8681
2.1487	49.7814
2.1434	49.9738
2.1381	49.9196
2.1328	49.9497
2.1275	49.7421
2.1223	49.7079
2.1171	50.0027
2.112	49.9054
2.1068	49.8872
2.1017	49.6958
2.0966	49.896
2.0915	50.0992
2.0865	50.0184
2.0814	50.1193
2.0764	50.0294
2.0715	50.0593
2.0665	50.0094
2.0616	49.8494
2.0567	49.8683
2.0518	49.8166
2.0469	49.7787
2.0421	49.7793
2.0373	49.6208
2.0325	49.6479
2.0277	49.6636
2.0229	49.3885
2.0182	49.1459
2.0135	48.8237
2.0088	48.661
2.0042	48.7592
