Name: Anglesite PbSO_4
Type: Mineral
Class: Sulfate
Subclass: None
Particle Size: Fine
Sample No.: SO-10A
Owner: JPL
Wavelength Range: VSWIR
Origin: USA, Arizona, Santa Cruz County, Glove Mine
Description: Particle size was 0-45um.Collected by JPL Original ASTER Spectral Library name was jpl.beckman.mineral.sulfate.none.fine.so10a.spectrum.txt
Measurement: Hemispherical reflectance
X Units: Wavelength (micrometers)
Y Units: Reflectance (percent)
wavelength	value
0.4	41.23
0.403	41.5
0.406	41.75
0.409	41.86
0.412	42.14
0.415	42.35
0.418	42.5
0.421	42.78
0.424	42.99
0.427	43.15
0.43	43.34
0.433	43.64
0.436	43.76
0.439	44.03
0.442	44.27
0.445	44.46
0.448	44.56
0.451	44.73
0.454	44.89
0.457	45.14
0.46	45.29
0.463	45.54
0.466	45.81
0.469	46.02
0.472	46.23
0.475	46.42
0.478	46.72
0.481	46.96
0.484	47.2
0.487	47.32
0.49	47.58
0.493	47.71
0.496	48.03
0.499	48.29
0.502	48.52
0.505	48.78
0.508	48.97
0.511	49.24
0.514	49.49
0.517	49.76
0.52	49.87
0.523	50.21
0.526	50.32
0.529	50.59
0.532	50.78
0.535	50.98
0.538	51.22
0.541	51.38
0.544	51.54
0.547	51.78
0.55	52.05
0.553	52.3
0.556	52.43
0.559	52.63
0.562	53.12
0.565	53.36
0.568	53.54
0.571	53.66
0.574	53.81
0.577	54.04
0.58	54.27
0.583	54.27
0.586	54.55
0.589	54.73
0.592	55.07
0.595	55.12
0.598	55.21
0.601	55.5
0.604	55.62
0.607	55.84
0.61	55.91
0.613	56.13
0.616	56.13
0.619	56.17
0.622	56.35
0.625	56.57
0.628	56.61
0.631	56.62
0.634	56.78
0.637	56.8
0.64	57.13
0.643	57.09
0.646	57.29
0.649	57.34
0.652	57.49
0.655	57.62
0.658	57.67
0.661	57.81
0.664	58.04
0.667	58.15
0.67	58.14
0.673	58.35
0.676	58.37
0.679	58.47
0.682	58.59
0.685	58.69
0.688	58.83
0.691	59
0.694	59.03
0.697	59.04
0.7	59.14
0.703	59.36
0.706	59.48
0.709	59.59
0.712	59.67
0.715	59.71
0.718	59.88
0.721	60.03
0.724	60.06
0.727	60.21
0.73	60.21
0.733	60.36
0.736	60.44
0.739	60.57
0.742	60.58
0.745	60.69
0.748	60.78
0.751	60.84
0.754	60.82
0.757	60.9
0.76	61.01
0.763	61.15
0.766	61.13
0.769	61.13
0.772	61.21
0.775	61.28
0.778	61.4
0.781	61.46
0.784	61.59
0.787	61.61
0.79	61.71
0.793	61.75
0.796	61.9
0.799	61.88
0.808	62.54
0.82	62.8
0.832	63.12
0.844	63.35
0.856	63.63
0.868	63.81
0.88	64.09
0.892	64.23
0.904	64.57
0.916	64.84
0.928	65.06
0.94	65.39
0.952	65.61
0.964	65.88
0.976	66.12
0.988	66.37
1	66.49
1.012	66.74
1.024	66.91
1.036	67.17
1.048	67.46
1.06	67.61
1.072	67.88
1.084	67.98
1.096	68.28
1.108	68.41
1.12	68.66
1.132	68.95
1.144	69.11
1.156	69.38
1.168	69.68
1.18	69.9
1.192	70.1
1.204	70.47
1.216	70.74
1.228	70.97
1.24	71.2
1.252	71.43
1.264	71.59
1.276	71.58
1.288	71.85
1.3	71.79
1.312	71.88
1.324	71.83
1.336	71.82
1.348	71.94
1.36	72.05
1.372	71.96
1.384	72.05
1.396	72.08
1.408	72.13
1.42	72.09
1.432	72.19
1.444	72.2
1.456	72.14
1.468	72.16
1.48	72.17
1.492	72.25
1.504	72.29
1.516	72.29
1.528	72.3
1.54	72.31
1.552	72.32
1.564	72.38
1.576	72.29
1.588	72.34
1.6	72.36
1.612	72.44
1.624	72.45
1.636	72.44
1.648	72.46
1.66	72.6
1.672	72.57
1.684	72.51
1.696	72.47
1.708	72.48
1.72	72.56
1.732	72.52
1.744	72.46
1.756	72.44
1.768	72.54
1.78	72.48
1.792	72.5
1.804	72.51
1.816	72.4
1.828	72.39
1.84	72.42
1.852	72.34
1.864	72.34
1.876	72.3
1.888	72.4
1.9	72.39
1.912	72.34
1.924	72.42
1.936	72.3
1.948	72.34
1.96	72.3
1.972	72.36
1.984	72.5
1.996	72.56
2.008	72.63
2.02	72.74
2.032	72.82
2.044	72.83
2.056	72.96
2.068	72.91
2.08	72.96
2.092	73.01
2.104	73.18
2.116	73.41
2.128	73.38
2.14	73.32
2.152	73.38
2.164	73.09
2.176	73.05
2.188	72.95
2.2	72.95
2.212	72.88
2.224	72.87
2.236	72.92
2.248	72.99
2.26	73
2.272	73.17
2.284	73.11
2.296	73.23
2.308	73.27
2.32	73.44
2.332	73.48
2.344	73.59
2.356	73.55
2.368	73.58
2.38	73.59
2.392	73.52
2.404	73.58
2.416	73.62
2.428	73.63
2.44	73.7
2.452	73.74
2.464	73.7
2.476	73.86
2.488	74.26
2.5	74.68
