Name: Calcite CaCO_3
Type: Mineral
Class: Carbonate
Subclass: None
Particle Size: Fine
Sample No.: C-3D
Owner: JPL
Wavelength Range: TIR
Origin: United Kingdom, England
Description: Particle size was  0-45um.Collected by Ward's Original ASTER Spectral Library name was jpl.nicolet.mineral.carbonate.none.fine.c03d.spectrum.txt
Measurement: Hemispherical reflectance
X Units: Wavelength (micrometers)
Y Units: Reflectance (percent)
wavelength	value
15.3853	17.8324
15.1161	19.9108
14.8563	21.2148
14.6052	21.8101
14.3624	18.9578
14.1276	7.4614
13.9004	5.02
13.6803	20.8985
13.4671	26.2265
13.2604	27.3082
13.06	25.7049
12.8656	23.8413
12.6769	24.8859
12.4936	26.1151
12.3155	28.083
12.1425	29.5667
11.9742	29.0791
11.8106	15.3736
11.6513	21.1498
11.4963	7.0384
11.3454	4.416
11.1983	22.8272
11.0551	27.3744
10.9154	27.5106
10.7793	26.6399
10.6465	25.4804
10.5169	25.5947
10.3904	26.0979
10.267	23.8023
10.1464	20.6868
10.0287	18.1257
9.9136	16.0665
9.8012	15.4062
9.6913	15.4545
9.5838	16.0139
9.4787	17.1751
9.3758	17.8552
9.2752	18.6981
9.1767	19.7698
9.0803	22.4952
8.9858	24.7179
8.8934	26.3865
8.8028	27.6927
8.714	26.7502
8.627	23.472
8.5417	22.8104
8.4581	22.9892
8.3761	26.0261
8.2957	28.8617
8.2169	30.5263
8.1395	29.9421
8.0635	28.7868
7.989	29.9449
7.9158	28.4319
7.8439	28.2982
7.7734	27.1933
7.7041	25.8825
7.636	22.4867
7.5691	20.5659
7.5034	20.0421
7.4388	18.3696
7.3753	16.2359
7.3129	12.3403
7.2515	9.0804
7.1912	6.2292
7.1318	5.5107
7.0734	6.2118
7.016	5.91
6.9595	5.8038
6.9039	6.0108
6.8492	6.1942
6.7953	6.3415
6.7423	6.7505
6.6901	7.5426
6.6387	8.9633
6.5881	10.0465
6.5382	10.2381
6.4892	10.9908
6.4408	12.6899
6.3931	10.9262
6.3462	8.8277
6.2999	5.807
6.2543	6.2283
6.2094	5.5847
6.1651	5.3565
6.1214	5.4618
6.0784	5.7501
6.0359	6.5822
5.994	7.8662
5.9527	8.7046
5.912	9.8884
5.8718	11.0571
5.8322	11.3683
5.7931	11.4143
5.7545	11.4458
5.7165	13.0763
5.6789	15.2646
5.6418	18.405
5.6052	12.7382
5.5691	2.4321
5.5334	12.7401
5.4982	26.0928
5.4635	33.6619
5.4291	39.8796
5.3952	45.256
5.3618	49.643
5.3287	53.2785
5.2961	56.7085
5.2638	58.9873
5.2319	61.1035
5.2004	62.8351
5.1693	63.8831
5.1386	64.9786
5.1082	60.2381
5.0782	66.0086
5.0485	67.5143
5.0192	67.5777
4.9902	67.4376
4.9616	67.3851
4.9332	67.3119
4.9052	67.6991
4.8776	67.9943
4.8502	68.2717
4.8231	68.4808
4.7963	68.4186
4.7699	67.7638
4.7437	65.4564
4.7178	59.0987
4.6922	49.3895
4.6668	47.2264
4.6418	52.9675
4.617	59.7182
4.5924	61.7371
4.5681	62.3711
4.5441	62.6455
4.5203	62.9168
4.4968	63.6902
4.4735	65.8937
4.4505	67.6553
4.4277	69.4557
4.4051	70.4424
4.3828	71.0096
4.3607	70.3886
4.3388	69.3893
4.3171	69.3198
4.2956	69.6598
4.2744	68.312
4.2534	69.0472
4.2325	68.8764
4.2119	68.6114
4.1915	67.8534
4.1712	66.7034
4.1512	65.1556
4.1313	62.685
4.1117	59.8704
4.0922	56.6652
4.0729	52.4533
4.0538	46.6263
4.0349	34.7251
4.0161	25.047
3.9976	13.0857
3.9792	8.9862
3.9609	10.5915
3.9428	18.5419
3.9249	23.1714
3.9072	25.027
3.8896	25.9898
3.8722	26.663
3.8549	27.5725
3.8378	30.0398
3.8208	37.5933
3.804	47.2106
3.7873	59.4355
3.7708	63.9704
3.7544	65.5315
3.7382	66.7176
3.7221	67.7474
3.7061	68.1442
3.6903	68.2543
3.6746	67.9572
3.659	67.6107
3.6436	66.8301
3.6283	66.0561
3.6131	64.914
3.5981	63.1004
3.5832	59.5223
3.5684	56.1453
3.5537	55.1647
3.5391	49.9592
3.5247	38.4715
3.5104	28.0661
3.4962	23.5998
3.4821	19.7601
3.4681	24.2743
3.4543	30.7464
3.4405	31.8942
3.4269	31.9106
3.4133	31.7451
3.3999	31.0355
3.3866	30.1883
3.3733	29.4523
3.3602	27.3758
3.3472	26.4342
3.3343	43.6851
3.3215	50.59
3.3088	53.0315
3.2961	54.4462
3.2836	55.1304
3.2712	55.854
3.2588	55.983
3.2466	56.001
3.2345	56.0908
3.2224	55.929
3.2104	55.7168
3.1985	55.5705
3.1867	55.1743
3.175	54.6888
3.1634	53.7074
3.1519	52.9915
3.1404	52.7638
3.129	52.6456
3.1178	52.0951
3.1065	51.5812
3.0954	51.848
3.0844	52.017
3.0734	52.1694
3.0625	52.1273
3.0517	52.2089
3.041	52.2685
3.0303	52.1336
3.0197	52.2862
3.0092	52.2911
2.9987	52.2278
2.9884	52.1153
2.9781	52.2986
2.9678	51.9513
2.9577	52.206
2.9476	52.3941
2.9376	52.455
2.9276	52.6418
2.9177	53.0048
2.9079	53.3056
2.8982	53.6311
2.8885	54.1924
2.8789	54.6893
2.8693	55.1729
2.8598	55.6939
2.8504	56.2222
2.841	56.7076
2.8317	57.2201
2.8224	57.5798
2.8133	57.9103
2.8041	58.1804
2.7951	57.1588
2.786	57.2221
2.7771	58.3938
2.7682	59.643
2.7594	60.277
2.7506	61.8724
2.7418	65.2004
2.7332	67.9379
2.7246	72.3628
2.716	75.5981
2.7075	79.2006
2.699	82.0606
2.6906	85.233
2.6823	87.3322
2.674	88.6268
2.6657	90.3938
2.6575	89.7062
2.6494	90.0059
2.6413	90.2853
2.6332	90.7863
2.6252	90.8203
2.6173	91.4177
2.6094	91.0546
2.6015	90.6043
2.5937	91.2221
2.5859	89.6444
2.5782	89.0062
2.5706	88.3783
2.5629	86.7406
2.5554	82.926
2.5478	78.7606
2.5403	75.5798
2.5329	75.4412
2.5255	77.7086
2.5181	79.4848
2.5108	80.4463
2.5035	81.0644
2.4963	81.3031
2.4891	81.9201
2.482	82.7853
2.4749	84.1661
2.4678	85.6982
2.4608	87.2159
2.4538	88.3184
2.4468	89.0237
2.4399	89.7825
2.4331	90.5343
2.4262	91.314
2.4194	91.5022
2.4127	92.1281
2.4059	92.0708
2.3993	92.1349
2.3926	92.4591
2.386	92.533
2.3795	92.1917
2.3729	91.6371
2.3664	90.7077
2.36	88.5417
2.3535	86.0616
2.3471	84.2489
2.3408	83.6144
2.3345	83.908
2.3282	84.9245
2.3219	86.1194
2.3157	86.9793
2.3095	87.3953
2.3034	87.6804
2.2972	88.1317
2.2911	88.4304
2.2851	89.553
2.279	90.3159
2.2731	91.2082
2.2671	91.8647
2.2612	92.4252
2.2553	92.9383
2.2494	93.2959
2.2435	93.6211
2.2377	93.8642
2.232	94.1779
2.2262	94.3631
2.2205	94.5981
2.2148	94.55
2.2091	94.7167
2.2035	94.901
2.1979	95.007
2.1923	95.2471
2.1868	95.4025
2.1812	95.1329
2.1758	95.2241
2.1703	95.0059
2.1649	94.8349
2.1595	94.8357
2.1541	94.6675
2.1487	94.9495
2.1434	95.2704
2.1381	95.3438
2.1328	95.3527
2.1275	95.4345
2.1223	95.7985
2.1171	95.7375
2.112	95.7592
2.1068	95.6935
2.1017	95.8836
2.0966	95.6998
2.0915	95.9323
2.0865	95.8355
2.0814	96.1065
2.0764	95.9686
2.0715	96.0318
2.0665	96.3398
2.0616	95.8948
2.0567	96.0629
2.0518	95.9457
2.0469	96.0264
2.0421	95.8272
2.0373	95.8064
2.0325	95.5412
2.0277	95.7699
2.0229	95.6075
2.0182	95.429
2.0135	95.3254
2.0088	95.0201
2.0042	94.7351
