Name: Topaz Al_2SiO_4(F,OH)_2
Type: Mineral
Class: Silicate
Subclass: Nesosilicate
Particle Size: Coarse
Sample No.: NS-6A
Owner: JPL
Wavelength Range: TIR
Origin: Australia, Western Australia, Grossmont
Description: Particle size was 125-500um.Collected by Ward's Original ASTER Spectral Library name was jpl.nicolet.mineral.silicate.nesosilicate.coarse.ns06a.spectrum.txt
Measurement: Hemispherical reflectance
X Units: Wavelength (micrometers)
Y Units: Reflectance (percent)
wavelength	value
15.3853	31.1912
15.1161	27.0833
14.8563	15.2792
14.6052	5.2274
14.3624	0.9805
14.1276	0.8692
13.9004	0.8162
13.6803	1.2346
13.4671	1.9884
13.2604	2.7098
13.06	3.4158
12.8656	3.8402
12.6769	4.8123
12.4936	5.7539
12.3155	7.1977
12.1425	9.0745
11.9742	11.6273
11.8106	16.2555
11.6513	22.1064
11.4963	28.413
11.3454	32.1688
11.1983	31.122
11.0551	30.9154
10.9154	28.5273
10.7793	28.7628
10.6465	32.1499
10.5169	35.0997
10.3904	34.4256
10.267	29.5016
10.1464	19.6724
10.0287	21.7647
9.9136	23.6251
9.8012	19.1481
9.6913	15.0889
9.5838	12.4102
9.4787	8.7917
9.3758	5.1604
9.2752	2.4159
9.1767	1.0361
9.0803	0.5452
8.9858	0.3219
8.8934	0.1731
8.8028	0.2939
8.714	0.2097
8.627	0.7813
8.5417	0.8134
8.4581	0.1331
8.3761	0.0711
8.2957	0.2326
8.2169	0.3167
8.1395	0.3016
8.0635	0.3536
7.989	0.46
7.9158	0.5595
7.8439	0.7565
7.7734	0.8904
7.7041	1.0589
7.636	1.1373
7.5691	1.3769
7.5034	1.4419
7.4388	1.7993
7.3753	1.9215
7.3129	2.2914
7.2515	2.553
7.1912	2.8259
7.1318	3.1555
7.0734	3.3939
7.016	3.5717
6.9595	3.881
6.9039	4.2621
6.8492	4.6973
6.7953	4.8631
6.7423	4.7201
6.6901	5.0723
6.6387	6.1281
6.5881	6.3394
6.5382	6.6353
6.4892	7.3209
6.4408	7.3917
6.3931	7.9211
6.3462	8.7028
6.2999	8.8518
6.2543	9.1716
6.2094	9.675
6.1651	10.1348
6.1214	10.6891
6.0784	11.4105
6.0359	12.2716
5.994	13.3759
5.9527	12.9311
5.912	11.2569
5.8718	10.5568
5.8322	8.878
5.7931	7.9371
5.7545	8.1552
5.7165	8.3438
5.6789	7.1716
5.6418	5.5859
5.6052	3.5761
5.5691	2.7594
5.5334	2.2441
5.4982	2.3463
5.4635	2.5431
5.4291	2.7021
5.3952	2.8358
5.3618	2.7701
5.3287	3.1209
5.2961	3.632
5.2638	4.2866
5.2319	6.0599
5.2004	8.5713
5.1693	10.7642
5.1386	12.8907
5.1082	14.7832
5.0782	17.0237
5.0485	18.8208
5.0192	20.0601
4.9902	19.7455
4.9616	18.7094
4.9332	20.7415
4.9052	26.3361
4.8776	31.6704
4.8502	35.1242
4.8231	37.6932
4.7963	39.4799
4.7699	40.3174
4.7437	41.0199
4.7178	41.4096
4.6922	41.6778
4.6668	41.8951
4.6418	41.5456
4.617	41.7167
4.5924	42.3923
4.5681	43.0529
4.5441	44.0884
4.5203	45.2899
4.4968	46.0688
4.4735	46.4951
4.4505	46.5317
4.4277	46.3721
4.4051	45.5087
4.3828	43.3069
4.3607	37.5282
4.3388	26.7404
4.3171	16.6008
4.2956	22.0846
4.2744	29.4398
4.2534	35.8826
4.2325	40.007
4.2119	45.0027
4.1915	48.096
4.1712	49.2789
4.1512	49.8605
4.1313	50.3589
4.1117	50.6747
4.0922	51.0339
4.0729	51.3007
4.0538	50.88
4.0349	49.6712
4.0161	49.4173
3.9976	51.4114
3.9792	51.8811
3.9609	52.051
3.9428	52.1039
3.9249	52.0034
3.9072	51.4633
3.8896	50.3394
3.8722	49.2465
3.8549	48.6178
3.8378	48.6477
3.8208	49.1368
3.804	49.6513
3.7873	50.2035
3.7708	50.6466
3.7544	51.0354
3.7382	51.3713
3.7221	50.4852
3.7061	51.1264
3.6903	51.1858
3.6746	50.8723
3.659	50.4471
3.6436	50.2014
3.6283	49.984
3.6131	49.9705
3.5981	49.9729
3.5832	49.8983
3.5684	49.9155
3.5537	49.8757
3.5391	49.9564
3.5247	50.0132
3.5104	49.9004
3.4962	49.8208
3.4821	49.909
3.4681	49.9043
3.4543	49.8959
3.4405	49.7234
3.4269	49.3695
3.4133	48.8261
3.3999	48.8783
3.3866	48.5811
3.3733	48.2049
3.3602	48.0327
3.3472	47.8221
3.3343	47.4352
3.3215	46.7834
3.3088	46.5264
3.2961	46.27
3.2836	45.702
3.2712	45.2709
3.2588	44.4792
3.2466	43.7012
3.2345	43.2469
3.2224	42.629
3.2104	41.9903
3.1985	41.4546
3.1867	40.5924
3.175	39.7272
3.1634	39.0666
3.1519	38.4258
3.1404	37.8224
3.129	37.416
3.1178	36.457
3.1065	35.5484
3.0954	34.3264
3.0844	33.2594
3.0734	32.3288
3.0625	31.4929
3.0517	30.157
3.041	28.5192
3.0303	27.3035
3.0197	26.1038
3.0092	24.0602
2.9987	23.1306
2.9884	21.9137
2.9781	21.2556
2.9678	21.3243
2.9577	22.2985
2.9476	23.7633
2.9376	24.6423
2.9276	24.9361
2.9177	24.4778
2.9079	22.9588
2.8982	21.8389
2.8885	22.1735
2.8789	21.9532
2.8693	22.0713
2.8598	24.1375
2.8504	25.4296
2.841	26.1595
2.8317	25.1544
2.8224	24.7252
2.8133	24.1334
2.8041	22.7869
2.7951	20.4888
2.786	18.7374
2.7771	16.763
2.7682	12.8318
2.7594	6.5946
2.7506	2.8281
2.7418	2.4084
2.7332	3.2113
2.7246	10.4565
2.716	18.1307
2.7075	24.803
2.699	29.3848
2.6906	32.9147
2.6823	35.414
2.674	36.9827
2.6657	39.3991
2.6575	37.6902
2.6494	37.3965
2.6413	36.467
2.6332	35.2265
2.6252	31.5423
2.6173	30.1734
2.6094	30.2739
2.6015	28.5883
2.5937	32.1588
2.5859	31.5826
2.5782	31.4457
2.5706	27.4502
2.5629	24.7163
2.5554	20.4658
2.5478	18.6756
2.5403	19.5066
2.5329	18.8202
2.5255	20.135
2.5181	21.3267
2.5108	24.9665
2.5035	25.7474
2.4963	28.0287
2.4891	31.2637
2.482	33.2628
2.4749	33.699
2.4678	34.2088
2.4608	36.3946
2.4538	39.1077
2.4468	40.5658
2.4399	42.0432
2.4331	41.0052
2.4262	40.9329
2.4194	40.8878
2.4127	41.9191
2.4059	43.8634
2.3993	44.2997
2.3926	44.9465
2.386	45.5618
2.3795	45.477
2.3729	45.3854
2.3664	46.1456
2.36	46.7287
2.3535	47.2764
2.3471	46.8613
2.3408	46.8933
2.3345	47.1263
2.3282	47.1409
2.3219	47.956
2.3157	49.0292
2.3095	49.5661
2.3034	50.2626
2.2972	51.11
2.2911	52.8077
2.2851	53.4686
2.279	53.609
2.2731	52.861
2.2671	50.8613
2.2612	48.8567
2.2553	52.2966
2.2494	53.9532
2.2435	54.061
2.2377	53.9455
2.232	53.8488
2.2262	53.043
2.2205	51.7806
2.2148	50.1918
2.2091	50.1011
2.2035	49.9955
2.1979	50.5885
2.1923	51.2033
2.1868	51.1023
2.1812	50.1789
2.1758	49.4795
2.1703	48.827
2.1649	48.8331
2.1595	47.1999
2.1541	45.3525
2.1487	46.1627
2.1434	47.1996
2.1381	48.2846
2.1328	50.9336
2.1275	52.1918
2.1223	52.6222
2.1171	52.2251
2.112	51.3973
2.1068	49.7026
2.1017	47.5487
2.0966	43.0817
2.0915	32.3598
2.0865	17.0842
2.0814	12.8433
2.0764	28.2943
2.0715	42.3383
2.0665	48.4601
2.0616	51.6049
2.0567	53.2751
2.0518	53.7057
2.0469	54.537
2.0421	54.8422
2.0373	55.2117
2.0325	55.3214
2.0277	55.3235
2.0229	55.3891
2.0182	55.2809
2.0135	55.5532
2.0088	55.5335
2.0042	55.1218
