Name: Tourmaline (Elbaite) Na(Li,Al)3Al6(BO3)3Si6018(OH)4
Type: Mineral
Class: Silicate
Subclass: Cyclosilicate
Particle Size: Fine
Sample No.: tourmal_1
Owner: JHU
Wavelength Range: TIR
Origin: Sao Jose De Brejuada, Minas Gerais, Brazil via the Smithsonian(sample no.  NMNH 94217-1)
Description: The sample was a purple, translucent, sudhedral crystal, with some green coloration at one end. The crystal was 5 mm x 2 cm x 2 cm in size.  Microscopic examination indicated that the mineral was pure. Particle size was Less than 2  Micrometers.(Ring Silicates) Original ASTER Spectral Library name was jhu.nicolet.mineral.silicate.cyclosilicate.powder.tourma1.spectrum.txt
Measurement: Transmission
X Units: Wavelength (micrometers)
Y Units: Transmittance (percent)
wavelength	value
25.0442	69.8475
24.3388	68.5975
23.6719	64.0467
23.0407	59.576
22.4422	56.2704
21.8741	50.3632
21.334	50.7206
20.8199	48.5555
20.33	43.1454
19.8627	34.4589
19.4163	29.8261
18.9896	30.3735
18.5812	33.0839
18.19	33.8212
17.815	33.6327
17.4551	36.6337
17.1094	37.2226
16.7772	41.0233
16.4576	48.5995
16.15	52.5868
15.8537	56.096
15.568	57.8246
15.2925	60.1112
15.0265	61.8958
14.7697	67.1156
14.5214	69.5291
14.2814	66.7171
14.0492	55.5096
13.8244	53.7958
13.6067	65.8585
13.3957	69.8865
13.1912	68.8987
12.9929	69.2127
12.8004	55.5936
12.6135	59.0528
12.432	76.6321
12.2557	80.3157
12.0843	80.3623
11.9176	78.7403
11.7555	76.056
11.5977	76.0066
11.444	76.5325
11.2944	76.3331
11.1487	75.2627
11.0067	74.8377
10.8682	72.2381
10.7332	66.8421
10.6015	59.7206
10.473	49.0624
10.3476	35.9604
10.2251	24.5278
10.1056	18.7404
9.9887	19.9457
9.8746	22.4826
9.763	20.7951
9.6539	23.7534
9.5472	27.007
9.4429	28.7934
9.3408	35.6825
9.2409	39.0019
9.1431	31.6125
9.0474	29.2831
8.9536	35.7296
8.8618	47.5599
8.7718	58.0365
8.6837	66.827
8.5973	71.8445
8.5126	73.8585
8.4295	74.9822
8.3481	77.4397
8.2682	77.7564
8.1898	74.0613
8.1129	67.4058
8.0374	64.8446
7.9634	60.5826
7.8906	54.9581
7.8192	49.9906
7.7491	42.9491
7.6802	40.3012
7.6126	44.4762
7.5461	50.1666
7.4807	52.3656
7.4165	50.1649
7.3534	53.8143
7.2914	60.7601
7.2303	64.1995
7.1703	65.3934
7.1113	70.577
7.0533	74.5994
6.9962	77.3851
6.94	78.2078
6.8847	80.9251
6.8302	82.0374
6.7767	84.4556
6.7239	85.7039
6.672	86.2942
6.6209	86.7923
6.5705	87.7859
6.5209	88.1721
6.4721	88.4812
6.424	88.6897
6.3766	88.7146
6.3299	88.5374
6.2838	88.262
6.2385	87.7381
6.1937	86.7671
6.1496	85.657
6.1062	85.3499
6.0633	85.8924
6.0211	87.4031
5.9794	88.908
5.9383	89.136
5.8978	89.2556
5.8578	89.5486
5.8184	90.0159
5.7794	90.1565
5.741	90.386
5.7031	90.4631
5.6657	90.5503
5.6288	90.635
5.5924	90.6521
5.5564	90.6941
5.5209	90.7322
5.4859	90.7234
5.4513	90.8247
5.4171	90.9026
5.3833	90.8679
5.35	90.96
5.3171	90.9773
5.2846	91.0037
5.2524	91.0872
5.2207	91.1087
5.1893	91.1394
5.1584	91.1917
5.1277	91.2078
5.0975	91.221
5.0676	91.1921
5.038	91.1702
5.0088	91.155
4.98	91.1384
4.9514	91.1314
4.9232	91.1548
4.8953	91.1458
4.8678	91.1453
4.8405	91.1633
4.8135	91.2991
4.7868	91.2922
4.7605	91.3413
4.7344	91.3601
4.7086	91.4014
4.6831	91.4343
4.6578	91.4636
4.6328	91.5676
4.6081	91.6843
4.5837	91.6223
4.5595	91.5711
4.5356	91.582
4.5119	91.5994
4.4884	91.5606
4.4652	91.6201
4.4423	91.4695
4.4196	91.4863
4.3971	91.5046
4.3748	91.5549
4.3528	91.5037
4.331	91.4671
4.3094	91.5552
4.288	91.4441
4.2668	91.5125
4.2458	91.4942
4.2251	91.5388
4.2045	91.5325
4.1841	91.5713
4.164	91.6311
4.144	91.5339
4.1242	91.627
4.1046	91.6438
4.0852	91.7454
4.066	91.7063
4.047	91.7266
4.0281	91.7893
4.0094	91.7859
3.9909	91.7805
3.9725	91.8235
3.9544	91.8543
3.9363	91.8889
3.9185	91.9202
3.9008	91.8899
3.8833	91.9075
3.8659	91.8254
3.8487	91.8587
3.8316	91.7986
3.8147	91.804
3.7979	91.7112
3.7813	91.7537
3.7648	91.7371
3.7485	91.7219
3.7323	91.6924
3.7162	91.6746
3.7003	91.6326
3.6845	91.6279
3.6689	91.5671
3.6534	91.4727
3.638	91.4392
3.6227	91.3289
3.6076	91.3333
3.5926	91.3643
3.5777	91.2488
3.563	91.0955
3.5484	91.0889
3.5338	90.9446
3.5195	90.5759
3.5052	90.2156
3.491	90.2022
3.477	90.2197
3.463	90.1592
3.4492	89.8587
3.4355	89.6531
3.4219	89.0879
3.4084	89.0388
3.395	89.3152
3.3817	89.1787
3.3685	89.3604
3.3554	89.3848
3.3425	89.3584
3.3296	89.1707
3.3168	89.0205
3.3041	89.1131
3.2915	88.8914
3.279	88.6221
3.2666	88.4824
3.2543	88.199
3.2421	87.9346
3.23	87.7071
3.218	87.3953
3.206	87.0442
3.1942	86.8201
3.1824	86.6385
3.1707	86.3963
3.1591	86.0691
3.1476	85.6956
3.1362	85.4265
3.1249	85.031
3.1136	84.6961
3.1024	84.284
3.0913	83.8025
3.0803	83.4275
3.0694	83.0408
3.0585	82.6599
3.0477	82.284
3.037	81.8299
3.0264	81.5608
3.0158	80.8177
3.0053	80.1448
2.9949	79.2757
2.9845	78.3533
2.9743	77.3465
2.9641	76.1917
2.9539	75.3904
2.9439	74.4964
2.9339	73.7586
2.9239	73.033
2.9141	72.2332
2.9043	71.4559
2.8946	70.6058
2.8849	69.4022
2.8753	68.473
2.8658	68.1331
2.8563	69.2967
2.8469	72.4964
2.8375	75.6189
2.8282	77.5018
2.819	77.7776
2.8098	76.8543
2.8007	76.199
2.7917	76.3147
2.7827	76.6658
2.7738	80.3694
2.7649	85.7947
2.7561	88.0608
2.7473	89.0335
2.7386	89.2893
2.7299	90.5076
2.7213	90.7756
2.7128	91.1272
2.7043	91.617
2.6959	91.9685
2.6875	92.1702
2.6791	92.1643
2.6709	92.4378
2.6626	92.1858
2.6545	92.1838
2.6463	92.2703
2.6382	92.3713
2.6302	92.4221
2.6222	92.1995
2.6143	92.1462
2.6064	92.4002
2.5986	92.3191
2.5908	92.2293
2.583	92.2595
2.5753	92.1726
2.5677	92.2527
2.5601	92.1668
2.5525	92.2605
2.545	92.0925
2.5375	92.2576
2.5301	92.1638
2.5227	91.9138
2.5154	92.074
2.5081	92.0935
2.5008	92.2146
2.4936	92.0945
2.4864	92.2039
2.4793	92.0154
2.4722	91.9802
2.4651	91.9861
2.4581	92.0896
2.4511	92.3337
2.4442	91.988
2.4373	91.9802
2.4305	91.9529
2.4236	92.238
2.4169	92.2029
2.4101	92.0369
2.4034	92.032
2.3967	91.9539
2.3901	92.0994
2.3835	92.0037
2.377	91.9099
2.3704	91.9763
2.364	92.1736
2.3575	91.9529
2.3511	92.1677
2.3447	91.9109
2.3384	91.8396
2.3321	91.867
2.3258	91.9197
2.3195	91.863
2.3133	91.783
2.3071	91.8904
2.301	91.9763
2.2949	91.9744
2.2888	92.114
2.2828	91.8796
2.2767	91.7478
2.2708	91.6209
2.2648	92.3005
2.2589	91.8289
2.253	91.8513
2.2471	92.2351
2.2413	91.8201
2.2355	91.9304
2.2297	92.0369
2.224	91.8533
2.2183	91.9275
2.2126	91.824
2.207	92.1697
2.2013	91.6052
2.1957	91.6091
2.1902	91.8201
2.1846	91.6091
2.1791	91.6365
2.1736	92.2009
2.1682	91.822
2.1628	91.8709
2.1574	91.8455
2.152	91.6111
2.1466	91.8611
2.1413	91.6267
2.136	91.7439
2.1308	92.113
2.1255	91.7947
2.1203	91.8123
2.1151	91.8513
2.11	91.8435
2.1048	91.6951
2.0997	91.992
2.0946	91.949
2.0895	91.6443
2.0845	92.0486
2.0795	91.9627
