Name: Vermiculite (Mg,Fe^2+,Al)_3(Al,Si)_4O_10(OH)_2.4H_2O
Type: Mineral
Class: Silicate
Subclass: Phyllosilicate
Particle Size: Fine
Sample No.: PS-18A
Owner: JPL
Wavelength Range: TIR
Origin: USA, Texas, Llano County, Llano
Description: Particle size was 0-45um.Collected by Clay Mineral Society Original ASTER Spectral Library name was jpl.nicolet.mineral.silicate.phyllosilicate.fine.ps18a.spectrum.txt
Measurement: Hemispherical reflectance
X Units: Wavelength (micrometers)
Y Units: Reflectance (percent)
wavelength	value
15.3853	3.3919
15.1161	3.4578
14.8563	3.6439
14.6052	3.674
14.3624	3.4294
14.1276	3.386
13.9004	2.8572
13.6803	2.8946
13.4671	3.6585
13.2604	3.962
13.06	5.1498
12.8656	5.8811
12.6769	6.4092
12.4936	7.1617
12.3155	7.6326
12.1425	8.3942
11.9742	8.9379
11.8106	8.8312
11.6513	9.3316
11.4963	7.6067
11.3454	6.4054
11.1983	9.2222
11.0551	9.2876
10.9154	7.77
10.7793	6.2588
10.6465	5.6899
10.5169	4.9789
10.3904	4.8386
10.267	4.6562
10.1464	4.7929
10.0287	5.1302
9.9136	5.0074
9.8012	5.2176
9.6913	5.0907
9.5838	5.5906
9.4787	5.506
9.3758	5.4207
9.2752	5.4459
9.1767	5.487
9.0803	6.8214
8.9858	8.9554
8.8934	10.0865
8.8028	11.1414
8.714	12.3858
8.627	13.2334
8.5417	13.5714
8.4581	13.1153
8.3761	13.4486
8.2957	14.0004
8.2169	14.9936
8.1395	15.3037
8.0635	15.5898
7.989	16.0118
7.9158	16.7169
7.8439	17.2096
7.7734	17.0685
7.7041	16.5336
7.636	15.9307
7.5691	15.0945
7.5034	14.1856
7.4388	13.1976
7.3753	11.9697
7.3129	10.4243
7.2515	9.0685
7.1912	8.2058
7.1318	7.9287
7.0734	8.2715
7.016	9.143
6.9595	8.8992
6.9039	8.2983
6.8492	8.1598
6.7953	8.2036
6.7423	8.5123
6.6901	9.167
6.6387	10.1283
6.5881	11.3376
6.5382	12.6795
6.4892	14.1425
6.4408	15.3972
6.3931	15.7249
6.3462	15.0347
6.2999	12.9418
6.2543	10.4801
6.2094	8.2614
6.1651	6.6963
6.1214	5.8432
6.0784	5.6575
6.0359	5.7551
5.994	6.0896
5.9527	6.9279
5.912	8.1552
5.8718	9.7057
5.8322	11.5594
5.7931	13.1667
5.7545	14.5847
5.7165	15.8904
5.6789	16.8881
5.6418	17.598
5.6052	16.1038
5.5691	12.3952
5.5334	12.4503
5.4982	14.4014
5.4635	17.6221
5.4291	21.8703
5.3952	25.5144
5.3618	28.1606
5.3287	30.469
5.2961	32.3638
5.2638	33.8655
5.2319	35.4136
5.2004	36.9207
5.1693	37.8563
5.1386	38.3122
5.1082	38.7633
5.0782	38.8112
5.0485	39.0073
5.0192	39.5358
4.9902	40.251
4.9616	40.9774
4.9332	41.3527
4.9052	41.8456
4.8776	42.6002
4.8502	42.901
4.8231	43.0083
4.7963	43.0747
4.7699	43.4557
4.7437	43.666
4.7178	43.5634
4.6922	42.9522
4.6668	42.4405
4.6418	42.1424
4.617	42.2466
4.5924	42.5966
4.5681	43.0563
4.5441	43.6831
4.5203	44.1411
4.4968	44.4351
4.4735	44.7557
4.4505	44.7661
4.4277	44.8958
4.4051	45.1705
4.3828	45.4727
4.3607	45.6266
4.3388	45.6934
4.3171	45.7016
4.2956	46.0033
4.2744	46.1465
4.2534	46.5201
4.2325	46.8294
4.2119	47.1412
4.1915	47.4382
4.1712	47.4683
4.1512	47.5732
4.1313	47.6116
4.1117	47.4617
4.0922	47.0021
4.0729	46.1713
4.0538	44.2526
4.0349	40.5837
4.0161	34.7783
3.9976	29.215
3.9792	23.647
3.9609	20.5191
3.9428	21.3851
3.9249	23.5901
3.9072	26.118
3.8896	28.4764
3.8722	30.2744
3.8549	31.927
3.8378	33.179
3.8208	33.5393
3.804	34.1525
3.7873	37.0139
3.7708	39.8887
3.7544	42.3789
3.7382	44.1384
3.7221	44.926
3.7061	45.2507
3.6903	44.6695
3.6746	44.3744
3.659	43.7107
3.6436	42.9676
3.6283	42.1049
3.6131	41.3063
3.5981	40.2996
3.5832	39.2979
3.5684	37.9182
3.5537	36.488
3.5391	34.7864
3.5247	32.5226
3.5104	29.8114
3.4962	26.9631
3.4821	24.0299
3.4681	22.466
3.4543	22.0734
3.4405	21.9315
3.4269	21.6916
3.4133	21.3274
3.3999	21.5905
3.3866	21.3618
3.3733	20.9956
3.3602	20.1012
3.3472	19.2985
3.3343	19.1865
3.3215	19.0842
3.3088	18.6196
3.2961	18.7907
3.2836	18.8037
3.2712	18.3607
3.2588	18.233
3.2466	18.1709
3.2345	17.5538
3.2224	17.3581
3.2104	16.7046
3.1985	16.3389
3.1867	15.7222
3.175	15.3021
3.1634	14.9969
3.1519	14.4571
3.1404	14.0412
3.129	13.826
3.1178	13.3225
3.1065	12.9684
3.0954	12.9142
3.0844	12.7753
3.0734	12.5837
3.0625	12.4933
3.0517	12.4667
3.041	12.3653
3.0303	12.3812
3.0197	12.3099
3.0092	12.0486
2.9987	12.0641
2.9884	11.7727
2.9781	11.6543
2.9678	11.4691
2.9577	11.6116
2.9476	11.4589
2.9376	11.4399
2.9276	11.5089
2.9177	11.6731
2.9079	11.6413
2.8982	11.8078
2.8885	11.6489
2.8789	12.0283
2.8693	12.0892
2.8598	12.0668
2.8504	12.3645
2.841	12.1989
2.8317	12.1142
2.8224	12.1275
2.8133	11.9522
2.8041	12.1477
2.7951	12.5215
2.786	12.9969
2.7771	13.1354
2.7682	13.296
2.7594	13.4789
2.7506	12.8637
2.7418	11.0456
2.7332	10.9095
2.7246	10.2309
2.716	8.0843
2.7075	7.8874
2.699	12.5939
2.6906	27.0947
2.6823	39.6576
2.674	50.4766
2.6657	55.742
2.6575	57.6399
2.6494	59.1239
2.6413	61.2531
2.6332	62.4532
2.6252	63.1526
2.6173	63.4059
2.6094	63.5462
2.6015	63.77
2.5937	63.5323
2.5859	63.469
2.5782	63.1351
2.5706	62.8278
2.5629	62.5144
2.5554	62.3332
2.5478	62.5456
2.5403	62.1292
2.5329	61.7821
2.5255	61.3653
2.5181	60.658
2.5108	60.5275
2.5035	60.358
2.4963	61.4859
2.4891	62.5495
2.482	63.1152
2.4749	63.9571
2.4678	64.9769
2.4608	65.5291
2.4538	65.6892
2.4468	66.0301
2.4399	66.2347
2.4331	65.8971
2.4262	66.9076
2.4194	67.7194
2.4127	68
2.4059	68.2599
2.3993	68.1773
2.3926	68.3809
2.386	68.8048
2.3795	69.5069
2.3729	70.1591
2.3664	71.1726
2.36	71.8295
2.3535	71.4872
2.3471	69.6857
2.3408	66.7437
2.3345	65.3485
2.3282	64.9701
2.3219	64.4552
2.3157	65.089
2.3095	66.87
2.3034	68.5814
2.2972	69.8518
2.2911	70.3938
2.2851	71.7459
2.279	72.5516
2.2731	72.5546
2.2671	73.3576
2.2612	75.0731
2.2553	75.4023
2.2494	75.502
2.2435	75.9403
2.2377	76.686
2.232	77.9093
2.2262	78.6024
2.2205	79.0661
2.2148	79.2888
2.2091	79.7232
2.2035	79.7214
2.1979	79.9347
2.1923	80.1988
2.1868	80.1704
2.1812	80.1369
2.1758	80.4177
2.1703	80.4418
2.1649	80.4145
2.1595	80.4466
2.1541	80.2735
2.1487	80.1925
2.1434	79.8123
2.1381	79.4407
2.1328	79.1518
2.1275	79.4592
2.1223	79.5862
2.1171	79.42
2.112	79.2638
2.1068	79.4441
2.1017	79.3715
2.0966	79.2451
2.0915	79.3163
2.0865	79.507
2.0814	79.5673
2.0764	79.7785
2.0715	79.9204
2.0665	79.8793
2.0616	79.9239
2.0567	79.5851
2.0518	79.2697
2.0469	79.288
2.0421	78.9734
2.0373	78.6337
2.0325	78.9379
2.0277	78.5822
2.0229	78.5117
2.0182	78.1574
2.0135	77.954
2.0088	77.5291
2.0042	77.6131
