Name: Smithsonite PbCO_3
Type: Mineral
Class: Carbonate
Subclass: None
Particle Size: Coarse
Sample No.: C-11A
Owner: JPL
Wavelength Range: VSWIR
Origin: None.
Description: Particle size was 125-500um.Collected:  JPL Original ASTER Spectral Library name was jpl.perkin.mineral.carbonate.none.coarse.c11a.spectrum.txt
Measurement: Hemispherical reflectance
X Units: Wavelength (micrometers)
Y Units: Reflectance (percent)
wavelength	value
2.5	25.1516
2.494	25.7836
2.488	26.5039
2.482	27.915
2.476	29.3451
2.47	30.9285
2.464	32.6306
2.458	34.1361
2.452	35.5778
2.446	36.7637
2.44	38.1251
2.434	39.0137
2.428	39.8879
2.422	40.8405
2.416	41.6691
2.41	42.3312
2.404	42.7526
2.398	42.3507
2.392	40.9236
2.386	38.3909
2.38	35.5559
2.374	33.0817
2.368	31.772
2.362	31.4419
2.356	31.6654
2.35	32.2615
2.344	32.9612
2.338	33.5751
2.332	34.0595
2.326	34.5404
2.32	35.1604
2.314	35.9517
2.308	36.9233
2.302	38.0756
2.296	39.3709
2.29	40.7225
2.284	42.1714
2.278	43.4331
2.272	44.6864
2.266	45.8517
2.26	46.9603
2.254	48.1395
2.248	49.2059
2.242	50.1966
2.236	51.146
2.23	52.0081
2.224	52.8252
2.218	53.6113
2.212	54.3892
2.206	54.8019
2.2	55.2023
2.194	55.5842
2.188	55.798
2.182	55.8261
2.176	55.6203
2.17	55.3656
2.164	55.3512
2.158	55.4684
2.152	55.8141
2.146	56.2046
2.14	56.5567
2.134	56.8157
2.128	56.8017
2.122	56.7394
2.116	56.581
2.11	56.3797
2.104	56.2535
2.098	56.1947
2.092	56.1868
2.086	56.1969
2.08	56.1806
2.074	56.0925
2.068	56.0895
2.062	56.0222
2.056	55.9983
2.05	55.96
2.044	55.9081
2.038	55.7625
2.032	55.5956
2.026	55.2389
2.02	54.6823
2.014	53.883
2.008	53.6229
2.002	53.9132
1.996	54.3755
1.99	54.6787
1.984	54.9125
1.978	55.118
1.972	55.2715
1.966	55.5245
1.96	55.7983
1.954	56.1124
1.948	56.3793
1.942	56.8114
1.936	57.1755
1.93	57.5575
1.924	58.1467
1.918	58.8182
1.912	59.5192
1.906	60.0902
1.9	60.0598
1.894	59.9872
1.888	60.7889
1.882	61.9894
1.876	63.0434
1.87	63.8224
1.864	64.4941
1.858	64.9049
1.852	65.4154
1.846	65.8442
1.84	66.3066
1.834	66.6239
1.828	66.9915
1.822	67.3105
1.816	67.6116
1.81	67.8566
1.804	68.1113
1.798	68.2396
1.792	68.3749
1.786	68.3609
1.78	68.3657
1.774	68.3455
1.768	68.4088
1.762	68.4974
1.756	68.6119
1.75	68.7132
1.744	68.9381
1.738	69.161
1.732	69.2371
1.726	69.4351
1.72	69.6106
1.714	69.8543
1.708	70.0338
1.702	70.12
1.696	70.3452
1.69	70.4411
1.684	70.5824
1.678	70.7477
1.672	70.8383
1.666	71.0112
1.66	71.0355
1.654	71.1625
1.648	71.2218
1.642	71.3432
1.636	71.4159
1.63	71.5127
1.624	71.6499
1.618	71.7798
1.612	71.8159
1.606	71.8689
1.6	71.9525
1.594	72.0413
1.588	72.0373
1.582	71.8925
1.576	71.9238
1.57	71.9576
1.564	72.0653
1.558	72.0393
1.552	72.1476
1.546	72.1592
1.54	72.1261
1.534	72.1981
1.528	72.1922
1.522	72.1702
1.516	72.2097
1.51	72.1637
1.504	72.1764
1.498	72.1607
1.492	72.0914
1.486	72.1342
1.48	72.1393
1.474	72.0376
1.468	72.0692
1.462	72.1383
1.456	72.1402
1.45	72.1845
1.444	72.242
1.438	72.3336
1.432	72.4524
1.426	72.5786
1.42	72.5792
1.414	72.5306
1.408	73.3237
1.402	73.8734
1.396	74.08
1.39	74.229
1.384	74.2955
1.378	74.1828
1.372	74.0738
1.366	73.8846
1.36	73.6427
1.354	73.4353
1.348	73.226
1.342	72.8702
1.336	72.6041
1.33	72.2809
1.324	71.9396
1.318	71.6252
1.312	71.2428
1.306	70.8496
1.3	70.4974
1.294	70.175
1.288	69.8026
1.282	69.3596
1.276	68.955
1.27	68.5827
1.264	68.1915
1.258	67.7971
1.252	67.4112
1.246	67.0032
1.24	66.659
1.234	66.3331
1.228	65.9697
1.222	65.6435
1.216	65.3106
1.21	65.029
1.204	64.7428
1.198	64.4396
1.192	64.2405
1.186	63.9445
1.18	63.7882
1.174	63.5016
1.168	63.2629
1.162	63.0447
1.156	62.7888
1.15	62.611
1.144	62.3092
1.138	62.0714
1.132	61.7647
1.126	61.4427
1.12	61.1694
1.114	60.7025
1.108	60.3196
1.102	59.8807
1.096	59.5316
1.09	59.0529
1.084	58.6221
1.078	58.0833
1.072	57.633
1.066	57.261
1.06	56.6132
1.054	56.112
1.048	55.6451
1.042	55.2028
1.036	54.7785
1.03	54.3294
1.024	53.9002
1.018	53.4652
1.012	53.1105
1.006	52.7795
1	52.387
0.994	52.1625
0.988	51.9371
0.982	51.7487
0.976	51.6435
0.97	51.4717
0.964	51.4174
0.958	51.4688
0.952	51.4638
0.946	51.5419
0.94	51.6199
0.934	51.832
0.928	52.0299
0.922	52.2411
0.916	52.5733
0.91	52.9271
0.904	53.2956
0.898	53.7521
0.892	54.1133
0.886	54.6795
0.88	55.1504
0.874	55.6812
0.868	56.3068
0.862	56.8683
0.856	57.9896
0.85	58.6692
0.844	59.2823
0.838	59.9724
0.832	60.618
0.826	61.3068
0.82	61.9522
0.814	62.6402
0.808	63.2584
0.802	63.8762
0.796	64.4721
0.79	65.0693
0.784	65.6885
0.778	66.2696
0.772	66.797
0.766	67.3938
0.76	67.9459
0.754	68.4723
0.748	68.9625
0.742	69.4801
0.736	69.9502
0.73	70.4864
0.724	70.991
0.718	71.4881
0.712	71.9774
0.706	72.4691
0.7	72.9707
0.694	73.5014
0.688	73.9783
0.682	74.4906
0.676	74.9801
0.67	75.5015
0.664	75.9765
0.658	76.4925
0.652	76.9383
0.646	77.4002
0.64	77.8377
0.634	78.2612
0.628	78.6427
0.622	78.972
0.616	79.3084
0.61	79.5807
0.604	79.8174
0.598	80.0333
0.592	80.1687
0.586	80.1495
0.58	79.9069
0.574	79.478
0.568	78.8115
0.562	77.9421
0.556	76.9344
0.55	76.0238
0.544	75.3225
0.538	74.8853
0.532	74.5926
0.526	74.2925
0.52	74.1683
0.514	74.2872
0.508	74.6244
0.502	75.0534
0.496	75.3654
0.49	75.4405
0.484	75.2175
0.478	75.3123
0.472	75.8122
0.466	76.2886
0.46	76.5182
0.454	76.4246
0.448	76.19
0.442	75.732
0.436	75.1685
0.43	74.3791
0.424	73.433
0.418	72.3445
0.412	70.9884
0.406	70.2962
0.4	68.7656
