Name: Kaolinite Al_2Si_2O_5(OH)_4
Type: Mineral
Class: Silicate
Subclass: Phyllosilicate
Particle Size: Fine
Sample No.: PS-1A
Owner: JPL
Wavelength Range: TIR
Origin: USA, Georgia, Washington County
Description: Well-ordered Kaolinite.Particle size was 0-45um.Collected by Clay Mineral Society Original ASTER Spectral Library name was jpl.nicolet.mineral.silicate.phyllosilicate.fine.ps01a.spectrum.txt
Measurement: Hemispherical reflectance
X Units: Wavelength (micrometers)
Y Units: Reflectance (percent)
wavelength	value
15.3853	0.7886
15.1161	0.7273
14.8563	0.8531
14.6052	0.7055
14.3624	0.6563
14.1276	0.379
13.9004	0.7017
13.6803	0.6999
13.4671	0.6526
13.2604	0.5507
13.06	0.7979
12.8656	1.0624
12.6769	0.9575
12.4936	0.5325
12.3155	1.5728
12.1425	2.6568
11.9742	3.617
11.8106	4.0821
11.6513	4.1584
11.4963	4.1707
11.3454	3.522
11.1983	2.8499
11.0551	1.9976
10.9154	1.2213
10.7793	0.8693
10.6465	0.8297
10.5169	0.653
10.3904	1.465
10.267	2.5201
10.1464	3.0827
10.0287	2.8006
9.9136	2.2175
9.8012	1.7633
9.6913	2.2498
9.5838	2.6368
9.4787	2.8657
9.3758	3.0735
9.2752	3.0859
9.1767	2.5954
9.0803	1.5548
8.9858	1.1319
8.8934	2.3433
8.8028	3.2277
8.714	2.7999
8.627	1.8831
8.5417	1.3004
8.4581	1.0208
8.3761	0.7734
8.2957	0.5214
8.2169	0.699
8.1395	0.6159
8.0635	0.7152
7.989	1.0375
7.9158	1.2561
7.8439	1.5348
7.7734	1.9872
7.7041	2.3951
7.636	2.845
7.5691	3.5128
7.5034	3.9989
7.4388	4.4112
7.3753	4.8509
7.3129	5.4874
7.2515	6.285
7.1912	6.9217
7.1318	7.564
7.0734	8.4159
7.016	9.2742
6.9595	10.2039
6.9039	10.5845
6.8492	10.8484
6.7953	11.2514
6.7423	11.9928
6.6901	12.7633
6.6387	13.7385
6.5881	14.3328
6.5382	14.8594
6.4892	15.5033
6.4408	15.8682
6.3931	16.7933
6.3462	17.7309
6.2999	17.901
6.2543	18.4413
6.2094	18.6053
6.1651	18.1958
6.1214	17.9628
6.0784	18.2242
6.0359	18.5085
5.994	19.0406
5.9527	19.0599
5.912	18.7693
5.8718	18.4493
5.8322	17.6177
5.7931	17.0554
5.7545	17.3535
5.7165	17.0705
5.6789	16.6927
5.6418	17.5021
5.6052	18.3468
5.5691	18.2686
5.5334	16.0567
5.4982	13.2058
5.4635	13.7248
5.4291	15.6856
5.3952	17.0945
5.3618	18.7543
5.3287	19.5146
5.2961	19.8831
5.2638	19.2073
5.2319	18.0595
5.2004	17.4
5.1693	17.202
5.1386	18.165
5.1082	20.1884
5.0782	23.6824
5.0485	27.0618
5.0192	29.7254
4.9902	31.699
4.9616	33.8657
4.9332	35.6663
4.9052	36.3553
4.8776	37.5488
4.8502	39.0259
4.8231	40.7544
4.7963	42.703
4.7699	44.2188
4.7437	44.7053
4.7178	44.7567
4.6922	44.6737
4.6668	44.8823
4.6418	46.404
4.617	49.1427
4.5924	51.5426
4.5681	53.2532
4.5441	54.5534
4.5203	54.824
4.4968	54.7614
4.4735	55.8564
4.4505	57.1751
4.4277	57.6466
4.4051	58.1144
4.3828	58.4678
4.3607	58.7423
4.3388	59.3552
4.3171	60.0016
4.2956	60.2019
4.2744	59.4954
4.2534	59.9332
4.2325	61.247
4.2119	61.4291
4.1915	61.5075
4.1712	61.7552
4.1512	61.87
4.1313	62.0005
4.1117	62.2032
4.0922	62.3291
4.0729	62.6131
4.0538	62.7996
4.0349	62.8972
4.0161	63.079
3.9976	63.2056
3.9792	63.3071
3.9609	63.5043
3.9428	63.5119
3.9249	63.6309
3.9072	63.6594
3.8896	63.5525
3.8722	63.5904
3.8549	63.4626
3.8378	63.2493
3.8208	63.0694
3.804	62.7096
3.7873	62.394
3.7708	62.1134
3.7544	61.5841
3.7382	60.6508
3.7221	59.8915
3.7061	57.1015
3.6903	56.5256
3.6746	58.3714
3.659	58.6974
3.6436	58.7342
3.6283	58.227
3.6131	57.6904
3.5981	57.2298
3.5832	56.897
3.5684	56.69
3.5537	56.4239
3.5391	56.0652
3.5247	55.2658
3.5104	54.1906
3.4962	53.5574
3.4821	53.347
3.4681	53.042
3.4543	52.3937
3.4405	51.7809
3.4269	50.6468
3.4133	49.7276
3.3999	49.7776
3.3866	49.3602
3.3733	48.9578
3.3602	48.7968
3.3472	48.5808
3.3343	48.0281
3.3215	47.5296
3.3088	47.0761
3.2961	46.4879
3.2836	45.93
3.2712	45.4731
3.2588	45.0456
3.2466	44.5784
3.2345	44.0559
3.2224	43.5407
3.2104	43.0152
3.1985	42.577
3.1867	42.0061
3.175	41.4468
3.1634	41.1708
3.1519	40.5162
3.1404	39.9768
3.129	39.3319
3.1178	38.703
3.1065	38.3321
3.0954	37.6911
3.0844	37.2327
3.0734	36.6821
3.0625	36.1265
3.0517	35.4699
3.041	34.9982
3.0303	34.3278
3.0197	33.7826
3.0092	33.3191
2.9987	32.5763
2.9884	31.7379
2.9781	31.0308
2.9678	30.3867
2.9577	29.7842
2.9476	28.9369
2.9376	28.0327
2.9276	26.5842
2.9177	24.0334
2.9079	22.8704
2.8982	23.6737
2.8885	23.3717
2.8789	22.8551
2.8693	22.4388
2.8598	21.7161
2.8504	20.976
2.841	20.4408
2.8317	19.6613
2.8224	19.1251
2.8133	18.5201
2.8041	17.9667
2.7951	16.2102
2.786	14.7111
2.7771	12.2705
2.7682	6.0492
2.7594	1.7446
2.7506	4.9242
2.7418	2.9234
2.7332	2.4172
2.7246	1.9707
2.716	2.6899
2.7075	1.7776
2.699	3.008
2.6906	7.7383
2.6823	14.698
2.674	20.3404
2.6657	26.0559
2.6575	29.4732
2.6494	32.2485
2.6413	34.679
2.6332	37.2528
2.6252	39.0562
2.6173	40.5002
2.6094	40.7696
2.6015	41.5899
2.5937	42.8591
2.5859	42.476
2.5782	42.6676
2.5706	43.197
2.5629	44.1361
2.5554	44.1139
2.5478	44.0766
2.5403	44.5903
2.5329	45.2081
2.5255	45.5412
2.5181	45.9627
2.5108	46.2207
2.5035	46.9132
2.4963	47.1514
2.4891	47.3245
2.482	48.8385
2.4749	49.7718
2.4678	50.276
2.4608	50.7957
2.4538	51.1828
2.4468	51.9272
2.4399	52.9996
2.4331	54.8383
2.4262	56.4618
2.4194	57.5789
2.4127	58.3379
2.4059	58.499
2.3993	58.1323
2.3926	56.5823
2.386	55.1516
2.3795	55.6691
2.3729	57.4277
2.3664	58.8213
2.36	58.2288
2.3535	58.8064
2.3471	60.2516
2.3408	61.5561
2.3345	61.4588
2.3282	60.7707
2.3219	60.9421
2.3157	61.2438
2.3095	62.0486
2.3034	63.7474
2.2972	64.6912
2.2911	65.0782
2.2851	66.0791
2.279	67.0059
2.2731	67.8602
2.2671	69.1201
2.2612	69.4232
2.2553	70.229
2.2494	70.6416
2.2435	70.368
2.2377	70.9658
2.232	71.1387
2.2262	70.2829
2.2205	67.2682
2.2148	58.6873
2.2091	44.2268
2.2035	54.1158
2.1979	57.6599
2.1923	58.1134
2.1868	60.1877
2.1812	60.9244
2.1758	60.4804
2.1703	59.722
2.1649	58.9981
2.1595	59.1741
2.1541	61.5983
2.1487	65.6303
2.1434	70.3634
2.1381	73.3467
2.1328	75.3064
2.1275	76.305
2.1223	77.2089
2.1171	77.5997
2.112	77.6242
2.1068	79.89
2.1017	80.3664
2.0966	80.7155
2.0915	80.9937
2.0865	81.4095
2.0814	82.663
2.0764	82.9796
2.0715	83.3543
2.0665	84.2665
2.0616	84.81
2.0567	84.9818
2.0518	85.3916
2.0469	85.6577
2.0421	85.9638
2.0373	86.3616
2.0325	86.3635
2.0277	86.9532
2.0229	87.0973
2.0182	87.2346
2.0135	87.3412
2.0088	87.4619
2.0042	87.5797
