Name: Enstatite Mg_2(SiO_3)_2
Type: Mineral
Class: Silicate
Subclass: Inosilicate
Particle Size: Coarse
Sample No.: IN-10B
Owner: JPL
Wavelength Range: TIR
Origin: Norway, Telemark
Description: Particle size was 125-500um.Collected by Burminco Original ASTER Spectral Library name was jpl.nicolet.mineral.silicate.inosilicate.coarse.in10b.spectrum.txt
Measurement: Hemispherical reflectance
X Units: Wavelength (micrometers)
Y Units: Reflectance (percent)
wavelength	value
15.3853	3.3805
15.1161	1.2054
14.8563	2.5719
14.6052	3.92
14.3624	3.5503
14.1276	2.0954
13.9004	2.9964
13.6803	2.6969
13.4671	2.8966
13.2604	3.1744
13.06	3.5176
12.8656	4.2362
12.6769	4.5423
12.4936	5.1029
12.3155	6.0898
12.1425	6.8217
11.9742	8.0507
11.8106	10.1601
11.6513	13.7787
11.4963	16.3616
11.3454	16.7232
11.1983	10.1647
11.0551	9.2914
10.9154	10.868
10.7793	16.7204
10.6465	15.4104
10.5169	17.9003
10.3904	18.3382
10.267	19.7065
10.1464	18.1666
10.0287	12.5188
9.9136	13.6118
9.8012	10.1259
9.6913	11.7186
9.5838	17.9401
9.4787	20.6237
9.3758	20.4178
9.2752	19.2609
9.1767	18.6915
9.0803	18.7484
8.9858	18.0327
8.8934	13.1118
8.8028	9.756
8.714	5.1247
8.627	1.9441
8.5417	1.0448
8.4581	0.705
8.3761	0.4525
8.2957	0.5429
8.2169	0.6164
8.1395	0.6595
8.0635	0.6654
7.989	0.7703
7.9158	0.7507
7.8439	1.0378
7.7734	1.0372
7.7041	1.1877
7.636	1.2447
7.5691	1.5475
7.5034	1.5312
7.4388	1.6514
7.3753	1.7183
7.3129	1.9109
7.2515	1.9703
7.1912	2.084
7.1318	2.273
7.0734	2.3413
7.016	2.4206
6.9595	2.4892
6.9039	2.6155
6.8492	2.7738
6.7953	2.7782
6.7423	2.8307
6.6901	2.9993
6.6387	3.0888
6.5881	3.1061
6.5382	3.2931
6.4892	3.3523
6.4408	3.2823
6.3931	3.0221
6.3462	2.8629
6.2999	2.6681
6.2543	2.6431
6.2094	2.665
6.1651	2.7592
6.1214	2.9098
6.0784	2.8114
6.0359	2.8107
5.994	2.9011
5.9527	3.2483
5.912	3.6251
5.8718	3.7627
5.8322	3.6336
5.7931	3.6894
5.7545	3.6361
5.7165	3.9284
5.6789	3.9667
5.6418	3.9652
5.6052	3.9114
5.5691	4.1248
5.5334	4.5941
5.4982	4.6013
5.4635	4.6217
5.4291	4.5746
5.3952	5.0014
5.3618	5.1827
5.3287	5.2568
5.2961	4.9901
5.2638	4.7504
5.2319	4.5759
5.2004	4.3117
5.1693	3.9884
5.1386	3.9137
5.1082	4.1578
5.0782	4.3673
5.0485	4.652
5.0192	5.0009
4.9902	5.1992
4.9616	5.3367
4.9332	5.446
4.9052	5.2473
4.8776	5.4085
4.8502	5.4401
4.8231	5.5462
4.7963	5.9104
4.7699	6.4469
4.7437	6.9802
4.7178	7.3456
4.6922	7.5641
4.6668	8.0519
4.6418	8.5407
4.617	9.2677
4.5924	10.1805
4.5681	11.0628
4.5441	11.5955
4.5203	12.2071
4.4968	12.5455
4.4735	12.7028
4.4505	12.7992
4.4277	13.0021
4.4051	13.0504
4.3828	13.147
4.3607	13.3427
4.3388	13.3173
4.3171	13.4331
4.2956	13.5847
4.2744	13.5678
4.2534	13.7427
4.2325	13.8676
4.2119	14.0601
4.1915	14.2501
4.1712	14.3202
4.1512	14.4029
4.1313	14.6689
4.1117	14.674
4.0922	14.7933
4.0729	15.0056
4.0538	15.1412
4.0349	15.2461
4.0161	15.3985
3.9976	15.4537
3.9792	15.6009
3.9609	15.6284
3.9428	15.6923
3.9249	15.8557
3.9072	16.1001
3.8896	16.2138
3.8722	16.3871
3.8549	16.3682
3.8378	16.5232
3.8208	16.7348
3.804	16.7442
3.7873	16.9486
3.7708	17.0721
3.7544	17.0502
3.7382	17.3266
3.7221	17.4294
3.7061	17.5013
3.6903	17.6438
3.6746	17.6583
3.659	17.951
3.6436	17.904
3.6283	18.0257
3.6131	18.2053
3.5981	18.1818
3.5832	18.3708
3.5684	18.4371
3.5537	18.5634
3.5391	18.6114
3.5247	18.5604
3.5104	18.6015
3.4962	18.6076
3.4821	18.6199
3.4681	18.4561
3.4543	18.6479
3.4405	18.6494
3.4269	18.5633
3.4133	18.4908
3.3999	18.6458
3.3866	18.6833
3.3733	18.7322
3.3602	18.5213
3.3472	18.6603
3.3343	18.5683
3.3215	18.4363
3.3088	18.3978
3.2961	18.495
3.2836	18.5057
3.2712	18.5577
3.2588	18.3587
3.2466	18.2743
3.2345	18.3772
3.2224	18.2275
3.2104	18.26
3.1985	18.078
3.1867	17.9465
3.175	17.9941
3.1634	17.806
3.1519	17.8436
3.1404	17.7459
3.129	17.7113
3.1178	17.2988
3.1065	17.4394
3.0954	17.3883
3.0844	17.5038
3.0734	17.3735
3.0625	17.3829
3.0517	17.2975
3.041	17.2502
3.0303	17.1649
3.0197	16.9759
3.0092	17.0153
2.9987	16.8541
2.9884	16.7276
2.9781	16.59
2.9678	16.573
2.9577	16.5775
2.9476	16.5626
2.9376	16.2323
2.9276	16.3881
2.9177	16.236
2.9079	16.3723
2.8982	16.3109
2.8885	16.227
2.8789	16.3435
2.8693	16.204
2.8598	15.8676
2.8504	15.7899
2.841	15.7959
2.8317	16.0897
2.8224	15.6803
2.8133	15.4527
2.8041	15.3222
2.7951	14.7926
2.786	14.6495
2.7771	14.266
2.7682	13.9785
2.7594	13.6677
2.7506	13.2546
2.7418	12.9628
2.7332	11.7295
2.7246	11.4009
2.716	11.7238
2.7075	13.6026
2.699	19.0485
2.6906	25.7706
2.6823	29.9633
2.674	31.8326
2.6657	33.3451
2.6575	32.5066
2.6494	32.6505
2.6413	32.7491
2.6332	32.8643
2.6252	32.9316
2.6173	33.4349
2.6094	33.2758
2.6015	33.0549
2.5937	33.6846
2.5859	32.8199
2.5782	32.9474
2.5706	32.9046
2.5629	33.1423
2.5554	32.5842
2.5478	32.7384
2.5403	32.5334
2.5329	32.6228
2.5255	32.4144
2.5181	32.1967
2.5108	32.1457
2.5035	31.9728
2.4963	32.0982
2.4891	32.0057
2.482	31.9072
2.4749	31.7862
2.4678	31.5241
2.4608	31.5313
2.4538	31.4872
2.4468	31.3693
2.4399	31.3192
2.4331	31.3314
2.4262	31.0083
2.4194	31.0274
2.4127	30.7718
2.4059	30.4914
2.3993	30.1174
2.3926	29.9599
2.386	29.7618
2.3795	29.4779
2.3729	29.5987
2.3664	29.6893
2.36	29.3699
2.3535	29.0112
2.3471	28.9388
2.3408	28.4418
2.3345	27.9575
2.3282	27.7337
2.3219	26.854
2.3157	26.2095
2.3095	25.9421
2.3034	26.106
2.2972	26.106
2.2911	25.3596
2.2851	25.7026
2.279	25.4029
2.2731	25.258
2.2671	25.1438
2.2612	24.779
2.2553	24.5612
2.2494	24.1509
2.2435	23.6767
2.2377	23.58
2.232	23.006
2.2262	22.616
2.2205	22.4158
2.2148	22.0552
2.2091	21.7439
2.2035	21.3362
2.1979	20.8904
2.1923	20.3917
2.1868	20.1344
2.1812	19.7232
2.1758	19.3757
2.1703	18.8635
2.1649	18.6229
2.1595	18.2664
2.1541	17.9127
2.1487	17.4137
2.1434	17.3453
2.1381	16.788
2.1328	15.9866
2.1275	15.8858
2.1223	15.6791
2.1171	15.5179
2.112	15.1399
2.1068	14.7555
2.1017	14.5481
2.0966	14.2538
2.0915	13.7541
2.0865	13.7181
2.0814	13.2875
2.0764	12.9447
2.0715	13.1848
2.0665	12.5951
2.0616	12.4748
2.0567	12.1182
2.0518	12.0833
2.0469	11.7378
2.0421	11.3386
2.0373	11.3211
2.0325	11.3726
2.0277	10.7967
2.0229	10.7588
2.0182	10.8256
2.0135	10.4962
2.0088	10.3145
2.0042	10.0581
