Name: Azurite Cu_3(CO_3)_2(OH)_2
Type: Mineral
Class: Carbonate
Subclass: None
Particle Size: Medium
Sample No.: C-12A
Owner: JPL
Wavelength Range: TIR
Origin: USA, California, San Bernadino County, Near Valley Wells
Description: Particle size was 45-125um.Collected by Burminco Original ASTER Spectral Library name was jpl.nicolet.mineral.carbonate.none.medium.c12a.spectrum.txt
Measurement: Hemispherical reflectance
X Units: Wavelength (micrometers)
Y Units: Reflectance (percent)
wavelength	value
15.3853	1.846
15.1161	1.6189
14.8563	1.9885
14.6052	1.63
14.3624	1.7897
14.1276	1.7873
13.9004	1.7474
13.6803	1.8291
13.4671	1.9549
13.2604	1.7568
13.06	1.9189
12.8656	1.6427
12.6769	2.0876
12.4936	1.9369
12.3155	2.1696
12.1425	2.2577
11.9742	2.0922
11.8106	1.9795
11.6513	2.0188
11.4963	1.9769
11.3454	2.0234
11.1983	2.2919
11.0551	2.1354
10.9154	2.352
10.7793	2.3472
10.6465	2.5682
10.5169	3.0021
10.3904	3.1153
10.267	3.6432
10.1464	4.318
10.0287	5.3238
9.9136	6.3416
9.8012	7.2022
9.6913	7.807
9.5838	7.8396
9.4787	6.9707
9.3758	5.1513
9.2752	3.3524
9.1767	2.2404
9.0803	1.6013
8.9858	1.1678
8.8934	1.1728
8.8028	1.0004
8.714	0.9851
8.627	0.9322
8.5417	1.2083
8.4581	1.1916
8.3761	1.334
8.2957	1.5131
8.2169	1.6016
8.1395	1.7888
8.0635	1.7519
7.989	1.9174
7.9158	2.0871
7.8439	1.9906
7.7734	2.1551
7.7041	2.1138
7.636	2.1159
7.5691	2.1466
7.5034	2.1086
7.4388	2.1408
7.3753	2.1976
7.3129	2.3565
7.2515	2.4158
7.1912	2.6607
7.1318	2.9526
7.0734	3.2617
7.016	3.1671
6.9595	2.6174
6.9039	2.4573
6.8492	2.5578
6.7953	2.4405
6.7423	2.2169
6.6901	2.1999
6.6387	2.1583
6.5881	2.416
6.5382	2.4726
6.4892	2.1027
6.4408	2.1311
6.3931	1.989
6.3462	1.6834
6.2999	1.4164
6.2543	1.3612
6.2094	1.1902
6.1651	1.0708
6.1214	1.0741
6.0784	0.8443
6.0359	1.0666
5.994	1.0574
5.9527	1.2016
5.912	1.1825
5.8718	1.4297
5.8322	1.6365
5.7931	1.9971
5.7545	2.1482
5.7165	2.4711
5.6789	2.6064
5.6418	2.5791
5.6052	2.7591
5.5691	2.8466
5.5334	2.8545
5.4982	3.0632
5.4635	2.9405
5.4291	3.2
5.3952	3.3689
5.3618	3.4884
5.3287	3.5087
5.2961	3.5833
5.2638	3.8244
5.2319	3.8439
5.2004	3.9898
5.1693	4.1597
5.1386	4.3199
5.1082	4.4895
5.0782	4.5504
5.0485	4.7083
5.0192	4.7692
4.9902	4.8246
4.9616	4.8374
4.9332	4.7203
4.9052	4.6643
4.8776	4.6516
4.8502	4.5492
4.8231	4.4933
4.7963	4.5623
4.7699	4.5586
4.7437	4.6733
4.7178	4.5847
4.6922	4.7669
4.6668	4.6088
4.6418	4.6293
4.617	4.7666
4.5924	4.7833
4.5681	4.8963
4.5441	4.9355
4.5203	5.0181
4.4968	5.1616
4.4735	5.1123
4.4505	5.2481
4.4277	5.4013
4.4051	5.4907
4.3828	5.6809
4.3607	5.8237
4.3388	5.9562
4.3171	6.1271
4.2956	6.2742
4.2744	6.2861
4.2534	6.4332
4.2325	6.5324
4.2119	6.5127
4.1915	6.4767
4.1712	6.6114
4.1512	6.641
4.1313	6.6053
4.1117	6.696
4.0922	6.7417
4.0729	6.7997
4.0538	6.7778
4.0349	6.6799
4.0161	6.1571
3.9976	5.9651
3.9792	5.9294
3.9609	6.0081
3.9428	6.1005
3.9249	5.9787
3.9072	6.0337
3.8896	6.3554
3.8722	6.4517
3.8549	6.376
3.8378	6.406
3.8208	6.5328
3.804	6.5345
3.7873	6.4934
3.7708	6.3942
3.7544	6.1813
3.7382	6.267
3.7221	6.053
3.7061	5.8657
3.6903	5.6244
3.6746	5.5244
3.659	5.2391
3.6436	5.0334
3.6283	4.7633
3.6131	4.5962
3.5981	4.3473
3.5832	4.1898
3.5684	3.9582
3.5537	3.6422
3.5391	3.3102
3.5247	3.1848
3.5104	2.9128
3.4962	2.9714
3.4821	2.7242
3.4681	2.6688
3.4543	2.5433
3.4405	2.4461
3.4269	2.2748
3.4133	2.4024
3.3999	2.2842
3.3866	2.2222
3.3733	2.1381
3.3602	2.0977
3.3472	1.9753
3.3343	2.0287
3.3215	2.0091
3.3088	1.9958
3.2961	2.1111
3.2836	2.0181
3.2712	1.9595
3.2588	2.0113
3.2466	1.8525
3.2345	1.8548
3.2224	1.9228
3.2104	1.7985
3.1985	1.9622
3.1867	1.6612
3.175	1.7322
3.1634	1.7944
3.1519	1.7641
3.1404	1.748
3.129	1.684
3.1178	1.7857
3.1065	1.737
3.0954	1.6951
3.0844	1.6998
3.0734	1.6348
3.0625	1.5822
3.0517	1.6089
3.041	1.6839
3.0303	1.7045
3.0197	1.6935
3.0092	1.5646
2.9987	1.4051
2.9884	1.6367
2.9781	1.5307
2.9678	1.2878
2.9577	1.6028
2.9476	1.4029
2.9376	1.6766
2.9276	1.4849
2.9177	1.5266
2.9079	1.3591
2.8982	1.2826
2.8885	1.1392
2.8789	1.2812
2.8693	1.2764
2.8598	1.3727
2.8504	1.4901
2.841	1.4101
2.8317	1.4427
2.8224	1.4546
2.8133	1.4272
2.8041	1.4622
2.7951	1.3383
2.786	1.3655
2.7771	1.3397
2.7682	1.5508
2.7594	1.3636
2.7506	1.2743
2.7418	1.2984
2.7332	1.7428
2.7246	2.0511
2.716	2.8085
2.7075	3.2246
2.699	3.8828
2.6906	5.5021
2.6823	7.4073
2.674	8.7193
2.6657	9.4663
2.6575	11.6508
2.6494	12.4878
2.6413	13.198
2.6332	13.6652
2.6252	14.308
2.6173	13.9011
2.6094	14.7378
2.6015	15.3366
2.5937	15.055
2.5859	15.9438
2.5782	15.878
2.5706	16.3624
2.5629	16.6152
2.5554	17.7228
2.5478	17.818
2.5403	18.3937
2.5329	18.4299
2.5255	18.6252
2.5181	18.765
2.5108	19.1146
2.5035	19.4457
2.4963	19.8592
2.4891	20.0845
2.482	20.6685
2.4749	21.0165
2.4678	21.5165
2.4608	22.0574
2.4538	22.4299
2.4468	22.6695
2.4399	22.9711
2.4331	23.2281
2.4262	23.6643
2.4194	23.8527
2.4127	23.9907
2.4059	24.0776
2.3993	24.3523
2.3926	24.7959
2.386	25.0749
2.3795	25.4986
2.3729	25.9733
2.3664	25.5881
2.36	23.8545
2.3535	23.8035
2.3471	24.8358
2.3408	26.4069
2.3345	28.9913
2.3282	31.2901
2.3219	32.157
2.3157	32.4174
2.3095	32.2085
2.3034	31.2934
2.2972	29.8622
2.2911	27.3362
2.2851	25.7287
2.279	25.6698
2.2731	27.4787
2.2671	28.5031
2.2612	29.4246
2.2553	30.2034
2.2494	31.3154
2.2435	33.05
2.2377	34.9175
2.232	36.2339
2.2262	37.2432
2.2205	37.5578
2.2148	37.7815
2.2091	37.5617
2.2035	38.9965
2.1979	40.474
2.1923	41.2733
2.1868	41.6478
2.1812	42.2617
2.1758	42.4585
2.1703	42.9515
2.1649	42.9838
2.1595	43.5432
2.1541	43.6528
2.1487	43.9484
2.1434	44.0344
2.1381	44.0193
2.1328	43.9607
2.1275	43.8302
2.1223	43.6311
2.1171	43.308
2.112	43.1666
2.1068	42.6943
2.1017	42.5606
2.0966	42.3473
2.0915	42.1852
2.0865	41.6401
2.0814	41.3244
2.0764	40.8213
2.0715	40.5219
2.0665	40.0821
2.0616	39.4992
2.0567	38.9585
2.0518	38.5244
2.0469	37.5959
2.0421	37.0166
2.0373	36.726
2.0325	36.5422
2.0277	35.4586
2.0229	35.083
2.0182	34.5355
2.0135	33.9763
2.0088	33.1024
2.0042	32.5643
