Name: Magnetite Fe^2+Fe_2^3+O_4
Type: Mineral
Class: Oxide
Subclass: None
Particle Size: Fine
Sample No.: O-4A
Owner: JPL
Wavelength Range: TIR
Origin: Canada, Ontario, Haliburton County, Wilberforce
Description: Particle size was 0-45um.Collected by Ward's Original ASTER Spectral Library name was jpl.nicolet.mineral.oxide.none.fine.o04a.spectrum.txt
Measurement: Hemispherical reflectance
X Units: Wavelength (micrometers)
Y Units: Reflectance (percent)
wavelength	value
15.3853	10.3697
15.1161	10.4877
14.8563	10.3521
14.6052	10.1134
14.3624	9.8425
14.1276	9.7532
13.9004	9.6711
13.6803	9.5407
13.4671	9.3128
13.2604	9.1342
13.06	9.2114
12.8656	9.0168
12.6769	8.9747
12.4936	9.143
12.3155	8.8982
12.1425	8.919
11.9742	9.1409
11.8106	9.1102
11.6513	9.1467
11.4963	9.1072
11.3454	9.0452
11.1983	9.2505
11.0551	9.0848
10.9154	9.2532
10.7793	9.1871
10.6465	9.4504
10.5169	9.3254
10.3904	9.5133
10.267	9.5598
10.1464	9.6375
10.0287	9.9158
9.9136	9.7474
9.8012	10.0632
9.6913	10.1225
9.5838	10.1909
9.4787	10.2451
9.3758	10.3024
9.2752	10.3649
9.1767	10.4172
9.0803	10.4446
8.9858	10.5722
8.8934	10.3712
8.8028	10.3394
8.714	10.3974
8.627	10.2276
8.5417	10.3047
8.4581	10.5
8.3761	10.242
8.2957	10.4246
8.2169	10.5351
8.1395	10.4954
8.0635	10.4032
7.989	10.416
7.9158	10.4775
7.8439	10.5185
7.7734	10.5545
7.7041	10.5376
7.636	10.5184
7.5691	10.5557
7.5034	10.6053
7.4388	10.6052
7.3753	10.6684
7.3129	10.7019
7.2515	10.7428
7.1912	10.8148
7.1318	10.773
7.0734	10.7604
7.016	10.7385
6.9595	10.8453
6.9039	10.773
6.8492	10.8683
6.7953	10.9616
6.7423	10.7741
6.6901	10.7518
6.6387	11.0355
6.5881	11.0214
6.5382	10.8323
6.4892	11.1587
6.4408	10.7861
6.3931	10.9022
6.3462	11.0813
6.2999	10.9052
6.2543	10.7935
6.2094	10.8304
6.1651	10.9138
6.1214	10.9394
6.0784	11.0439
6.0359	10.9853
5.994	11.018
5.9527	10.9267
5.912	11.0373
5.8718	11.0076
5.8322	11.0212
5.7931	10.901
5.7545	10.9416
5.7165	10.9427
5.6789	10.913
5.6418	11.0052
5.6052	10.9085
5.5691	10.8654
5.5334	10.847
5.4982	10.762
5.4635	10.9818
5.4291	10.864
5.3952	10.9527
5.3618	10.8704
5.3287	10.9173
5.2961	10.8917
5.2638	10.8948
5.2319	10.898
5.2004	10.9348
5.1693	10.8942
5.1386	10.9423
5.1082	10.9367
5.0782	10.9361
5.0485	10.965
5.0192	10.9459
4.9902	10.8981
4.9616	10.9158
4.9332	11.0538
4.9052	10.8931
4.8776	10.9542
4.8502	10.9045
4.8231	10.9721
4.7963	10.967
4.7699	10.9527
4.7437	10.9222
4.7178	10.8494
4.6922	10.9588
4.6668	10.9736
4.6418	10.9919
4.617	10.9294
4.5924	11.0332
4.5681	10.9755
4.5441	10.9426
4.5203	10.9491
4.4968	10.9752
4.4735	10.9763
4.4505	10.9172
4.4277	11.0292
4.4051	10.9521
4.3828	10.9344
4.3607	10.9359
4.3388	10.9627
4.3171	10.7485
4.2956	10.691
4.2744	10.7875
4.2534	10.8429
4.2325	10.6146
4.2119	10.8113
4.1915	10.9115
4.1712	10.898
4.1512	10.893
4.1313	10.8865
4.1117	10.9167
4.0922	10.9502
4.0729	10.7854
4.0538	10.8331
4.0349	10.8871
4.0161	10.8494
3.9976	10.7774
3.9792	10.7626
3.9609	10.9248
3.9428	10.849
3.9249	10.9384
3.9072	10.8759
3.8896	10.6972
3.8722	10.7737
3.8549	10.6934
3.8378	10.8743
3.8208	10.7999
3.804	10.7617
3.7873	10.757
3.7708	10.7985
3.7544	10.6641
3.7382	10.7568
3.7221	10.6547
3.7061	10.6893
3.6903	10.6547
3.6746	10.7103
3.659	10.6339
3.6436	10.6907
3.6283	10.7314
3.6131	10.6072
3.5981	10.7588
3.5832	10.552
3.5684	10.564
3.5537	10.6484
3.5391	10.6701
3.5247	10.5266
3.5104	10.6662
3.4962	10.5959
3.4821	10.5373
3.4681	10.4991
3.4543	10.5199
3.4405	10.5319
3.4269	10.5707
3.4133	10.5409
3.3999	10.5551
3.3866	10.4359
3.3733	10.4248
3.3602	10.3916
3.3472	10.4556
3.3343	10.369
3.3215	10.4209
3.3088	10.4235
3.2961	10.3096
3.2836	10.4492
3.2712	10.2392
3.2588	10.2897
3.2466	10.3152
3.2345	10.2445
3.2224	10.2096
3.2104	10.1715
3.1985	10.1504
3.1867	10.0825
3.175	10.0422
3.1634	9.9977
3.1519	10.0816
3.1404	9.986
3.129	10.0534
3.1178	10.0827
3.1065	9.9247
3.0954	9.9521
3.0844	9.9659
3.0734	9.8637
3.0625	9.9968
3.0517	9.7598
3.041	9.8345
3.0303	9.8651
3.0197	9.6634
3.0092	9.7582
2.9987	9.7842
2.9884	9.634
2.9781	9.657
2.9678	9.6525
2.9577	9.6883
2.9476	9.6753
2.9376	9.5432
2.9276	9.7109
2.9177	9.5526
2.9079	9.8478
2.8982	9.5837
2.8885	9.4849
2.8789	9.4965
2.8693	9.6165
2.8598	9.5759
2.8504	9.305
2.841	9.5859
2.8317	9.4191
2.8224	9.4938
2.8133	9.4854
2.8041	9.4939
2.7951	9.4923
2.786	9.3493
2.7771	9.3958
2.7682	9.5042
2.7594	9.4188
2.7506	9.1399
2.7418	9.5258
2.7332	9.2285
2.7246	9.6396
2.716	9.467
2.7075	9.5051
2.699	9.5999
2.6906	9.7234
2.6823	9.6953
2.674	9.7418
2.6657	10.1092
2.6575	9.6395
2.6494	9.6103
2.6413	9.6109
2.6332	9.762
2.6252	9.7246
2.6173	9.4297
2.6094	9.5505
2.6015	9.8292
2.5937	9.622
2.5859	9.6076
2.5782	9.6278
2.5706	9.57
2.5629	9.4924
2.5554	9.5167
2.5478	9.4224
2.5403	9.4217
2.5329	9.5609
2.5255	9.4418
2.5181	9.3601
2.5108	9.403
2.5035	9.3902
2.4963	9.4308
2.4891	9.5018
2.482	9.6186
2.4749	9.3425
2.4678	9.4836
2.4608	9.2892
2.4538	9.504
2.4468	9.4834
2.4399	9.3778
2.4331	9.2439
2.4262	9.4378
2.4194	9.2885
2.4127	9.3357
2.4059	9.3508
2.3993	9.2652
2.3926	9.1639
2.386	9.3376
2.3795	9.2865
2.3729	9.2209
2.3664	9.2205
2.36	9.3471
2.3535	9.2721
2.3471	9.2945
2.3408	9.1409
2.3345	9.1545
2.3282	9.3469
2.3219	9.2727
2.3157	9.1561
2.3095	9.3502
2.3034	9.2024
2.2972	9.3002
2.2911	9.1278
2.2851	9.0607
2.279	9.0979
2.2731	8.993
2.2671	9.2802
2.2612	9.0787
2.2553	9.0607
2.2494	9.0142
2.2435	9.118
2.2377	9.0823
2.232	9.1263
2.2262	9.0921
2.2205	8.9605
2.2148	9.2395
2.2091	9.0192
2.2035	8.8851
2.1979	8.8563
2.1923	9.075
2.1868	9.0494
2.1812	8.937
2.1758	9.1635
2.1703	9.0032
2.1649	9.2351
2.1595	8.7837
2.1541	8.7999
2.1487	8.8263
2.1434	8.772
2.1381	8.7687
2.1328	8.8358
2.1275	9.0433
2.1223	8.7656
2.1171	8.7468
2.112	8.6882
2.1068	9.0096
2.1017	8.8003
2.0966	9.0358
2.0915	8.8776
2.0865	8.5901
2.0814	9.0179
2.0764	9.0715
2.0715	9.8352
2.0665	8.2371
2.0616	8.4918
2.0567	8.5591
2.0518	8.8143
2.0469	8.9298
2.0421	8.7244
2.0373	8.7781
2.0325	8.7197
2.0277	8.3049
2.0229	8.5589
2.0182	8.65
2.0135	8.7107
2.0088	8.5741
2.0042	8.6321
