Name: Celestite SrSO_4
Type: Mineral
Class: Sulfate
Subclass: None
Particle Size: Coarse
Sample No.: SO-5A
Owner: JPL
Wavelength Range: VSWIR
Origin: USA, Utah, Emery County
Description: Particle size was 125-500um.Collected by Grieger's Inc. Original ASTER Spectral Library name was jpl.beckman.mineral.sulfate.none.coarse.so05a.spectrum.txt
Measurement: Hemispherical reflectance
X Units: Wavelength (micrometers)
Y Units: Reflectance (percent)
wavelength	value
0.4	75.5
0.403	75.5
0.406	75.73
0.409	75.79
0.412	75.85
0.415	76.13
0.418	75.95
0.421	76.24
0.424	75.95
0.427	76.47
0.43	76.36
0.433	76.64
0.436	76.64
0.439	76.7
0.442	77.05
0.445	76.93
0.448	77.05
0.451	76.82
0.454	77.22
0.457	77.1
0.46	77.23
0.463	77.3
0.466	77.53
0.469	77.37
0.472	77.59
0.475	77.31
0.478	77.61
0.481	77.32
0.484	77.5
0.487	77.56
0.49	77.28
0.493	77.63
0.496	77.35
0.499	77.69
0.502	77.35
0.505	77.52
0.508	77.52
0.511	77.46
0.514	77.58
0.517	77.35
0.52	77.46
0.523	77.17
0.526	77.41
0.529	76.9
0.532	77.06
0.535	76.67
0.538	76.78
0.541	76.55
0.544	76.44
0.547	76.61
0.55	76.49
0.553	76.72
0.556	76.26
0.559	76.32
0.562	76.21
0.565	76.32
0.568	75.98
0.571	75.86
0.574	75.57
0.577	75.57
0.58	75.4
0.583	75.24
0.586	75.29
0.589	75.35
0.592	75.4
0.595	75.06
0.598	75.18
0.601	75.06
0.604	75.29
0.607	74.95
0.61	75.12
0.613	74.95
0.616	75.06
0.619	75.06
0.622	75.01
0.625	75.24
0.628	75.12
0.631	75.4
0.634	75.29
0.637	75.57
0.64	75.46
0.643	75.98
0.646	75.86
0.649	76.21
0.652	76.38
0.655	76.49
0.658	76.67
0.661	76.78
0.664	77.01
0.667	77.06
0.67	77.58
0.673	77.35
0.676	77.81
0.679	77.69
0.682	78.04
0.685	77.98
0.688	78.44
0.691	78.44
0.694	78.56
0.697	78.84
0.7	78.67
0.703	78.61
0.706	79.01
0.709	79.12
0.712	79.47
0.715	79.53
0.718	79.64
0.721	79.76
0.724	79.76
0.727	80.1
0.73	80.1
0.733	80.38
0.736	80.28
0.739	80.55
0.742	80.38
0.745	80.84
0.748	80.73
0.751	81.01
0.754	81.19
0.757	81.24
0.76	81.3
0.763	81.42
0.766	81.65
0.769	81.71
0.772	81.99
0.775	81.71
0.778	82.16
0.781	82.04
0.784	82.56
0.787	82.39
0.79	82.67
0.793	82.67
0.796	82.79
0.799	83.6
0.808	83.82
0.82	83.99
0.832	84.45
0.844	84.68
0.856	84.74
0.868	84.85
0.88	84.8
0.892	84.85
0.904	84.8
0.916	85.03
0.928	84.97
0.94	84.97
0.952	85.03
0.964	84.97
0.976	85.08
0.988	85.03
1	85.08
1.012	85.08
1.024	85.14
1.036	85.08
1.048	85.14
1.06	85.08
1.072	85.14
1.084	85.2
1.096	85.03
1.108	85.2
1.12	85.31
1.132	85.14
1.144	85.14
1.156	85.25
1.168	85.27
1.18	85.37
1.192	85.24
1.204	85.4
1.216	85.17
1.228	85.05
1.24	85.11
1.252	85.4
1.264	85.25
1.276	85.24
1.288	85.21
1.3	85.19
1.312	85.18
1.324	85.15
1.336	85.36
1.348	85.17
1.36	85.23
1.372	85.34
1.384	85.39
1.396	85.34
1.408	85.18
1.42	85.2
1.432	85.22
1.444	85.35
1.456	85.31
1.468	85.54
1.48	85.6
1.492	85.54
1.504	85.54
1.516	85.54
1.528	85.48
1.54	85.65
1.552	85.65
1.564	85.65
1.576	85.65
1.588	85.71
1.6	85.71
1.612	85.69
1.624	85.61
1.636	85.59
1.648	85.62
1.66	85.66
1.672	85.59
1.684	85.62
1.696	85.71
1.708	85.76
1.72	85.7
1.732	85.76
1.744	85.65
1.756	85.6
1.768	85.6
1.78	85.65
1.792	85.7
1.804	85.63
1.816	85.42
1.828	85.51
1.84	85.49
1.852	85.48
1.864	85.45
1.876	85.27
1.888	85.06
1.9	84.88
1.912	84.74
1.924	84.67
1.936	84.65
1.948	84.73
1.96	84.86
1.972	84.8
1.984	85.13
1.996	85.23
2.008	85.3
2.02	85.34
2.032	85.49
2.044	85.57
2.056	85.58
2.068	85.53
2.08	85.59
2.092	85.6
2.104	85.78
2.116	85.84
2.128	85.88
2.14	86.12
2.152	85.97
2.164	85.88
2.176	85.75
2.188	85.5
2.2	85.43
2.212	85.16
2.224	85.17
2.236	85.12
2.248	85.2
2.26	84.94
2.272	84.92
2.284	84.77
2.296	84.78
2.308	85.15
2.32	85.49
2.332	85.5
2.344	85.32
2.356	85.05
2.368	84.99
2.38	84.93
2.392	84.94
2.404	84.77
2.416	84.86
2.428	84.79
2.44	84.65
2.452	84.47
2.464	84.33
2.476	84.21
2.488	84.02
2.5	83.88
