Name: Pyrite FeS_2
Type: Mineral
Class: Sulfide
Subclass: None
Particle Size: Coarse
Sample No.: S-2A
Owner: JPL
Wavelength Range: VSWIR
Origin: Italy, Tuscany, Elba, Rio Marina Isle.
Description: Particle size was 125-500um. Collected by:  Ward's Original ASTER Spectral Library name was jpl.perkin.mineral.sulfide.none.coarse.s02a.spectrum.txt
Measurement: Hemispherical reflectance
X Units: Wavelength (micrometers)
Y Units: Reflectance (percent)
wavelength	value
2.5	8.5877
2.494	8.3749
2.488	8.5903
2.482	8.5195
2.476	8.6525
2.47	8.7243
2.464	8.6433
2.458	8.7232
2.452	8.7705
2.446	8.7981
2.44	8.8683
2.434	8.826
2.428	8.9106
2.422	8.9512
2.416	8.9739
2.41	8.975
2.404	9.0004
2.398	9.0474
2.392	9.1014
2.386	9.184
2.38	9.2373
2.374	9.3005
2.368	9.4071
2.362	9.3875
2.356	9.5284
2.35	9.5444
2.344	9.6111
2.338	9.6074
2.332	9.5707
2.326	9.7502
2.32	9.7201
2.314	9.7859
2.308	9.7793
2.302	9.7671
2.296	9.8634
2.29	9.8268
2.284	9.88
2.278	9.891
2.272	9.8898
2.266	9.9135
2.26	9.9031
2.254	9.8668
2.248	9.9889
2.242	9.9133
2.236	9.9958
2.23	10.0087
2.224	10.0191
2.218	9.9495
2.212	10.0586
2.206	10.0687
2.2	10.0154
2.194	10.1117
2.188	9.9936
2.182	10.0738
2.176	10.0055
2.17	9.9586
2.164	10.1118
2.158	10.0082
2.152	10.0618
2.146	10.0288
2.14	9.9786
2.134	9.9219
2.128	9.7979
2.122	9.8163
2.116	9.7333
2.11	9.6545
2.104	9.6125
2.098	9.5787
2.092	9.6291
2.086	9.6228
2.08	9.5954
2.074	9.6292
2.068	9.5949
2.062	9.6142
2.056	9.6365
2.05	9.6106
2.044	9.5347
2.038	9.6445
2.032	9.6538
2.026	9.5532
2.02	9.5752
2.014	9.5337
2.008	9.5432
2.002	9.5851
1.996	9.5292
1.99	9.6708
1.984	9.5877
1.978	9.5933
1.972	9.652
1.966	9.7157
1.96	9.7044
1.954	9.7129
1.948	9.7747
1.942	9.8777
1.936	9.8667
1.93	9.9507
1.924	10.0381
1.918	10.1118
1.912	10.1483
1.906	10.2639
1.9	10.3496
1.894	10.4138
1.888	10.4631
1.882	10.5502
1.876	10.5158
1.87	10.595
1.864	10.6025
1.858	10.6497
1.852	10.682
1.846	10.698
1.84	10.7064
1.834	10.7301
1.828	10.7178
1.822	10.7001
1.816	10.7136
1.81	10.7886
1.804	10.8466
1.798	10.7786
1.792	10.8031
1.786	10.7721
1.78	10.8397
1.774	10.8615
1.768	10.9111
1.762	10.9161
1.756	10.8767
1.75	10.9177
1.744	10.9293
1.738	10.9287
1.732	10.9607
1.726	11.0229
1.72	11.0205
1.714	11.0472
1.708	11.0916
1.702	11.0669
1.696	11.0663
1.69	11.0782
1.684	11.0559
1.678	11.2016
1.672	11.1506
1.666	11.2792
1.66	11.2496
1.654	11.2672
1.648	11.2016
1.642	11.3912
1.636	11.234
1.63	11.2538
1.624	11.2248
1.618	11.3403
1.612	11.3028
1.606	11.3459
1.6	11.2713
1.594	11.3583
1.588	11.351
1.582	11.3912
1.576	11.3711
1.57	11.3525
1.564	11.3312
1.558	11.3717
1.552	11.3668
1.546	11.4096
1.54	11.3401
1.534	11.4019
1.528	11.3669
1.522	11.3824
1.516	11.3809
1.51	11.4172
1.504	11.4212
1.498	11.3789
1.492	11.411
1.486	11.4196
1.48	11.4366
1.474	11.4348
1.468	11.4122
1.462	11.4464
1.456	11.464
1.45	11.3955
1.444	11.4317
1.438	11.4646
1.432	11.438
1.426	11.5086
1.42	11.4599
1.414	11.5188
1.408	11.4951
1.402	11.4652
1.396	11.584
1.39	11.5351
1.384	11.5571
1.378	11.5673
1.372	11.5305
1.366	11.5742
1.36	11.561
1.354	11.591
1.348	11.5546
1.342	11.6139
1.336	11.6131
1.33	11.6267
1.324	11.5973
1.318	11.6027
1.312	11.6053
1.306	11.5726
1.3	11.6263
1.294	11.629
1.288	11.627
1.282	11.7259
1.276	11.6717
1.27	11.681
1.264	11.7356
1.258	11.7611
1.252	11.7018
1.246	11.7662
1.24	11.7856
1.234	11.8022
1.228	11.8815
1.222	11.8527
1.216	11.9036
1.21	11.9034
1.204	11.923
1.198	11.9368
1.192	12.0056
1.186	12.0721
1.18	12.0393
1.174	12.0982
1.168	12.1374
1.162	12.0773
1.156	12.1187
1.15	12.1776
1.144	12.1951
1.138	12.2999
1.132	12.2452
1.126	12.2413
1.12	12.3326
1.114	12.3767
1.108	12.4014
1.102	12.374
1.096	12.4016
1.09	12.4596
1.084	12.4514
1.078	12.5185
1.072	12.5376
1.066	12.5902
1.06	12.5338
1.054	12.7145
1.048	12.6604
1.042	12.5984
1.036	12.6502
1.03	12.7219
1.024	12.7545
1.018	12.7235
1.012	12.7334
1.006	12.7102
1	12.7466
0.994	12.7956
0.988	12.8541
0.982	12.7911
0.976	12.8625
0.97	12.8922
0.964	12.9936
0.958	12.985
0.952	13.0549
0.946	13.0783
0.94	13.012
0.934	13.159
0.928	13.2485
0.922	13.2472
0.916	13.2568
0.91	13.2802
0.904	13.3138
0.898	13.3997
0.892	13.4666
0.886	13.4902
0.88	13.5913
0.874	13.5569
0.868	13.7153
0.862	13.7207
0.856	14.1241
0.85	14.2159
0.844	14.2883
0.838	14.3635
0.832	14.4482
0.826	14.5231
0.82	14.6254
0.814	14.7024
0.808	14.7965
0.802	14.8809
0.796	14.9627
0.79	15.0579
0.784	15.1307
0.778	15.211
0.772	15.2832
0.766	15.3586
0.76	15.432
0.754	15.5101
0.748	15.575
0.742	15.6675
0.736	15.7435
0.73	15.7987
0.724	15.8576
0.718	15.9022
0.712	15.9396
0.706	15.9562
0.7	15.9564
0.694	15.9538
0.688	15.9362
0.682	15.9187
0.676	15.8836
0.67	15.8359
0.664	15.7878
0.658	15.7344
0.652	15.6795
0.646	15.6286
0.64	15.5781
0.634	15.5469
0.628	15.5071
0.622	15.494
0.616	15.4781
0.61	15.4746
0.604	15.4636
0.598	15.4643
0.592	15.4651
0.586	15.4432
0.58	15.4184
0.574	15.3758
0.568	15.3186
0.562	15.2581
0.556	15.1877
0.55	15.115
0.544	15.0346
0.538	14.9574
0.532	14.8704
0.526	14.788
0.52	14.6999
0.514	14.5951
0.508	14.4788
0.502	14.3345
0.496	14.1695
0.49	13.9743
0.484	13.7389
0.478	13.4972
0.472	13.2476
0.466	12.986
0.46	12.7175
0.454	12.4574
0.448	12.2098
0.442	11.9538
0.436	11.6456
0.43	11.1627
0.424	10.9238
0.418	10.8134
0.412	10.5907
0.406	10.2237
0.4	9.7553
