Name: Cassiterite SnO_2
Type: Mineral
Class: Oxide
Subclass: None
Particle Size: Medium
Sample No.: O-3A
Owner: JPL
Wavelength Range: VSWIR
Origin: USA, South Dakota, Lawrence County, Tinton.collected by:  Burminco
Description: Particle size was 45-125um. Original ASTER Spectral Library name was jpl.perkin.mineral.oxide.none.medium.o03a.spectrum.txt
Measurement: Hemispherical reflectance
X Units: Wavelength (micrometers)
Y Units: Reflectance (percent)
wavelength	value
2.5	5.882
2.494	6.022
2.488	5.9978
2.482	5.9334
2.476	5.9006
2.47	6.0233
2.464	5.95
2.458	6.049
2.452	6.0169
2.446	6.0156
2.44	6.0092
2.434	5.9472
2.428	6.0114
2.422	6.089
2.416	6.0218
2.41	6.0888
2.404	6.0034
2.398	6.0463
2.392	6.0721
2.386	6.1015
2.38	6.0961
2.374	6.1201
2.368	6.0937
2.362	6.1157
2.356	6.0622
2.35	6.0722
2.344	6.1087
2.338	6.0964
2.332	6.0992
2.326	6.0823
2.32	6.0905
2.314	6.0941
2.308	6.1109
2.302	6.1212
2.296	6.0989
2.29	6.1321
2.284	6.0919
2.278	6.1489
2.272	6.1216
2.266	6.1212
2.26	6.1727
2.254	6.1393
2.248	6.1323
2.242	6.1514
2.236	6.0858
2.23	6.0811
2.224	6.1343
2.218	6.1496
2.212	6.2325
2.206	6.0845
2.2	6.113
2.194	6.0925
2.188	6.0841
2.182	6.1762
2.176	6.1745
2.17	6.2222
2.164	6.184
2.158	6.3339
2.152	6.2666
2.146	6.3023
2.14	6.3279
2.134	6.328
2.128	6.2493
2.122	6.3187
2.116	6.2106
2.11	6.259
2.104	6.2129
2.098	6.2152
2.092	6.1909
2.086	6.2811
2.08	6.2265
2.074	6.2833
2.068	6.2334
2.062	6.2617
2.056	6.299
2.05	6.2963
2.044	6.2677
2.038	6.2955
2.032	6.3191
2.026	6.3061
2.02	6.3141
2.014	6.316
2.008	6.2752
2.002	6.2788
1.996	6.2807
1.99	6.2865
1.984	6.1739
1.978	6.297
1.972	6.2217
1.966	6.2695
1.96	6.2565
1.954	6.2845
1.948	6.2301
1.942	6.26
1.936	6.224
1.93	6.2901
1.924	6.2424
1.918	6.2733
1.912	6.2868
1.906	6.1734
1.9	6.2178
1.894	6.3059
1.888	6.2619
1.882	6.2974
1.876	6.2891
1.87	6.2482
1.864	6.273
1.858	6.2888
1.852	6.2162
1.846	6.205
1.84	6.2334
1.834	6.2834
1.828	6.2512
1.822	6.2605
1.816	6.1988
1.81	6.2469
1.804	6.222
1.798	6.2387
1.792	6.2052
1.786	6.1639
1.78	6.1828
1.774	6.2297
1.768	6.1737
1.762	6.1935
1.756	6.2123
1.75	6.1734
1.744	6.2301
1.738	6.1784
1.732	6.1915
1.726	6.248
1.72	6.1851
1.714	6.1536
1.708	6.1874
1.702	6.181
1.696	6.1975
1.69	6.1208
1.684	6.1885
1.678	6.1922
1.672	6.1395
1.666	6.2299
1.66	6.2798
1.654	6.1852
1.648	6.1621
1.642	6.3441
1.636	6.23
1.63	6.1733
1.624	6.2009
1.618	6.213
1.612	6.3139
1.606	6.2819
1.6	6.2465
1.594	6.2222
1.588	6.2736
1.582	6.3385
1.576	6.3047
1.57	6.297
1.564	6.4104
1.558	6.3052
1.552	6.3851
1.546	6.3327
1.54	6.335
1.534	6.4295
1.528	6.3768
1.522	6.4224
1.516	6.4328
1.51	6.4104
1.504	6.4851
1.498	6.5222
1.492	6.4685
1.486	6.4825
1.48	6.5171
1.474	6.5292
1.468	6.5094
1.462	6.5656
1.456	6.5644
1.45	6.59
1.444	6.6146
1.438	6.5963
1.432	6.5608
1.426	6.6144
1.42	6.5315
1.414	6.5785
1.408	6.6493
1.402	6.7194
1.396	6.6824
1.39	6.7679
1.384	6.7333
1.378	6.8754
1.372	6.8174
1.366	6.8081
1.36	6.7097
1.354	6.8383
1.348	6.7929
1.342	6.8579
1.336	6.7717
1.33	6.7697
1.324	6.6839
1.318	6.8091
1.312	6.8693
1.306	6.87
1.3	6.8979
1.294	6.832
1.288	6.8519
1.282	6.8677
1.276	6.8539
1.27	6.8535
1.264	6.826
1.258	6.8297
1.252	6.8195
1.246	6.8978
1.24	6.8542
1.234	6.8576
1.228	6.9135
1.222	6.895
1.216	6.93
1.21	6.9456
1.204	6.938
1.198	6.9664
1.192	6.9871
1.186	6.9669
1.18	6.9934
1.174	7.0023
1.168	6.9357
1.162	7.0094
1.156	7.0268
1.15	7.074
1.144	7.0768
1.138	7.1708
1.132	7.1284
1.126	7.1037
1.12	7.171
1.114	7.1552
1.108	7.095
1.102	7.1524
1.096	7.13
1.09	7.258
1.084	7.1333
1.078	7.2264
1.072	7.2096
1.066	7.1656
1.06	7.2926
1.054	7.2868
1.048	7.2995
1.042	7.2902
1.036	7.2836
1.03	7.2573
1.024	7.3826
1.018	7.3253
1.012	7.267
1.006	7.372
1	7.3696
0.994	7.3976
0.988	7.2924
0.982	7.3558
0.976	7.2797
0.97	7.2533
0.964	7.336
0.958	7.2619
0.952	7.2525
0.946	7.2286
0.94	7.1886
0.934	7.1381
0.928	7.1684
0.922	7.1238
0.916	7.0847
0.91	7.0922
0.904	7.1035
0.898	7.0597
0.892	7.0688
0.886	7.056
0.88	6.9777
0.874	7.0027
0.868	6.9688
0.862	7.0453
0.856	7.3513
0.85	7.3427
0.844	7.3384
0.838	7.3475
0.832	7.3412
0.826	7.3515
0.82	7.357
0.814	7.3598
0.808	7.363
0.802	7.3664
0.796	7.3639
0.79	7.3656
0.784	7.361
0.778	7.3462
0.772	7.3377
0.766	7.3301
0.76	7.3142
0.754	7.3065
0.748	7.2855
0.742	7.2811
0.736	7.2611
0.73	7.2374
0.724	7.2179
0.718	7.1977
0.712	7.1752
0.706	7.1512
0.7	7.1221
0.694	7.1014
0.688	7.0783
0.682	7.0473
0.676	7.0265
0.67	7
0.664	6.971
0.658	6.9495
0.652	6.9238
0.646	6.8975
0.64	6.8721
0.634	6.8459
0.628	6.8255
0.622	6.8024
0.616	6.7764
0.61	6.7559
0.604	6.7343
0.598	6.7171
0.592	6.7044
0.586	6.6874
0.58	6.6737
0.574	6.6581
0.568	6.6467
0.562	6.6351
0.556	6.6347
0.55	6.6285
0.544	6.623
0.538	6.6157
0.532	6.6129
0.526	6.6069
0.52	6.6032
0.514	6.6003
0.508	6.5964
0.502	6.6051
0.496	6.6144
0.49	6.6253
0.484	6.6394
0.478	6.6221
0.472	6.6239
0.466	6.6249
0.46	6.6221
0.454	6.6246
0.448	6.626
0.442	6.6286
0.436	6.6239
0.43	6.6245
0.424	6.6301
0.418	6.628
0.412	6.6393
0.406	6.6496
0.4	6.6702
