Name: Calcite CaCO_3
Type: Mineral
Class: Carbonate
Subclass: None
Particle Size: Coarse
Sample No.: C-3D
Owner: JPL
Wavelength Range: TIR
Origin: United Kingdom, England
Description: Particle size was 125-500um.Collected by Ward's Original ASTER Spectral Library name was jpl.nicolet.mineral.carbonate.none.coarse.c03d.spectrum.txt
Measurement: Hemispherical reflectance
X Units: Wavelength (micrometers)
Y Units: Reflectance (percent)
wavelength	value
15.3853	9.5324
15.1161	10.718
14.8563	11.5244
14.6052	11.8661
14.3624	9.2194
14.1276	2.9816
13.9004	1.8291
13.6803	10.7254
13.4671	14.755
13.2604	14.9358
13.06	13.1377
12.8656	11.5113
12.6769	12.1915
12.4936	12.5485
12.3155	13.9006
12.1425	14.4832
11.9742	13.5274
11.8106	5.6464
11.6513	8.0104
11.4963	3.6433
11.3454	4.3453
11.1983	13.9063
11.0551	15.5745
10.9154	14.6467
10.7793	13.3185
10.6465	12.173
10.5169	11.8869
10.3904	11.7318
10.267	10.1445
10.1464	8.3698
10.0287	6.9367
9.9136	6.2897
9.8012	5.848
9.6913	5.8935
9.5838	6.257
9.4787	6.827
9.3758	7.032
9.2752	7.4652
9.1767	7.8208
9.0803	9.0216
8.9858	10.3727
8.8934	11.2786
8.8028	12.1551
8.714	11.8143
8.627	9.9686
8.5417	9.5063
8.4581	9.6492
8.3761	11.2617
8.2957	12.9693
8.2169	13.9793
8.1395	13.7789
8.0635	12.8308
7.989	13.7246
7.9158	12.9168
7.8439	12.8953
7.7734	12.3959
7.7041	11.8024
7.636	10.1708
7.5691	9.4091
7.5034	9.311
7.4388	8.9217
7.3753	8.1787
7.3129	6.8827
7.2515	6.0361
7.1912	5.3346
7.1318	5.6228
7.0734	6.6217
7.016	6.3562
6.9595	6.5453
6.9039	6.9176
6.8492	7.3186
6.7953	7.7494
6.7423	8.6773
6.6901	9.8289
6.6387	11.6226
6.5881	12.6578
6.5382	12.5386
6.4892	12.3069
6.4408	12.2582
6.3931	9.525
6.3462	7.3297
6.2999	4.6858
6.2543	4.8567
6.2094	4.175
6.1651	3.7504
6.1214	3.5498
6.0784	3.4832
6.0359	3.862
5.994	4.303
5.9527	4.4312
5.912	5.0739
5.8718	5.4585
5.8322	5.3628
5.7931	5.1782
5.7545	4.8373
5.7165	5.6441
5.6789	6.83
5.6418	8.5491
5.6052	5.0666
5.5691	0.9939
5.5334	5.3424
5.4982	13.8686
5.4635	19.883
5.4291	25.8008
5.3952	31.2318
5.3618	35.9525
5.3287	40.1687
5.2961	44.1763
5.2638	46.6903
5.2319	49.1409
5.2004	51.1742
5.1693	52.4273
5.1386	53.5855
5.1082	46.9557
5.0782	54.4332
5.0485	56.1821
5.0192	56.0281
4.9902	55.6458
4.9616	55.2147
4.9332	55.0469
4.9052	55.2529
4.8776	55.551
4.8502	55.7074
4.8231	55.8583
4.7963	55.6622
4.7699	54.563
4.7437	51.1867
4.7178	43.053
4.6922	31.4686
4.6668	29.2399
4.6418	35.4251
4.617	43.2579
4.5924	45.7567
4.5681	46.479
4.5441	46.764
4.5203	47.0445
4.4968	47.8792
4.4735	50.7814
4.4505	53.1881
4.4277	55.6033
4.4051	56.7665
4.3828	57.6604
4.3607	56.6738
4.3388	55.3023
4.3171	55.1175
4.2956	55.5544
4.2744	53.7445
4.2534	54.5974
4.2325	54.4261
4.2119	53.8973
4.1915	52.671
4.1712	51.1587
4.1512	48.9771
4.1313	45.7926
4.1117	42.0336
4.0922	38.2814
4.0729	33.5665
4.0538	27.4829
4.0349	17.5107
4.0161	10.9366
3.9976	5.206
3.9792	3.4943
3.9609	4.2958
3.9428	7.6903
3.9249	10.0964
3.9072	11.2468
3.8896	11.9325
3.8722	12.1217
3.8549	12.6682
3.8378	14.1919
3.8208	19.6889
3.804	28.0096
3.7873	40.9617
3.7708	46.561
3.7544	48.622
3.7382	50.1305
3.7221	51.5453
3.7061	52.0118
3.6903	51.9535
3.6746	51.7254
3.659	50.9673
3.6436	50.0623
3.6283	48.8048
3.6131	47.3409
3.5981	44.9609
3.5832	40.5658
3.5684	36.519
3.5537	35.5475
3.5391	30.133
3.5247	20.1509
3.5104	13.0353
3.4962	10.4586
3.4821	8.4323
3.4681	10.8595
3.4543	14.8255
3.4405	15.4022
3.4269	15.5182
3.4133	15.3567
3.3999	14.8434
3.3866	14.3965
3.3733	13.9784
3.3602	12.6974
3.3472	12.2036
3.3343	24.266
3.3215	30.2617
3.3088	32.768
3.2961	33.9067
3.2836	34.7115
3.2712	35.2724
3.2588	35.273
3.2466	35.3244
3.2345	35.3895
3.2224	35.1521
3.2104	34.9655
3.1985	34.6619
3.1867	34.1338
3.175	33.7895
3.1634	32.8852
3.1519	32.0667
3.1404	31.7996
3.129	31.7222
3.1178	31.1078
3.1065	30.4904
3.0954	30.8984
3.0844	31.1958
3.0734	31.3234
3.0625	31.3054
3.0517	31.3534
3.041	31.4783
3.0303	31.2706
3.0197	31.2839
3.0092	31.3023
2.9987	31.3564
2.9884	31.0494
2.9781	31.2014
2.9678	30.974
2.9577	31.0364
2.9476	31.2685
2.9376	31.3103
2.9276	31.5005
2.9177	31.68
2.9079	31.9827
2.8982	32.3367
2.8885	32.8856
2.8789	33.1312
2.8693	33.7621
2.8598	34.2034
2.8504	34.8247
2.841	35.1371
2.8317	35.5464
2.8224	35.8565
2.8133	36.2003
2.8041	36.4009
2.7951	35.7296
2.786	35.4937
2.7771	36.5218
2.7682	37.6326
2.7594	38.3593
2.7506	40.2719
2.7418	43.6573
2.7332	47.1389
2.7246	52.6548
2.716	58.0965
2.7075	64.0061
2.699	68.6012
2.6906	73.4705
2.6823	76.9208
2.674	78.9481
2.6657	81.3958
2.6575	81.0977
2.6494	81.7133
2.6413	82.249
2.6332	82.6817
2.6252	83.1724
2.6173	83.7079
2.6094	83.2969
2.6015	82.899
2.5937	83.2741
2.5859	81.4624
2.5782	80.5477
2.5706	79.4496
2.5629	76.9939
2.5554	71.2865
2.5478	64.7814
2.5403	60.0089
2.5329	59.9553
2.5255	63.0573
2.5181	65.9373
2.5108	67.4343
2.5035	68.167
2.4963	68.7102
2.4891	69.508
2.482	70.9535
2.4749	73.3138
2.4678	75.7273
2.4608	77.9206
2.4538	79.6942
2.4468	81.021
2.4399	82.1096
2.4331	83.0977
2.4262	84.1263
2.4194	84.7485
2.4127	85.4267
2.4059	85.4803
2.3993	85.5584
2.3926	86.0088
2.386	85.9919
2.3795	85.7279
2.3729	84.8635
2.3664	83.2073
2.36	79.9711
2.3535	76.3258
2.3471	73.3659
2.3408	72.1503
2.3345	72.6467
2.3282	74.5957
2.3219	76.5874
2.3157	77.728
2.3095	78.4889
2.3034	78.8212
2.2972	79.5255
2.2911	80.3287
2.2851	81.5263
2.279	82.9678
2.2731	84.1585
2.2671	85.2936
2.2612	85.921
2.2553	86.5912
2.2494	87.0466
2.2435	87.6747
2.2377	88.029
2.232	88.2534
2.2262	88.5852
2.2205	88.7119
2.2148	88.7382
2.2091	88.947
2.2035	89.3075
2.1979	89.3407
2.1923	89.3907
2.1868	89.6975
2.1812	89.4944
2.1758	89.6228
2.1703	89.2172
2.1649	89.1516
2.1595	89.2957
2.1541	89.0044
2.1487	89.1316
2.1434	89.4443
2.1381	89.6816
2.1328	89.6961
2.1275	89.6714
2.1223	90.0797
2.1171	89.9234
2.112	90.1362
2.1068	90.1282
2.1017	90.242
2.0966	90.1305
2.0915	90.3689
2.0865	90.1889
2.0814	90.2087
2.0764	90.0246
2.0715	90.0823
2.0665	90.4971
2.0616	90.0042
2.0567	90.1333
2.0518	90.0907
2.0469	89.7615
2.0421	90.0641
2.0373	89.7792
2.0325	89.3226
2.0277	89.554
2.0229	89.3196
2.0182	89.2571
2.0135	88.7076
2.0088	88.7295
2.0042	88.2739
