Name: Arsenopyrite FeAsS
Type: Mineral
Class: Sulfide
Subclass: None
Particle Size: Medium
Sample No.: S-5A
Owner: JPL
Wavelength Range: TIR
Origin: USA, Nevada, Lander County, Austin
Description: Particle size was 45-125um.Collected by Burminco Original ASTER Spectral Library name was jpl.nicolet.mineral.sulfide.none.medium.s05a.spectrum.txt
Measurement: Hemispherical reflectance
X Units: Wavelength (micrometers)
Y Units: Reflectance (percent)
wavelength	value
15.3853	11.2361
15.1161	11.7401
14.8563	11.0719
14.6052	11.1899
14.3624	10.7831
14.1276	11.1146
13.9004	11.0829
13.6803	11.3208
13.4671	11.3613
13.2604	11.4129
13.06	11.8667
12.8656	13.3567
12.6769	12.5033
12.4936	13.195
12.3155	10.2705
12.1425	10.4922
11.9742	10.8084
11.8106	11.1491
11.6513	11.2926
11.4963	11.4181
11.3454	11.2056
11.1983	11.412
11.0551	11.5202
10.9154	11.6214
10.7793	11.6201
10.6465	11.7649
10.5169	11.7849
10.3904	11.9109
10.267	11.9869
10.1464	12.1251
10.0287	12.4597
9.9136	12.7585
9.8012	13.3302
9.6913	13.8743
9.5838	14.8288
9.4787	16.672
9.3758	20.9738
9.2752	23.8525
9.1767	24.3025
9.0803	24.7842
8.9858	24.4026
8.8934	23.7548
8.8028	22.7199
8.714	21.4835
8.627	18.2768
8.5417	21.5453
8.4581	21.7896
8.3761	21.5634
8.2957	21.7706
8.2169	21.7951
8.1395	19.9083
8.0635	16.849
7.989	14.8019
7.9158	13.1411
7.8439	12.0586
7.7734	11.7993
7.7041	11.4155
7.636	11.2798
7.5691	11.1115
7.5034	11.096
7.4388	10.9272
7.3753	10.9818
7.3129	10.9323
7.2515	11.1049
7.1912	11.1301
7.1318	11.1371
7.0734	11.2728
7.016	11.199
6.9595	11.3721
6.9039	11.29
6.8492	11.1687
6.7953	11.1444
6.7423	10.7224
6.6901	10.6905
6.6387	11.0438
6.5881	10.672
6.5382	10.5659
6.4892	11.4199
6.4408	11.4155
6.3931	11.2297
6.3462	11.0701
6.2999	10.3194
6.2543	10.1161
6.2094	9.9848
6.1651	10.2433
6.1214	10.7536
6.0784	10.9344
6.0359	10.8753
5.994	10.843
5.9527	10.6056
5.912	10.6557
5.8718	11.0982
5.8322	11.4451
5.7931	11.7098
5.7545	11.9972
5.7165	12.0887
5.6789	11.713
5.6418	11.1763
5.6052	10.5885
5.5691	10.6389
5.5334	10.7521
5.4982	10.9561
5.4635	11.3146
5.4291	11.0844
5.3952	10.2775
5.3618	9.7896
5.3287	9.75
5.2961	9.9326
5.2638	10.114
5.2319	10.683
5.2004	11.1964
5.1693	11.1538
5.1386	11.0151
5.1082	10.998
5.0782	10.7298
5.0485	10.6905
5.0192	10.6464
4.9902	10.5751
4.9616	11.1636
4.9332	11.4167
4.9052	12.1702
4.8776	12.9857
4.8502	13.3549
4.8231	13.5383
4.7963	13.691
4.7699	13.759
4.7437	13.8453
4.7178	13.8042
4.6922	13.6778
4.6668	13.7363
4.6418	13.8882
4.617	13.945
4.5924	13.9341
4.5681	13.9445
4.5441	13.8178
4.5203	13.6855
4.4968	13.5282
4.4735	13.4151
4.4505	13.4347
4.4277	13.5283
4.4051	13.6333
4.3828	13.8213
4.3607	13.966
4.3388	13.9541
4.3171	13.8509
4.2956	13.9913
4.2744	13.8484
4.2534	13.8669
4.2325	13.8612
4.2119	13.9241
4.1915	13.9249
4.1712	14.0176
4.1512	13.979
4.1313	13.9554
4.1117	14.0296
4.0922	14.0625
4.0729	14.0568
4.0538	14.0401
4.0349	14.0689
4.0161	14.1617
3.9976	14.1613
3.9792	14.1633
3.9609	14.1657
3.9428	14.0848
3.9249	14.1435
3.9072	14.0825
3.8896	14.0587
3.8722	14.0325
3.8549	13.9452
3.8378	13.9146
3.8208	14.0642
3.804	13.9818
3.7873	14.0478
3.7708	14.0472
3.7544	13.9223
3.7382	13.941
3.7221	13.8879
3.7061	13.8662
3.6903	13.8796
3.6746	13.8077
3.659	13.7764
3.6436	13.757
3.6283	13.8145
3.6131	13.6513
3.5981	13.652
3.5832	13.5027
3.5684	13.5556
3.5537	13.5504
3.5391	13.4185
3.5247	13.4255
3.5104	13.4046
3.4962	13.4283
3.4821	13.3368
3.4681	13.2206
3.4543	13.0726
3.4405	13.1938
3.4269	12.9327
3.4133	12.904
3.3999	12.8968
3.3866	12.7795
3.3733	12.7904
3.3602	12.6003
3.3472	12.4735
3.3343	12.4898
3.3215	12.3202
3.3088	12.2404
3.2961	12.143
3.2836	12.0825
3.2712	12.0864
3.2588	11.9762
3.2466	11.7955
3.2345	11.7762
3.2224	11.727
3.2104	11.475
3.1985	11.5067
3.1867	11.2761
3.175	11.327
3.1634	11.2804
3.1519	10.9574
3.1404	11.0527
3.129	10.904
3.1178	10.8114
3.1065	10.6649
3.0954	10.648
3.0844	10.5819
3.0734	10.7474
3.0625	10.6308
3.0517	10.4241
3.041	10.3118
3.0303	10.284
3.0197	10.2745
3.0092	10.2646
2.9987	10.1784
2.9884	10.1036
2.9781	10.0635
2.9678	10.05
2.9577	9.8708
2.9476	10.0644
2.9376	10.134
2.9276	10.2582
2.9177	10.2772
2.9079	10.4193
2.8982	10.3991
2.8885	10.5871
2.8789	10.3285
2.8693	10.6793
2.8598	10.8129
2.8504	10.8373
2.841	11.1809
2.8317	11.3731
2.8224	11.3403
2.8133	11.4491
2.8041	11.6282
2.7951	11.8033
2.786	11.917
2.7771	11.9601
2.7682	12.125
2.7594	12.3385
2.7506	12.7976
2.7418	12.9852
2.7332	13.2261
2.7246	13.6845
2.716	13.6191
2.7075	13.7408
2.699	14.0989
2.6906	14.2484
2.6823	14.2075
2.674	14.2036
2.6657	14.496
2.6575	14.1648
2.6494	14.2597
2.6413	14.0124
2.6332	14.1863
2.6252	14.1056
2.6173	14.1948
2.6094	14.1815
2.6015	13.904
2.5937	14.5424
2.5859	14.2423
2.5782	14.1421
2.5706	14.0315
2.5629	14.1562
2.5554	13.9815
2.5478	14.1167
2.5403	13.9838
2.5329	13.8567
2.5255	14.175
2.5181	13.8082
2.5108	13.8724
2.5035	13.8983
2.4963	13.8878
2.4891	13.8891
2.482	13.9575
2.4749	13.9534
2.4678	13.8661
2.4608	13.8701
2.4538	13.8913
2.4468	13.7961
2.4399	13.9816
2.4331	13.8361
2.4262	14.0201
2.4194	13.7692
2.4127	13.8571
2.4059	13.8321
2.3993	13.7458
2.3926	13.6484
2.386	13.9966
2.3795	13.7379
2.3729	13.7181
2.3664	13.6199
2.36	13.8937
2.3535	13.6696
2.3471	13.6966
2.3408	13.9058
2.3345	13.7423
2.3282	13.7143
2.3219	13.6194
2.3157	13.7137
2.3095	13.6905
2.3034	13.7144
2.2972	13.8292
2.2911	13.5676
2.2851	13.9316
2.279	13.7111
2.2731	13.4637
2.2671	13.6601
2.2612	13.461
2.2553	13.605
2.2494	13.2666
2.2435	13.3271
2.2377	13.7284
2.232	13.4157
2.2262	13.4783
2.2205	13.2971
2.2148	13.5518
2.2091	13.6624
2.2035	13.5883
2.1979	13.1343
2.1923	13.5754
2.1868	13.2626
2.1812	13.3908
2.1758	13.3305
2.1703	13.5409
2.1649	13.558
2.1595	13.3805
2.1541	13.5137
2.1487	13.0131
2.1434	13.2075
2.1381	13.2314
2.1328	13.1874
2.1275	13.3908
2.1223	13.1434
2.1171	13.7551
2.112	13.2656
2.1068	13.1253
2.1017	13.5329
2.0966	13.1897
2.0915	13.2521
2.0865	13.4924
2.0814	13.278
2.0764	12.8269
2.0715	13.6256
2.0665	13.0648
2.0616	13.1349
2.0567	13.183
2.0518	13.2952
2.0469	13.3264
2.0421	13.2085
2.0373	13.0982
2.0325	13.1556
2.0277	13.4763
2.0229	13.0931
2.0182	12.97
2.0135	13.1086
2.0088	12.9337
2.0042	13.0768
