Name: Molybdenite MoS_2
Type: Mineral
Class: Sulfide
Subclass: None
Particle Size: Medium
Sample No.: S-11A
Owner: JPL
Wavelength Range: VSWIR
Origin: Norway, Arendal, Froland.
Description: Particle size was  45-125um.Collected by:  JPL Original ASTER Spectral Library name was jpl.perkin.mineral.sulfide.none.medium.s11a.spectrum.txt
Measurement: Hemispherical reflectance
X Units: Wavelength (micrometers)
Y Units: Reflectance (percent)
wavelength	value
2.5	52.1376
2.494	52.069
2.488	52.0978
2.482	52.1479
2.476	52.2256
2.47	52.2793
2.464	52.414
2.458	52.2903
2.452	52.4276
2.446	52.6343
2.44	52.5618
2.434	52.5051
2.428	52.7073
2.422	52.7441
2.416	52.7706
2.41	52.8438
2.404	52.8957
2.398	52.9535
2.392	52.976
2.386	53.0576
2.38	53.1702
2.374	53.237
2.368	53.1951
2.362	53.2638
2.356	53.2814
2.35	53.3146
2.344	53.3189
2.338	53.3252
2.332	53.3184
2.326	53.2903
2.32	53.2479
2.314	53.1988
2.308	53.2247
2.302	53.2461
2.296	53.2424
2.29	53.2235
2.284	53.2258
2.278	53.2097
2.272	53.2039
2.266	53.2344
2.26	53.1669
2.254	53.1988
2.248	53.2427
2.242	53.252
2.236	53.213
2.23	53.1342
2.224	53.1624
2.218	53.0734
2.212	53.2091
2.206	53.2259
2.2	53.2543
2.194	53.2847
2.188	53.3263
2.182	53.3981
2.176	53.4961
2.17	53.6423
2.164	53.7037
2.158	53.76
2.152	53.7414
2.146	53.768
2.14	53.7651
2.134	53.6157
2.128	53.5307
2.122	53.3156
2.116	53.1524
2.11	52.9458
2.104	52.8189
2.098	52.6153
2.092	52.6237
2.086	52.5722
2.08	52.6338
2.074	52.6182
2.068	52.6647
2.062	52.6261
2.056	52.5756
2.05	52.6
2.044	52.5215
2.038	52.511
2.032	52.4866
2.026	52.411
2.02	52.3486
2.014	52.3238
2.008	52.2087
2.002	52.1942
1.996	52.1777
1.99	51.9805
1.984	51.893
1.978	51.7978
1.972	51.7226
1.966	51.524
1.96	51.4883
1.954	51.2983
1.948	51.2117
1.942	51.2211
1.936	51.1324
1.93	51.0771
1.924	51.1277
1.918	51.0461
1.912	51.0804
1.906	51.1319
1.9	51.2228
1.894	51.2794
1.888	51.1926
1.882	51.2888
1.876	51.2961
1.87	51.1652
1.864	51.103
1.858	51.0243
1.852	50.9917
1.846	50.9152
1.84	50.819
1.834	50.7396
1.828	50.6372
1.822	50.5089
1.816	50.4977
1.81	50.3437
1.804	50.2904
1.798	50.2275
1.792	50.0562
1.786	49.9618
1.78	49.832
1.774	49.7191
1.768	49.6189
1.762	49.5109
1.756	49.4018
1.75	49.3106
1.744	49.1788
1.738	49.1102
1.732	49.0459
1.726	48.9154
1.72	48.7798
1.714	48.6864
1.708	48.516
1.702	48.3977
1.696	48.3186
1.69	48.1575
1.684	48.0058
1.678	47.9278
1.672	47.7841
1.666	47.6172
1.66	47.6178
1.654	47.5264
1.648	47.2491
1.642	47.2435
1.636	47.0906
1.63	46.9853
1.624	46.88
1.618	46.8424
1.612	46.6655
1.606	46.6517
1.6	46.5513
1.594	46.3741
1.588	46.3399
1.582	46.2118
1.576	46.1459
1.57	46.0137
1.564	45.8598
1.558	45.8711
1.552	45.6512
1.546	45.6235
1.54	45.5277
1.534	45.4423
1.528	45.3643
1.522	45.2393
1.516	45.1253
1.51	45.0238
1.504	45.0056
1.498	44.9216
1.492	44.7844
1.486	44.6831
1.48	44.6191
1.474	44.5308
1.468	44.4465
1.462	44.3691
1.456	44.3097
1.45	44.224
1.444	44.0576
1.438	44.0146
1.432	43.8724
1.426	43.8093
1.42	43.6881
1.414	43.5307
1.408	43.4985
1.402	43.5279
1.396	43.4922
1.39	43.4534
1.384	43.3845
1.378	43.2304
1.372	43.1613
1.366	43.1734
1.36	43.0301
1.354	42.9683
1.348	42.8063
1.342	42.7555
1.336	42.6406
1.33	42.5198
1.324	42.4334
1.318	42.3652
1.312	42.2294
1.306	42.171
1.3	42.094
1.294	41.9089
1.288	41.8679
1.282	41.7122
1.276	41.6091
1.27	41.515
1.264	41.4397
1.258	41.2599
1.252	41.1851
1.246	41.0887
1.24	40.9778
1.234	40.8731
1.228	40.7596
1.222	40.7011
1.216	40.5403
1.21	40.4476
1.204	40.2998
1.198	40.2125
1.192	40.1221
1.186	40.0086
1.18	39.8867
1.174	39.714
1.168	39.684
1.162	39.5157
1.156	39.3618
1.15	39.3361
1.144	39.1597
1.138	39.0304
1.132	39.0033
1.126	38.8475
1.12	38.7506
1.114	38.5065
1.108	38.551
1.102	38.3452
1.096	38.3018
1.09	38.1753
1.084	38.0629
1.078	37.9451
1.072	37.8574
1.066	37.694
1.06	37.6157
1.054	37.5232
1.048	37.4228
1.042	37.2253
1.036	37.202
1.03	36.9849
1.024	36.9603
1.018	36.7605
1.012	36.5435
1.006	36.4136
1	36.2593
0.994	35.9519
0.988	35.6624
0.982	35.3008
0.976	34.9775
0.97	34.54
0.964	34.1214
0.958	33.5612
0.952	33.0925
0.946	32.4299
0.94	31.9053
0.934	31.2677
0.928	30.6176
0.922	30.0783
0.916	29.548
0.91	29.0177
0.904	28.537
0.898	28.1097
0.892	27.7386
0.886	27.2918
0.88	26.8331
0.874	26.4138
0.868	26.0463
0.862	25.7139
0.856	25.5438
0.85	25.2981
0.844	25.0238
0.838	24.7973
0.832	24.5996
0.826	24.3503
0.82	24.1302
0.814	23.9284
0.808	23.6991
0.802	23.5434
0.796	23.314
0.79	23.1395
0.784	22.947
0.778	22.7784
0.772	22.6054
0.766	22.4355
0.76	22.2569
0.754	22.1062
0.748	21.9424
0.742	21.7582
0.736	21.5765
0.73	21.4232
0.724	21.2455
0.718	21.0417
0.712	20.8057
0.706	20.5394
0.7	20.2944
0.694	20.1145
0.688	20.0812
0.682	20.1375
0.676	20.0091
0.67	19.3759
0.664	18.6339
0.658	18.2122
0.652	18.0779
0.646	18.1979
0.64	18.4285
0.634	18.6763
0.628	18.8647
0.622	18.9569
0.616	18.9195
0.61	18.7077
0.604	18.3158
0.598	17.8963
0.592	17.6829
0.586	17.6791
0.58	17.7637
0.574	17.8592
0.568	17.9604
0.562	18.0647
0.556	18.1688
0.55	18.2933
0.544	18.4396
0.538	18.6031
0.532	18.7907
0.526	18.9942
0.52	19.2266
0.514	19.4991
0.508	19.7959
0.502	20.1214
0.496	20.4697
0.49	20.8132
0.484	21.112
0.478	21.4141
0.472	21.6813
0.466	21.9362
0.46	22.1065
0.454	22.1717
0.448	22.0775
0.442	21.8448
0.436	21.6008
0.43	21.4334
0.424	21.3642
0.418	21.3762
0.412	21.4275
0.406	21.5196
0.4	21.5756
