Name: Tremolite Ca_2(Mg,Fe^2+)_5Si_8O_22(OH)_2
Type: Mineral
Class: Silicate
Subclass: Inosilicate
Particle Size: Fine
Sample No.: IN-5A
Owner: JPL
Wavelength Range: VSWIR
Description: Particle size was 0-45um.Collected by JPL Original ASTER Spectral Library name was jpl.beckman.mineral.silicate.inosilicate.fine.in05a.spectrum.txt
Measurement: Hemispherical reflectance
X Units: Wavelength (micrometers)
Y Units: Reflectance (percent)
wavelength	value
0.4	62.2
0.403	62.35
0.406	62.84
0.409	63.1
0.412	63.12
0.415	63.25
0.418	63.35
0.421	63.61
0.424	63.57
0.427	63.75
0.43	63.87
0.433	63.95
0.436	64.26
0.439	64.44
0.442	64.54
0.445	64.58
0.448	64.64
0.451	64.82
0.454	64.88
0.457	64.9
0.46	65.08
0.463	65.25
0.466	65.35
0.469	65.4
0.472	65.42
0.475	65.51
0.478	65.69
0.481	65.84
0.484	65.69
0.487	65.74
0.49	65.92
0.493	66.03
0.496	66.05
0.499	66.09
0.502	66.16
0.505	66.25
0.508	66.23
0.511	66.24
0.514	66.46
0.517	66.61
0.52	66.64
0.523	66.63
0.526	66.6
0.529	66.73
0.532	66.82
0.535	66.62
0.538	66.77
0.541	66.88
0.544	67
0.547	67.05
0.55	66.91
0.553	67.14
0.556	67.11
0.559	67.06
0.562	67.52
0.565	67.62
0.568	67.45
0.571	67.35
0.574	67.32
0.577	67.1
0.58	67.11
0.583	67.04
0.586	67.08
0.589	67.33
0.592	67.21
0.595	67.18
0.598	67.34
0.601	67.42
0.604	67.35
0.607	67.34
0.61	67.4
0.613	67.47
0.616	67.42
0.619	67.23
0.622	67.45
0.625	67.5
0.628	67.47
0.631	67.32
0.634	67.36
0.637	67.45
0.64	67.37
0.643	67.26
0.646	67.38
0.649	67.58
0.652	67.48
0.655	67.4
0.658	67.41
0.661	67.55
0.664	67.49
0.667	67.48
0.67	67.48
0.673	67.54
0.676	67.49
0.679	67.4
0.682	67.43
0.685	67.49
0.688	67.61
0.691	67.57
0.694	67.48
0.697	67.71
0.7	67.58
0.703	67.43
0.706	67.39
0.709	67.61
0.712	67.39
0.715	67.42
0.718	67.48
0.721	67.48
0.724	67.6
0.727	67.58
0.73	67.5
0.733	67.6
0.736	67.56
0.739	67.46
0.742	67.52
0.745	67.58
0.748	67.57
0.751	67.64
0.754	67.29
0.757	67.46
0.76	67.73
0.763	67.47
0.766	67.42
0.769	67.47
0.772	67.52
0.775	67.7
0.778	67.55
0.781	67.47
0.784	67.61
0.787	67.58
0.79	67.51
0.793	67.58
0.796	67.7
0.799	67.71
0.808	67.79
0.82	67.71
0.832	67.75
0.844	67.74
0.856	67.71
0.868	67.64
0.88	67.7
0.892	67.63
0.904	67.49
0.916	67.44
0.928	67.31
0.94	67.22
0.952	67.18
0.964	67.29
0.976	67.03
0.988	66.84
1	66.82
1.012	66.61
1.024	66.49
1.036	66.6
1.048	66.71
1.06	66.72
1.072	66.86
1.084	67.05
1.096	67.11
1.108	67.32
1.12	67.34
1.132	67.43
1.144	67.39
1.156	67.37
1.168	67.36
1.18	67.42
1.192	67.35
1.204	67.34
1.216	67.29
1.228	67.33
1.24	67.3
1.252	67.34
1.264	67.31
1.276	67.26
1.288	67.2
1.3	67.26
1.312	67.22
1.324	67.3
1.336	67.17
1.348	67.09
1.36	67.14
1.372	67.11
1.384	64.91
1.396	64.47
1.408	67.11
1.42	67.03
1.432	67.06
1.444	67.15
1.456	67.08
1.468	67.07
1.48	67.16
1.492	67.07
1.504	67
1.516	67.17
1.528	67.17
1.54	67.07
1.552	67.03
1.564	67.02
1.576	67.09
1.588	67.11
1.6	67.1
1.612	67.07
1.624	66.95
1.636	67.08
1.648	67.05
1.66	67.07
1.672	67.1
1.684	67.14
1.696	67.03
1.708	67.07
1.72	67.07
1.732	67.04
1.744	66.94
1.756	66.86
1.768	66.88
1.78	66.94
1.792	66.9
1.804	66.88
1.816	66.82
1.828	66.76
1.84	66.74
1.852	66.66
1.864	66.7
1.876	66.72
1.888	66.65
1.9	66.46
1.912	66.46
1.924	66.39
1.936	66.42
1.948	66.45
1.96	66.36
1.972	66.36
1.984	66.4
1.996	66.43
2.008	66.52
2.02	66.56
2.032	66.55
2.044	66.58
2.056	66.4
2.068	66.41
2.08	66.42
2.092	66.26
2.104	66.08
2.116	65.9
2.128	66.09
2.14	66.21
2.152	66.23
2.164	66.21
2.176	66.2
2.188	66.18
2.2	66.13
2.212	66.01
2.224	66.02
2.236	65.76
2.248	65.42
2.26	64.11
2.272	61.88
2.284	59.12
2.296	56.5
2.308	56.42
2.32	59.31
2.332	62.63
2.344	64.18
2.356	63.41
2.368	61.27
2.38	59.67
2.392	60.01
2.404	61.62
2.416	62.86
2.428	63.18
2.44	62.67
2.452	62.47
2.464	62.17
2.476	62.19
2.488	62.63
2.5	62.89
