Name: Tremolite Ca_2(Mg,Fe^2+)_5Si_8O_22(OH)_2
Type: Mineral
Class: Silicate
Subclass: Inosilicate
Particle Size: Coarse
Sample No.: IN-5A
Owner: JPL
Wavelength Range: VSWIR
Origin: None.
Description: Particle size was 125-500um.Collected by:  JPL Original ASTER Spectral Library name was jpl.perkin.mineral.silicate.inosilicate.coarse.in05a.spectrum.txt
Measurement: Hemispherical reflectance
X Units: Wavelength (micrometers)
Y Units: Reflectance (percent)
wavelength	value
2.5	46.4159
2.494	45.489
2.488	44.9577
2.482	44.3724
2.476	43.8805
2.47	43.2893
2.464	42.9807
2.458	43.1826
2.452	43.6712
2.446	44.5121
2.44	45.7711
2.434	47.4135
2.428	48.9366
2.422	48.8021
2.416	48.0468
2.41	47.7358
2.404	46.7358
2.398	43.1462
2.392	37.359
2.386	32.8553
2.38	32.7145
2.374	36.6827
2.368	42.3046
2.362	47.2574
2.356	50.9105
2.35	53.5334
2.344	55.3843
2.338	55.4073
2.332	51.3271
2.326	42.9697
2.32	33.5662
2.314	26.9636
2.308	25.4333
2.302	26.2544
2.296	27.9614
2.29	31.2136
2.284	35.9737
2.278	40.6114
2.272	45.585
2.266	51.3857
2.26	57.3482
2.254	61.699
2.248	63.8883
2.242	65.1443
2.236	66.2743
2.23	67.1838
2.224	67.6094
2.218	67.8715
2.212	68.0101
2.206	68.1202
2.2	68.0672
2.194	68.062
2.188	67.9063
2.182	67.5356
2.176	67.4822
2.17	67.7394
2.164	67.7196
2.158	66.9851
2.152	66.2615
2.146	65.6022
2.14	65.3204
2.134	64.0582
2.128	62.444
2.122	62.0157
2.116	61.0419
2.11	60.5476
2.104	64.0961
2.098	67.0177
2.092	67.183
2.086	67.0831
2.08	67.6034
2.074	68.2432
2.068	68.6474
2.062	68.94
2.056	68.924
2.05	69.5472
2.044	70.7491
2.038	71.791
2.032	72.3359
2.026	72.2887
2.02	71.5409
2.014	70.9293
2.008	70.8308
2.002	71.0801
1.996	71.2866
1.99	71.5326
1.984	72.1626
1.978	72.7753
1.972	73.3152
1.966	73.5572
1.96	73.9047
1.954	74.1355
1.948	74.1894
1.942	74.2251
1.936	74.3241
1.93	74.407
1.924	74.2826
1.918	74.3547
1.912	74.3728
1.906	74.4351
1.9	74.8481
1.894	75.3197
1.888	75.7388
1.882	75.9474
1.876	75.9736
1.87	75.9306
1.864	75.9923
1.858	75.989
1.852	76.1463
1.846	76.4314
1.84	76.7509
1.834	76.8856
1.828	77.1055
1.822	77.3281
1.816	77.5715
1.81	77.6906
1.804	77.8925
1.798	77.9812
1.792	78.0202
1.786	77.9661
1.78	77.9936
1.774	78.0235
1.768	78.0141
1.762	78.0138
1.756	78.0619
1.75	78.0852
1.744	78.1209
1.738	78.1826
1.732	78.2286
1.726	78.2238
1.72	78.3029
1.714	78.3273
1.708	78.2866
1.702	78.3987
1.696	78.3756
1.69	78.3615
1.684	78.4784
1.678	78.4382
1.672	78.4093
1.666	78.3748
1.66	78.4016
1.654	78.4195
1.648	78.4215
1.642	78.4437
1.636	78.4001
1.63	78.4139
1.624	78.4111
1.618	78.4624
1.612	78.4323
1.606	78.5365
1.6	78.54
1.594	78.4901
1.588	78.4832
1.582	78.4556
1.576	78.5393
1.57	78.4303
1.564	78.4417
1.558	78.3467
1.552	78.3067
1.546	78.0957
1.54	77.9557
1.534	78.0561
1.528	78.0918
1.522	78.3648
1.516	78.2478
1.51	78.1385
1.504	78.0023
1.498	78.0292
1.492	78.0935
1.486	78.0798
1.48	77.8649
1.474	77.3471
1.468	77.59
1.462	77.7929
1.456	77.8044
1.45	77.7202
1.444	77.7393
1.438	77.6413
1.432	77.5789
1.426	77.5019
1.42	77.2881
1.414	77.2869
1.408	77.1961
1.402	74.788
1.396	54.7072
1.39	57.1663
1.384	75.4253
1.378	74.3941
1.372	76.4739
1.366	77.2829
1.36	77.5867
1.354	77.7385
1.348	77.693
1.342	77.6206
1.336	77.5047
1.33	77.3827
1.324	77.309
1.318	77.3957
1.312	77.5457
1.306	77.4725
1.3	76.4065
1.294	77.2212
1.288	77.4377
1.282	76.9666
1.276	76.2583
1.27	76.7175
1.264	77.1297
1.258	77.1353
1.252	77.0616
1.246	76.9467
1.24	76.8808
1.234	76.8091
1.228	76.6712
1.222	76.5261
1.216	76.454
1.21	76.2951
1.204	76.138
1.198	75.9861
1.192	75.9264
1.186	75.7197
1.18	75.5675
1.174	75.3598
1.168	75.1292
1.162	74.853
1.156	74.6514
1.15	74.3411
1.144	74.0331
1.138	73.5946
1.132	73.1332
1.126	72.7264
1.12	72.154
1.114	71.579
1.108	70.8271
1.102	70.0532
1.096	69.3086
1.09	68.4587
1.084	67.504
1.078	66.6046
1.072	65.6923
1.066	64.8476
1.06	64.2299
1.054	63.7733
1.048	63.4455
1.042	63.2747
1.036	63.3227
1.03	63.4574
1.024	63.6279
1.018	63.9233
1.012	64.3589
1.006	64.8064
1	65.3528
0.994	66.0545
0.988	66.574
0.982	67.2159
0.976	67.9087
0.97	68.4335
0.964	69.0773
0.958	69.62
0.952	67.4948
0.946	69.8131
0.94	71.2112
0.934	71.7019
0.928	72.0647
0.922	72.5247
0.916	72.9198
0.91	73.2274
0.904	73.512
0.898	73.8397
0.892	74.109
0.886	74.3686
0.88	74.5656
0.874	74.8269
0.868	74.8956
0.862	75.1332
0.856	75.3462
0.85	75.5748
0.844	75.7365
0.838	75.8356
0.832	75.9073
0.826	76.0796
0.82	76.1778
0.814	76.2647
0.808	76.4031
0.802	76.4858
0.796	76.5062
0.79	76.5349
0.784	76.5834
0.778	76.6674
0.772	76.5987
0.766	76.6706
0.76	76.7151
0.754	76.7027
0.748	76.7452
0.742	76.7428
0.736	76.734
0.73	76.4689
0.724	76.6929
0.718	76.6364
0.712	76.6532
0.706	76.5796
0.7	76.5287
0.694	76.5043
0.688	76.4013
0.682	76.3728
0.676	76.2925
0.67	76.228
0.664	76.1443
0.658	76.0851
0.652	76.0179
0.646	75.9196
0.64	75.8367
0.634	75.7562
0.628	75.6604
0.622	75.5653
0.616	75.4567
0.61	75.3473
0.604	75.2422
0.598	75.1293
0.592	75.0679
0.586	74.9228
0.58	74.7858
0.574	74.617
0.568	74.4679
0.562	74.2863
0.556	74.0721
0.55	73.8394
0.544	73.5863
0.538	73.4135
0.532	73.2028
0.526	72.9705
0.52	72.7079
0.514	72.3897
0.508	72.0021
0.502	71.6249
0.496	71.2882
0.49	70.8849
0.484	70.4872
0.478	70.1692
0.472	69.8228
0.466	69.4522
0.46	69.0866
0.454	68.6445
0.448	68.146
0.442	67.578
0.436	66.9252
0.43	66.3549
0.424	65.8183
0.418	65.1868
0.412	64.4733
0.406	63.7083
0.4	62.8607
