Name: Muscovite KAl2(Si3Al)O10(OH,F)2
Type: Mineral
Class: Silicate
Subclass: Phyllosilicate
Particle Size: Fine
Sample No.: muscov_1
Owner: JHU
Wavelength Range: TIR
Origin: Methuen Township, Ontario via Bruce Hemingway, USGS
Description: The sample consisted of clear, transparent "books" of muscovite, which appear pure in hand sample.  Microscopic examination showed a possible trace (<1%) of quartz present.  (However, no quartz bands are apparent in the infrared spectrum.).Particle size was Less than 2  Micrometers.(Sheet Silicates); (MicaGroup) Original ASTER Spectral Library name was jhu.nicolet.mineral.silicate.phyllosilicate.powder.muscov1.spectrum.txt
Measurement: Transmission
X Units: Wavelength (micrometers)
Y Units: Transmittance (percent)
wavelength	value
25.0442	29.4765
24.3388	24.7382
23.6719	28.5273
23.0407	28.4628
22.4422	25.3847
21.8741	18.5546
21.334	11.205
20.8199	8.5
20.33	15.8769
19.8627	21.1767
19.4163	18.6494
18.9896	11.8681
18.5812	10.3564
18.19	14.083
17.815	19.0664
17.4551	27.0702
17.1094	33.8886
16.7772	42.6991
16.4576	49.7626
16.15	53.4471
15.8537	56.5477
15.568	61.6561
15.2925	66.1942
15.0265	67.2694
14.7697	64.2791
14.5214	61.4461
14.2814	61.7323
14.0492	61.6468
13.8244	57.6292
13.6067	54.327
13.3957	47.5975
13.1912	49.5018
12.9929	60.7186
12.8004	66.5257
12.6135	63.9705
12.432	60.9442
12.2557	63.7284
12.0843	59.0277
11.9176	65.9417
11.7555	66.0086
11.5977	58.4178
11.444	49.0668
11.2944	42.7445
11.1487	37.0331
11.0067	29.3891
10.8682	24.8613
10.7332	22.2978
10.6015	22.7465
10.473	21.9443
10.3476	14.2758
10.2251	7.6528
10.1056	4.9756
9.9887	4.4458
9.8746	4.0161
9.763	3.7881
9.6539	4.5635
9.5472	7.8017
9.4429	9.2876
9.3408	10.3857
9.2409	14.2607
9.1431	18.9604
9.0474	22.5219
8.9536	25.6747
8.8618	30.4677
8.7718	36.2958
8.6837	41.6278
8.5973	46.3339
8.5126	50.7501
8.4295	54.4776
8.3481	57.8946
8.2682	61.1036
8.1898	63.7459
8.1129	65.9727
8.0374	68.1737
7.9634	69.8323
7.8906	71.4764
7.8192	72.9629
7.7491	74.1727
7.6802	75.471
7.6126	76.4493
7.5461	77.4952
7.4807	78.3799
7.4165	79.094
7.3534	79.8748
7.2914	80.2195
7.2303	79.3887
7.1703	81.5838
7.1113	82.1614
7.0533	82.8855
6.9962	83.4554
6.94	83.9903
6.8847	84.532
6.8302	84.9815
6.7767	85.7598
6.7239	86.5349
6.672	86.9773
6.6209	87.3018
6.5705	87.8235
6.5209	87.8311
6.4721	88.0799
6.424	88.2676
6.3766	88.2217
6.3299	88.1424
6.2838	87.9004
6.2385	87.6621
6.1937	87.2569
6.1496	86.3516
6.1062	86.0469
6.0633	85.9519
6.0211	86.3958
5.9794	87.2976
5.9383	88.2158
5.8978	88.9265
5.8578	89.3516
5.8184	90.0169
5.7794	90.1472
5.741	90.4382
5.7031	90.8106
5.6657	91.0459
5.6288	91.2051
5.5924	91.3086
5.5564	91.418
5.5209	91.5635
5.4859	91.7063
5.4513	91.8308
5.4171	92.1133
5.3833	92.2842
5.35	92.6091
5.3171	92.9041
5.2846	93.2813
5.2524	93.6492
5.2207	93.9851
5.1893	94.2712
5.1584	94.54
5.1277	94.7576
5.0975	94.8953
5.0676	94.998
5.038	95.0642
5.0088	95.156
4.98	95.2246
4.9514	95.1946
4.9232	95.3142
4.8953	95.3455
4.8678	95.4246
4.8405	95.5251
4.8135	95.5564
4.7868	95.6492
4.7605	95.7903
4.7344	95.8284
4.7086	95.8899
4.6831	96.0251
4.6578	96.1179
4.6328	96.24
4.6081	96.3108
4.5837	96.4275
4.5595	96.5159
4.5356	96.5666
4.5119	96.6374
4.4884	96.7058
4.4652	96.7195
4.4423	96.8328
4.4196	96.8738
4.3971	96.9534
4.3748	97.0085
4.3528	97.0349
4.331	97.0837
4.3094	97.1277
4.288	97.156
4.2668	97.2141
4.2458	97.2214
4.2251	97.2361
4.2045	97.2966
4.1841	97.2615
4.164	97.3245
4.144	97.2546
4.1242	97.3118
4.1046	97.3572
4.0852	97.385
4.066	97.3928
4.047	97.4089
4.0281	97.3933
4.0094	97.4119
3.9909	97.4123
3.9725	97.4773
3.9544	97.491
3.9363	97.49
3.9185	97.5515
3.9008	97.5471
3.8833	97.5486
3.8659	97.5388
3.8487	97.5046
3.8316	97.5549
3.8147	97.5915
3.7979	97.5295
3.7813	97.5178
3.7648	97.4631
3.7485	97.4314
3.7323	97.4128
3.7162	97.3147
3.7003	97.3474
3.6845	97.2937
3.6689	97.2458
3.6534	97.2288
3.638	97.1794
3.6227	97.1228
3.6076	97.0588
3.5926	97.0217
3.5777	96.9548
3.563	96.8342
3.5484	96.697
3.5338	96.5984
3.5195	96.3713
3.5052	95.8708
3.491	95.9319
3.477	95.7986
3.463	95.7639
3.4492	95.51
3.4355	95.3035
3.4219	94.7341
3.4084	94.7517
3.395	94.9841
3.3817	94.9265
3.3685	94.9905
3.3554	95.1091
3.3425	95.0974
3.3296	95.0393
3.3168	94.8845
3.3041	94.7517
3.2915	94.5569
3.279	94.3669
3.2666	94.1404
3.2543	93.9255
3.2421	93.6677
3.23	93.4959
3.218	93.1716
3.206	92.8933
3.1942	92.6658
3.1824	92.3406
3.1707	91.9783
3.1591	91.6492
3.1476	91.3084
3.1362	90.8923
3.1249	90.5193
3.1136	90.1384
3.1024	89.7888
3.0913	89.4021
3.0803	89.0789
3.0694	88.7771
3.0585	88.4539
3.0477	88.1638
3.037	87.8562
3.0264	87.5154
3.0158	87.1599
3.0053	86.739
2.9949	86.3377
2.9845	85.9256
2.9743	85.4138
2.9641	85.0564
2.9539	84.5974
2.9439	84.2888
2.9339	84.076
2.9239	83.8338
2.9141	83.7615
2.9043	83.7469
2.8946	83.8562
2.8849	83.9539
2.8753	84.2117
2.8658	84.5056
2.8563	84.8845
2.8469	85.2146
2.8375	85.5818
2.8282	85.9109
2.819	86.2547
2.8098	86.239
2.8007	85.3211
2.7917	82.1765
2.7827	75.7273
2.7738	67.7342
2.7649	56.1532
2.7561	48.6835
2.7473	53.1756
2.7386	57.369
2.7299	64.9061
2.7213	78.8435
2.7128	91.0007
2.7043	94.5085
2.6959	95.6951
2.6875	96.3044
2.6791	96.8796
2.6709	97.2458
2.6626	97.1755
2.6545	97.2263
2.6463	97.3728
2.6382	97.4568
2.6302	97.7654
2.6222	97.4841
2.6143	97.7029
2.6064	97.779
2.5986	97.7361
2.5908	97.8865
2.583	98.0369
2.5753	98.0271
2.5677	97.9783
2.5601	98.0622
2.5525	97.8904
2.545	97.9001
2.5375	97.947
2.5301	97.908
2.5227	97.8845
2.5154	97.863
2.5081	98.0427
2.5008	98.0642
2.4936	98.0505
2.4864	98.0622
2.4793	98.0115
2.4722	97.8552
2.4651	97.906
2.4581	97.9392
2.4511	97.9958
2.4442	97.8162
2.4373	98.0486
2.4305	97.9705
2.4236	97.9958
2.4169	98.0798
2.4101	98.1677
2.4034	98.1912
2.3967	98.283
2.3901	98.2224
2.3835	98.1501
2.377	98.2048
2.3704	98.2185
2.364	98.1599
2.3575	98.1091
2.3511	98.2185
2.3447	98.2439
2.3384	98.1912
2.3321	98.322
2.3258	98.4216
2.3195	98.3982
2.3133	98.447
2.3071	98.2048
2.301	98.5544
2.2949	98.5388
2.2888	98.531
2.2828	98.5115
2.2767	98.5896
2.2708	98.8826
2.2648	98.5505
2.2589	98.4333
2.253	98.3943
2.2471	98.4177
2.2413	98.4255
2.2355	98.5544
2.2297	98.6912
2.224	98.5076
2.2183	98.6755
2.2126	98.5388
2.207	98.1872
2.2013	97.9685
2.1957	98.0076
2.1902	98.1716
2.1846	98.6443
2.1791	98.4724
2.1736	98.5544
2.1682	98.6755
2.1628	98.7849
2.1574	98.7068
2.152	98.656
2.1466	98.5935
2.1413	98.7419
2.136	98.8435
2.1308	98.6794
2.1255	98.7654
2.1203	98.8826
2.1151	98.8747
2.11	98.8044
2.1048	98.7107
2.0997	98.5779
2.0946	98.8279
2.0895	98.7732
2.0845	98.8669
2.0795	98.9529
