Name: Clinochlore (Mg,Fe+2)5Al(Si3Al)O10(OH)8
Type: Mineral
Class: Silicate
Subclass: Phyllosilicate
Particle Size: Coarse
Sample No.: clinochlore_1
Owner: JHU
Wavelength Range: TIR
Origin: The Smithsonian (NMNH 83369), donated by Jim Crowley(USGS). Sample originally from Tilly Foster Mine, Brewster, New York.
Description: The sample was a green micaceous mass about 3 cm square. Particle size was 74-250 Micrometers.(sheet silicates) (Chlorite Group) Original ASTER Spectral Library name was jhu.nicolet.mineral.silicate.phyllosilicate.coarse.clinoc1.spectrum.txt
Measurement: Bidirectional reflectance
X Units: Wavelength (micrometers)
Y Units: Reflectance (percent)
wavelength	value
25.0442	8.1748
24.3388	8.772
23.6719	9.7507
23.0407	10.9985
22.4422	12.6328
21.8741	13.9148
21.334	17.1992
20.8199	17.6206
20.33	15.405
19.8627	15.7304
19.4163	15.4304
18.9896	11.1726
18.5812	6.802
18.19	5.1619
17.815	5.0649
17.4551	2.8301
17.1094	2.9878
16.7772	3.3061
16.4576	3.6877
16.15	4.219
15.8537	4.8577
15.568	5.5915
15.2925	6.0735
15.0265	5.7214
14.7697	5.3203
14.5214	4.8638
14.2814	4.238
14.0492	3.9246
13.8244	3.7978
13.6067	3.6191
13.3957	3.4543
13.1912	3.4119
12.9929	3.1208
12.8004	2.7537
12.6135	2.5342
12.432	2.4726
12.2557	2.573
12.0843	2.7605
11.9176	3.083
11.7555	3.3711
11.5977	3.5342
11.444	3.6716
11.2944	3.9429
11.1487	4.2419
11.0067	4.552
10.8682	4.8093
10.7332	5.4316
10.6015	6.5303
10.473	7.7502
10.3476	8.2925
10.2251	8.0947
10.1056	8.5964
9.9887	9.8091
9.8746	12.195
9.763	14.7544
9.6539	15.4201
9.5472	13.5349
9.4429	11.6943
9.3408	11.1858
9.2409	11.2273
9.1431	10.3344
9.0474	8.7629
8.9536	6.4033
8.8618	5.008
8.7718	3.4592
8.6837	2.2524
8.5973	1.8726
8.5126	2.0776
8.4295	2.4438
8.3481	2.7866
8.2682	3.1462
8.1898	3.5176
8.1129	3.885
8.0374	4.2241
7.9634	4.4892
7.8906	4.7295
7.8192	4.9795
7.7491	5.164
7.6802	5.3054
7.6126	5.4192
7.5461	5.5117
7.4807	5.5618
7.4165	5.613
7.3534	5.7031
7.2914	5.7978
7.2303	5.9346
7.1703	6.0285
7.1113	6.1545
7.0533	6.2825
6.9962	6.3786
6.94	6.4663
6.8847	6.5317
6.8302	6.5915
6.7767	6.7173
6.7239	6.7986
6.672	6.9128
6.6209	6.987
6.5705	7.0261
6.5209	6.9634
6.4721	6.758
6.424	6.5188
6.3766	6.3381
6.3299	6.168
6.2838	6.1401
6.2385	6.2087
6.1937	6.2854
6.1496	6.3657
6.1062	6.4621
6.0633	6.574
6.0211	6.6404
5.9794	6.625
5.9383	6.5705
5.8978	6.5564
5.8578	6.6387
5.8184	6.7585
5.7794	7.0046
5.741	7.2563
5.7031	7.467
5.6657	7.6113
5.6288	7.6919
5.5924	7.7195
5.5564	7.7536
5.5209	7.8027
5.4859	7.886
5.4513	8.0429
5.4171	8.2929
5.3833	8.5998
5.35	8.8991
5.3171	9.1623
5.2846	9.3313
5.2524	9.4404
5.2207	9.5249
5.1893	9.5693
5.1584	9.5837
5.1277	9.5793
5.0975	9.5913
5.0676	9.5967
5.038	9.6277
5.0088	9.6802
4.98	9.7832
4.9514	10.0075
4.9232	10.3056
4.8953	10.6184
4.8678	10.9118
4.8405	11.1731
4.8135	11.4355
4.7868	11.6677
4.7605	11.9267
4.7344	12.2251
4.7086	12.5241
4.6831	12.8381
4.6578	13.1963
4.6328	13.5493
4.6081	13.8381
4.5837	14.1528
4.5595	14.4836
4.5356	14.726
4.5119	14.8745
4.4884	15.0114
4.4652	15.093
4.4423	15.1755
4.4196	15.2541
4.3971	15.3166
4.3748	15.3901
4.3528	15.4338
4.331	15.489
4.3094	15.5224
4.288	15.5847
4.2668	15.643
4.2458	15.6843
4.2251	15.7221
4.2045	15.7668
4.1841	15.8108
4.164	15.8513
4.144	15.8889
4.1242	15.9253
4.1046	15.9589
4.0852	16.0048
4.066	16.0388
4.047	16.0771
4.0281	16.1013
4.0094	16.1054
3.9909	16.1218
3.9725	16.1259
3.9544	16.1272
3.9363	16.1411
3.9185	16.1604
3.9008	16.1865
3.8833	16.1967
3.8659	16.1655
3.8487	16.1511
3.8316	16.1184
3.8147	16.0669
3.7979	16.0417
3.7813	16.0066
3.7648	15.979
3.7485	15.9321
3.7323	15.8803
3.7162	15.8044
3.7003	15.7446
3.6845	15.6621
3.6689	15.6167
3.6534	15.5503
3.638	15.477
3.6227	15.3735
3.6076	15.2812
3.5926	15.1709
3.5777	15.0459
3.563	14.9455
3.5484	14.7966
3.5338	14.6504
3.5195	14.4467
3.5052	14.1655
3.491	13.9963
3.477	13.8486
3.463	13.8049
3.4492	13.6403
3.4355	13.4167
3.4219	13.154
3.4084	13.0215
3.395	12.9958
3.3817	12.7329
3.3685	12.6801
3.3554	12.7382
3.3425	12.6914
3.3296	12.6179
3.3168	12.5476
3.3041	12.4416
3.2915	12.2863
3.279	12.1296
3.2666	11.9787
3.2543	11.9026
3.2421	11.7959
3.23	11.6572
3.218	11.4831
3.206	11.2702
3.1942	11.0361
3.1824	10.8022
3.1707	10.5373
3.1591	10.25
3.1476	9.9504
3.1362	9.6772
3.1249	9.3913
3.1136	9.1179
3.1024	8.7778
3.0913	8.428
3.0803	8.0498
3.0694	7.6853
3.0585	7.3139
3.0477	6.9668
3.037	6.5998
3.0264	6.2317
3.0158	5.8564
3.0053	5.5017
2.9949	5.1255
2.9845	4.8074
2.9743	4.5232
2.9641	4.2724
2.9539	4.0491
2.9439	3.8396
2.9339	3.697
2.9239	3.5564
2.9141	3.4524
2.9043	3.428
2.8946	3.4409
2.8849	3.5044
2.8753	3.6389
2.8658	3.7568
2.8563	3.833
2.8469	3.8091
2.8375	3.7363
2.8282	3.5715
2.819	3.4128
2.8098	3.2891
2.8007	3.2241
2.7917	3.22
2.7827	3.2861
2.7738	3.4233
2.7649	3.6047
2.7561	3.8901
2.7473	4.1977
2.7386	4.4814
2.7299	4.8037
2.7213	4.8679
2.7128	5.3027
2.7043	9.2995
2.6959	12.1733
2.6875	13.2876
2.6791	14.2929
2.6709	14.8474
2.6626	15.1411
2.6545	15.2099
2.6463	15.2985
2.6382	15.3798
2.6302	15.3686
2.6222	15.375
2.6143	15.3051
2.6064	15.1523
2.5986	15.0192
2.5908	14.9292
2.583	14.7776
2.5753	14.6491
2.5677	14.6286
2.5601	14.6059
2.5525	14.6235
2.545	14.6403
2.5375	14.685
2.5301	14.6318
2.5227	14.5708
2.5154	14.5547
2.5081	14.5752
2.5008	14.5473
2.4936	14.5942
2.4864	14.5525
2.4793	14.4753
2.4722	14.3862
2.4651	14.3491
2.4581	14.4697
2.4511	14.7143
2.4442	14.8125
2.4373	14.9575
2.4305	15.0449
2.4236	15.2226
2.4169	15.4379
2.4101	15.4384
2.4034	15.1538
2.3967	14.8452
2.3901	14.7236
2.3835	14.7485
2.377	14.8535
2.3704	14.7631
2.364	14.5288
2.3575	14.2119
2.3511	13.9223
2.3447	13.6084
2.3384	13.2412
2.3321	12.9458
2.3258	12.8076
2.3195	12.9126
2.3133	13.219
2.3071	13.5427
2.301	13.6081
2.2949	13.6203
2.2888	14.0671
2.2828	14.6965
2.2767	15.0725
2.2708	15.2014
2.2648	15.2024
2.2589	15.1755
2.253	15.0605
2.2471	15.0288
2.2413	15.0891
2.2355	15.4965
2.2297	16.0996
2.224	16.6308
2.2183	16.9389
2.2126	17.1555
2.207	17.333
2.2013	17.4689
2.1957	17.6425
2.1902	17.7329
2.1846	17.7753
2.1791	17.9035
2.1736	17.9794
2.1682	18.0539
2.1628	18.2504
2.1574	18.1679
2.152	18.1196
2.1466	18.1191
2.1413	18.2221
2.136	18.1984
2.1308	18.248
2.1255	18.2773
2.1203	18.3225
2.1151	18.302
2.11	18.3159
2.1048	18.3303
2.0997	18.3769
2.0946	18.479
2.0895	18.5742
2.0845	18.6621
2.0795	18.5786
