Name: Natrolite Na_2Al_2Si_3O_10.2H_2O
Type: Mineral
Class: Silicate
Subclass: Tectosilicate
Particle Size: Coarse
Sample No.: TS-8A
Owner: JPL
Wavelength Range: TIR
Origin: India, Maharashtra, Poona
Description: Particle size was 125-500um.Collected by Ward's Original ASTER Spectral Library name was jpl.nicolet.mineral.silicate.tectosilicate.coarse.ts08a.spectrum.txt
Measurement: Hemispherical reflectance
X Units: Wavelength (micrometers)
Y Units: Reflectance (percent)
wavelength	value
15.3853	3.1069
15.1161	3.0766
14.8563	2.2995
14.6052	2.0174
14.3624	1.5405
14.1276	0.7172
13.9004	1.0256
13.6803	0.7175
13.4671	1.0184
13.2604	1.3568
13.06	1.8616
12.8656	1.8086
12.6769	2.1727
12.4936	2.1617
12.3155	2.681
12.1425	2.7583
11.9742	3.0875
11.8106	3.3739
11.6513	3.7349
11.4963	4.0478
11.3454	4.3371
11.1983	4.9075
11.0551	5.4375
10.9154	6.3753
10.7793	7.2815
10.6465	9.2354
10.5169	12.3979
10.3904	20.7362
10.267	21.6732
10.1464	27.3219
10.0287	29.0896
9.9136	28.4122
9.8012	15.9667
9.6913	1.887
9.5838	11.5827
9.4787	18.0979
9.3758	16.4069
9.2752	11.7642
9.1767	19.7061
9.0803	18.5346
8.9858	19.9167
8.8934	13.9735
8.8028	7.3448
8.714	3.1988
8.627	1.2567
8.5417	0.4156
8.4581	0.0147
8.3761	0.1795
8.2957	0
8.2169	0
8.1395	0.1046
8.0635	0.2059
7.989	0.1267
7.9158	0.2931
7.8439	0.2481
7.7734	0.2567
7.7041	0.277
7.636	0.3021
7.5691	0.4399
7.5034	0.4343
7.4388	0.4366
7.3753	0.4372
7.3129	0.6221
7.2515	0.4995
7.1912	0.701
7.1318	0.6954
7.0734	0.7836
7.016	0.6761
6.9595	0.7719
6.9039	0.8238
6.8492	0.8711
6.7953	0.8306
6.7423	1.0141
6.6901	0.9147
6.6387	1.1416
6.5881	1.0676
6.5382	1.0928
6.4892	1.1552
6.4408	1.1337
6.3931	1.0578
6.3462	1.2471
6.2999	1.0644
6.2543	1.1734
6.2094	1.1018
6.1651	1.0543
6.1214	1.0251
6.0784	1.0435
6.0359	0.9801
5.994	1.244
5.9527	1.2787
5.912	1.2661
5.8718	1.3405
5.8322	1.3721
5.7931	1.3721
5.7545	1.3807
5.7165	1.4329
5.6789	1.4877
5.6418	1.6482
5.6052	1.6518
5.5691	1.8076
5.5334	1.9096
5.4982	1.9347
5.4635	1.9294
5.4291	2.1387
5.3952	2.4771
5.3618	2.6364
5.3287	3.037
5.2961	3.5851
5.2638	4.0266
5.2319	3.9528
5.2004	3.7096
5.1693	3.6427
5.1386	3.5013
5.1082	3.1304
5.0782	2.9534
5.0485	2.7323
5.0192	2.732
4.9902	3.3704
4.9616	3.5529
4.9332	3.6304
4.9052	3.2766
4.8776	2.941
4.8502	2.8367
4.8231	2.5769
4.7963	2.2791
4.7699	2.0012
4.7437	1.7999
4.7178	1.6073
4.6922	1.4442
4.6668	1.4323
4.6418	1.4546
4.617	1.7289
4.5924	2.068
4.5681	2.3552
4.5441	2.5713
4.5203	3.0754
4.4968	3.4107
4.4735	4.1181
4.4505	5.054
4.4277	6.1244
4.4051	6.9756
4.3828	7.3565
4.3607	7.9784
4.3388	8.2532
4.3171	8.4669
4.2956	8.7186
4.2744	9.3022
4.2534	10.3563
4.2325	11.0224
4.2119	11.9105
4.1915	12.7744
4.1712	13.8256
4.1512	15.4928
4.1313	17.4184
4.1117	18.6737
4.0922	19.339
4.0729	19.7001
4.0538	18.9436
4.0349	19.7235
4.0161	20.6904
3.9976	21.2195
3.9792	21.3618
3.9609	21.4916
3.9428	21.4674
3.9249	21.4673
3.9072	21.14
3.8896	20.7821
3.8722	19.9563
3.8549	18.8569
3.8378	17.3093
3.8208	18.0014
3.804	17.5958
3.7873	17.1023
3.7708	16.9046
3.7544	16.3309
3.7382	15.6278
3.7221	14.5924
3.7061	13.6961
3.6903	13.0041
3.6746	12.415
3.659	12.136
3.6436	12.1033
3.6283	12.1102
3.6131	12.1017
3.5981	11.6134
3.5832	10.923
3.5684	10.1197
3.5537	9.4046
3.5391	8.6568
3.5247	8.1529
3.5104	7.5385
3.4962	6.9674
3.4821	6.2474
3.4681	5.8056
3.4543	5.4233
3.4405	4.8484
3.4269	4.5985
3.4133	4.181
3.3999	3.7751
3.3866	3.4855
3.3733	3.2354
3.3602	2.8942
3.3472	2.6147
3.3343	2.5334
3.3215	2.2088
3.3088	2.1205
3.2961	2.0917
3.2836	2.0308
3.2712	2.0749
3.2588	2.1694
3.2466	1.9416
3.2345	2.0405
3.2224	1.923
3.2104	1.9973
3.1985	1.8913
3.1867	1.8901
3.175	1.78
3.1634	1.7999
3.1519	1.7327
3.1404	1.7677
3.129	1.7995
3.1178	1.8333
3.1065	1.6959
3.0954	1.7703
3.0844	1.7502
3.0734	1.9308
3.0625	1.8746
3.0517	1.9121
3.041	1.9157
3.0303	1.9413
3.0197	2.0319
3.0092	1.7947
2.9987	1.455
2.9884	1.3036
2.9781	1.4135
2.9678	1.6281
2.9577	1.4981
2.9476	1.3214
2.9376	1.4415
2.9276	1.464
2.9177	1.6347
2.9079	1.3037
2.8982	1.7077
2.8885	1.5324
2.8789	1.4114
2.8693	1.6419
2.8598	1.7325
2.8504	1.9453
2.841	1.9719
2.8317	1.9515
2.8224	1.353
2.8133	1.0106
2.8041	1.1162
2.7951	1.1107
2.786	1.0972
2.7771	1.482
2.7682	1.4708
2.7594	1.7949
2.7506	1.6129
2.7418	1.9171
2.7332	1.782
2.7246	2.6123
2.716	3.7007
2.7075	5.0961
2.699	6.7711
2.6906	7.8116
2.6823	8.253
2.674	8.1562
2.6657	8.9836
2.6575	9.6581
2.6494	10.2503
2.6413	10.1805
2.6332	11.2756
2.6252	12.6127
2.6173	13.6159
2.6094	13.3198
2.6015	12.1345
2.5937	10.271
2.5859	9.3625
2.5782	10.8324
2.5706	13.3211
2.5629	16.1815
2.5554	18.6495
2.5478	21.1202
2.5403	22.5869
2.5329	23.545
2.5255	24.1303
2.5181	24.6602
2.5108	24.8721
2.5035	25.4962
2.4963	25.0205
2.4891	23.334
2.482	20.6142
2.4749	17.5955
2.4678	15.054
2.4608	14.6693
2.4538	15.3467
2.4468	14.8965
2.4399	12.9266
2.4331	11.3914
2.4262	11.6185
2.4194	13.8699
2.4127	17.3009
2.4059	21.3727
2.3993	24.9245
2.3926	27.111
2.386	28.1654
2.3795	29.0225
2.3729	30.1887
2.3664	31.9472
2.36	33.618
2.3535	35.047
2.3471	35.9402
2.3408	37.4489
2.3345	39.282
2.3282	40.8585
2.3219	42.2737
2.3157	43.7621
2.3095	44.8748
2.3034	45.6209
2.2972	45.6482
2.2911	45.0109
2.2851	43.8319
2.279	43.1074
2.2731	42.8155
2.2671	43.901
2.2612	44.6412
2.2553	45.3247
2.2494	45.2578
2.2435	44.6183
2.2377	43.8987
2.232	42.8449
2.2262	41.0091
2.2205	38.6401
2.2148	36.0757
2.2091	33.2251
2.2035	30.6062
2.1979	29.4555
2.1923	30.5221
2.1868	32.283
2.1812	34.354
2.1758	35.0385
2.1703	35.4688
2.1649	35.2446
2.1595	35.602
2.1541	36.0876
2.1487	36.324
2.1434	37.2297
2.1381	37.3299
2.1328	37.2436
2.1275	36.5371
2.1223	35.5982
2.1171	34.6164
2.112	33.0164
2.1068	31.5392
2.1017	28.6339
2.0966	27.2122
2.0915	25.5272
2.0865	24.3444
2.0814	24.5047
2.0764	24.783
2.0715	24.7027
2.0665	25.642
2.0616	26.1549
2.0567	26.0258
2.0518	25.4503
2.0469	24.664
2.0421	23.3833
2.0373	21.1885
2.0325	19.2315
2.0277	17.0635
2.0229	15.5163
2.0182	14.2844
2.0135	14.1407
2.0088	13.5121
2.0042	13.4239
