Name: Gahnite ZnAl_2O_4
Type: Mineral
Class: Oxide
Subclass: None
Particle Size: Coarse
Sample No.: O-11A
Owner: JPL
Wavelength Range: TIR
Origin: Nigeria, Kaduna, Jemaa, Godogodo Mine
Description: Particle size was 125-500um.Collected by New, David Original ASTER Spectral Library name was jpl.nicolet.mineral.oxide.none.coarse.o11a.spectrum.txt
Measurement: Hemispherical reflectance
X Units: Wavelength (micrometers)
Y Units: Reflectance (percent)
wavelength	value
15.3853	32.243
15.1161	46.6641
14.8563	51.6942
14.6052	52.2423
14.3624	52.914
14.1276	53.1671
13.9004	52.6095
13.6803	51.1653
13.4671	49.5201
13.2604	46.7463
13.06	44.1426
12.8656	42.4357
12.6769	37.3493
12.4936	30.8504
12.3155	23.2113
12.1425	15.8199
11.9742	10.4546
11.8106	9.3258
11.6513	9.9634
11.4963	5.2784
11.3454	2.6541
11.1983	1.3248
11.0551	0.6674
10.9154	0.3961
10.7793	0.1777
10.6465	0.2952
10.5169	0.0166
10.3904	0.2134
10.267	0.3885
10.1464	0.5204
10.0287	0.5728
9.9136	0.6776
9.8012	0.6755
9.6913	0.946
9.5838	1.0382
9.4787	1.2392
9.3758	1.2897
9.2752	1.5326
9.1767	1.7076
9.0803	1.5743
8.9858	1.8021
8.8934	2.0076
8.8028	1.9809
8.714	2.0351
8.627	2.0004
8.5417	2.6384
8.4581	2.9873
8.3761	3.3655
8.2957	3.9316
8.2169	4.1658
8.1395	4.4863
8.0635	4.9702
7.989	5.4255
7.9158	5.3619
7.8439	5.2252
7.7734	5.4583
7.7041	6.8006
7.636	8.8217
7.5691	10.1393
7.5034	10.8009
7.4388	11.0142
7.3753	11.8876
7.3129	12.3104
7.2515	12.3698
7.1912	11.9274
7.1318	10.764
7.0734	10.3539
7.016	10.8906
6.9595	13.8165
6.9039	16.7282
6.8492	18.1855
6.7953	17.5324
6.7423	17.9223
6.6901	21.3157
6.6387	24.7111
6.5881	26.2842
6.5382	27.7167
6.4892	29.7497
6.4408	30.4151
6.3931	31.4437
6.3462	32.7545
6.2999	33.3326
6.2543	34.3627
6.2094	35.3708
6.1651	36.5429
6.1214	37.6115
6.0784	38.7419
6.0359	39.5694
5.994	40.89
5.9527	41.5583
5.912	42.6236
5.8718	43.8381
5.8322	44.8937
5.7931	45.7591
5.7545	46.871
5.7165	48.0901
5.6789	49.2354
5.6418	50.1698
5.6052	50.4779
5.5691	51.2583
5.5334	52.0457
5.4982	52.8694
5.4635	53.8213
5.4291	54.382
5.3952	54.6299
5.3618	55.0129
5.3287	55.5749
5.2961	56.3195
5.2638	57.0548
5.2319	57.9675
5.2004	58.9642
5.1693	59.5853
5.1386	60.0535
5.1082	60.5855
5.0782	61.0656
5.0485	61.5194
5.0192	61.9276
4.9902	62.4394
4.9616	63.0623
4.9332	63.719
4.9052	64.4928
4.8776	65.6681
4.8502	66.3716
4.8231	67.02
4.7963	67.623
4.7699	68.0693
4.7437	68.4074
4.7178	68.832
4.6922	69.0766
4.6668	69.4202
4.6418	69.8865
4.617	70.2727
4.5924	70.6195
4.5681	70.8881
4.5441	71.0226
4.5203	70.9353
4.4968	70.7311
4.4735	70.7695
4.4505	70.9164
4.4277	71.1513
4.4051	71.3263
4.3828	71.5622
4.3607	71.5602
4.3388	71.4952
4.3171	71.2605
4.2956	70.6151
4.2744	69.9238
4.2534	70.2187
4.2325	70.1198
4.2119	70.47
4.1915	70.5136
4.1712	70.3868
4.1512	70.0281
4.1313	69.7809
4.1117	69.3576
4.0922	69.0448
4.0729	68.5412
4.0538	68.0139
4.0349	67.4404
4.0161	66.8264
3.9976	66.0729
3.9792	65.4996
3.9609	64.6706
3.9428	63.8831
3.9249	63.2282
3.9072	62.383
3.8896	61.4525
3.8722	60.5043
3.8549	59.5336
3.8378	58.5135
3.8208	57.5361
3.804	56.5479
3.7873	55.357
3.7708	54.2469
3.7544	53.1384
3.7382	52.0531
3.7221	50.8153
3.7061	49.5943
3.6903	48.4113
3.6746	47.1286
3.659	45.9506
3.6436	44.6267
3.6283	43.3589
3.6131	42.1651
3.5981	40.8477
3.5832	39.4776
3.5684	38.2709
3.5537	36.9287
3.5391	35.6364
3.5247	34.3456
3.5104	32.1353
3.4962	31.2848
3.4821	30.4278
3.4681	29.3485
3.4543	28.0136
3.4405	26.7722
3.4269	25.1189
3.4133	24.3341
3.3999	23.694
3.3866	22.494
3.3733	21.6672
3.3602	20.8151
3.3472	19.8986
3.3343	19.0072
3.3215	18.1164
3.3088	17.2846
3.2961	16.4605
3.2836	15.5607
3.2712	14.9284
3.2588	14.2411
3.2466	13.5985
3.2345	12.8449
3.2224	12.2421
3.2104	11.6941
3.1985	11.2535
3.1867	10.6824
3.175	10.2197
3.1634	9.6524
3.1519	9.1615
3.1404	8.8138
3.129	8.2983
3.1178	8.0804
3.1065	7.8278
3.0954	7.1491
3.0844	7.0779
3.0734	6.7248
3.0625	6.4552
3.0517	6.1996
3.041	6.0334
3.0303	5.6512
3.0197	5.5827
3.0092	5.3195
2.9987	5.2288
2.9884	5.2355
2.9781	5.0183
2.9678	5.0224
2.9577	4.7057
2.9476	4.5408
2.9376	4.793
2.9276	4.6257
2.9177	4.7479
2.9079	4.4369
2.8982	4.3221
2.8885	4.4794
2.8789	4.282
2.8693	4.1097
2.8598	4.2194
2.8504	4.229
2.841	4.1103
2.8317	4.104
2.8224	4.0391
2.8133	4.1551
2.8041	4.1045
2.7951	3.9234
2.786	3.9572
2.7771	3.8542
2.7682	3.8515
2.7594	3.8609
2.7506	3.9127
2.7418	3.697
2.7332	3.9855
2.7246	4.1051
2.716	4.0651
2.7075	4.0844
2.699	3.9308
2.6906	4.0086
2.6823	3.8503
2.674	4.0446
2.6657	4.0387
2.6575	4.0247
2.6494	4.0322
2.6413	4.0025
2.6332	3.9533
2.6252	3.9112
2.6173	4.0668
2.6094	4.1401
2.6015	4.065
2.5937	4.1975
2.5859	3.8544
2.5782	4.1889
2.5706	4.0186
2.5629	4.2341
2.5554	3.9494
2.5478	3.9998
2.5403	4.1081
2.5329	4.1513
2.5255	3.9011
2.5181	4.0283
2.5108	4.018
2.5035	4.1771
2.4963	4.0389
2.4891	4.075
2.482	3.9769
2.4749	4.0131
2.4678	4.0766
2.4608	4.306
2.4538	4.0703
2.4468	4.0521
2.4399	4.1103
2.4331	4.1428
2.4262	4.0761
2.4194	4.1537
2.4127	4.1175
2.4059	4.2774
2.3993	4.0451
2.3926	3.8496
2.386	4.1563
2.3795	4.0566
2.3729	4.1346
2.3664	4.0262
2.36	4.2703
2.3535	4.2158
2.3471	4.1653
2.3408	4.0248
2.3345	4.1668
2.3282	4.3304
2.3219	4.2152
2.3157	3.9775
2.3095	3.9875
2.3034	4.0858
2.2972	4.2187
2.2911	4.2707
2.2851	4.2815
2.279	4.273
2.2731	4.2623
2.2671	4.3262
2.2612	4.2975
2.2553	4.0358
2.2494	4.1433
2.2435	4.1835
2.2377	4.2223
2.232	4.4388
2.2262	4.3313
2.2205	4.2602
2.2148	4.4448
2.2091	4.011
2.2035	4.1661
2.1979	3.9937
2.1923	4.2043
2.1868	4.2021
2.1812	3.8965
2.1758	4.4248
2.1703	4.174
2.1649	4.0051
2.1595	3.8769
2.1541	4.2223
2.1487	3.7787
2.1434	4.2095
2.1381	4.48
2.1328	4.1983
2.1275	4.2279
2.1223	3.9974
2.1171	4.033
2.112	4.0263
2.1068	4.0236
2.1017	4.2353
2.0966	4.2204
2.0915	3.5646
2.0865	4.283
2.0814	3.8845
2.0764	3.8992
2.0715	3.9594
2.0665	3.9255
2.0616	4.2812
2.0567	4.389
2.0518	4.397
2.0469	4.0929
2.0421	4.2376
2.0373	4.2693
2.0325	4.0639
2.0277	3.9047
2.0229	4.1217
2.0182	4.6928
2.0135	4.0731
2.0088	3.9193
2.0042	4.3906
