Name: Magnesiochromite MgCr_2O_4
Type: Mineral
Class: Oxide
Subclass: None
Particle Size: Coarse
Sample No.: O-8A
Owner: JPL
Wavelength Range: VSWIR
Origin: Canada, Quebec, Coleraine Township.
Description: Particle size was 125-500um.Collected by:  Ward's Original ASTER Spectral Library name was jpl.perkin.mineral.oxide.none.coarse.o08a.spectrum.txt
Measurement: Hemispherical reflectance
X Units: Wavelength (micrometers)
Y Units: Reflectance (percent)
wavelength	value
2.5	3.4958
2.494	3.4864
2.488	3.7347
2.482	3.637
2.476	3.5973
2.47	3.6544
2.464	3.5962
2.458	3.6821
2.452	3.649
2.446	3.7447
2.44	3.6793
2.434	3.6416
2.428	3.7975
2.422	3.7368
2.416	3.77
2.41	3.7748
2.404	3.713
2.398	3.7181
2.392	3.8103
2.386	3.7882
2.38	3.8036
2.374	3.7776
2.368	3.7401
2.362	3.7637
2.356	3.7396
2.35	3.7541
2.344	3.7634
2.338	3.7799
2.332	3.7626
2.326	3.721
2.32	3.7226
2.314	3.7073
2.308	3.771
2.302	3.7144
2.296	3.7409
2.29	3.7473
2.284	3.7695
2.278	3.8273
2.272	3.7758
2.266	3.8085
2.26	3.802
2.254	3.83
2.248	3.788
2.242	3.8169
2.236	3.8229
2.23	3.8685
2.224	3.8397
2.218	3.8363
2.212	3.9945
2.206	3.8229
2.2	3.947
2.194	3.9932
2.188	3.8701
2.182	3.982
2.176	3.9272
2.17	3.8571
2.164	3.9357
2.158	3.9732
2.152	3.9306
2.146	3.9501
2.14	3.9455
2.134	3.8673
2.128	3.9099
2.122	3.8977
2.116	3.914
2.11	3.9046
2.104	3.8855
2.098	3.8138
2.092	3.8626
2.086	3.8354
2.08	3.8566
2.074	3.8249
2.068	3.8473
2.062	3.8713
2.056	3.8672
2.05	3.833
2.044	3.8041
2.038	3.804
2.032	3.7867
2.026	3.8631
2.02	3.7803
2.014	3.774
2.008	3.7167
2.002	3.8601
1.996	3.774
1.99	3.7186
1.984	3.7522
1.978	3.7772
1.972	3.7753
1.966	3.7693
1.96	3.8403
1.954	3.9024
1.948	3.7769
1.942	3.7809
1.936	3.744
1.93	3.7489
1.924	3.8338
1.918	3.8651
1.912	3.8138
1.906	3.8909
1.9	3.9041
1.894	3.7426
1.888	3.8336
1.882	3.9048
1.876	3.9008
1.87	3.8756
1.864	3.9473
1.858	3.9048
1.852	3.8769
1.846	3.9316
1.84	3.9117
1.834	3.91
1.828	3.9573
1.822	4.0102
1.816	3.9342
1.81	3.9726
1.804	3.9782
1.798	3.9844
1.792	4.0126
1.786	3.9932
1.78	4.0269
1.774	4.0391
1.768	4.038
1.762	4.0492
1.756	4.0927
1.75	4.0628
1.744	4.1664
1.738	4.1155
1.732	4.0925
1.726	4.1622
1.72	4.1658
1.714	4.1562
1.708	4.2084
1.702	4.2941
1.696	4.195
1.69	4.2355
1.684	4.2168
1.678	4.3394
1.672	4.3268
1.666	4.3182
1.66	4.3875
1.654	4.3734
1.648	4.2414
1.642	4.4555
1.636	4.4346
1.63	4.3236
1.624	4.4332
1.618	4.4555
1.612	4.4249
1.606	4.5749
1.6	4.4942
1.594	4.5339
1.588	4.5434
1.582	4.6159
1.576	4.513
1.57	4.6737
1.564	4.6728
1.558	4.6634
1.552	4.7206
1.546	4.7047
1.54	4.7096
1.534	4.7774
1.528	4.8708
1.522	4.8089
1.516	4.877
1.51	4.8926
1.504	4.9046
1.498	4.9457
1.492	4.9811
1.486	4.9706
1.48	4.9272
1.474	5.0161
1.468	5.0112
1.462	5.0387
1.456	5.0565
1.45	5.0251
1.444	5.0267
1.438	4.9927
1.432	5.0141
1.426	5.0251
1.42	5.0328
1.414	4.9811
1.408	4.9596
1.402	4.9776
1.396	4.9681
1.39	4.8337
1.384	4.8272
1.378	4.9718
1.372	4.9643
1.366	4.8921
1.36	4.9666
1.354	4.9298
1.348	4.9029
1.342	4.8982
1.336	4.9767
1.33	4.9344
1.324	4.8309
1.318	4.8077
1.312	4.8302
1.306	4.8056
1.3	4.8218
1.294	4.7629
1.288	4.7846
1.282	4.8132
1.276	4.8216
1.27	4.8078
1.264	4.8153
1.258	4.7824
1.252	4.8738
1.246	4.8031
1.24	4.842
1.234	4.8167
1.228	4.7926
1.222	4.8119
1.216	4.8696
1.21	4.8223
1.204	4.8174
1.198	4.8428
1.192	4.8576
1.186	4.8742
1.18	4.903
1.174	4.8348
1.168	4.851
1.162	4.92
1.156	4.8573
1.15	4.8712
1.144	4.8743
1.138	4.9416
1.132	4.8896
1.126	4.8984
1.12	4.8344
1.114	4.8962
1.108	4.8529
1.102	4.9045
1.096	4.9005
1.09	4.8352
1.084	4.926
1.078	4.849
1.072	4.9437
1.066	4.9741
1.06	4.893
1.054	4.9045
1.048	4.8111
1.042	4.832
1.036	4.84
1.03	4.9195
1.024	4.8561
1.018	4.8484
1.012	4.817
1.006	4.7353
1	4.7682
0.994	4.7953
0.988	4.7529
0.982	4.7518
0.976	4.8185
0.97	4.7236
0.964	4.7459
0.958	4.7627
0.952	4.7858
0.946	4.781
0.94	4.7901
0.934	4.6721
0.928	4.7256
0.922	4.7441
0.916	4.774
0.91	4.7792
0.904	4.7466
0.898	4.7478
0.892	4.7828
0.886	4.7505
0.88	4.7346
0.874	4.7554
0.868	4.7771
0.862	4.766
0.856	5.0747
0.85	5.0779
0.844	5.0754
0.838	5.0749
0.832	5.0751
0.826	5.0768
0.82	5.0741
0.814	5.0764
0.808	5.081
0.802	5.0753
0.796	5.0788
0.79	5.068
0.784	5.0716
0.778	5.0665
0.772	5.0603
0.766	5.0624
0.76	5.0633
0.754	5.0546
0.748	5.0584
0.742	5.0522
0.736	5.0529
0.73	5.0511
0.724	5.0482
0.718	5.0495
0.712	5.047
0.706	5.0482
0.7	5.0488
0.694	5.0499
0.688	5.0584
0.682	5.0665
0.676	5.0743
0.67	5.0812
0.664	5.0917
0.658	5.1071
0.652	5.123
0.646	5.1388
0.64	5.1523
0.634	5.163
0.628	5.1649
0.622	5.1656
0.616	5.1616
0.61	5.1594
0.604	5.1596
0.598	5.1628
0.592	5.1724
0.586	5.18
0.58	5.1897
0.574	5.2032
0.568	5.2138
0.562	5.2328
0.556	5.2547
0.55	5.2739
0.544	5.2969
0.538	5.3183
0.532	5.338
0.526	5.3595
0.52	5.3781
0.514	5.3956
0.508	5.4153
0.502	5.4334
0.496	5.4534
0.49	5.4771
0.484	5.4921
0.478	5.5026
0.472	5.515
0.466	5.53
0.46	5.555
0.454	5.5774
0.448	5.5999
0.442	5.6258
0.436	5.6422
0.43	5.6626
0.424	5.6863
0.418	5.7119
0.412	5.7443
0.406	5.7857
0.4	5.8385
