Name: Montmorillonite (Na,Ca)_0.33(Al,Mg)_2Si_4O_10(OH)_2.H_2O
Type: Mineral
Class: Silicate
Subclass: Phyllosilicate
Particle Size: Fine
Sample No.: PS-2B
Owner: JPL
Wavelength Range: TIR
Origin: USA, Texas, Gonzales County
Description: Particle size was 0-45um.Collected by Clay Mineral Society Original ASTER Spectral Library name was jpl.nicolet.mineral.silicate.phyllosilicate.fine.ps02b.spectrum.txt
Measurement: Hemispherical reflectance
X Units: Wavelength (micrometers)
Y Units: Reflectance (percent)
wavelength	value
15.3853	0.4372
15.1161	0.4507
14.8563	0.6473
14.6052	0.8152
14.3624	0.6118
14.1276	0.6861
13.9004	1.0615
13.6803	1.1067
13.4671	0.917
13.2604	1.3036
13.06	1.4206
12.8656	1.2275
12.6769	1.0755
12.4936	1.0391
12.3155	1.4287
12.1425	1.6054
11.9742	1.6426
11.8106	1.2922
11.6513	1.9086
11.4963	2.4053
11.3454	2.5474
11.1983	2.4296
11.0551	1.8959
10.9154	1.5796
10.7793	1.6961
10.6465	2.5763
10.5169	2.9347
10.3904	2.9854
10.267	3.0594
10.1464	2.7737
10.0287	2.5024
9.9136	2.7679
9.8012	2.71
9.6913	3.1749
9.5838	3.8181
9.4787	4.1662
9.3758	4.047
9.2752	3.6667
9.1767	3.0609
9.0803	2.2505
8.9858	2.0562
8.8934	2.2095
8.8028	2.0505
8.714	1.5747
8.627	1.3134
8.5417	1.1524
8.4581	1.161
8.3761	0.8457
8.2957	0.7618
8.2169	0.4983
8.1395	0.6367
8.0635	0.6715
7.989	0.5605
7.9158	0.687
7.8439	0.692
7.7734	0.6468
7.7041	0.681
7.636	0.7477
7.5691	0.9527
7.5034	1.0912
7.4388	1.2494
7.3753	1.4134
7.3129	1.7313
7.2515	1.8363
7.1912	2.1128
7.1318	2.5343
7.0734	2.6993
7.016	2.8319
6.9595	3.1457
6.9039	3.4754
6.8492	3.7911
6.7953	4.0221
6.7423	4.3548
6.6901	4.6134
6.6387	4.8943
6.5881	5.218
6.5382	5.266
6.4892	5.4966
6.4408	5.4059
6.3931	5.1615
6.3462	4.664
6.2999	3.8892
6.2543	2.7568
6.2094	1.7889
6.1651	1.0388
6.1214	0.8538
6.0784	0.8198
6.0359	1.0221
5.994	1.2505
5.9527	1.8041
5.912	2.609
5.8718	3.9127
5.8322	5.2232
5.7931	6.5322
5.7545	7.9512
5.7165	9.1482
5.6789	10.1472
5.6418	11.1645
5.6052	11.5876
5.5691	11.6152
5.5334	11.4488
5.4982	10.9282
5.4635	10.4952
5.4291	10.2169
5.3952	10.2123
5.3618	10.1364
5.3287	10.3193
5.2961	10.908
5.2638	11.8269
5.2319	12.9099
5.2004	13.5817
5.1693	13.9711
5.1386	14.1537
5.1082	14.2658
5.0782	14.5564
5.0485	14.6496
5.0192	14.9988
4.9902	15.3377
4.9616	15.743
4.9332	16.5028
4.9052	17.4053
4.8776	18.3265
4.8502	19.0685
4.8231	19.5942
4.7963	20.0701
4.7699	20.5817
4.7437	20.9546
4.7178	21.3526
4.6922	21.6292
4.6668	21.9388
4.6418	22.2128
4.617	22.7011
4.5924	23.036
4.5681	23.5394
4.5441	24.0356
4.5203	24.4774
4.4968	24.925
4.4735	25.4421
4.4505	25.9619
4.4277	26.4219
4.4051	26.9795
4.3828	27.6161
4.3607	28.307
4.3388	28.9962
4.3171	29.9081
4.2956	31.029
4.2744	31.7624
4.2534	32.5439
4.2325	33.751
4.2119	34.1671
4.1915	34.8439
4.1712	35.6377
4.1512	36.6105
4.1313	37.3807
4.1117	38.3455
4.0922	39.1367
4.0729	39.9931
4.0538	40.8025
4.0349	41.6805
4.0161	42.4011
3.9976	43.1449
3.9792	43.6714
3.9609	44.3096
3.9428	44.7715
3.9249	45.154
3.9072	45.5155
3.8896	45.6947
3.8722	45.8052
3.8549	45.9305
3.8378	45.7282
3.8208	45.6887
3.804	45.3429
3.7873	45.0385
3.7708	44.5129
3.7544	43.9463
3.7382	43.2858
3.7221	42.6325
3.7061	42.0112
3.6903	41.0575
3.6746	40.4039
3.659	39.6233
3.6436	38.6425
3.6283	37.6521
3.6131	36.5608
3.5981	35.5354
3.5832	34.4191
3.5684	33.1536
3.5537	31.9312
3.5391	30.6692
3.5247	29.3389
3.5104	27.993
3.4962	26.7074
3.4821	25.4903
3.4681	24.3033
3.4543	22.9921
3.4405	21.6305
3.4269	20.2921
3.4133	18.989
3.3999	18.0786
3.3866	16.7416
3.3733	15.7391
3.3602	14.5912
3.3472	13.4789
3.3343	12.5572
3.3215	11.5966
3.3088	10.6951
3.2961	9.8738
3.2836	9.0978
3.2712	8.2522
3.2588	7.6712
3.2466	7.0723
3.2345	6.5568
3.2224	5.8272
3.2104	5.2661
3.1985	4.8134
3.1867	4.3356
3.175	4.1464
3.1634	3.7413
3.1519	3.3617
3.1404	3.0418
3.129	2.9128
3.1178	2.6711
3.1065	2.2691
3.0954	2.3099
3.0844	2.1796
3.0734	2.1174
3.0625	2.0981
3.0517	2.2865
3.041	2.1237
3.0303	2.1112
3.0197	1.9676
3.0092	1.9952
2.9987	1.7522
2.9884	1.6151
2.9781	1.5287
2.9678	1.6
2.9577	1.5756
2.9476	1.4516
2.9376	1.2838
2.9276	1.286
2.9177	1.4695
2.9079	1.2735
2.8982	1.4735
2.8885	1.4667
2.8789	1.514
2.8693	1.5641
2.8598	1.6048
2.8504	1.7431
2.841	1.5696
2.8317	1.8325
2.8224	1.8028
2.8133	1.9887
2.8041	1.6123
2.7951	1.7179
2.786	1.8481
2.7771	1.233
2.7682	1.1592
2.7594	0.9468
2.7506	0.9975
2.7418	1.1312
2.7332	1.3096
2.7246	2.043
2.716	3.4381
2.7075	5.678
2.699	9.8386
2.6906	15.3544
2.6823	20.1417
2.674	23.6063
2.6657	27.1154
2.6575	29.1464
2.6494	31.0262
2.6413	32.5387
2.6332	34.1463
2.6252	35.3802
2.6173	36.3221
2.6094	37.0917
2.6015	37.5882
2.5937	38.4373
2.5859	38.5656
2.5782	38.9368
2.5706	38.9566
2.5629	39.1617
2.5554	39.2373
2.5478	39.2233
2.5403	39.3751
2.5329	39.7006
2.5255	40.0041
2.5181	40.4367
2.5108	40.9882
2.5035	41.7455
2.4963	42.3025
2.4891	43.2282
2.482	43.8625
2.4749	44.4964
2.4678	44.9887
2.4608	45.4996
2.4538	46.2072
2.4468	46.9644
2.4399	47.9126
2.4331	48.9019
2.4262	49.8778
2.4194	50.5526
2.4127	51.2977
2.4059	52.2121
2.3993	53.1744
2.3926	53.9483
2.386	54.7792
2.3795	55.7445
2.3729	56.3474
2.3664	57.1307
2.36	58.0328
2.3535	58.9116
2.3471	59.9009
2.3408	61.0126
2.3345	62.0563
2.3282	62.9076
2.3219	63.6355
2.3157	64.2521
2.3095	64.6456
2.3034	65.321
2.2972	65.8344
2.2911	66.8216
2.2851	67.3088
2.279	68.1877
2.2731	68.6273
2.2671	69.0097
2.2612	69.2988
2.2553	69.0772
2.2494	68.67
2.2435	68.1041
2.2377	67.3271
2.232	66.1092
2.2262	64.5317
2.2205	62.1307
2.2148	59.0254
2.2091	57.8366
2.2035	59.3516
2.1979	62.543
2.1923	65.5871
2.1868	68.1357
2.1812	69.8039
2.1758	71.1835
2.1703	72.4121
2.1649	73.1364
2.1595	73.5136
2.1541	73.5455
2.1487	73.5731
2.1434	73.6762
2.1381	73.985
2.1328	73.9648
2.1275	73.8774
2.1223	73.6142
2.1171	73.673
2.112	73.0768
2.1068	73.1008
2.1017	72.7311
2.0966	72.4078
2.0915	72.4702
2.0865	72.307
2.0814	72.2061
2.0764	72.2803
2.0715	72.0206
2.0665	72.1413
2.0616	71.7778
2.0567	71.3947
2.0518	71.138
2.0469	70.5962
2.0421	70.4316
2.0373	69.5324
2.0325	68.8351
2.0277	68.7378
2.0229	68.0381
2.0182	67.0018
2.0135	66.2553
2.0088	65.6589
2.0042	64.7871
