Name: Spodumene LiAlS_2O_6
Type: Mineral
Class: Silicate
Subclass: Inosilicate
Particle Size: Medium
Sample No.: IN-13A
Owner: JPL
Wavelength Range: VSWIR
Origin: Brazil, Minas Gerais
Description: Particle size was 45-125um.Collected by Ward's Original ASTER Spectral Library name was jpl.beckman.mineral.silicate.inosilicate.medium.in13a.spectrum.txt
Measurement: Hemispherical reflectance
X Units: Wavelength (micrometers)
Y Units: Reflectance (percent)
wavelength	value
0.4	69.24
0.403	69.52
0.406	69.78
0.409	69.96
0.412	70.15
0.415	70.29
0.418	70.47
0.421	70.77
0.424	70.87
0.427	71.05
0.43	71.26
0.433	71.42
0.436	71.79
0.439	71.91
0.442	72.13
0.445	72.25
0.448	72.29
0.451	72.54
0.454	72.66
0.457	72.7
0.46	72.85
0.463	72.98
0.466	73.09
0.469	73.15
0.472	73.07
0.475	73.33
0.478	73.42
0.481	73.54
0.484	73.48
0.487	73.45
0.49	73.54
0.493	73.65
0.496	73.58
0.499	73.61
0.502	73.59
0.505	73.48
0.508	73.47
0.511	73.47
0.514	73.43
0.517	73.23
0.52	73.43
0.523	73.37
0.526	73.35
0.529	73.47
0.532	73.42
0.535	73.51
0.538	73.72
0.541	73.78
0.544	73.86
0.547	74.1
0.55	74.42
0.553	74.65
0.556	74.88
0.559	75.07
0.562	75.65
0.565	75.94
0.568	76.17
0.571	76.28
0.574	76.48
0.577	76.7
0.58	76.85
0.583	76.96
0.586	77.16
0.589	77.49
0.592	77.64
0.595	77.74
0.598	77.92
0.601	77.95
0.604	78.27
0.607	78.32
0.61	78.33
0.613	78.44
0.616	78.5
0.619	78.49
0.622	78.57
0.625	78.51
0.628	78.67
0.631	78.65
0.634	78.78
0.637	78.82
0.64	78.71
0.643	78.92
0.646	78.87
0.649	78.99
0.652	79.02
0.655	79.12
0.658	79.18
0.661	79.25
0.664	79.25
0.667	79.32
0.67	79.31
0.673	79.34
0.676	79.37
0.679	79.5
0.682	79.54
0.685	79.55
0.688	79.73
0.691	79.75
0.694	79.78
0.697	79.89
0.7	79.81
0.703	80.03
0.706	80.08
0.709	80.05
0.712	80.1
0.715	80
0.718	80.11
0.721	80.21
0.724	80.18
0.727	80.24
0.73	80.35
0.733	80.22
0.736	80.34
0.739	80.31
0.742	80.26
0.745	80.33
0.748	80.38
0.751	80.5
0.754	80.65
0.757	80.53
0.76	80.63
0.763	80.55
0.766	80.63
0.769	80.65
0.772	80.73
0.775	80.8
0.778	80.75
0.781	80.82
0.784	80.81
0.787	80.8
0.79	80.82
0.793	80.8
0.796	80.81
0.799	80.72
0.808	80.74
0.82	80.78
0.832	80.84
0.844	81
0.856	81.02
0.868	81.23
0.88	81.36
0.892	81.48
0.904	81.48
0.916	81.52
0.928	81.62
0.94	81.76
0.952	81.92
0.964	82
0.976	82.01
0.988	82.1
1	82.16
1.012	82.21
1.024	82.33
1.036	82.42
1.048	82.42
1.06	82.53
1.072	82.62
1.084	82.6
1.096	82.67
1.108	82.79
1.12	82.84
1.132	82.84
1.144	82.83
1.156	82.8
1.168	82.85
1.18	82.92
1.192	82.87
1.204	82.93
1.216	82.9
1.228	82.96
1.24	83.01
1.252	82.97
1.264	82.98
1.276	83.02
1.288	83.19
1.3	82.96
1.312	82.98
1.324	82.93
1.336	82.9
1.348	82.83
1.36	82.76
1.372	82.54
1.384	81.96
1.396	82.06
1.408	81.62
1.42	82.37
1.432	82.7
1.444	82.78
1.456	82.78
1.468	82.92
1.48	82.92
1.492	83.11
1.504	83.05
1.516	83.13
1.528	83.14
1.54	83.33
1.552	83.33
1.564	83.34
1.576	83.38
1.588	83.31
1.6	83.43
1.612	83.45
1.624	83.48
1.636	83.39
1.648	83.41
1.66	83.46
1.672	83.39
1.684	83.44
1.696	83.46
1.708	83.46
1.72	83.56
1.732	83.45
1.744	83.39
1.756	83.32
1.768	83.39
1.78	83.26
1.792	83.26
1.804	83.29
1.816	83.33
1.828	83.22
1.84	83.24
1.852	83.25
1.864	83.07
1.876	82.85
1.888	82.44
1.9	81.85
1.912	81.59
1.924	81.77
1.936	81.96
1.948	82.05
1.96	82.2
1.972	82.34
1.984	82.52
1.996	82.88
2.008	82.99
2.02	83.1
2.032	83.25
2.044	83.24
2.056	83.18
2.068	83.17
2.08	83.22
2.092	83.15
2.104	83.28
2.116	83.37
2.128	83.33
2.14	82.83
2.152	82.23
2.164	81.94
2.176	81.61
2.188	81.19
2.2	80.68
2.212	81.2
2.224	81.91
2.236	82.21
2.248	82.27
2.26	82.28
2.272	82.35
2.284	82.16
2.296	82.09
2.308	81.91
2.32	81.95
2.332	81.91
2.344	81.8
2.356	81.67
2.368	81.33
2.38	81.22
2.392	81.16
2.404	81.16
2.416	80.98
2.428	80.75
2.44	80.45
2.452	80.23
2.464	80.07
2.476	79.91
2.488	80.07
2.5	80.3
