Name: Cordierite Mg2Al4Si5O18
Type: Mineral
Class: Silicate
Subclass: Cyclosilicate
Particle Size: Coarse
Sample No.: cordier_2
Owner: JHU
Wavelength Range: TIR
Origin: Sample from Orijarvi, Finland via the Smithsonian  (sampleno. NMNH 78228).
Description: The sample consists of three pieces, each about 2 cm x 4 cm x 1 cm.  There are some heterogeneities in color, but the samples are predominantly blue-gray.  They appear fairly pure, but do have a few veins with discoloration along them.  Under the petrographic microscope all samples appear to be cordierite, but grains have a small amount of alteration and some microcrystalline inclusions. Particle size was 74-250 Micrometers.(Ring Silicates) Original ASTER Spectral Library name was jhu.nicolet.mineral.silicate.cyclosilicate.coarse.cordie2.spectrum.txt
Measurement: Bidirectional reflectance
X Units: Wavelength (micrometers)
Y Units: Reflectance (percent)
wavelength	value
25.0442	7.937
24.3388	8.456
23.6719	7.8852
23.0407	4.4819
22.4422	5.5998
21.8741	5.468
21.334	5.2129
20.8199	6.4143
20.33	6.2431
19.8627	4.416
19.4163	2.2891
18.9896	1.762
18.5812	2.1396
18.19	2.4448
17.815	2.9775
17.4551	3.0244
17.1094	3.3921
16.7772	2.4993
16.4576	2.2805
16.15	2.5835
15.8537	2.2212
15.568	2.1301
15.2925	2.2676
15.0265	2.4145
14.7697	2.5264
14.5214	2.2864
14.2814	2.4409
14.0492	2.4646
13.8244	2.6272
13.6067	2.8613
13.3957	3.2314
13.1912	3.5803
12.9929	4.8511
12.8004	4.5002
12.6135	3.1672
12.432	1.8186
12.2557	1.9311
12.0843	2.1248
11.9176	2.3237
11.7555	2.5222
11.5977	2.7136
11.444	2.9534
11.2944	3.2842
11.1487	3.8774
11.0067	4.5012
10.8682	3.8867
10.7332	4.1306
10.6015	6.0386
10.473	8.2297
10.3476	9.3716
10.2251	9.4404
10.1056	9.0288
9.9887	6.3928
9.8746	4.7483
9.763	4.6457
9.6539	4.3733
9.5472	4.291
9.4429	4.2524
9.3408	3.9719
9.2409	3.6064
9.1431	3.2573
9.0474	3.0408
8.9536	3.0102
8.8618	3.2063
8.7718	3.6172
8.6837	3.1497
8.5973	3.9365
8.5126	4.9521
8.4295	5.9736
8.3481	6.4997
8.2682	7.0805
8.1898	7.4214
8.1129	6.6806
8.0374	4.9753
7.9634	3.5022
7.8906	2.3325
7.8192	1.3286
7.7491	0.6655
7.6802	0.5334
7.6126	0.5974
7.5461	0.677
7.4807	0.7598
7.4165	0.8242
7.3534	0.8667
7.2914	0.9104
7.2303	0.9514
7.1703	0.9907
7.1113	1.0415
7.0533	1.0676
6.9962	1.1001
6.94	1.1245
6.8847	1.1311
6.8302	1.1062
6.7767	1.124
6.7239	1.1592
6.672	1.1855
6.6209	1.217
6.5705	1.2573
6.5209	1.2949
6.4721	1.2444
6.424	1.2046
6.3766	1.1653
6.3299	1.2046
6.2838	1.2144
6.2385	1.1992
6.1937	1.2424
6.1496	1.1724
6.1062	1.1321
6.0633	1.2217
6.0211	1.312
5.9794	1.3809
5.9383	1.4219
5.8978	1.4485
5.8578	1.4895
5.8184	1.4983
5.7794	1.5342
5.741	1.595
5.7031	1.6743
5.6657	1.7305
5.6288	1.8069
5.5924	1.8982
5.5564	1.9431
5.5209	1.9578
5.4859	1.9092
5.4513	1.8076
5.4171	1.751
5.3833	1.6648
5.35	1.5676
5.3171	1.5466
5.2846	1.5579
5.2524	1.5832
5.2207	1.6428
5.1893	1.7488
5.1584	1.9414
5.1277	2.1995
5.0975	2.4397
5.0676	2.7158
5.038	3.0381
5.0088	3.2561
4.98	3.4255
4.9514	3.8149
4.9232	4.1333
4.8953	4.385
4.8678	4.5784
4.8405	4.7395
4.8135	4.8357
4.7868	4.8943
4.7605	4.9578
4.7344	5.0954
4.7086	5.2898
4.6831	5.3603
4.6578	5.5168
4.6328	5.5959
4.6081	5.6255
4.5837	5.7139
4.5595	5.9035
4.5356	6.112
4.5119	6.1816
4.4884	6.0388
4.4652	5.6421
4.4423	5.7641
4.4196	5.9045
4.3971	5.8545
4.3748	5.2117
4.3528	5.1528
4.331	3.8652
4.3094	4.7749
4.288	3.5574
4.2668	2.5679
4.2458	3.0351
4.2251	5.6531
4.2045	5.3091
4.1841	3.9902
4.164	6.499
4.144	7.3767
4.1242	7.5622
4.1046	7.5063
4.0852	7.5012
4.066	7.4067
4.047	7.78
4.0281	7.9201
4.0094	8.0032
3.9909	8.0515
3.9725	8.0774
3.9544	8.1147
3.9363	8.1338
3.9185	8.1577
3.9008	8.1802
3.8833	8.1731
3.8659	8.1589
3.8487	8.1172
3.8316	8.0781
3.8147	8.0595
3.7979	8.1123
3.7813	8.1013
3.7648	8.0779
3.7485	8.0356
3.7323	7.9836
3.7162	7.9485
3.7003	7.8799
3.6845	7.8247
3.6689	7.7868
3.6534	7.7397
3.638	7.6887
3.6227	7.6203
3.6076	7.5649
3.5926	7.4848
3.5777	7.3984
3.563	7.3056
3.5484	7.2263
3.5338	7.1618
3.5195	7.071
3.5052	6.9697
3.491	6.8762
3.477	6.8013
3.463	6.7261
3.4492	6.6355
3.4355	6.5415
3.4219	6.4248
3.4084	6.334
3.395	6.2488
3.3817	6.1318
3.3685	6.0237
3.3554	5.9089
3.3425	5.7939
3.3296	5.685
3.3168	5.5615
3.3041	5.4424
3.2915	5.3347
3.279	5.2182
3.2666	5.0911
3.2543	4.9958
3.2421	4.8782
3.23	4.7568
3.218	4.6103
3.206	4.4619
3.1942	4.3215
3.1824	4.1853
3.1707	4.0276
3.1591	3.8935
3.1476	3.7729
3.1362	3.6335
3.1249	3.5146
3.1136	3.387
3.1024	3.2383
3.0913	3.0517
3.0803	2.9167
3.0694	2.8994
3.0585	2.8577
3.0477	2.7927
3.037	2.7207
3.0264	2.6377
3.0158	2.5503
3.0053	2.4905
2.9949	2.4128
2.9845	2.3486
2.9743	2.2956
2.9641	2.2158
2.9539	2.1704
2.9439	2.0977
2.9339	2.0598
2.9239	1.9841
2.9141	1.9375
2.9043	1.8826
2.8946	1.8186
2.8849	1.7561
2.8753	1.7012
2.8658	1.6558
2.8563	1.5947
2.8469	1.5217
2.8375	1.4504
2.8282	1.4011
2.819	1.3113
2.8098	1.2317
2.8007	1.1042
2.7917	1.095
2.7827	1.1768
2.7738	1.2195
2.7649	1.1414
2.7561	1.0913
2.7473	1.0981
2.7386	1.1184
2.7299	1.179
2.7213	1.1238
2.7128	1.0435
2.7043	1.1084
2.6959	1.314
2.6875	2.2292
2.6791	2.9812
2.6709	3.4412
2.6626	3.7551
2.6545	3.9368
2.6463	4.02
2.6382	4.1582
2.6302	4.2551
2.6222	4.2588
2.6143	4.3418
2.6064	4.4067
2.5986	4.4822
2.5908	4.5596
2.583	4.5871
2.5753	4.7207
2.5677	4.8559
2.5601	5.0188
2.5525	5.1313
2.545	5.2898
2.5375	5.5571
2.5301	5.8501
2.5227	6.0542
2.5154	6.3076
2.5081	6.4868
2.5008	6.7114
2.4936	6.8606
2.4864	7.0317
2.4793	7.1592
2.4722	7.2744
2.4651	7.3406
2.4581	7.4507
2.4511	7.5151
2.4442	7.593
2.4373	7.6797
2.4305	7.8105
2.4236	7.8647
2.4169	7.9531
2.4101	8.0359
2.4034	8.0556
2.3967	8.0332
2.3901	8.0005
2.3835	8.0029
2.377	8.0005
2.3704	8.0058
2.364	7.9682
2.3575	7.957
2.3511	7.9194
2.3447	7.9201
2.3384	7.9873
2.3321	7.9531
2.3258	7.9814
2.3195	8.0615
2.3133	8.1228
2.3071	8.1404
2.301	8.2605
2.2949	8.2783
2.2888	8.333
2.2828	8.3237
2.2767	8.3896
2.2708	8.3449
2.2648	8.3042
2.2589	8.2666
2.253	8.2488
2.2471	8.2319
2.2413	8.311
2.2355	8.3745
2.2297	8.3887
2.224	8.3877
2.2183	8.333
2.2126	8.1748
2.207	8.1125
2.2013	8.2483
2.1957	8.3362
2.1902	8.3938
2.1846	8.498
2.1791	8.5285
2.1736	8.5669
2.1682	8.5967
2.1628	8.7688
2.1574	8.8696
2.152	8.9912
2.1466	9.0405
2.1413	9.1474
2.136	9.1692
2.1308	9.2109
2.1255	9.2629
2.1203	9.259
2.1151	9.3108
2.11	9.2954
2.1048	9.3303
2.0997	9.2932
2.0946	9.3779
2.0895	9.3664
2.0845	9.3459
2.0795	9.4502
