Name: Lepidolite K(Li,Al)3(Si,Al)_4O_10(F,OH)_2
Type: Mineral
Class: Silicate
Subclass: Phyllosilicate
Particle Size: Coarse
Sample No.: PS-13B
Owner: JPL
Wavelength Range: VSWIR
Origin: South Africa
Description: Lavender lepidolite. Particle size was 125-500um.Collected by Ward's Original ASTER Spectral Library name was jpl.beckman.mineral.silicate.phyllosilicate.coarse.ps13b.spectrum.txt
Measurement: Hemispherical reflectance
X Units: Wavelength (micrometers)
Y Units: Reflectance (percent)
wavelength	value
0.4	48.94
0.403	48.59
0.406	48.65
0.409	48.59
0.412	48.25
0.415	48.53
0.418	48.08
0.421	48.65
0.424	48.31
0.427	48.42
0.43	48.36
0.433	48.13
0.436	48.36
0.439	48.02
0.442	48.25
0.445	47.96
0.448	48.31
0.451	48.02
0.454	48.09
0.457	47.97
0.46	47.97
0.463	47.87
0.466	47.81
0.469	47.41
0.472	47.64
0.475	47.24
0.478	47.36
0.481	47.02
0.484	46.91
0.487	46.85
0.49	46.52
0.493	46.41
0.496	45.84
0.499	45.95
0.502	45.33
0.505	45.16
0.508	44.64
0.511	44.24
0.514	44.01
0.517	43.33
0.52	43.1
0.523	42.35
0.526	42.19
0.529	41.62
0.532	41.33
0.535	40.99
0.538	40.54
0.541	40.48
0.544	39.9
0.547	40.02
0.55	39.67
0.553	39.56
0.556	39.56
0.559	39.5
0.562	39.73
0.565	39.62
0.568	39.9
0.571	40.02
0.574	40.36
0.577	40.54
0.58	40.81
0.583	41.5
0.586	41.67
0.589	42.53
0.592	42.81
0.595	43.68
0.598	44.12
0.601	44.93
0.604	45.61
0.607	46.07
0.61	46.99
0.613	47.44
0.616	48.47
0.619	48.64
0.622	49.38
0.625	50.18
0.628	50.53
0.631	51.32
0.634	51.55
0.637	52.4
0.64	52.52
0.643	52.92
0.646	53.21
0.649	53.44
0.652	53.89
0.655	53.84
0.658	54.35
0.661	54.06
0.664	54.52
0.667	54.4
0.67	54.4
0.673	54.4
0.676	54.29
0.679	54.63
0.682	54.23
0.685	54.58
0.688	54.29
0.691	54.23
0.694	54.23
0.697	54.06
0.7	53.78
0.703	54.12
0.706	53.72
0.709	54
0.712	53.78
0.715	53.84
0.718	53.67
0.721	53.55
0.724	53.61
0.727	53.38
0.73	53.61
0.733	53.21
0.736	53.49
0.739	53.21
0.742	53.38
0.745	53.21
0.748	53.04
0.751	53.38
0.754	53.21
0.757	53.49
0.76	53.04
0.763	53.44
0.766	53.26
0.769	53.44
0.772	53.32
0.775	53.26
0.778	53.61
0.781	53.38
0.784	53.61
0.787	53.38
0.79	53.67
0.793	53.55
0.796	53.84
0.799	54.46
0.808	54.52
0.82	54.86
0.832	54.98
0.844	55.49
0.856	56
0.868	56.69
0.88	57.15
0.892	57.54
0.904	58.06
0.916	58.46
0.928	59.2
0.94	59.72
0.952	59.66
0.964	59.89
0.976	61.43
0.988	62.22
1	62.57
1.012	63.43
1.024	63.94
1.036	64.51
1.048	65.08
1.06	65.53
1.072	66.17
1.084	66.63
1.096	67.25
1.108	67.65
1.12	68.05
1.132	68.63
1.144	68.85
1.156	69.35
1.168	69.73
1.18	70.23
1.192	70.74
1.204	71.06
1.216	71.29
1.228	71.74
1.24	71.64
1.252	72.03
1.264	72.58
1.276	72.74
1.288	72.72
1.3	72.58
1.312	72.28
1.324	72.49
1.336	72.99
1.348	73.48
1.36	73.03
1.372	70.75
1.384	62.32
1.396	48.89
1.408	39.97
1.42	57.51
1.432	71.81
1.444	74.69
1.456	75.89
1.468	76.63
1.48	77.09
1.492	77.49
1.504	77.83
1.516	78.17
1.528	78.57
1.54	78.63
1.552	78.79
1.564	79.08
1.576	79.19
1.588	79.25
1.6	79.6
1.612	79.58
1.624	79.61
1.636	79.77
1.648	79.85
1.66	79.9
1.672	79.82
1.684	80.09
1.696	80.24
1.708	80.17
1.72	80.12
1.732	80.29
1.744	80.29
1.756	80
1.768	79.83
1.78	80.06
1.792	80.06
1.804	79.92
1.816	79.44
1.828	78.58
1.84	78.27
1.852	78.38
1.864	78.29
1.876	77.88
1.888	76.5
1.9	75.35
1.912	75.23
1.924	75.71
1.936	76.15
1.948	76.07
1.96	76.08
1.972	76.02
1.984	76.09
1.996	76.19
2.008	75.99
2.02	76.11
2.032	75.77
2.044	75.36
2.056	74.84
2.068	73.8
2.08	71.98
2.092	69.1
2.104	66.36
2.116	64.66
2.128	63.98
2.14	62.51
2.152	58.39
2.164	50.88
2.176	40.08
2.188	30.89
2.2	30.13
2.212	37.49
2.224	46.62
2.236	52.2
2.248	54.49
2.26	55.33
2.272	55.2
2.284	53.91
2.296	50.67
2.308	46.69
2.32	40.61
2.332	36.51
2.344	34.33
2.356	34.28
2.368	35.13
2.38	35.45
2.392	34.92
2.404	33.15
2.416	30.93
2.428	28.88
2.44	28.04
2.452	28.37
2.464	29.13
2.476	30.34
2.488	31.38
2.5	32.64
