Name: Sepiolite Mg_4Si_6O_15(OH)_2.6H_2O
Type: Mineral
Class: Silicate
Subclass: Phyllosilicate
Particle Size: Coarse
Sample No.: PS-5A
Owner: JPL
Wavelength Range: VSWIR
Origin: USA, Nevada, Two Crows
Description: Particle size was 125-500um.Collected by Clay Mineral Society Original ASTER Spectral Library name was jpl.beckman.mineral.silicate.phyllosilicate.coarse.ps05a.spectrum.txt
Measurement: Hemispherical reflectance
X Units: Wavelength (micrometers)
Y Units: Reflectance (percent)
wavelength	value
0.4	65.39
0.403	65.55
0.406	65.7
0.409	66.13
0.412	66.24
0.415	66.47
0.418	66.75
0.421	66.92
0.424	66.86
0.427	67
0.43	67.24
0.433	67.27
0.436	67.53
0.439	67.74
0.442	67.97
0.445	67.84
0.448	68.01
0.451	68.37
0.454	68.47
0.457	68.72
0.46	68.85
0.463	68.99
0.466	69.12
0.469	69.51
0.472	69.7
0.475	69.84
0.478	70.08
0.481	70.08
0.484	70.23
0.487	70.38
0.49	70.61
0.493	70.91
0.496	70.91
0.499	71.12
0.502	71.28
0.505	71.36
0.508	71.53
0.511	71.82
0.514	72.14
0.517	72.19
0.52	72.29
0.523	72.39
0.526	72.62
0.529	72.65
0.532	73.01
0.535	73.19
0.538	73.23
0.541	73.23
0.544	73.45
0.547	73.62
0.55	73.66
0.553	73.99
0.556	74.17
0.559	74.11
0.562	74.86
0.565	74.94
0.568	74.96
0.571	75.08
0.574	75.05
0.577	75.29
0.58	75.26
0.583	75.42
0.586	75.54
0.589	75.7
0.592	75.95
0.595	75.96
0.598	76.14
0.601	76.09
0.604	76.32
0.607	76.44
0.61	76.54
0.613	76.69
0.616	76.68
0.619	76.81
0.622	76.79
0.625	76.89
0.628	77.05
0.631	76.99
0.634	77.25
0.637	77.25
0.64	77.25
0.643	77.36
0.646	77.49
0.649	77.69
0.652	77.67
0.655	77.72
0.658	77.76
0.661	77.8
0.664	77.85
0.667	78.09
0.67	78.31
0.673	78.25
0.676	78.24
0.679	78.3
0.682	78.33
0.685	78.36
0.688	78.56
0.691	78.6
0.694	78.7
0.697	78.64
0.7	78.69
0.703	78.96
0.706	78.78
0.709	78.91
0.712	78.86
0.715	78.96
0.718	78.91
0.721	78.98
0.724	79.11
0.727	79.08
0.73	79.05
0.733	79.2
0.736	79.05
0.739	79.2
0.742	79.19
0.745	79.4
0.748	79.61
0.751	79.55
0.754	79.43
0.757	79.37
0.76	79.42
0.763	79.45
0.766	79.64
0.769	79.72
0.772	79.77
0.775	79.69
0.778	79.73
0.781	79.59
0.784	79.71
0.787	79.87
0.79	80.1
0.793	79.82
0.796	80.05
0.799	79.99
0.808	79.98
0.82	80.01
0.832	80.17
0.844	80.23
0.856	80.4
0.868	80.39
0.88	80.33
0.892	80.34
0.904	80.43
0.916	80.32
0.928	80.16
0.94	79.14
0.952	79.09
0.964	78.49
0.976	78.93
0.988	79.13
1	79.71
1.012	80.12
1.024	80.41
1.036	80.5
1.048	80.75
1.06	80.7
1.072	80.8
1.084	80.75
1.096	80.64
1.108	80.57
1.12	80.23
1.132	79.36
1.144	76.75
1.156	75.91
1.168	76.33
1.18	77.21
1.192	77.26
1.204	77.71
1.216	77.71
1.228	77.71
1.24	77.82
1.252	77.84
1.264	77.45
1.276	77.4
1.288	76.95
1.3	76.43
1.312	75.13
1.324	73.48
1.336	71.42
1.348	69.64
1.36	68.23
1.372	63.51
1.384	49.54
1.396	50.2
1.408	43.12
1.42	43.64
1.432	44.62
1.444	45.41
1.456	46.98
1.468	48.18
1.48	51.17
1.492	53.82
1.504	55.91
1.516	57.4
1.528	58.51
1.54	59.61
1.552	60.72
1.564	61.68
1.576	62.29
1.588	62.92
1.6	63.41
1.612	63.79
1.624	64.12
1.636	64.44
1.648	64.54
1.66	64.78
1.672	64.76
1.684	64.64
1.696	64.36
1.708	63.62
1.72	62.71
1.732	62.03
1.744	61.18
1.756	60.41
1.768	59.4
1.78	58.58
1.792	58.17
1.804	58.27
1.816	58.29
1.828	57.69
1.84	56.55
1.852	54.01
1.864	48.53
1.876	38.07
1.888	26.48
1.9	17.41
1.912	15.62
1.924	19.56
1.936	24.55
1.948	26.85
1.96	27.58
1.972	28.43
1.984	29.92
1.996	32.3
2.008	34.96
2.02	37.4
2.032	39.41
2.044	40.6
2.056	41.42
2.068	42.15
2.08	42.84
2.092	43.71
2.104	44.48
2.116	45.2
2.128	45.5
2.14	45.45
2.152	45.32
2.164	45.18
2.176	44.72
2.188	44.38
2.2	43.9
2.212	43.09
2.224	42.57
2.236	42.04
2.248	41.43
2.26	39.87
2.272	37.24
2.284	33.87
2.296	30.25
2.308	28.48
2.32	29.64
2.332	30.95
2.344	30.15
2.356	28.02
2.368	25.29
2.38	22.84
2.392	21.53
2.404	20.97
2.416	20.3
2.428	19.74
2.44	19.12
2.452	18.41
2.464	17.49
2.476	16.58
2.488	15.58
2.5	14.65
