Name: Enstatite Mg_2(SiO_3)_2
Type: Mineral
Class: Silicate
Subclass: Inosilicate
Particle Size: Medium
Sample No.: IN-10B
Owner: JPL
Wavelength Range: VSWIR
Origin: Norway, Telemark
Description: Particle size was 45-125um.Collected by Burminco Original ASTER Spectral Library name was jpl.beckman.mineral.silicate.inosilicate.medium.in10b.spectrum.txt
Measurement: Hemispherical reflectance
X Units: Wavelength (micrometers)
Y Units: Reflectance (percent)
wavelength	value
0.4	27.4
0.403	28.39
0.406	28.87
0.409	29.18
0.412	29.71
0.415	30.13
0.418	30.35
0.421	30.39
0.424	30.27
0.427	30.4
0.43	31.19
0.433	31.77
0.436	32.2
0.439	32.38
0.442	32.38
0.445	32.42
0.448	32.64
0.451	32.82
0.454	33.04
0.457	33.3
0.46	33.44
0.463	33.61
0.466	33.81
0.469	33.9
0.472	34.24
0.475	34.56
0.478	34.72
0.481	34.91
0.484	35.22
0.487	35.48
0.49	35.87
0.493	35.98
0.496	36.27
0.499	36.12
0.502	35.38
0.505	34.62
0.508	36.77
0.511	37.37
0.514	37.64
0.517	37.98
0.52	38.05
0.523	38.07
0.526	38.17
0.529	38.43
0.532	38.29
0.535	38.26
0.538	37.95
0.541	37.76
0.544	37.57
0.547	37.63
0.55	38.06
0.553	38.49
0.556	38.7
0.559	38.85
0.562	39.33
0.565	39.53
0.568	39.47
0.571	39.64
0.574	39.6
0.577	39.78
0.58	39.91
0.583	40.06
0.586	39.98
0.589	40.12
0.592	40.35
0.595	40.33
0.598	40.37
0.601	40.65
0.604	40.51
0.607	40.56
0.61	40.62
0.613	40.87
0.616	40.88
0.619	41.01
0.622	41.08
0.625	41.08
0.628	41.13
0.631	41.22
0.634	41.37
0.637	41.48
0.64	41.59
0.643	41.47
0.646	41.58
0.649	41.57
0.652	41.83
0.655	41.88
0.658	41.98
0.661	41.95
0.664	41.98
0.667	41.96
0.67	42.1
0.673	42.15
0.676	42.35
0.679	42.22
0.682	42.2
0.685	42.26
0.688	42.24
0.691	42.23
0.694	42.26
0.697	42.22
0.7	42.07
0.703	42.11
0.706	41.95
0.709	41.93
0.712	41.57
0.715	41.46
0.718	41.21
0.721	41.07
0.724	40.78
0.727	40.43
0.73	40.03
0.733	39.73
0.736	39.07
0.739	38.66
0.742	38.27
0.745	37.64
0.748	36.99
0.751	36.37
0.754	35.49
0.757	34.72
0.76	34.12
0.763	33.23
0.766	32.5
0.769	31.53
0.772	30.78
0.775	29.68
0.778	28.89
0.781	28.06
0.784	27.28
0.787	26.33
0.79	25.47
0.793	24.47
0.796	23.68
0.799	22.91
0.808	20.87
0.82	17.91
0.832	15.53
0.844	13.67
0.856	12.07
0.868	11.02
0.88	10.38
0.892	9.89
0.904	9.58
0.916	9.68
0.928	10.01
0.94	10.45
0.952	11.32
0.964	12.7
0.976	14.37
0.988	16.59
1	18.94
1.012	22.6
1.024	26.23
1.036	29.81
1.048	33.25
1.06	36.6
1.072	39.3
1.084	41.27
1.096	42.96
1.108	44.22
1.12	44.96
1.132	45.68
1.144	46.15
1.156	46.42
1.168	46.58
1.18	46.92
1.192	46.97
1.204	47.11
1.216	47.17
1.228	47.38
1.24	47.38
1.252	47.32
1.264	47.38
1.276	47.34
1.288	47.25
1.3	46.95
1.312	46.91
1.324	46.49
1.336	46.16
1.348	45.89
1.36	45.37
1.372	44.83
1.384	43.46
1.396	42.46
1.408	42.71
1.42	42.14
1.432	41.29
1.444	40.49
1.456	39.59
1.468	38.59
1.48	37.63
1.492	36.67
1.504	35.67
1.516	34.66
1.528	33.56
1.54	32.51
1.552	31.61
1.564	30.55
1.576	29.49
1.588	28.58
1.6	27.73
1.612	26.75
1.624	25.89
1.636	25.13
1.648	24.43
1.66	23.61
1.672	22.92
1.684	22.29
1.696	21.66
1.708	21.19
1.72	20.6
1.732	20.05
1.744	19.74
1.756	19.28
1.768	18.97
1.78	18.73
1.792	18.44
1.804	18.18
1.816	18.1
1.828	17.98
1.84	17.78
1.852	17.81
1.864	17.79
1.876	17.83
1.888	17.79
1.9	17.94
1.912	18.1
1.924	18.33
1.936	18.56
1.948	18.84
1.96	19.11
1.972	19.56
1.984	20.04
1.996	20.53
2.008	20.94
2.02	21.52
2.032	22.22
2.044	22.74
2.056	23.39
2.068	24.13
2.08	24.86
2.092	25.45
2.104	26.19
2.116	27.05
2.128	27.77
2.14	28.47
2.152	29.12
2.164	29.8
2.176	30.29
2.188	30.86
2.2	31.54
2.212	32.05
2.224	32.43
2.236	32.77
2.248	33.28
2.26	33.56
2.272	33.56
2.284	33.42
2.296	33.34
2.308	33.68
2.32	34.62
2.332	35.3
2.344	35.77
2.356	35.95
2.368	35.95
2.38	35.92
2.392	36.14
2.404	36.65
2.416	36.95
2.428	37.21
2.44	37.53
2.452	37.74
2.464	37.87
2.476	38.23
2.488	38.77
2.5	39.25
