Name: Pyrite FeS_2
Type: Mineral
Class: Sulfide
Subclass: None
Particle Size: Medium
Sample No.: S-2A
Owner: JPL
Wavelength Range: VSWIR
Origin: Italy, Tuscany, Elba, Rio Marina Isle
Description: Particle size was 45-125um.Collected by Ward's Original ASTER Spectral Library name was jpl.beckman.mineral.sulfide.none.medium.s02a.spectrum.txt
Measurement: Hemispherical reflectance
X Units: Wavelength (micrometers)
Y Units: Reflectance (percent)
wavelength	value
0.4	9.07
0.403	9.16
0.406	9.31
0.409	9.31
0.412	9.38
0.415	9.54
0.418	9.68
0.421	9.73
0.424	9.88
0.427	10
0.43	10.03
0.433	10.36
0.436	10.31
0.439	10.43
0.442	10.64
0.445	10.74
0.448	10.93
0.451	11.21
0.454	11.16
0.457	11.43
0.46	11.5
0.463	11.75
0.466	11.94
0.469	12.14
0.472	12.36
0.475	12.53
0.478	12.58
0.481	12.78
0.484	13.02
0.487	13.23
0.49	13.44
0.493	13.46
0.496	13.58
0.499	13.78
0.502	13.85
0.505	14.08
0.508	13.96
0.511	14.14
0.514	14.25
0.517	14.33
0.52	14.46
0.523	14.43
0.526	14.48
0.529	14.64
0.532	14.7
0.535	14.74
0.538	14.8
0.541	14.76
0.544	14.97
0.547	15.02
0.55	14.99
0.553	15.03
0.556	15.12
0.559	15.26
0.562	15.36
0.565	15.33
0.568	15.49
0.571	15.43
0.574	15.47
0.577	15.54
0.58	15.46
0.583	15.57
0.586	15.55
0.589	15.63
0.592	15.68
0.595	15.56
0.598	15.68
0.601	15.6
0.604	15.7
0.607	15.73
0.61	15.56
0.613	15.74
0.616	15.65
0.619	15.66
0.622	15.7
0.625	15.74
0.628	15.66
0.631	15.71
0.634	15.7
0.637	15.7
0.64	15.82
0.643	15.76
0.646	15.87
0.649	15.98
0.652	15.88
0.655	16.01
0.658	16.04
0.661	16.12
0.664	16.14
0.667	16.14
0.67	16.17
0.673	16.28
0.676	16.26
0.679	16.29
0.682	16.24
0.685	16.37
0.688	16.38
0.691	16.38
0.694	16.41
0.697	16.34
0.7	16.32
0.703	16.45
0.706	16.41
0.709	16.42
0.712	16.39
0.715	16.36
0.718	16.29
0.721	16.38
0.724	16.33
0.727	16.27
0.73	16.25
0.733	16.14
0.736	16.19
0.739	16.15
0.742	16.08
0.745	16.04
0.748	16.08
0.751	15.93
0.754	15.9
0.757	15.85
0.76	15.81
0.763	15.81
0.766	15.85
0.769	15.68
0.772	15.7
0.775	15.66
0.778	15.58
0.781	15.64
0.784	15.49
0.787	15.59
0.79	15.52
0.793	15.51
0.796	15.43
0.799	15.31
0.808	15.4
0.82	15.28
0.832	14.98
0.844	14.92
0.856	14.77
0.868	14.52
0.88	14.4
0.892	14.28
0.904	14.22
0.916	14.1
0.928	13.97
0.94	13.88
0.952	13.86
0.964	13.82
0.976	13.71
0.988	13.6
1	13.42
1.012	13.35
1.024	13.23
1.036	13.16
1.048	13.04
1.06	13.03
1.072	12.98
1.084	12.92
1.096	12.86
1.108	12.88
1.12	12.82
1.132	12.72
1.144	12.69
1.156	12.63
1.168	12.58
1.18	12.48
1.192	12.51
1.204	12.56
1.216	12.52
1.228	12.43
1.24	12.41
1.252	12.39
1.264	12.41
1.276	12.43
1.288	12.32
1.3	12.37
1.312	12.46
1.324	12.46
1.336	12.44
1.348	12.44
1.36	12.48
1.372	12.56
1.384	12.57
1.396	12.58
1.408	12.58
1.42	12.65
1.432	12.8
1.444	12.9
1.456	12.89
1.468	12.91
1.48	13.05
1.492	13.06
1.504	13.13
1.516	13.16
1.528	13.2
1.54	13.19
1.552	13.28
1.564	13.28
1.576	13.27
1.588	13.27
1.6	13.25
1.612	13.29
1.624	13.24
1.636	13.26
1.648	13.27
1.66	13.29
1.672	13.14
1.684	13.07
1.696	13.03
1.708	12.99
1.72	12.93
1.732	12.9
1.744	12.83
1.756	12.83
1.768	12.82
1.78	12.68
1.792	12.67
1.804	12.64
1.816	12.64
1.828	12.62
1.84	12.54
1.852	12.46
1.864	12.42
1.876	12.46
1.888	12.44
1.9	12.4
1.912	12.36
1.924	12.34
1.936	12.28
1.948	12.26
1.96	12.23
1.972	12.19
1.984	12.17
1.996	12.21
2.008	12.19
2.02	12.19
2.032	12.22
2.044	12.27
2.056	12.2
2.068	12.2
2.08	12.18
2.092	12.18
2.104	12.18
2.116	12.15
2.128	12.21
2.14	12.24
2.152	12.17
2.164	12.22
2.176	12.18
2.188	12.17
2.2	12.23
2.212	12.23
2.224	12.24
2.236	12.22
2.248	12.24
2.26	12.26
2.272	12.33
2.284	12.35
2.296	12.33
2.308	12.26
2.32	12.33
2.332	12.35
2.344	12.42
2.356	12.29
2.368	12.31
2.38	12.28
2.392	12.32
2.404	12.35
2.416	12.31
2.428	12.43
2.44	12.42
2.452	12.38
2.464	12.43
2.476	12.37
2.488	12.42
2.5	12.47
