Name: Chalcopyrite CuFeS_2
Type: Mineral
Class: Sulfide
Subclass: None
Particle Size: Coarse
Sample No.: S-4A
Owner: JPL
Wavelength Range: VSWIR
Origin: Canada, Quebec, Rouyn District
Description: Particle size was 125-500um.Collected by JPL Original ASTER Spectral Library name was jpl.beckman.mineral.sulfide.none.coarse.s04a.spectrum.txt
Measurement: Hemispherical reflectance
X Units: Wavelength (micrometers)
Y Units: Reflectance (percent)
wavelength	value
0.4	3.03
0.403	3.12
0.406	3.18
0.409	3.3
0.412	3.42
0.415	3.47
0.418	3.54
0.421	3.7
0.424	3.77
0.427	3.76
0.43	4
0.433	4.06
0.436	4.24
0.439	4.49
0.442	4.55
0.445	4.65
0.448	4.83
0.451	4.94
0.454	5.12
0.457	5.26
0.46	5.38
0.463	5.53
0.466	5.64
0.469	5.78
0.472	5.92
0.475	6.17
0.478	6.24
0.481	6.39
0.484	6.44
0.487	6.63
0.49	6.7
0.493	6.96
0.496	6.98
0.499	7.2
0.502	7.24
0.505	7.35
0.508	7.41
0.511	7.66
0.514	7.76
0.517	7.87
0.52	7.9
0.523	8.04
0.526	8.13
0.529	8.21
0.532	8.35
0.535	8.43
0.538	8.5
0.541	8.47
0.544	8.55
0.547	8.61
0.55	8.8
0.553	8.86
0.556	8.88
0.559	8.89
0.562	9.03
0.565	9.1
0.568	9.07
0.571	9.19
0.574	9.18
0.577	9.31
0.58	9.13
0.583	9.21
0.586	9.27
0.589	9.27
0.592	9.32
0.595	9.41
0.598	9.32
0.601	9.32
0.604	9.42
0.607	9.49
0.61	9.44
0.613	9.5
0.616	9.51
0.619	9.52
0.622	9.56
0.625	9.53
0.628	9.52
0.631	9.63
0.634	9.67
0.637	9.6
0.64	9.58
0.643	9.55
0.646	9.66
0.649	9.67
0.652	9.7
0.655	9.69
0.658	9.73
0.661	9.73
0.664	9.66
0.667	9.7
0.67	9.66
0.673	9.67
0.676	9.68
0.679	9.65
0.682	9.53
0.685	9.67
0.688	9.72
0.691	9.69
0.694	9.7
0.697	9.62
0.7	9.69
0.703	9.64
0.706	9.76
0.709	9.64
0.712	9.67
0.715	9.65
0.718	9.71
0.721	9.62
0.724	9.65
0.727	9.59
0.73	9.66
0.733	9.6
0.736	9.6
0.739	9.59
0.742	9.67
0.745	9.64
0.748	9.63
0.751	9.56
0.754	9.65
0.757	9.59
0.76	9.62
0.763	9.63
0.766	9.63
0.769	9.53
0.772	9.57
0.775	9.63
0.778	9.59
0.781	9.55
0.784	9.61
0.787	9.52
0.79	9.59
0.793	9.5
0.796	9.66
0.799	9.74
0.808	9.93
0.82	9.93
0.832	9.83
0.844	9.76
0.856	9.75
0.868	9.72
0.88	9.71
0.892	9.72
0.904	9.78
0.916	9.79
0.928	9.82
0.94	9.78
0.952	9.79
0.964	9.9
0.976	9.95
0.988	9.99
1	10.08
1.012	10.18
1.024	10.08
1.036	10.21
1.048	10.3
1.06	10.37
1.072	10.55
1.084	10.54
1.096	10.6
1.108	10.65
1.12	10.76
1.132	10.75
1.144	10.77
1.156	10.82
1.168	10.87
1.18	10.91
1.192	10.86
1.204	10.84
1.216	10.88
1.228	11
1.24	11.07
1.252	11.13
1.264	11.07
1.276	11.15
1.288	11.21
1.3	11.21
1.312	11.2
1.324	11.2
1.336	11.31
1.348	11.33
1.36	11.28
1.372	11.28
1.384	11.43
1.396	11.36
1.408	11.44
1.42	11.5
1.432	11.48
1.444	11.45
1.456	11.53
1.468	11.61
1.48	11.58
1.492	11.56
1.504	11.68
1.516	11.6
1.528	11.61
1.54	11.66
1.552	11.63
1.564	11.72
1.576	11.73
1.588	11.74
1.6	11.73
1.612	11.78
1.624	11.86
1.636	11.83
1.648	11.84
1.66	11.94
1.672	11.99
1.684	11.89
1.696	11.94
1.708	12.02
1.72	12.06
1.732	12.04
1.744	11.92
1.756	12.03
1.768	12.01
1.78	12.03
1.792	12.02
1.804	12.09
1.816	12.15
1.828	12.1
1.84	12.05
1.852	12.08
1.864	12.05
1.876	12.16
1.888	12.12
1.9	12.08
1.912	12.13
1.924	12.19
1.936	12.19
1.948	12.14
1.96	12.16
1.972	12.22
1.984	12.34
1.996	12.33
2.008	12.32
2.02	12.43
2.032	12.48
2.044	12.45
2.056	12.43
2.068	12.57
2.08	12.62
2.092	12.5
2.104	12.53
2.116	12.73
2.128	12.62
2.14	12.58
2.152	12.74
2.164	12.72
2.176	12.64
2.188	12.74
2.2	12.76
2.212	12.74
2.224	12.87
2.236	12.77
2.248	12.84
2.26	12.91
2.272	12.9
2.284	12.89
2.296	13.05
2.308	13.01
2.32	13.06
2.332	12.99
2.344	13.19
2.356	13.14
2.368	13.18
2.38	13.25
2.392	13.32
2.404	13.32
2.416	13.32
2.428	13.36
2.44	13.35
2.452	13.41
2.464	13.5
2.476	13.44
2.488	13.49
2.5	13.62
