Name: Chabazite CaAl2Si4O12.6H2O
Type: Mineral
Class: Silicate
Subclass: Tectosilicate
Particle Size: Coarse
Sample No.: chabazite_1
Owner: JHU
Wavelength Range: TIR
Origin: W. J. Ehmann #40; from Kyogle, N.S.W., Australia.
Description: The sample was a white crystalline mass.  Petrographically the sample appears to be pure chabazite. Particle size was 74-250 Micrometers.(Framework silicates) (Zeolite Group) Original ASTER Spectral Library name was jhu.nicolet.mineral.silicate.tectosilicate.coarse.chabaz1.spectrum.txt
Measurement: Transmission
X Units: Wavelength (micrometers)
Y Units: Reflectance (percent)
wavelength	value
25.044	4.4023
24.339	4.5298
23.672	4.0969
23.041	3.5901
22.442	3.6592
21.874	3.8208
21.334	3.9441
20.82	3.6279
20.33	3.1321
19.863	3.0564
19.416	3.2861
18.99	3.26
18.581	2.4138
18.19	2.2351
17.815	2.2717
17.455	2.3506
17.109	2.4619
16.777	2.5464
16.458	2.626
16.15	2.7966
15.854	2.7847
15.568	2.6787
15.292	2.3682
15.027	1.845
14.77	1.7161
14.521	1.7212
14.281	1.739
14.049	1.7261
13.824	1.7048
13.607	1.657
13.396	1.6143
13.191	1.6536
12.993	1.6504
12.8	1.6863
12.614	1.781
12.432	1.9529
12.256	2.1379
12.084	2.3074
11.918	2.4485
11.755	2.5874
11.598	2.6977
11.444	2.8108
11.294	2.937
11.149	3.0574
11.007	3.1079
10.868	3.1719
10.733	3.2253
10.602	3.2681
10.473	3.3364
10.348	3.4521
10.225	3.6409
10.106	3.9036
9.9887	4.1538
9.8746	4.416
9.763	4.7527
9.6539	5.0754
9.5472	5.2649
9.4429	5.0032
9.3408	4.3584
9.2409	3.7671
9.1431	3.4101
9.0474	3.1853
8.9536	3.0825
8.8618	3.0539
8.7718	3.0403
8.6837	3.1062
8.5973	3.1865
8.5126	3.2832
8.4295	3.2104
8.3481	2.6724
8.2682	1.5244
8.1898	0.5369
8.1129	0.2187
8.0374	0.2466
7.9634	0.3564
7.8906	0.4907
7.8192	0.627
7.7491	0.7686
7.6802	0.8835
7.6126	1.0039
7.5461	1.1086
7.4807	1.2053
7.4165	1.2939
7.3534	1.3791
7.2914	1.448
7.2303	1.5068
7.1703	1.5718
7.1113	1.6287
7.0533	1.6699
6.9962	1.7158
6.94	1.7646
6.8847	1.8018
6.8302	1.8252
6.7767	1.8603
6.7239	1.885
6.672	1.9241
6.6209	1.9531
6.5705	1.9783
6.5209	1.9927
6.4721	1.991
6.424	1.9665
6.3766	1.937
6.3299	1.8914
6.2838	1.8123
6.2385	1.7068
6.1937	1.5586
6.1496	1.4023
6.1062	1.248
6.0633	1.1309
6.0211	1.0684
5.9794	1.0723
5.9383	1.1758
5.8978	1.3789
5.8578	1.6616
5.8184	1.9172
5.7794	2.1655
5.741	2.3718
5.7031	2.5439
5.6657	2.6955
5.6288	2.8235
5.5924	2.9429
5.5564	3.051
5.5209	3.1626
5.4859	3.2642
5.4513	3.3782
5.4171	3.457
5.3833	3.5266
5.35	3.5657
5.3171	3.6177
5.2846	3.6633
5.2524	3.7019
5.2207	3.7471
5.1893	3.7866
5.1584	3.8264
5.1277	3.8667
5.0975	3.8982
5.0676	3.9106
5.038	3.9087
5.0088	3.8889
4.98	3.8672
4.9514	3.8293
4.9232	3.8005
4.8953	3.7551
4.8678	3.7344
4.8405	3.6982
4.8135	3.6785
4.7868	3.6543
4.7605	3.634
4.7344	3.6084
4.7086	3.5954
4.6831	3.5962
4.6578	3.5893
4.6328	3.5898
4.6081	3.6057
4.5837	3.6267
4.5595	3.6457
4.5356	3.6872
4.5119	3.7163
4.4884	3.7668
4.4652	3.814
4.4423	3.875
4.4196	3.9436
4.3971	4.0198
4.3748	4.0928
4.3528	4.1855
4.331	4.2842
4.3094	4.3816
4.288	4.489
4.2668	4.605
4.2458	4.7266
4.2251	4.8486
4.2045	4.9687
4.1841	5.1003
4.164	5.2341
4.144	5.3559
4.1242	5.4851
4.1046	5.6145
4.0852	5.7285
4.066	5.844
4.047	5.9592
4.0281	6.0598
4.0094	6.1404
3.9909	6.2136
3.9725	6.2746
3.9544	6.3286
3.9363	6.3652
3.9185	6.3867
3.9008	6.3857
3.8833	6.3808
3.8659	6.362
3.8487	6.3235
3.8316	6.2732
3.8147	6.2068
3.7979	6.1301
3.7813	6.0527
3.7648	5.9585
3.7485	5.8608
3.7323	5.7439
3.7162	5.6304
3.7003	5.5102
3.6845	5.3782
3.6689	5.2427
3.6534	5.1084
3.638	4.9707
3.6227	4.8288
3.6076	4.6916
3.5926	4.5466
3.5777	4.4087
3.563	4.2629
3.5484	4.1284
3.5338	3.9912
3.5195	3.8537
3.5052	3.7156
3.491	3.5989
3.477	3.4795
3.463	3.3735
3.4492	3.2571
3.4355	3.1318
3.4219	3.0139
3.4084	2.9194
3.395	2.8276
3.3817	2.7351
3.3685	2.6572
3.3554	2.5601
3.3425	2.4861
3.3296	2.4111
3.3168	2.3274
3.3041	2.2615
3.2915	2.1907
3.279	2.1235
3.2666	2.0684
3.2543	1.9993
3.2421	1.9507
3.23	1.8892
3.218	1.8435
3.206	1.7817
3.1942	1.7446
3.1824	1.6982
3.1707	1.6575
3.1591	1.6118
3.1476	1.5706
3.1362	1.522
3.1249	1.491
3.1136	1.4526
3.1024	1.4268
3.0913	1.3994
3.0803	1.3645
3.0694	1.3379
3.0585	1.3245
3.0477	1.2993
3.037	1.2954
3.0264	1.2749
3.0158	1.2615
3.0053	1.251
2.9949	1.2256
2.9845	1.2036
2.9743	1.1804
2.9641	1.1655
2.9539	1.1353
2.9439	1.124
2.9339	1.1052
2.9239	1.0847
2.9141	1.0779
2.9043	1.064
2.8946	1.0623
2.8849	1.0649
2.8753	1.0564
2.8658	1.0435
2.8563	1.031
2.8469	1.0266
2.8375	1.0193
2.8282	1.0071
2.819	1.0127
2.8098	1.0039
2.8007	0.9936
2.7917	0.9912
2.7827	1.0034
2.7738	1.021
2.7649	1.0561
2.7561	1.1284
2.7473	1.2468
2.7386	1.425
2.7299	1.708
2.7213	2.0308
2.7128	2.3767
2.7043	2.7134
2.6959	3.0039
2.6875	3.2671
2.6791	3.5122
2.6709	3.6929
2.6626	3.9077
2.6545	4.0561
2.6463	4.2043
2.6382	4.3108
2.6302	4.3953
2.6222	4.4993
2.6143	4.5627
2.6064	4.5981
2.5986	4.6462
2.5908	4.6743
2.583	4.689
2.5753	4.7324
2.5677	4.7385
2.5601	4.7229
2.5525	4.7451
2.545	4.7634
2.5375	4.7908
2.5301	4.8232
2.5227	4.8584
2.5154	4.8926
2.5081	4.9568
2.5008	5.0244
2.4936	5.0947
2.4864	5.1921
2.4793	5.2949
2.4722	5.3838
2.4651	5.4846
2.4581	5.5947
2.4511	5.6745
2.4442	5.7893
2.4373	5.8845
2.4305	6.0234
2.4236	6.167
2.4169	6.3254
2.4101	6.5161
2.4034	6.6814
2.3967	6.8882
2.3901	7.1052
2.3835	7.3127
2.377	7.5337
2.3704	7.74
2.364	7.9297
2.3575	8.124
2.3511	8.2981
2.3447	8.4551
2.3384	8.5815
2.3321	8.7087
2.3258	8.8518
2.3195	8.9565
2.3133	9.0876
2.3071	9.1794
2.301	9.2671
2.2949	9.3369
2.2888	9.4138
2.2828	9.4934
2.2767	9.5302
2.2708	9.5727
2.2648	9.6001
2.2589	9.6855
2.253	9.7177
2.2471	9.6919
2.2413	9.7322
2.2355	9.7629
2.2297	9.747
2.224	9.7319
2.2183	9.761
2.2126	9.7156
2.207	9.6997
2.2013	9.678
2.1957	9.7058
2.1902	9.7009
2.1846	9.6523
2.1791	9.6118
2.1736	9.6406
2.1682	9.6301
2.1628	9.5954
2.1574	9.5622
2.152	9.5229
2.1466	9.5027
2.1413	9.4851
2.136	9.4345
2.1308	9.4106
2.1255	9.3584
2.1203	9.322
2.1151	9.3027
2.11	9.2387
2.1048	9.2014
2.0997	9.145
2.0946	9.1169
2.0895	9.0742
2.0845	9.0198
2.0795	8.9546
