Name: Cummingtonite (Mg,Fe^2+)_7Si_8O_22(OH)_2
Type: Mineral
Class: Silicate
Subclass: Inosilicate
Particle Size: Fine
Sample No.: IN-6A
Owner: JPL
Wavelength Range: TIR
Origin: USA, South Dakota
Description: Particle size was 0-45um.Collected by Ward's Original ASTER Spectral Library name was jpl.nicolet.mineral.silicate.inosilicate.fine.in06a.spectrum.txt
Measurement: Hemispherical reflectance
X Units: Wavelength (micrometers)
Y Units: Reflectance (percent)
wavelength	value
15.3853	1.9827
15.1161	2.7402
14.8563	3.1363
14.6052	3.2665
14.3624	3.0294
14.1276	3.4413
13.9004	3.5938
13.6803	4.0482
13.4671	4.5219
13.2604	4.7785
13.06	4.2045
12.8656	3.7123
12.6769	3.7875
12.4936	4.77
12.3155	5.499
12.1425	6.3043
11.9742	6.6555
11.8106	6.8361
11.6513	6.8449
11.4963	6.6675
11.3454	6.1854
11.1983	6.0517
11.0551	5.6981
10.9154	5.7111
10.7793	5.7997
10.6465	5.8373
10.5169	6.3261
10.3904	6.7742
10.267	6.7459
10.1464	6.6978
10.0287	7.8291
9.9136	8.8023
9.8012	9.1191
9.6913	9.2149
9.5838	8.941
9.4787	8.5996
9.3758	7.9636
9.2752	7.2638
9.1767	8.203
9.0803	7.9912
8.9858	6.7838
8.8934	6.4524
8.8028	7.0515
8.714	6.9789
8.627	6.0341
8.5417	5.7656
8.4581	5.5816
8.3761	5.5243
8.2957	5.927
8.2169	6.5434
8.1395	6.4297
8.0635	6.1081
7.989	6.03
7.9158	6.144
7.8439	6.3204
7.7734	6.6315
7.7041	6.9688
7.636	7.3434
7.5691	7.7022
7.5034	7.9795
7.4388	8.3543
7.3753	8.5697
7.3129	8.8023
7.2515	9.1197
7.1912	9.4876
7.1318	9.9038
7.0734	10.1626
7.016	10.2033
6.9595	10.5432
6.9039	10.7888
6.8492	11.0862
6.7953	11.4404
6.7423	11.4368
6.6901	11.7678
6.6387	12.9855
6.5881	12.5793
6.5382	12.6637
6.4892	13.9551
6.4408	13.5763
6.3931	13.393
6.3462	13.4909
6.2999	12.6026
6.2543	12.2265
6.2094	11.7185
6.1651	11.7008
6.1214	11.78
6.0784	11.8926
6.0359	12.0162
5.994	12.5058
5.9527	12.885
5.912	13.1279
5.8718	13.7953
5.8322	14.1542
5.7931	13.8172
5.7545	13.7499
5.7165	13.9047
5.6789	13.6835
5.6418	13.6826
5.6052	13.2556
5.5691	13.2264
5.5334	13.4212
5.4982	14.0116
5.4635	14.5522
5.4291	14.631
5.3952	14.256
5.3618	13.7376
5.3287	13.8424
5.2961	14.1166
5.2638	14.6836
5.2319	15.4852
5.2004	15.9989
5.1693	16.4001
5.1386	16.5824
5.1082	16.858
5.0782	16.9778
5.0485	17.0217
5.0192	17.1917
4.9902	17.1814
4.9616	17.6674
4.9332	18.0765
4.9052	18.3789
4.8776	18.7696
4.8502	19.0766
4.8231	19.283
4.7963	19.2534
4.7699	19.5922
4.7437	19.7262
4.7178	19.8859
4.6922	19.8412
4.6668	20.0353
4.6418	20.1229
4.617	20.2336
4.5924	20.4169
4.5681	20.4932
4.5441	20.4266
4.5203	20.5765
4.4968	20.6506
4.4735	20.5411
4.4505	20.6694
4.4277	20.6713
4.4051	20.7126
4.3828	20.8707
4.3607	20.905
4.3388	20.9377
4.3171	20.977
4.2956	21.1463
4.2744	21.2002
4.2534	21.0855
4.2325	21.392
4.2119	21.2515
4.1915	21.1922
4.1712	21.188
4.1512	21.1022
4.1313	21.1639
4.1117	21.0782
4.0922	21.1529
4.0729	21.2207
4.0538	21.2775
4.0349	21.1278
4.0161	21.0383
3.9976	20.8845
3.9792	20.9244
3.9609	20.9707
3.9428	21.0545
3.9249	21.1348
3.9072	21.2197
3.8896	21.2337
3.8722	21.2615
3.8549	21.207
3.8378	21.2219
3.8208	21.2809
3.804	21.2073
3.7873	21.2413
3.7708	21.2864
3.7544	21.213
3.7382	21.3609
3.7221	21.2259
3.7061	21.1928
3.6903	21.1693
3.6746	21.2708
3.659	21.0941
3.6436	21.2568
3.6283	21.1638
3.6131	21.2029
3.5981	21.1292
3.5832	20.9612
3.5684	20.9732
3.5537	20.9034
3.5391	20.7707
3.5247	20.6659
3.5104	20.6158
3.4962	20.5853
3.4821	20.5779
3.4681	20.4451
3.4543	20.4016
3.4405	20.2704
3.4269	20.2814
3.4133	20.1284
3.3999	20.2177
3.3866	19.862
3.3733	19.8006
3.3602	19.7683
3.3472	19.5753
3.3343	19.6195
3.3215	19.6552
3.3088	19.343
3.2961	19.3192
3.2836	19.2385
3.2712	19.1623
3.2588	18.9423
3.2466	18.6575
3.2345	18.681
3.2224	18.2811
3.2104	18.2675
3.1985	18.0558
3.1867	17.7434
3.175	17.5852
3.1634	17.4102
3.1519	16.9838
3.1404	16.7879
3.129	16.3723
3.1178	16.2086
3.1065	15.9114
3.0954	15.6456
3.0844	15.2521
3.0734	15.2095
3.0625	14.872
3.0517	14.6977
3.041	14.3352
3.0303	14.2758
3.0197	13.8658
3.0092	13.6678
2.9987	13.4266
2.9884	13.261
2.9781	13.0474
2.9678	12.6783
2.9577	12.7242
2.9476	12.4492
2.9376	12.1791
2.9276	11.9515
2.9177	12.1208
2.9079	12.0733
2.8982	12.1553
2.8885	12.2989
2.8789	12.2067
2.8693	12.3629
2.8598	12.259
2.8504	11.9906
2.841	11.9423
2.8317	11.4892
2.8224	11.5033
2.8133	11.5783
2.8041	11.6053
2.7951	11.7554
2.786	12.1791
2.7771	12.6281
2.7682	12.8455
2.7594	12.7106
2.7506	10.1893
2.7418	13.9754
2.7332	14.829
2.7246	16.7197
2.716	18.1581
2.7075	18.9516
2.699	19.4773
2.6906	20.1084
2.6823	20.3427
2.674	20.4429
2.6657	21.2497
2.6575	20.2283
2.6494	20.4658
2.6413	20.2213
2.6332	20.3314
2.6252	20.3319
2.6173	20.7031
2.6094	20.5652
2.6015	20.4198
2.5937	21.0664
2.5859	20.2695
2.5782	20.3308
2.5706	20.3772
2.5629	20.696
2.5554	20.1956
2.5478	20.0372
2.5403	20.1945
2.5329	20.3603
2.5255	20.1957
2.5181	20.2581
2.5108	20.3039
2.5035	20.3734
2.4963	20.3662
2.4891	20.4697
2.482	20.4313
2.4749	20.4896
2.4678	20.6924
2.4608	20.4202
2.4538	20.5079
2.4468	20.7601
2.4399	20.7205
2.4331	20.7262
2.4262	20.8193
2.4194	20.9571
2.4127	20.8545
2.4059	20.9852
2.3993	20.978
2.3926	21.1728
2.386	21.1335
2.3795	21.201
2.3729	21.4489
2.3664	21.1125
2.36	21.1525
2.3535	21.1477
2.3471	21.2164
2.3408	21.2124
2.3345	21.2399
2.3282	21.397
2.3219	21.4209
2.3157	21.4426
2.3095	21.3997
2.3034	21.5401
2.2972	21.9527
2.2911	21.8795
2.2851	22.1698
2.279	22.2636
2.2731	22.2252
2.2671	22.2174
2.2612	22.489
2.2553	22.327
2.2494	22.4502
2.2435	22.4896
2.2377	22.5194
2.232	22.7212
2.2262	22.7557
2.2205	22.7015
2.2148	22.7372
2.2091	22.9624
2.2035	23.0648
2.1979	23.0226
2.1923	22.8788
2.1868	23.0724
2.1812	22.897
2.1758	23.1948
2.1703	23.3791
2.1649	23.3918
2.1595	23.252
2.1541	23.0495
2.1487	23.367
2.1434	23.1971
2.1381	23.6668
2.1328	23.3277
2.1275	23.4734
2.1223	23.3951
2.1171	23.508
2.112	23.6948
2.1068	23.5079
2.1017	23.6077
2.0966	23.7074
2.0915	23.7606
2.0865	23.4929
2.0814	23.4856
2.0764	23.8591
2.0715	24.0765
2.0665	24.0899
2.0616	23.9011
2.0567	23.9713
2.0518	23.7277
2.0469	24.039
2.0421	23.9091
2.0373	23.9647
2.0325	23.8628
2.0277	24.1893
2.0229	24.0336
2.0182	23.8106
2.0135	23.7706
2.0088	23.8136
2.0042	23.8513
