Name: Apatite Ca_5(PO_4)_3F
Type: Mineral
Class: Phosphate
Subclass: None
Particle Size: Medium
Sample No.: P-1A
Owner: JPL
Wavelength Range: VSWIR
Origin: Canada, Ontario, Lanark County, Perth.
Description: Particle size was 45-125um.Collected by:  Ward's Original ASTER Spectral Library name was jpl.perkin.mineral.phosphate.none.medium.p01a.spectrum.txt
Measurement: Hemispherical reflectance
X Units: Wavelength (micrometers)
Y Units: Reflectance (percent)
wavelength	value
2.5	69.2767
2.494	69.5689
2.488	70.073
2.482	70.5715
2.476	70.8621
2.47	71.5478
2.464	71.9817
2.458	72.6308
2.452	73.2766
2.446	73.6494
2.44	74.0638
2.434	74.3063
2.428	74.5012
2.422	74.9851
2.416	75.2717
2.41	75.5616
2.404	75.527
2.398	75.511
2.392	75.4197
2.386	75.5095
2.38	75.9038
2.374	76.3196
2.368	76.6544
2.362	76.6822
2.356	76.467
2.35	76.0829
2.344	75.7143
2.338	75.3883
2.332	75.1507
2.326	74.6819
2.32	74.086
2.314	73.5724
2.308	73.8093
2.302	74.6536
2.296	75.3338
2.29	75.9193
2.284	76.7813
2.278	77.902
2.272	78.7699
2.266	79.3054
2.26	79.7119
2.254	79.8945
2.248	80.2453
2.242	80.5113
2.236	80.5571
2.23	80.5961
2.224	80.7169
2.218	81.012
2.212	81.1669
2.206	81.3221
2.2	81.4312
2.194	81.3922
2.188	81.3328
2.182	81.2289
2.176	81.1589
2.17	81.0813
2.164	80.9555
2.158	80.9823
2.152	81.1332
2.146	81.3537
2.14	81.6997
2.134	81.9763
2.128	82.0752
2.122	81.9013
2.116	81.7735
2.11	81.4667
2.104	81.2709
2.098	81.1299
2.092	81.1935
2.086	81.2262
2.08	81.2585
2.074	81.251
2.068	81.2841
2.062	81.1192
2.056	81.0372
2.05	80.957
2.044	80.793
2.038	80.5642
2.032	80.3334
2.026	79.81
2.02	79.2216
2.014	78.5343
2.008	77.4759
2.002	76.1192
1.996	75.9594
1.99	76.9033
1.984	77.2768
1.978	77.5281
1.972	77.5303
1.966	77.5288
1.96	77.4272
1.954	77.3114
1.948	77.3031
1.942	77.1313
1.936	77.0388
1.93	76.8957
1.924	76.5666
1.918	76.2652
1.912	76.0363
1.906	76.2281
1.9	77.5193
1.894	79.2095
1.888	80.8367
1.882	81.7593
1.876	82.2601
1.87	82.7339
1.864	83.0615
1.858	83.4071
1.852	83.665
1.846	83.8376
1.84	83.9498
1.834	84.1013
1.828	84.209
1.822	84.1717
1.816	84.2575
1.81	84.2853
1.804	84.2932
1.798	84.3226
1.792	84.3261
1.786	84.3988
1.78	84.4048
1.774	84.3699
1.768	84.246
1.762	84.3358
1.756	84.3678
1.75	84.4254
1.744	84.4116
1.738	84.4929
1.732	84.5426
1.726	84.5134
1.72	84.5215
1.714	84.5687
1.708	84.6077
1.702	84.5606
1.696	84.5463
1.69	84.5554
1.684	84.5237
1.678	84.4866
1.672	84.5177
1.666	84.4865
1.66	84.4855
1.654	84.4341
1.648	84.4256
1.642	84.3923
1.636	84.2558
1.63	84.2519
1.624	84.1876
1.618	84.1729
1.612	84.1523
1.606	84.1881
1.6	84.0483
1.594	83.8666
1.588	83.7655
1.582	83.6253
1.576	83.6269
1.57	83.6867
1.564	83.5646
1.558	83.499
1.552	83.4363
1.546	83.3705
1.54	83.3393
1.534	83.1732
1.528	83.0913
1.522	83.0772
1.516	82.9337
1.51	82.9391
1.504	82.806
1.498	82.7149
1.492	82.5433
1.486	82.6606
1.48	82.5064
1.474	82.3743
1.468	82.2414
1.462	82.1451
1.456	81.938
1.45	81.5713
1.444	81.4358
1.438	81.0269
1.432	81.0626
1.426	81.1996
1.42	81.1744
1.414	81.1237
1.408	81.2786
1.402	81.6099
1.396	80.6074
1.39	79.4908
1.384	82.4004
1.378	82.6828
1.372	82.7853
1.366	82.8817
1.36	82.7705
1.354	82.749
1.348	82.735
1.342	82.63
1.336	82.6764
1.33	82.5722
1.324	82.5367
1.318	82.4751
1.312	82.4409
1.306	82.3544
1.3	82.2193
1.294	82.1429
1.288	82.0791
1.282	81.9517
1.276	81.809
1.27	81.7388
1.264	81.6002
1.258	81.5063
1.252	81.3236
1.246	81.3254
1.24	81.126
1.234	81.0403
1.228	80.922
1.222	80.9336
1.216	80.8072
1.21	80.735
1.204	80.5299
1.198	80.4536
1.192	80.4007
1.186	80.226
1.18	80.1891
1.174	80.0745
1.168	79.9782
1.162	79.7676
1.156	79.614
1.15	79.5217
1.144	79.4674
1.138	79.3496
1.132	79.2202
1.126	79.1142
1.12	78.9795
1.114	78.792
1.108	78.7021
1.102	78.5922
1.096	78.3467
1.09	78.269
1.084	78.2069
1.078	77.9736
1.072	77.8569
1.066	77.77
1.06	77.5846
1.054	77.4105
1.048	77.2681
1.042	77.1024
1.036	76.9722
1.03	76.7798
1.024	76.6222
1.018	76.4104
1.012	76.2004
1.006	76.0511
1	75.8294
0.994	75.5955
0.988	75.3691
0.982	75.1476
0.976	74.943
0.97	74.6568
0.964	74.5696
0.958	74.2508
0.952	73.9356
0.946	73.7691
0.94	73.4673
0.934	73.2603
0.928	72.9714
0.922	72.7228
0.916	72.4586
0.91	72.1432
0.904	71.9215
0.898	71.599
0.892	71.3708
0.886	71.0134
0.88	70.7248
0.874	70.4601
0.868	70.2393
0.862	70.04
0.856	69.8987
0.85	69.6343
0.844	69.4829
0.838	69.2584
0.832	69.0097
0.826	68.6968
0.82	68.373
0.814	67.9446
0.808	67.313
0.802	66.9367
0.796	67.2257
0.79	67.2623
0.784	67.142
0.778	66.9454
0.772	66.6886
0.766	66.4071
0.76	66.1173
0.754	65.6662
0.748	65.1881
0.742	65.2815
0.736	65.3272
0.73	65.5526
0.724	65.477
0.718	65.3885
0.712	65.3061
0.706	65.211
0.7	65.1682
0.694	65.0976
0.688	65.0757
0.682	65.0818
0.676	65.1357
0.67	65.1886
0.664	65.2422
0.658	65.3235
0.652	65.3951
0.646	65.49
0.64	65.6175
0.634	65.7228
0.628	65.8847
0.622	66.0327
0.616	66.2042
0.61	66.3463
0.604	66.429
0.598	66.5323
0.592	66.4724
0.586	66.2951
0.58	66.4304
0.574	66.8193
0.568	67.6772
0.562	67.8767
0.556	68.0032
0.55	68.088
0.544	68.1412
0.538	68.1247
0.532	67.9298
0.526	67.7835
0.52	67.8172
0.514	67.6133
0.508	67.4324
0.502	67.1413
0.496	66.7962
0.49	66.2772
0.484	65.6204
0.478	65.1032
0.472	64.5361
0.466	64.0123
0.46	63.3708
0.454	62.602
0.448	61.5535
0.442	60.2791
0.436	58.8007
0.43	57.0047
0.424	55.0704
0.418	52.953
0.412	50.7106
0.406	48.3025
0.4	45.6989
