Name: Sodalite Na_8Al_6Si_6O_24Cl_2
Type: Mineral
Class: Silicate
Subclass: Tectosilicate
Particle Size: Coarse
Sample No.: TS-10A
Owner: JPL
Wavelength Range: TIR
Origin: Canada, Ontario, Hastings County, Bancroft
Description: Particle size was 125-500um.Collected by JPL Original ASTER Spectral Library name was jpl.nicolet.mineral.silicate.tectosilicate.coarse.ts10a.spectrum.txt
Measurement: Hemispherical reflectance
X Units: Wavelength (micrometers)
Y Units: Reflectance (percent)
wavelength	value
15.3853	3.9239
15.1161	5.8243
14.8563	3.5867
14.6052	2.5405
14.3624	3.0912
14.1276	4.46
13.9004	2.8128
13.6803	7.1844
13.4671	5.8616
13.2604	1.2186
13.06	1.6801
12.8656	2.0698
12.6769	2.5273
12.4936	2.6683
12.3155	3.3169
12.1425	3.3705
11.9742	3.6495
11.8106	3.6413
11.6513	3.7738
11.4963	4.2788
11.3454	5.6616
11.1983	5.0173
11.0551	5.517
10.9154	6.588
10.7793	7.6219
10.6465	9.3774
10.5169	12.3512
10.3904	19.8604
10.267	33.255
10.1464	37.0498
10.0287	40.091
9.9136	39.6848
9.8012	38.6196
9.6913	37.8156
9.5838	38.3551
9.4787	37.1391
9.3758	26.7012
9.2752	12.938
9.1767	6.2578
9.0803	3.2587
8.9858	1.9627
8.8934	1.277
8.8028	0.8597
8.714	0.9146
8.627	0.7427
8.5417	0.5493
8.4581	0.6686
8.3761	0.7766
8.2957	0.7362
8.2169	1.2021
8.1395	1.0539
8.0635	1.0806
7.989	1.1059
7.9158	1.3493
7.8439	1.3574
7.7734	1.3966
7.7041	1.6061
7.636	1.5567
7.5691	1.6132
7.5034	1.5747
7.4388	1.9055
7.3753	2.1879
7.3129	2.6466
7.2515	2.6514
7.1912	3.1018
7.1318	3.2905
7.0734	3.6256
7.016	3.6031
6.9595	3.3619
6.9039	3.2187
6.8492	3.6792
6.7953	4.4804
6.7423	5.1056
6.6901	5.5288
6.6387	5.8465
6.5881	5.2996
6.5382	5.7677
6.4892	5.9445
6.4408	4.5723
6.3931	2.97
6.3462	2.7622
6.2999	2.48
6.2543	2.1005
6.2094	1.7681
6.1651	1.8329
6.1214	1.6431
6.0784	1.6822
6.0359	1.5477
5.994	1.7232
5.9527	1.4704
5.912	1.2929
5.8718	1.168
5.8322	1.5992
5.7931	2.8944
5.7545	3.613
5.7165	3.7273
5.6789	4.0144
5.6418	4.8676
5.6052	6.0786
5.5691	5.4673
5.5334	5.6494
5.4982	7.1006
5.4635	8.6742
5.4291	12.0438
5.3952	16.4757
5.3618	19.1629
5.3287	20.4541
5.2961	21.1338
5.2638	21.3225
5.2319	20.2888
5.2004	16.0357
5.1693	9.8215
5.1386	4.424
5.1082	6.9932
5.0782	11.5016
5.0485	13.2877
5.0192	14.5184
4.9902	14.2272
4.9616	15.7225
4.9332	9.0115
4.9052	8.489
4.8776	8.2833
4.8502	10.5336
4.8231	15.4538
4.7963	18.8547
4.7699	23.3327
4.7437	26.9259
4.7178	26.4427
4.6922	24.743
4.6668	25.5769
4.6418	29.2365
4.617	33.2787
4.5924	36.0199
4.5681	37.3523
4.5441	38.1976
4.5203	38.7168
4.4968	39.4281
4.4735	40.4828
4.4505	41.4686
4.4277	42.1363
4.4051	42.0418
4.3828	42.6596
4.3607	42.7832
4.3388	42.4958
4.3171	42.4119
4.2956	42.0977
4.2744	40.0512
4.2534	41.602
4.2325	43.004
4.2119	42.755
4.1915	42.3032
4.1712	41.7901
4.1512	40.7861
4.1313	39.453
4.1117	38.2293
4.0922	36.715
4.0729	34.4882
4.0538	32.0897
4.0349	29.1937
4.0161	27.7567
3.9976	26.791
3.9792	25.7781
3.9609	26.0786
3.9428	27.3804
3.9249	28.3307
3.9072	28.87
3.8896	29.2589
3.8722	29.5585
3.8549	29.7647
3.8378	30.4383
3.8208	31.847
3.804	34.3393
3.7873	38.3581
3.7708	39.9108
3.7544	41.1731
3.7382	42.8057
3.7221	44.0395
3.7061	44.1892
3.6903	44.4274
3.6746	44.1343
3.659	44.1372
3.6436	43.6206
3.6283	42.8471
3.6131	41.9807
3.5981	40.556
3.5832	38.6703
3.5684	36.1165
3.5537	34.2049
3.5391	32.3338
3.5247	30.517
3.5104	28.5755
3.4962	27.5375
3.4821	26.9503
3.4681	26.9069
3.4543	27.546
3.4405	27.6781
3.4269	27.416
3.4133	27.184
3.3999	27.052
3.3866	26.811
3.3733	26.6376
3.3602	26.2082
3.3472	26.0216
3.3343	28.1937
3.3215	30.3217
3.3088	30.7247
3.2961	28.5893
3.2836	31.6381
3.2712	32.4034
3.2588	32.6899
3.2466	32.5813
3.2345	32.3693
3.2224	32.18
3.2104	31.8273
3.1985	31.618
3.1867	31.0036
3.175	30.4423
3.1634	29.7336
3.1519	28.9715
3.1404	28.4041
3.129	27.917
3.1178	27.4074
3.1065	26.8409
3.0954	26.3896
3.0844	25.985
3.0734	25.8027
3.0625	25.3262
3.0517	24.8697
3.041	24.4497
3.0303	24.318
3.0197	24.2773
3.0092	24.226
2.9987	23.9846
2.9884	23.7616
2.9781	23.4034
2.9678	23.2227
2.9577	22.7998
2.9476	22.4295
2.9376	22.2797
2.9276	21.9438
2.9177	21.5199
2.9079	21.4174
2.8982	21.4749
2.8885	21.5469
2.8789	21.3462
2.8693	21.1003
2.8598	20.4804
2.8504	20.019
2.841	19.2556
2.8317	18.8202
2.8224	19.2281
2.8133	21.2399
2.8041	23.7821
2.7951	25.4822
2.786	26.8056
2.7771	27.7465
2.7682	29.0874
2.7594	29.7455
2.7506	31.2336
2.7418	33.2414
2.7332	34.9882
2.7246	40.9272
2.716	43.1517
2.7075	46.1421
2.699	50.0977
2.6906	55.2025
2.6823	58.9927
2.674	61.4371
2.6657	64.3298
2.6575	63.7768
2.6494	64.4677
2.6413	65.1048
2.6332	65.9498
2.6252	65.9509
2.6173	67.2681
2.6094	66.3839
2.6015	66.1572
2.5937	67.1588
2.5859	65.5221
2.5782	64.6135
2.5706	64.126
2.5629	63.6552
2.5554	61.4859
2.5478	59.9154
2.5403	58.1472
2.5329	57.5053
2.5255	58.0564
2.5181	59.1811
2.5108	59.9068
2.5035	60.4945
2.4963	60.9355
2.4891	61.427
2.482	62.1282
2.4749	62.9445
2.4678	63.8802
2.4608	64.6741
2.4538	65.4409
2.4468	65.921
2.4399	66.46
2.4331	66.9115
2.4262	67.1578
2.4194	67.6491
2.4127	67.8713
2.4059	68.3016
2.3993	68.3982
2.3926	68.3179
2.386	68.6239
2.3795	68.2972
2.3729	67.9584
2.3664	67.6573
2.36	67.2742
2.3535	66.3386
2.3471	65.6653
2.3408	65.1152
2.3345	65.3036
2.3282	65.7945
2.3219	66.3138
2.3157	66.6907
2.3095	67.1311
2.3034	67.4408
2.2972	67.6999
2.2911	68.101
2.2851	68.4887
2.279	68.7636
2.2731	69.3353
2.2671	69.5831
2.2612	69.8764
2.2553	70.2027
2.2494	70.3463
2.2435	70.7413
2.2377	71.3337
2.232	71.2605
2.2262	71.4019
2.2205	71.734
2.2148	71.4764
2.2091	71.5962
2.2035	71.5599
2.1979	71.8518
2.1923	71.8314
2.1868	71.97
2.1812	72.1111
2.1758	72.1707
2.1703	72.1546
2.1649	71.8892
2.1595	72.1334
2.1541	72.097
2.1487	71.8769
2.1434	71.7991
2.1381	72.2287
2.1328	72.0129
2.1275	72.145
2.1223	72.2568
2.1171	72.4794
2.112	72.7675
2.1068	72.8807
2.1017	73.0009
2.0966	73.139
2.0915	73.1782
2.0865	73.0911
2.0814	73.2259
2.0764	73.4854
2.0715	73.2467
2.0665	73.2474
2.0616	73.2298
2.0567	73.1575
2.0518	73.26
2.0469	73.177
2.0421	73.1252
2.0373	72.8522
2.0325	73.0217
2.0277	73.119
2.0229	72.9641
2.0182	72.8671
2.0135	72.7961
2.0088	72.5425
2.0042	72.2951
