Name: Chlorite (Mg,Al)_6(Si,Al)_4O_10(OH)_8
Type: Mineral
Class: Silicate
Subclass: Phyllosilicate
Particle Size: Coarse
Sample No.: PS-12C
Owner: JPL
Wavelength Range: TIR
Origin: USA, California
Description: Particle size was 125-500um.Collected by Ward's Original ASTER Spectral Library name was jpl.nicolet.mineral.silicate.phyllosilicate.coarse.ps12c.spectrum.txt
Measurement: Hemispherical reflectance
X Units: Wavelength (micrometers)
Y Units: Reflectance (percent)
wavelength	value
15.3853	9.6385
15.1161	8.2631
14.8563	6.8269
14.6052	6.3187
14.3624	5.1594
14.1276	4.579
13.9004	4.4664
13.6803	4.6988
13.4671	4.6511
13.2604	5.5507
13.06	5.3459
12.8656	3.9913
12.6769	2.7817
12.4936	2.3302
12.3155	1.9736
12.1425	2.4229
11.9742	2.7577
11.8106	3.4044
11.6513	4.4
11.4963	4.8936
11.3454	5.7471
11.1983	6.516
11.0551	7.5245
10.9154	8.654
10.7793	10.8078
10.6465	14.4897
10.5169	18.6914
10.3904	20.7066
10.267	20.1968
10.1464	23.0713
10.0287	26.8789
9.9136	30.9268
9.8012	35.5725
9.6913	36.9752
9.5838	30.2014
9.4787	24.0388
9.3758	23.9628
9.2752	18.4286
9.1767	9.8571
9.0803	5.1732
8.9858	2.641
8.8934	1.0352
8.8028	0.5099
8.714	0.1591
8.627	0.2714
8.5417	0.2395
8.4581	0.4304
8.3761	0.5347
8.2957	0.7422
8.2169	1.2245
8.1395	1.3325
8.0635	1.7338
7.989	1.9689
7.9158	2.3192
7.8439	2.6458
7.7734	2.8067
7.7041	3.1536
7.636	3.4317
7.5691	3.7833
7.5034	3.9353
7.4388	4.3232
7.3753	4.5178
7.3129	4.9301
7.2515	5.3184
7.1912	5.5709
7.1318	5.8869
7.0734	6.2488
7.016	6.5071
6.9595	6.8248
6.9039	7.0541
6.8492	7.3044
6.7953	7.4881
6.7423	7.5523
6.6901	7.7958
6.6387	8.0224
6.5881	8.0274
6.5382	7.9906
6.4892	7.9245
6.4408	7.5064
6.3931	7.2793
6.3462	7.062
6.2999	6.9092
6.2543	6.9024
6.2094	7.0855
6.1651	7.1916
6.1214	7.3239
6.0784	7.5489
6.0359	7.6378
5.994	7.7717
5.9527	7.6795
5.912	7.7725
5.8718	8.0142
5.8322	8.206
5.7931	8.6666
5.7545	9.146
5.7165	9.5648
5.6789	9.9194
5.6418	10.0928
5.6052	10.1588
5.5691	10.2973
5.5334	10.5345
5.4982	10.8632
5.4635	11.3686
5.4291	11.9918
5.3952	12.5677
5.3618	13.1567
5.3287	13.5384
5.2961	13.7531
5.2638	13.8353
5.2319	14.0745
5.2004	14.2146
5.1693	14.1677
5.1386	14.1624
5.1082	14.2076
5.0782	14.209
5.0485	14.2261
5.0192	14.2757
4.9902	14.2046
4.9616	14.3993
4.9332	14.8216
4.9052	15.371
4.8776	15.7742
4.8502	16.3115
4.8231	17.0189
4.7963	17.6953
4.7699	18.3855
4.7437	19.0229
4.7178	20.036
4.6922	21.0541
4.6668	22.1155
4.6418	23.26
4.617	24.1487
4.5924	25.0968
4.5681	26.3551
4.5441	27.2628
4.5203	27.8715
4.4968	28.3091
4.4735	28.8547
4.4505	29.3854
4.4277	29.6945
4.4051	30.1903
4.3828	30.4771
4.3607	30.7702
4.3388	31.0935
4.3171	31.4167
4.2956	31.6983
4.2744	31.591
4.2534	31.8782
4.2325	32.6616
4.2119	32.8675
4.1915	33.1178
4.1712	33.3458
4.1512	33.6682
4.1313	33.8319
4.1117	34.0433
4.0922	34.249
4.0729	34.414
4.0538	34.6055
4.0349	34.6504
4.0161	34.6391
3.9976	34.8345
3.9792	34.8759
3.9609	34.9152
3.9428	34.878
3.9249	34.9501
3.9072	34.9147
3.8896	34.7232
3.8722	34.7419
3.8549	34.5764
3.8378	34.4779
3.8208	34.2064
3.804	34.03
3.7873	34.0269
3.7708	33.9456
3.7544	33.7863
3.7382	33.6498
3.7221	33.5726
3.7061	33.3335
3.6903	33.0665
3.6746	32.9922
3.659	32.6935
3.6436	32.482
3.6283	32.2506
3.6131	31.7377
3.5981	31.4612
3.5832	30.9685
3.5684	30.4211
3.5537	30.0223
3.5391	29.7336
3.5247	29.242
3.5104	28.8126
3.4962	28.4691
3.4821	28.0676
3.4681	27.7794
3.4543	27.4931
3.4405	27.2368
3.4269	26.9
3.4133	26.512
3.3999	26.0399
3.3866	25.7111
3.3733	25.1823
3.3602	24.7791
3.3472	24.0677
3.3343	23.6824
3.3215	23.5352
3.3088	23.2217
3.2961	22.7988
3.2836	22.3795
3.2712	22.1023
3.2588	21.8483
3.2466	21.7102
3.2345	21.3148
3.2224	20.866
3.2104	20.3446
3.1985	19.5799
3.1867	19.0402
3.175	18.287
3.1634	17.7506
3.1519	17.0131
3.1404	16.4067
3.129	15.7432
3.1178	15.2188
3.1065	14.3725
3.0954	13.8262
3.0844	12.73
3.0734	12.2125
3.0625	11.4129
3.0517	10.7273
3.041	10.2506
3.0303	9.352
3.0197	9.0939
3.0092	8.2879
2.9987	7.7019
2.9884	7.1795
2.9781	6.9716
2.9678	6.7799
2.9577	6.4077
2.9476	6.4577
2.9376	6.0846
2.9276	6.0094
2.9177	6.166
2.9079	6.213
2.8982	6.4649
2.8885	6.9726
2.8789	7.2168
2.8693	7.5614
2.8598	7.6793
2.8504	7.3583
2.841	7.1557
2.8317	6.689
2.8224	6.5601
2.8133	6.5132
2.8041	6.3722
2.7951	6.5205
2.786	6.9641
2.7771	8.043
2.7682	9.2396
2.7594	9.9673
2.7506	10.628
2.7418	11.4066
2.7332	11.947
2.7246	11.8868
2.716	11.7741
2.7075	18.6407
2.699	26.8319
2.6906	29.4515
2.6823	31.5973
2.674	32.6272
2.6657	33.6286
2.6575	33.5563
2.6494	33.6909
2.6413	33.8325
2.6332	34.2166
2.6252	34.294
2.6173	33.9775
2.6094	33.546
2.6015	33.0438
2.5937	33.1861
2.5859	32.7038
2.5782	32.4329
2.5706	32.4155
2.5629	32.6752
2.5554	32.6027
2.5478	32.9091
2.5403	33.1063
2.5329	33.2143
2.5255	33.2456
2.5181	33.2622
2.5108	33.2848
2.5035	33.6363
2.4963	33.4916
2.4891	33.5971
2.482	33.5038
2.4749	33.3919
2.4678	33.6094
2.4608	34.0186
2.4538	35.0887
2.4468	36.0501
2.4399	36.5863
2.4331	37.0397
2.4262	37.6333
2.4194	38.0889
2.4127	37.9564
2.4059	36.8097
2.3993	35.5738
2.3926	34.5579
2.386	34.415
2.3795	34.5027
2.3729	34.2278
2.3664	33.1254
2.36	31.5872
2.3535	30.3379
2.3471	29.1951
2.3408	27.8853
2.3345	27.2897
2.3282	26.8903
2.3219	27.5318
2.3157	28.6429
2.3095	29.8579
2.3034	30.4564
2.2972	30.4937
2.2911	31.3027
2.2851	33.6577
2.279	35.952
2.2731	36.5505
2.2671	36.6431
2.2612	36.501
2.2553	36.1594
2.2494	35.5269
2.2435	36.4696
2.2377	39.7084
2.232	43.8133
2.2262	46.9484
2.2205	49.2101
2.2148	51.0193
2.2091	52.4944
2.2035	53.6463
2.1979	54.587
2.1923	55.3075
2.1868	55.8998
2.1812	56.8932
2.1758	57.5375
2.1703	58.174
2.1649	58.4203
2.1595	58.8066
2.1541	59.084
2.1487	59.1843
2.1434	59.3879
2.1381	59.5433
2.1328	59.3037
2.1275	59.1782
2.1223	59.0109
2.1171	59.0819
2.112	58.8728
2.1068	59.0592
2.1017	59.5377
2.0966	59.9997
2.0915	60.5619
2.0865	60.9336
2.0814	60.7011
2.0764	60.6953
2.0715	60.0485
2.0665	60.0329
2.0616	59.6431
2.0567	59.1013
2.0518	58.6684
2.0469	57.8831
2.0421	57.3437
2.0373	56.5346
2.0325	55.7179
2.0277	54.893
2.0229	53.9537
2.0182	52.8604
2.0135	52.3185
2.0088	51.6252
2.0042	51.3167
