Name: Pyrolusite MnO_2
Type: Mineral
Class: Oxide
Subclass: None
Particle Size: Medium
Sample No.: O-6A
Owner: JPL
Wavelength Range: VSWIR
Origin: Mexico, Chihuahua
Description: Particle size was 45-125um.Collected by Grieger's Inc. Original ASTER Spectral Library name was jpl.beckman.mineral.oxide.none.medium.o06a.spectrum.txt
Measurement: Hemispherical reflectance
X Units: Wavelength (micrometers)
Y Units: Reflectance (percent)
wavelength	value
0.4	10.86
0.403	10.78
0.406	10.9
0.409	10.9
0.412	10.9
0.415	10.87
0.418	10.9
0.421	11
0.424	10.94
0.427	10.97
0.43	10.94
0.433	10.94
0.436	11.09
0.439	11
0.442	11
0.445	11.02
0.448	11.01
0.451	11.08
0.454	10.95
0.457	10.99
0.46	11.05
0.463	11.08
0.466	11
0.469	11.03
0.472	11.04
0.475	11.12
0.478	11.04
0.481	10.91
0.484	10.94
0.487	10.94
0.49	11.05
0.493	10.98
0.496	10.92
0.499	10.9
0.502	10.92
0.505	10.92
0.508	10.86
0.511	10.83
0.514	10.85
0.517	10.85
0.52	10.91
0.523	10.77
0.526	10.82
0.529	10.77
0.532	10.73
0.535	10.81
0.538	10.7
0.541	10.59
0.544	10.54
0.547	10.58
0.55	10.65
0.553	10.58
0.556	10.4
0.559	10.43
0.562	10.36
0.565	10.55
0.568	10.49
0.571	10.39
0.574	10.42
0.577	10.35
0.58	10.37
0.583	10.34
0.586	10.3
0.589	10.24
0.592	10.04
0.595	10.12
0.598	10.12
0.601	10.08
0.604	10.03
0.607	10.04
0.61	10.03
0.613	10.14
0.616	10.02
0.619	9.92
0.622	9.95
0.625	9.94
0.628	10.04
0.631	10.09
0.634	9.92
0.637	9.97
0.64	10.05
0.643	10.09
0.646	9.97
0.649	9.91
0.652	9.91
0.655	9.93
0.658	9.96
0.661	9.9
0.664	9.84
0.667	9.88
0.67	9.84
0.673	9.97
0.676	9.85
0.679	9.76
0.682	9.78
0.685	9.84
0.688	9.78
0.691	9.81
0.694	9.71
0.697	9.81
0.7	9.8
0.703	9.83
0.706	9.89
0.709	9.91
0.712	9.92
0.715	9.84
0.718	9.96
0.721	9.98
0.724	9.94
0.727	9.89
0.73	9.89
0.733	9.96
0.736	9.96
0.739	9.82
0.742	9.85
0.745	9.87
0.748	9.92
0.751	9.84
0.754	9.86
0.757	9.76
0.76	9.89
0.763	9.97
0.766	9.86
0.769	9.82
0.772	9.91
0.775	9.91
0.778	9.95
0.781	9.85
0.784	9.85
0.787	9.87
0.79	9.94
0.793	9.85
0.796	9.7
0.799	9.67
0.808	10.11
0.82	10.14
0.832	10.06
0.844	10.03
0.856	9.97
0.868	9.94
0.88	9.88
0.892	9.84
0.904	9.88
0.916	9.82
0.928	9.75
0.94	9.72
0.952	9.73
0.964	9.77
0.976	9.66
0.988	9.63
1	9.61
1.012	9.63
1.024	9.66
1.036	9.62
1.048	9.59
1.06	9.66
1.072	9.69
1.084	9.72
1.096	9.66
1.108	9.67
1.12	9.76
1.132	9.87
1.144	9.95
1.156	10.02
1.168	10.11
1.18	10.24
1.192	10.35
1.204	10.46
1.216	10.55
1.228	10.71
1.24	10.95
1.252	11.11
1.264	11.3
1.276	11.47
1.288	11.68
1.3	11.93
1.312	12.13
1.324	12.35
1.336	12.6
1.348	12.74
1.36	12.91
1.372	13.15
1.384	13.27
1.396	13.39
1.408	13.59
1.42	13.64
1.432	13.7
1.444	13.83
1.456	13.88
1.468	13.94
1.48	13.94
1.492	14
1.504	13.96
1.516	14
1.528	13.98
1.54	13.97
1.552	13.95
1.564	13.98
1.576	14.09
1.588	14.15
1.6	14.18
1.612	14.18
1.624	14.12
1.636	14.17
1.648	14.11
1.66	14.09
1.672	14.19
1.684	14.19
1.696	14.27
1.708	14.27
1.72	14.34
1.732	14.27
1.744	14.27
1.756	14.29
1.768	14.25
1.78	14.33
1.792	14.28
1.804	14.35
1.816	14.3
1.828	14.31
1.84	14.28
1.852	14.24
1.864	14.25
1.876	14.19
1.888	14.29
1.9	14.29
1.912	14.3
1.924	14.26
1.936	14.25
1.948	14.34
1.96	14.31
1.972	14.39
1.984	14.36
1.996	14.36
2.008	14.42
2.02	14.36
2.032	14.39
2.044	14.46
2.056	14.4
2.068	14.37
2.08	14.43
2.092	14.39
2.104	14.41
2.116	14.46
2.128	14.42
2.14	14.37
2.152	14.39
2.164	14.39
2.176	14.38
2.188	14.26
2.2	14.33
2.212	14.29
2.224	14.32
2.236	14.43
2.248	14.33
2.26	14.43
2.272	14.44
2.284	14.39
2.296	14.39
2.308	14.33
2.32	14.29
2.332	14.33
2.344	14.39
2.356	14.4
2.368	14.29
2.38	14.31
2.392	14.3
2.404	14.26
2.416	14.28
2.428	14.28
2.44	14.3
2.452	14.33
2.464	14.3
2.476	14.38
2.488	14.44
2.5	14.45
