Name: Barite, BaSO4
Type: Mineral
Class: Sulfate
Subclass: None
Particle Size: Solid
Sample No.: barite_1
Owner: JHU
Wavelength Range: TIR
Origin: Norma Vergo Sample from Carterville, Georgia.
Description: The pure white sample appeared to be pure barite with many grains showing what apear to be fluid inclusions. Original ASTER Spectral Library name was jhu.nicolet.mineral.sulfate.none.solid.barite1.spectrum.txt
Measurement: Bidirectional reflectance
X Units: Wavelength (micrometers)
Y Units: Reflectance (percent)
wavelength	value
25.0442	3.2734
24.3388	3.436
23.6719	3.5317
23.0407	3.7668
22.4422	3.7727
21.8741	3.8423
21.334	3.8599
20.8199	4.0166
20.33	4.1401
19.8627	4.2327
19.4163	4.2607
18.9896	4.3611
18.5812	4.479
18.19	4.5869
17.815	4.8169
17.4551	5.1103
17.1094	5.6846
16.7772	7.1421
16.4576	12.1406
16.15	11.1184
15.8537	4.4414
15.568	5.7676
15.2925	3.9004
15.0265	1.7903
14.7697	2.3423
14.5214	2.6987
14.2814	2.9211
14.0492	3.0847
13.8244	3.2478
13.6067	3.3862
13.3957	3.5007
13.1912	3.6133
12.9929	3.6562
12.8004	3.6833
12.6135	3.7505
12.432	3.8037
12.2557	3.8723
12.0843	3.9814
11.9176	4.124
11.7555	4.3127
11.5977	4.418
11.444	4.4194
11.2944	4.4328
11.1487	4.4883
11.0067	4.5644
10.8682	4.6699
10.7332	4.8205
10.6015	4.9526
10.473	5.1128
10.3476	5.2334
10.2251	5.5903
10.1056	4.8005
9.9887	5.5452
9.8746	5.8921
9.763	6.3056
9.6539	6.8855
9.5472	7.779
9.4429	9.581
9.3408	12.4421
9.2409	15.0334
9.1431	18.1318
9.0474	20.7546
8.9536	22.548
8.8618	23.6801
8.7718	23.2431
8.6837	18.7485
8.5973	15.6047
8.5126	13.6013
8.4295	10.7165
8.3481	8.2683
8.2682	7.49
8.1898	8.6716
8.1129	9.5227
8.0374	7.0439
7.9634	3.9504
7.8906	1.5281
7.8192	0.7463
7.7491	0.7939
7.6802	0.9695
7.6126	1.1494
7.5461	1.3142
7.4807	1.4658
7.4165	1.6025
7.3534	1.7529
7.2914	1.9304
7.2303	2.1706
7.1703	2.3896
7.1113	2.5903
7.0533	2.8479
6.9962	2.9624
6.94	2.9477
6.8847	3.1982
6.8302	3.3396
6.7767	3.4495
6.7239	3.4932
6.672	3.4507
6.6209	3.1985
6.5705	2.8179
6.5209	2.6333
6.4721	2.6357
6.424	2.6951
6.3766	2.8498
6.3299	2.9807
6.2838	2.7527
6.2385	2.7949
6.1937	2.9646
6.1496	3.1372
6.1062	3.5547
6.0633	3.9341
6.0211	4.0669
5.9794	4.1689
5.9383	4.2287
5.8978	4.2231
5.8578	4.1868
5.8184	4.1912
5.7794	4.2744
5.741	4.3274
5.7031	4.3557
5.6657	4.394
5.6288	4.4575
5.5924	4.5115
5.5564	4.5393
5.5209	4.5698
5.4859	4.615
5.4513	4.6741
5.4171	4.7558
5.3833	4.8782
5.35	4.9851
5.3171	5.0576
5.2846	5.0886
5.2524	5.0928
5.2207	5.0957
5.1893	5.0261
5.1584	5.0034
5.1277	4.7886
5.0975	3.8437
5.0676	4.1484
5.038	4.7302
5.0088	4.6343
4.98	4.4355
4.9514	4.0779
4.9232	3.6221
4.8953	3.2248
4.8678	3.1023
4.8405	3.0395
4.8135	3.082
4.7868	3.0901
4.7605	3.1177
4.7344	3.1409
4.7086	3.1028
4.6831	3.0947
4.6578	3.1142
4.6328	3.196
4.6081	3.2004
4.5837	3.2102
4.5595	3.186
4.5356	3.2224
4.5119	3.2966
4.4884	3.3645
4.4652	3.3872
4.4423	3.4163
4.4196	3.4639
4.3971	3.5395
4.3748	3.5969
4.3528	3.6684
4.331	3.7248
4.3094	3.6987
4.288	3.6511
4.2668	3.6704
4.2458	3.7363
4.2251	3.8596
4.2045	4.052
4.1841	4.3562
4.164	4.7783
4.144	5.0796
4.1242	5.3103
4.1046	5.4988
4.0852	5.647
4.066	5.7903
4.047	5.8996
4.0281	5.9768
4.0094	6.0447
3.9909	6.0683
3.9725	6.1096
3.9544	6.1609
3.9363	6.2239
3.9185	6.2805
3.9008	6.2795
3.8833	6.2092
3.8659	6.2495
3.8487	6.3323
3.8316	6.3952
3.8147	6.4768
3.7979	6.5058
3.7813	6.5307
3.7648	6.5456
3.7485	6.5405
3.7323	6.5588
3.7162	6.573
3.7003	6.5964
3.6845	6.603
3.6689	6.6218
3.6534	6.6284
3.638	6.636
3.6227	6.6328
3.6076	6.6365
3.5926	6.6462
3.5777	6.6616
3.563	6.6643
3.5484	6.6758
3.5338	6.675
3.5195	6.6806
3.5052	6.6775
3.491	6.6987
3.477	6.7173
3.463	6.7239
3.4492	6.7339
3.4355	6.7451
3.4219	6.7378
3.4084	6.7363
3.395	6.6797
3.3817	6.7749
3.3685	6.7876
3.3554	6.789
3.3425	6.7651
3.3296	6.7055
3.3168	6.5488
3.3041	6.3718
3.2915	6.4446
3.279	6.4834
3.2666	6.5547
3.2543	6.5825
3.2421	6.6372
3.23	6.6128
3.218	6.5591
3.206	6.53
3.1942	6.5434
3.1824	6.542
3.1707	6.5515
3.1591	6.5722
3.1476	6.5779
3.1362	6.6011
3.1249	6.604
3.1136	6.5918
3.1024	6.574
3.0913	6.5981
3.0803	6.6221
3.0694	6.6338
3.0585	6.6372
3.0477	6.6482
3.037	6.6543
3.0264	6.6806
3.0158	6.6889
3.0053	6.7038
2.9949	6.7217
2.9845	6.7383
2.9743	6.7363
2.9641	6.7676
2.9539	6.7641
2.9439	6.7715
2.9339	6.7798
2.9239	6.7886
2.9141	6.8013
2.9043	6.8149
2.8946	6.8139
2.8849	6.8288
2.8753	6.8315
2.8658	6.8545
2.8563	6.8652
2.8469	6.8769
2.8375	6.9057
2.8282	6.9516
2.819	6.9585
2.8098	6.979
2.8007	6.9958
2.7917	7.0254
2.7827	7.0222
2.7738	7.0019
2.7649	7.0434
2.7561	7.0525
2.7473	7.0864
2.7386	7.0984
2.7299	7.1116
2.7213	7.1316
2.7128	7.1521
2.7043	7.1245
2.6959	7.1518
2.6875	7.1694
2.6791	7.1533
2.6709	7.1777
2.6626	7.1836
2.6545	7.166
2.6463	7.144
2.6382	7.123
2.6302	7.1399
2.6222	7.123
2.6143	7.1474
2.6064	7.105
2.5986	7.1203
2.5908	7.0928
2.583	7.0932
2.5753	7.0669
2.5677	7.0698
2.5601	7.0659
2.5525	7.0351
2.545	7.0539
2.5375	7.0107
2.5301	7.0068
2.5227	7.0129
2.5154	6.9768
2.5081	6.9604
2.5008	6.9807
2.4936	6.9553
2.4864	6.9297
2.4793	6.9114
2.4722	6.9231
2.4651	6.9184
2.4581	6.9162
2.4511	6.8901
2.4442	6.8926
2.4373	6.853
2.4305	6.8423
2.4236	6.8638
2.4169	6.8681
2.4101	6.8198
2.4034	6.8315
2.3967	6.8032
2.3901	6.8388
2.3835	6.812
2.377	6.7988
2.3704	6.8105
2.364	6.8193
2.3575	6.834
2.3511	6.8208
2.3447	6.7998
2.3384	6.7851
2.3321	6.8096
2.3258	6.79
2.3195	6.7715
2.3133	6.8056
2.3071	6.8071
2.301	6.7563
2.2949	6.8247
2.2888	6.8457
2.2828	6.8408
2.2767	6.8047
2.2708	6.7832
2.2648	6.7773
2.2589	6.8266
2.253	6.854
2.2471	6.8496
2.2413	6.8506
2.2355	6.8847
2.2297	6.8945
2.224	6.8984
2.2183	6.9004
2.2126	6.9634
2.207	6.9824
2.2013	6.9614
2.1957	6.9223
2.1902	6.9868
2.1846	6.9848
2.1791	6.9844
2.1736	7.0176
2.1682	7.0532
2.1628	7.0571
2.1574	7.0703
2.152	7.1079
2.1466	7.1391
2.1413	7.1118
2.136	7.1001
2.1308	7.147
2.1255	7.2153
2.1203	7.188
2.1151	7.2314
2.11	7.1982
2.1048	7.2305
2.0997	7.3027
2.0946	7.3379
2.0895	7.334
2.0845	7.2949
2.0795	7.4111
