Name: Smectite Na0.33Fe2+3(Si,Al)4 O10.3H2O
Type: Mineral
Class: Silicate
Subclass: Phyllosilicate
Particle Size: Coarse
Sample No.: smectite_1
Owner: JHU
Wavelength Range: TIR
Origin: Grant Co., Washington, USA via the Clay Mineral SocietySource Clay Mineral Repository #CMS SWa-1
Description: Described by CMS as a ferruginous smectite, the sample was a brown, earthy clay. The less than 2 micrometers size fraction is pure Fe-smectite (probably nontronite).  The larger size fraction contains a small amount of quartz and was discarded.Particle size was 0-2 micrometers and sample was packed powder simulates coarse.(Sheet silicates); Smectite Group Original ASTER Spectral Library name was jhu.nicolet.mineral.silicate.phyllosilicate.packed.smecti1.spectrum.txt
Measurement: Bidirectional reflectance
X Units: Wavelength (micrometers)
Y Units: Reflectance (percent)
wavelength	value
25.0442	10.0459
24.3388	11.0957
23.6719	11.469
23.0407	11.5522
22.4422	11.7182
21.8741	11.7026
21.334	11.6108
20.8199	10.437
20.33	11.4038
19.8627	11.967
19.4163	12.592
18.9896	13.1804
18.5812	13.2617
18.19	12.7253
17.815	11.2868
17.4551	9.4087
17.1094	7.3598
16.7772	5.8293
16.4576	4.7576
16.15	4.0232
15.8537	3.7322
15.568	3.7251
15.2925	3.8984
15.0265	4.094
14.7697	4.1909
14.5214	4.1282
14.2814	4.1467
14.0492	4.2668
13.8244	4.4336
13.6067	4.6308
13.3957	4.7517
13.1912	4.8679
12.9929	4.9421
12.8004	5.0268
12.6135	5.05
12.432	5.1352
12.2557	5.2021
12.0843	5.0471
11.9176	5.2004
11.7555	5.3201
11.5977	5.4399
11.444	5.3821
11.2944	5.23
11.1487	5.4385
11.0067	5.6592
10.8682	5.8091
10.7332	5.9158
10.6015	6.0957
10.473	6.3218
10.3476	6.5681
10.2251	6.8623
10.1056	7.2871
9.9887	7.8193
9.8746	8.4184
9.763	9.0752
9.6539	9.7605
9.5472	10.3984
9.4429	10.8825
9.3408	10.8169
9.2409	10.2112
9.1431	9.5832
9.0474	9.134
8.9536	8.9267
8.8618	9.1411
8.7718	9.4136
8.6837	9.1557
8.5973	8.102
8.5126	6.3003
8.4295	3.9101
8.3481	1.8486
8.2682	1.2646
8.1898	1.5308
8.1129	1.9209
8.0374	2.2944
7.9634	2.6523
7.8906	2.9954
7.8192	3.3479
7.7491	3.6716
7.6802	3.9726
7.6126	4.2322
7.5461	4.4714
7.4807	4.6797
7.4165	4.8735
7.3534	5.0359
7.2914	5.1702
7.2303	5.2956
7.1703	5.4348
7.1113	5.5762
7.0533	5.7004
6.9962	5.8633
6.94	6.0337
6.8847	6.1931
6.8302	6.3393
6.7767	6.448
6.7239	6.5954
6.672	6.7124
6.6209	6.7737
6.5705	6.7805
6.5209	6.7641
6.4721	6.6897
6.424	6.5122
6.3766	6.2898
6.3299	5.9038
6.2838	5.2707
6.2385	4.4302
6.1937	3.8379
6.1496	3.5469
6.1062	3.5102
6.0633	3.6631
6.0211	3.8911
5.9794	4.2942
5.9383	4.8535
5.8978	5.4487
5.8578	5.9722
5.8184	6.3457
5.7794	6.7207
5.741	7.0212
5.7031	7.2519
5.6657	7.4143
5.6288	7.5029
5.5924	7.5229
5.5564	7.5049
5.5209	7.4907
5.4859	7.4858
5.4513	7.5469
5.4171	7.6521
5.3833	7.8044
5.35	7.9768
5.3171	8.1741
5.2846	8.3242
5.2524	8.4438
5.2207	8.5493
5.1893	8.6758
5.1584	8.831
5.1277	9.021
5.0975	9.2483
5.0676	9.4907
5.038	9.7673
5.0088	10.0288
4.98	10.237
4.9514	10.4194
4.9232	10.5693
4.8953	10.6858
4.8678	10.7983
4.8405	10.8855
4.8135	10.9878
4.7868	11.0446
4.7605	11.1189
4.7344	11.1657
4.7086	11.2163
4.6831	11.2468
4.6578	11.2822
4.6328	11.3305
4.6081	11.3667
4.5837	11.3947
4.5595	11.4221
4.5356	11.4638
4.5119	11.5136
4.4884	11.5737
4.4652	11.6296
4.4423	11.7058
4.4196	11.7895
4.3971	11.8645
4.3748	11.9524
4.3528	12.0427
4.331	12.1421
4.3094	12.2512
4.288	12.3593
4.2668	12.4638
4.2458	12.5925
4.2251	12.7107
4.2045	12.8369
4.1841	12.9536
4.164	13.062
4.144	13.1611
4.1242	13.2854
4.1046	13.3979
4.0852	13.5239
4.066	13.6184
4.047	13.7148
4.0281	13.8098
4.0094	13.8862
3.9909	13.9416
3.9725	13.9799
3.9544	14.0112
3.9363	14.011
3.9185	14.0136
3.9008	13.9904
3.8833	13.9582
3.8659	13.8725
3.8487	13.8051
3.8316	13.7212
3.8147	13.6201
3.7979	13.5022
3.7813	13.3872
3.7648	13.269
3.7485	13.1279
3.7323	12.9968
3.7162	12.8342
3.7003	12.6548
3.6845	12.4538
3.6689	12.2524
3.6534	12.0671
3.638	11.8889
3.6227	11.6967
3.6076	11.5315
3.5926	11.3347
3.5777	11.1428
3.563	10.9533
3.5484	10.7155
3.5338	10.4768
3.5195	10.1784
3.5052	9.8337
3.491	9.7165
3.477	9.5676
3.463	9.3415
3.4492	9.0925
3.4355	8.8244
3.4219	8.448
3.4084	8.2422
3.395	8.144
3.3817	7.9846
3.3685	7.8044
3.3554	7.5932
3.3425	7.3652
3.3296	7.1465
3.3168	6.9199
3.3041	6.7158
3.2915	6.5129
3.279	6.2839
3.2666	6.0791
3.2543	5.8711
3.2421	5.678
3.23	5.4958
3.218	5.3118
3.206	5.1533
3.1942	4.9587
3.1824	4.8113
3.1707	4.6799
3.1591	4.5417
3.1476	4.4182
3.1362	4.2949
3.1249	4.1921
3.1136	4.1064
3.1024	4.0481
3.0913	3.9873
3.0803	3.9553
3.0694	3.9289
3.0585	3.9126
3.0477	3.9036
3.037	3.8704
3.0264	3.8176
3.0158	3.7695
3.0053	3.6992
2.9949	3.6528
2.9845	3.6018
2.9743	3.5657
2.9641	3.5137
2.9539	3.5
2.9439	3.4719
2.9339	3.4614
2.9239	3.4475
2.9141	3.4297
2.9043	3.4297
2.8946	3.4092
2.8849	3.3879
2.8753	3.3865
2.8658	3.3735
2.8563	3.3745
2.8469	3.3308
2.8375	3.2725
2.8282	3.093
2.819	2.896
2.8098	2.7341
2.8007	2.6033
2.7917	2.5168
2.7827	2.488
2.7738	2.4807
2.7649	2.478
2.7561	2.5124
2.7473	2.6001
2.7386	2.7683
2.7299	2.9795
2.7213	3.3933
2.7128	4.188
2.7043	5.2197
2.6959	6.2895
2.6875	7.6733
2.6791	8.6604
2.6709	9.4136
2.6626	10.0761
2.6545	10.5049
2.6463	10.8818
2.6382	11.1909
2.6302	11.3889
2.6222	11.6672
2.6143	11.852
2.6064	12.0146
2.5986	12.2094
2.5908	12.3606
2.583	12.4196
2.5753	12.5507
2.5677	12.6601
2.5601	12.7431
2.5525	12.832
2.545	12.9048
2.5375	13.0092
2.5301	13.0791
2.5227	13.1157
2.5154	13.1565
2.5081	13.2153
2.5008	13.2788
2.4936	13.3681
2.4864	13.5385
2.4793	13.747
2.4722	13.8574
2.4651	13.9487
2.4581	14.0859
2.4511	14.2385
2.4442	14.2929
2.4373	14.4106
2.4305	14.4965
2.4236	14.5473
2.4169	14.5986
2.4101	14.601
2.4034	14.5962
2.3967	14.6953
2.3901	14.8261
2.3835	15.0864
2.377	15.2837
2.3704	15.5371
2.364	15.8071
2.3575	16.1225
2.3511	16.4213
2.3447	16.6679
2.3384	16.8344
2.3321	16.9414
2.3258	17.0595
2.3195	17.0744
2.3133	16.8557
2.3071	16.4384
2.301	15.9174
2.2949	15.4077
2.2888	15.073
2.2828	15.1701
2.2767	15.6674
2.2708	16.3391
2.2648	16.8977
2.2589	17.2146
2.253	17.1911
2.2471	16.9611
2.2413	16.7883
2.2355	16.7934
2.2297	16.8728
2.224	17.1699
2.2183	17.5639
2.2126	17.8344
2.207	18.1105
2.2013	18.2568
2.1957	18.4152
2.1902	18.583
2.1846	18.6987
2.1791	18.9794
2.1736	19.2509
2.1682	19.4731
2.1628	19.6201
2.1574	19.7216
2.152	19.7209
2.1466	19.708
2.1413	19.7563
2.136	19.7805
2.1308	19.747
2.1255	19.8117
2.1203	19.874
2.1151	19.8178
2.11	19.8095
2.1048	19.9179
2.0997	19.7912
2.0946	19.8977
2.0895	19.9355
2.0845	19.9511
2.0795	19.9055
