Name: Tremolite Ca2(Mg, Fe+2)5Si8O22(OH)2
Type: Mineral
Class: Silicate
Subclass: Inosilicate
Particle Size: Coarse
Sample No.: tremol_1
Owner: JHU
Wavelength Range: TIR
Origin: Balmat, New York, USA via Bruce Hemingway, USGS
Description: The sample consisted of 2-3 cm long x 1-2 cm wide mass of white tremolite crystals.  The sample appeared pure in hand specimen and under the microscope. Particle size was 75 - 250  Micrometers.(Chain Silicates); (Amphibole Group) Original ASTER Spectral Library name was jhu.nicolet.mineral.silicate.inosilicate.coarse.tremol1.spectrum.txt
Measurement: Bidirectional reflectance
X Units: Wavelength (micrometers)
Y Units: Reflectance (percent)
wavelength	value
25.0442	3.6084
24.3388	3.3057
23.6719	4.2131
23.0407	4.3428
22.4422	6.6772
21.8741	7.8164
21.334	6.0871
20.8199	5.9399
20.33	5.9328
19.8627	6.7436
19.4163	6.9241
18.9896	8.0815
18.5812	9.3547
18.19	7.9167
17.815	7.209
17.4551	6.6098
17.1094	4.4668
16.7772	2.279
16.4576	0.8906
16.15	0.793
15.8537	1.0066
15.568	1.2522
15.2925	1.2698
15.0265	1.468
14.7697	1.678
14.5214	2.4582
14.2814	1.5071
14.0492	1.1621
13.8244	1.3474
13.6067	1.4614
13.3957	1.7419
13.1912	2.6223
12.9929	2.2305
12.8004	1.2297
12.6135	1.3955
12.432	1.5432
12.2557	1.6916
12.0843	1.7686
11.9176	1.8498
11.7555	1.9377
11.5977	2.0425
11.444	2.1995
11.2944	2.374
11.1487	2.6013
11.0067	3.0349
10.8682	3.8652
10.7332	2.6938
10.6015	3.6274
10.473	5.2463
10.3476	6.1089
10.2251	7.0217
10.1056	8.4118
9.9887	8.1836
9.8746	7.2112
9.763	5.1145
9.6539	5.1374
9.5472	4.9089
9.4429	5.1963
9.3408	6.0063
9.2409	7.0554
9.1431	6.6799
9.0474	5.4797
8.9536	5.0539
8.8618	5.0898
8.7718	5.9497
8.6837	6.001
8.5973	4.6599
8.5126	3.1201
8.4295	2.0774
8.3481	1.2593
8.2682	0.7056
8.1898	0.4404
8.1129	0.4248
8.0374	0.5137
7.9634	0.6331
7.8906	0.7668
7.8192	0.8853
7.7491	0.947
7.6802	1.0466
7.6126	1.1604
7.5461	1.2297
7.4807	1.1958
7.4165	1.2353
7.3534	1.2854
7.2914	1.407
7.2303	1.5295
7.1703	1.6804
7.1113	1.8132
7.0533	1.9644
6.9962	2.0891
6.94	2.2412
6.8847	2.3484
6.8302	2.3694
6.7767	2.4465
6.7239	2.5098
6.672	2.582
6.6209	2.759
6.5705	3.0017
6.5209	3.05
6.4721	2.8899
6.424	2.7424
6.3766	2.5542
6.3299	2.3074
6.2838	2.0408
6.2385	1.8577
6.1937	1.7717
6.1496	1.7937
6.1062	1.8643
6.0633	2.0071
6.0211	2.2134
5.9794	2.1924
5.9383	1.9558
5.8978	1.884
5.8578	2.0237
5.8184	2.1599
5.7794	2.25
5.741	2.3769
5.7031	2.4402
5.6657	2.3865
5.6288	2.4001
5.5924	2.5056
5.5564	2.6055
5.5209	2.6731
5.4859	2.6438
5.4513	2.55
5.4171	2.7905
5.3833	2.957
5.35	2.9163
5.3171	2.8625
5.2846	3.0767
5.2524	3.1526
5.2207	3.4116
5.1893	3.5979
5.1584	3.2871
5.1277	3.0571
5.0975	3.1614
5.0676	3.2185
5.038	3.3047
5.0088	3.4956
4.98	3.709
4.9514	3.8962
4.9232	4.133
4.8953	4.3396
4.8678	4.4138
4.8405	4.4878
4.8135	4.4714
4.7868	4.5649
4.7605	4.9626
4.7344	5.3782
4.7086	5.5869
4.6831	5.7934
4.6578	6.1511
4.6328	6.4944
4.6081	6.8784
4.5837	7.1504
4.5595	7.4468
4.5356	7.8127
4.5119	8.0586
4.4884	8.3479
4.4652	8.5713
4.4423	8.7317
4.4196	8.8318
4.3971	8.9074
4.3748	8.9573
4.3528	8.9895
4.331	9.0075
4.3094	9.0266
4.288	9.0505
4.2668	9.0881
4.2458	9.1264
4.2251	9.1594
4.2045	9.1928
4.1841	9.2024
4.164	9.2292
4.144	9.2387
4.1242	9.2702
4.1046	9.3093
4.0852	9.363
4.066	9.407
4.047	9.4521
4.0281	9.4743
4.0094	9.5085
3.9909	9.5271
3.9725	9.5442
3.9544	9.5901
3.9363	9.6347
3.9185	9.667
3.9008	9.7126
3.8833	9.7624
3.8659	9.7678
3.8487	9.7956
3.8316	9.8149
3.8147	9.8293
3.7979	9.8362
3.7813	9.8642
3.7648	9.8706
3.7485	9.8923
3.7323	9.9104
3.7162	9.9114
3.7003	9.9018
3.6845	9.8864
3.6689	9.885
3.6534	9.8882
3.638	9.9062
3.6227	9.9214
3.6076	9.9304
3.5926	9.9394
3.5777	9.9414
3.563	9.9184
3.5484	9.8923
3.5338	9.8464
3.5195	9.7712
3.5052	9.6316
3.491	9.6643
3.477	9.6728
3.463	9.6645
3.4492	9.6352
3.4355	9.542
3.4219	9.3347
3.4084	9.1748
3.395	9.0837
3.3817	8.8894
3.3685	8.7695
3.3554	8.5097
3.3425	8.2903
3.3296	8.6638
3.3168	8.6223
3.3041	8.6028
3.2915	8.9407
3.279	9.5234
3.2666	9.6772
3.2543	9.7002
3.2421	9.657
3.23	9.5893
3.218	9.5788
3.206	9.4848
3.1942	9.3017
3.1824	8.9751
3.1707	8.7449
3.1591	9.0234
3.1476	9.2658
3.1362	9.3728
3.1249	9.3545
3.1136	9.3017
3.1024	9.3257
3.0913	9.3169
3.0803	9.2275
3.0694	9.2094
3.0585	9.1677
3.0477	9.0757
3.037	9.0456
3.0264	9.05
3.0158	8.9817
3.0053	8.9067
2.9949	8.8535
2.9845	8.7463
2.9743	8.6135
2.9641	8.6494
2.9539	8.8232
2.9439	8.8987
2.9339	8.9309
2.9239	8.9099
2.9141	8.8774
2.9043	8.831
2.8946	8.8203
2.8849	8.8845
2.8753	8.9043
2.8658	8.8838
2.8563	8.9016
2.8469	8.9316
2.8375	8.997
2.8282	8.9944
2.819	9.0364
2.8098	9.0212
2.8007	9.1242
2.7917	9.0537
2.7827	8.9875
2.7738	8.7168
2.7649	8.2529
2.7561	8.5832
2.7473	8.635
2.7386	7.3611
2.7299	4.115
2.7213	2.4175
2.7128	6.9651
2.7043	7.9045
2.6959	7.2395
2.6875	8.2375
2.6791	9.3181
2.6709	9.7871
2.6626	10.0998
2.6545	10.1089
2.6463	10.0102
2.6382	9.8874
2.6302	9.8252
2.6222	9.7849
2.6143	9.7575
2.6064	9.5757
2.5986	9.5927
2.5908	9.5324
2.583	9.5461
2.5753	9.4712
2.5677	9.1987
2.5601	9.1416
2.5525	9.3379
2.545	9.5405
2.5375	9.5752
2.5301	9.5661
2.5227	9.4912
2.5154	9.1308
2.5081	9.2241
2.5008	9.1582
2.4936	9.0171
2.4864	9
2.4793	8.8442
2.4722	8.8823
2.4651	8.7446
2.4581	8.6836
2.4511	9.0007
2.4442	8.8144
2.4373	9.0522
2.4305	9.3852
2.4236	9.2812
2.4169	8.917
2.4101	9.2124
2.4034	9.2407
2.3967	8.2822
2.3901	7.3818
2.3835	6.956
2.377	7.7944
2.3704	8.6116
2.364	9.105
2.3575	9.4341
2.3511	9.5014
2.3447	9.8183
2.3384	9.8603
2.3321	9.5029
2.3258	8.2656
2.3195	6.4975
2.3133	6.1401
2.3071	6.7536
2.301	6.604
2.2949	6.6484
2.2888	7.7683
2.2828	8.0403
2.2767	8.5102
2.2708	8.9885
2.2648	9.5168
2.2589	9.917
2.253	10.0874
2.2471	10.2065
2.2413	10.2436
2.2355	10.3523
2.2297	10.4009
2.224	10.3667
2.2183	10.386
2.2126	10.3952
2.207	10.3889
2.2013	10.3606
2.1957	10.394
2.1902	10.3813
2.1846	10.3774
2.1791	10.3144
2.1736	10.3686
2.1682	10.4018
2.1628	10.4048
2.1574	10.3564
2.152	10.2466
2.1466	10.1965
2.1413	10.2627
2.136	10.2812
2.1308	10.0879
2.1255	10.1721
2.1203	10.0783
2.1151	10.1338
2.11	9.9297
2.1048	10.2925
2.0997	10.4426
2.0946	10.4895
2.0895	10.5285
2.0845	10.4277
2.0795	10.5683
