Name: Sanidine (K,Na)Al3O8
Type: Mineral
Class: Silicate
Subclass: Tectosilicate
Particle Size: Coarse
Sample No.: sanidine_1
Owner: JHU
Wavelength Range: TIR
Origin: Volkesfeld bei Kempenick, Eifel, Rheinland, Germany via DaveStewart, USGS
Description: The hand sample was a large (56.16 g) fragment of what appeared to be a badly fractured single crystal. Small fragments were transparent but "smoky." The sample showed no significant contamination under the microscope. Particle size was 75 - 250  Micrometers.(Feldspar Group) Original ASTER Spectral Library name was jhu.nicolet.mineral.silicate.tectosilicate.coarse.sanidi1.spectrum.txt
Measurement: Bidirectional reflectance
X Units: Wavelength (micrometers)
Y Units: Reflectance (percent)
wavelength	value
25.0442	3.9673
24.3388	3.8271
23.6719	4.4221
23.0407	5.1587
22.4422	4.7212
21.8741	3.3066
21.334	2.5698
20.8199	2.1155
20.33	1.7305
19.8627	1.9966
19.4163	2.1501
18.9896	2.3127
18.5812	2.6335
18.19	2.8667
17.815	2.7463
17.4551	3.2781
17.1094	3.7981
16.7772	4.1706
16.4576	4.081
16.15	3.1335
15.8537	2.2261
15.568	2.102
15.2925	1.5105
15.0265	1.4756
14.7697	1.6279
14.5214	1.7634
14.2814	1.865
14.0492	1.8674
13.8244	1.8074
13.6067	1.749
13.3957	1.7275
13.1912	1.7024
12.9929	1.7122
12.8004	1.6968
12.6135	1.6196
12.432	1.5808
12.2557	1.7695
12.0843	1.9507
11.9176	2.0737
11.7555	2.1418
11.5977	2.1633
11.444	2.2334
11.2944	2.2666
11.1487	2.2808
11.0067	2.3816
10.8682	2.4482
10.7332	2.5659
10.6015	2.7092
10.473	2.885
10.3476	3.1767
10.2251	3.5112
10.1056	3.8913
9.9887	4.2751
9.8746	4.6396
9.763	4.9451
9.6539	5.3938
9.5472	5.886
9.4429	6.105
9.3408	5.2676
9.2409	4.8503
9.1431	4.6789
9.0474	4.696
8.9536	4.8
8.8618	5.0994
8.7718	5.8301
8.6837	6.3569
8.5973	6.3559
8.5126	6.1511
8.4295	6.1521
8.3481	6.1826
8.2682	5.5613
8.1898	4.4228
8.1129	3.1907
8.0374	2.0168
7.9634	1.0459
7.8906	0.4561
7.8192	0.2598
7.7491	0.2864
7.6802	0.3838
7.6126	0.4861
7.5461	0.5811
7.4807	0.6592
7.4165	0.7341
7.3534	0.8062
7.2914	0.8796
7.2303	0.9502
7.1703	1.0439
7.1113	1.1252
7.0533	1.1799
6.9962	1.2322
6.94	1.2734
6.8847	1.2942
6.8302	1.3171
6.7767	1.3594
6.7239	1.3811
6.672	1.4177
6.6209	1.4263
6.5705	1.4448
6.5209	1.4385
6.4721	1.425
6.424	1.3957
6.3766	1.3516
6.3299	1.3315
6.2838	1.3188
6.2385	1.3315
6.1937	1.3398
6.1496	1.3787
6.1062	1.4141
6.0633	1.4607
6.0211	1.4888
5.9794	1.5281
5.9383	1.5315
5.8978	1.5178
5.8578	1.4868
5.8184	1.4373
5.7794	1.4119
5.741	1.376
5.7031	1.343
5.6657	1.3396
5.6288	1.3523
5.5924	1.3821
5.5564	1.4556
5.5209	1.5591
5.4859	1.6653
5.4513	1.7849
5.4171	1.8833
5.3833	1.9727
5.35	2.0491
5.3171	2.1367
5.2846	2.2559
5.2524	2.4448
5.2207	2.6965
5.1893	3.0278
5.1584	3.385
5.1277	3.7847
5.0975	4.1985
5.0676	4.612
5.038	4.9468
5.0088	5.1306
4.98	5.146
4.9514	5.0408
4.9232	4.8745
4.8953	4.7331
4.8678	4.6628
4.8405	4.6572
4.8135	4.6933
4.7868	4.7224
4.7605	4.74
4.7344	4.7532
4.7086	4.7825
4.6831	4.8176
4.6578	4.9053
4.6328	5.052
4.6081	5.2412
4.5837	5.4856
4.5595	5.7576
4.5356	6.0625
4.5119	6.3569
4.4884	6.6784
4.4652	6.9931
4.4423	7.3083
4.4196	7.6228
4.3971	7.9494
4.3748	8.2754
4.3528	8.6003
4.331	8.9277
4.3094	9.2402
4.288	9.5439
4.2668	9.82
4.2458	10.0356
4.2251	10.2126
4.2045	10.341
4.1841	10.4384
4.164	10.5205
4.144	10.5571
4.1242	10.591
4.1046	10.604
4.0852	10.6308
4.066	10.6596
4.047	10.6833
4.0281	10.7168
4.0094	10.7485
3.9909	10.7788
3.9725	10.8281
3.9544	10.8623
3.9363	10.9043
3.9185	10.9504
3.9008	11.0012
3.8833	11.0437
3.8659	11.0871
3.8487	11.1347
3.8316	11.1706
3.8147	11.2307
3.7979	11.2568
3.7813	11.2929
3.7648	11.3217
3.7485	11.3374
3.7323	11.3708
3.7162	11.3767
3.7003	11.4021
3.6845	11.4067
3.6689	11.4138
3.6534	11.4253
3.638	11.4272
3.6227	11.4153
3.6076	11.4094
3.5926	11.3925
3.5777	11.395
3.563	11.375
3.5484	11.353
3.5338	11.3313
3.5195	11.3166
3.5052	11.2834
3.491	11.2827
3.477	11.2453
3.463	11.2212
3.4492	11.1794
3.4355	11.1159
3.4219	11.0727
3.4084	11.0427
3.395	10.9883
3.3817	10.9602
3.3685	10.9316
3.3554	10.883
3.3425	10.8567
3.3296	10.831
3.3168	10.7761
3.3041	10.761
3.2915	10.7414
3.279	10.6904
3.2666	10.6726
3.2543	10.6245
3.2421	10.5864
3.23	10.55
3.218	10.52
3.206	10.4778
3.1942	10.4533
3.1824	10.4272
3.1707	10.3987
3.1591	10.3586
3.1476	10.3254
3.1362	10.2844
3.1249	10.2385
3.1136	10.2121
3.1024	10.175
3.0913	10.1445
3.0803	10.1108
3.0694	10.0639
3.0585	10.0298
3.0477	9.9983
3.037	9.9714
3.0264	9.938
3.0158	9.9004
3.0053	9.8608
2.9949	9.8471
2.9845	9.8232
2.9743	9.7942
2.9641	9.7668
2.9539	9.751
2.9439	9.7292
2.9339	9.7336
2.9239	9.7539
2.9141	9.7729
2.9043	9.8379
2.8946	9.9114
2.8849	9.9963
2.8753	10.1032
2.8658	10.2058
2.8563	10.3332
2.8469	10.4883
2.8375	10.593
2.8282	10.7175
2.819	10.8393
2.8098	10.9831
2.8007	11.1023
2.7917	11.1804
2.7827	11.2768
2.7738	11.375
2.7649	11.4848
2.7561	11.5835
2.7473	11.6631
2.7386	11.7815
2.7299	11.843
2.7213	11.8947
2.7128	11.9397
2.7043	11.9509
2.6959	11.9821
2.6875	11.9812
2.6791	12.0341
2.6709	12.0547
2.6626	12.0634
2.6545	12.0708
2.6463	12.0908
2.6382	12.0686
2.6302	12.063
2.6222	12.0862
2.6143	12.0913
2.6064	12.0661
2.5986	12.0695
2.5908	12.0798
2.583	12.0847
2.5753	12.0717
2.5677	12.0522
2.5601	12.0393
2.5525	12.0444
2.545	12.0332
2.5375	12.021
2.5301	12.0383
2.5227	12.0092
2.5154	12.0149
2.5081	12.0039
2.5008	11.9931
2.4936	11.9687
2.4864	11.957
2.4793	11.9272
2.4722	11.9338
2.4651	11.8994
2.4581	11.8952
2.4511	11.9121
2.4442	11.8794
2.4373	11.8745
2.4305	11.8803
2.4236	11.8589
2.4169	11.8708
2.4101	11.8701
2.4034	11.874
2.3967	11.7939
2.3901	11.8315
2.3835	11.7956
2.377	11.7934
2.3704	11.8086
2.364	11.7583
2.3575	11.7778
2.3511	11.7517
2.3447	11.7639
2.3384	11.7282
2.3321	11.6902
2.3258	11.6804
2.3195	11.7019
2.3133	11.6653
2.3071	11.6687
2.301	11.6428
2.2949	11.6301
2.2888	11.6491
2.2828	11.6311
2.2767	11.6098
2.2708	11.6179
2.2648	11.612
2.2589	11.5971
2.253	11.5625
2.2471	11.5393
2.2413	11.5571
2.2355	11.5327
2.2297	11.5095
2.224	11.4853
2.2183	11.52
2.2126	11.5207
2.207	11.4904
2.2013	11.4702
2.1957	11.4944
2.1902	11.5171
2.1846	11.5224
2.1791	11.4756
2.1736	11.5034
2.1682	11.5083
2.1628	11.5576
2.1574	11.5561
2.152	11.5376
2.1466	11.4521
2.1413	11.5022
2.136	11.5305
2.1308	11.4592
2.1255	11.4758
2.1203	11.511
2.1151	11.5356
2.11	11.5136
2.1048	11.5322
2.0997	11.4839
2.0946	11.5
2.0895	11.5244
2.0845	11.4887
2.0795	11.5224
