Name: Lepidolite K(Li,Al)3(Si,Al)_4O_10(F,OH)_2
Type: Mineral
Class: Silicate
Subclass: Phyllosilicate
Particle Size: Fine
Sample No.: PS-13A
Owner: JPL
Wavelength Range: TIR
Origin: USA, South Dakota
Description: Yellow lepidolite.Particle size was 0-45um.Collected by Ward's Original ASTER Spectral Library name was jpl.nicolet.mineral.silicate.phyllosilicate.fine.ps13a.spectrum.txt
Measurement: Hemispherical reflectance
X Units: Wavelength (micrometers)
Y Units: Reflectance (percent)
wavelength	value
15.3853	1.4102
15.1161	1.8073
14.8563	1.7177
14.6052	1.8982
14.3624	2.0881
14.1276	2.2377
13.9004	2.5064
13.6803	2.488
13.4671	2.601
13.2604	2.2578
13.06	1.9488
12.8656	2.3741
12.6769	3.0743
12.4936	2.6173
12.3155	3.1152
12.1425	4.0167
11.9742	4.3488
11.8106	5.8853
11.6513	6.1905
11.4963	5.6619
11.3454	5.2937
11.1983	5.1948
11.0551	5.0707
10.9154	4.7078
10.7793	4.8579
10.6465	4.5321
10.5169	4.7613
10.3904	5.5813
10.267	6.6528
10.1464	7.4609
10.0287	7.789
9.9136	8.268
9.8012	8.9883
9.6913	10.6722
9.5838	12.168
9.4787	9.057
9.3758	9.5991
9.2752	11.3092
9.1767	12.738
9.0803	12.6619
8.9858	12.0877
8.8934	11.4271
8.8028	10.3866
8.714	8.9274
8.627	6.2429
8.5417	4.3652
8.4581	3.1054
8.3761	2.3097
8.2957	1.7844
8.2169	1.5546
8.1395	1.2245
8.0635	1.1734
7.989	1.3598
7.9158	1.7946
7.8439	2.2188
7.7734	2.8998
7.7041	3.6138
7.636	4.4783
7.5691	5.5795
7.5034	6.4924
7.4388	7.315
7.3753	8.0869
7.3129	8.7794
7.2515	9.5371
7.1912	10.1755
7.1318	10.6593
7.0734	11.0813
7.016	11.6561
6.9595	12.7496
6.9039	13.6523
6.8492	15.0968
6.7953	16.5907
6.7423	17.9703
6.6901	19.32
6.6387	20.5572
6.5881	21.0568
6.5382	21.8932
6.4892	23.196
6.4408	23.2918
6.3931	23.424
6.3462	23.9555
6.2999	23.7332
6.2543	23.6769
6.2094	23.3935
6.1651	22.5296
6.1214	22.0648
6.0784	21.4813
6.0359	21.0034
5.994	20.6844
5.9527	20.1864
5.912	19.7825
5.8718	19.8377
5.8322	20.2525
5.7931	20.1169
5.7545	19.905
5.7165	19.4595
5.6789	19.3199
5.6418	19.2173
5.6052	18.7364
5.5691	18.3281
5.5334	18.1796
5.4982	18.3918
5.4635	18.5608
5.4291	18.9045
5.3952	19.559
5.3618	20.3961
5.3287	21.8116
5.2961	23.626
5.2638	25.7557
5.2319	27.7996
5.2004	30.0028
5.1693	32.1969
5.1386	34.2732
5.1082	36.1346
5.0782	37.6066
5.0485	38.3518
5.0192	38.9827
4.9902	39.1638
4.9616	39.57
4.9332	39.7185
4.9052	39.9272
4.8776	40.7405
4.8502	41.6322
4.8231	42.4202
4.7963	42.8661
4.7699	43.7148
4.7437	44.9863
4.7178	46.0734
4.6922	47.128
4.6668	48.4621
4.6418	50.0411
4.617	52.0396
4.5924	53.7078
4.5681	55.2225
4.5441	56.5064
4.5203	57.903
4.4968	59.2197
4.4735	60.6364
4.4505	62.0775
4.4277	63.6413
4.4051	64.7946
4.3828	65.7815
4.3607	66.4026
4.3388	66.9093
4.3171	67.1856
4.2956	67.5146
4.2744	67.5988
4.2534	67.7325
4.2325	67.9446
4.2119	67.8664
4.1915	67.9302
4.1712	68.0598
4.1512	68.0489
4.1313	68.0666
4.1117	68.1855
4.0922	68.1823
4.0729	68.3797
4.0538	68.4322
4.0349	68.5404
4.0161	68.6154
3.9976	68.6508
3.9792	68.6147
3.9609	68.7055
3.9428	68.8106
3.9249	68.9084
3.9072	69.0321
3.8896	69.025
3.8722	69.1103
3.8549	69.0534
3.8378	68.9657
3.8208	68.9296
3.804	68.6433
3.7873	68.3505
3.7708	67.8306
3.7544	67.0968
3.7382	66.023
3.7221	65.5236
3.7061	65.1284
3.6903	65.0473
3.6746	64.813
3.659	64.3881
3.6436	64.2192
3.6283	63.9727
3.6131	63.5372
3.5981	62.9024
3.5832	62.0897
3.5684	61.1861
3.5537	60.3572
3.5391	59.6649
3.5247	59.0938
3.5104	57.8973
3.4962	57.3897
3.4821	57.1643
3.4681	56.7906
3.4543	56.2673
3.4405	55.1336
3.4269	53.8369
3.4133	52.5303
3.3999	52.3625
3.3866	51.6052
3.3733	50.7353
3.3602	50.4447
3.3472	49.7437
3.3343	48.9676
3.3215	48.316
3.3088	47.685
3.2961	47.1984
3.2836	46.7673
3.2712	46.8619
3.2588	46.9788
3.2466	46.9123
3.2345	46.718
3.2224	46.1379
3.2104	45.6698
3.1985	45.1368
3.1867	44.6588
3.175	44.3039
3.1634	44.0307
3.1519	43.5707
3.1404	43.3016
3.129	43.1026
3.1178	42.5648
3.1065	42.2105
3.0954	41.8056
3.0844	41.2338
3.0734	40.8115
3.0625	40.3047
3.0517	39.6374
3.041	39.2744
3.0303	38.8437
3.0197	38.7327
3.0092	38.7291
2.9987	38.8601
2.9884	39.2771
2.9781	39.6537
2.9678	39.9427
2.9577	40.0729
2.9476	40.3675
2.9376	40.2164
2.9276	39.8835
2.9177	39.4218
2.9079	38.9499
2.8982	38.6405
2.8885	38.9308
2.8789	39.1653
2.8693	39.4555
2.8598	39.478
2.8504	38.8865
2.841	37.8111
2.8317	36.8229
2.8224	35.5661
2.8133	33.2065
2.8041	29.5274
2.7951	21.9141
2.786	12.9569
2.7771	6.9656
2.7682	4.6461
2.7594	3.0972
2.7506	3.1286
2.7418	3.3538
2.7332	3.9023
2.7246	6.4341
2.716	17.4807
2.7075	35.8488
2.699	44.1253
2.6906	49.1215
2.6823	52.3239
2.674	54.1488
2.6657	56.8854
2.6575	58.0037
2.6494	59.3339
2.6413	59.8134
2.6332	59.7641
2.6252	59.2691
2.6173	59.7353
2.6094	59.7083
2.6015	60.6627
2.5937	62.8825
2.5859	63.3388
2.5782	63.5628
2.5706	64.0234
2.5629	64.6667
2.5554	64.9707
2.5478	65.6502
2.5403	65.6655
2.5329	65.7396
2.5255	65.0125
2.5181	64.0079
2.5108	62.9535
2.5035	61.8733
2.4963	60.8966
2.4891	60.2575
2.482	59.8805
2.4749	59.3481
2.4678	58.7034
2.4608	57.9059
2.4538	57.0907
2.4468	56.2823
2.4399	56.0011
2.4331	56.3769
2.4262	57.5091
2.4194	58.885
2.4127	60.3445
2.4059	61.9258
2.3993	63.1233
2.3926	63.4089
2.386	63.3644
2.3795	63.4716
2.3729	63.5489
2.3664	63.0697
2.36	62.2162
2.3535	61.229
2.3471	60.9109
2.3408	61.71
2.3345	63.3335
2.3282	65.4173
2.3219	67.4149
2.3157	69.3749
2.3095	71.0442
2.3034	72.6173
2.2972	74.0667
2.2911	75.0124
2.2851	75.7594
2.279	76.0911
2.2731	76.2073
2.2671	76.115
2.2612	76.1922
2.2553	75.9256
2.2494	75.7287
2.2435	75.3111
2.2377	74.9024
2.232	73.8281
2.2262	72.2276
2.2205	69.5362
2.2148	65.0805
2.2091	60.0167
2.2035	55.5286
2.1979	53.0532
2.1923	53.7395
2.1868	57.5673
2.1812	63.1042
2.1758	68.0892
2.1703	72.1162
2.1649	74.461
2.1595	76.2888
2.1541	77.375
2.1487	78.1635
2.1434	78.8249
2.1381	79.2024
2.1328	79.2938
2.1275	79.2479
2.1223	79.0368
2.1171	79.2032
2.112	79.6801
2.1068	79.9596
2.1017	80.6282
2.0966	81.2683
2.0915	81.5776
2.0865	82.2123
2.0814	82.4315
2.0764	82.8398
2.0715	83.5901
2.0665	83.0203
2.0616	83.3438
2.0567	83.5727
2.0518	83.4065
2.0469	83.4893
2.0421	83.5033
2.0373	83.4792
2.0325	83.5421
2.0277	83.8389
2.0229	83.6301
2.0182	83.9272
2.0135	83.7757
2.0088	83.551
2.0042	83.8508
