Name: Molybdenite MoS_2
Type: Mineral
Class: Sulfide
Subclass: None
Particle Size: Medium
Sample No.: S-11A
Owner: JPL
Wavelength Range: TIR
Origin: Norway, Arendal, Froland
Description: Particle size was 45-125um.Collected by JPL Original ASTER Spectral Library name was jpl.nicolet.mineral.sulfide.none.medium.s11a.spectrum.txt
Measurement: Hemispherical reflectance
X Units: Wavelength (micrometers)
Y Units: Reflectance (percent)
wavelength	value
15.3853	31.6308
15.1161	31.0205
14.8563	30.8553
14.6052	32.6915
14.3624	33.7405
14.1276	30.4887
13.9004	30.9253
13.6803	30.7689
13.4671	29.2354
13.2604	27.7553
13.06	27.4584
12.8656	28.5717
12.6769	29.657
12.4936	33.2905
12.3155	32.9661
12.1425	31.2368
11.9742	36.2175
11.8106	36.8606
11.6513	36.9119
11.4963	36.9372
11.3454	36.9578
11.1983	35.9464
11.0551	35.1758
10.9154	35.3865
10.7793	36.551
10.6465	36.1058
10.5169	36.1834
10.3904	36.7291
10.267	38.0015
10.1464	37.5386
10.0287	37.3113
9.9136	37.0789
9.8012	37.1195
9.6913	36.7512
9.5838	36.8201
9.4787	36.9559
9.3758	37.722
9.2752	38.1101
9.1767	38.3091
9.0803	38.2825
8.9858	38.1304
8.8934	38.2779
8.8028	38.2821
8.714	38.9194
8.627	38.6974
8.5417	39.3638
8.4581	40.1107
8.3761	40.3815
8.2957	40.4983
8.2169	41.0524
8.1395	41.7397
8.0635	42.6186
7.989	43.8039
7.9158	44.8636
7.8439	45.7756
7.7734	46.5122
7.7041	47.085
7.636	47.4688
7.5691	48.0071
7.5034	48.5187
7.4388	48.4877
7.3753	48.3669
7.3129	48.106
7.2515	47.6617
7.1912	47.4361
7.1318	46.1358
7.0734	44.3874
7.016	43.819
6.9595	44.9177
6.9039	44.7174
6.8492	45.861
6.7953	48.343
6.7423	48.9504
6.6901	50.2163
6.6387	52.9689
6.5881	50.5416
6.5382	49.6024
6.4892	52.5096
6.4408	49.8148
6.3931	48.8108
6.3462	49.0285
6.2999	46.2774
6.2543	45.1821
6.2094	44.3955
6.1651	44.3901
6.1214	44.877
6.0784	45.4404
6.0359	44.7434
5.994	45.1164
5.9527	44.4221
5.912	44.6202
5.8718	45.6026
5.8322	46.4131
5.7931	46.7206
5.7545	48.2202
5.7165	49.913
5.6789	50.5352
5.6418	51.8563
5.6052	51.2659
5.5691	51.9907
5.5334	52.7818
5.4982	53.7308
5.4635	54.8912
5.4291	54.6947
5.3952	53.9324
5.3618	53.5476
5.3287	53.5791
5.2961	54.0033
5.2638	54.2875
5.2319	55.0716
5.2004	55.5656
5.1693	55.5785
5.1386	55.5845
5.1082	55.5386
5.0782	55.4914
5.0485	55.3963
5.0192	55.5505
4.9902	55.5059
4.9616	55.9833
4.9332	56.284
4.9052	56.8879
4.8776	57.7652
4.8502	57.952
4.8231	58.1889
4.7963	58.3476
4.7699	58.3802
4.7437	58.3923
4.7178	58.439
4.6922	58.314
4.6668	58.2509
4.6418	58.4118
4.617	58.3852
4.5924	58.4633
4.5681	58.362
4.5441	58.2623
4.5203	58.1067
4.4968	57.8631
4.4735	57.7465
4.4505	57.7342
4.4277	57.735
4.4051	57.7216
4.3828	57.765
4.3607	57.7366
4.3388	57.5175
4.3171	57.0697
4.2956	56.3671
4.2744	55.8883
4.2534	56.4841
4.2325	55.1106
4.2119	56.2188
4.1915	56.8256
4.1712	56.6666
4.1512	56.622
4.1313	56.3454
4.1117	56.2984
4.0922	56.062
4.0729	55.9926
4.0538	55.7662
4.0349	55.6157
4.0161	55.5839
3.9976	55.3439
3.9792	55.1643
3.9609	55.196
3.9428	54.9281
3.9249	54.9146
3.9072	54.7886
3.8896	54.7318
3.8722	54.483
3.8549	54.3212
3.8378	54.172
3.8208	54.0913
3.804	53.7493
3.7873	53.8584
3.7708	53.5653
3.7544	53.2852
3.7382	53.2253
3.7221	53.0251
3.7061	52.7569
3.6903	52.5676
3.6746	52.2389
3.659	51.9714
3.6436	51.6927
3.6283	51.4303
3.6131	51.0087
3.5981	50.7978
3.5832	50.3597
3.5684	50.0516
3.5537	49.571
3.5391	49.1071
3.5247	47.8172
3.5104	46.3278
3.4962	46.6074
3.4821	46.522
3.4681	46.3457
3.4543	45.8211
3.4405	44.2609
3.4269	41.9953
3.4133	43.5082
3.3999	44.0823
3.3866	43.6647
3.3733	44.3349
3.3602	45.074
3.3472	45.1041
3.3343	44.9672
3.3215	44.8891
3.3088	44.6411
3.2961	44.3029
3.2836	44.0424
3.2712	43.8131
3.2588	43.6181
3.2466	43.2882
3.2345	43.1612
3.2224	43.0616
3.2104	42.835
3.1985	42.7821
3.1867	42.6592
3.175	42.3156
3.1634	42.0556
3.1519	41.9751
3.1404	41.74
3.129	41.5992
3.1178	41.5822
3.1065	41.238
3.0954	41.2918
3.0844	41.3663
3.0734	41.374
3.0625	41.3766
3.0517	41.5272
3.041	41.7813
3.0303	41.8771
3.0197	42.2145
3.0092	42.3098
2.9987	42.5241
2.9884	42.6855
2.9781	42.7874
2.9678	42.7368
2.9577	42.8317
2.9476	42.8336
2.9376	42.9015
2.9276	42.9085
2.9177	43.1092
2.9079	43.3176
2.8982	43.4604
2.8885	43.8038
2.8789	44.0559
2.8693	44.1714
2.8598	44.4156
2.8504	44.7555
2.841	45.0641
2.8317	45.4368
2.8224	45.809
2.8133	45.9882
2.8041	47.0828
2.7951	46.8108
2.786	48.0409
2.7771	47.853
2.7682	48.918
2.7594	49.0329
2.7506	50.1169
2.7418	52.383
2.7332	52.3879
2.7246	55.2414
2.716	54.5516
2.7075	55.8694
2.699	56.5812
2.6906	57.5996
2.6823	58.6264
2.674	58.9279
2.6657	61.3838
2.6575	58.8831
2.6494	58.8805
2.6413	59.1068
2.6332	59.6067
2.6252	59.4473
2.6173	60.5809
2.6094	59.7446
2.6015	59.6394
2.5937	61.5671
2.5859	59.8002
2.5782	59.6132
2.5706	59.717
2.5629	60.2879
2.5554	59.1801
2.5478	59.3467
2.5403	59.1296
2.5329	59.1276
2.5255	59.1519
2.5181	59.0676
2.5108	59.079
2.5035	59.0164
2.4963	59.0794
2.4891	59.085
2.482	59.0025
2.4749	59.044
2.4678	59.1545
2.4608	59.0366
2.4538	59.0086
2.4468	59.0337
2.4399	59.1467
2.4331	58.936
2.4262	59.0056
2.4194	59.123
2.4127	58.9369
2.4059	59.0667
2.3993	59.1176
2.3926	59.2805
2.386	59.1157
2.3795	59.2092
2.3729	59.2376
2.3664	59.2483
2.36	59.1184
2.3535	59.1519
2.3471	59.0908
2.3408	59.1278
2.3345	59.2329
2.3282	59.2014
2.3219	59.0195
2.3157	59.233
2.3095	59.2036
2.3034	59.3299
2.2972	59.1673
2.2911	59.2825
2.2851	59.4201
2.279	59.2181
2.2731	59.3181
2.2671	59.2669
2.2612	59.341
2.2553	59.2106
2.2494	59.364
2.2435	59.1459
2.2377	59.2471
2.232	59.2426
2.2262	59.107
2.2205	59.1123
2.2148	59.2489
2.2091	58.9182
2.2035	59.099
2.1979	59.1687
2.1923	59.0907
2.1868	59.1022
2.1812	59.1125
2.1758	58.9559
2.1703	59.0461
2.1649	58.7752
2.1595	59.0154
2.1541	59.1749
2.1487	58.9161
2.1434	59.0703
2.1381	58.8916
2.1328	58.7431
2.1275	58.9247
2.1223	58.833
2.1171	58.8445
2.112	58.7238
2.1068	59.0234
2.1017	58.9263
2.0966	58.7795
2.0915	58.623
2.0865	58.6515
2.0814	58.3135
2.0764	58.5993
2.0715	58.6844
2.0665	58.4468
2.0616	58.3483
2.0567	58.2775
2.0518	58.6046
2.0469	58.171
2.0421	58.3578
2.0373	58.2754
2.0325	58.2781
2.0277	58.2586
2.0229	58.1038
2.0182	58.0056
2.0135	58.1279
2.0088	57.9961
2.0042	57.9653
