Name: Vermiculite (Mg,Fe+2,Al)3(Al,Si)4O10(OH)2.4H2O
Type: Mineral
Class: Silicate
Subclass: Phyllosilicate
Particle Size: Fine
Sample No.: vermicul_1
Owner: JHU
Wavelength Range: TIR
Origin: Llano, Texas via Norma Vergo #VTx-1 (CMS) (purchased fromClay Mineral Society Repository)
Description: White, earthy clay.  XRD analysis indicates pure vermiculite for the less than 2 micrometer size range.(Sheet Silicates); (Vermiculite Group)Particle size was less than 2 Micrometers. Original ASTER Spectral Library name was jhu.nicolet.mineral.silicate.phyllosilicate.powder.vermic1.spectrum.txt
Measurement: Transmission
X Units: Wavelength (micrometers)
Y Units: Transmittance (percent)
wavelength	value
25.0442	53.9374
24.3388	49.8124
23.6719	45.5643
23.0407	38.8085
22.4422	34.2968
21.8741	31.1269
21.334	33.0116
20.8199	41.411
20.33	46.7235
19.8627	50.5272
19.4163	53.3358
18.9896	56.5741
18.5812	63.0809
18.19	68.9754
17.815	72.576
17.4551	74.3475
17.1094	74.9295
16.7772	75.0281
16.4576	73.6717
16.15	72.4671
15.8537	70.9041
15.568	68.8382
15.2925	66.9647
15.0265	66.7498
14.7697	67.8773
14.5214	68.7523
14.2814	70.5897
14.0492	73.2303
13.8244	74.2269
13.6067	75.1365
13.3957	76.9803
13.1912	78.406
12.9929	79.4187
12.8004	80.9866
12.6135	82.3909
12.432	81.7781
12.2557	79.1585
12.0843	78.0428
11.9176	80.8582
11.7555	82.6072
11.5977	81.1951
11.444	78.6292
11.2944	75.5535
11.1487	70.8758
11.0067	64.8455
10.8682	59.785
10.7332	54.4632
10.6015	47.6532
10.473	39.7267
10.3476	34.3859
10.2251	31.5929
10.1056	30.5099
9.9887	32.724
9.8746	37.9047
9.763	42.4669
9.6539	45.8077
9.5472	49.3566
9.4429	52.4025
9.3408	55.4984
9.2409	59.1375
9.1431	63.0028
9.0474	66.7894
8.9536	70.4359
8.8618	73.451
8.7718	75.618
8.6837	77.3477
8.5973	78.9226
8.5126	80.0088
8.4295	81.0176
8.3481	81.9295
8.2682	82.7422
8.1898	83.4514
8.1129	84.1497
8.0374	84.7234
7.9634	85.3045
7.8906	85.7891
7.8192	86.0491
7.7491	86.4334
7.6802	86.7185
7.6126	87.0164
7.5461	87.3811
7.4807	87.5896
7.4165	87.8067
7.3534	87.9651
7.2914	88.0764
7.2303	88.1619
7.1703	88.5742
7.1113	88.5564
7.0533	88.1863
6.9962	87.8682
6.94	87.9785
6.8847	88.0701
6.8302	88.2197
6.7767	88.4817
6.7239	88.7796
6.672	89.1944
6.6209	89.6316
6.5705	90.124
6.5209	90.24
6.4721	90.4583
6.424	90.627
6.3766	90.5183
6.3299	90.3789
6.2838	89.9912
6.2385	89.2547
6.1937	87.8467
6.1496	85.3321
6.1062	83.4519
6.0633	83.0774
6.0211	83.9492
5.9794	85.345
5.9383	86.3389
5.8978	87.657
5.8578	88.8992
5.8184	90.1399
5.7794	90.8555
5.741	91.4072
5.7031	91.7483
5.6657	91.9883
5.6288	92.3035
5.5924	92.4939
5.5564	92.6687
5.5209	92.7927
5.4859	92.8701
5.4513	93.031
5.4171	93.2297
5.3833	93.2312
5.35	93.471
5.3171	93.5227
5.2846	93.6875
5.2524	93.7832
5.2207	93.8975
5.1893	93.9617
5.1584	94.0381
5.1277	94.0625
5.0975	94.1299
5.0676	94.1816
5.038	94.2246
5.0088	94.2117
4.98	94.2224
4.9514	94.2678
4.9232	94.2156
4.8953	94.2295
4.8678	94.2351
4.8405	94.283
4.8135	94.3076
4.7868	94.3406
4.7605	94.3162
4.7344	94.3301
4.7086	94.3516
4.6831	94.3997
4.6578	94.4258
4.6328	94.4031
4.6081	94.5625
4.5837	94.4102
4.5595	94.3652
4.5356	94.3242
4.5119	94.3601
4.4884	94.2478
4.4652	94.2207
4.4423	94.2068
4.4196	94.1785
4.3971	94.1423
4.3748	94.1631
4.3528	94.1755
4.331	94.1641
4.3094	94.1834
4.288	94.2136
4.2668	94.2178
4.2458	94.3027
4.2251	94.3174
4.2045	94.3311
4.1841	94.4148
4.164	94.4255
4.144	94.4893
4.1242	94.5408
4.1046	94.5515
4.0852	94.6189
4.066	94.6223
4.047	94.7004
4.0281	94.7376
4.0094	94.7224
3.9909	94.7459
3.9725	94.6975
3.9544	94.8035
3.9363	94.7878
3.9185	94.8704
3.9008	94.8665
3.8833	94.8411
3.8659	94.8123
3.8487	94.821
3.8316	94.7712
3.8147	94.7834
3.7979	94.7283
3.7813	94.7097
3.7648	94.6003
3.7485	94.5305
3.7323	94.4876
3.7162	94.4138
3.7003	94.3108
3.6845	94.1174
3.6689	94.0291
3.6534	93.9128
3.638	93.7581
3.6227	93.5676
3.6076	93.4631
3.5926	93.283
3.5777	93.1038
3.563	92.9041
3.5484	92.6668
3.5338	92.4456
3.5195	92.1189
3.5052	91.9041
3.491	91.5613
3.477	91.2385
3.463	90.9607
3.4492	90.6194
3.4355	90.3298
3.4219	89.865
3.4084	89.3557
3.395	88.9964
3.3817	88.5823
3.3685	88.2166
3.3554	87.6218
3.3425	87.1209
3.3296	86.5623
3.3168	86.0315
3.3041	85.5408
3.2915	84.9886
3.279	84.4046
3.2666	83.8142
3.2543	83.2478
3.2421	82.8245
3.23	82.1682
3.218	81.6214
3.206	81.0398
3.1942	80.3772
3.1824	79.7679
3.1707	79.1429
3.1591	78.5242
3.1476	77.9305
3.1362	77.2879
3.1249	76.637
3.1136	75.9671
3.1024	75.199
3.0913	74.5232
3.0803	74.1937
3.0694	73.9476
3.0585	73.4691
3.0477	73.0433
3.037	72.5057
3.0264	71.8026
3.0158	70.9295
3.0053	70.0428
2.9949	69.0467
2.9845	68.0101
2.9743	67.0277
2.9641	66.3968
2.9539	65.9862
2.9439	65.8446
2.9339	65.8953
2.9239	66.033
2.9141	66.3055
2.9043	66.6571
2.8946	67.0731
2.8849	67.6033
2.8753	67.9608
2.8658	68.4373
2.8563	68.993
2.8469	69.5819
2.8375	70.1502
2.8282	70.7703
2.819	71.6092
2.8098	72.243
2.8007	72.9627
2.7917	73.824
2.7827	74.8934
2.7738	76.1561
2.7649	77.4559
2.7561	78.8064
2.7473	80.0672
2.7386	81.3084
2.7299	82.1844
2.7213	81.1258
2.7128	80.8689
2.7043	83.4217
2.6959	84.5232
2.6875	85.2703
2.6791	86.3299
2.6709	86.8865
2.6626	87.0095
2.6545	87.1453
2.6463	87.3328
2.6382	87.3943
2.6302	87.4656
2.6222	87.5857
2.6143	87.5662
2.6064	87.6638
2.5986	87.7039
2.5908	87.6912
2.583	87.8328
2.5753	87.6804
2.5677	87.7576
2.5601	87.9304
2.5525	87.6843
2.545	87.6248
2.5375	87.825
2.5301	87.8367
2.5227	87.4812
2.5154	87.6795
2.5081	87.8045
2.5008	87.7859
2.4936	87.6873
2.4864	87.6804
2.4793	87.6677
2.4722	87.7224
2.4651	87.5506
2.4581	87.5896
2.4511	87.5711
2.4442	87.4158
2.4373	87.4646
2.4305	87.6306
2.4236	87.5974
2.4169	87.4275
2.4101	87.4881
2.4034	87.5857
2.3967	87.4158
2.3901	87.242
2.3835	87.3826
2.377	87.3689
2.3704	87.4822
2.364	87.3045
2.3575	87.281
2.3511	87.4959
2.3447	87.1717
2.3384	87.158
2.3321	87.0193
2.3258	87.1404
2.3195	87.3924
2.3133	87.3709
2.3071	87.1248
2.301	87.2908
2.2949	87.2263
2.2888	87.4763
2.2828	87.3064
2.2767	87.406
2.2708	87.2576
2.2648	87.4842
2.2589	87.2537
2.253	87.3865
2.2471	87.3924
2.2413	87.4451
2.2355	87.5506
2.2297	87.6209
2.224	87.5467
2.2183	87.3552
2.2126	87.6189
2.207	87.4646
2.2013	87.5252
2.1957	87.5154
2.1902	87.5935
2.1846	87.4959
2.1791	87.4724
2.1736	87.7439
2.1682	87.7693
2.1628	87.8943
2.1574	87.7986
2.152	87.7049
2.1466	87.697
2.1413	87.8201
2.136	88.0408
2.1308	88.1248
2.1255	87.906
2.1203	88.2283
2.1151	87.9939
2.11	88.0232
2.1048	88.0799
2.0997	88.281
2.0946	88.7361
2.0895	88.2517
2.0845	88.2888
2.0795	88.4529
