Name: Dolomite CaMg(CO_3)_2
Type: Mineral
Class: Carbonate
Subclass: None
Particle Size: Medium
Sample No.: C-5A
Owner: JPL
Wavelength Range: TIR
Origin: USA, Colorado
Description: Red banded dolomite.Particle size was 45-125um.Collected by Ward's Original ASTER Spectral Library name was jpl.nicolet.mineral.carbonate.none.medium.c05a.spectrum.txt
Measurement: Hemispherical reflectance
X Units: Wavelength (micrometers)
Y Units: Reflectance (percent)
wavelength	value
15.3853	4.6332
15.1161	6.0509
14.8563	6.653
14.6052	6.5056
14.3624	5.1141
14.1276	5.526
13.9004	3.3816
13.6803	1.9533
13.4671	4.3377
13.2604	9.4988
13.06	10.0459
12.8656	6.8042
12.6769	7.3662
12.4936	5.8282
12.3155	11.711
12.1425	14.5926
11.9742	14.972
11.8106	12.5057
11.6513	9.2104
11.4963	5.4404
11.3454	9.0784
11.1983	17.9001
11.0551	14.5355
10.9154	13.1512
10.7793	13.2368
10.6465	13.2874
10.5169	13.1273
10.3904	11.9431
10.267	9.6959
10.1464	8.1339
10.0287	6.7801
9.9136	6.1585
9.8012	5.8094
9.6913	4.9578
9.5838	4.7082
9.4787	5.1208
9.3758	5.6715
9.2752	6.616
9.1767	6.3836
9.0803	5.3425
8.9858	5.9711
8.8934	6.1413
8.8028	6.8026
8.714	7.0306
8.627	6.8513
8.5417	7.4773
8.4581	7.1712
8.3761	7.0565
8.2957	9.0902
8.2169	8.7406
8.1395	6.5745
8.0635	6.8852
7.989	7.0807
7.9158	7.1927
7.8439	7.2729
7.7734	6.4851
7.7041	5.8776
7.636	6.0477
7.5691	6.0946
7.5034	5.6959
7.4388	5.6905
7.3753	5.9309
7.3129	6.0138
7.2515	6.3232
7.1912	7.1338
7.1318	8.4982
7.0734	10.3716
7.016	15.3917
6.9595	16.203
6.9039	16.1393
6.8492	16.9796
6.7953	17.9442
6.7423	18.5528
6.6901	20.2026
6.6387	23.5427
6.5881	25.3451
6.5382	26.9914
6.4892	30.4241
6.4408	30.3295
6.3931	29.202
6.3462	21.7413
6.2999	9.9621
6.2543	4.9668
6.2094	3.1053
6.1651	2.4774
6.1214	1.956
6.0784	1.5634
6.0359	1.6696
5.994	1.8924
5.9527	2.0363
5.912	2.4457
5.8718	2.8082
5.8322	3.2752
5.7931	3.3409
5.7545	3.6388
5.7165	4.1864
5.6789	4.343
5.6418	4.0327
5.6052	3.1956
5.5691	2.3652
5.5334	1.3885
5.4982	1.1032
5.4635	1.8864
5.4291	7.0337
5.3952	12.3964
5.3618	14.9475
5.3287	17.1328
5.2961	19.063
5.2638	22.7274
5.2319	27.829
5.2004	31.8379
5.1693	34.1288
5.1386	35.8837
5.1082	36.9968
5.0782	34.6903
5.0485	34.1029
5.0192	38.7718
4.9902	40.0678
4.9616	42.459
4.9332	44.0734
4.9052	46.2395
4.8776	48.3016
4.8502	49.0885
4.8231	49.0994
4.7963	49.0139
4.7699	48.7528
4.7437	48.1923
4.7178	46.3387
4.6922	42.3486
4.6668	33.2282
4.6418	27.1741
4.617	26.3163
4.5924	29.0563
4.5681	34.1738
4.5441	37.7331
4.5203	39.7697
4.4968	44.4393
4.4735	44.6882
4.4505	40.4399
4.4277	39.864
4.4051	43.8076
4.3828	47.6252
4.3607	50.3841
4.3388	46.5316
4.3171	43.3004
4.2956	41.1737
4.2744	38.3285
4.2534	41.27
4.2325	43.8945
4.2119	45.0941
4.1915	46.9165
4.1712	45.7583
4.1512	42.9962
4.1313	42.7883
4.1117	41.8514
4.0922	39.9345
4.0729	36.1008
4.0538	30.9382
4.0349	24.5321
4.0161	16.4044
3.9976	8.2957
3.9792	3.6337
3.9609	2.2534
3.9428	2.3943
3.9249	2.4611
3.9072	3.1716
3.8896	4.59
3.8722	4.9594
3.8549	7.3849
3.8378	12.2675
3.8208	8.5273
3.804	5.4044
3.7873	8.1216
3.7708	13.6662
3.7544	22.4027
3.7382	34.4556
3.7221	39.6627
3.7061	42.2346
3.6903	45.0553
3.6746	46.7991
3.659	47.5239
3.6436	47.7518
3.6283	47.7652
3.6131	47.1681
3.5981	46.46
3.5832	45.5324
3.5684	43.5018
3.5537	36.8778
3.5391	35.8453
3.5247	31.6404
3.5104	21.4416
3.4962	10.6073
3.4821	6.128
3.4681	4.5289
3.4543	3.9162
3.4405	4.3223
3.4269	6.7833
3.4133	7.9091
3.3999	8.3849
3.3866	9.2316
3.3733	11.2868
3.3602	8.9405
3.3472	7.3698
3.3343	6.7814
3.3215	6.4981
3.3088	5.1664
3.2961	10.3279
3.2836	21.0876
3.2712	24.1059
3.2588	25.4401
3.2466	26.1022
3.2345	26.2496
3.2224	26.0605
3.2104	25.8483
3.1985	25.0862
3.1867	24.6522
3.175	23.9451
3.1634	23.1372
3.1519	22.1592
3.1404	21.0127
3.129	20.169
3.1178	19.6197
3.1065	18.9728
3.0954	18.4749
3.0844	17.8439
3.0734	17.4197
3.0625	17.5246
3.0517	17.0984
3.041	16.7545
3.0303	16.7137
3.0197	16.3598
3.0092	16.0183
2.9987	15.6657
2.9884	15.2372
2.9781	14.9271
2.9678	14.5493
2.9577	14.0915
2.9476	14.0785
2.9376	14.0297
2.9276	14.037
2.9177	14.1269
2.9079	14.2501
2.8982	14.4951
2.8885	14.8512
2.8789	15.2711
2.8693	16.1065
2.8598	16.7548
2.8504	17.4903
2.841	18.415
2.8317	19.295
2.8224	20.2268
2.8133	21.1075
2.8041	22.1533
2.7951	22.2346
2.786	22.5152
2.7771	22.2833
2.7682	22.2584
2.7594	23.0723
2.7506	26.1591
2.7418	30.402
2.7332	34.8263
2.7246	41.3103
2.716	46.5261
2.7075	50.5955
2.699	54.5129
2.6906	58.0593
2.6823	61.5987
2.674	64.6151
2.6657	68.3339
2.6575	67.8227
2.6494	68.8216
2.6413	69.493
2.6332	70.4558
2.6252	70.8869
2.6173	72.1908
2.6094	71.5971
2.6015	71.6414
2.5937	73.2383
2.5859	71.7394
2.5782	71.3128
2.5706	70.85
2.5629	70.2299
2.5554	68.3208
2.5478	66.2938
2.5403	61.5177
2.5329	56.537
2.5255	52.8103
2.5181	50.957
2.5108	51.0391
2.5035	52.5579
2.4963	53.7715
2.4891	55.6074
2.482	57.6789
2.4749	58.6943
2.4678	58.9852
2.4608	59.6863
2.4538	60.9911
2.4468	62.7143
2.4399	64.9378
2.4331	66.6843
2.4262	68.3418
2.4194	69.786
2.4127	70.7827
2.4059	71.4444
2.3993	71.8498
2.3926	72.6272
2.386	72.9747
2.3795	73.2957
2.3729	73.8443
2.3664	74.2297
2.36	73.9596
2.3535	72.9417
2.3471	70.6257
2.3408	67.7124
2.3345	64.852
2.3282	62.5065
2.3219	61.8421
2.3157	62.23
2.3095	62.997
2.3034	63.8404
2.2972	64.6848
2.2911	65.5836
2.2851	66.302
2.279	66.7534
2.2731	67.1373
2.2671	67.7184
2.2612	68.7223
2.2553	69.9042
2.2494	71.2165
2.2435	72.12
2.2377	72.9856
2.232	73.2808
2.2262	73.7326
2.2205	73.9526
2.2148	74.2579
2.2091	74.1898
2.2035	74.6924
2.1979	75.1136
2.1923	75.3447
2.1868	75.8617
2.1812	75.8389
2.1758	76.132
2.1703	76.0808
2.1649	76.1954
2.1595	76.0707
2.1541	75.932
2.1487	75.8413
2.1434	75.9803
2.1381	75.8336
2.1328	75.7459
2.1275	75.8623
2.1223	76.0996
2.1171	76.1194
2.112	76.1896
2.1068	76.3253
2.1017	76.1583
2.0966	76.378
2.0915	76.4564
2.0865	76.4159
2.0814	76.3245
2.0764	76.4785
2.0715	76.4887
2.0665	76.2467
2.0616	76.2459
2.0567	76.2023
2.0518	76.0917
2.0469	75.8748
2.0421	76.0215
2.0373	76.0053
2.0325	75.8715
2.0277	75.6616
2.0229	75.2969
2.0182	75.3566
2.0135	75.1012
2.0088	74.9309
2.0042	74.7361
