Name: Cordierite Mg_2Al_3(Si_5Al)O_18
Type: Mineral
Class: Silicate
Subclass: Cyclosilicate
Particle Size: Fine
Sample No.: CS-3A
Owner: JPL
Wavelength Range: VSWIR
Origin: Canada, Northwest Territories, Mackenzie District, Great Bear Lake
Description: Particle size was 0-45um.Collected by Ward's Original ASTER Spectral Library name was jpl.beckman.mineral.silicate.cyclosilicate.fine.cs03a.spectrum.txt
Measurement: Hemispherical reflectance
X Units: Wavelength (micrometers)
Y Units: Reflectance (percent)
wavelength	value
0.4	50.45
0.403	51.01
0.406	51.31
0.409	51.7
0.412	52.05
0.415	52.2
0.418	52.58
0.421	52.88
0.424	53.31
0.427	53.65
0.43	54.01
0.433	54.49
0.436	54.78
0.439	54.99
0.442	55.04
0.445	55.58
0.448	55.77
0.451	55.83
0.454	55.78
0.457	56.05
0.46	56.18
0.463	56.2
0.466	56.36
0.469	56.5
0.472	56.44
0.475	56.54
0.478	56.74
0.481	56.97
0.484	56.91
0.487	56.99
0.49	57.06
0.493	57.37
0.496	57.49
0.499	57.64
0.502	57.96
0.505	58.13
0.508	58.26
0.511	58.44
0.514	58.7
0.517	58.85
0.52	59.03
0.523	59.03
0.526	59.25
0.529	59.28
0.532	59.5
0.535	59.64
0.538	59.81
0.541	59.74
0.544	59.88
0.547	60.09
0.55	60.24
0.553	60.37
0.556	60.38
0.559	60.47
0.562	60.85
0.565	60.95
0.568	60.99
0.571	60.89
0.574	60.82
0.577	60.97
0.58	61.07
0.583	61
0.586	61.1
0.589	61.04
0.592	61.33
0.595	61.47
0.598	61.58
0.601	61.56
0.604	61.67
0.607	61.87
0.61	61.79
0.613	62
0.616	61.94
0.619	61.98
0.622	62.1
0.625	62.28
0.628	62.19
0.631	62.22
0.634	62.51
0.637	62.63
0.64	62.57
0.643	62.69
0.646	62.92
0.649	62.84
0.652	62.82
0.655	62.86
0.658	62.98
0.661	62.94
0.664	63.36
0.667	63.5
0.67	63.56
0.673	63.62
0.676	63.97
0.679	63.93
0.682	63.99
0.685	64.22
0.688	64.53
0.691	64.45
0.694	64.63
0.697	64.85
0.7	64.77
0.703	64.79
0.706	65.05
0.709	65.26
0.712	65.28
0.715	65.45
0.718	65.43
0.721	65.69
0.724	65.71
0.727	65.77
0.73	66.04
0.733	65.95
0.736	65.98
0.739	65.98
0.742	66.13
0.745	66.27
0.748	66.22
0.751	66.13
0.754	66.08
0.757	66.24
0.76	66.03
0.763	65.8
0.766	65.89
0.769	65.89
0.772	65.73
0.775	65.68
0.778	65.74
0.781	65.53
0.784	65.56
0.787	65.4
0.79	64.98
0.793	64.82
0.796	64.94
0.799	64.82
0.808	63.93
0.82	62.97
0.832	61.81
0.844	60.56
0.856	59.21
0.868	58.01
0.88	56.8
0.892	55.52
0.904	54.54
0.916	53.46
0.928	52.66
0.94	52.09
0.952	51.52
0.964	51.16
0.976	51.07
0.988	51.08
1	51.22
1.012	51.75
1.024	52.09
1.036	52.75
1.048	53.43
1.06	53.94
1.072	54.51
1.084	54.97
1.096	55.33
1.108	55.53
1.12	55.72
1.132	55.95
1.144	55.87
1.156	56.07
1.168	56.23
1.18	56.46
1.192	56.66
1.204	56.92
1.216	57.2
1.228	57.69
1.24	58.41
1.252	58.97
1.264	59.75
1.276	60.46
1.288	61.3
1.3	62.06
1.312	63.01
1.324	63.87
1.336	64.84
1.348	65.47
1.36	66.01
1.372	66.82
1.384	67.34
1.396	65.72
1.408	66.78
1.42	68.74
1.432	69.71
1.444	70.46
1.456	70.76
1.468	70.9
1.48	71.68
1.492	72
1.504	72.35
1.516	72.52
1.528	72.83
1.54	73.03
1.552	73.07
1.564	73.19
1.576	73.25
1.588	73.23
1.6	73.33
1.612	73.44
1.624	73.5
1.636	73.5
1.648	73.59
1.66	73.69
1.672	73.68
1.684	73.67
1.696	73.71
1.708	73.66
1.72	73.63
1.732	73.57
1.744	73.59
1.756	73.53
1.768	73.45
1.78	73.24
1.792	73
1.804	72.83
1.816	72.14
1.828	71.83
1.84	71.77
1.852	71.66
1.864	71.78
1.876	70.88
1.888	66.06
1.9	63.67
1.912	67.58
1.924	70.21
1.936	70.64
1.948	70.9
1.96	71.08
1.972	71.33
1.984	71.8
1.996	72.06
2.008	72.28
2.02	72.54
2.032	72.69
2.044	72.91
2.056	72.9
2.068	72.96
2.08	72.89
2.092	72.89
2.104	72.93
2.116	73.17
2.128	73.09
2.14	72.93
2.152	72.66
2.164	72.32
2.176	72.12
2.188	71.82
2.2	71.7
2.212	71.55
2.224	71.62
2.236	71.58
2.248	71.65
2.26	71.68
2.272	71.8
2.284	71.74
2.296	71.71
2.308	71.75
2.32	71.82
2.332	71.68
2.344	71.83
2.356	71.72
2.368	71.59
2.38	71.5
2.392	71.23
2.404	71.18
2.416	70.95
2.428	70.62
2.44	70.26
2.452	69.71
2.464	69.11
2.476	68.38
2.488	67.83
2.5	66.93
