Name: Serpentine (Mg,Fe^2+,Ni)Si_2O_5(OH)_4
Type: Mineral
Class: Silicate
Subclass: Phyllosilicate
Particle Size: Fine
Sample No.: PS-20A
Owner: JPL
Wavelength Range: TIR
Origin: USA, New York
Description: Particle size was 0-45um.Collected by Ward's Original ASTER Spectral Library name was jpl.nicolet.mineral.silicate.phyllosilicate.fine.ps20a.spectrum.txt
Measurement: Hemispherical reflectance
X Units: Wavelength (micrometers)
Y Units: Reflectance (percent)
wavelength	value
15.3853	2.1466
15.1161	2.2496
14.8563	1.597
14.6052	0.9736
14.3624	0.4109
14.1276	0.443
13.9004	0.604
13.6803	0.7253
13.4671	1.1545
13.2604	1.484
13.06	1.9547
12.8656	2.6606
12.6769	3.3857
12.4936	3.9511
12.3155	4.5892
12.1425	5.0405
11.9742	5.6606
11.8106	5.7334
11.6513	6.0815
11.4963	5.8442
11.3454	5.9406
11.1983	5.7542
11.0551	5.247
10.9154	4.3722
10.7793	3.3129
10.6465	3.2388
10.5169	3.2859
10.3904	3.5143
10.267	3.4822
10.1464	3.3937
10.0287	3.3418
9.9136	3.3964
9.8012	3.112
9.6913	2.9081
9.5838	3.037
9.4787	2.5425
9.3758	1.7292
9.2752	1.8689
9.1767	1.8735
9.0803	1.9342
8.9858	1.9747
8.8934	1.3702
8.8028	1.0079
8.714	1.1486
8.627	0.9731
8.5417	1.1975
8.4581	1.4215
8.3761	1.4147
8.2957	1.7489
8.2169	1.8978
8.1395	2.4256
8.0635	2.7618
7.989	3.2454
7.9158	3.7807
7.8439	4.3743
7.7734	4.8118
7.7041	5.0132
7.636	5.4892
7.5691	5.6955
7.5034	6.1857
7.4388	6.5634
7.3753	6.9292
7.3129	7.0042
7.2515	6.9786
7.1912	6.7713
7.1318	6.6018
7.0734	6.6799
7.016	6.6997
6.9595	6.7905
6.9039	6.8258
6.8492	6.9239
6.7953	7.0871
6.7423	7.3622
6.6901	7.9882
6.6387	9.0816
6.5881	9.0522
6.5382	9.173
6.4892	9.3765
6.4408	9.1993
6.3931	9.4396
6.3462	10.249
6.2999	9.8743
6.2543	9.6862
6.2094	9.669
6.1651	9.4838
6.1214	9.4023
6.0784	10.1067
6.0359	10.509
5.994	11.2544
5.9527	12.1272
5.912	13.4755
5.8718	15.0093
5.8322	16.1621
5.7931	16.6875
5.7545	17.3914
5.7165	18.2958
5.6789	19.0687
5.6418	20.0647
5.6052	20.0946
5.5691	19.2912
5.5334	21.0786
5.4982	22.3336
5.4635	23.0885
5.4291	23.4807
5.3952	23.4789
5.3618	24.5168
5.3287	26.3146
5.2961	28.0675
5.2638	29.4896
5.2319	30.6883
5.2004	31.2177
5.1693	30.9294
5.1386	30.2628
5.1082	29.9906
5.0782	29.6606
5.0485	29.061
5.0192	28.6085
4.9902	29.0691
4.9616	30.4673
4.9332	30.5032
4.9052	31.3498
4.8776	32.7457
4.8502	33.1337
4.8231	32.0756
4.7963	32.0881
4.7699	33.645
4.7437	35.2289
4.7178	36.5492
4.6922	37.1315
4.6668	37.5734
4.6418	37.7011
4.617	38.0487
4.5924	38.3617
4.5681	38.702
4.5441	38.9461
4.5203	39.2188
4.4968	39.4901
4.4735	39.7906
4.4505	39.8871
4.4277	40.0093
4.4051	40.1514
4.3828	40.216
4.3607	40.3371
4.3388	40.3975
4.3171	40.6711
4.2956	41.1782
4.2744	41.4222
4.2534	41.2048
4.2325	41.9852
4.2119	41.5505
4.1915	41.2368
4.1712	41.44
4.1512	41.4855
4.1313	41.5354
4.1117	41.5983
4.0922	41.7139
4.0729	41.6985
4.0538	41.5172
4.0349	41.2032
4.0161	40.5219
3.9976	39.1659
3.9792	38.1758
3.9609	38.4771
3.9428	39.4673
3.9249	39.8148
3.9072	39.7041
3.8896	39.4425
3.8722	39.3871
3.8549	39.0736
3.8378	38.7955
3.8208	38.7607
3.804	38.5751
3.7873	38.4026
3.7708	37.9983
3.7544	37.6802
3.7382	37.2341
3.7221	36.7397
3.7061	36.4368
3.6903	35.7892
3.6746	35.8051
3.659	35.5916
3.6436	35.0894
3.6283	34.6545
3.6131	34.0101
3.5981	33.5682
3.5832	33.2692
3.5684	32.9223
3.5537	32.4354
3.5391	31.9315
3.5247	31.1339
3.5104	30.3975
3.4962	29.7881
3.4821	29.0938
3.4681	28.8181
3.4543	28.5558
3.4405	28.0265
3.4269	27.6708
3.4133	27.0709
3.3999	26.5398
3.3866	26.0333
3.3733	25.5677
3.3602	25.2351
3.3472	24.6922
3.3343	24.5227
3.3215	23.7993
3.3088	23.4371
3.2961	22.9029
3.2836	22.251
3.2712	21.7126
3.2588	21.2916
3.2466	20.8052
3.2345	20.3625
3.2224	20.0266
3.2104	19.8637
3.1985	19.357
3.1867	18.9027
3.175	18.5196
3.1634	18.0625
3.1519	17.7162
3.1404	17.1873
3.129	16.5369
3.1178	16.3729
3.1065	16.0865
3.0954	15.9005
3.0844	15.7475
3.0734	15.5692
3.0625	15.31
3.0517	15.0446
3.041	14.7011
3.0303	14.7607
3.0197	14.4407
3.0092	14.1857
2.9987	13.8566
2.9884	13.658
2.9781	13.5619
2.9678	13.3814
2.9577	13.0967
2.9476	13.015
2.9376	12.878
2.9276	12.688
2.9177	12.6968
2.9079	12.2845
2.8982	12.5683
2.8885	12.2398
2.8789	12.0634
2.8693	11.7321
2.8598	11.1883
2.8504	10.9308
2.841	10.7901
2.8317	10.8189
2.8224	10.3591
2.8133	9.9116
2.8041	9.7449
2.7951	9.2208
2.786	9.294
2.7771	8.9221
2.7682	7.918
2.7594	6.7749
2.7506	4.4623
2.7418	2.4301
2.7332	2.5932
2.7246	2.4102
2.716	1.5646
2.7075	0.8884
2.699	1.4899
2.6906	11.2359
2.6823	23.1574
2.674	34.9028
2.6657	44.591
2.6575	44.6608
2.6494	44.6003
2.6413	49.2568
2.6332	51.1069
2.6252	51.7702
2.6173	52.1726
2.6094	51.0824
2.6015	50.8908
2.5937	52.304
2.5859	49.312
2.5782	48.6212
2.5706	47.7372
2.5629	46.4589
2.5554	44.4837
2.5478	46.1869
2.5403	45.7438
2.5329	46.0652
2.5255	45.6492
2.5181	43.752
2.5108	41.9274
2.5035	41.1943
2.4963	43.6916
2.4891	46.5509
2.482	45.6585
2.4749	47.0641
2.4678	50.1176
2.4608	51.5636
2.4538	51.3356
2.4468	50.322
2.4399	48.4888
2.4331	46.6986
2.4262	49.6097
2.4194	50.042
2.4127	50.1913
2.4059	50.2636
2.3993	50.2541
2.3926	50.6974
2.386	52.128
2.3795	52.7328
2.3729	52.7747
2.3664	54.355
2.36	56.2414
2.3535	55.5915
2.3471	51.036
2.3408	43.9934
2.3345	41.9346
2.3282	43.2536
2.3219	43.0935
2.3157	46.5081
2.3095	49.5205
2.3034	52.2715
2.2972	54.0749
2.2911	55.157
2.2851	55.7522
2.279	55.9441
2.2731	54.407
2.2671	55.4547
2.2612	60.4287
2.2553	61.3746
2.2494	60.9838
2.2435	62.0696
2.2377	62.4536
2.232	65.5109
2.2262	67.3639
2.2205	68.419
2.2148	68.8862
2.2091	69.304
2.2035	69.6011
2.1979	69.6491
2.1923	69.7667
2.1868	69.8893
2.1812	69.8976
2.1758	69.8816
2.1703	69.8266
2.1649	70.1598
2.1595	70.0105
2.1541	69.3393
2.1487	68.7311
2.1434	67.9955
2.1381	67.1495
2.1328	66.0479
2.1275	66.5712
2.1223	67.2156
2.1171	67.3221
2.112	66.5846
2.1068	67.4187
2.1017	67.6078
2.0966	67.4954
2.0915	68.0261
2.0865	68.7573
2.0814	69.4572
2.0764	70.2482
2.0715	70.796
2.0665	70.5463
2.0616	70.3598
2.0567	70.0442
2.0518	69.9461
2.0469	69.0545
2.0421	68.6264
2.0373	68.493
2.0325	68.3165
2.0277	68.1486
2.0229	68.3323
2.0182	68.072
2.0135	67.6143
2.0088	67.9923
2.0042	67.4813
