Name: Serpentine (Mg,Fe^2+,Ni)Si_2O_5(OH)_4
Type: Mineral
Class: Silicate
Subclass: Phyllosilicate
Particle Size: Coarse
Sample No.: PS-20A
Owner: JPL
Wavelength Range: VSWIR
Origin: USA, New York
Description: Particle size was 125-500um.Collected by Ward's Original ASTER Spectral Library name was jpl.beckman.mineral.silicate.phyllosilicate.coarse.ps20a.spectrum.txt
Measurement: Hemispherical reflectance
X Units: Wavelength (micrometers)
Y Units: Reflectance (percent)
wavelength	value
0.4	34.51
0.403	34.39
0.406	34.18
0.409	33.83
0.412	33.5
0.415	33.36
0.418	33.31
0.421	32.97
0.424	32.58
0.427	32.38
0.43	32.04
0.433	31.89
0.436	31.91
0.439	32.12
0.442	32.64
0.445	32.86
0.448	33.1
0.451	33.34
0.454	33.73
0.457	34.09
0.46	34.41
0.463	35.73
0.466	37.48
0.469	39.13
0.472	40.71
0.475	42.14
0.478	43.41
0.481	44.08
0.484	44.78
0.487	45.13
0.49	45.59
0.493	45.95
0.496	46.48
0.499	47.16
0.502	47.56
0.505	48.18
0.508	48.65
0.511	49.13
0.514	49.66
0.517	50.23
0.52	50.63
0.523	51.03
0.526	51.38
0.529	51.66
0.532	51.94
0.535	52.46
0.538	52.83
0.541	53.03
0.544	53.34
0.547	53.63
0.55	53.85
0.553	54.18
0.556	54.47
0.559	54.54
0.562	55.11
0.565	55.15
0.568	55.22
0.571	55.31
0.574	55.34
0.577	55.43
0.58	55.55
0.583	55.55
0.586	55.45
0.589	55.43
0.592	55.56
0.595	55.61
0.598	55.38
0.601	55.5
0.604	55.55
0.607	55.34
0.61	55.26
0.613	55.26
0.616	55.31
0.619	54.99
0.622	55.11
0.625	54.87
0.628	54.59
0.631	54.52
0.634	54.38
0.637	54.33
0.64	54.18
0.643	54.11
0.646	54.06
0.649	53.78
0.652	53.78
0.655	53.72
0.658	53.49
0.661	53.44
0.664	53.34
0.667	53.06
0.67	53.12
0.673	53.02
0.676	52.99
0.679	52.77
0.682	52.89
0.685	52.7
0.688	52.53
0.691	52.57
0.694	52.51
0.697	52.43
0.7	52.12
0.703	52.27
0.706	52.08
0.709	52.04
0.712	51.91
0.715	51.9
0.718	51.67
0.721	51.62
0.724	51.74
0.727	51.59
0.73	51.5
0.733	51.39
0.736	51.44
0.739	51.24
0.742	51.39
0.745	51.54
0.748	51.34
0.751	51.56
0.754	51.55
0.757	51.64
0.76	51.65
0.763	51.74
0.766	51.75
0.769	51.57
0.772	51.88
0.775	52.09
0.778	52.2
0.781	52.3
0.784	52.44
0.787	52.4
0.79	52.41
0.793	52.62
0.796	52.59
0.799	52.66
0.808	53.34
0.82	53.42
0.832	53.33
0.844	53.12
0.856	52.87
0.868	52.65
0.88	52.43
0.892	52.22
0.904	52.25
0.916	52.32
0.928	52.01
0.94	49.33
0.952	51.64
0.964	53.45
0.976	53.83
0.988	54.15
1	54.44
1.012	54.62
1.024	54.79
1.036	54.89
1.048	54.97
1.06	55
1.072	55.07
1.084	55.13
1.096	55.11
1.108	55.26
1.12	55.45
1.132	55.43
1.144	55.49
1.156	55.55
1.168	55.78
1.18	56.15
1.192	56.59
1.204	57.02
1.216	57.36
1.228	57.68
1.24	57.95
1.252	56.68
1.264	55.79
1.276	52.89
1.288	56.94
1.3	57.9
1.312	58.91
1.324	58.91
1.336	58
1.348	46.24
1.36	49.57
1.372	33.38
1.384	16.13
1.396	32.68
1.408	47.4
1.42	50.95
1.432	53.31
1.444	54.68
1.456	55.51
1.468	56.43
1.48	57.42
1.492	58.42
1.504	58.83
1.516	59.47
1.528	60.19
1.54	60.88
1.552	61.3
1.564	61.72
1.576	62.18
1.588	62.43
1.6	62.63
1.612	62.87
1.624	62.99
1.636	63.12
1.648	63.07
1.66	63
1.672	62.74
1.684	62.51
1.696	62.04
1.708	61.67
1.72	60.76
1.732	60.23
1.744	59.32
1.756	58.48
1.768	57.65
1.78	57.33
1.792	56.63
1.804	55.16
1.816	55.15
1.828	55.28
1.84	54.4
1.852	53.07
1.864	51.33
1.876	47.58
1.888	42.13
1.9	36.09
1.912	32.96
1.924	32.53
1.936	32.55
1.948	31.9
1.96	30.95
1.972	30.36
1.984	30.94
1.996	32.58
2.008	34.33
2.02	35.19
2.032	36.45
2.044	39.23
2.056	41.71
2.068	40.83
2.08	37.44
2.092	34.66
2.104	33.56
2.116	32.93
2.128	33.93
2.14	37.62
2.152	41.05
2.164	42.38
2.176	42.76
2.188	42.4
2.2	41.26
2.212	37.91
2.224	31.57
2.236	25.97
2.248	22.32
2.26	19
2.272	16.89
2.284	15.39
2.296	12.86
2.308	9.48
2.32	7.97
2.332	9.85
2.344	13.96
2.356	15.69
2.368	14.45
2.38	13.16
2.392	12.29
2.404	11.68
2.416	11.27
2.428	11.18
2.44	11.64
2.452	11.67
2.464	10.88
2.476	9.55
2.488	8.5
2.5	8.1
