Name: AtacamiteCu_2Cl(OH)_3
Type: Mineral
Class: Halide
Subclass: None
Particle Size: Fine
Sample No.: H-4A
Owner: JPL
Wavelength Range: VSWIR
Origin: Chile, Atacama, Copiapo.
Description: Particle size was 0-45um.Collected by:  Grieger's Inc. Original ASTER Spectral Library name was jpl.perkin.mineral.halide.none.fine.h04a.spectrum.txt
Measurement: Hemispherical reflectance
X Units: Wavelength (micrometers)
Y Units: Reflectance (percent)
wavelength	value
2.5	43.5133
2.494	43.4061
2.488	43.3964
2.482	42.7736
2.476	41.3598
2.47	39.8158
2.464	39.5985
2.458	41.3724
2.452	43.8536
2.446	46.0754
2.44	47.3101
2.434	48.1526
2.428	48.6406
2.422	49.068
2.416	49.301
2.41	49.3049
2.404	49.2121
2.398	49.3238
2.392	49.5096
2.386	49.7947
2.38	49.9487
2.374	50.0935
2.368	50.4853
2.362	50.9025
2.356	51.2309
2.35	51.2147
2.344	50.8913
2.338	50.7034
2.332	51.2503
2.326	52.2247
2.32	53.2072
2.314	53.7542
2.308	54.0381
2.302	54.4759
2.296	54.7206
2.29	54.6097
2.284	54.1983
2.278	53.9191
2.272	53.7319
2.266	53.6468
2.26	53.5632
2.254	53.5728
2.248	54.2038
2.242	55.5617
2.236	57.0399
2.23	58.4519
2.224	59.3549
2.218	59.8772
2.212	60.0092
2.206	60.1208
2.2	60.4866
2.194	60.9419
2.188	61.3324
2.182	61.5802
2.176	61.4701
2.17	60.7329
2.164	59.2768
2.158	58.5693
2.152	59.7596
2.146	61.9724
2.14	63.6436
2.134	64.5002
2.128	64.8671
2.122	64.8628
2.116	64.6869
2.11	64.3454
2.104	64.1195
2.098	63.9174
2.092	63.9072
2.086	63.9416
2.08	63.9228
2.074	63.7911
2.068	63.5911
2.062	63.3455
2.056	63.0429
2.05	62.666
2.044	62.1426
2.038	61.4874
2.032	60.7915
2.026	59.9886
2.02	59.3634
2.014	58.5504
2.008	57.099
2.002	55.2076
1.996	53.0034
1.99	51.6245
1.984	51.6641
1.978	52.0752
1.972	52.0402
1.966	51.6845
1.96	51.1245
1.954	50.5719
1.948	50.1559
1.942	49.797
1.936	49.4172
1.93	49.0456
1.924	48.541
1.918	48.0222
1.912	47.681
1.906	48.1106
1.9	50.3004
1.894	53.7539
1.888	57.4047
1.882	60.4589
1.876	63.3267
1.87	65.849
1.864	66.8745
1.858	66.1683
1.852	66.7672
1.846	68.4824
1.84	69.4434
1.834	69.8215
1.828	69.9426
1.822	69.8834
1.816	69.8509
1.81	69.898
1.804	69.7971
1.798	69.7779
1.792	69.7119
1.786	69.6736
1.78	69.6243
1.774	69.5807
1.768	69.5423
1.762	69.5758
1.756	69.4914
1.75	69.5458
1.744	69.545
1.738	69.4894
1.732	69.4003
1.726	69.3169
1.72	69.1908
1.714	69.094
1.708	69.0224
1.702	68.9475
1.696	68.7024
1.69	68.5673
1.684	68.4244
1.678	68.2602
1.672	68.1155
1.666	67.8837
1.66	67.7632
1.654	67.5637
1.648	67.3803
1.642	67.2204
1.636	66.7997
1.63	66.5817
1.624	66.4337
1.618	66.1026
1.612	65.8743
1.606	65.67
1.6	65.265
1.594	64.7299
1.588	64.5694
1.582	64.4266
1.576	64.1338
1.57	63.7449
1.564	62.7442
1.558	61.7204
1.552	62.3815
1.546	62.3689
1.54	62.0867
1.534	61.6353
1.528	61.079
1.522	60.7798
1.516	60.3786
1.51	59.4125
1.504	59.2976
1.498	58.3839
1.492	57.3026
1.486	57.7875
1.48	57.3925
1.474	55.7575
1.468	53.9345
1.462	55.8263
1.456	55.6794
1.45	55.5914
1.444	55.5081
1.438	55.1435
1.432	54.7094
1.426	54.0214
1.42	53.0717
1.414	51.811
1.408	52.9301
1.402	54.2899
1.396	55.1666
1.39	55.6217
1.384	55.8513
1.378	55.8153
1.372	55.8003
1.366	55.8584
1.36	55.5819
1.354	55.2983
1.348	54.9076
1.342	54.8593
1.336	54.4388
1.33	54.2756
1.324	53.9587
1.318	53.7349
1.312	53.3803
1.306	53.1228
1.3	52.797
1.294	52.4355
1.288	52.1714
1.282	51.8091
1.276	51.4606
1.27	51.1515
1.264	50.7998
1.258	50.4563
1.252	50.0166
1.246	49.7257
1.24	49.3365
1.234	49.0921
1.228	48.7091
1.222	48.3494
1.216	47.9779
1.21	47.7009
1.204	47.2796
1.198	46.9052
1.192	46.5452
1.186	46.1996
1.18	45.824
1.174	45.4875
1.168	45.0887
1.162	44.7318
1.156	44.2978
1.15	43.9517
1.144	43.6316
1.138	43.2689
1.132	42.8608
1.126	42.5188
1.12	42.0552
1.114	41.6284
1.108	41.2132
1.102	40.8062
1.096	40.3608
1.09	39.8856
1.084	39.5134
1.078	38.9987
1.072	38.562
1.066	38.016
1.06	37.5371
1.054	37.0677
1.048	36.5087
1.042	35.9272
1.036	35.4429
1.03	34.8643
1.024	34.2862
1.018	33.496
1.012	33.0225
1.006	32.3356
1	31.7168
0.994	31.1784
0.988	30.497
0.982	29.8533
0.976	29.2033
0.97	28.5971
0.964	28.0183
0.958	27.3714
0.952	26.8939
0.946	26.3435
0.94	25.7282
0.934	25.1586
0.928	24.6588
0.922	24.1669
0.916	23.6733
0.91	23.2418
0.904	22.7263
0.898	22.2762
0.892	22.0025
0.886	21.6445
0.88	21.2301
0.874	20.9894
0.868	20.585
0.862	20.2923
0.856	20.1797
0.85	19.8931
0.844	19.6378
0.838	19.3465
0.832	19.0921
0.826	18.8133
0.82	18.5258
0.814	18.2797
0.808	18.0077
0.802	17.7288
0.796	17.4578
0.79	17.2025
0.784	16.9212
0.778	16.6696
0.772	16.4318
0.766	16.1938
0.76	15.9715
0.754	15.7903
0.748	15.6021
0.742	15.4459
0.736	15.3224
0.73	15.2313
0.724	15.1777
0.718	15.1538
0.712	15.1678
0.706	15.2356
0.7	15.3534
0.694	15.5159
0.688	15.7392
0.682	16.0193
0.676	16.3627
0.67	16.7671
0.664	17.2423
0.658	17.8005
0.652	18.3867
0.646	19.0904
0.64	19.8865
0.634	20.7476
0.628	21.7065
0.622	22.7398
0.616	23.8543
0.61	25.0276
0.604	26.2546
0.598	27.5291
0.592	28.8103
0.586	30.0738
0.58	31.2925
0.574	32.3913
0.568	33.4473
0.562	34.3653
0.556	35.1601
0.55	35.8004
0.544	36.3325
0.538	36.7091
0.532	36.9433
0.526	37.0625
0.52	37.0632
0.514	36.9471
0.508	36.7339
0.502	36.4382
0.496	36.0478
0.49	35.5777
0.484	35.0089
0.478	34.3351
0.472	33.5385
0.466	32.6615
0.46	31.6151
0.454	30.5284
0.448	29.322
0.442	27.9461
0.436	26.4816
0.43	24.9382
0.424	23.3416
0.418	21.7388
0.412	20.2305
0.406	18.8549
0.4	17.5045
