Name: Orthoclase (Feldspar) (K,Na)AlSi_3O_8
Type: Mineral
Class: Silicate
Subclass: Tectosilicate
Particle Size: Coarse
Sample No.: TS-12A
Owner: JPL
Wavelength Range: VSWIR
Origin: India
Description: Particle size was 125-500um.Collected by Burminco Original ASTER Spectral Library name was jpl.beckman.mineral.silicate.tectosilicate.coarse.ts12a.spectrum.txt
Measurement: Hemispherical reflectance
X Units: Wavelength (micrometers)
Y Units: Reflectance (percent)
wavelength	value
0.4	63.63
0.403	64.09
0.406	64.43
0.409	64.65
0.412	64.92
0.415	65.04
0.418	65.31
0.421	65.79
0.424	66.03
0.427	66.51
0.43	67.02
0.433	67.27
0.436	67.42
0.439	68
0.442	68.22
0.445	68.54
0.448	68.93
0.451	69.26
0.454	69.38
0.457	69.65
0.46	69.91
0.463	70.28
0.466	70.49
0.469	70.69
0.472	70.94
0.475	71.27
0.478	71.13
0.481	71.28
0.484	71.41
0.487	71.68
0.49	71.83
0.493	72.19
0.496	72.12
0.499	72.29
0.502	72.39
0.505	72.61
0.508	72.74
0.511	73.12
0.514	73.07
0.517	73.27
0.52	73.36
0.523	73.4
0.526	73.52
0.529	73.89
0.532	73.68
0.535	73.87
0.538	74.07
0.541	74.07
0.544	74.13
0.547	74.45
0.55	74.54
0.553	74.81
0.556	74.87
0.559	74.91
0.562	75.48
0.565	75.41
0.568	75.67
0.571	75.57
0.574	75.56
0.577	75.61
0.58	75.7
0.583	75.73
0.586	75.91
0.589	75.87
0.592	76.03
0.595	76.03
0.598	76.03
0.601	76.19
0.604	76.26
0.607	76.15
0.61	76.26
0.613	76.22
0.616	76.19
0.619	76.09
0.622	76.11
0.625	76.05
0.628	76.19
0.631	76.09
0.634	76.1
0.637	76.2
0.64	76.28
0.643	76.22
0.646	76.2
0.649	76.29
0.652	76.36
0.655	76.37
0.658	76.4
0.661	76.36
0.664	76.43
0.667	76.41
0.67	76.38
0.673	76.37
0.676	76.54
0.679	76.52
0.682	76.53
0.685	76.56
0.688	76.52
0.691	76.42
0.694	76.58
0.697	76.5
0.7	76.34
0.703	76.76
0.706	76.77
0.709	76.87
0.712	76.65
0.715	76.77
0.718	76.64
0.721	76.79
0.724	76.77
0.727	76.97
0.73	76.78
0.733	76.77
0.736	76.85
0.739	76.85
0.742	76.97
0.745	76.99
0.748	76.86
0.751	76.97
0.754	76.9
0.757	76.89
0.76	77.01
0.763	77
0.766	77.03
0.769	76.89
0.772	77
0.775	77.01
0.778	77.06
0.781	77.04
0.784	77.1
0.787	76.97
0.79	77.04
0.793	77.05
0.796	76.98
0.799	77.12
0.808	76.94
0.82	77
0.832	76.96
0.844	76.93
0.856	77.04
0.868	77.04
0.88	77.07
0.892	76.85
0.904	76.81
0.916	76.75
0.928	76.75
0.94	76.65
0.952	76.72
0.964	76.55
0.976	76.55
0.988	76.4
1	76.32
1.012	76.26
1.024	76.26
1.036	76.13
1.048	76.18
1.06	76.04
1.072	76.04
1.084	76.11
1.096	76.02
1.108	76.16
1.12	76.1
1.132	76.17
1.144	76.11
1.156	76.23
1.168	76.24
1.18	76.29
1.192	76.35
1.204	76.48
1.216	76.48
1.228	76.54
1.24	76.68
1.252	76.65
1.264	76.75
1.276	76.83
1.288	77.02
1.3	76.88
1.312	77.12
1.324	77.07
1.336	77.01
1.348	77.24
1.36	77.18
1.372	77.31
1.384	77.18
1.396	77.16
1.408	77.12
1.42	77.23
1.432	77.24
1.444	77.47
1.456	77.52
1.468	77.57
1.48	77.68
1.492	77.81
1.504	77.94
1.516	77.92
1.528	78.14
1.54	78.04
1.552	78.22
1.564	78.14
1.576	78.33
1.588	78.27
1.6	78.46
1.612	78.38
1.624	78.52
1.636	78.5
1.648	78.56
1.66	78.59
1.672	78.56
1.684	78.56
1.696	78.71
1.708	78.78
1.72	78.71
1.732	78.78
1.744	78.68
1.756	78.75
1.768	78.85
1.78	78.71
1.792	78.78
1.804	78.84
1.816	78.92
1.828	78.85
1.84	78.91
1.852	78.82
1.864	78.74
1.876	78.46
1.888	78.14
1.9	77.57
1.912	77.34
1.924	77.32
1.936	77.52
1.948	77.76
1.96	77.86
1.972	78.19
1.984	78.5
1.996	78.71
2.008	78.99
2.02	79.12
2.032	79.23
2.044	79.27
2.056	79.25
2.068	79.56
2.08	79.6
2.092	79.65
2.104	79.75
2.116	80
2.128	79.95
2.14	79.88
2.152	79.61
2.164	79.58
2.176	79.4
2.188	79.24
2.2	79.16
2.212	79.1
2.224	79.21
2.236	79.27
2.248	79.21
2.26	79.31
2.272	79.47
2.284	79.31
2.296	79.36
2.308	79.31
2.32	79.44
2.332	79.61
2.344	79.63
2.356	79.57
2.368	79.46
2.38	79.3
2.392	79.28
2.404	79.04
2.416	78.89
2.428	78.73
2.44	78.41
2.452	78.22
2.464	77.92
2.476	77.7
2.488	77.74
2.5	77.99
