Name: Staurolite (Fe+2,Mg,Zn)2Al9(Si,Al)4O22(OH)2
Type: Mineral
Class: Silicate
Subclass: Nesosilicate
Particle Size: Coarse
Sample No.: staurol_1
Owner: JHU
Wavelength Range: TIR
Origin: Rubellita, Minas Gerais, Brazil via the Smithsonian (sample no.NMNH 143312)
Description: Sample was a large, dark brown, prismatic crystal with good faces, weighing 50.6 g. Some (10%) surface contamination with muscovite and possible quartz was removed by scraping. Small (<0.5 mm) inclusions were scattered throughout the interior of the crystal, some opaque and some not. Such inclusions are typical of this metamorphic mineral and a purer sample could not be found. Particle size was 75 - 250  Micrometers. (Framework silicates) Original ASTER Spectral Library name was jhu.nicolet.mineral.silicate.nesosilicate.coarse.stauro1.spectrum.txt
Measurement: Bidirectional reflectance
X Units: Wavelength (micrometers)
Y Units: Reflectance (percent)
wavelength	value
25.0442	3.9673
24.3388	4.5181
23.6719	5.2566
23.0407	5.616
22.4422	4.3393
21.8741	4.4311
21.334	5.2095
20.8199	5.8696
20.33	6.1006
19.8627	5.7283
19.4163	5.2522
18.9896	5.3176
18.5812	5.4824
18.19	5.3252
17.815	5.1877
17.4551	5.5249
17.1094	6.3039
16.7772	6.8454
16.4576	6.9314
16.15	7.0703
15.8537	7.1479
15.568	7.6528
15.2925	7.9226
15.0265	7.9783
14.7697	7.8425
14.5214	8.1452
14.2814	8.2759
14.0492	7.2221
13.8244	5.2746
13.6067	3.4783
13.3957	2.2102
13.1912	1.9543
12.9929	2.0166
12.8004	1.7759
12.6135	1.4304
12.432	1.3015
12.2557	1.5498
12.0843	1.9702
11.9176	2.3899
11.7555	2.6685
11.5977	2.8689
11.444	3
11.2944	3.1238
11.1487	3.3245
11.0067	3.5027
10.8682	3.6799
10.7332	3.9338
10.6015	4.2109
10.473	4.4182
10.3476	4.4626
10.2251	4.4932
10.1056	4.9372
9.9887	5.6863
9.8746	6.4702
9.763	6.9485
9.6539	6.7444
9.5472	6.156
9.4429	5.4368
9.3408	4.9365
9.2409	3.9028
9.1431	2.5039
9.0474	1.2454
8.9536	0.4949
8.8618	0.2373
8.7718	0.2402
8.6837	0.3069
8.5973	0.3813
8.5126	0.4536
8.4295	0.5361
8.3481	0.603
8.2682	0.688
8.1898	0.739
8.1129	0.8022
8.0374	0.8533
7.9634	0.9067
7.8906	0.9582
7.8192	1.0073
7.7491	1.0493
7.6802	1.0903
7.6126	1.1379
7.5461	1.1716
7.4807	1.2129
7.4165	1.2603
7.3534	1.3101
7.2914	1.3606
7.2303	1.4028
7.1703	1.4602
7.1113	1.4976
7.0533	1.5439
6.9962	1.5842
6.94	1.6282
6.8847	1.6687
6.8302	1.6912
6.7767	1.7129
6.7239	1.7417
6.672	1.7751
6.6209	1.8206
6.5705	1.8635
6.5209	1.9297
6.4721	1.9954
6.424	2.0769
6.3766	2.1484
6.3299	2.2312
6.2838	2.3186
6.2385	2.4145
6.1937	2.5088
6.1496	2.5906
6.1062	2.6533
6.0633	2.7148
6.0211	2.7439
5.9794	2.7405
5.9383	2.6794
5.8978	2.6238
5.8578	2.563
5.8184	2.4817
5.7794	2.4197
5.741	2.321
5.7031	2.218
5.6657	2.1326
5.6288	2.061
5.5924	1.9775
5.5564	1.8933
5.5209	1.8206
5.4859	1.7778
5.4513	1.7498
5.4171	1.7349
5.3833	1.7373
5.35	1.7478
5.3171	1.7776
5.2846	1.8076
5.2524	1.8411
5.2207	1.8826
5.1893	1.9209
5.1584	1.9727
5.1277	2.0535
5.0975	2.158
5.0676	2.2815
5.038	2.4294
5.0088	2.5969
4.98	2.7974
4.9514	3.019
4.9232	3.2095
4.8953	3.4133
4.8678	3.6152
4.8405	3.8203
4.8135	3.9717
4.7868	4.1069
4.7605	4.1826
4.7344	4.2204
4.7086	4.2715
4.6831	4.3679
4.6578	4.4546
4.6328	4.5185
4.6081	4.5781
4.5837	4.6025
4.5595	4.6084
4.5356	4.623
4.5119	4.6423
4.4884	4.6457
4.4652	4.6482
4.4423	4.656
4.4196	4.6562
4.3971	4.654
4.3748	4.6438
4.3528	4.6318
4.331	4.6238
4.3094	4.6084
4.288	4.5862
4.2668	4.5659
4.2458	4.5552
4.2251	4.541
4.2045	4.5232
4.1841	4.4897
4.164	4.4563
4.144	4.4277
4.1242	4.3928
4.1046	4.3664
4.0852	4.3281
4.066	4.2822
4.047	4.2422
4.0281	4.1943
4.0094	4.1548
3.9909	4.0994
3.9725	4.0412
3.9544	3.9895
3.9363	3.9307
3.9185	3.8823
3.9008	3.8315
3.8833	3.7676
3.8659	3.7119
3.8487	3.6638
3.8316	3.5942
3.8147	3.5415
3.7979	3.4834
3.7813	3.4309
3.7648	3.365
3.7485	3.3052
3.7323	3.2351
3.7162	3.1743
3.7003	3.1023
3.6845	3.0415
3.6689	2.9863
3.6534	2.915
3.638	2.8589
3.6227	2.8083
3.6076	2.7436
3.5926	2.6865
3.5777	2.6206
3.563	2.5647
3.5484	2.5046
3.5338	2.4521
3.5195	2.397
3.5052	2.342
3.491	2.2944
3.477	2.2427
3.463	2.2029
3.4492	2.1506
3.4355	2.0981
3.4219	2.0596
3.4084	2.0063
3.395	1.9651
3.3817	1.9248
3.3685	1.8999
3.3554	1.8516
3.3425	1.8127
3.3296	1.7737
3.3168	1.7344
3.3041	1.7104
3.2915	1.6902
3.279	1.6528
3.2666	1.6204
3.2543	1.5986
3.2421	1.5715
3.23	1.5581
3.218	1.5244
3.206	1.5124
3.1942	1.4832
3.1824	1.4724
3.1707	1.4551
3.1591	1.4424
3.1476	1.4236
3.1362	1.4092
3.1249	1.4019
3.1136	1.366
3.1024	1.3596
3.0913	1.3447
3.0803	1.3247
3.0694	1.3081
3.0585	1.2888
3.0477	1.2654
3.037	1.2534
3.0264	1.2329
3.0158	1.2185
3.0053	1.1963
2.9949	1.1912
2.9845	1.1938
2.9743	1.1885
2.9641	1.1768
2.9539	1.1709
2.9439	1.1663
2.9339	1.1724
2.9239	1.1465
2.9141	1.1372
2.9043	1.1392
2.8946	1.1169
2.8849	1.1108
2.8753	1.0933
2.8658	1.092
2.8563	1.1052
2.8469	1.1184
2.8375	1.1047
2.8282	1.1174
2.819	1.1306
2.8098	1.1379
2.8007	1.1211
2.7917	1.1372
2.7827	1.1396
2.7738	1.1411
2.7649	1.1589
2.7561	1.166
2.7473	1.1489
2.7386	1.1428
2.7299	1.1309
2.7213	1.1228
2.7128	1.1103
2.7043	1.1106
2.6959	1.1379
2.6875	1.1379
2.6791	1.1418
2.6709	1.1367
2.6626	1.1392
2.6545	1.1384
2.6463	1.1418
2.6382	1.1377
2.6302	1.1272
2.6222	1.1291
2.6143	1.1318
2.6064	1.1357
2.5986	1.1392
2.5908	1.1472
2.583	1.1272
2.5753	1.1428
2.5677	1.1348
2.5601	1.1384
2.5525	1.1265
2.545	1.1335
2.5375	1.125
2.5301	1.1323
2.5227	1.1267
2.5154	1.105
2.5081	1.1467
2.5008	1.1235
2.4936	1.1245
2.4864	1.1047
2.4793	1.1162
2.4722	1.1294
2.4651	1.1091
2.4581	1.1167
2.4511	1.134
2.4442	1.1165
2.4373	1.1038
2.4305	1.1042
2.4236	1.1086
2.4169	1.1323
2.4101	1.1025
2.4034	1.1233
2.3967	1.1191
2.3901	1.1277
2.3835	1.1038
2.377	1.1189
2.3704	1.1301
2.364	1.1106
2.3575	1.1191
2.3511	1.0955
2.3447	1.1365
2.3384	1.1208
2.3321	1.1204
2.3258	1.1006
2.3195	1.1096
2.3133	1.1523
2.3071	1.1265
2.301	1.1177
2.2949	1.1401
2.2888	1.1475
2.2828	1.1204
2.2767	1.157
2.2708	1.1394
2.2648	1.1455
2.2589	1.1265
2.253	1.1533
2.2471	1.1504
2.2413	1.1392
2.2355	1.127
2.2297	1.1431
2.224	1.1323
2.2183	1.124
2.2126	1.1482
2.207	1.145
2.2013	1.1343
2.1957	1.123
2.1902	1.1714
2.1846	1.1189
2.1791	1.1526
2.1736	1.1416
2.1682	1.1418
2.1628	1.1465
2.1574	1.1409
2.152	1.168
2.1466	1.1108
2.1413	1.1335
2.136	1.1707
2.1308	1.1802
2.1255	1.1616
2.1203	1.1641
2.1151	1.1548
2.11	1.1377
2.1048	1.1228
2.0997	1.1519
2.0946	1.1357
2.0895	1.165
2.0845	1.1653
2.0795	1.1179
