Name: Labradorite (Feldspar) (NaSi,CaAl)AlSi_2O_8
Type: Mineral
Class: Silicate
Subclass: Tectosilicate
Particle Size: Coarse
Sample No.: TS-2A
Owner: JPL
Wavelength Range: TIR
Origin: Mexico, Sonora, Pinacate
Description: Particle size was 125-500um.Collected by Burminco Original ASTER Spectral Library name was jpl.nicolet.mineral.silicate.tectosilicate.coarse.ts02a.spectrum.txt
Measurement: Hemispherical reflectance
X Units: Wavelength (micrometers)
Y Units: Reflectance (percent)
wavelength	value
15.3853	3.4705
15.1161	2.2276
14.8563	2.6233
14.6052	2.7343
14.3624	2.9273
14.1276	3.3728
13.9004	3.0828
13.6803	3.4673
13.4671	3.6812
13.2604	3.6603
13.06	3.3751
12.8656	3.1265
12.6769	3.1966
12.4936	3.5637
12.3155	3.966
12.1425	4.795
11.9742	5.4308
11.8106	5.8479
11.6513	6.1132
11.4963	6.6064
11.3454	7.7164
11.1983	9.1335
11.0551	10.7686
10.9154	12.0114
10.7793	12.7355
10.6465	13.5959
10.5169	13.7072
10.3904	13.3861
10.267	13.0483
10.1464	13.1796
10.0287	13.0993
9.9136	12.5594
9.8012	11.67
9.6913	10.7218
9.5838	9.5503
9.4787	8.5279
9.3758	8.1781
9.2752	7.6863
9.1767	7.8191
9.0803	8.6121
8.9858	9.5026
8.8934	10.0307
8.8028	9.818
8.714	9.2962
8.627	8.8964
8.5417	8.4045
8.4581	7.7663
8.3761	6.3448
8.2957	4.0865
8.2169	1.3393
8.1395	0.3667
8.0635	0.2765
7.989	0.0687
7.9158	0.0737
7.8439	0
7.7734	0.256
7.7041	0.2946
7.636	0.5205
7.5691	0.5154
7.5034	0.6338
7.4388	0.6987
7.3753	0.862
7.3129	0.8313
7.2515	0.9849
7.1912	1.003
7.1318	1.1135
7.0734	1.2201
7.016	1.239
6.9595	1.4428
6.9039	1.4745
6.8492	1.5326
6.7953	1.6035
6.7423	1.5521
6.6901	1.68
6.6387	1.8582
6.5881	1.7564
6.5382	1.7791
6.4892	2.0234
6.4408	1.787
6.3931	1.7716
6.3462	1.997
6.2999	1.9802
6.2543	1.9506
6.2094	1.9016
6.1651	2.0828
6.1214	2.1187
6.0784	2.1069
6.0359	2.0854
5.994	2.1273
5.9527	2.2398
5.912	2.3218
5.8718	2.2209
5.8322	2.4028
5.7931	2.4542
5.7545	2.5817
5.7165	2.7584
5.6789	2.7799
5.6418	3.0036
5.6052	2.9608
5.5691	3.1133
5.5334	3.2791
5.4982	3.3321
5.4635	3.5827
5.4291	3.598
5.3952	3.7275
5.3618	3.9934
5.3287	4.2549
5.2961	4.475
5.2638	4.7658
5.2319	5.1813
5.2004	5.5317
5.1693	5.9395
5.1386	6.3706
5.1082	7.036
5.0782	7.7397
5.0485	8.1939
5.0192	8.8201
4.9902	9.3312
4.9616	9.8726
4.9332	10.2866
4.9052	10.6219
4.8776	11.0916
4.8502	11.4636
4.8231	11.892
4.7963	12.3462
4.7699	12.8621
4.7437	13.4674
4.7178	14.1667
4.6922	15.0059
4.6668	15.8301
4.6418	16.9364
4.617	18.2635
4.5924	19.5998
4.5681	21.0615
4.5441	22.5812
4.5203	23.9803
4.4968	25.528
4.4735	27.0442
4.4505	28.432
4.4277	29.8234
4.4051	31.2942
4.3828	32.6155
4.3607	33.9743
4.3388	35.5412
4.3171	37.042
4.2956	38.4486
4.2744	40.1423
4.2534	42.2666
4.2325	43.4477
4.2119	45.3319
4.1915	46.8773
4.1712	47.9659
4.1512	48.9819
4.1313	49.6986
4.1117	50.5752
4.0922	51.1734
4.0729	51.9726
4.0538	52.7379
4.0349	53.5363
4.0161	54.3845
3.9976	55.1215
3.9792	55.6839
3.9609	56.2607
3.9428	56.7491
3.9249	57.2924
3.9072	57.7661
3.8896	58.0872
3.8722	58.7102
3.8549	58.8742
3.8378	59.2122
3.8208	59.4548
3.804	59.7643
3.7873	59.7499
3.7708	59.7769
3.7544	59.818
3.7382	59.6247
3.7221	59.4266
3.7061	59.1985
3.6903	58.9039
3.6746	58.583
3.659	58.2887
3.6436	57.7698
3.6283	57.4421
3.6131	56.9292
3.5981	56.5156
3.5832	55.9937
3.5684	55.4319
3.5537	54.8909
3.5391	54.1634
3.5247	53.5959
3.5104	52.8632
3.4962	52.1163
3.4821	51.5356
3.4681	50.9823
3.4543	50.393
3.4405	49.6455
3.4269	48.8841
3.4133	48.2142
3.3999	47.7353
3.3866	47.2698
3.3733	46.5087
3.3602	46.1861
3.3472	45.7391
3.3343	45.3651
3.3215	44.6653
3.3088	44.3194
3.2961	43.8577
3.2836	43.3171
3.2712	42.8572
3.2588	42.5363
3.2466	42.0404
3.2345	41.5611
3.2224	41.4081
3.2104	41.0045
3.1985	40.5817
3.1867	40.3479
3.175	40.2616
3.1634	39.9414
3.1519	39.7615
3.1404	39.6365
3.129	39.6533
3.1178	39.7206
3.1065	39.6883
3.0954	39.8057
3.0844	39.8539
3.0734	40.0292
3.0625	40.2854
3.0517	40.3592
3.041	40.7269
3.0303	40.7121
3.0197	41.1377
3.0092	41.2119
2.9987	41.5998
2.9884	41.8235
2.9781	42.2407
2.9678	42.7067
2.9577	42.8994
2.9476	43.5708
2.9376	44.1056
2.9276	44.7015
2.9177	45.5625
2.9079	46.3245
2.8982	46.8319
2.8885	48.1928
2.8789	48.8507
2.8693	50.0242
2.8598	51.0123
2.8504	51.9949
2.841	52.9814
2.8317	53.9512
2.8224	54.5817
2.8133	55.5471
2.8041	56.6738
2.7951	57.2779
2.786	58.703
2.7771	59.6467
2.7682	61.6235
2.7594	62.6439
2.7506	64.9195
2.7418	67.2986
2.7332	67.9375
2.7246	70.1264
2.716	70.39
2.7075	71.4509
2.699	72.477
2.6906	73.6996
2.6823	74.6648
2.674	75.0644
2.6657	76.8151
2.6575	75.015
2.6494	75.1006
2.6413	75.3395
2.6332	75.4901
2.6252	75.4056
2.6173	76.3002
2.6094	75.6058
2.6015	75.4847
2.5937	76.9048
2.5859	75.4845
2.5782	75.3598
2.5706	75.3506
2.5629	75.7327
2.5554	74.9854
2.5478	74.9643
2.5403	74.843
2.5329	74.8064
2.5255	74.592
2.5181	74.6004
2.5108	74.472
2.5035	74.5354
2.4963	74.5673
2.4891	74.4955
2.482	74.5796
2.4749	74.6935
2.4678	74.5373
2.4608	74.7212
2.4538	74.6083
2.4468	74.6482
2.4399	74.5548
2.4331	74.8355
2.4262	74.5689
2.4194	74.6707
2.4127	74.6533
2.4059	74.433
2.3993	74.4752
2.3926	74.393
2.386	74.4315
2.3795	74.3788
2.3729	74.6663
2.3664	74.4185
2.36	74.3033
2.3535	74.4055
2.3471	74.3817
2.3408	74.267
2.3345	74.3688
2.3282	74.3347
2.3219	74.0828
2.3157	74.1988
2.3095	74.2698
2.3034	73.9985
2.2972	73.9053
2.2911	74.0612
2.2851	74.0957
2.279	73.913
2.2731	74.0996
2.2671	73.8743
2.2612	73.9114
2.2553	73.8459
2.2494	73.985
2.2435	73.7926
2.2377	73.7246
2.232	73.9729
2.2262	73.9264
2.2205	73.6484
2.2148	73.8201
2.2091	73.8859
2.2035	73.8671
2.1979	73.9114
2.1923	73.9422
2.1868	73.684
2.1812	73.8055
2.1758	73.9219
2.1703	73.8863
2.1649	73.6658
2.1595	73.7188
2.1541	73.5229
2.1487	73.9517
2.1434	74.0081
2.1381	73.8883
2.1328	73.8794
2.1275	73.8646
2.1223	73.7857
2.1171	73.9198
2.112	73.8473
2.1068	73.5705
2.1017	73.6705
2.0966	74.003
2.0915	73.6121
2.0865	73.7682
2.0814	73.9788
2.0764	73.6
2.0715	73.6754
2.0665	73.8602
2.0616	73.7606
2.0567	73.9394
2.0518	74.0509
2.0469	73.9549
2.0421	73.9435
2.0373	73.8711
2.0325	73.894
2.0277	74.1104
2.0229	73.9853
2.0182	74.0169
2.0135	73.9546
2.0088	73.5157
2.0042	73.8187
