Name: Jarosite KFe_3^3+(SO_4)_2(OH)_6
Type: Mineral
Class: Sulfate
Subclass: None
Particle Size: Fine
Sample No.: SO-7A
Owner: JPL
Wavelength Range: TIR
Origin: Mexico, Chihuahua
Description: Particle size was 0-45um.Collected by Ward's Original ASTER Spectral Library name was jpl.nicolet.mineral.sulfate.none.fine.so07a.spectrum.txt
Measurement: Hemispherical reflectance
X Units: Wavelength (micrometers)
Y Units: Reflectance (percent)
wavelength	value
15.3853	1.6205
15.1161	2.0647
14.8563	2.1316
14.6052	2.3061
14.3624	2.4081
14.1276	2.6624
13.9004	3.1653
13.6803	3.5571
13.4671	3.8033
13.2604	4.661
13.06	5.4784
12.8656	5.7554
12.6769	4.3613
12.4936	2.8315
12.3155	2.1871
12.1425	1.7875
11.9742	1.1662
11.8106	1.2514
11.6513	1.4614
11.4963	1.4846
11.3454	2.1486
11.1983	3.122
11.0551	4.376
10.9154	5.179
10.7793	6.3113
10.6465	7.2703
10.5169	7.382
10.3904	7.3991
10.267	6.5738
10.1464	4.421
10.0287	2.7004
9.9136	2.7547
9.8012	2.2901
9.6913	1.9224
9.5838	1.6329
9.4787	2.0818
9.3758	2.2327
9.2752	2.353
9.1767	2.0131
9.0803	2.0426
8.9858	1.9381
8.8934	1.6217
8.8028	1.0611
8.714	1.3133
8.627	1.1744
8.5417	1.2885
8.4581	1.2553
8.3761	1.4823
8.2957	1.7962
8.2169	2.2846
8.1395	3.2172
8.0635	4.8042
7.989	7.5339
7.9158	11.3255
7.8439	14.2441
7.7734	16.3881
7.7041	18.0677
7.636	19.3239
7.5691	20.4142
7.5034	21.078
7.4388	21.3222
7.3753	22.31
7.3129	22.9169
7.2515	23.427
7.1912	24.2581
7.1318	25.0101
7.0734	25.4743
7.016	25.6843
6.9595	26.3467
6.9039	26.1861
6.8492	26.5056
6.7953	27.2542
6.7423	27.3318
6.6901	27.813
6.6387	28.675
6.5881	27.9109
6.5382	27.3702
6.4892	28.0655
6.4408	26.85
6.3931	26.7604
6.3462	27.0579
6.2999	26.5754
6.2543	26.2505
6.2094	25.8574
6.1651	25.0881
6.1214	24.7818
6.0784	25.361
6.0359	25.1638
5.994	25.3945
5.9527	25.4149
5.912	25.7287
5.8718	26.4619
5.8322	26.9338
5.7931	27.2294
5.7545	27.8384
5.7165	28.4017
5.6789	28.5139
5.6418	29.1361
5.6052	28.9022
5.5691	28.9582
5.5334	29.2097
5.4982	29.5026
5.4635	30.0677
5.4291	30.3669
5.3952	30.6198
5.3618	31.0046
5.3287	31.2716
5.2961	31.1044
5.2638	30.8082
5.2319	30.0787
5.2004	28.9274
5.1693	27.1919
5.1386	25.3784
5.1082	23.763
5.0782	22.9491
5.0485	22.6041
5.0192	22.2672
4.9902	21.6965
4.9616	21.1804
4.9332	21.1288
4.9052	21.3846
4.8776	21.3355
4.8502	21.0874
4.8231	20.8512
4.7963	20.4999
4.7699	19.9262
4.7437	19.3021
4.7178	18.6629
4.6922	18.1887
4.6668	17.8977
4.6418	18.0836
4.617	18.614
4.5924	19.2317
4.5681	19.8441
4.5441	20.6679
4.5203	21.6765
4.4968	23.0648
4.4735	24.8216
4.4505	26.75
4.4277	28.5001
4.4051	30.0126
4.3828	30.9497
4.3607	31.7432
4.3388	32.3822
4.3171	32.6807
4.2956	32.6773
4.2744	32.6435
4.2534	32.825
4.2325	32.7604
4.2119	32.8124
4.1915	32.9408
4.1712	32.7772
4.1512	32.8353
4.1313	32.8306
4.1117	32.6624
4.0922	32.6423
4.0729	32.2311
4.0538	32.0159
4.0349	31.4467
4.0161	30.9929
3.9976	30.3141
3.9792	29.5477
3.9609	28.8075
3.9428	28.0928
3.9249	27.1779
3.9072	26.1985
3.8896	25.2605
3.8722	24.373
3.8549	23.4923
3.8378	22.6248
3.8208	21.6008
3.804	20.772
3.7873	20.0086
3.7708	19.1189
3.7544	18.1149
3.7382	17.3518
3.7221	16.5486
3.7061	15.7361
3.6903	15.0124
3.6746	14.2046
3.659	13.6485
3.6436	12.9213
3.6283	12.2433
3.6131	11.5486
3.5981	10.9908
3.5832	10.2582
3.5684	9.779
3.5537	9.2365
3.5391	8.8055
3.5247	8.4513
3.5104	8.0324
3.4962	7.6061
3.4821	7.1954
3.4681	6.968
3.4543	6.815
3.4405	6.41
3.4269	6.3449
3.4133	6.0892
3.3999	5.9554
3.3866	5.971
3.3733	5.8438
3.3602	5.6372
3.3472	5.5855
3.3343	5.7181
3.3215	5.6198
3.3088	5.7239
3.2961	5.7669
3.2836	5.8443
3.2712	5.9586
3.2588	5.9145
3.2466	6.1343
3.2345	6.2341
3.2224	6.4191
3.2104	6.4051
3.1985	6.6382
3.1867	6.7017
3.175	6.833
3.1634	6.9831
3.1519	7.1283
3.1404	7.2533
3.129	7.1929
3.1178	7.2329
3.1065	7.0676
3.0954	6.6042
3.0844	6.3509
3.0734	5.7766
3.0625	5.4096
3.0517	4.9257
3.041	4.4364
3.0303	3.8679
3.0197	3.2676
3.0092	2.9867
2.9987	2.4949
2.9884	2.2056
2.9781	1.9638
2.9678	1.9104
2.9577	1.977
2.9476	2.2852
2.9376	2.862
2.9276	3.5042
2.9177	4.2124
2.9079	5.1776
2.8982	6.3057
2.8885	7.5068
2.8789	9.4283
2.8693	11.7837
2.8598	14.2712
2.8504	17.4269
2.841	20.562
2.8317	23.8662
2.8224	27.1214
2.8133	30.5372
2.8041	34.0343
2.7951	37.1167
2.786	40.8764
2.7771	43.7052
2.7682	46.9292
2.7594	49.653
2.7506	52.2634
2.7418	55.4907
2.7332	57.5663
2.7246	60.622
2.716	61.0204
2.7075	62.0214
2.699	62.3518
2.6906	62.5386
2.6823	62.4835
2.674	62.3122
2.6657	63.3599
2.6575	61.2979
2.6494	60.9266
2.6413	60.8474
2.6332	61.2319
2.6252	61.5043
2.6173	62.5877
2.6094	62.8344
2.6015	63.3704
2.5937	65.7118
2.5859	65.6394
2.5782	66.4193
2.5706	67.4976
2.5629	68.7949
2.5554	68.6715
2.5478	68.9997
2.5403	69.1638
2.5329	69.2524
2.5255	69.2815
2.5181	69.5155
2.5108	69.9466
2.5035	70.5007
2.4963	70.9704
2.4891	71.1522
2.482	71.1056
2.4749	71.1072
2.4678	71.0656
2.4608	71.2817
2.4538	71.5594
2.4468	72.149
2.4399	72.381
2.4331	73.0049
2.4262	73.4407
2.4194	73.7177
2.4127	74.208
2.4059	74.4191
2.3993	74.8292
2.3926	75.2996
2.386	75.786
2.3795	76.5006
2.3729	76.8295
2.3664	77.1686
2.36	77.4613
2.3535	77.7356
2.3471	77.6917
2.3408	77.6701
2.3345	77.2689
2.3282	76.7762
2.3219	76.204
2.3157	75.4099
2.3095	74.8275
2.3034	74.1561
2.2972	73.6755
2.2911	73.0977
2.2851	72.9024
2.279	72.9199
2.2731	73.2041
2.2671	74.008
2.2612	74.8187
2.2553	75.5826
2.2494	76.2005
2.2435	76.5613
2.2377	77.3133
2.232	77.9996
2.2262	78.4372
2.2205	78.71
2.2148	79.177
2.2091	79.4475
2.2035	79.605
2.1979	79.8818
2.1923	80.2329
2.1868	80.7731
2.1812	80.9143
2.1758	81.2761
2.1703	81.5811
2.1649	81.7783
2.1595	82.0106
2.1541	82.1715
2.1487	82.1628
2.1434	82.5678
2.1381	82.6029
2.1328	82.9962
2.1275	83.0289
2.1223	83.258
2.1171	83.3616
2.112	83.3347
2.1068	83.7505
2.1017	83.7366
2.0966	83.8452
2.0915	83.8551
2.0865	83.9097
2.0814	84.2089
2.0764	84.1691
2.0715	84.2763
2.0665	84.7939
2.0616	84.6532
2.0567	84.6857
2.0518	84.6398
2.0469	84.873
2.0421	84.9022
2.0373	84.8314
2.0325	84.9224
2.0277	84.9163
2.0229	85.2414
2.0182	85.3363
2.0135	85.6214
2.0088	85.5286
2.0042	85.6805
