Name: Clinochlore (Fe+2,Mg)5Al(Si3Al)O10(OH)8
Type: Mineral
Class: Silicate
Subclass: Phyllosilicate
Particle Size: Fine
Sample No.: clinochl_2
Owner: JHU
Wavelength Range: TIR
Origin: Hunt and Salisbury Collection (from the Clay Mineral SocietyRepository #CCA-1); orign, Flagstaff Hill, El Dorado Co., California.
Description: The sample was made up of green chunks of coarsely crystalline material.  Microscopic examination indicated that it was pure.Particle size was less than 2 Micrometers.(sheet silicates) (Chlorite Group) Original ASTER Spectral Library name was jhu.nicolet.mineral.silicate.phyllosilicate.powder.clinoc2.spectrum.txt
Measurement: Transmission
X Units: Wavelength (micrometers)
Y Units: Transmittance (percent)
wavelength	value
25.044	67.633
24.339	64.816
23.672	57.648
23.041	43.666
22.442	45.277
21.874	44.469
21.334	49.578
20.82	57.783
20.33	63.23
19.863	67.648
19.416	71.777
18.99	75.64
18.581	76.696
18.19	77.705
17.815	82.381
17.455	85.004
17.109	85.502
16.777	84.641
16.458	82.615
16.15	78.808
15.854	73.559
15.568	67.937
15.292	64.732
15.027	66.98
14.77	69.445
14.521	72.964
14.281	75.459
14.049	76.284
13.824	76.549
13.607	76.252
13.396	73.832
13.191	71.482
12.993	72.709
12.8	74.727
12.614	77.14
12.432	78.699
12.256	79.821
12.084	81.65
11.918	84.053
11.755	84.561
11.598	83.371
11.444	82.067
11.294	81.03
11.149	79.049
11.007	76.629
10.868	72.976
10.733	66.663
10.602	57.131
10.473	50.182
10.348	44.317
10.225	39.911
10.106	38.576
9.9887	42.328
9.8746	47.067
9.763	52.694
9.6539	59.737
9.5472	65.991
9.4429	71.75
9.3408	76.387
9.2409	80.465
9.1431	84.01
9.0474	86.18
8.9536	87.854
8.8618	89.246
8.7718	90.318
8.6837	91.239
8.5973	91.859
8.5126	92.735
8.4295	93.342
8.3481	93.925
8.2682	94.358
8.1898	94.762
8.1129	94.993
8.0374	95.282
7.9634	95.448
7.8906	95.586
7.8192	95.711
7.7491	96.034
7.6802	96.243
7.6126	96.311
7.5461	96.502
7.4807	96.591
7.4165	96.714
7.3534	96.863
7.2914	96.958
7.2303	97.015
7.1703	96.971
7.1113	97.106
7.0533	97.27
6.9962	97.383
6.94	97.301
6.8847	97.435
6.8302	97.589
6.7767	97.646
6.7239	97.707
6.672	97.693
6.6209	97.601
6.5705	97.62
6.5209	97.533
6.4721	97.439
6.424	97.454
6.3766	97.404
6.3299	97.363
6.2838	97.333
6.2385	97.222
6.1937	97.298
6.1496	97.581
6.1062	97.499
6.0633	97.331
6.0211	97.069
5.9794	96.768
5.9383	97.39
5.8978	97.869
5.8578	98.092
5.8184	98.217
5.7794	98.371
5.741	98.533
5.7031	98.671
5.6657	98.787
5.6288	98.854
5.5924	98.906
5.5564	99.017
5.5209	99.041
5.4859	99.072
5.4513	99.194
5.4171	99.189
5.3833	99.216
5.35	99.273
5.3171	99.375
5.2846	99.439
5.2524	99.534
5.2207	99.655
5.1893	99.704
5.1584	99.779
5.1277	99.8
5.0975	99.838
5.0676	99.894
5.038	99.924
5.0088	99.934
4.98	100.01
4.9514	100.05
4.9232	100.09
4.8953	100.17
4.8678	100.31
4.8405	100.35
4.8135	100.36
4.7868	100.42
4.7605	100.43
4.7344	100.5
4.7086	100.56
4.6831	100.62
4.6578	100.63
4.6328	100.66
4.6081	100.69
4.5837	100.75
4.5595	100.77
4.5356	100.84
4.5119	100.86
4.4884	100.89
4.4652	100.91
4.4423	100.99
4.4196	100.99
4.3971	101.04
4.3748	101.05
4.3528	101.06
4.331	101.07
4.3094	101.11
4.288	101.15
4.2668	101.18
4.2458	101.22
4.2251	101.25
4.2045	101.26
4.1841	101.28
4.164	101.29
4.144	101.34
4.1242	101.29
4.1046	101.38
4.0852	101.38
4.066	101.36
4.047	101.45
4.0281	101.44
4.0094	101.4
3.9909	101.39
3.9725	101.46
3.9544	101.46
3.9363	101.49
3.9185	101.58
3.9008	101.58
3.8833	101.54
3.8659	101.52
3.8487	101.54
3.8316	101.56
3.8147	101.49
3.7979	101.59
3.7813	101.59
3.7648	101.55
3.7485	101.55
3.7323	101.52
3.7162	101.5
3.7003	101.47
3.6845	101.42
3.6689	101.39
3.6534	101.36
3.638	101.33
3.6227	101.35
3.6076	101.23
3.5926	101.23
3.5777	101.18
3.563	101.2
3.5484	101.14
3.5338	101.12
3.5195	101.2
3.5052	101.38
3.491	101.23
3.477	100.98
3.463	100.96
3.4492	101.03
3.4355	101.1
3.4219	101.26
3.4084	101
3.395	100.68
3.3817	100.53
3.3685	100.35
3.3554	100.11
3.3425	99.898
3.3296	99.803
3.3168	99.697
3.3041	99.539
3.2915	99.371
3.279	99.15
3.2666	98.966
3.2543	98.771
3.2421	98.575
3.23	98.296
3.218	98.06
3.206	97.76
3.1942	97.534
3.1824	97.174
3.1707	96.924
3.1591	96.49
3.1476	96.02
3.1362	95.61
3.1249	95.168
3.1136	94.696
3.1024	94.153
3.0913	93.707
3.0803	93.076
3.0694	92.398
3.0585	91.551
3.0477	90.896
3.037	89.961
3.0264	89.048
3.0158	88.195
3.0053	87.418
2.9949	86.684
2.9845	86.017
2.9743	85.262
2.9641	84.285
2.9539	83.515
2.9439	82.692
2.9339	81.934
2.9239	81.422
2.9141	81.36
2.9043	81.902
2.8946	82.73
2.8849	83.579
2.8753	84.126
2.8658	84.185
2.8563	83.915
2.8469	83.347
2.8375	82.32
2.8282	81.082
2.819	79.7
2.8098	79.051
2.8007	79.723
2.7917	82.134
2.7827	86.075
2.7738	89.708
2.7649	91.841
2.7561	93.091
2.7473	94.418
2.7386	95.886
2.7299	97.504
2.7213	99.203
2.7128	100.75
2.7043	101.29
2.6959	101.97
2.6875	102.38
2.6791	102.49
2.6709	102.78
2.6626	102.87
2.6545	102.98
2.6463	102.95
2.6382	103.14
2.6302	103.03
2.6222	103.28
2.6143	103.44
2.6064	103.31
2.5986	103.32
2.5908	103.53
2.583	103.54
2.5753	103.56
2.5677	103.55
2.5601	103.6
2.5525	103.73
2.545	103.73
2.5375	103.67
2.5301	103.56
2.5227	103.74
2.5154	103.8
2.5081	103.77
2.5008	103.9
2.4936	103.83
2.4864	103.84
2.4793	104.05
2.4722	103.89
2.4651	103.93
2.4581	104.04
2.4511	104.1
2.4442	103.96
2.4373	104.06
2.4305	104.1
2.4236	104.14
2.4169	104.05
2.4101	104.31
2.4034	104.04
2.3967	104.13
2.3901	103.93
2.3835	104.43
2.377	104.48
2.3704	104.46
2.364	104.33
2.3575	104.21
2.3511	104.21
2.3447	104.07
2.3384	104.48
2.3321	104.49
2.3258	104.51
2.3195	104.7
2.3133	104.67
2.3071	104.69
2.301	104.53
2.2949	104.75
2.2888	104.77
2.2828	104.71
2.2767	104.94
2.2708	104.94
2.2648	104.82
2.2589	105.18
2.253	105.18
2.2471	104.92
2.2413	105.18
2.2355	105.41
2.2297	105.3
2.224	105.08
2.2183	105.33
2.2126	105.52
2.207	105.3
2.2013	105.44
2.1957	105.77
2.1902	105.58
2.1846	105.69
2.1791	105.75
2.1736	105.77
2.1682	105.91
2.1628	105.94
2.1574	105.48
2.152	106.17
2.1466	105.84
2.1413	106.24
2.136	106.3
2.1308	105.87
2.1255	105.88
2.1203	106.12
2.1151	106.26
2.11	106.23
2.1048	106.08
2.0997	106.44
2.0946	106.29
2.0895	106.28
2.0845	106.22
2.0795	106.1
