Name: Pyrite FeS_2
Type: Mineral
Class: Sulfide
Subclass: None
Particle Size: Coarse
Sample No.: S-2A
Owner: JPL
Wavelength Range: TIR
Origin: Italy, Tuscany, Elba, Rio Marina Isle
Description: Particle size was 125-500um.Collected by Ward's Original ASTER Spectral Library name was jpl.nicolet.mineral.sulfide.none.coarse.s02a.spectrum.txt
Measurement: Hemispherical reflectance
X Units: Wavelength (micrometers)
Y Units: Reflectance (percent)
wavelength	value
15.3853	4.3661
15.1161	4.4813
14.8563	5.269
14.6052	4.476
14.3624	4.4778
14.1276	4.0036
13.9004	4.297
13.6803	4.1946
13.4671	4.2368
13.2604	4.2733
13.06	3.9786
12.8656	4.1076
12.6769	3.9588
12.4936	4.2732
12.3155	4.4962
12.1425	5.1939
11.9742	5.399
11.8106	5.8778
11.6513	5.6889
11.4963	5.686
11.3454	5.3941
11.1983	5.3853
11.0551	5.4291
10.9154	5.2805
10.7793	5.253
10.6465	5.4181
10.5169	5.2963
10.3904	5.4615
10.267	5.5442
10.1464	5.5773
10.0287	5.909
9.9136	6.0645
9.8012	7.0832
9.6913	7.7979
9.5838	9.8702
9.4787	8.5961
9.3758	8.5892
9.2752	9.2879
9.1767	9.0869
9.0803	8.6777
8.9858	8.4721
8.8934	8.7505
8.8028	8.9773
8.714	8.9971
8.627	8.9848
8.5417	9.5841
8.4581	10.07
8.3761	9.8804
8.2957	10.4277
8.2169	10.4356
8.1395	10.4957
8.0635	9.7728
7.989	8.8126
7.9158	8.1766
7.8439	7.7817
7.7734	7.6609
7.7041	7.4628
7.636	7.4395
7.5691	7.4132
7.5034	7.4457
7.4388	7.3124
7.3753	7.1822
7.3129	7.1918
7.2515	7.1353
7.1912	7.1623
7.1318	7.2416
7.0734	7.1024
7.016	6.9704
6.9595	6.8857
6.9039	6.7605
6.8492	6.6154
6.7953	6.1595
6.7423	5.9506
6.6901	5.9371
6.6387	5.9741
6.5881	6.2937
6.5382	6.5974
6.4892	6.7671
6.4408	6.83
6.3931	6.8399
6.3462	6.5956
6.2999	6.5629
6.2543	6.3457
6.2094	6.021
6.1651	5.8729
6.1214	5.5231
6.0784	5.4979
6.0359	5.4802
5.994	5.7788
5.9527	6.1121
5.912	6.4036
5.8718	6.5861
5.8322	6.7105
5.7931	7.0204
5.7545	7.1044
5.7165	7.0605
5.6789	7.2359
5.6418	7.3003
5.6052	7.4527
5.5691	7.5124
5.5334	7.6901
5.4982	7.7008
5.4635	7.8732
5.4291	7.9713
5.3952	8.0524
5.3618	8.1073
5.3287	8.3515
5.2961	8.3162
5.2638	8.4086
5.2319	8.431
5.2004	8.4058
5.1693	8.4418
5.1386	8.4863
5.1082	8.4022
5.0782	8.3948
5.0485	8.3579
5.0192	8.3952
4.9902	8.2168
4.9616	8.2148
4.9332	8.298
4.9052	8.1602
4.8776	8.1067
4.8502	8.0169
4.8231	8.1495
4.7963	8.004
4.7699	8.1222
4.7437	8.1035
4.7178	8.117
4.6922	8.0077
4.6668	8.0699
4.6418	7.9258
4.617	7.9871
4.5924	7.8789
4.5681	7.9234
4.5441	7.9574
4.5203	7.8424
4.4968	7.9014
4.4735	7.9831
4.4505	7.9234
4.4277	7.9704
4.4051	7.9596
4.3828	7.9107
4.3607	7.836
4.3388	7.8699
4.3171	7.9175
4.2956	7.919
4.2744	8.0518
4.2534	8.0726
4.2325	8.1138
4.2119	8.0627
4.1915	8.0495
4.1712	7.9575
4.1512	7.8668
4.1313	7.9339
4.1117	7.9465
4.0922	7.9769
4.0729	8.0158
4.0538	7.9794
4.0349	7.9541
4.0161	7.9043
3.9976	7.8479
3.9792	7.9916
3.9609	7.8556
3.9428	8.0579
3.9249	7.9142
3.9072	7.8773
3.8896	7.8738
3.8722	7.9584
3.8549	7.841
3.8378	7.7664
3.8208	7.8116
3.804	7.7791
3.7873	7.7078
3.7708	7.5797
3.7544	7.4335
3.7382	7.4619
3.7221	7.3959
3.7061	7.4388
3.6903	7.373
3.6746	7.2374
3.659	7.3064
3.6436	7.3078
3.6283	7.1423
3.6131	7.138
3.5981	6.9429
3.5832	6.7674
3.5684	6.8399
3.5537	6.7647
3.5391	6.7094
3.5247	6.5826
3.5104	6.6694
3.4962	6.5807
3.4821	6.37
3.4681	6.3026
3.4543	6.3167
3.4405	6.1917
3.4269	6.1567
3.4133	5.9616
3.3999	5.9269
3.3866	5.7338
3.3733	5.7057
3.3602	5.6331
3.3472	5.5682
3.3343	5.299
3.3215	5.2833
3.3088	5.194
3.2961	5.2319
3.2836	5.0486
3.2712	4.8982
3.2588	4.9854
3.2466	4.8282
3.2345	4.839
3.2224	4.67
3.2104	4.6998
3.1985	4.573
3.1867	4.5278
3.175	4.6331
3.1634	4.2905
3.1519	4.2167
3.1404	4.2594
3.129	4.1257
3.1178	3.9182
3.1065	4.0329
3.0954	3.9543
3.0844	3.787
3.0734	3.8952
3.0625	3.8441
3.0517	3.8202
3.041	3.8724
3.0303	3.8144
3.0197	3.6748
3.0092	3.8188
2.9987	3.782
2.9884	3.8623
2.9781	3.9707
2.9678	4.0492
2.9577	3.8801
2.9476	4.0496
2.9376	4.2432
2.9276	4.1174
2.9177	4.4519
2.9079	4.5481
2.8982	4.807
2.8885	5.0854
2.8789	5.3717
2.8693	5.7743
2.8598	6.2525
2.8504	6.5451
2.841	6.8733
2.8317	7.1607
2.8224	7.5288
2.8133	7.8301
2.8041	8.0499
2.7951	8.2947
2.786	8.2472
2.7771	8.7219
2.7682	9.0729
2.7594	9.2966
2.7506	9.4566
2.7418	9.6304
2.7332	9.9782
2.7246	10.1138
2.716	10.4476
2.7075	10.8149
2.699	10.8915
2.6906	11.1407
2.6823	11.2405
2.674	11.308
2.6657	11.2303
2.6575	11.3873
2.6494	11.4363
2.6413	11.2631
2.6332	11.4877
2.6252	11.4757
2.6173	11.6506
2.6094	11.4296
2.6015	11.5459
2.5937	11.5492
2.5859	11.4536
2.5782	11.6662
2.5706	11.6678
2.5629	11.7383
2.5554	11.7223
2.5478	11.6717
2.5403	11.7578
2.5329	11.7862
2.5255	12.0409
2.5181	11.9837
2.5108	12
2.5035	12.2335
2.4963	12.073
2.4891	12.2634
2.482	12.3792
2.4749	12.0967
2.4678	12.2972
2.4608	12.1809
2.4538	12.4442
2.4468	12.1933
2.4399	12.4973
2.4331	12.5615
2.4262	12.5974
2.4194	12.4684
2.4127	12.6357
2.4059	12.691
2.3993	12.824
2.3926	12.4925
2.386	12.9093
2.3795	12.787
2.3729	12.6917
2.3664	12.8736
2.36	12.9835
2.3535	12.931
2.3471	13.0167
2.3408	13.1752
2.3345	13.2628
2.3282	13.1017
2.3219	13.3673
2.3157	13.3964
2.3095	13.2008
2.3034	13.2975
2.2972	13.4411
2.2911	13.3827
2.2851	13.2495
2.279	13.3327
2.2731	13.4518
2.2671	13.4596
2.2612	13.4426
2.2553	13.3188
2.2494	13.3757
2.2435	13.4267
2.2377	13.2885
2.232	13.4511
2.2262	13.4462
2.2205	13.2705
2.2148	13.2622
2.2091	13.2784
2.2035	13.2431
2.1979	13.2751
2.1923	13.242
2.1868	13.5546
2.1812	13.1452
2.1758	13.2904
2.1703	13.0905
2.1649	13.3043
2.1595	13.372
2.1541	13.4415
2.1487	13.163
2.1434	13.1462
2.1381	13.1704
2.1328	13.2952
2.1275	13.0891
2.1223	13.0566
2.1171	13.3655
2.112	13.2155
2.1068	13.0359
2.1017	12.9529
2.0966	12.9779
2.0915	12.8656
2.0865	13.3167
2.0814	12.9104
2.0764	13.4439
2.0715	13.2394
2.0665	13.6809
2.0616	13.0025
2.0567	13.0154
2.0518	13.0553
2.0469	13.0795
2.0421	13.362
2.0373	12.8179
2.0325	13.0577
2.0277	12.9093
2.0229	12.9593
2.0182	12.8504
2.0135	12.9223
2.0088	13.0313
2.0042	12.9931
