Name: Sulphur S
Type: Mineral
Class: Element
Subclass: None
Particle Size: Fine
Sample No.: E-2A
Owner: JPL
Wavelength Range: TIR
Origin: N/A
Description: Particle size was 0-45um.Collected by JPL Original ASTER Spectral Library name was jpl.nicolet.mineral.element.none.fine.e02a.spectrum.txt
Measurement: Hemispherical reflectance
X Units: Wavelength (micrometers)
Y Units: Reflectance (percent)
wavelength	value
15.3853	52.586
15.1161	50.7315
14.8563	60.3285
14.6052	60.0005
14.3624	72.2219
14.1276	65.353
13.9004	69.6617
13.6803	78.4634
13.4671	81.2869
13.2604	83.1945
13.06	84.1385
12.8656	83.4835
12.6769	80.0795
12.4936	75.4452
12.3155	67.2559
12.1425	51.9428
11.9742	37.3211
11.8106	30.4541
11.6513	50.399
11.4963	54.7639
11.3454	61.9435
11.1983	71.0328
11.0551	68.598
10.9154	78.0251
10.7793	71.4882
10.6465	64.5425
10.5169	79.668
10.3904	83.2555
10.267	83.8015
10.1464	83.1519
10.0287	83.6177
9.9136	83.7751
9.8012	83.4966
9.6913	83.5104
9.5838	83.1351
9.4787	82.9914
9.3758	83.8793
9.2752	83.625
9.1767	83.4374
9.0803	83.5719
8.9858	83.5629
8.8934	83.7268
8.8028	84.1371
8.714	84.7919
8.627	85.5119
8.5417	86.1522
8.4581	86.876
8.3761	87.9029
8.2957	88.5348
8.2169	89.0543
8.1395	89.2318
8.0635	88.6253
7.989	87.0614
7.9158	83.7955
7.8439	78.4643
7.7734	73.5886
7.7041	71.393
7.636	72.0363
7.5691	77.3624
7.5034	81.0287
7.4388	83.3079
7.3753	85.0044
7.3129	84.7344
7.2515	86.2898
7.1912	87.0747
7.1318	85.1927
7.0734	83.4423
7.016	80.9941
6.9595	79.3146
6.9039	77.6019
6.8492	78.0782
6.7953	79.6333
6.7423	79.5298
6.6901	81.6886
6.6387	86.4924
6.5881	86.0945
6.5382	86.8976
6.4892	92.0072
6.4408	89.9199
6.3931	90.1841
6.3462	92.3355
6.2999	90.2872
6.2543	90.3491
6.2094	90.5365
6.1651	91.0965
6.1214	91.6378
6.0784	92.0659
6.0359	90.9835
5.994	91.7163
5.9527	91.1095
5.912	91.0989
5.8718	92.2218
5.8322	92.4161
5.7931	91.1831
5.7545	91.7957
5.7165	92.6602
5.6789	92.4448
5.6418	93.6411
5.6052	92.1836
5.5691	92.171
5.5334	91.9603
5.4982	92.0575
5.4635	93.0834
5.4291	92.9814
5.3952	92.8297
5.3618	92.8642
5.3287	92.8047
5.2961	93.0919
5.2638	92.9064
5.2319	92.8857
5.2004	93.1273
5.1693	92.8825
5.1386	93.0381
5.1082	92.9292
5.0782	92.9151
5.0485	92.8786
5.0192	93.0048
4.9902	92.8161
4.9616	92.8032
4.9332	92.7744
4.9052	92.7248
4.8776	92.76
4.8502	92.766
4.8231	92.7182
4.7963	92.7447
4.7699	92.6557
4.7437	92.5881
4.7178	92.5981
4.6922	92.523
4.6668	92.5552
4.6418	92.5511
4.617	92.4692
4.5924	92.5103
4.5681	92.5251
4.5441	92.4691
4.5203	92.5299
4.4968	92.5081
4.4735	92.5011
4.4505	92.4982
4.4277	92.4227
4.4051	92.5005
4.3828	92.4406
4.3607	92.4691
4.3388	92.3637
4.3171	92.1296
4.2956	91.6295
4.2744	91.3528
4.2534	91.972
4.2325	91.0852
4.2119	91.8388
4.1915	92.3523
4.1712	92.3247
4.1512	92.2525
4.1313	92.2323
4.1117	92.181
4.0922	92.1925
4.0729	92.065
4.0538	92.0444
4.0349	91.8592
4.0161	91.809
3.9976	91.7283
3.9792	91.8113
3.9609	91.5739
3.9428	91.4558
3.9249	91.5777
3.9072	91.6337
3.8896	91.6991
3.8722	91.6943
3.8549	91.7254
3.8378	91.6526
3.8208	91.6785
3.804	91.6363
3.7873	91.6666
3.7708	91.7364
3.7544	91.5758
3.7382	91.6858
3.7221	91.586
3.7061	91.6204
3.6903	91.5572
3.6746	91.5229
3.659	91.4454
3.6436	91.4551
3.6283	91.4923
3.6131	91.3829
3.5981	91.3515
3.5832	91.2208
3.5684	91.1646
3.5537	91.0686
3.5391	90.842
3.5247	90.3188
3.5104	88.2667
3.4962	88.2357
3.4821	89.0409
3.4681	89.0172
3.4543	88.4385
3.4405	87.5906
3.4269	85.1106
3.4133	84.8849
3.3999	87.5655
3.3866	87.8368
3.3733	87.9067
3.3602	89.6804
3.3472	90.4908
3.3343	90.5975
3.3215	90.701
3.3088	90.8216
3.2961	90.8302
3.2836	90.7463
3.2712	90.8166
3.2588	90.6935
3.2466	90.7161
3.2345	90.7783
3.2224	90.6224
3.2104	90.5502
3.1985	90.4626
3.1867	90.5306
3.175	90.3634
3.1634	90.3392
3.1519	90.2496
3.1404	90.1233
3.129	90.0767
3.1178	89.9063
3.1065	89.8755
3.0954	89.9205
3.0844	89.7155
3.0734	89.7492
3.0625	89.7341
3.0517	89.5178
3.041	89.515
3.0303	89.4831
3.0197	89.4438
3.0092	89.33
2.9987	89.1958
2.9884	89.2782
2.9781	89.1799
2.9678	89.3706
2.9577	89.212
2.9476	89.4793
2.9376	89.3645
2.9276	89.4924
2.9177	89.5639
2.9079	89.6973
2.8982	89.6808
2.8885	89.6495
2.8789	89.7347
2.8693	89.7796
2.8598	89.8337
2.8504	89.9403
2.841	90.0044
2.8317	90.0732
2.8224	90.3176
2.8133	90.3356
2.8041	91.0911
2.7951	90.4053
2.786	91.3311
2.7771	90.9639
2.7682	91.378
2.7594	90.7473
2.7506	91.0083
2.7418	92.4534
2.7332	91.2351
2.7246	93.1688
2.716	91.1655
2.7075	91.4822
2.699	91.2384
2.6906	91.4899
2.6823	91.7813
2.674	91.9203
2.6657	94.4985
2.6575	91.518
2.6494	91.396
2.6413	91.3993
2.6332	91.9927
2.6252	91.7855
2.6173	93.2535
2.6094	92.1745
2.6015	91.9563
2.5937	94.0813
2.5859	92.0236
2.5782	91.5818
2.5706	92.015
2.5629	92.5362
2.5554	91.1855
2.5478	91.4739
2.5403	91.2955
2.5329	91.3628
2.5255	91.1807
2.5181	91.231
2.5108	91.135
2.5035	91.0863
2.4963	91.1154
2.4891	91.0959
2.482	91.1878
2.4749	91.1477
2.4678	91.1058
2.4608	91.1511
2.4538	91.0466
2.4468	91.1333
2.4399	91.1338
2.4331	91.1465
2.4262	91.0499
2.4194	91.2731
2.4127	91.1666
2.4059	91.1549
2.3993	91.1673
2.3926	91.0135
2.386	91.0624
2.3795	91.1495
2.3729	91.0771
2.3664	90.9653
2.36	90.9883
2.3535	91.1265
2.3471	90.9522
2.3408	91.0186
2.3345	91.0505
2.3282	91.1263
2.3219	91.0891
2.3157	91.0159
2.3095	90.9307
2.3034	90.8712
2.2972	91.0076
2.2911	91.0024
2.2851	90.9205
2.279	90.9883
2.2731	90.8348
2.2671	91.0861
2.2612	91.0882
2.2553	90.9818
2.2494	90.9148
2.2435	91.018
2.2377	91.0949
2.232	90.9811
2.2262	90.9513
2.2205	90.9663
2.2148	90.9872
2.2091	90.9209
2.2035	90.8945
2.1979	90.9674
2.1923	90.7797
2.1868	91.0954
2.1812	90.8136
2.1758	91.0049
2.1703	90.7992
2.1649	90.7775
2.1595	90.9962
2.1541	91.06
2.1487	90.6417
2.1434	90.9369
2.1381	90.8583
2.1328	90.7947
2.1275	90.9231
2.1223	90.8799
2.1171	90.672
2.112	91.1615
2.1068	90.9901
2.1017	90.6903
2.0966	90.8885
2.0915	90.8764
2.0865	90.9536
2.0814	90.6619
2.0764	90.8586
2.0715	91.0169
2.0665	90.9127
2.0616	90.5827
2.0567	90.6471
2.0518	90.9676
2.0469	90.8346
2.0421	90.9245
2.0373	90.7658
2.0325	90.7116
2.0277	90.9363
2.0229	91.0082
2.0182	90.9124
2.0135	90.7989
2.0088	90.739
2.0042	90.7849
