Name: Lepidolite K(Li,Al)3(Si,Al)_4O_10(F,OH)_2
Type: Mineral
Class: Silicate
Subclass: Phyllosilicate
Particle Size: Medium
Sample No.: PS-13A
Owner: JPL
Wavelength Range: TIR
Origin: USA, South Dakota
Description: Yellow lepidolite.Particle size was 45-125um.Collected by Ward's Original ASTER Spectral Library name was jpl.nicolet.mineral.silicate.phyllosilicate.medium.ps13a.spectrum.txt
Measurement: Hemispherical reflectance
X Units: Wavelength (micrometers)
Y Units: Reflectance (percent)
wavelength	value
15.3853	0.6622
15.1161	1.0908
14.8563	1.1682
14.6052	1.6167
14.3624	1.9225
14.1276	1.9739
13.9004	2.3044
13.6803	2.4247
13.4671	2.9195
13.2604	2.7275
13.06	2.0431
12.8656	2.0522
12.6769	2.6607
12.4936	2.8061
12.3155	2.8924
12.1425	3.4882
11.9742	3.6513
11.8106	4.495
11.6513	4.7258
11.4963	5.14
11.3454	5.304
11.1983	6.0068
11.0551	6.6259
10.9154	7.091
10.7793	7.2627
10.6465	6.9581
10.5169	6.9757
10.3904	8.9305
10.267	11.7182
10.1464	14.094
10.0287	15.0984
9.9136	16.3961
9.8012	18.3796
9.6913	22.117
9.5838	25.1375
9.4787	17.859
9.3758	18.6104
9.2752	22.3521
9.1767	24.526
9.0803	23.549
8.9858	22.0779
8.8934	20.0063
8.8028	15.929
8.714	11.5561
8.627	6.002
8.5417	2.8944
8.4581	1.4859
8.3761	0.9351
8.2957	0.6448
8.2169	0.3516
8.1395	0.3299
8.0635	0.3296
7.989	0.5403
7.9158	0.6541
7.8439	0.9965
7.7734	1.1437
7.7041	1.4147
7.636	1.928
7.5691	2.246
7.5034	2.7219
7.4388	3.0726
7.3753	3.4688
7.3129	3.7173
7.2515	4.1354
7.1912	4.3117
7.1318	4.396
7.0734	4.6101
7.016	4.9203
6.9595	5.4786
6.9039	5.9563
6.8492	6.8213
6.7953	7.8669
6.7423	8.539
6.6901	9.4515
6.6387	10.094
6.5881	10.7231
6.5382	11.1202
6.4892	11.9998
6.4408	12.1316
6.3931	12.4246
6.3462	12.9729
6.2999	12.9818
6.2543	13.1494
6.2094	12.7872
6.1651	12.1698
6.1214	11.4487
6.0784	11.0401
6.0359	10.5664
5.994	10.0829
5.9527	9.5755
5.912	9.2518
5.8718	9.1073
5.8322	9.162
5.7931	9.1495
5.7545	8.7592
5.7165	8.5628
5.6789	8.4012
5.6418	8.1931
5.6052	7.976
5.5691	7.6179
5.5334	7.5492
5.4982	7.4021
5.4635	7.5539
5.4291	7.5942
5.3952	7.964
5.3618	8.4893
5.3287	9.2614
5.2961	10.433
5.2638	11.7942
5.2319	13.2882
5.2004	15.0014
5.1693	16.609
5.1386	18.483
5.1082	20.0965
5.0782	21.4374
5.0485	22.2426
5.0192	22.6227
4.9902	22.7852
4.9616	22.8236
4.9332	22.8727
4.9052	23.1558
4.8776	23.8389
4.8502	24.6964
4.8231	25.2967
4.7963	25.8886
4.7699	26.9235
4.7437	28.0509
4.7178	29.4124
4.6922	30.5393
4.6668	31.8847
4.6418	33.9286
4.617	36.3529
4.5924	38.5755
4.5681	40.5223
4.5441	42.5496
4.5203	44.6234
4.4968	46.7321
4.4735	48.981
4.4505	51.6338
4.4277	54.3815
4.4051	57.0536
4.3828	59.1158
4.3607	60.4606
4.3388	61.4364
4.3171	62.2417
4.2956	62.8169
4.2744	63.2868
4.2534	63.5334
4.2325	64.0899
4.2119	64.1467
4.1915	64.2554
4.1712	64.4214
4.1512	64.6872
4.1313	64.8579
4.1117	65.0492
4.0922	65.2693
4.0729	65.5187
4.0538	65.6263
4.0349	65.9083
4.0161	65.951
3.9976	66.1845
3.9792	66.3126
3.9609	66.5045
3.9428	66.7161
3.9249	66.7151
3.9072	66.9806
3.8896	67.1522
3.8722	67.2078
3.8549	67.289
3.8378	67.3568
3.8208	67.3144
3.804	67.0953
3.7873	66.5034
3.7708	65.6218
3.7544	64.0759
3.7382	61.6754
3.7221	60.8144
3.7061	60.5005
3.6903	60.8886
3.6746	60.8832
3.659	60.6885
3.6436	60.709
3.6283	60.5072
3.6131	60.483
3.5981	59.4801
3.5832	58.2577
3.5684	56.6377
3.5537	55.222
3.5391	54.6346
3.5247	54.7007
3.5104	54.9096
3.4962	54.8665
3.4821	54.5663
3.4681	53.864
3.4543	53.0854
3.4405	52.0874
3.4269	50.8588
3.4133	49.2693
3.3999	47.7047
3.3866	46.1398
3.3733	44.5436
3.3602	42.8307
3.3472	41.3297
3.3343	39.9075
3.3215	38.7702
3.3088	37.9656
3.2961	37.281
3.2836	37.2247
3.2712	37.7433
3.2588	38.4377
3.2466	39.3872
3.2345	39.4635
3.2224	38.8884
3.2104	38.2139
3.1985	37.7933
3.1867	37.4545
3.175	37.3203
3.1634	37.2296
3.1519	37.2977
3.1404	37.217
3.129	36.983
3.1178	36.75
3.1065	36.3997
3.0954	35.9805
3.0844	35.3841
3.0734	34.6266
3.0625	33.8312
3.0517	32.863
3.041	32.3368
3.0303	31.9163
3.0197	31.8396
3.0092	32.2131
2.9987	32.6517
2.9884	33.985
2.9781	35.0904
2.9678	36.4862
2.9577	37.5874
2.9476	38.1746
2.9376	37.9075
2.9276	36.8704
2.9177	35.7397
2.9079	34.3577
2.8982	33.7805
2.8885	33.592
2.8789	34.0234
2.8693	34.4149
2.8598	34.2521
2.8504	32.3821
2.841	30.1814
2.8317	27.986
2.8224	25.7536
2.8133	22.4707
2.8041	17.7484
2.7951	11.1412
2.786	5.7515
2.7771	3.946
2.7682	3.2116
2.7594	2.7299
2.7506	2.5028
2.7418	2.3948
2.7332	2.6127
2.7246	3.2597
2.716	7.1088
2.7075	20.2598
2.699	28.2662
2.6906	31.4382
2.6823	33.2269
2.674	34.9104
2.6657	37.3123
2.6575	38.926
2.6494	40.5386
2.6413	40.8655
2.6332	40.8932
2.6252	40.1012
2.6173	40.4348
2.6094	40.6142
2.6015	41.676
2.5937	44.5891
2.5859	45.3346
2.5782	45.611
2.5706	46.0242
2.5629	46.9906
2.5554	47.6096
2.5478	48.489
2.5403	48.8015
2.5329	48.6914
2.5255	47.6695
2.5181	46.2566
2.5108	44.6902
2.5035	43.0532
2.4963	41.9804
2.4891	41.0566
2.482	40.4054
2.4749	39.7757
2.4678	38.782
2.4608	37.8919
2.4538	36.8278
2.4468	36.1026
2.4399	35.6354
2.4331	35.8937
2.4262	37.2814
2.4194	38.7863
2.4127	40.669
2.4059	42.9265
2.3993	44.2688
2.3926	44.7673
2.386	44.6812
2.3795	44.6668
2.3729	44.8212
2.3664	44.2348
2.36	43.1142
2.3535	41.722
2.3471	41.2002
2.3408	42.3612
2.3345	44.4572
2.3282	47.3151
2.3219	50.4773
2.3157	53.4055
2.3095	56.3547
2.3034	59.1435
2.2972	61.5671
2.2911	63.2802
2.2851	64.5964
2.279	65.1417
2.2731	65.809
2.2671	65.7061
2.2612	65.7294
2.2553	65.0888
2.2494	64.6626
2.2435	64.2828
2.2377	63.3439
2.232	61.7546
2.2262	58.984
2.2205	54.2172
2.2148	47.7285
2.2091	40.706
2.2035	35.1431
2.1979	32.1338
2.1923	32.6224
2.1868	37.0489
2.1812	43.889
2.1758	51.0999
2.1703	57.4365
2.1649	61.9681
2.1595	65.0035
2.1541	67.4095
2.1487	69.0848
2.1434	70.2257
2.1381	70.8527
2.1328	71.2135
2.1275	70.873
2.1223	70.4464
2.1171	70.5581
2.112	71.761
2.1068	73.0275
2.1017	74.1553
2.0966	75.6651
2.0915	77.2299
2.0865	78.4876
2.0814	79.6772
2.0764	80.1267
2.0715	81.2878
2.0665	81.3382
2.0616	81.7986
2.0567	82.0221
2.0518	82.1116
2.0469	82.2645
2.0421	82.385
2.0373	82.8391
2.0325	83.0781
2.0277	83.4714
2.0229	83.1131
2.0182	83.6537
2.0135	83.6068
2.0088	83.7032
2.0042	83.8572
