Name: Hexahydrite MgSO4·6H2O
Type: Mineral
Class: Sulfate
Subclass: None
Particle Size: Coarse
Sample No.: Hexahydr
Owner: USGS
Wavelength Range: All
Origin: Produced in lab
Description: SyntheticSample was unsieved powder. Original ASTER Spectral Library name was usgs.perknic.mineral.sulfate.none.coarse.hexahydr.spectrum.txt
Measurement: Directional Hemispherical Reflectance
X Units: Wavelength (micrometers)
Y Units: Reflectance (percent)
wavelength	value
14.051	1.2051
13.826	1.2051
13.609	1.0815
13.398	1.133
13.193	0.9888
12.995	1.0403
12.802	0.9682
12.616	0.8755
12.434	0.9785
12.258	0.9167
12.086	1.0815
11.92	1.1536
11.757	0.9888
11.6	1.2772
11.446	1.4523
11.297	1.5244
11.151	1.648
11.009	1.8643
10.87	1.957
10.735	2.1424
10.604	2.1939
10.475	2.3381
10.35	2.5956
10.227	2.6162
10.108	2.575
9.991	2.7398
9.877	2.6471
9.765	2.781
9.656	2.9458
9.549	2.9664
9.445	3.0488
9.343	3.2651
9.243	3.2033
9.145	3.2754
9.049	3.6771
8.956	3.7183
8.864	3.6977
8.774	3.5638
8.686	3.2857
8.599	2.9252
8.515	2.5544
8.431	2.1424
8.35	1.8025
8.27	1.3596
8.192	1.133
8.115	0.8652
8.039	0.7519
7.965	0.6077
7.893	0.6489
7.821	0.5356
7.751	0.6695
7.682	0.721
7.614	0.8343
7.548	0.9064
7.483	1.1021
7.418	1.0403
7.355	1.1639
7.293	1.2978
7.232	1.3287
7.172	1.4935
7.113	1.6274
7.055	1.6789
6.998	1.7098
6.942	1.8334
6.886	1.7922
6.832	1.8437
6.778	1.8643
6.726	1.9467
6.674	1.9261
6.623	1.8952
6.572	1.9261
6.523	1.8952
6.474	1.8437
6.426	1.8334
6.378	1.9364
6.332	1.8128
6.286	1.751
6.24	1.5965
6.195	1.5553
6.151	1.4626
6.108	1.339
6.065	1.133
6.023	0.8755
5.981	0.8343
5.94	0.8755
5.899	0.9373
5.859	1.2051
5.82	1.4523
5.781	1.7819
5.743	2.2248
5.705	2.5956
5.667	3.1827
5.63	3.6771
5.594	4.0685
5.558	4.4805
5.523	4.7483
5.487	5.1603
5.453	5.3972
5.419	5.6959
5.385	5.8401
5.352	6.1182
5.319	6.1491
5.286	6.3345
5.254	6.5714
5.222	6.8289
5.191	6.8701
5.16	6.9319
5.129	6.9422
5.099	6.8495
5.069	6.901
5.04	6.901
5.01	6.7568
4.981	6.6023
4.953	6.4272
4.925	6.0976
4.897	5.7577
4.869	5.2633
4.842	5.1294
4.815	5.0676
4.788	4.9337
4.762	4.9131
4.736	4.738
4.71	4.6968
4.684	4.6968
4.659	4.6041
4.634	4.6453
4.61	4.5114
4.585	4.5114
4.561	4.3981
4.537	4.2333
4.513	4.2127
4.49	4.223
4.467	4.017
4.444	4.0685
4.421	4.0067
4.398	4.0685
4.376	4.0685
4.354	4.1097
4.332	4.1715
4.311	4.223
4.289	4.4496
4.268	4.5526
4.247	4.4908
4.226	4.6865
4.206	4.7792
4.185	5.0058
4.165	5.1397
4.145	5.4384
4.126	5.8401
4.106	5.9534
4.086	6.2521
4.067	6.6332
4.048	6.9628
4.029	7.4366
4.011	7.8177
3.992	8.4357
3.974	8.9301
3.956	9.27
3.938	9.8571
3.92	10.1764
3.902	10.5575
3.884	10.7429
3.867	11.0313
3.85	11.0725
3.833	11.3506
3.816	11.3197
3.799	11.33
3.782	11.1652
3.766	10.9386
3.75	10.6708
3.733	10.5781
3.717	10.4339
3.702	10.1352
3.686	9.8571
3.67	9.5378
3.655	9.064
3.639	8.7447
3.624	8.3327
3.609	8.2709
3.594	7.7456
3.579	7.2615
3.564	7.0452
3.549	6.6847
3.535	6.4581
3.521	6.1285
3.506	5.7886
3.492	5.4796
3.478	5.2839
3.464	4.9131
3.45	4.635
3.437	4.5526
3.423	4.0994
3.409	3.9037
3.396	3.7904
3.383	3.4608
3.37	3.2136
3.357	3.4402
3.344	2.987
3.331	2.9561
3.318	2.7707
3.305	2.6265
3.293	2.6574
3.28	2.4514
3.268	2.3072
3.255	2.2866
3.243	2.2042
3.231	2.1424
3.219	2.06
3.207	1.8849
3.195	1.8231
3.183	1.9158
3.172	1.6274
3.16	1.6892
3.149	1.7407
3.137	1.6068
3.126	1.4935
3.115	1.6274
3.103	1.5038
3.092	1.3699
3.081	1.4935
3.07	1.3699
3.06	1.2154
3.049	1.4111
3.038	1.5347
3.027	1.236
3.017	1.5656
3.006	1.4111
2.996	1.2978
2.986	1.0918
2.975	1.2875
2.965	1.1227
2.955	1.1948
2.945	1.1639
2.935	1.0712
2.925	1.2566
2.915	1.1124
2.905	1.1536
2.896	0.9476
2.886	1.1124
2.876	0.9476
2.867	0.9785
2.857	1.3596
2.848	1.1742
2.838	1.133
2.829	0.8755
2.82	0.8137
2.811	1.0506
2.802	1.0506
2.793	0.7828
2.784	1.03
2.775	1.0712
2.766	1.1536
2.757	1.2566
2.748	1.4935
2.74	1.751
2.731	2.2145
2.722	2.3896
2.714	3.811
2.705	3.9552
2.697	4.7277
2.688	5.5311
2.68	6.0152
2.672	6.8495
2.664	7.8486
2.655	8.4151
2.647	8.961
2.639	9.6511
2.631	9.5996
2.623	10.0013
2.615	10.3618
2.607	10.6296
2.599	10.8665
2.592	11.3094
2.584	10.8253
2.576	11.5978
2.569	11.2579
2.561	11.3712
2.553	11.1858
2.546	11.6699
2.538	11.4433
2.531	11.9274
2.524	12.0613
2.516	12.669
2.509	12.566
2.502	12.9883
2.48	14.5761
2.456	15.6369
2.432	16.3683
2.408	17.0963
2.384	19.7116
2.36	23.5332
2.336	28.4521
2.312	33.1928
2.288	36.8952
2.264	39.0338
2.24	40.0303
2.216	40.0435
2.192	39.8724
2.168	39.8513
2.144	39.3925
2.12	37.774
2.096	35.1054
2.072	32.3344
2.048	29.6278
2.024	26.4825
2	23.0804
1.976	20.5542
1.952	19.7724
1.928	20.2452
1.904	28.4835
1.88	43.6167
1.856	53.8476
1.832	57.0464
1.808	57.0916
1.784	56.4775
1.76	55.9362
1.736	55.5029
1.712	54.9457
1.688	54.4829
1.664	53.7202
1.64	52.4871
1.616	51.5523
1.592	51.0513
1.568	50.9605
1.544	50.8077
1.52	50.0674
1.496	48.3371
1.472	45.9204
1.448	46.3018
1.424	50.044
1.4	59.8523
1.376	67.4535
1.352	70.7395
1.328	74.1533
1.304	76.4293
1.28	77.3362
1.256	77.2249
1.232	77.1288
1.208	77.4185
1.184	78.1231
1.16	79.412
1.136	82.7364
1.112	83.9223
1.088	84.4382
1.064	84.4828
1.04	84.0205
1.016	83.1759
0.992	82.5596
0.968	82.6829
0.944	83.9732
0.92	84.6635
0.896	85.1711
0.872	85.2231
0.848	84.6713
0.824	85.1885
0.8	85.0292
0.776	84.7758
0.752	84.4859
0.728	84.3266
0.704	84.0562
0.68	83.6742
0.656	83.3096
0.632	82.8628
0.608	82.4059
0.584	81.8284
0.56	80.4562
0.536	78.9019
0.512	77.9034
0.488	77.0551
0.464	76.2734
0.44	75.2496
0.416	74.3763
