Name: Prehnite Ca_2Al_2Si_3O_10(OH)_2
Type: Mineral
Class: Silicate
Subclass: Phyllosilicate
Particle Size: Fine
Sample No.: PS-21A
Owner: JPL
Wavelength Range: TIR
Origin: USA, Virginia, Centerville
Description: Particle size was 0-45um.Collected by Burminco Original ASTER Spectral Library name was jpl.nicolet.mineral.silicate.phyllosilicate.fine.ps21a.spectrum.txt
Measurement: Hemispherical reflectance
X Units: Wavelength (micrometers)
Y Units: Reflectance (percent)
wavelength	value
15.3853	7.379
15.1161	6.0903
14.8563	6.3638
14.6052	7.2084
14.3624	8.4488
14.1276	7.9462
13.9004	6.5929
13.6803	5.5335
13.4671	5.8866
13.2604	5.7036
13.06	6.6095
12.8656	3.6366
12.6769	2.9721
12.4936	3.6805
12.3155	4.331
12.1425	4.3041
11.9742	3.6743
11.8106	3.9165
11.6513	4.0695
11.4963	3.6025
11.3454	3.7372
11.1983	4.7299
11.0551	5.4687
10.9154	6.0021
10.7793	7.1322
10.6465	6.699
10.5169	5.2751
10.3904	5.3053
10.267	6.1721
10.1464	9.5655
10.0287	11.1432
9.9136	12.911
9.8012	13.498
9.6913	12.3897
9.5838	7.0873
9.4787	4.1164
9.3758	6.0186
9.2752	11.0412
9.1767	11.5404
9.0803	10.3537
8.9858	9.6325
8.8934	7.9442
8.8028	5.6696
8.714	3.3865
8.627	1.5068
8.5417	0.5562
8.4581	0.5361
8.3761	0.5112
8.2957	0.8811
8.2169	1.1316
8.1395	1.7319
8.0635	2.6297
7.989	3.388
7.9158	4.6609
7.8439	5.7535
7.7734	7.1061
7.7041	8.7571
7.636	10.1425
7.5691	11.7248
7.5034	13.3139
7.4388	14.4954
7.3753	15.1849
7.3129	15.7607
7.2515	15.9306
7.1912	16.3936
7.1318	16.372
7.0734	15.9796
7.016	15.6209
6.9595	15.6768
6.9039	14.7283
6.8492	14.7258
6.7953	15.262
6.7423	15.5585
6.6901	16.1041
6.6387	16.8345
6.5881	15.9925
6.5382	15.8165
6.4892	16.2804
6.4408	15.4206
6.3931	16.1581
6.3462	18.6313
6.2999	20.2974
6.2543	21.6917
6.2094	22.3905
6.1651	23.31
6.1214	24.2775
6.0784	24.8034
6.0359	24.5766
5.994	24.3712
5.9527	23.8969
5.912	23.5747
5.8718	23.5665
5.8322	22.9937
5.7931	23.173
5.7545	23.9285
5.7165	24.4205
5.6789	24.5215
5.6418	25.0798
5.6052	25.3214
5.5691	24.9925
5.5334	23.6803
5.4982	21.2144
5.4635	18.7688
5.4291	19.7067
5.3952	21.5541
5.3618	23.0722
5.3287	25.1619
5.2961	28.2108
5.2638	30.85
5.2319	34.3017
5.2004	36.2758
5.1693	36.6617
5.1386	35.7244
5.1082	35.5034
5.0782	37.7772
5.0485	39.4601
5.0192	40.8723
4.9902	41.97
4.9616	43.1619
4.9332	45.1198
4.9052	47.607
4.8776	48.8878
4.8502	49.7888
4.8231	50.4341
4.7963	50.6731
4.7699	50.0808
4.7437	51.64
4.7178	53.3139
4.6922	54.5091
4.6668	55.743
4.6418	56.1133
4.617	56.319
4.5924	57.5524
4.5681	58.6145
4.5441	58.9392
4.5203	59.5927
4.4968	60.4358
4.4735	61.3502
4.4505	62.3699
4.4277	63.1177
4.4051	63.5181
4.3828	63.8717
4.3607	64.3784
4.3388	64.633
4.3171	65.2474
4.2956	66.0118
4.2744	66.6466
4.2534	66.4909
4.2325	67.5778
4.2119	66.969
4.1915	66.7176
4.1712	66.7846
4.1512	66.9432
4.1313	67.2408
4.1117	67.5409
4.0922	67.7871
4.0729	67.7357
4.0538	67.6746
4.0349	67.6178
4.0161	67.4948
3.9976	67.4195
3.9792	67.5831
3.9609	67.5263
3.9428	67.7043
3.9249	67.8127
3.9072	67.3096
3.8896	66.4895
3.8722	63.9029
3.8549	64.8776
3.8378	64.9205
3.8208	65.2814
3.804	65.7161
3.7873	65.9663
3.7708	65.9807
3.7544	65.524
3.7382	64.5973
3.7221	64.3476
3.7061	64.3789
3.6903	63.9047
3.6746	62.9893
3.659	62.3318
3.6436	62.2887
3.6283	62.1853
3.6131	61.7631
3.5981	61.2846
3.5832	61.5946
3.5684	61.9564
3.5537	61.9752
3.5391	61.9608
3.5247	61.7932
3.5104	61.4612
3.4962	61.4811
3.4821	61.5576
3.4681	61.3758
3.4543	61.1002
3.4405	60.5153
3.4269	59.6158
3.4133	58.8914
3.3999	58.7458
3.3866	58.4685
3.3733	57.9178
3.3602	57.3813
3.3472	56.5746
3.3343	55.7355
3.3215	54.6244
3.3088	54.1876
3.2961	53.6496
3.2836	53.0429
3.2712	52.8061
3.2588	52.1661
3.2466	51.225
3.2345	50.4207
3.2224	50.0709
3.2104	49.1552
3.1985	47.7789
3.1867	46.049
3.175	45.3634
3.1634	45.355
3.1519	45.1634
3.1404	44.7371
3.129	44.281
3.1178	43.2473
3.1065	42.1149
3.0954	42.0617
3.0844	41.6544
3.0734	41.7994
3.0625	41.4566
3.0517	40.1932
3.041	39.2634
3.0303	38.0125
3.0197	36.0774
3.0092	33.712
2.9987	30.8745
2.9884	29.2054
2.9781	28.349
2.9678	27.7568
2.9577	26.2575
2.9476	25.1096
2.9376	25.9101
2.9276	23.7759
2.9177	18.4293
2.9079	11.8236
2.8982	6.5472
2.8885	5.6371
2.8789	4.6139
2.8693	3.711
2.8598	3.5895
2.8504	4.3336
2.841	10.8114
2.8317	21.4721
2.8224	27.5929
2.8133	29.6965
2.8041	30.8616
2.7951	30.6658
2.786	30.3382
2.7771	31.5029
2.7682	35.0577
2.7594	38.135
2.7506	42.2195
2.7418	46.7853
2.7332	49.8014
2.7246	54.2879
2.716	55.1458
2.7075	57.2992
2.699	58.9941
2.6906	60.1968
2.6823	61.049
2.674	61.9633
2.6657	64.4808
2.6575	63.0944
2.6494	64.7798
2.6413	64.733
2.6332	62.9718
2.6252	61.0249
2.6173	60.1075
2.6094	57.7067
2.6015	57.1615
2.5937	60.3466
2.5859	58.4639
2.5782	56.8307
2.5706	56.3486
2.5629	57.7072
2.5554	57.5737
2.5478	59.1336
2.5403	59.0012
2.5329	57.9833
2.5255	57.7971
2.5181	60.8951
2.5108	63.2642
2.5035	63.922
2.4963	63.9198
2.4891	64.1792
2.482	63.8917
2.4749	63.3547
2.4678	64.1789
2.4608	66.222
2.4538	66.6973
2.4468	67.4804
2.4399	67.0301
2.4331	64.6336
2.4262	62.9909
2.4194	60.2105
2.4127	57.2083
2.4059	55.8077
2.3993	54.5395
2.3926	51.4835
2.386	50.3011
2.3795	50.8498
2.3729	51.2554
2.3664	46.6914
2.36	43.7593
2.3535	46.1526
2.3471	51.7774
2.3408	54.5607
2.3345	50.6739
2.3282	51.1752
2.3219	60.8616
2.3157	69.4646
2.3095	72.7157
2.3034	72.8025
2.2972	70.8362
2.2911	70.0852
2.2851	69.066
2.279	69.1967
2.2731	70.7511
2.2671	72.7249
2.2612	73.6657
2.2553	73.9941
2.2494	72.7906
2.2435	70.6323
2.2377	69.1168
2.232	68.733
2.2262	71.2875
2.2205	73.2963
2.2148	74.7477
2.2091	77.3709
2.2035	79.0705
2.1979	79.9612
2.1923	80.4316
2.1868	80.7127
2.1812	80.8279
2.1758	81.0451
2.1703	81.2558
2.1649	81.6442
2.1595	81.7398
2.1541	81.6459
2.1487	81.6827
2.1434	81.8863
2.1381	81.8992
2.1328	82.2639
2.1275	82.2405
2.1223	82.1985
2.1171	82.5267
2.112	82.4288
2.1068	82.6264
2.1017	82.6121
2.0966	82.5414
2.0915	82.7921
2.0865	82.7745
2.0814	83.0623
2.0764	83.0402
2.0715	83.0204
2.0665	82.6333
2.0616	83.1757
2.0567	82.8567
2.0518	83.0879
2.0469	83.1079
2.0421	83.0162
2.0373	82.8719
2.0325	82.7987
2.0277	82.9485
2.0229	82.715
2.0182	82.7671
2.0135	82.6061
2.0088	82.9529
2.0042	82.8786
