Name: Glaucophane Na_2(Mg,Fe^2+)_3Al_2Si_8O_22(OH)_2
Type: Mineral
Class: Silicate
Subclass: Inosilicate
Particle Size: Coarse
Sample No.: IN-3A
Owner: JPL
Wavelength Range: TIR
Origin: USA, California
Description: Particle size was 125-500um.Collected by Ward's Original ASTER Spectral Library name was jpl.nicolet.mineral.silicate.inosilicate.coarse.in03a.spectrum.txt
Measurement: Hemispherical reflectance
X Units: Wavelength (micrometers)
Y Units: Reflectance (percent)
wavelength	value
15.3853	3.7409
15.1161	3.5967
14.8563	3.4969
14.6052	3.2478
14.3624	3.3123
14.1276	2.5433
13.9004	1.958
13.6803	2.1512
13.4671	2.7783
13.2604	2.9373
13.06	3.2361
12.8656	4.1041
12.6769	5.3551
12.4936	4.3557
12.3155	3.5742
12.1425	4.0276
11.9742	4.8806
11.8106	5.4226
11.6513	6.4647
11.4963	6.8835
11.3454	7.6084
11.1983	7.7791
11.0551	8.2994
10.9154	8.5915
10.7793	9.489
10.6465	11.3992
10.5169	13.4824
10.3904	15.5354
10.267	17.1961
10.1464	17.4612
10.0287	15.9607
9.9136	14.0228
9.8012	14.9342
9.6913	16.6968
9.5838	19.1698
9.4787	20.4524
9.3758	17.2512
9.2752	14.6467
9.1767	14.1659
9.0803	13.2191
8.9858	12.9856
8.8934	12.2645
8.8028	10.5081
8.714	7.4959
8.627	7.8756
8.5417	8.7072
8.4581	7.0639
8.3761	3.3375
8.2957	1.7156
8.2169	1.1197
8.1395	0.7212
8.0635	0.8497
7.989	0.7353
7.9158	0.9079
7.8439	1.015
7.7734	1.0146
7.7041	1.0981
7.636	1.2939
7.5691	1.3783
7.5034	1.4442
7.4388	1.7139
7.3753	1.5063
7.3129	1.787
7.2515	1.9532
7.1912	1.9948
7.1318	2.1574
7.0734	2.3017
7.016	2.447
6.9595	2.5271
6.9039	2.6618
6.8492	2.969
6.7953	3.1139
6.7423	3.4009
6.6901	3.4862
6.6387	3.6082
6.5881	3.6198
6.5382	3.5631
6.4892	3.7101
6.4408	3.5933
6.3931	3.5988
6.3462	3.7594
6.2999	3.6888
6.2543	3.7237
6.2094	3.5331
6.1651	3.3194
6.1214	3.2341
6.0784	2.9864
6.0359	2.9571
5.994	3.1335
5.9527	3.1619
5.912	3.4104
5.8718	3.6192
5.8322	3.5424
5.7931	3.3994
5.7545	3.4454
5.7165	3.2322
5.6789	3.3102
5.6418	3.2699
5.6052	3.3694
5.5691	3.4981
5.5334	3.5268
5.4982	3.7586
5.4635	4.0103
5.4291	4.2205
5.3952	4.2084
5.3618	4.2062
5.3287	4.1824
5.2961	4.5328
5.2638	4.761
5.2319	5.0863
5.2004	5.5719
5.1693	5.9601
5.1386	6.2206
5.1082	6.6864
5.0782	7.0402
5.0485	7.1925
5.0192	7.1792
4.9902	7.3883
4.9616	7.3868
4.9332	7.4526
4.9052	7.8152
4.8776	8.1517
4.8502	8.7601
4.8231	9.2827
4.7963	9.7057
4.7699	10.348
4.7437	11.0968
4.7178	11.8925
4.6922	12.1424
4.6668	12.6665
4.6418	12.9574
4.617	13.415
4.5924	13.9585
4.5681	14.8482
4.5441	15.7287
4.5203	16.4624
4.4968	16.9215
4.4735	17.519
4.4505	18.0928
4.4277	19.1173
4.4051	19.9169
4.3828	20.5338
4.3607	20.9226
4.3388	21.2944
4.3171	21.3914
4.2956	21.6954
4.2744	21.6624
4.2534	21.9564
4.2325	21.9361
4.2119	22.1833
4.1915	22.4831
4.1712	22.5288
4.1512	22.5523
4.1313	22.6433
4.1117	22.6524
4.0922	22.9241
4.0729	22.8272
4.0538	22.7629
4.0349	22.6493
4.0161	22.5991
3.9976	22.5125
3.9792	22.3664
3.9609	22.431
3.9428	22.4993
3.9249	22.4201
3.9072	22.3256
3.8896	22.3526
3.8722	22.3389
3.8549	22.2696
3.8378	22.213
3.8208	22.0665
3.804	22.0133
3.7873	21.9892
3.7708	21.8119
3.7544	21.5934
3.7382	21.5394
3.7221	21.29
3.7061	21.1697
3.6903	21.0636
3.6746	20.8835
3.659	20.6653
3.6436	20.473
3.6283	20.3851
3.6131	20.0878
3.5981	19.8947
3.5832	19.7469
3.5684	19.4359
3.5537	19.2804
3.5391	18.9393
3.5247	18.6333
3.5104	18.403
3.4962	18.1106
3.4821	17.9804
3.4681	17.6034
3.4543	17.2376
3.4405	16.9049
3.4269	16.5635
3.4133	16.0466
3.3999	15.7035
3.3866	15.3427
3.3733	15.0479
3.3602	14.9677
3.3472	14.8463
3.3343	15.0074
3.3215	14.8062
3.3088	14.6417
3.2961	14.3442
3.2836	14.172
3.2712	13.8384
3.2588	13.528
3.2466	13.1819
3.2345	12.7752
3.2224	12.6723
3.2104	12.0435
3.1985	11.9561
3.1867	11.8042
3.175	11.4886
3.1634	11.2478
3.1519	10.9622
3.1404	10.9173
3.129	10.5017
3.1178	10.2777
3.1065	10.0071
3.0954	9.6053
3.0844	9.5086
3.0734	9.2689
3.0625	9.233
3.0517	9.0806
3.041	8.9091
3.0303	8.6314
3.0197	8.5043
3.0092	8.3302
2.9987	8.267
2.9884	7.9685
2.9781	7.8784
2.9678	7.872
2.9577	8.0202
2.9476	7.8113
2.9376	7.9136
2.9276	7.9838
2.9177	8.1029
2.9079	8.1748
2.8982	8.34
2.8885	8.3718
2.8789	8.1645
2.8693	8.0191
2.8598	8.1814
2.8504	8.333
2.841	8.683
2.8317	8.7125
2.8224	8.8908
2.8133	8.5858
2.8041	9.1351
2.7951	9.0389
2.786	9.5437
2.7771	9.2393
2.7682	7.6601
2.7594	6.9562
2.7506	5.8772
2.7418	5.9778
2.7332	6.6161
2.7246	8.6923
2.716	12.4423
2.7075	13.6002
2.699	14.7213
2.6906	18.363
2.6823	21.7252
2.674	23.533
2.6657	24.9907
2.6575	24.8356
2.6494	25.1261
2.6413	25.758
2.6332	26.3312
2.6252	26.7975
2.6173	27.5096
2.6094	27.3861
2.6015	27.7708
2.5937	28.3542
2.5859	27.8301
2.5782	27.9531
2.5706	28.2115
2.5629	28.7315
2.5554	28.6932
2.5478	28.916
2.5403	28.8347
2.5329	28.7899
2.5255	28.8152
2.5181	28.9137
2.5108	28.9277
2.5035	28.9548
2.4963	29.0085
2.4891	29.3174
2.482	29.4572
2.4749	29.7714
2.4678	30.4238
2.4608	30.9996
2.4538	31.7614
2.4468	32.3614
2.4399	32.8388
2.4331	32.7455
2.4262	32.7192
2.4194	32.1951
2.4127	31.4861
2.4059	30.479
2.3993	29.5803
2.3926	28.749
2.386	28.3173
2.3795	28.3859
2.3729	28.791
2.3664	28.2667
2.36	27.5567
2.3535	26.1054
2.3471	24.5311
2.3408	23.0139
2.3345	21.2736
2.3282	20.4996
2.3219	19.975
2.3157	20.0916
2.3095	20.6708
2.3034	22.0926
2.2972	24.5426
2.2911	27.0528
2.2851	28.9173
2.279	30.1693
2.2731	31.5357
2.2671	32.4169
2.2612	32.711
2.2553	32.7722
2.2494	34.013
2.2435	36.0653
2.2377	37.7737
2.232	38.9785
2.2262	40.1387
2.2205	40.7828
2.2148	41.7134
2.2091	41.8416
2.2035	42.1775
2.1979	42.3832
2.1923	42.9097
2.1868	43.1686
2.1812	43.3862
2.1758	43.6946
2.1703	43.6611
2.1649	44.4575
2.1595	44.5014
2.1541	45.0881
2.1487	45.5821
2.1434	45.6901
2.1381	46.1352
2.1328	45.9451
2.1275	45.8764
2.1223	46.3795
2.1171	46.4656
2.112	46.5727
2.1068	46.8326
2.1017	46.7611
2.0966	47.0685
2.0915	47.1484
2.0865	47.2539
2.0814	47.2799
2.0764	47.4074
2.0715	46.9569
2.0665	47.0047
2.0616	46.8779
2.0567	46.9074
2.0518	46.8509
2.0469	46.5182
2.0421	46.3618
2.0373	46.1752
2.0325	45.9524
2.0277	45.9304
2.0229	45.668
2.0182	45.4727
2.0135	45.4999
2.0088	45.3292
2.0042	45.1764
