Name: Glaucophane Na_2(Mg,Fe^2+)_3Al_2Si_8O_22(OH)_2
Type: Mineral
Class: Silicate
Subclass: Inosilicate
Particle Size: Fine
Sample No.: IN-3A
Owner: JPL
Wavelength Range: VSWIR
Origin: USA, California.
Description: Particle size was 0-45um.Collected by:  Ward's Original ASTER Spectral Library name was jpl.perkin.mineral.silicate.inosilicate.fine.in03a.spectrum.txt
Measurement: Hemispherical reflectance
X Units: Wavelength (micrometers)
Y Units: Reflectance (percent)
wavelength	value
2.5	45.3861
2.494	45.2825
2.488	45.4956
2.482	45.6043
2.476	45.7148
2.47	45.7671
2.464	45.9896
2.458	46.2454
2.452	46.3593
2.446	46.6404
2.44	46.7972
2.434	46.8772
2.428	46.9566
2.422	47.0242
2.416	47.0386
2.41	46.8739
2.404	46.6869
2.398	46.5941
2.392	46.4108
2.386	46.3844
2.38	46.3027
2.374	46.2761
2.368	46.1518
2.362	45.9047
2.356	45.4603
2.35	44.851
2.344	44.2684
2.338	43.673
2.332	43.2735
2.326	43.0809
2.32	43
2.314	43.0653
2.308	43.379
2.302	43.9807
2.296	44.5998
2.29	45.2964
2.284	45.8919
2.278	46.3909
2.272	46.7184
2.266	46.9404
2.26	47.11
2.254	47.2895
2.248	47.7011
2.242	48.1764
2.236	48.5652
2.23	49.0091
2.224	49.3236
2.218	49.5893
2.212	49.8364
2.206	49.9317
2.2	50.0292
2.194	50.1773
2.188	50.3429
2.182	50.436
2.176	50.6355
2.17	50.7856
2.164	50.9122
2.158	51.106
2.152	51.2375
2.146	51.3537
2.14	51.3992
2.134	51.3325
2.128	51.2205
2.122	51.1184
2.116	51.0102
2.11	50.8643
2.104	50.7034
2.098	50.6616
2.092	50.7009
2.086	50.7291
2.08	50.7722
2.074	50.7571
2.068	50.746
2.062	50.7815
2.056	50.7549
2.05	50.7803
2.044	50.816
2.038	50.8168
2.032	50.7612
2.026	50.7186
2.02	50.6339
2.014	50.62
2.008	50.5839
2.002	50.5385
1.996	50.4718
1.99	50.3894
1.984	50.3856
1.978	50.3137
1.972	50.1907
1.966	50.1899
1.96	50.126
1.954	50.0386
1.948	50.0609
1.942	49.991
1.936	50.0864
1.93	50.1492
1.924	50.2412
1.918	50.2443
1.912	50.3095
1.906	50.4613
1.9	50.5854
1.894	50.6952
1.888	50.8055
1.882	50.8019
1.876	50.8847
1.87	50.8679
1.864	50.9441
1.858	50.974
1.852	50.9392
1.846	50.9653
1.84	50.9171
1.834	50.8878
1.828	50.8653
1.822	50.8882
1.816	50.8376
1.81	50.8588
1.804	50.8473
1.798	50.8475
1.792	50.7859
1.786	50.7442
1.78	50.7219
1.774	50.6801
1.768	50.6106
1.762	50.581
1.756	50.4844
1.75	50.5041
1.744	50.4939
1.738	50.4914
1.732	50.4127
1.726	50.4229
1.72	50.3382
1.714	50.3834
1.708	50.2734
1.702	50.2225
1.696	50.1372
1.69	50.0827
1.684	50.0381
1.678	50.0048
1.672	49.9346
1.666	49.9284
1.66	49.9197
1.654	49.8889
1.648	49.7637
1.642	49.7603
1.636	49.6721
1.63	49.6428
1.624	49.5931
1.618	49.529
1.612	49.5259
1.606	49.4291
1.6	49.4031
1.594	49.3333
1.588	49.2427
1.582	49.2044
1.576	49.1125
1.57	48.9927
1.564	48.9481
1.558	48.7924
1.552	48.7774
1.546	48.6597
1.54	48.546
1.534	48.4821
1.528	48.4657
1.522	48.3454
1.516	48.3222
1.51	48.2081
1.504	48.1396
1.498	48.0344
1.492	48.0173
1.486	47.8888
1.48	47.7694
1.474	47.6822
1.468	47.5133
1.462	47.4253
1.456	47.3287
1.45	47.2494
1.444	47.2042
1.438	47.1041
1.432	47.1008
1.426	47.0017
1.42	46.7895
1.414	46.2633
1.408	45.0286
1.402	44.8333
1.396	45.8295
1.39	46.3527
1.384	46.4419
1.378	46.3562
1.372	46.2925
1.366	46.117
1.36	45.9823
1.354	45.8346
1.348	45.6678
1.342	45.5445
1.336	45.4717
1.33	45.3234
1.324	45.1436
1.318	44.9475
1.312	44.8205
1.306	44.6181
1.3	44.4553
1.294	44.2935
1.288	44.1651
1.282	43.9883
1.276	43.8291
1.27	43.6272
1.264	43.4542
1.258	43.2679
1.252	43.0859
1.246	42.8584
1.24	42.6683
1.234	42.5007
1.228	42.2835
1.222	42.0936
1.216	41.8813
1.21	41.6473
1.204	41.4253
1.198	41.2923
1.192	41.066
1.186	40.8385
1.18	40.6169
1.174	40.4172
1.168	40.1983
1.162	40.0117
1.156	39.8168
1.15	39.6061
1.144	39.3918
1.138	39.1839
1.132	38.9091
1.126	38.7348
1.12	38.5964
1.114	38.4341
1.108	38.1949
1.102	38.0261
1.096	37.7697
1.09	37.6363
1.084	37.4184
1.078	37.3697
1.072	37.1276
1.066	37.0244
1.06	36.7739
1.054	36.6601
1.048	36.4607
1.042	36.38
1.036	36.171
1.03	36.1289
1.024	36.018
1.018	35.9202
1.012	35.7688
1.006	35.6992
1	35.6313
0.994	35.5022
0.988	35.4239
0.982	35.2677
0.976	35.2161
0.97	35.0897
0.964	34.9948
0.958	34.8785
0.952	34.7408
0.946	34.6679
0.94	34.5475
0.934	34.3579
0.928	34.2976
0.922	34.0853
0.916	33.9296
0.91	33.7868
0.904	33.6033
0.898	33.5094
0.892	33.3161
0.886	33.1671
0.88	33.0429
0.874	32.9168
0.868	32.7913
0.862	32.6667
0.856	32.7908
0.85	32.7601
0.844	32.6657
0.838	32.6058
0.832	32.5594
0.826	32.5305
0.82	32.4684
0.814	32.4386
0.808	32.4065
0.802	32.3754
0.796	32.2853
0.79	32.2359
0.784	32.1228
0.778	32.0402
0.772	31.8891
0.766	31.737
0.76	31.5927
0.754	31.3762
0.748	31.1579
0.742	30.9379
0.736	30.6843
0.73	30.4425
0.724	30.1933
0.718	29.9392
0.712	29.7004
0.706	29.4708
0.7	29.2673
0.694	29.0927
0.688	28.9305
0.682	28.8001
0.676	28.6729
0.67	28.5525
0.664	28.4685
0.658	28.3867
0.652	28.3311
0.646	28.3006
0.64	28.2865
0.634	28.2896
0.628	28.3042
0.622	28.3494
0.616	28.3903
0.61	28.4358
0.604	28.48
0.598	28.5295
0.592	28.5974
0.586	28.62
0.58	28.6434
0.574	28.6646
0.568	28.6541
0.562	28.6583
0.556	28.6351
0.55	28.6137
0.544	28.5988
0.538	28.5808
0.532	28.5635
0.526	28.5461
0.52	28.5358
0.514	28.5166
0.508	28.4733
0.502	28.3892
0.496	28.223
0.49	28.072
0.484	27.9272
0.478	27.6837
0.472	27.461
0.466	27.2731
0.46	27.0216
0.454	26.6194
0.448	26.2636
0.442	25.5889
0.436	24.9176
0.43	24.4705
0.424	23.6962
0.418	22.8757
0.412	21.9826
0.406	21.0647
0.4	20.1876
