Name: Olivine (Fo92) (Fe+2,Mg)2SiO4
Type: Mineral
Class: Silicate
Subclass: Nesosilicate
Particle Size: Fine
Sample No.: olivine_11
Owner: JHU
Wavelength Range: TIR
Origin: Chavira olivine-peridot mine, near Camargo, Chihuahua,Mexico via the Smithsonian (sample no. NMNH 137044)
Description: Sample consisted of many 0.5 cm particles, green in color, appearing pure, plus one large fragment.  The large (1.3 cm x 1 cm) fragment seemed to contain much of contamination, probably diopside, and was discarded.  The hand-picked sample seemed quite clean, except for one grain of pyroxene seen under the microscope and a small amount of limonitic staining on some grains. Particle size was less than 2  Micrometers.(Isolated tetrahedra); (Olivine Group) Original ASTER Spectral Library name was jhu.nicolet.mineral.silicate.nesosilicate.powder.olivi11.spectrum.txt
Measurement: Transmission
X Units: Wavelength (micrometers)
Y Units: Transmittance (percent)
wavelength	value
25.0442	12.1015
24.3388	4.8945
23.6719	2.1289
23.0407	7.125
22.4422	18.9921
21.8741	25.8242
21.334	26.0488
20.8199	32.371
20.33	27.3574
19.8627	7.6875
19.4163	7.7187
18.9896	10.041
18.5812	13.6572
18.19	20.371
17.815	41.3808
17.4551	56.9813
17.1094	62.3631
16.7772	43.4921
16.4576	24.4589
16.15	34.1806
15.8537	55.5721
15.568	69.1717
15.2925	76.1375
15.0265	79.9471
14.7697	81.9158
14.5214	83.0232
14.2814	84.3933
14.0492	85.3142
13.8244	85.3396
13.6067	85.5628
13.3957	84.7537
13.1912	83.7537
12.9929	81.9998
12.8004	78.7386
12.6135	74.2615
12.432	67.7264
12.2557	58.4764
12.0843	42.5643
11.9176	23.4062
11.7555	28.6611
11.5977	16.3051
11.444	5.415
11.2944	1.3008
11.1487	1.6777
11.0067	3.1475
10.8682	4.6582
10.7332	9
10.6015	14.2973
10.473	11.6777
10.3476	20.3134
10.2251	8.4341
10.1056	5.8105
9.9887	7.0937
9.8746	12.9111
9.763	23.1254
9.6539	34.6342
9.5472	44.1146
9.4429	50.7299
9.3408	55.746
9.2409	59.5941
9.1431	62.8563
9.0474	66.7908
8.9536	70.326
8.8618	73.2796
8.7718	75.991
8.6837	78.3177
8.5973	80.1663
8.5126	82.0215
8.4295	83.8369
8.3481	85.5782
8.2682	87.3743
8.1898	88.6524
8.1129	89.9085
8.0374	90.8982
7.9634	91.6904
7.8906	92.2559
7.8192	92.8799
7.7491	93.2852
7.6802	93.7109
7.6126	94.0244
7.5461	94.2988
7.4807	94.6116
7.4165	94.9568
7.3534	95.2637
7.2914	95.4485
7.2303	95.4717
7.1703	95.634
7.1113	95.5957
7.0533	95.5105
6.9962	95.6582
6.94	95.9395
6.8847	96.2002
6.8302	96.2266
6.7767	96.3938
6.7239	96.5723
6.672	96.8437
6.6209	97.0369
6.5705	97.3242
6.5209	97.2978
6.4721	97.3572
6.424	97.4407
6.3766	97.3271
6.3299	97.095
6.2838	96.8799
6.2385	96.7019
6.1937	96.3874
6.1496	95.9568
6.1062	95.7498
6.0633	95.6296
6.0211	95.5613
5.9794	96.1162
5.9383	96.9394
5.8978	97.4219
5.8578	97.7107
5.8184	98.156
5.7794	98.2988
5.741	98.4309
5.7031	98.2771
5.6657	97.8904
5.6288	97.5759
5.5924	97.8301
5.5564	98.28
5.5209	98.5334
5.4859	98.5225
5.4513	98.4831
5.4171	98.613
5.3833	98.7422
5.35	98.8672
5.3171	98.9211
5.2846	98.9619
5.2524	98.9902
5.2207	98.9199
5.1893	99.0798
5.1584	99.1328
5.1277	99.1699
5.0975	99.2195
5.0676	99.2353
5.038	99.239
5.0088	99.2148
4.98	99.1025
4.9514	99.0276
4.9232	99.1184
4.8953	99.2224
4.8678	99.3513
4.8405	99.4431
4.8135	99.4519
4.7868	99.4944
4.7605	99.4954
4.7344	99.4353
4.7086	99.3923
4.6831	99.4304
4.6578	99.3635
4.6328	99.3288
4.6081	99.198
4.5837	99.2424
4.5595	99.2214
4.5356	99.1985
4.5119	99.1687
4.4884	99.1023
4.4652	99.0891
4.4423	98.9788
4.4196	98.9973
4.3971	98.9158
4.3748	98.8728
4.3528	98.8826
4.331	98.8391
4.3094	98.7703
4.288	98.758
4.2668	98.7327
4.2458	98.7175
4.2251	98.6135
4.2045	98.6023
4.1841	98.5671
4.164	98.508
4.144	98.4612
4.1242	98.4441
4.1046	98.4119
4.0852	98.3738
4.066	98.3601
4.047	98.2659
4.0281	98.2146
4.0094	98.1526
3.9909	98.0784
3.9725	98.0647
3.9544	98.008
3.9363	97.9358
3.9185	97.9006
3.9008	97.8464
3.8833	97.7654
3.8659	97.6819
3.8487	97.5979
3.8316	97.533
3.8147	97.4807
3.7979	97.3738
3.7813	97.2732
3.7648	97.2463
3.7485	97.1331
3.7323	97.0608
3.7162	96.8933
3.7003	96.8542
3.6845	96.7151
3.6689	96.6111
3.6534	96.4958
3.638	96.4514
3.6227	96.2146
3.6076	96.2126
3.5926	96.0857
3.5777	95.9646
3.563	95.8538
3.5484	95.7126
3.5338	95.6072
3.5195	95.4866
3.5052	95.197
3.491	95.1819
3.477	95.01
3.463	94.8669
3.4492	94.7581
3.4355	94.574
3.4219	94.3025
3.4084	94.2048
3.395	94.0608
3.3817	93.9314
3.3685	93.8396
3.3554	93.7444
3.3425	93.5505
3.3296	93.3987
3.3168	93.2522
3.3041	93.0628
3.2915	92.9607
3.279	92.7346
3.2666	92.4968
3.2543	92.3416
3.2421	92.1013
3.23	91.9744
3.218	91.6775
3.206	91.5339
3.1942	91.2273
3.1824	90.9832
3.1707	90.783
3.1591	90.5398
3.1476	90.2302
3.1362	89.9607
3.1249	89.8328
3.1136	89.5359
3.1024	89.325
3.0913	89.0388
3.0803	88.8953
3.0694	88.699
3.0585	88.5515
3.0477	88.2957
3.037	87.9939
3.0264	87.8025
3.0158	87.6531
3.0053	87.3025
2.9949	87.0955
2.9845	86.9148
2.9743	86.574
2.9641	86.4978
2.9539	86.2537
2.9439	86.1912
2.9339	86.2078
2.9239	86.1023
2.9141	86.1717
2.9043	86.3045
2.8946	86.3904
2.8849	86.4881
2.8753	86.5515
2.8658	86.7039
2.8563	86.8718
2.8469	87.3045
2.8375	87.5554
2.8282	87.7937
2.819	88.2234
2.8098	88.4031
2.8007	88.7351
2.7917	89.1961
2.7827	89.532
2.7738	89.8211
2.7649	90.2849
2.7561	90.9695
2.7473	91.3064
2.7386	91.9451
2.7299	92.2429
2.7213	92.5115
2.7128	92.7615
2.7043	92.8767
2.6959	92.8826
2.6875	92.9802
2.6791	92.9998
2.6709	93.1013
2.6626	92.8298
2.6545	92.6853
2.6463	92.6658
2.6382	92.4627
2.6302	92.5056
2.6222	92.3279
2.6143	92.2791
2.6064	92.3337
2.5986	92.2537
2.5908	92.1521
2.583	92.2556
2.5753	92.0818
2.5677	91.867
2.5601	91.783
2.5525	91.738
2.545	91.6912
2.5375	91.5017
2.5301	91.4783
2.5227	91.4236
2.5154	91.1677
2.5081	91.4412
2.5008	91.2595
2.4936	91.0545
2.4864	91.0545
2.4793	90.8377
2.4722	90.8435
2.4651	90.7849
2.4581	90.656
2.4511	90.5427
2.4442	90.5486
2.4373	90.533
2.4305	90.3435
2.4236	90.4783
2.4169	90.3064
2.4101	90.2966
2.4034	90.0076
2.3967	89.7986
2.3901	89.8611
2.3835	89.8064
2.377	89.6033
2.3704	89.4685
2.364	89.5388
2.3575	89.2341
2.3511	89.1756
2.3447	89.156
2.3384	89.0466
2.3321	88.9685
2.3258	89.0642
2.3195	88.8552
2.3133	88.9705
2.3071	88.4841
2.301	88.6795
2.2949	88.5857
2.2888	88.367
2.2828	88.0779
2.2767	88.5271
2.2708	88.2146
2.2648	88.1013
2.2589	88.1248
2.253	87.8396
2.2471	87.8006
2.2413	87.7107
2.2355	87.7146
2.2297	87.5974
2.224	87.3084
2.2183	87.1795
2.2126	87.3709
2.207	87.2498
2.2013	87.0232
2.1957	87.1326
2.1902	87.0115
2.1846	87.0232
2.1791	86.8631
2.1736	86.7263
2.1682	86.5818
2.1628	86.531
2.1574	86.4607
2.152	86.3513
2.1466	86.0467
2.1413	86.0701
2.136	85.906
2.1308	85.9138
2.1255	85.8318
2.1203	85.7263
2.1151	85.781
2.11	85.6482
2.1048	85.5349
2.0997	85.3435
2.0946	85.3513
2.0895	85.2537
2.0845	85.1482
2.0795	85.0623
