Name: Clinoptilolite (Na,K,Ca)2-3Al3(Al,Si)2Si13O36.12H2O
Type: Mineral
Class: Silicate
Subclass: Tectosilicate
Particle Size: Fine
Sample No.: clinopt_1
Owner: JHU
Wavelength Range: TIR
Origin: Donated by W. J. Ehmann ;  Sample #7 from Castle Creek,Idaho.
Description: The sample is a cream-colored earthy mass.  Because of the earthy nature of this mineral sample, there is little difference between the spectra of different particle size ranges. Petrographically it is clean and pure clinoptilolite. Particle size was less than 2  Micrometers.(Framework silicates) (Zeolite Group) Original ASTER Spectral Library name was jhu.nicolet.mineral.silicate.tectosilicate.powder.clinop1.spectrum.txt
Measurement: Transmission
X Units: Wavelength (micrometers)
Y Units: Transmittance (percent)
wavelength	value
25.044	60.301
24.339	57.59
23.672	53.838
23.041	48.934
22.442	40.805
21.874	38.388
21.334	39.903
20.82	47.2
20.33	56.686
19.863	63.686
19.416	66.45
18.99	66.904
18.581	69.915
18.19	71.439
17.815	71.287
17.455	70.555
17.109	69.471
16.777	66.295
16.458	61.76
16.15	65.111
15.854	69.875
15.568	71.902
15.292	72.121
15.027	71.016
14.77	70.551
14.521	71.494
14.281	71.805
14.049	71.175
13.824	70.927
13.607	71.4
13.396	72.231
13.191	73.117
12.993	73.598
12.8	73.539
12.614	73.929
12.432	75.712
12.256	78.76
12.084	81.07
11.918	80.649
11.755	77.786
11.598	74.254
11.444	70.804
11.294	68.369
11.149	67.226
11.007	66.161
10.868	65.253
10.733	63.993
10.602	61.555
10.473	57.232
10.348	50.99
10.225	42.461
10.106	32.869
9.9887	24.463
9.8746	18.425
9.763	14.336
9.6539	11.836
9.5472	10.649
9.4429	10.529
9.3408	11.193
9.2409	12.977
9.1431	16.008
9.0474	19.656
8.9536	22.874
8.8618	25.236
8.7718	27.257
8.6837	29.397
8.5973	31.667
8.5126	34.35
8.4295	37.574
8.3481	40.98
8.2682	44.325
8.1898	50.574
8.1129	61.206
8.0374	69.881
7.9634	74.815
7.8906	77.867
7.8192	79.976
7.7491	81.513
7.6802	82.688
7.6126	83.637
7.5461	84.445
7.4807	85.096
7.4165	85.606
7.3534	85.969
7.2914	86.248
7.2303	86.398
7.1703	86.288
7.1113	86.467
7.0533	86.857
6.9962	87.121
6.94	87.336
6.8847	87.434
6.8302	87.512
6.7767	87.921
6.7239	88.299
6.672	88.657
6.6209	88.886
6.5705	89.011
6.5209	89.076
6.4721	89.146
6.424	89.159
6.3766	89.144
6.3299	88.95
6.2838	88.622
6.2385	87.942
6.1937	86.348
6.1496	83.093
6.1062	81.453
6.0633	82.27
6.0211	83.608
5.9794	85.415
5.9383	86.794
5.8978	87.877
5.8578	88.627
5.8184	89.174
5.7794	89.56
5.741	89.84
5.7031	90.02
5.6657	90.132
5.6288	90.208
5.5924	90.209
5.5564	90.268
5.5209	90.29
5.4859	90.334
5.4513	90.409
5.4171	90.45
5.3833	90.505
5.35	90.604
5.3171	90.695
5.2846	90.77
5.2524	90.861
5.2207	90.903
5.1893	90.963
5.1584	91.022
5.1277	91.079
5.0975	91.17
5.0676	91.2
5.038	91.227
5.0088	91.309
4.98	91.319
4.9514	91.382
4.9232	91.358
4.8953	91.397
4.8678	91.394
4.8405	91.408
4.8135	91.4
4.7868	91.382
4.7605	91.312
4.7344	91.328
4.7086	91.248
4.6831	91.221
4.6578	91.244
4.6328	91.279
4.6081	91.274
4.5837	91.297
4.5595	91.239
4.5356	91.217
4.5119	91.188
4.4884	91.244
4.4652	91.2
4.4423	91.134
4.4196	91.157
4.3971	91.129
4.3748	91.172
4.3528	91.182
4.331	91.251
4.3094	91.192
4.288	91.137
4.2668	91.148
4.2458	91.2
4.2251	91.219
4.2045	91.182
4.1841	91.179
4.164	91.225
4.144	91.148
4.1242	91.197
4.1046	91.251
4.0852	91.227
4.066	91.217
4.047	91.222
4.0281	91.188
4.0094	91.15
3.9909	91.14
3.9725	91.124
3.9544	91.06
3.9363	91.107
3.9185	91.08
3.9008	91.062
3.8833	91.037
3.8659	90.941
3.8487	90.935
3.8316	90.877
3.8147	90.84
3.7979	90.778
3.7813	90.747
3.7648	90.678
3.7485	90.555
3.7323	90.487
3.7162	90.355
3.7003	90.216
3.6845	90.171
3.6689	90.023
3.6534	89.919
3.638	89.819
3.6227	89.61
3.6076	89.459
3.5926	89.382
3.5777	89.241
3.563	89.044
3.5484	88.826
3.5338	88.646
3.5195	88.326
3.5052	87.798
3.491	87.672
3.477	87.519
3.463	87.313
3.4492	86.976
3.4355	86.602
3.4219	85.976
3.4084	85.603
3.395	85.669
3.3817	85.419
3.3685	85.127
3.3554	84.925
3.3425	84.555
3.3296	84.083
3.3168	83.661
3.3041	83.293
3.2915	82.832
3.279	82.298
3.2666	81.776
3.2543	81.233
3.2421	80.636
3.23	79.893
3.218	79.195
3.206	78.643
3.1942	78.013
3.1824	77.307
3.1707	76.621
3.1591	75.916
3.1476	75.191
3.1362	74.46
3.1249	73.795
3.1136	73.103
3.1024	72.358
3.0913	71.694
3.0803	71.199
3.0694	70.771
3.0585	70.414
3.0477	69.963
3.037	69.529
3.0264	69.18
3.0158	68.766
3.0053	68.422
2.9949	68.106
2.9845	67.954
2.9743	67.746
2.9641	67.66
2.9539	67.659
2.9439	67.657
2.9339	67.726
2.9239	67.717
2.9141	67.82
2.9043	67.97
2.8946	68.024
2.8849	68.037
2.8753	67.987
2.8658	67.969
2.8563	68.089
2.8469	68.373
2.8375	68.727
2.8282	68.795
2.819	68.961
2.8098	69.172
2.8007	69.428
2.7917	69.647
2.7827	69.915
2.7738	70.325
2.7649	71.053
2.7561	72.129
2.7473	73.684
2.7386	75.614
2.7299	77.746
2.7213	79.41
2.7128	80.958
2.7043	81.741
2.6959	82.338
2.6875	82.801
2.6791	83.17
2.6709	83.354
2.6626	83.366
2.6545	83.569
2.6463	83.66
2.6382	83.679
2.6302	83.731
2.6222	83.599
2.6143	83.807
2.6064	83.689
2.5986	83.769
2.5908	83.896
2.583	83.854
2.5753	83.639
2.5677	83.483
2.5601	83.547
2.5525	83.485
2.545	83.495
2.5375	83.771
2.5301	83.572
2.5227	83.273
2.5154	83.311
2.5081	83.469
2.5008	83.409
2.4936	83.332
2.4864	83.384
2.4793	83.168
2.4722	83.032
2.4651	83.036
2.4581	82.92
2.4511	82.938
2.4442	83.076
2.4373	83.203
2.4305	82.906
2.4236	82.863
2.4169	82.851
2.4101	82.896
2.4034	82.981
2.3967	82.847
2.3901	82.633
2.3835	82.785
2.377	82.756
2.3704	82.676
2.364	82.485
2.3575	82.609
2.3511	82.674
2.3447	82.519
2.3384	82.473
2.3321	82.279
2.3258	82.38
2.3195	82.333
2.3133	82.243
2.3071	82.461
2.301	82.423
2.2949	82.271
2.2888	82.158
2.2828	81.883
2.2767	81.981
2.2708	82.152
2.2648	81.962
2.2589	81.914
2.253	82.251
2.2471	82.105
2.2413	81.876
2.2355	82.033
2.2297	82.188
2.224	81.75
2.2183	82.043
2.2126	81.879
2.207	81.969
2.2013	81.95
2.1957	81.902
2.1902	82.197
2.1846	81.963
2.1791	81.695
2.1736	81.895
2.1682	82.075
2.1628	82.14
2.1574	82.174
2.152	81.986
2.1466	81.959
2.1413	81.984
2.136	81.871
2.1308	81.998
2.1255	82.101
2.1203	82.109
2.1151	82.119
2.11	82.039
2.1048	81.98
2.0997	81.998
2.0946	82.195
2.0895	82.242
2.0845	82.078
2.0795	82.275
