Name: Ilmenite Fe+2TiO3
Type: Mineral
Class: Oxide
Subclass: None
Particle Size: Solid
Sample No.: ilmenite_1
Owner: JHU
Wavelength Range: TIR
Origin: Ilmen Mountains, Urals, USSR via the Smithsonian (sample no.NMNH 96189)
Description: The sample consisted of two large and several smaller fragments.  Each large piece was about 1 cm x 3 cm, with a total weight of 19 g. Many surfaces of this black mineral had a yellow-brown alteration coating, which was difficult to remove completely.  Under the microscope the sample appeared pure. Sample had fracture surface.(Hematite Group) Original ASTER Spectral Library name was jhu.nicolet.mineral.oxide.none.solid.ilmeni1.spectrum.txt
Measurement: Bidirectional reflectance
X Units: Wavelength (micrometers)
Y Units: Reflectance (percent)
wavelength	value
25.0442	28.9062
24.3388	33.9569
23.6719	36.8036
23.0407	38.2875
22.4422	36.8271
21.8741	33.7629
21.334	31.1984
20.8199	30.4701
20.33	31.245
19.8627	32.496
19.4163	34.4789
18.9896	35.7592
18.5812	36.5844
18.19	36.9633
17.815	37.1396
17.4551	36.7941
17.1094	35.6554
16.7772	34.4623
16.4576	34.2091
16.15	34.5038
15.8537	34.5993
15.568	34.2636
15.2925	33.5829
15.0265	32.6003
14.7697	30.8656
14.5214	28.3669
14.2814	25.6032
14.0492	22.5288
13.8244	18.9162
13.6067	14.8442
13.3957	10.2988
13.1912	6.5454
12.9929	4.345
12.8004	3.2451
12.6135	2.7436
12.432	2.697
12.2557	2.9148
12.0843	3.2727
11.9176	3.6289
11.7555	3.9892
11.5977	4.3389
11.444	4.6653
11.2944	4.9756
11.1487	5.2739
11.0067	5.5288
10.8682	5.81
10.7332	6.0766
10.6015	6.3205
10.473	6.5466
10.3476	6.7756
10.2251	6.9751
10.1056	7.1645
9.9887	7.3484
9.8746	7.5149
9.763	7.6894
9.6539	7.875
9.5472	8.0381
9.4429	8.2192
9.3408	8.3752
9.2409	8.5083
9.1431	8.6333
9.0474	8.7693
8.9536	8.8347
8.8618	8.9465
8.7718	9.0552
8.6837	9.1379
8.5973	9.2268
8.5126	9.3205
8.4295	9.4175
8.3481	9.4992
8.2682	9.5927
8.1898	9.6823
8.1129	9.7727
8.0374	9.8562
7.9634	9.9487
7.8906	10.031
7.8192	10.0984
7.7491	10.1272
7.6802	10.1452
7.6126	10.1753
7.5461	10.2258
7.4807	10.2864
7.4165	10.3528
7.3534	10.4096
7.2914	10.4658
7.2303	10.5193
7.1703	10.5661
7.1113	10.6352
7.0533	10.6838
6.9962	10.7414
6.94	10.8181
6.8847	10.8777
6.8302	10.9258
6.7767	10.947
6.7239	11.0061
6.672	11.0556
6.6209	11.1081
6.5705	11.1479
6.5209	11.2251
6.4721	11.2766
6.424	11.3034
6.3766	11.3767
6.3299	11.4438
6.2838	11.4758
6.2385	11.5232
6.1937	11.5527
6.1496	11.5925
6.1062	11.6157
6.0633	11.6601
6.0211	11.7011
5.9794	11.7378
5.9383	11.7551
5.8978	11.8203
5.8578	11.914
5.8184	11.9865
5.7794	11.9878
5.741	11.903
5.7031	11.925
5.6657	12.0097
5.6288	12.0549
5.5924	12.1128
5.5564	12.1423
5.5209	12.1733
5.4859	12.2121
5.4513	12.2258
5.4171	12.2492
5.3833	12.2856
5.35	12.3176
5.3171	12.3667
5.2846	12.3899
5.2524	12.4089
5.2207	12.435
5.1893	12.458
5.1584	12.4843
5.1277	12.5024
5.0975	12.5168
5.0676	12.5412
5.038	12.5605
5.0088	12.5942
4.98	12.6167
4.9514	12.6443
4.9232	12.6648
4.8953	12.707
4.8678	12.7339
4.8405	12.758
4.8135	12.7778
4.7868	12.8054
4.7605	12.8266
4.7344	12.852
4.7086	12.8628
4.6831	12.8982
4.6578	12.9206
4.6328	12.9406
4.6081	12.9751
4.5837	12.9821
4.5595	13.0014
4.5356	13.011
4.5119	13.0395
4.4884	13.06
4.4652	13.0827
4.4423	13.0949
4.4196	13.1128
4.3971	13.1291
4.3748	13.1364
4.3528	13.1533
4.331	13.1677
4.3094	13.1828
4.288	13.1909
4.2668	13.2182
4.2458	13.2356
4.2251	13.2678
4.2045	13.2883
4.1841	13.3159
4.164	13.3471
4.144	13.3591
4.1242	13.3762
4.1046	13.3877
4.0852	13.4255
4.066	13.4292
4.047	13.4587
4.0281	13.4797
4.0094	13.4953
3.9909	13.5009
3.9725	13.5153
3.9544	13.5363
3.9363	13.5503
3.9185	13.5727
3.9008	13.5852
3.8833	13.5969
3.8659	13.6091
3.8487	13.6242
3.8316	13.6408
3.8147	13.6499
3.7979	13.6823
3.7813	13.6989
3.7648	13.7253
3.7485	13.7409
3.7323	13.7663
3.7162	13.7636
3.7003	13.7881
3.6845	13.8068
3.6689	13.8225
3.6534	13.8625
3.638	13.8681
3.6227	13.9028
3.6076	13.9294
3.5926	13.9465
3.5777	13.9611
3.563	13.988
3.5484	14.0034
3.5338	14.0234
3.5195	14.0512
3.5052	14.0656
3.491	14.0288
3.477	14.0442
3.463	14.0661
3.4492	14.101
3.4355	14.1135
3.4219	14.1108
3.4084	14.0422
3.395	14.0512
3.3817	14.0603
3.3685	14.0139
3.3554	14.0297
3.3425	14.081
3.3296	14.1167
3.3168	14.1545
3.3041	14.1897
3.2915	14.216
3.279	14.2473
3.2666	14.2702
3.2543	14.2802
3.2421	14.3034
3.23	14.3252
3.218	14.3559
3.206	14.3767
3.1942	14.4028
3.1824	14.4213
3.1707	14.4377
3.1591	14.4543
3.1476	14.4638
3.1362	14.477
3.1249	14.4885
3.1136	14.5122
3.1024	14.539
3.0913	14.542
3.0803	14.5637
3.0694	14.5788
3.0585	14.6013
3.0477	14.6323
3.037	14.6416
3.0264	14.7006
3.0158	14.697
3.0053	14.6987
2.9949	14.7529
2.9845	14.7778
2.9743	14.8012
2.9641	14.8339
2.9539	14.8481
2.9439	14.8701
2.9339	14.8999
2.9239	14.9013
2.9141	14.9406
2.9043	14.9775
2.8946	15.0163
2.8849	15.0395
2.8753	15.0571
2.8658	15.0893
2.8563	15.1067
2.8469	15.1391
2.8375	15.1338
2.8282	15.143
2.819	15.1753
2.8098	15.1994
2.8007	15.2326
2.7917	15.2485
2.7827	15.2602
2.7738	15.291
2.7649	15.2993
2.7561	15.309
2.7473	15.3696
2.7386	15.3828
2.7299	15.4301
2.7213	15.4438
2.7128	15.476
2.7043	15.4941
2.6959	15.5214
2.6875	15.5588
2.6791	15.5478
2.6709	15.6032
2.6626	15.6435
2.6545	15.6718
2.6463	15.6765
2.6382	15.7255
2.6302	15.6933
2.6222	15.7441
2.6143	15.7553
2.6064	15.7561
2.5986	15.8281
2.5908	15.8557
2.583	15.8383
2.5753	15.8928
2.5677	15.9145
2.5601	15.8979
2.5525	15.9404
2.545	15.9829
2.5375	15.977
2.5301	15.9604
2.5227	16.0207
2.5154	16.0229
2.5081	16.0412
2.5008	16.0776
2.4936	16.1098
2.4864	16.1137
2.4793	16.1096
2.4722	16.1613
2.4651	16.1152
2.4581	16.1543
2.4511	16.1904
2.4442	16.1738
2.4373	16.1613
2.4305	16.2089
2.4236	16.2285
2.4169	16.2629
2.4101	16.2778
2.4034	16.2392
2.3967	16.2121
2.3901	16.2285
2.3835	16.257
2.377	16.2753
2.3704	16.2756
2.364	16.267
2.3575	16.2841
2.3511	16.3029
2.3447	16.3156
2.3384	16.2998
2.3321	16.2639
2.3258	16.3095
2.3195	16.27
2.3133	16.2436
2.3071	16.2802
2.301	16.3076
2.2949	16.2993
2.2888	16.3481
2.2828	16.3061
2.2767	16.312
2.2708	16.2563
2.2648	16.267
2.2589	16.3325
2.253	16.27
2.2471	16.2656
2.2413	16.2343
2.2355	16.2353
2.2297	16.2509
2.224	16.2197
2.2183	16.2353
2.2126	16.2402
2.207	16.227
2.2013	16.2036
2.1957	16.1982
2.1902	16.2544
2.1846	16.2295
2.1791	16.1738
2.1736	16.1938
2.1682	16.2236
2.1628	16.1992
2.1574	16.1601
2.152	16.1357
2.1466	16.0786
2.1413	16.0918
2.136	16.1562
2.1308	16.102
2.1255	16.167
2.1203	16.1508
2.1151	16.1211
2.11	16.1254
2.1048	16.1411
2.0997	16.1489
2.0946	16.1157
2.0895	16.0976
2.0845	16.0449
2.0795	16.0551
