Name: Quartz SiO_2
Type: Mineral
Class: Silicate
Subclass: Tectosilicate
Particle Size: Fine
Sample No.: TS-1B
Owner: JPL
Wavelength Range: VSWIR
Origin: Brazil, Minas Gerais.
Description: Smoky quartzParticle size was 0-45um.Collected by:  Burminco Original ASTER Spectral Library name was jpl.perkin.mineral.silicate.tectosilicate.fine.ts01b.spectrum.txt
Measurement: Hemispherical reflectance
X Units: Wavelength (micrometers)
Y Units: Reflectance (percent)
wavelength	value
2.5	74.5053
2.494	74.7967
2.488	74.6036
2.482	74.7736
2.476	74.7616
2.47	74.8958
2.464	74.8931
2.458	75.0463
2.452	75.1062
2.446	75.0409
2.44	75.2093
2.434	75.1851
2.428	75.2097
2.422	75.3251
2.416	75.4166
2.41	75.4178
2.404	75.4546
2.398	75.5152
2.392	75.5722
2.386	75.6544
2.38	75.8134
2.374	75.7984
2.368	75.9329
2.362	76.0083
2.356	76.0649
2.35	76.1324
2.344	76.1252
2.338	76.2239
2.332	76.0973
2.326	76.1285
2.32	76.1134
2.314	76.033
2.308	76.0366
2.302	75.9898
2.296	76.0327
2.29	76.0325
2.284	75.9813
2.278	75.9947
2.272	76.0254
2.266	75.9637
2.26	75.9967
2.254	75.9535
2.248	76.0482
2.242	76.0491
2.236	75.9937
2.23	76.2072
2.224	76.2289
2.218	76.2395
2.212	76.3304
2.206	76.4454
2.2	76.539
2.194	76.5268
2.188	76.6809
2.182	76.7794
2.176	76.8957
2.17	77.0243
2.164	77.1969
2.158	77.3726
2.152	77.4311
2.146	77.4355
2.14	77.4773
2.134	77.4357
2.128	77.247
2.122	77.0178
2.116	76.8487
2.11	76.5891
2.104	76.3138
2.098	76.2142
2.092	76.3044
2.086	76.372
2.08	76.4414
2.074	76.5239
2.068	76.6708
2.062	76.6403
2.056	76.7226
2.05	76.7674
2.044	76.8918
2.038	76.8899
2.032	76.9688
2.026	76.9444
2.02	77.0004
2.014	76.9826
2.008	76.966
2.002	76.9261
1.996	76.9384
1.99	76.8579
1.984	76.8085
1.978	76.7987
1.972	76.6924
1.966	76.6137
1.96	76.6294
1.954	76.6732
1.948	76.662
1.942	76.6804
1.936	76.753
1.93	76.6982
1.924	76.7097
1.918	76.7997
1.912	76.8181
1.906	76.9671
1.9	77.0398
1.894	77.0472
1.888	77.2074
1.882	77.1682
1.876	77.2401
1.87	77.2363
1.864	77.3366
1.858	77.447
1.852	77.3807
1.846	77.377
1.84	77.4272
1.834	77.4237
1.828	77.4062
1.822	77.4923
1.816	77.4656
1.81	77.519
1.804	77.5381
1.798	77.5267
1.792	77.5674
1.786	77.5519
1.78	77.5061
1.774	77.3905
1.768	77.4823
1.762	77.4379
1.756	77.4812
1.75	77.5432
1.744	77.5759
1.738	77.5924
1.732	77.5284
1.726	77.5654
1.72	77.5745
1.714	77.5504
1.708	77.5758
1.702	77.5412
1.696	77.6261
1.69	77.5608
1.684	77.569
1.678	77.4998
1.672	77.5336
1.666	77.6402
1.66	77.6311
1.654	77.5235
1.648	77.5127
1.642	77.5355
1.636	77.6085
1.63	77.6216
1.624	77.5246
1.618	77.6009
1.612	77.6083
1.606	77.5921
1.6	77.5414
1.594	77.6056
1.588	77.6193
1.582	77.6568
1.576	77.5793
1.57	77.639
1.564	77.6122
1.558	77.5992
1.552	77.633
1.546	77.5948
1.54	77.6258
1.534	77.5862
1.528	77.5371
1.522	77.4739
1.516	77.5107
1.51	77.5417
1.504	77.5373
1.498	77.5742
1.492	77.4615
1.486	77.5631
1.48	77.5195
1.474	77.4421
1.468	77.5312
1.462	77.5601
1.456	77.5416
1.45	77.5308
1.444	77.4779
1.438	77.4892
1.432	77.4608
1.426	77.5655
1.42	77.5116
1.414	77.5091
1.408	77.4943
1.402	77.5667
1.396	77.5057
1.39	77.6158
1.384	77.6069
1.378	77.5358
1.372	77.5779
1.366	77.5437
1.36	77.5283
1.354	77.5218
1.348	77.6115
1.342	77.4541
1.336	77.5916
1.33	77.6201
1.324	77.5656
1.318	77.4762
1.312	77.5005
1.306	77.5224
1.3	77.5247
1.294	77.4843
1.288	77.5038
1.282	77.5181
1.276	77.4813
1.27	77.5298
1.264	77.4793
1.258	77.4309
1.252	77.4765
1.246	77.4686
1.24	77.4459
1.234	77.4365
1.228	77.4557
1.222	77.4259
1.216	77.4465
1.21	77.4546
1.204	77.3752
1.198	77.4513
1.192	77.3923
1.186	77.4151
1.18	77.4082
1.174	77.4489
1.168	77.3575
1.162	77.4334
1.156	77.411
1.15	77.4253
1.144	77.4453
1.138	77.4109
1.132	77.4462
1.126	77.4242
1.12	77.4045
1.114	77.4037
1.108	77.4175
1.102	77.374
1.096	77.329
1.09	77.3548
1.084	77.426
1.078	77.3567
1.072	77.3592
1.066	77.3886
1.06	77.3431
1.054	77.3758
1.048	77.3414
1.042	77.4017
1.036	77.3482
1.03	77.2764
1.024	77.3467
1.018	77.2939
1.012	77.2397
1.006	77.3744
1	77.2824
0.994	77.2393
0.988	77.242
0.982	77.1989
0.976	77.1923
0.97	77.2362
0.964	77.22
0.958	77.1956
0.952	77.1017
0.946	77.1152
0.94	77.082
0.934	77.1125
0.928	77.0308
0.922	77.0077
0.916	76.9511
0.91	76.9263
0.904	76.8789
0.898	76.7828
0.892	76.7754
0.886	76.6711
0.88	76.6734
0.874	76.6191
0.868	76.6118
0.862	76.5545
0.856	76.503
0.85	76.4449
0.844	76.3719
0.838	76.3191
0.832	76.2996
0.826	76.2379
0.82	76.2228
0.814	76.109
0.808	76.0666
0.802	76.011
0.796	75.9724
0.79	75.8695
0.784	75.7956
0.778	75.7392
0.772	75.629
0.766	75.5629
0.76	75.5103
0.754	75.385
0.748	75.3571
0.742	75.2819
0.736	75.1808
0.73	75.1345
0.724	75.0489
0.718	74.9693
0.712	74.9096
0.706	74.8332
0.7	74.7474
0.694	74.6832
0.688	74.6317
0.682	74.5427
0.676	74.4873
0.67	74.4142
0.664	74.3637
0.658	74.3102
0.652	74.2669
0.646	74.2135
0.64	74.1561
0.634	74.1181
0.628	74.0594
0.622	74.0028
0.616	73.9484
0.61	73.9161
0.604	73.8566
0.598	73.8292
0.592	73.822
0.586	73.744
0.58	73.6845
0.574	73.6378
0.568	73.562
0.562	73.4789
0.556	73.3734
0.55	73.2687
0.544	73.169
0.538	73.075
0.532	72.9787
0.526	72.8614
0.52	72.7493
0.514	72.6246
0.508	72.5272
0.502	72.4219
0.496	72.2765
0.49	72.1543
0.484	72.0311
0.478	71.9333
0.472	71.8525
0.466	71.7611
0.46	71.6672
0.454	71.5341
0.448	71.3843
0.442	71.1498
0.436	70.9333
0.43	70.6492
0.424	70.4309
0.418	70.3183
0.412	70.2805
0.406	70.2759
0.4	70.2609
