Name: Microcline (Feldspar) (K,Na)AlSi_3O_8
Type: Mineral
Class: Silicate
Subclass: Tectosilicate
Particle Size: Medium
Sample No.: TS-17A
Owner: JPL
Wavelength Range: TIR
Description: Particle size was 45-125um.Collected by JPL Original ASTER Spectral Library name was jpl.nicolet.mineral.silicate.tectosilicate.medium.ts17a.spectrum.txt
Measurement: Hemispherical reflectance
X Units: Wavelength (micrometers)
Y Units: Reflectance (percent)
wavelength	value
15.3853	3.9774
15.1161	2.548
14.8563	2.3881
14.6052	2.8738
14.3624	3.041
14.1276	3.121
13.9004	3.3877
13.6803	3.2566
13.4671	2.7764
13.2604	2.8196
13.06	3.803
12.8656	2.9581
12.6769	2.1575
12.4936	2.8285
12.3155	3.415
12.1425	4.4019
11.9742	5.0295
11.8106	4.9653
11.6513	5.1177
11.4963	5.1474
11.3454	5.2001
11.1983	5.3052
11.0551	5.4105
10.9154	5.5327
10.7793	5.6806
10.6465	6.0548
10.5169	6.4989
10.3904	7.5773
10.267	9.2576
10.1464	11.8288
10.0287	15.5295
9.9136	18.5126
9.8012	19.6886
9.6913	18.3326
9.5838	18.4557
9.4787	19.7975
9.3758	16.6037
9.2752	17.6666
9.1767	17.938
9.0803	14.3849
8.9858	12.4772
8.8934	13.8866
8.8028	15.8622
8.714	16.9087
8.627	16.4977
8.5417	16.07
8.4581	14.2297
8.3761	12.1588
8.2957	8.4662
8.2169	5.2093
8.1395	3.0879
8.0635	1.8131
7.989	1.1227
7.9158	0.7486
7.8439	0.5326
7.7734	0.604
7.7041	0.5051
7.636	0.6612
7.5691	0.6043
7.5034	0.9117
7.4388	0.8391
7.3753	1.1578
7.3129	1.4981
7.2515	1.6674
7.1912	2.0226
7.1318	2.4521
7.0734	3.0896
7.016	3.2764
6.9595	3.4509
6.9039	3.7021
6.8492	3.9182
6.7953	3.9676
6.7423	4.1984
6.6901	4.7462
6.6387	5.1319
6.5881	5.3635
6.5382	5.4218
6.4892	5.7027
6.4408	5.4158
6.3931	4.8488
6.3462	4.6239
6.2999	4.0636
6.2543	4.1239
6.2094	3.9974
6.1651	4.1558
6.1214	4.494
6.0784	4.7716
6.0359	5.1533
5.994	5.4736
5.9527	5.384
5.912	5.307
5.8718	5.4182
5.8322	5.3526
5.7931	5.1301
5.7545	4.8234
5.7165	4.8454
5.6789	4.5784
5.6418	4.2887
5.6052	4.7096
5.5691	4.7942
5.5334	5.3196
5.4982	6.6568
5.4635	7.3367
5.4291	7.7483
5.3952	8.2059
5.3618	8.6729
5.3287	9.226
5.2961	9.9926
5.2638	10.5786
5.2319	11.3601
5.2004	13.1915
5.1693	15.0573
5.1386	17.0232
5.1082	19.3641
5.0782	21.5928
5.0485	22.0324
5.0192	23.3931
4.9902	24.5305
4.9616	24.7801
4.9332	23.9907
4.9052	24.3315
4.8776	25.9773
4.8502	26.9481
4.8231	26.8327
4.7963	26.2336
4.7699	25.9655
4.7437	26.9407
4.7178	26.6652
4.6922	25.9179
4.6668	26.2204
4.6418	27.2995
4.617	28.8349
4.5924	30.384
4.5681	32.0237
4.5441	34.4759
4.5203	36.5981
4.4968	38.291
4.4735	40.33
4.4505	42.5784
4.4277	44.2976
4.4051	46.0037
4.3828	47.9101
4.3607	49.904
4.3388	51.5542
4.3171	52.9167
4.2956	53.4816
4.2744	53.5623
4.2534	55.3102
4.2325	57.8901
4.2119	60.279
4.1915	61.5885
4.1712	62.2914
4.1512	62.6612
4.1313	63.0175
4.1117	63.0126
4.0922	62.9812
4.0729	62.4738
4.0538	61.5091
4.0349	58.9953
4.0161	56.6351
3.9976	54.0967
3.9792	53.0557
3.9609	53.611
3.9428	55.5971
3.9249	56.6827
3.9072	57.5675
3.8896	57.788
3.8722	58.1349
3.8549	58.7387
3.8378	59.6317
3.8208	61.5227
3.804	63.3051
3.7873	65.7437
3.7708	66.8274
3.7544	67.3398
3.7382	67.587
3.7221	67.8035
3.7061	67.8778
3.6903	67.9681
3.6746	68.0562
3.659	67.8924
3.6436	67.8251
3.6283	67.5903
3.6131	67.2975
3.5981	66.7867
3.5832	65.7797
3.5684	64.7474
3.5537	63.9384
3.5391	62.4626
3.5247	59.3654
3.5104	55.9643
3.4962	54.5509
3.4821	53.6304
3.4681	54.0616
3.4543	54.7893
3.4405	54.3006
3.4269	53.2531
3.4133	52.1799
3.3999	52.2986
3.3866	51.8205
3.3733	51.0083
3.3602	50.4755
3.3472	49.8267
3.3343	51.5952
3.3215	51.5637
3.3088	50.8656
3.2961	50.2718
3.2836	49.3314
3.2712	48.4
3.2588	47.297
3.2466	46.1967
3.2345	45.1619
3.2224	44.0222
3.2104	42.9266
3.1985	41.7062
3.1867	40.5342
3.175	39.2464
3.1634	37.915
3.1519	36.7158
3.1404	35.3949
3.129	34.2823
3.1178	33.4175
3.1065	32.2247
3.0954	31.3958
3.0844	30.5975
3.0734	30.0637
3.0625	29.3797
3.0517	28.995
3.041	28.2903
3.0303	27.7007
3.0197	26.9874
3.0092	26.3926
2.9987	25.6333
2.9884	25.1294
2.9781	24.528
2.9678	24.1313
2.9577	23.8147
2.9476	23.3176
2.9376	23.0767
2.9276	22.8874
2.9177	23.0093
2.9079	23.2178
2.8982	23.213
2.8885	23.8344
2.8789	24.0844
2.8693	24.7117
2.8598	25.3448
2.8504	25.9923
2.841	26.5625
2.8317	27.1346
2.8224	27.5115
2.8133	27.9089
2.8041	27.8625
2.7951	26.8601
2.786	25.3593
2.7771	23.3435
2.7682	22.4098
2.7594	21.6014
2.7506	23.0959
2.7418	25.1097
2.7332	27.0627
2.7246	31.6717
2.716	38.8292
2.7075	43.5291
2.699	51.7525
2.6906	60.4127
2.6823	64.7624
2.674	67.1067
2.6657	70.4213
2.6575	70.5672
2.6494	71.4568
2.6413	72.2274
2.6332	72.6008
2.6252	72.8398
2.6173	73.4434
2.6094	73.0892
2.6015	73.3256
2.5937	74.9631
2.5859	74.4162
2.5782	74.5049
2.5706	74.742
2.5629	75.0013
2.5554	74.4362
2.5478	74.3204
2.5403	73.9671
2.5329	73.9846
2.5255	74.0063
2.5181	74.0043
2.5108	73.9604
2.5035	73.5864
2.4963	73.6371
2.4891	73.5627
2.482	73.5799
2.4749	73.7731
2.4678	73.6543
2.4608	73.6652
2.4538	73.4564
2.4468	73.4058
2.4399	73.3337
2.4331	73.5068
2.4262	74.0832
2.4194	74.6122
2.4127	75.6305
2.4059	76.0838
2.3993	76.7203
2.3926	76.8336
2.386	76.7806
2.3795	76.9833
2.3729	77.0893
2.3664	76.8843
2.36	76.598
2.3535	75.7731
2.3471	75.7064
2.3408	75.8316
2.3345	76.4507
2.3282	77.0534
2.3219	78.1279
2.3157	78.8269
2.3095	79.5547
2.3034	80.1754
2.2972	80.6081
2.2911	81.2041
2.2851	81.4344
2.279	81.5094
2.2731	81.6168
2.2671	81.5833
2.2612	81.5173
2.2553	81.0189
2.2494	81.2041
2.2435	80.9755
2.2377	80.8328
2.232	80.5235
2.2262	80.0752
2.2205	79.3111
2.2148	77.6696
2.2091	75.5969
2.2035	74.5544
2.1979	74.0248
2.1923	74.1484
2.1868	76.2927
2.1812	78.0797
2.1758	79.8276
2.1703	80.9441
2.1649	81.815
2.1595	82.2799
2.1541	82.5219
2.1487	83.0551
2.1434	83.1262
2.1381	83.3546
2.1328	83.2803
2.1275	83.5452
2.1223	83.1734
2.1171	83.4043
2.112	83.7125
2.1068	83.7001
2.1017	83.5492
2.0966	83.7952
2.0915	84.0669
2.0865	84.3463
2.0814	83.932
2.0764	84.0039
2.0715	84.0323
2.0665	84.1271
2.0616	84.3476
2.0567	84.1293
2.0518	84.2674
2.0469	83.953
2.0421	83.9046
2.0373	83.995
2.0325	83.8336
2.0277	83.6407
2.0229	83.5538
2.0182	83.4297
2.0135	83.5546
2.0088	82.9791
2.0042	82.9139
