Name: Molybdenite MoS_2
Type: Mineral
Class: Sulfide
Subclass: None
Particle Size: Fine
Sample No.: S-11A
Owner: JPL
Wavelength Range: VSWIR
Origin: Norway, Arendal, Froland
Description: Particle size was 0-45um.Collected by JPL Original ASTER Spectral Library name was jpl.beckman.mineral.sulfide.none.fine.s11a.spectrum.txt
Measurement: Hemispherical reflectance
X Units: Wavelength (micrometers)
Y Units: Reflectance (percent)
wavelength	value
0.4	9.62
0.403	9.61
0.406	9.59
0.409	9.64
0.412	9.51
0.415	9.6
0.418	9.57
0.421	9.52
0.424	9.6
0.427	9.64
0.43	9.67
0.433	9.74
0.436	9.81
0.439	9.96
0.442	9.96
0.445	9.96
0.448	10.03
0.451	10.09
0.454	10.1
0.457	10.13
0.46	10.08
0.463	9.97
0.466	9.9
0.469	9.82
0.472	9.73
0.475	9.77
0.478	9.73
0.481	9.64
0.484	9.48
0.487	9.38
0.49	9.41
0.493	9.39
0.496	9.29
0.499	9.15
0.502	9.02
0.505	9.04
0.508	9.04
0.511	8.98
0.514	8.87
0.517	8.75
0.52	8.78
0.523	8.72
0.526	8.64
0.529	8.65
0.532	8.65
0.535	8.63
0.538	8.59
0.541	8.51
0.544	8.52
0.547	8.41
0.55	8.54
0.553	8.5
0.556	8.4
0.559	8.42
0.562	8.4
0.565	8.5
0.568	8.52
0.571	8.41
0.574	8.3
0.577	8.31
0.58	8.4
0.583	8.43
0.586	8.26
0.589	8.31
0.592	8.22
0.595	8.31
0.598	8.46
0.601	8.42
0.604	8.58
0.607	8.75
0.61	8.77
0.613	8.83
0.616	8.89
0.619	8.77
0.622	8.95
0.625	8.87
0.628	8.75
0.631	8.73
0.634	8.73
0.637	8.71
0.64	8.72
0.643	8.55
0.646	8.48
0.649	8.53
0.652	8.49
0.655	8.61
0.658	8.5
0.661	8.65
0.664	8.82
0.667	9.04
0.67	9.24
0.673	9.34
0.676	9.51
0.679	9.61
0.682	9.76
0.685	9.95
0.688	9.96
0.691	10.18
0.694	10.33
0.697	10.61
0.7	10.73
0.703	11.11
0.706	11.32
0.709	11.43
0.712	11.69
0.715	11.91
0.718	12.06
0.721	12.12
0.724	12.33
0.727	12.49
0.73	12.56
0.733	12.75
0.736	12.85
0.739	12.82
0.742	12.95
0.745	13.2
0.748	13.25
0.751	13.41
0.754	13.52
0.757	13.48
0.76	13.71
0.763	13.77
0.766	14
0.769	13.98
0.772	14.04
0.775	14.16
0.778	14.24
0.781	14.32
0.784	14.52
0.787	14.68
0.79	14.72
0.793	14.93
0.796	15.01
0.799	15.27
0.808	15.74
0.82	16.25
0.832	16.75
0.844	17.39
0.856	18.11
0.868	18.99
0.88	19.89
0.892	20.95
0.904	22.04
0.916	23.08
0.928	24.18
0.94	25.35
0.952	26.27
0.964	26.98
0.976	27.59
0.988	28.12
1	28.43
1.012	28.9
1.024	29.22
1.036	29.46
1.048	29.76
1.06	30.03
1.072	30.27
1.084	30.58
1.096	30.87
1.108	31.23
1.12	31.55
1.132	31.79
1.144	32.07
1.156	32.38
1.168	32.66
1.18	32.96
1.192	33.28
1.204	33.57
1.216	33.85
1.228	34.11
1.24	34.35
1.252	34.59
1.264	34.84
1.276	35.09
1.288	35.35
1.3	35.63
1.312	35.82
1.324	36.04
1.336	36.29
1.348	36.47
1.36	36.72
1.372	36.89
1.384	37.13
1.396	37.3
1.408	37.39
1.42	37.61
1.432	37.87
1.444	38.09
1.456	38.26
1.468	38.42
1.48	38.66
1.492	38.92
1.504	39.16
1.516	39.41
1.528	39.5
1.54	39.72
1.552	39.89
1.564	40.11
1.576	40.32
1.588	40.67
1.6	40.83
1.612	41.08
1.624	41.28
1.636	41.5
1.648	41.78
1.66	42.08
1.672	42.25
1.684	42.46
1.696	42.76
1.708	43
1.72	43.26
1.732	43.51
1.744	43.69
1.756	43.86
1.768	44.06
1.78	44.25
1.792	44.44
1.804	44.63
1.816	44.75
1.828	44.94
1.84	45.11
1.852	45.23
1.864	45.41
1.876	45.51
1.888	45.6
1.9	45.62
1.912	45.69
1.924	45.76
1.936	45.9
1.948	46.03
1.96	46.27
1.972	46.41
1.984	46.68
1.996	46.93
2.008	47.11
2.02	47.21
2.032	47.44
2.044	47.64
2.056	47.77
2.068	47.92
2.08	48.08
2.092	48.22
2.104	48.32
2.116	48.53
2.128	48.66
2.14	48.71
2.152	48.72
2.164	48.74
2.176	48.81
2.188	48.76
2.2	48.82
2.212	48.86
2.224	49.09
2.236	49.12
2.248	49.26
2.26	49.33
2.272	49.44
2.284	49.45
2.296	49.46
2.308	49.57
2.32	49.75
2.332	49.77
2.344	49.86
2.356	49.9
2.368	49.85
2.38	49.85
2.392	49.85
2.404	49.91
2.416	49.94
2.428	49.93
2.44	49.92
2.452	49.97
2.464	50
2.476	49.95
2.488	50.25
2.5	50.48
