Name: Pyrophyllite Al_2Si_4O_10(OH)_2
Type: Mineral
Class: Silicate
Subclass: Phyllosilicate
Particle Size: Medium
Sample No.: PS-7A
Owner: JPL
Wavelength Range: VSWIR
Origin: USA, California
Description: Particle size was 45-125um.Collected by Ward's Original ASTER Spectral Library name was jpl.beckman.mineral.silicate.phyllosilicate.medium.ps07a.spectrum.txt
Measurement: Hemispherical reflectance
X Units: Wavelength (micrometers)
Y Units: Reflectance (percent)
wavelength	value
0.4	45.91
0.403	46.71
0.406	47.34
0.409	47.9
0.412	48.31
0.415	49.21
0.418	49.5
0.421	50.25
0.424	50.81
0.427	51.33
0.43	52.41
0.433	52.81
0.436	53.61
0.439	54.47
0.442	55.03
0.445	55.72
0.448	56.01
0.451	56.29
0.454	56.76
0.457	56.81
0.46	57.39
0.463	57.62
0.466	57.73
0.469	58.13
0.472	57.96
0.475	58.37
0.478	58.55
0.481	58.95
0.484	59.47
0.487	59.41
0.49	60.27
0.493	60.62
0.496	61.13
0.499	61.77
0.502	62.12
0.505	62.85
0.508	63.49
0.511	63.77
0.514	64.63
0.517	65.08
0.52	65.76
0.523	66.45
0.526	66.68
0.529	67.59
0.532	68.05
0.535	68.63
0.538	69.25
0.541	69.82
0.544	70.56
0.547	70.9
0.55	71.59
0.553	72.21
0.556	72.62
0.559	73.31
0.562	73.93
0.565	74.5
0.568	75.08
0.571	75.13
0.574	75.76
0.577	75.76
0.58	76.27
0.583	76.5
0.586	76.67
0.589	77.3
0.592	77.12
0.595	77.53
0.598	77.64
0.601	77.93
0.604	78.22
0.607	77.87
0.61	78.45
0.613	78.39
0.616	78.45
0.619	78.56
0.622	78.27
0.625	78.72
0.628	78.39
0.631	78.67
0.634	78.84
0.637	78.67
0.64	79.12
0.643	78.78
0.646	78.95
0.649	79.18
0.652	78.89
0.655	79.41
0.658	79.3
0.661	79.24
0.664	79.7
0.667	79.35
0.67	79.76
0.673	79.76
0.676	79.87
0.679	80.22
0.682	79.99
0.685	80.33
0.688	80.44
0.691	80.38
0.694	80.84
0.697	80.61
0.7	80.67
0.703	80.72
0.706	80.49
0.709	81.01
0.712	81.07
0.715	81.24
0.718	81.53
0.721	81.24
0.724	81.58
0.727	81.64
0.73	81.58
0.733	81.99
0.736	81.81
0.739	82.03
0.742	82.15
0.745	81.99
0.748	82.44
0.751	82.21
0.754	82.32
0.757	82.67
0.76	82.26
0.763	82.61
0.766	82.49
0.769	82.49
0.772	82.84
0.775	82.44
0.778	82.84
0.781	82.78
0.784	82.61
0.787	82.95
0.79	82.67
0.793	82.95
0.796	83.13
0.799	83.18
0.808	83.3
0.82	83.18
0.832	83.18
0.844	83.13
0.856	83.24
0.868	83.13
0.88	83.18
0.892	83.13
0.904	83.01
0.916	83.18
0.928	83.18
0.94	82.95
0.952	81.35
0.964	83.64
0.976	83.98
0.988	84.26
1	84.38
1.012	84.61
1.024	84.95
1.036	84.9
1.048	85.35
1.06	85.46
1.072	85.8
1.084	86.03
1.096	86.03
1.108	86.49
1.12	86.61
1.132	86.95
1.144	86.95
1.156	87.17
1.168	87.32
1.18	87.53
1.192	87.39
1.204	87.54
1.216	87.49
1.228	86.63
1.24	87.15
1.252	87.77
1.264	87.64
1.276	87.62
1.288	87.3
1.3	87
1.312	86.3
1.324	85.19
1.336	84.09
1.348	84.81
1.36	83.21
1.372	83.38
1.384	74.56
1.396	55.38
1.408	79.02
1.42	83.19
1.432	84.86
1.444	86.2
1.456	86.43
1.468	87.12
1.48	87.57
1.492	87.74
1.504	87.91
1.516	88.26
1.528	88.2
1.54	88.26
1.552	88.03
1.564	88.31
1.576	88.37
1.588	88.43
1.6	88.37
1.612	88.12
1.624	88.15
1.636	88.14
1.648	88.05
1.66	87.8
1.672	87.91
1.684	87.76
1.696	87.68
1.708	87.34
1.72	87.4
1.732	87.23
1.744	87.11
1.756	87.11
1.768	87.05
1.78	87.17
1.792	86.88
1.804	86.75
1.816	86.6
1.828	86.75
1.84	86.66
1.852	86.59
1.864	86.17
1.876	85.58
1.888	84.87
1.9	84.07
1.912	83.37
1.924	82.89
1.936	82.53
1.948	82.34
1.96	82.52
1.972	82.68
1.984	82.91
1.996	82.9
2.008	82.86
2.02	82.86
2.032	82.78
2.044	81.8
2.056	79.36
2.068	77.2
2.08	76.82
2.092	78.12
2.104	78.8
2.116	76.93
2.128	72.95
2.14	66.05
2.152	55
2.164	47.21
2.176	52.02
2.188	61.52
2.2	66.15
2.212	66.9
2.224	68.2
2.236	68.82
2.248	68.07
2.26	65.98
2.272	63.1
2.284	59.62
2.296	55.87
2.308	53.27
2.32	52.37
2.332	53.24
2.344	54.24
2.356	54.72
2.368	54.43
2.38	53.32
2.392	51.66
2.404	50.77
2.416	50.15
2.428	49.64
2.44	49.3
2.452	48.73
2.464	47.67
2.476	46.17
2.488	44.56
2.5	43.78
