Name: Natrolite Na2Al2Si3O10.2H2O
Type: Mineral
Class: Silicate
Subclass: Tectosilicate
Particle Size: Solid
Sample No.: natrol_1
Owner: JHU
Wavelength Range: TIR
Origin: Poonah, India via Hunt and Salisbury Collection #169B
Description: The sample appeared to be pure natrolite, although most grains were permeated with what appeared to be fluid inclusions.(Framework Silicates); (ZeoliteGroup) Original ASTER Spectral Library name was jhu.nicolet.mineral.silicate.tectosilicate.solid.natrol1.spectrum.txt
Measurement: Bidirectional reflectance
X Units: Wavelength (micrometers)
Y Units: Reflectance (percent)
wavelength	value
25.0442	16.7773
24.3388	23.6542
23.6719	32.3095
23.0407	14.6699
22.4422	13.3232
21.8741	9.1367
21.334	12.0341
20.8199	14.9536
20.33	18.186
19.8627	19.3271
19.4163	17.0356
18.9896	11.5429
18.5812	12.8193
18.19	13.6074
17.815	13.9658
17.4551	16.0283
17.1094	14.3713
16.7772	17.0815
16.4576	18.4121
16.15	23.3312
15.8537	27.4672
15.568	18.3144
15.2925	11.1311
15.0265	11.4424
14.7697	12.6821
14.5214	11.1111
14.2814	7.917
14.0492	7.3149
13.8244	7.7519
13.6067	6.7329
13.3957	7.885
13.1912	8.7524
12.9929	9.2698
12.8004	9.8703
12.6135	10.3872
12.432	10.8474
12.2557	11.3672
12.0843	11.8803
11.9176	12.4196
11.7555	12.977
11.5977	13.58
11.444	14.2458
11.2944	15.0424
11.1487	16.0122
11.0067	17.2255
10.8682	18.8449
10.7332	21.1252
10.6015	24.6142
10.473	31.5058
10.3476	45.5609
10.2251	41.6913
10.1056	51.7264
9.9887	58.3434
9.8746	50.9342
9.763	24.5544
9.6539	11.9038
9.5472	24.4526
9.4429	38.912
9.3408	36.2641
9.2409	35.0395
9.1431	45.4994
9.0474	43.9389
8.9536	49.1249
8.8618	44.2247
8.7718	37.7875
8.6837	30.6537
8.5973	22.6757
8.5126	14.4926
8.4295	7.6875
8.3481	3.2908
8.2682	1.4748
8.1898	1.2583
8.1129	1.7173
8.0374	2.272
7.9634	2.7666
7.8906	3.1948
7.8192	3.5513
7.7491	3.8564
7.6802	4.123
7.6126	4.3852
7.5461	4.637
7.4807	4.8628
7.4165	5.0764
7.3534	5.2795
7.2914	5.4543
7.2303	5.6135
7.1703	5.7519
7.1113	5.8911
7.0533	6.0183
6.9962	6.167
6.94	6.2883
6.8847	6.3974
6.8302	6.5139
6.7767	6.6094
6.7239	6.7051
6.672	6.789
6.6209	6.8779
6.5705	6.9573
6.5209	7.0722
6.4721	7.1699
6.424	7.2549
6.3766	7.3679
6.3299	7.4665
6.2838	7.5552
6.2385	7.6672
6.1937	7.812
6.1496	7.8735
6.1062	7.1855
6.0633	7.1726
6.0211	7.3508
5.9794	7.4682
5.9383	7.5351
5.8978	7.6033
5.8578	7.6797
5.8184	7.7251
5.7794	7.7878
5.741	7.8327
5.7031	7.8782
5.6657	7.9228
5.6288	7.9663
5.5924	8.0119
5.5564	8.0552
5.5209	8.0967
5.4859	8.1323
5.4513	8.1675
5.4171	8.206
5.3833	8.2629
5.35	8.311
5.3171	8.3728
5.2846	8.4372
5.2524	8.4917
5.2207	8.5229
5.1893	8.5476
5.1584	8.5798
5.1277	8.5947
5.0975	8.6084
5.0676	8.6098
5.038	8.6089
5.0088	8.6435
4.98	8.6877
4.9514	8.7285
4.9232	8.7573
4.8953	8.7761
4.8678	8.7993
4.8405	8.8254
4.8135	8.8491
4.7868	8.8725
4.7605	8.8882
4.7344	8.8869
4.7086	8.8681
4.6831	8.8154
4.6578	8.7532
4.6328	8.7468
4.6081	8.7986
4.5837	8.862
4.5595	8.9089
4.5356	8.9468
4.5119	8.9922
4.4884	9.0386
4.4652	9.1003
4.4423	9.1731
4.4196	9.2402
4.3971	9.292
4.3748	9.3301
4.3528	9.3716
4.331	9.4067
4.3094	9.4306
4.288	9.4565
4.2668	9.5141
4.2458	9.562
4.2251	9.6089
4.2045	9.6833
4.1841	9.7358
4.164	9.8044
4.144	9.8969
4.1242	9.9824
4.1046	10.0451
4.0852	10.083
4.066	10.0891
4.047	10.0649
4.0281	10.1245
4.0094	10.1704
3.9909	10.2138
3.9725	10.2602
3.9544	10.301
3.9363	10.3337
3.9185	10.3535
3.9008	10.3611
3.8833	10.3532
3.8659	10.3286
3.8487	10.2929
3.8316	10.2529
3.8147	10.2732
3.7979	10.2632
3.7813	10.2527
3.7648	10.2478
3.7485	10.2319
3.7323	10.2082
3.7162	10.1816
3.7003	10.1626
3.6845	10.1555
3.6689	10.1635
3.6534	10.185
3.638	10.2138
3.6227	10.2412
3.6076	10.2539
3.5926	10.2441
3.5777	10.2246
3.563	10.1968
3.5484	10.1706
3.5338	10.1509
3.5195	10.1357
3.5052	10.1223
3.491	10.0923
3.477	10.0703
3.463	10.0547
3.4492	10.0464
3.4355	10.0417
3.4219	10.0439
3.4084	10.0219
3.395	10.0053
3.3817	9.9975
3.3685	10.0127
3.3554	10.0151
3.3425	9.9824
3.3296	9.9782
3.3168	9.9917
3.3041	10.009
3.2915	10.0259
3.279	10.0429
3.2666	10.0625
3.2543	10.0761
3.2421	10.0957
3.23	10.1228
3.218	10.1509
3.206	10.1845
3.1942	10.2212
3.1824	10.2524
3.1707	10.2632
3.1591	10.2383
3.1476	10.1653
3.1362	10.0898
3.1249	10.0722
3.1136	10.0727
3.1024	10.0559
3.0913	10.0598
3.0803	10.1245
3.0694	10.2217
3.0585	10.3271
3.0477	10.4658
3.037	10.625
3.0264	10.7695
3.0158	10.6382
3.0053	9.8271
2.9949	9.1313
2.9845	9.0576
2.9743	9.1821
2.9641	9.2993
2.9539	9.3696
2.9439	9.3984
2.9339	9.4262
2.9239	9.476
2.9141	9.5371
2.9043	9.5998
2.8946	9.6548
2.8849	9.6819
2.8753	9.7351
2.8658	9.8755
2.8563	10.125
2.8469	10.4695
2.8375	10.834
2.8282	10.3928
2.819	8.143
2.8098	7.6555
2.8007	7.9836
2.7917	8.2685
2.7827	8.4726
2.7738	8.6145
2.7649	8.7126
2.7561	8.7759
2.7473	8.8667
2.7386	8.9292
2.7299	9.032
2.7213	9.1399
2.7128	9.3137
2.7043	9.4895
2.6959	9.6167
2.6875	9.7021
2.6791	9.7239
2.6709	9.7375
2.6626	9.8457
2.6545	9.9126
2.6463	9.9404
2.6382	9.9826
2.6302	10.0425
2.6222	10.1504
2.6143	10.1992
2.6064	10.1584
2.5986	10.0942
2.5908	10.001
2.583	10.0049
2.5753	10.1562
2.5677	10.3498
2.5601	10.5468
2.5525	10.7405
2.545	10.895
2.5375	10.9905
2.5301	11.0481
2.5227	11.0969
2.5154	11.1352
2.5081	11.1809
2.5008	11.1994
2.4936	11.1408
2.4864	11.0019
2.4793	10.8154
2.4722	10.6259
2.4651	10.5005
2.4581	10.5122
2.4511	10.549
2.4442	10.4873
2.4373	10.3645
2.4305	10.3069
2.4236	10.3918
2.4169	10.5891
2.4101	10.8442
2.4034	11.1128
2.3967	11.3252
2.3901	11.4465
2.3835	11.5107
2.377	11.5852
2.3704	11.6926
2.364	11.8257
2.3575	11.9336
2.3511	12.0129
2.3447	12.0871
2.3384	12.1992
2.3321	12.3166
2.3258	12.4189
2.3195	12.511
2.3133	12.6028
2.3071	12.6718
2.301	12.6985
2.2949	12.6819
2.2888	12.6347
2.2828	12.5703
2.2767	12.5266
2.2708	12.5556
2.2648	12.6245
2.2589	12.6884
2.253	12.7197
2.2471	12.7133
2.2413	12.6767
2.2355	12.6279
2.2297	12.5449
2.224	12.4282
2.2183	12.2778
2.2126	12.0986
2.207	11.9077
2.2013	11.7934
2.1957	11.7793
2.1902	11.8662
2.1846	12.0078
2.1791	12.1152
2.1736	12.1548
2.1682	12.1533
2.1628	12.1631
2.1574	12.1875
2.152	12.2265
2.1466	12.2622
2.1413	12.2949
2.136	12.2973
2.1308	12.2783
2.1255	12.2314
2.1203	12.1787
2.1151	12.1025
2.11	11.998
2.1048	11.8593
2.0997	11.7133
2.0946	11.5825
2.0895	11.4868
2.0845	11.4477
2.0795	11.4594
