Name: Spodumene LiAlSi2O6
Type: Mineral
Class: Silicate
Subclass: Inosilicate
Particle Size: Fine
Sample No.: spodum_1
Owner: JHU
Wavelength Range: TIR
Origin: Anita Mine, Pala Chief Hill, Pala, San Diego Co., California, USAvia the Smithsonian (sample no. NMNH 12430-1)
Description: The hand sample was 3 cm x 1 cm x 1 cm, transparent, with a small amount of iron staining.  No foreign material was noted under the microscope.(Framework silicates); Pyroxene GroupParticle size was Less than 2 Micrometers.  Original ASTER Spectral Library name was jhu.nicolet.mineral.silicate.inosilicate.powder.spodum1.spectrum.txt
Measurement: Transmission
X Units: Wavelength (micrometers)
Y Units: Transmittance (percent)
wavelength	value
25.0442	53.8749
24.3388	66.3631
23.6719	64.0701
23.0407	57.3045
22.4422	47.1346
21.8741	36.289
21.334	24.7753
20.8199	20.6914
20.33	21.0468
19.8627	24.0839
19.4163	31.6523
18.9896	38.7187
18.5812	38.5858
18.19	47.9237
17.815	54.9891
17.4551	51.6815
17.1094	40.8017
16.7772	38.1425
16.4576	49.1805
16.15	55.2469
15.8537	48.7811
15.568	38.3866
15.2925	51.8612
15.0265	63.1795
14.7697	68.9168
14.5214	71.3524
14.2814	72.2762
14.0492	72.6277
13.8244	73.4432
13.6067	74.3494
13.3957	74.908
13.1912	75.9124
12.9929	76.6189
12.8004	76.8108
12.6135	77.5379
12.432	77.8343
12.2557	77.7229
12.0843	75.9124
11.9176	71.3748
11.7555	62.41
11.5977	51.3622
11.444	52.3265
11.2944	44.7347
11.1487	35.1942
11.0067	27.3027
10.8682	22.727
10.7332	27.6347
10.6015	35.5312
10.473	38.5707
10.3476	42.0097
10.2251	40.7763
10.1056	36.9189
9.9887	29.7861
9.8746	18.9716
9.763	10.2607
9.6539	8.6855
9.5472	13.8564
9.4429	19.0571
9.3408	18.8793
9.2409	16.4414
9.1431	15.6396
9.0474	19.08
8.9536	18.3754
8.8618	17.622
8.7718	19.747
8.6837	26.1977
8.5973	37.3153
8.5126	48.5384
8.4295	57.8006
8.3481	65.7645
8.2682	72.3758
8.1898	77.1778
8.1129	80.3428
8.0374	82.5105
7.9634	84.0379
7.8906	85.0642
7.8192	85.958
7.7491	86.6582
7.6802	87.1619
7.6126	87.5447
7.5461	87.8682
7.4807	88.2107
7.4165	88.4004
7.3534	88.5371
7.2914	88.5908
7.2303	88.6729
7.1703	88.5127
7.1113	88.4278
7.0533	88.4961
6.9962	88.6145
6.94	88.7693
6.8847	88.9463
6.8302	89.3118
6.7767	90.0047
6.7239	90.5193
6.672	90.7686
6.6209	90.8535
6.5705	91.0281
6.5209	90.9502
6.4721	90.5625
6.424	90.2029
6.3766	89.7344
6.3299	89.1414
6.2838	88.3828
6.2385	87.4873
6.1937	86.4395
6.1496	86.055
6.1062	85.9346
6.0633	86.6885
6.0211	88.2725
5.9794	89.544
5.9383	91.1035
5.8978	92.0105
5.8578	92.5222
5.8184	92.9688
5.7794	93.1309
5.741	93.3379
5.7031	93.4658
5.6657	93.5203
5.6288	93.6126
5.5924	93.5586
5.5564	93.6152
5.5209	93.7668
5.4859	93.917
5.4513	94.1094
5.4171	94.241
5.3833	94.241
5.35	94.3503
5.3171	94.4883
5.2846	94.6338
5.2524	94.8867
5.2207	94.9717
5.1893	95.0896
5.1584	95.2061
5.1277	95.2488
5.0975	95.2842
5.0676	95.332
5.038	95.3171
5.0088	95.3235
4.98	95.3733
4.9514	95.4368
4.9232	95.428
4.8953	95.4299
4.8678	95.4324
4.8405	95.4958
4.8135	95.4773
4.7868	95.4939
4.7605	95.5295
4.7344	95.6252
4.7086	95.6467
4.6831	95.6765
4.6578	95.6638
4.6328	95.7063
4.6081	95.7708
4.5837	95.8533
4.5595	95.8357
4.5356	95.8381
4.5119	95.8538
4.4884	95.9431
4.4652	96.01
4.4423	95.988
4.4196	96.1042
4.3971	96.0842
4.3748	96.2224
4.3528	96.2234
4.331	96.3079
4.3094	96.2932
4.288	96.3538
4.2668	96.3894
4.2458	96.4324
4.2251	96.5002
4.2045	96.4905
4.1841	96.5085
4.164	96.5608
4.144	96.5583
4.1242	96.6023
4.1046	96.6218
4.0852	96.6409
4.066	96.6663
4.047	96.7449
4.0281	96.719
4.0094	96.6999
3.9909	96.7009
3.9725	96.6428
3.9544	96.7068
3.9363	96.7771
3.9185	96.8396
3.9008	96.7937
3.8833	96.7888
3.8659	96.7034
3.8487	96.7756
3.8316	96.7507
3.8147	96.7624
3.7979	96.7048
3.7813	96.7185
3.7648	96.5779
3.7485	96.6291
3.7323	96.5002
3.7162	96.4275
3.7003	96.3464
3.6845	96.2952
3.6689	96.2385
3.6534	96.2366
3.638	96.1545
3.6227	96.0544
3.6076	95.906
3.5926	95.8186
3.5777	95.7068
3.563	95.6404
3.5484	95.5017
3.5338	95.2971
3.5195	94.9006
3.5052	93.9724
3.491	94.3152
3.477	94.2029
3.463	94.0486
3.4492	93.739
3.4355	93.2444
3.4219	92.2712
3.4084	92.3753
3.395	92.8557
3.3817	92.7268
3.3685	92.9119
3.3554	93.0022
3.3425	92.8591
3.3296	92.6873
3.3168	92.4802
3.3041	92.303
3.2915	92.0393
3.279	91.7537
3.2666	91.449
3.2543	91.0281
3.2421	90.6609
3.23	90.28
3.218	90.0007
3.206	89.5193
3.1942	89.0818
3.1824	88.698
3.1707	88.281
3.1591	87.7927
3.1476	87.198
3.1362	86.699
3.1249	86.0535
3.1136	85.5115
3.1024	85.0486
3.0913	84.5174
3.0803	84.0291
3.0694	83.5681
3.0585	83.1638
3.0477	82.8201
3.037	82.2224
3.0264	81.617
3.0158	80.7752
3.0053	79.9392
2.9949	79.0945
2.9845	78.2693
2.9743	77.2674
2.9641	76.1053
2.9539	75.5203
2.9439	75.2264
2.9339	75.0945
2.9239	74.8328
2.9141	74.9295
2.9043	75.3943
2.8946	76.0936
2.8849	76.9607
2.8753	77.8172
2.8658	78.7625
2.8563	79.8875
2.8469	80.8289
2.8375	81.6531
2.8282	82.5594
2.819	83.4695
2.8098	84.3201
2.8007	85.3904
2.7917	86.8279
2.7827	88.2849
2.7738	89.7927
2.7649	91.3181
2.7561	92.8015
2.7473	94.2849
2.7386	95.614
2.7299	96.6726
2.7213	97.5046
2.7128	98.1482
2.7043	98.238
2.6959	98.5935
2.6875	98.7976
2.6791	98.9812
2.6709	99.0437
2.6626	99.2351
2.6545	99.071
2.6463	99.0896
2.6382	99.1228
2.6302	99.2126
2.6222	99.1833
2.6143	99.1951
2.6064	99.1599
2.5986	99.197
2.5908	99.3982
2.583	99.4412
2.5753	99.2517
2.5677	99.238
2.5601	99.3982
2.5525	99.3806
2.545	99.449
2.5375	99.3826
2.5301	99.488
2.5227	99.3669
2.5154	99.5271
2.5081	99.5896
2.5008	99.7146
2.4936	99.6716
2.4864	99.6267
2.4793	99.7361
2.4722	99.6169
2.4651	99.6794
2.4581	99.7966
2.4511	99.8064
2.4442	99.7497
2.4373	100.025
2.4305	99.9841
2.4236	99.8669
2.4169	99.7068
2.4101	100.031
2.4034	100.173
2.3967	100.04
2.3901	100.152
2.3835	100.343
2.377	100.218
2.3704	100.22
2.364	100.304
2.3575	100.351
2.3511	100.394
2.3447	100.39
2.3384	100.374
2.3321	100.447
2.3258	100.534
2.3195	100.509
2.3133	100.667
2.3071	100.757
2.301	100.648
2.2949	100.726
2.2888	100.845
2.2828	100.767
2.2767	100.765
2.2708	100.999
2.2648	100.96
2.2589	100.995
2.253	101.07
2.2471	101.234
2.2413	101.023
2.2355	101.335
2.2297	101.281
2.224	100.999
2.2183	101.308
2.2126	101.249
2.207	101.273
2.2013	101.976
2.1957	101.8
2.1902	101.613
2.1846	101.757
2.1791	101.503
2.1736	101.937
2.1682	101.913
2.1628	101.925
2.1574	102.066
2.152	102.238
2.1466	101.999
2.1413	102.144
2.136	102.093
2.1308	102.066
2.1255	102.034
2.1203	102.519
2.1151	102.452
2.11	102.241
2.1048	102.632
2.0997	102.722
2.0946	102.718
2.0895	102.769
2.0845	102.765
2.0795	102.312
