Name: Orthoclase KAlSi3O8
Type: Mineral
Class: Silicate
Subclass: Tectosilicate
Particle Size: Coarse
Sample No.: orthocl_3
Owner: JHU
Wavelength Range: TIR
Origin: Harris Farm Mica Mine, near Oliver, Goochland Co., Virginiavia the Smithsonian (sample no. NMNH 113188)
Description: The hand sample is a single 11.97 g fragment of a single crystal.  It is twinned, translucent, light beige in color and appears very pure. Under the microscope, the sample is slightly altered to sericite, otherwise pure. Particle size was 75 - 250 Micrometers.(Framework Silicates); (Feldspar Group) Original ASTER Spectral Library name was jhu.nicolet.mineral.silicate.tectosilicate.coarse.orthoc3.spectrum.txt
Measurement: Bidirectional reflectance
X Units: Wavelength (micrometers)
Y Units: Reflectance (percent)
wavelength	value
25.0442	5.1567
24.3388	5.2541
23.6719	5.9219
23.0407	6.6274
22.4422	6.207
21.8741	4.6675
21.334	3.2832
20.8199	2.6894
20.33	2.0996
19.8627	2.428
19.4163	2.6863
18.9896	2.9619
18.5812	3.5979
18.19	3.4126
17.815	3.373
17.4551	4.0603
17.1094	4.8557
16.7772	5.5198
16.4576	5.4827
16.15	3.9683
15.8537	2.6816
15.568	2.6553
15.2925	2.2908
15.0265	2.0061
14.7697	2.1631
14.5214	2.3379
14.2814	2.5032
14.0492	2.6189
13.8244	2.5542
13.6067	2.3726
13.3957	2.2964
13.1912	2.3181
12.9929	2.2915
12.8004	2.1484
12.6135	2.1079
12.432	2.1184
12.2557	2.3547
12.0843	2.5679
11.9176	2.6804
11.7555	2.7419
11.5977	2.8379
11.444	2.9009
11.2944	2.9651
11.1487	3.0322
11.0067	3.1511
10.8682	3.2966
10.7332	3.4509
10.6015	3.6799
10.473	3.9683
10.3476	4.3801
10.2251	4.8826
10.1056	5.4785
9.9887	6.1452
9.8746	6.7619
9.763	7.134
9.6539	7.7368
9.5472	8.4814
9.4429	8.8567
9.3408	7.3432
9.2409	6.6057
9.1431	6.3977
9.0474	6.3398
8.9536	6.3249
8.8618	6.947
8.7718	7.9299
8.6837	8.4201
8.5973	8.3596
8.5126	8.123
8.4295	8.0298
8.3481	7.812
8.2682	6.7283
8.1898	5.2126
8.1129	3.6792
8.0374	2.3203
7.9634	1.2302
7.8906	0.5264
7.8192	0.2922
7.7491	0.3311
7.6802	0.4402
7.6126	0.5593
7.5461	0.6597
7.4807	0.7454
7.4165	0.8332
7.3534	0.9087
7.2914	0.9832
7.2303	1.0642
7.1703	1.1553
7.1113	1.2507
7.0533	1.3179
6.9962	1.3643
6.94	1.406
6.8847	1.4434
6.8302	1.4543
6.7767	1.4875
6.7239	1.5269
6.672	1.5598
6.6209	1.6011
6.5705	1.5969
6.5209	1.6133
6.4721	1.5881
6.424	1.552
6.3766	1.5168
6.3299	1.4927
6.2838	1.49
6.2385	1.491
6.1937	1.5261
6.1496	1.5757
6.1062	1.6326
6.0633	1.6746
6.0211	1.7165
5.9794	1.7615
5.9383	1.7454
5.8978	1.7415
5.8578	1.6982
5.8184	1.6387
5.7794	1.6172
5.741	1.582
5.7031	1.5535
5.6657	1.5244
5.6288	1.5322
5.5924	1.5659
5.5564	1.6274
5.5209	1.7183
5.4859	1.8315
5.4513	1.9311
5.4171	2.0378
5.3833	2.1289
5.35	2.2231
5.3171	2.3213
5.2846	2.448
5.2524	2.6411
5.2207	2.9204
5.1893	3.2607
5.1584	3.6494
5.1277	4.0766
5.0975	4.5239
5.0676	4.947
5.038	5.2905
5.0088	5.4941
4.98	5.5251
4.9514	5.4082
4.9232	5.2375
4.8953	5.1216
4.8678	5.051
4.8405	5.0513
4.8135	5.0578
4.7868	5.0713
4.7605	5.0937
4.7344	5.0969
4.7086	5.0942
4.6831	5.1001
4.6578	5.1921
4.6328	5.3415
4.6081	5.5671
4.5837	5.8486
4.5595	6.1941
4.5356	6.551
4.5119	6.8933
4.4884	7.2273
4.4652	7.5796
4.4423	7.9197
4.4196	8.2644
4.3971	8.583
4.3748	8.9165
4.3528	9.2475
4.331	9.5683
4.3094	9.8965
4.288	10.1889
4.2668	10.4375
4.2458	10.6518
4.2251	10.8213
4.2045	10.9453
4.1841	11.0354
4.164	11.0884
4.144	11.1313
4.1242	11.1509
4.1046	11.1762
4.0852	11.1997
4.066	11.206
4.047	11.2212
4.0281	11.2534
4.0094	11.2993
3.9909	11.3222
3.9725	11.3574
3.9544	11.4008
3.9363	11.4267
3.9185	11.4768
3.9008	11.508
3.8833	11.5476
3.8659	11.5769
3.8487	11.6135
3.8316	11.6543
3.8147	11.6985
3.7979	11.718
3.7813	11.7558
3.7648	11.7697
3.7485	11.7793
3.7323	11.8
3.7162	11.8078
3.7003	11.8127
3.6845	11.8132
3.6689	11.8091
3.6534	11.791
3.638	11.7846
3.6227	11.7651
3.6076	11.7475
3.5926	11.7148
3.5777	11.6826
3.563	11.6408
3.5484	11.6037
3.5338	11.5468
3.5195	11.509
3.5052	11.4624
3.491	11.4319
3.477	11.4182
3.463	11.3745
3.4492	11.3288
3.4355	11.2705
3.4219	11.2082
3.4084	11.1535
3.395	11.1054
3.3817	11.0515
3.3685	10.9983
3.3554	10.9145
3.3425	10.8469
3.3296	10.782
3.3168	10.6936
3.3041	10.6128
3.2915	10.5449
3.279	10.4861
3.2666	10.4099
3.2543	10.3645
3.2421	10.32
3.23	10.3008
3.218	10.2715
3.206	10.2317
3.1942	10.1977
3.1824	10.1533
3.1707	10.0979
3.1591	10.0412
3.1476	9.9756
3.1362	9.9118
3.1249	9.8813
3.1136	9.8427
3.1024	9.8027
3.0913	9.7668
3.0803	9.7368
3.0694	9.7168
3.0585	9.6767
3.0477	9.656
3.037	9.6511
3.0264	9.6582
3.0158	9.6501
3.0053	9.645
2.9949	9.6789
2.9845	9.695
2.9743	9.7114
2.9641	9.6706
2.9539	9.6587
2.9439	9.6489
2.9339	9.6281
2.9239	9.6323
2.9141	9.6208
2.9043	9.6599
2.8946	9.7099
2.8849	9.7878
2.8753	9.8337
2.8658	9.9126
2.8563	10.0044
2.8469	10.0991
2.8375	10.1548
2.8282	10.2302
2.819	10.3088
2.8098	10.3899
2.8007	10.4856
2.7917	10.5344
2.7827	10.5879
2.7738	10.6438
2.7649	10.719
2.7561	10.8083
2.7473	10.9944
2.7386	11.1123
2.7299	11.2522
2.7213	11.4243
2.7128	11.5783
2.7043	11.6408
2.6959	11.81
2.6875	11.9126
2.6791	11.9865
2.6709	12.0344
2.6626	12.0747
2.6545	12.1125
2.6463	12.0776
2.6382	12.0722
2.6302	12.0771
2.6222	12.0783
2.6143	12.0913
2.6064	12.0634
2.5986	12.0532
2.5908	12.0495
2.583	12.0446
2.5753	12.0354
2.5677	11.9919
2.5601	12.0175
2.5525	11.978
2.545	11.9651
2.5375	11.9736
2.5301	11.9716
2.5227	11.9131
2.5154	11.9199
2.5081	11.9106
2.5008	11.9228
2.4936	11.8706
2.4864	11.8337
2.4793	11.8462
2.4722	11.8281
2.4651	11.8086
2.4581	11.8154
2.4511	11.7851
2.4442	11.7339
2.4373	11.7549
2.4305	11.749
2.4236	11.7221
2.4169	11.7378
2.4101	11.729
2.4034	11.7168
2.3967	11.6245
2.3901	11.6782
2.3835	11.6482
2.377	11.6479
2.3704	11.6308
2.364	11.5825
2.3575	11.5503
2.3511	11.5822
2.3447	11.5722
2.3384	11.5393
2.3321	11.5136
2.3258	11.4973
2.3195	11.4709
2.3133	11.4846
2.3071	11.4821
2.301	11.4489
2.2949	11.4809
2.2888	11.4155
2.2828	11.4228
2.2767	11.3938
2.2708	11.3855
2.2648	11.406
2.2589	11.3818
2.253	11.33
2.2471	11.3352
2.2413	11.3506
2.2355	11.3427
2.2297	11.2942
2.224	11.2832
2.2183	11.3051
2.2126	11.2905
2.207	11.2695
2.2013	11.2697
2.1957	11.2885
2.1902	11.2954
2.1846	11.2434
2.1791	11.2746
2.1736	11.2834
2.1682	11.2378
2.1628	11.2932
2.1574	11.2876
2.152	11.2863
2.1466	11.2324
2.1413	11.2612
2.136	11.271
2.1308	11.2766
2.1255	11.2651
2.1203	11.299
2.1151	11.2636
2.11	11.2951
2.1048	11.2756
2.0997	11.2649
2.0946	11.3159
2.0895	11.2981
2.0845	11.3086
2.0795	11.3186
