Name: Gibbsite Al(OH)_3
Type: Mineral
Class: Hydroxide
Subclass: None
Particle Size: Fine
Sample No.: OH-3A
Owner: JPL
Wavelength Range: VSWIR
Description: Synthetic gibbsite. Particle size was 0-45 um.Collected by JPL Original ASTER Spectral Library name was jpl.beckman.mineral.hydroxide.none.fine.oh03a.spectrum.txt
Measurement: Hemispherical reflectance
X Units: Wavelength (micrometers)
Y Units: Reflectance (percent)
wavelength	value
0.4	92.19
0.403	92.34
0.406	92.34
0.409	92.59
0.412	92.59
0.415	92.65
0.418	92.65
0.421	92.71
0.424	92.83
0.427	92.83
0.43	92.83
0.433	92.71
0.436	93.06
0.439	93
0.442	93.18
0.445	93.24
0.448	93.06
0.451	93.18
0.454	93.19
0.457	93.5
0.46	93.45
0.463	93.27
0.466	93.4
0.469	93.4
0.472	93.64
0.475	93.53
0.478	93.6
0.481	93.6
0.484	93.68
0.487	93.74
0.49	93.75
0.493	93.87
0.496	93.81
0.499	93.82
0.502	93.88
0.505	94.05
0.508	93.88
0.511	94
0.514	93.94
0.517	94.11
0.52	94.11
0.523	94.29
0.526	94.29
0.529	94.29
0.532	94.29
0.535	94.17
0.538	94.47
0.541	94.35
0.544	94.41
0.547	94.41
0.55	94.53
0.553	94.52
0.556	94.76
0.559	94.77
0.562	94.99
0.565	94.93
0.568	95.04
0.571	94.81
0.574	94.58
0.577	94.71
0.58	94.59
0.583	94.65
0.586	94.65
0.589	94.53
0.592	94.59
0.595	94.65
0.598	94.83
0.601	94.94
0.604	94.93
0.607	94.75
0.61	94.87
0.613	94.87
0.616	94.75
0.619	94.69
0.622	94.87
0.625	94.81
0.628	94.87
0.631	94.69
0.634	94.75
0.637	94.81
0.64	94.81
0.643	94.69
0.646	94.81
0.649	94.81
0.652	94.93
0.655	94.81
0.658	94.75
0.661	94.75
0.664	94.87
0.667	94.81
0.67	94.92
0.673	94.81
0.676	94.81
0.679	94.87
0.682	94.92
0.685	94.93
0.688	94.87
0.691	94.81
0.694	94.63
0.697	94.87
0.7	94.64
0.703	94.81
0.706	94.93
0.709	94.75
0.712	94.81
0.715	94.75
0.718	94.81
0.721	94.75
0.724	94.69
0.727	94.58
0.73	94.63
0.733	94.58
0.736	94.46
0.739	94.52
0.742	94.46
0.745	94.34
0.748	94.29
0.751	94.23
0.754	94.34
0.757	94.23
0.76	94.06
0.763	93.94
0.766	93.94
0.769	94.17
0.772	94.23
0.775	94.29
0.778	94.29
0.781	94.4
0.784	94.4
0.787	94.46
0.79	94.57
0.793	94.57
0.796	94.57
0.799	94.46
0.808	94.65
0.82	94.65
0.832	94.71
0.844	94.65
0.856	94.59
0.868	94.53
0.88	94.29
0.892	93.93
0.904	93.52
0.916	93.16
0.928	92.87
0.94	92.5
0.952	91.19
0.964	89.34
0.976	89.17
0.988	88.69
1	88.16
1.012	91.97
1.024	93.1
1.036	93.52
1.048	93.69
1.06	93.75
1.072	93.82
1.084	93.7
1.096	93.65
1.108	93.37
1.12	93.24
1.132	92.94
1.144	92.63
1.156	92.26
1.168	91.94
1.18	91.62
1.192	91.29
1.204	91.18
1.216	90.66
1.228	89.45
1.24	87.76
1.252	85.3
1.264	81.84
1.276	80.87
1.288	80.91
1.3	79.11
1.312	78.68
1.324	79.23
1.336	79.42
1.348	79.83
1.36	79.08
1.372	76.42
1.384	71.41
1.396	55.82
1.408	55.49
1.42	49.38
1.432	44.87
1.444	41.47
1.456	43.21
1.468	55.33
1.48	61.56
1.492	62.73
1.504	60.09
1.516	53.59
1.528	56.05
1.54	53.32
1.552	53.51
1.564	59.85
1.576	63.19
1.588	65.56
1.6	68.46
1.612	70.69
1.624	72.4
1.636	73.6
1.648	74.42
1.66	75.21
1.672	75.92
1.684	76.27
1.696	76.66
1.708	77.11
1.72	77.19
1.732	76.97
1.744	76.66
1.756	76.09
1.768	74.67
1.78	72.48
1.792	70.97
1.804	69.75
1.816	67.72
1.828	66.66
1.84	66.18
1.852	65.6
1.864	65.56
1.876	64.94
1.888	64.16
1.9	63.84
1.912	63.43
1.924	62.76
1.936	61.97
1.948	61.19
1.96	60.35
1.972	59.75
1.984	59.17
1.996	58.5
2.008	57.82
2.02	57.29
2.032	56.79
2.044	56.57
2.056	56.04
2.068	55.59
2.08	55.27
2.092	55.08
2.104	54.68
2.116	53.16
2.128	51.19
2.14	49.01
2.152	45.53
2.164	41.26
2.176	37.82
2.188	35.05
2.2	31.8
2.212	29.36
2.224	27.22
2.236	23.04
2.248	18.13
2.26	15.26
2.272	15.83
2.284	17.93
2.296	19.69
2.308	20.34
2.32	21.14
2.332	21.59
2.344	21.09
2.356	20.29
2.368	20.33
2.38	20.66
2.392	21.1
2.404	21.91
2.416	22.86
2.428	23.78
2.44	24.69
2.452	25.33
2.464	25.31
2.476	24.65
2.488	23.97
2.5	23.55
