Name: Johannsenite Ca(Mn,Fe^2+)(SiO_3)_2
Type: Mineral
Class: Silicate
Subclass: Inosilicate
Particle Size: Fine
Sample No.: IN-12A
Owner: JPL
Wavelength Range: TIR
Origin: USA, Arizona, Graham County, Aravaipa
Description: Particle size was 0-45um.Collected by Burminco Original ASTER Spectral Library name was jpl.nicolet.mineral.silicate.inosilicate.fine.in12a.spectrum.txt
Measurement: Hemispherical reflectance
X Units: Wavelength (micrometers)
Y Units: Reflectance (percent)
wavelength	value
15.3853	2.9675
15.1161	3.118
14.8563	2.6175
14.6052	3.6213
14.3624	4.343
14.1276	5.4218
13.9004	6.0569
13.6803	7.0508
13.4671	7.3502
13.2604	7.399
13.06	7.6325
12.8656	7.306
12.6769	7.3622
12.4936	7.3716
12.3155	7.3364
12.1425	7.1871
11.9742	7.1892
11.8106	7.8461
11.6513	8.4403
11.4963	8.0776
11.3454	7.8858
11.1983	8.2411
11.0551	7.6288
10.9154	7.0745
10.7793	6.0084
10.6465	6.5077
10.5169	6.3854
10.3904	5.383
10.267	3.8485
10.1464	3.265
10.0287	3.439
9.9136	3.7335
9.8012	3.672
9.6913	4.2124
9.5838	4.8897
9.4787	6.1222
9.3758	6.728
9.2752	6.6283
9.1767	6.6197
9.0803	6.741
8.9858	6.8601
8.8934	5.7685
8.8028	4.3231
8.714	3.3598
8.627	2.8806
8.5417	2.9291
8.4581	3.144
8.3761	3.1728
8.2957	3.5299
8.2169	3.5854
8.1395	4.2652
8.0635	4.7345
7.989	6.2589
7.9158	8.2536
7.8439	10.3557
7.7734	12.0077
7.7041	13.278
7.636	13.4382
7.5691	13.5089
7.5034	14.2187
7.4388	14.458
7.3753	13.9743
7.3129	12.7395
7.2515	11.9357
7.1912	10.668
7.1318	9.6821
7.0734	9.1453
7.016	8.5622
6.9595	8.3901
6.9039	8.1303
6.8492	8.1063
6.7953	8.2583
6.7423	8.4422
6.6901	9.2538
6.6387	10.1475
6.5881	11.0984
6.5382	12.3846
6.4892	14.3021
6.4408	15.6456
6.3931	16.1729
6.3462	16.5663
6.2999	16.1812
6.2543	15.4131
6.2094	13.5545
6.1651	11.5119
6.1214	10.9921
6.0784	11.5034
6.0359	12.985
5.994	15.7592
5.9527	18.5656
5.912	21.6916
5.8718	24.9612
5.8322	27.7337
5.7931	29.7262
5.7545	31.3585
5.7165	32.6524
5.6789	33.2615
5.6418	34.0057
5.6052	31.6683
5.5691	27.4495
5.5334	31.9998
5.4982	33.4696
5.4635	32.8599
5.4291	32.3755
5.3952	31.827
5.3618	31.1945
5.3287	31.1478
5.2961	31.8473
5.2638	32.7849
5.2319	33.0487
5.2004	32.5464
5.1693	31.1889
5.1386	29.9119
5.1082	29.7542
5.0782	30.9357
5.0485	32.0393
5.0192	32.7283
4.9902	33.0373
4.9616	33.3938
4.9332	33.5996
4.9052	34.1988
4.8776	34.9009
4.8502	35.6602
4.8231	36.735
4.7963	37.6383
4.7699	38.4457
4.7437	38.8939
4.7178	39.3223
4.6922	39.3845
4.6668	39.6084
4.6418	40.4913
4.617	41.07
4.5924	41.4755
4.5681	41.9409
4.5441	42.3031
4.5203	42.4597
4.4968	42.6228
4.4735	42.7683
4.4505	42.9733
4.4277	43.1671
4.4051	43.3592
4.3828	43.4789
4.3607	43.8445
4.3388	44.0696
4.3171	44.3722
4.2956	44.5621
4.2744	44.5819
4.2534	45.2219
4.2325	45.3333
4.2119	45.7549
4.1915	46.1637
4.1712	46.4018
4.1512	46.5886
4.1313	46.6846
4.1117	46.7731
4.0922	46.634
4.0729	46.4832
4.0538	45.7586
4.0349	44.1536
4.0161	42.2131
3.9976	39.6906
3.9792	37.8466
3.9609	38.2246
3.9428	40.8282
3.9249	41.8009
3.9072	42.0572
3.8896	41.8976
3.8722	41.7147
3.8549	41.469
3.8378	41.3992
3.8208	41.7169
3.804	41.9751
3.7873	41.8541
3.7708	41.4043
3.7544	40.9201
3.7382	40.3866
3.7221	39.6893
3.7061	38.9913
3.6903	38.425
3.6746	37.7964
3.659	37.0539
3.6436	36.3967
3.6283	35.6513
3.6131	34.7852
3.5981	34.2272
3.5832	33.3762
3.5684	32.5859
3.5537	31.7293
3.5391	30.9224
3.5247	29.7795
3.5104	28.51
3.4962	27.643
3.4821	26.621
3.4681	26.384
3.4543	26.1558
3.4405	25.5734
3.4269	24.828
3.4133	24.3401
3.3999	23.6792
3.3866	23.2132
3.3733	22.5553
3.3602	21.9658
3.3472	21.374
3.3343	21.3076
3.3215	20.9706
3.3088	20.5255
3.2961	19.9312
3.2836	19.6004
3.2712	19.0742
3.2588	18.6352
3.2466	18.1139
3.2345	17.7416
3.2224	17.3922
3.2104	16.9432
3.1985	16.4722
3.1867	16.1244
3.175	15.7765
3.1634	15.3854
3.1519	14.9144
3.1404	14.729
3.129	14.4401
3.1178	14.1672
3.1065	13.802
3.0954	13.5792
3.0844	13.5458
3.0734	13.3803
3.0625	13.2976
3.0517	13.1627
3.041	13.2606
3.0303	13.0261
3.0197	12.799
3.0092	12.7684
2.9987	12.4872
2.9884	12.5701
2.9781	12.5069
2.9678	12.2131
2.9577	12.2939
2.9476	12.1327
2.9376	12.1543
2.9276	12.1847
2.9177	12.3572
2.9079	12.4068
2.8982	12.4414
2.8885	12.479
2.8789	12.813
2.8693	12.9386
2.8598	13.3024
2.8504	13.4046
2.841	13.5034
2.8317	13.9229
2.8224	13.4788
2.8133	13.4871
2.8041	14.0754
2.7951	14.6545
2.786	15.6599
2.7771	16.3882
2.7682	17.6219
2.7594	18.6639
2.7506	20.4535
2.7418	23.5214
2.7332	27.1301
2.7246	32.046
2.716	36.4619
2.7075	41.7703
2.699	46.1676
2.6906	49.5863
2.6823	52.2673
2.674	54.1787
2.6657	56.7704
2.6575	56.9753
2.6494	57.7522
2.6413	58.3889
2.6332	58.9506
2.6252	59.5175
2.6173	60.151
2.6094	60.143
2.6015	60.269
2.5937	61.0444
2.5859	60.6243
2.5782	60.4849
2.5706	60.6355
2.5629	60.9533
2.5554	60.4815
2.5478	60.4538
2.5403	60.2393
2.5329	60.5043
2.5255	60.5962
2.5181	60.6137
2.5108	60.9427
2.5035	60.9791
2.4963	61.3494
2.4891	61.3537
2.482	61.6361
2.4749	61.9438
2.4678	62.055
2.4608	62.3183
2.4538	62.5306
2.4468	62.784
2.4399	62.7322
2.4331	63.0564
2.4262	63.2118
2.4194	63.3058
2.4127	63.3751
2.4059	63.5893
2.3993	63.7334
2.3926	63.7651
2.386	63.9361
2.3795	64.0342
2.3729	64.2554
2.3664	64.4819
2.36	64.4548
2.3535	64.3662
2.3471	64.4156
2.3408	64.4468
2.3345	64.4885
2.3282	64.5152
2.3219	64.0562
2.3157	64.0302
2.3095	63.6596
2.3034	63.3624
2.2972	63.2451
2.2911	63.2105
2.2851	63.3245
2.279	63.355
2.2731	63.5759
2.2671	63.7216
2.2612	63.8142
2.2553	63.814
2.2494	63.8746
2.2435	63.6516
2.2377	63.8437
2.232	63.7226
2.2262	63.7323
2.2205	63.6655
2.2148	63.7589
2.2091	63.3971
2.2035	63.5506
2.1979	63.4631
2.1923	63.3852
2.1868	63.4597
2.1812	63.3567
2.1758	63.3036
2.1703	63.0516
2.1649	63.1127
2.1595	63.1323
2.1541	63.1522
2.1487	62.9127
2.1434	62.4828
2.1381	62.7976
2.1328	62.6298
2.1275	62.3581
2.1223	62.4044
2.1171	62.2517
2.112	61.999
2.1068	61.9512
2.1017	61.8402
2.0966	61.8048
2.0915	61.6456
2.0865	61.3686
2.0814	61.1008
2.0764	61.3036
2.0715	61.1868
2.0665	60.8884
2.0616	60.7677
2.0567	60.5547
2.0518	60.505
2.0469	60.2204
2.0421	60.1404
2.0373	60.0298
2.0325	60.0041
2.0277	59.5551
2.0229	59.5885
2.0182	59.2027
2.0135	59.2593
2.0088	58.8855
2.0042	58.5466
