Name: Natrolite Na_2Al_2Si_3O_10.2H_2O
Type: Mineral
Class: Silicate
Subclass: Tectosilicate
Particle Size: Medium
Sample No.: TS-8A
Owner: JPL
Wavelength Range: TIR
Origin: India, Maharashtra, Poona
Description: Particle size was 45-125um.Collected by Ward's Original ASTER Spectral Library name was jpl.nicolet.mineral.silicate.tectosilicate.medium.ts08a.spectrum.txt
Measurement: Hemispherical reflectance
X Units: Wavelength (micrometers)
Y Units: Reflectance (percent)
wavelength	value
15.3853	2.6866
15.1161	2.46
14.8563	1.8936
14.6052	1.9003
14.3624	1.3228
14.1276	0.8653
13.9004	0.9793
13.6803	0.9996
13.4671	1.4842
13.2604	1.9575
13.06	2.1241
12.8656	2.6217
12.6769	3.1193
12.4936	3.5804
12.3155	3.8583
12.1425	4.1442
11.9742	4.4239
11.8106	4.9449
11.6513	4.8629
11.4963	4.7256
11.3454	5.1166
11.1983	5.2941
11.0551	5.5018
10.9154	5.8393
10.7793	6.718
10.6465	8.1514
10.5169	10.7867
10.3904	18.4122
10.267	18.9563
10.1464	24.2587
10.0287	25.781
9.9136	25.0581
9.8012	14.554
9.6913	1.8251
9.5838	10.2169
9.4787	16.0533
9.3758	14.5493
9.2752	10.5018
9.1767	17.3834
9.0803	16.5814
8.9858	17.7954
8.8934	13.0036
8.8028	6.7006
8.714	3.1373
8.627	1.4842
8.5417	0.6193
8.4581	0.2306
8.3761	0
8.2957	0.1054
8.2169	0.0376
8.1395	0.0788
8.0635	0.138
7.989	0.3714
7.9158	0.2693
7.8439	0.3286
7.7734	0.3343
7.7041	0.4654
7.636	0.5786
7.5691	0.679
7.5034	0.8539
7.4388	0.9911
7.3753	1.0465
7.3129	1.2214
7.2515	1.2097
7.1912	1.4607
7.1318	1.4609
7.0734	1.6463
7.016	1.8462
6.9595	2.0699
6.9039	2.1887
6.8492	2.1845
6.7953	2.4287
6.7423	2.4951
6.6901	2.6512
6.6387	2.9827
6.5881	3.0657
6.5382	3.1527
6.4892	3.2324
6.4408	2.9968
6.3931	2.9044
6.3462	2.4777
6.2999	2.172
6.2543	1.9801
6.2094	1.5832
6.1651	1.4275
6.1214	1.0913
6.0784	1.2731
6.0359	1.9416
5.994	2.6042
5.9527	3.1766
5.912	3.2748
5.8718	3.3216
5.8322	3.5117
5.7931	3.5685
5.7545	4.037
5.7165	4.3626
5.6789	4.8633
5.6418	5.395
5.6052	5.7138
5.5691	6.2855
5.5334	6.3932
5.4982	6.4793
5.4635	6.8342
5.4291	7.768
5.3952	8.9145
5.3618	10.0932
5.3287	11.1176
5.2961	12.8825
5.2638	14.1741
5.2319	14.1604
5.2004	13.1816
5.1693	13.3786
5.1386	12.6203
5.1082	11.4579
5.0782	10.5222
5.0485	9.6045
5.0192	10.1098
4.9902	11.8954
4.9616	12.8407
4.9332	12.6869
4.9052	11.4341
4.8776	10.5066
4.8502	9.7905
4.8231	8.9633
4.7963	7.9079
4.7699	6.2091
4.7437	4.3584
4.7178	2.9736
4.6922	2.1715
4.6668	2.034
4.6418	2.5441
4.617	4.0315
4.5924	6.2976
4.5681	7.8694
4.5441	8.9682
4.5203	10.2468
4.4968	11.6878
4.4735	13.9373
4.4505	16.4755
4.4277	18.9657
4.4051	20.6185
4.3828	21.5127
4.3607	22.2423
4.3388	22.9879
4.3171	23.2233
4.2956	23.4501
4.2744	24.3576
4.2534	26.3765
4.2325	26.7386
4.2119	28.6931
4.1915	30.1014
4.1712	31.6204
4.1512	33.9561
4.1313	36.2004
4.1117	37.6649
4.0922	38.4949
4.0729	38.8719
4.0538	37.9332
4.0349	38.9145
4.0161	39.9028
3.9976	40.5021
3.9792	40.6634
3.9609	40.8703
3.9428	40.8864
3.9249	40.7348
3.9072	40.2972
3.8896	39.8864
3.8722	39.0277
3.8549	37.8415
3.8378	35.9375
3.8208	36.5787
3.804	36.0833
3.7873	35.5753
3.7708	35.3681
3.7544	34.5422
3.7382	33.4706
3.7221	32.244
3.7061	30.9449
3.6903	29.8789
3.6746	29.0182
3.659	28.7318
3.6436	28.5604
3.6283	28.7539
3.6131	28.4846
3.5981	27.8374
3.5832	26.7106
3.5684	25.3589
3.5537	24.0197
3.5391	22.8096
3.5247	21.6429
3.5104	20.5779
3.4962	19.3291
3.4821	18.0159
3.4681	16.8706
3.4543	15.6774
3.4405	14.6934
3.4269	13.6076
3.4133	12.3681
3.3999	11.4424
3.3866	10.2962
3.3733	9.0642
3.3602	7.891
3.3472	6.953
3.3343	5.9616
3.3215	5.0174
3.3088	4.4559
3.2961	4.1415
3.2836	3.7033
3.2712	3.5761
3.2588	3.1658
3.2466	3.0064
3.2345	2.8302
3.2224	2.8156
3.2104	2.5289
3.1985	2.2973
3.1867	2.2561
3.175	2.009
3.1634	1.9145
3.1519	1.692
3.1404	1.7616
3.129	1.6954
3.1178	1.7203
3.1065	1.8337
3.0954	1.6416
3.0844	1.8461
3.0734	1.8593
3.0625	1.8328
3.0517	1.8727
3.041	1.8815
3.0303	1.8163
3.0197	1.8667
3.0092	1.642
2.9987	1.5579
2.9884	1.1937
2.9781	1.2992
2.9678	1.3673
2.9577	1.4284
2.9476	1.3688
2.9376	1.4307
2.9276	1.3741
2.9177	1.6612
2.9079	1.6357
2.8982	1.6414
2.8885	1.7122
2.8789	1.5362
2.8693	1.6894
2.8598	1.5162
2.8504	1.8042
2.841	1.7712
2.8317	1.8041
2.8224	1.2705
2.8133	0.8168
2.8041	0.9948
2.7951	0.9996
2.786	1.3403
2.7771	1.4407
2.7682	1.3416
2.7594	1.8441
2.7506	2.4959
2.7418	2.4919
2.7332	3.9552
2.7246	6.6995
2.716	10.6909
2.7075	15.3491
2.699	18.8885
2.6906	21.0845
2.6823	21.5287
2.674	21.7086
2.6657	23.4617
2.6575	24.4945
2.6494	25.1956
2.6413	25.3772
2.6332	26.8682
2.6252	28.9201
2.6173	30.4455
2.6094	29.9189
2.6015	28.1447
2.5937	25.4616
2.5859	23.6325
2.5782	26.0506
2.5706	29.9686
2.5629	33.8374
2.5554	37.0434
2.5478	39.8587
2.5403	41.7325
2.5329	42.4386
2.5255	42.9593
2.5181	43.4662
2.5108	44.17
2.5035	44.6202
2.4963	44.0894
2.4891	42.1607
2.482	39.2343
2.4749	35.4386
2.4678	32.2454
2.4608	31.5293
2.4538	32.3978
2.4468	31.6563
2.4399	28.7073
2.4331	26.5563
2.4262	27.0146
2.4194	30.3339
2.4127	35.193
2.4059	39.9755
2.3993	43.8903
2.3926	45.8381
2.386	47.0138
2.3795	47.9791
2.3729	49.2137
2.3664	50.7933
2.36	52.3731
2.3535	53.4812
2.3471	54.4629
2.3408	55.599
2.3345	57.343
2.3282	58.416
2.3219	59.6371
2.3157	60.8451
2.3095	61.8474
2.3034	62.197
2.2972	62.3742
2.2911	61.9597
2.2851	60.9776
2.279	60.243
2.2731	60.1342
2.2671	61.0264
2.2612	61.4577
2.2553	62.1479
2.2494	61.9198
2.2435	61.6116
2.2377	60.669
2.232	59.7868
2.2262	58.5098
2.2205	56.7203
2.2148	54.4434
2.2091	51.7549
2.2035	49.5366
2.1979	48.5046
2.1923	49.3005
2.1868	50.9492
2.1812	52.5723
2.1758	53.4557
2.1703	53.6402
2.1649	53.6888
2.1595	54.0745
2.1541	54.3803
2.1487	54.8193
2.1434	55.2628
2.1381	55.5407
2.1328	55.2918
2.1275	54.6534
2.1223	53.7711
2.1171	53.2369
2.112	51.8608
2.1068	49.8925
2.1017	47.7126
2.0966	45.6246
2.0915	44.3725
2.0865	43.4843
2.0814	43.0288
2.0764	43.4338
2.0715	43.7658
2.0665	44.7883
2.0616	44.9118
2.0567	44.6464
2.0518	44.4213
2.0469	43.1463
2.0421	41.8461
2.0373	39.5158
2.0325	36.7621
2.0277	34.4607
2.0229	31.9297
2.0182	30.8221
2.0135	29.7368
2.0088	29.538
2.0042	29.614
