Name: Dolomite CaMg(CO_3)_2
Type: Mineral
Class: Carbonate
Subclass: None
Particle Size: Medium
Sample No.: C-5C
Owner: JPL
Wavelength Range: TIR
Origin: USA, California, Los Angeles County, Palos Verdes
Description: Particle size was 45-125um.Collected by Burminco Original ASTER Spectral Library name was jpl.nicolet.mineral.carbonate.none.medium.c05c.spectrum.txt
Measurement: Hemispherical reflectance
X Units: Wavelength (micrometers)
Y Units: Reflectance (percent)
wavelength	value
15.3853	6.5523
15.1161	7.5046
14.8563	8.1514
14.6052	9.1997
14.3624	9.0232
14.1276	7.0766
13.9004	3.8762
13.6803	2.8153
13.4671	5.1156
13.2604	13.9376
13.06	21.0992
12.8656	24.2829
12.6769	25.736
12.4936	27.0834
12.3155	27.093
12.1425	25.9735
11.9742	23.4082
11.8106	16.7772
11.6513	12.0463
11.4963	8.3425
11.3454	13.7692
11.1983	32.0656
11.0551	17.2946
10.9154	17.1469
10.7793	17.6634
10.6465	18.5161
10.5169	18.2831
10.3904	19.0379
10.267	17.8313
10.1464	17.9021
10.0287	17.2644
9.9136	16.5675
9.8012	15.5133
9.6913	12.0169
9.5838	12.4602
9.4787	15.6379
9.3758	13.2641
9.2752	9.8357
9.1767	9.5828
9.0803	7.1217
8.9858	9.96
8.8934	10.0364
8.8028	10.275
8.714	8.8121
8.627	9.2183
8.5417	8.2775
8.4581	7.0387
8.3761	6.9203
8.2957	8.2463
8.2169	8.1491
8.1395	6.8324
8.0635	6.9251
7.989	7.1906
7.9158	7.5248
7.8439	7.7264
7.7734	7.2154
7.7041	6.891
7.636	7.3854
7.5691	7.4395
7.5034	7.4375
7.4388	7.74
7.3753	8.1675
7.3129	8.8556
7.2515	9.517
7.1912	10.7608
7.1318	12.9246
7.0734	15.8535
7.016	23.2893
6.9595	24.6489
6.9039	25.1702
6.8492	26.31
6.7953	28.029
6.7423	29.3745
6.6901	31.9374
6.6387	37.2315
6.5881	41.6243
6.5382	43.6754
6.4892	46.3303
6.4408	46.4661
6.3931	44.0283
6.3462	28.3631
6.2999	11.653
6.2543	5.0637
6.2094	2.529
6.1651	1.3231
6.1214	0.6385
6.0784	0.472
6.0359	0.6591
5.994	0.7098
5.9527	0.9457
5.912	1.2547
5.8718	1.4108
5.8322	1.9563
5.7931	2.1161
5.7545	2.472
5.7165	2.8441
5.6789	2.944
5.6418	2.8223
5.6052	2.5535
5.5691	2.0164
5.5334	1.27
5.4982	1.1672
5.4635	1.6952
5.4291	5.7167
5.3952	11.163
5.3618	15.2649
5.3287	18.3645
5.2961	20.8101
5.2638	24.556
5.2319	29.2291
5.2004	33.1095
5.1693	36.5621
5.1386	39.745
5.1082	41.5025
5.0782	38.6803
5.0485	39.0228
5.0192	47.4464
4.9902	49.3671
4.9616	50.5601
4.9332	51.4028
4.9052	51.8643
4.8776	52.2745
4.8502	52.3645
4.8231	52.21
4.7963	51.7581
4.7699	51.1983
4.7437	49.8488
4.7178	46.8786
4.6922	41.1308
4.6668	30.8001
4.6418	24.6143
4.617	23.6088
4.5924	26.6255
4.5681	31.6758
4.5441	35.4612
4.5203	38.0215
4.4968	43.4154
4.4735	43.4784
4.4505	38.5262
4.4277	38.2638
4.4051	42.7355
4.3828	47.1489
4.3607	50.2707
4.3388	45.7829
4.3171	42.3887
4.2956	41.4297
4.2744	41.3919
4.2534	43.8025
4.2325	44.0648
4.2119	44.265
4.1915	45.7886
4.1712	43.9878
4.1512	40.6472
4.1313	40.2237
4.1117	39.0067
4.0922	36.5991
4.0729	32.4378
4.0538	27.0409
4.0349	20.3604
4.0161	12.8925
3.9976	6.8377
3.9792	3.5572
3.9609	2.6588
3.9428	2.522
3.9249	2.7845
3.9072	3.2394
3.8896	4.3067
3.8722	4.628
3.8549	6.3673
3.8378	9.8079
3.8208	6.9766
3.804	4.9104
3.7873	7.2454
3.7708	11.5475
3.7544	19.0517
3.7382	30.2486
3.7221	35.386
3.7061	38.0444
3.6903	40.7675
3.6746	42.3129
3.659	42.9374
3.6436	43.003
3.6283	42.6349
3.6131	41.9602
3.5981	41.1859
3.5832	40.3291
3.5684	38.1688
3.5537	31.752
3.5391	30.4637
3.5247	26.0829
3.5104	17.4802
3.4962	8.9858
3.4821	5.6038
3.4681	4.3927
3.4543	3.9916
3.4405	4.3039
3.4269	6.1646
3.4133	6.9515
3.3999	7.4858
3.3866	8.3351
3.3733	9.7251
3.3602	7.9242
3.3472	6.6367
3.3343	6.2172
3.3215	5.987
3.3088	5.2375
3.2961	9.7886
3.2836	21.022
3.2712	26.0869
3.2588	28.916
3.2466	31.0821
3.2345	32.662
3.2224	33.9313
3.2104	34.777
3.1985	35.2929
3.1867	35.5992
3.175	35.6447
3.1634	35.4966
3.1519	34.7267
3.1404	33.5143
3.129	33.5691
3.1178	33.8165
3.1065	34.0282
3.0954	33.8438
3.0844	33.1452
3.0734	33.5179
3.0625	34.6144
3.0517	35.2452
3.041	35.3042
3.0303	35.9933
3.0197	36.93
3.0092	37.4007
2.9987	37.7021
2.9884	37.5341
2.9781	37.5882
2.9678	37.765
2.9577	37.8444
2.9476	37.9697
2.9376	38.1179
2.9276	38.3145
2.9177	38.2334
2.9079	39.3354
2.8982	40.6471
2.8885	41.7464
2.8789	42.4276
2.8693	42.7148
2.8598	43.897
2.8504	43.9024
2.841	45.5888
2.8317	47.6228
2.8224	49.1321
2.8133	50.1871
2.8041	50.3877
2.7951	49.4367
2.786	48.8034
2.7771	46.9945
2.7682	45.5038
2.7594	48.6208
2.7506	52.1053
2.7418	56.3123
2.7332	60.0961
2.7246	63.1458
2.716	65.4449
2.7075	68.3693
2.699	69.2925
2.6906	69.2454
2.6823	71.21
2.674	74.0744
2.6657	76.92
2.6575	78.0177
2.6494	79.056
2.6413	80.0023
2.6332	80.3043
2.6252	80.7572
2.6173	81.3352
2.6094	81.4113
2.6015	81.2607
2.5937	81.5379
2.5859	80.4649
2.5782	79.5975
2.5706	78.0134
2.5629	75.8637
2.5554	73.5561
2.5478	69.1931
2.5403	62.1721
2.5329	55.5244
2.5255	51.1464
2.5181	48.8997
2.5108	49.1888
2.5035	50.6273
2.4963	52.2696
2.4891	54.4816
2.482	57.007
2.4749	58.1682
2.4678	58.7903
2.4608	59.4239
2.4538	61.0451
2.4468	63.5193
2.4399	66.7536
2.4331	69.2598
2.4262	71.871
2.4194	74.343
2.4127	76.2562
2.4059	77.2169
2.3993	78.251
2.3926	79.4043
2.386	79.9414
2.3795	80.7101
2.3729	81.9095
2.3664	81.8002
2.36	80.9725
2.3535	78.9339
2.3471	74.6617
2.3408	69.704
2.3345	65.4899
2.3282	62.1893
2.3219	61.6163
2.3157	62.0005
2.3095	63.0277
2.3034	64.1381
2.2972	65.127
2.2911	66.3534
2.2851	67.3836
2.279	67.9928
2.2731	68.5342
2.2671	69.3875
2.2612	71.2101
2.2553	73.1318
2.2494	75.1323
2.2435	76.9212
2.2377	78.6528
2.232	79.5259
2.2262	80.7423
2.2205	81.2998
2.2148	82.2482
2.2091	83.2064
2.2035	83.9056
2.1979	84.9714
2.1923	85.499
2.1868	85.9818
2.1812	86.2927
2.1758	86.5299
2.1703	86.7104
2.1649	86.4495
2.1595	86.3982
2.1541	86.0122
2.1487	85.67
2.1434	85.152
2.1381	85.3043
2.1328	85.5909
2.1275	85.8151
2.1223	86.4001
2.1171	86.6635
2.112	87.0859
2.1068	87.4616
2.1017	87.8333
2.0966	87.6072
2.0915	88.3775
2.0865	87.977
2.0814	88.2568
2.0764	88.047
2.0715	89.2142
2.0665	88.4767
2.0616	88.6633
2.0567	89.1024
2.0518	89.0025
2.0469	89.1439
2.0421	88.9975
2.0373	88.9887
2.0325	88.983
2.0277	88.9623
2.0229	88.8887
2.0182	88.53
2.0135	88.437
2.0088	88.3182
2.0042	88.2077
