Name: Spodumene LiAlS_2O_6
Type: Mineral
Class: Silicate
Subclass: Inosilicate
Particle Size: Coarse
Sample No.: IN-13A
Owner: JPL
Wavelength Range: VSWIR
Origin: Brazil, Minas Gerais
Description: Particle size was 125-500um.Collected by Ward's Original ASTER Spectral Library name was jpl.beckman.mineral.silicate.inosilicate.coarse.in13a.spectrum.txt
Measurement: Hemispherical reflectance
X Units: Wavelength (micrometers)
Y Units: Reflectance (percent)
wavelength	value
0.4	62.13
0.403	62.74
0.406	63.08
0.409	63.31
0.412	63.69
0.415	63.93
0.418	64.15
0.421	64.39
0.424	64.75
0.427	64.91
0.43	65.03
0.433	65.19
0.436	65.45
0.439	65.64
0.442	65.82
0.445	66.03
0.448	66.14
0.451	66.11
0.454	66.36
0.457	66.65
0.46	66.72
0.463	66.75
0.466	67.04
0.469	66.99
0.472	67.06
0.475	67.08
0.478	67.21
0.481	67.18
0.484	67.17
0.487	67.13
0.49	67
0.493	66.94
0.496	66.83
0.499	66.71
0.502	66.5
0.505	66.46
0.508	66.23
0.511	65.99
0.514	65.76
0.517	65.66
0.52	65.63
0.523	65.49
0.526	65.37
0.529	65.41
0.532	65.3
0.535	65.3
0.538	65.64
0.541	65.71
0.544	65.76
0.547	66.07
0.55	66.37
0.553	66.72
0.556	67.05
0.559	67.12
0.562	67.82
0.565	68.16
0.568	68.54
0.571	68.74
0.574	68.87
0.577	69
0.58	69.49
0.583	69.61
0.586	69.89
0.589	70.09
0.592	70.25
0.595	70.57
0.598	70.64
0.601	70.73
0.604	70.87
0.607	70.94
0.61	71.07
0.613	71.06
0.616	71.1
0.619	71
0.622	71.2
0.625	71.23
0.628	71.14
0.631	71.18
0.634	71.17
0.637	71.29
0.64	71.42
0.643	71.36
0.646	71.49
0.649	71.44
0.652	71.53
0.655	71.54
0.658	71.75
0.661	71.69
0.664	71.75
0.667	71.73
0.67	71.82
0.673	71.95
0.676	71.82
0.679	71.82
0.682	71.9
0.685	71.95
0.688	72.11
0.691	72.08
0.694	72
0.697	72.09
0.7	72.15
0.703	72.24
0.706	72.29
0.709	72.36
0.712	72.42
0.715	72.33
0.718	72.46
0.721	72.51
0.724	72.53
0.727	72.48
0.73	72.5
0.733	72.54
0.736	72.52
0.739	72.63
0.742	72.53
0.745	72.55
0.748	72.63
0.751	72.77
0.754	72.68
0.757	72.77
0.76	72.69
0.763	72.85
0.766	72.85
0.769	72.7
0.772	72.79
0.775	72.78
0.778	72.93
0.781	73.07
0.784	73
0.787	73.1
0.79	73.3
0.793	73.19
0.796	73.33
0.799	73.1
0.808	73.12
0.82	73.25
0.832	73.41
0.844	73.57
0.856	73.71
0.868	73.89
0.88	74.03
0.892	74.2
0.904	74.33
0.916	74.45
0.928	74.68
0.94	74.78
0.952	74.98
0.964	75.14
0.976	75.24
0.988	75.29
1	75.43
1.012	75.42
1.024	75.51
1.036	75.67
1.048	75.74
1.06	75.79
1.072	75.84
1.084	76
1.096	76.14
1.108	76.16
1.12	76.29
1.132	76.34
1.144	76.33
1.156	76.38
1.168	76.39
1.18	76.43
1.192	76.47
1.204	76.46
1.216	76.54
1.228	76.53
1.24	76.56
1.252	76.6
1.264	76.67
1.276	76.67
1.288	76.72
1.3	76.73
1.312	76.66
1.324	76.63
1.336	76.65
1.348	76.65
1.36	76.62
1.372	76.5
1.384	76.18
1.396	76.17
1.408	75.89
1.42	76.35
1.432	76.63
1.444	76.7
1.456	76.67
1.468	76.8
1.48	76.88
1.492	77.01
1.504	76.97
1.516	77.06
1.528	76.96
1.54	77.03
1.552	77.15
1.564	77.26
1.576	77.3
1.588	77.3
1.6	77.32
1.612	77.33
1.624	77.33
1.636	77.19
1.648	77.3
1.66	77.33
1.672	77.44
1.684	77.44
1.696	77.43
1.708	77.55
1.72	77.51
1.732	77.47
1.744	77.44
1.756	77.39
1.768	77.44
1.78	77.44
1.792	77.47
1.804	77.41
1.816	77.43
1.828	77.42
1.84	77.4
1.852	77.39
1.864	77.35
1.876	77.16
1.888	76.87
1.9	76.5
1.912	76.28
1.924	76.35
1.936	76.39
1.948	76.58
1.96	76.74
1.972	76.8
1.984	76.95
1.996	77.27
2.008	77.26
2.02	77.37
2.032	77.4
2.044	77.56
2.056	77.52
2.068	77.67
2.08	77.71
2.092	77.81
2.104	77.91
2.116	77.98
2.128	77.84
2.14	77.52
2.152	77.12
2.164	76.86
2.176	76.74
2.188	76.36
2.2	76.21
2.212	76.46
2.224	76.9
2.236	76.99
2.248	77.08
2.26	77.17
2.272	77.2
2.284	77.19
2.296	77.13
2.308	76.92
2.32	77.03
2.332	77.08
2.344	77
2.356	76.89
2.368	76.71
2.38	76.63
2.392	76.55
2.404	76.59
2.416	76.42
2.428	76.24
2.44	76.03
2.452	75.82
2.464	75.71
2.476	75.6
2.488	75.68
2.5	76.04
