Name: Mimetite Pb_5(AsO_4)_3Cl
Type: Mineral
Class: Arsenate
Subclass: None
Particle Size: Fine
Sample No.: A-1A
Owner: JPL
Wavelength Range: VSWIR
Origin: Mexico, Chihuahua, Ingla Tierra Mine.
Description: Particle size was 0-45um.Collected by:  JPL Original ASTER Spectral Library name was jpl.perkin.mineral.arsenate.none.fine.a01a.spectrum.txt
Measurement: Hemispherical reflectance
X Units: Wavelength (micrometers)
Y Units: Reflectance (percent)
wavelength	value
2.5	86.3759
2.494	86.4205
2.488	86.1282
2.482	86.1297
2.476	86.326
2.47	86.4478
2.464	86.4908
2.458	86.5929
2.452	86.7999
2.446	86.7837
2.44	86.8652
2.434	87.0072
2.428	87.0933
2.422	87.2656
2.416	87.4073
2.41	87.4571
2.404	87.494
2.398	87.6257
2.392	87.8299
2.386	87.8874
2.38	87.9149
2.374	88.1199
2.368	88.1978
2.362	88.2432
2.356	88.2528
2.35	88.3026
2.344	88.4537
2.338	88.3526
2.332	88.2866
2.326	88.2799
2.32	88.278
2.314	88.1651
2.308	88.3418
2.302	88.3373
2.296	88.3816
2.29	88.4023
2.284	88.2829
2.278	88.1496
2.272	88.2654
2.266	88.1739
2.26	88.2748
2.254	88.3145
2.248	88.2932
2.242	88.46
2.236	88.4979
2.23	88.4446
2.224	88.6448
2.218	88.7974
2.212	88.8166
2.206	89.1278
2.2	89.2502
2.194	89.1876
2.188	89.2986
2.182	89.4471
2.176	89.5492
2.17	89.6866
2.164	89.9456
2.158	90.1709
2.152	90.3059
2.146	90.2365
2.14	90.206
2.134	90.1124
2.128	89.9603
2.122	89.6953
2.116	89.5119
2.11	89.1379
2.104	88.8523
2.098	88.7228
2.092	88.7491
2.086	88.8392
2.08	89.0193
2.074	88.9744
2.068	89.1565
2.062	89.2146
2.056	89.2419
2.05	89.2841
2.044	89.4096
2.038	89.4473
2.032	89.4175
2.026	89.5051
2.02	89.3717
2.014	89.5057
2.008	89.3767
2.002	89.558
1.996	89.4305
1.99	89.3236
1.984	89.2884
1.978	89.1959
1.972	89.0936
1.966	89.1226
1.96	89.2519
1.954	89.0695
1.948	89.0414
1.942	89.1257
1.936	89.2547
1.93	89.4294
1.924	89.4543
1.918	89.5754
1.912	89.7024
1.906	90.1082
1.9	90.2513
1.894	90.2933
1.888	90.4934
1.882	90.7429
1.876	90.7246
1.87	90.8533
1.864	91.0837
1.858	91.0363
1.852	91.1264
1.846	91.1839
1.84	91.2716
1.834	91.1815
1.828	91.3086
1.822	91.2895
1.816	91.4223
1.81	91.452
1.804	91.4321
1.798	91.4822
1.792	91.5592
1.786	91.6162
1.78	91.5827
1.774	91.4754
1.768	91.5254
1.762	91.5643
1.756	91.6737
1.75	91.7002
1.744	91.6955
1.738	91.8439
1.732	91.9183
1.726	91.9177
1.72	91.9775
1.714	91.9557
1.708	91.9638
1.702	91.99
1.696	91.9819
1.69	92.055
1.684	92.0347
1.678	92.1243
1.672	92.0934
1.666	92.1086
1.66	92.1024
1.654	92.2098
1.648	92.2006
1.642	92.2341
1.636	92.3214
1.63	92.2454
1.624	92.3335
1.618	92.3506
1.612	92.3948
1.606	92.4144
1.6	92.4699
1.594	92.4701
1.588	92.4914
1.582	92.4102
1.576	92.3992
1.57	92.4696
1.564	92.4444
1.558	92.5374
1.552	92.5673
1.546	92.496
1.54	92.5466
1.534	92.5091
1.528	92.5257
1.522	92.4822
1.516	92.5874
1.51	92.5503
1.504	92.4479
1.498	92.4742
1.492	92.4853
1.486	92.5433
1.48	92.5863
1.474	92.5032
1.468	92.4966
1.462	92.5406
1.456	92.5512
1.45	92.5059
1.444	92.5623
1.438	92.5751
1.432	92.5847
1.426	92.604
1.42	92.6504
1.414	92.597
1.408	92.7282
1.402	92.6663
1.396	92.8403
1.39	92.9336
1.384	93.0251
1.378	92.911
1.372	92.9771
1.366	93.0198
1.36	93.0695
1.354	93.0569
1.348	93.2249
1.342	93.172
1.336	93.0244
1.33	92.9931
1.324	93.064
1.318	93.1662
1.312	93.2061
1.306	93.049
1.3	93.1369
1.294	93.1226
1.288	93.1411
1.282	93.1342
1.276	93.0295
1.27	93.1206
1.264	93.1324
1.258	93.1113
1.252	93.0823
1.246	93.0821
1.24	93.0626
1.234	93.0429
1.228	93.0876
1.222	93.0866
1.216	93.0272
1.21	92.9773
1.204	92.8659
1.198	92.9374
1.192	92.9325
1.186	92.9587
1.18	92.9653
1.174	92.9328
1.168	92.9436
1.162	92.9083
1.156	92.8326
1.15	92.8895
1.144	92.8934
1.138	92.8046
1.132	92.8765
1.126	92.6818
1.12	92.7522
1.114	92.6769
1.108	92.6919
1.102	92.5241
1.096	92.6699
1.09	92.493
1.084	92.4309
1.078	92.419
1.072	92.4041
1.066	92.3981
1.06	92.2395
1.054	92.1935
1.048	92.1524
1.042	92.0326
1.036	92.1028
1.03	91.9989
1.024	92.0308
1.018	91.9564
1.012	91.8176
1.006	91.7949
1	91.7402
0.994	91.6042
0.988	91.5444
0.982	91.3823
0.976	91.3923
0.97	91.3184
0.964	91.2552
0.958	91.1845
0.952	91.1126
0.946	91.0706
0.94	90.9826
0.934	90.8961
0.928	90.6963
0.922	90.7939
0.916	90.7553
0.91	90.6404
0.904	90.614
0.898	90.5646
0.892	90.475
0.886	90.4166
0.88	90.3574
0.874	90.4258
0.868	90.3495
0.862	90.2687
0.856	90.5493
0.85	90.6129
0.844	90.5401
0.838	90.5245
0.832	90.535
0.826	90.4651
0.82	90.5115
0.814	90.4768
0.808	90.5344
0.802	90.6059
0.796	90.507
0.79	90.5085
0.784	90.5099
0.778	90.5649
0.772	90.557
0.766	90.5098
0.76	90.4401
0.754	90.4195
0.748	90.3743
0.742	90.3435
0.736	90.2619
0.73	90.2254
0.724	90.1029
0.718	90.01
0.712	89.8756
0.706	89.7667
0.7	89.6159
0.694	89.4962
0.688	89.3693
0.682	89.2163
0.676	89.0754
0.67	88.9185
0.664	88.8391
0.658	88.6897
0.652	88.5817
0.646	88.4748
0.64	88.3676
0.634	88.2461
0.628	88.1112
0.622	87.9531
0.616	87.7595
0.61	87.543
0.604	87.2697
0.598	86.9837
0.592	86.6371
0.586	86.1906
0.58	85.6918
0.574	85.1576
0.568	84.5731
0.562	83.9804
0.556	83.3856
0.55	82.7504
0.544	82.0723
0.538	81.3186
0.532	80.5492
0.526	79.626
0.52	78.6531
0.514	77.5773
0.508	76.3685
0.502	75.0625
0.496	73.6298
0.49	72.1176
0.484	70.5594
0.478	68.9241
0.472	67.3059
0.466	65.6749
0.46	64.0393
0.454	62.4614
0.448	60.9337
0.442	59.4034
0.436	57.9777
0.43	56.6334
0.424	55.3908
0.418	54.2601
0.412	53.2527
0.406	52.3396
0.4	51.5528
