Name: Cookeite LiAl_4(Si_3Al)O_10(OH)_8
Type: Mineral
Class: Silicate
Subclass: Phyllosilicate
Particle Size: Fine
Sample No.: PS-9A
Owner: JPL
Wavelength Range: TIR
Origin: USA, Arkansas, Pulaski County
Description: Particle size was 0-45um.Collected by JPL Original ASTER Spectral Library name was jpl.nicolet.mineral.silicate.phyllosilicate.fine.ps09a.spectrum.txt
Measurement: Hemispherical reflectance
X Units: Wavelength (micrometers)
Y Units: Reflectance (percent)
wavelength	value
15.3853	2.0725
15.1161	1.8618
14.8563	1.6543
14.6052	2.0318
14.3624	1.6646
14.1276	1.6388
13.9004	2.1473
13.6803	2.4288
13.4671	1.8381
13.2604	1.8359
13.06	1.6559
12.8656	1.9477
12.6769	2.006
12.4936	2.0019
12.3155	1.7477
12.1425	1.8563
11.9742	2.9165
11.8106	3.8389
11.6513	5.448
11.4963	6.5405
11.3454	6.4745
11.1983	5.6225
11.0551	5.2983
10.9154	4.1454
10.7793	3.9047
10.6465	3.9165
10.5169	3.7422
10.3904	4.1
10.267	4.4698
10.1464	4.4079
10.0287	4.6508
9.9136	5.3726
9.8012	5.5811
9.6913	5.5761
9.5838	5.4568
9.4787	6.2545
9.3758	7.5337
9.2752	7.7726
9.1767	7.9562
9.0803	7.7829
8.9858	6.7613
8.8934	7.27
8.8028	7.4223
8.714	7.1125
8.627	5.4793
8.5417	6.4843
8.4581	6.4146
8.3761	6.2314
8.2957	6.6172
8.2169	7.1202
8.1395	6.7322
8.0635	5.5542
7.989	4.8262
7.9158	4.3537
7.8439	4.3019
7.7734	4.5939
7.7041	5.1774
7.636	5.5875
7.5691	6.0688
7.5034	6.8145
7.4388	7.2179
7.3753	7.7356
7.3129	8.2211
7.2515	8.6741
7.1912	9.1752
7.1318	9.5051
7.0734	9.7822
7.016	10.2463
6.9595	10.8038
6.9039	11.5098
6.8492	12.3004
6.7953	12.6609
6.7423	13.2299
6.6901	13.5674
6.6387	14.3169
6.5881	14.4627
6.5382	14.646
6.4892	15.9263
6.4408	16.4436
6.3931	16.3602
6.3462	16.0813
6.2999	15.3087
6.2543	14.4425
6.2094	14.0387
6.1651	14.218
6.1214	15.3234
6.0784	15.8509
6.0359	15.9423
5.994	16.125
5.9527	15.9736
5.912	16.744
5.8718	18.329
5.8322	19.7419
5.7931	20.8918
5.7545	21.7418
5.7165	22.3308
5.6789	22.3964
5.6418	21.6299
5.6052	20.6416
5.5691	20.3122
5.5334	20.6119
5.4982	21.0653
5.4635	21.6095
5.4291	21.4544
5.3952	19.9875
5.3618	18.502
5.3287	18.6666
5.2961	19.5094
5.2638	20.9173
5.2319	22.8854
5.2004	24.2682
5.1693	24.8968
5.1386	25.1588
5.1082	25.5575
5.0782	25.4857
5.0485	25.5392
5.0192	25.7166
4.9902	26.0922
4.9616	27.2304
4.9332	27.9218
4.9052	28.8689
4.8776	29.8135
4.8502	29.9981
4.8231	30.1355
4.7963	29.8878
4.7699	29.9508
4.7437	30.1103
4.7178	30.7464
4.6922	31.3042
4.6668	32.3466
4.6418	33.2745
4.617	34.5173
4.5924	35.3896
4.5681	36.397
4.5441	37.351
4.5203	38.1468
4.4968	38.8246
4.4735	39.6428
4.4505	40.4789
4.4277	41.2983
4.4051	42.2708
4.3828	43.3643
4.3607	44.1158
4.3388	44.4761
4.3171	44.635
4.2956	44.5968
4.2744	44.5549
4.2534	45.1565
4.2325	44.913
4.2119	45.4041
4.1915	45.706
4.1712	45.9933
4.1512	45.8817
4.1313	46.1115
4.1117	46.1489
4.0922	46.1757
4.0729	46.0863
4.0538	46.086
4.0349	46.0077
4.0161	45.877
3.9976	45.8422
3.9792	45.7749
3.9609	45.7541
3.9428	45.8804
3.9249	45.8451
3.9072	45.8743
3.8896	45.7673
3.8722	45.5736
3.8549	45.581
3.8378	45.4454
3.8208	45.2494
3.804	45.1963
3.7873	45.0164
3.7708	44.7832
3.7544	44.5424
3.7382	44.3461
3.7221	43.9424
3.7061	43.7526
3.6903	43.3395
3.6746	43.0002
3.659	42.8292
3.6436	42.4878
3.6283	42.2792
3.6131	41.9042
3.5981	41.4728
3.5832	41.166
3.5684	40.7479
3.5537	40.2278
3.5391	39.8623
3.5247	39.2839
3.5104	38.7005
3.4962	38.1093
3.4821	37.7942
3.4681	37.4739
3.4543	37.0055
3.4405	36.2035
3.4269	35.6176
3.4133	34.8509
3.3999	34.5872
3.3866	34.1996
3.3733	33.8037
3.3602	33.3599
3.3472	32.584
3.3343	32.0993
3.3215	31.5384
3.3088	30.6623
3.2961	30.037
3.2836	29.1781
3.2712	28.3009
3.2588	27.6621
3.2466	26.9401
3.2345	25.9783
3.2224	25.2018
3.2104	24.3563
3.1985	23.6097
3.1867	22.3483
3.175	21.6727
3.1634	20.6042
3.1519	19.6652
3.1404	18.4497
3.129	17.4795
3.1178	16.2224
3.1065	15.2185
3.0954	14.1158
3.0844	13.0341
3.0734	12.0799
3.0625	11.2648
3.0517	10.5394
3.041	9.7387
3.0303	9.177
3.0197	8.5034
3.0092	8.314
2.9987	8.1349
2.9884	8.224
2.9781	8.5579
2.9678	8.8736
2.9577	9.5804
2.9476	10.2985
2.9376	10.7205
2.9276	10.9887
2.9177	10.7613
2.9079	10.4038
2.8982	9.5897
2.8885	9.0901
2.8789	8.3321
2.8693	7.6961
2.8598	7.5374
2.8504	7.0762
2.841	6.8939
2.8317	6.8194
2.8224	7.1775
2.8133	7.7589
2.8041	7.8319
2.7951	7.521
2.786	7.1038
2.7771	7.0247
2.7682	6.3009
2.7594	5.2187
2.7506	5.2277
2.7418	4.6903
2.7332	4.8079
2.7246	5.7996
2.716	7.3053
2.7075	10.1938
2.699	15.803
2.6906	28.5824
2.6823	35.5714
2.674	38.8581
2.6657	41.2776
2.6575	42.2861
2.6494	42.9018
2.6413	43.6958
2.6332	43.9121
2.6252	44.1216
2.6173	44.4746
2.6094	44.6947
2.6015	44.7985
2.5937	45.6348
2.5859	46.1201
2.5782	46.2883
2.5706	46.7726
2.5629	46.8773
2.5554	47.0496
2.5478	47.3976
2.5403	47.366
2.5329	47.412
2.5255	47.7924
2.5181	47.5797
2.5108	47.7179
2.5035	47.5716
2.4963	47.6364
2.4891	47.7636
2.482	48.0564
2.4749	47.9851
2.4678	48.2844
2.4608	48.2316
2.4538	48.2134
2.4468	48.1024
2.4399	48.1785
2.4331	48.3
2.4262	48.5481
2.4194	48.6012
2.4127	49.0258
2.4059	48.7898
2.3993	48.5475
2.3926	48.4979
2.386	48.2806
2.3795	47.7549
2.3729	47.4857
2.3664	47.0349
2.36	46.9095
2.3535	47.1853
2.3471	48.0165
2.3408	48.5782
2.3345	49.2143
2.3282	49.5142
2.3219	50.0228
2.3157	50.2968
2.3095	50.7085
2.3034	50.7838
2.2972	51.1744
2.2911	51.3942
2.2851	51.5542
2.279	51.5813
2.2731	51.5101
2.2671	51.2748
2.2612	51.1279
2.2553	51.0991
2.2494	50.8825
2.2435	50.7898
2.2377	50.8171
2.232	50.7537
2.2262	50.4524
2.2205	49.8014
2.2148	49.5328
2.2091	49.2125
2.2035	49.6651
2.1979	49.6141
2.1923	49.3323
2.1868	49.4366
2.1812	49.4532
2.1758	49.6815
2.1703	49.904
2.1649	51.0322
2.1595	51.6623
2.1541	52.6636
2.1487	52.9574
2.1434	53.3553
2.1381	53.5369
2.1328	53.8184
2.1275	53.7078
2.1223	53.7292
2.1171	53.5454
2.112	53.7277
2.1068	53.6692
2.1017	53.7776
2.0966	53.6211
2.0915	53.8063
2.0865	53.9323
2.0814	54.1449
2.0764	54.0465
2.0715	53.5423
2.0665	54.1751
2.0616	54.3064
2.0567	53.7107
2.0518	53.723
2.0469	53.782
2.0421	53.7232
2.0373	53.9789
2.0325	53.7966
2.0277	53.8186
2.0229	53.9283
2.0182	53.9758
2.0135	53.6232
2.0088	53.8552
2.0042	53.5571
