Name: Vermiculite (Mg,Fe^2+,Al)_3(Al,Si)_4O_10(OH)_2.4H_2O
Type: Mineral
Class: Silicate
Subclass: Phyllosilicate
Particle Size: Fine
Sample No.: PS-18B
Owner: JPL
Wavelength Range: TIR
Origin: USA, Montana, Lincoln County, Libby
Description: Particle size was 0-45um.Collected by Ward's Original ASTER Spectral Library name was jpl.nicolet.mineral.silicate.phyllosilicate.fine.ps18b.spectrum.txt
Measurement: Hemispherical reflectance
X Units: Wavelength (micrometers)
Y Units: Reflectance (percent)
wavelength	value
15.3853	0.9167
15.1161	1.0979
14.8563	1.2298
14.6052	1.1208
14.3624	1.1042
14.1276	1.2201
13.9004	1.3049
13.6803	1.6437
13.4671	1.5866
13.2604	1.8361
13.06	1.9136
12.8656	2.2435
12.6769	2.6164
12.4936	2.9668
12.3155	3.1113
12.1425	3.1547
11.9742	3.6213
11.8106	4.1323
11.6513	4.2415
11.4963	3.9501
11.3454	4.308
11.1983	4.173
11.0551	4.0123
10.9154	3.6482
10.7793	3.4775
10.6465	3.3995
10.5169	3.1981
10.3904	3.2375
10.267	3.303
10.1464	3.6176
10.0287	3.9498
9.9136	4.5249
9.8012	5.0126
9.6913	5.1618
9.5838	4.7891
9.4787	4.3364
9.3758	3.8195
9.2752	3.4686
9.1767	3.0603
9.0803	2.9187
8.9858	2.9789
8.8934	2.5861
8.8028	1.8467
8.714	1.401
8.627	1.1428
8.5417	1.0625
8.4581	1.144
8.3761	1.2937
8.2957	1.5007
8.2169	1.8209
8.1395	2.2374
8.0635	2.9286
7.989	3.335
7.9158	3.9766
7.8439	4.4552
7.7734	5.2486
7.7041	5.8298
7.636	6.3927
7.5691	7.0109
7.5034	7.747
7.4388	8.3797
7.3753	8.9906
7.3129	9.3896
7.2515	9.8978
7.1912	10.6651
7.1318	11.0986
7.0734	11.7765
7.016	12.1881
6.9595	12.8761
6.9039	13.1782
6.8492	13.6841
6.7953	14.1217
6.7423	14.2169
6.6901	14.4116
6.6387	14.7337
6.5881	14.6186
6.5382	14.5181
6.4892	14.4467
6.4408	13.926
6.3931	13.4842
6.3462	12.6552
6.2999	11.1658
6.2543	9.3307
6.2094	7.1934
6.1651	5.2631
6.1214	4.1334
6.0784	4.0044
6.0359	4.356
5.994	5.3115
5.9527	6.6072
5.912	8.7094
5.8718	11.492
5.8322	14.3844
5.7931	16.936
5.7545	19.1333
5.7165	20.6629
5.6789	22.0812
5.6418	23.2465
5.6052	24.1199
5.5691	24.895
5.5334	25.8805
5.4982	26.7642
5.4635	27.7565
5.4291	28.5175
5.3952	29.1748
5.3618	29.7742
5.3287	30.4426
5.2961	30.9376
5.2638	31.5138
5.2319	32.149
5.2004	32.6393
5.1693	32.8606
5.1386	32.9536
5.1082	32.7994
5.0782	32.5743
5.0485	32.5813
5.0192	32.6033
4.9902	32.8483
4.9616	33.0758
4.9332	33.2249
4.9052	33.369
4.8776	33.4246
4.8502	33.7943
4.8231	34.0159
4.7963	34.3389
4.7699	34.7029
4.7437	35.2044
4.7178	35.6392
4.6922	35.9406
4.6668	36.2009
4.6418	36.5817
4.617	36.986
4.5924	37.375
4.5681	37.7317
4.5441	38.0709
4.5203	38.3868
4.4968	38.6256
4.4735	38.917
4.4505	39.0811
4.4277	39.4752
4.4051	39.7411
4.3828	40.1202
4.3607	40.6495
4.3388	41.1014
4.3171	41.493
4.2956	42.2318
4.2744	42.8051
4.2534	43.3125
4.2325	44.0528
4.2119	44.398
4.1915	44.8975
4.1712	45.4597
4.1512	46.1194
4.1313	46.6561
4.1117	47.2776
4.0922	47.859
4.0729	48.4578
4.0538	49.0139
4.0349	49.5498
4.0161	49.9184
3.9976	50.2754
3.9792	50.6197
3.9609	50.9668
3.9428	51.5467
3.9249	51.7371
3.9072	51.9187
3.8896	52.1182
3.8722	52.1754
3.8549	52.0954
3.8378	52.1406
3.8208	51.9873
3.804	51.8708
3.7873	51.5325
3.7708	51.2017
3.7544	50.8129
3.7382	50.3373
3.7221	49.73
3.7061	49.4414
3.6903	48.6668
3.6746	48.175
3.659	47.395
3.6436	46.6262
3.6283	45.9428
3.6131	45.197
3.5981	44.3275
3.5832	43.4591
3.5684	42.4633
3.5537	41.3346
3.5391	40.3895
3.5247	39.1868
3.5104	37.9218
3.4962	36.6535
3.4821	35.5014
3.4681	34.4789
3.4543	33.3104
3.4405	32.111
3.4269	30.6794
3.4133	29.3292
3.3999	28.1926
3.3866	27.0848
3.3733	25.7769
3.3602	24.6527
3.3472	23.5407
3.3343	22.3525
3.3215	21.2235
3.3088	20.1258
3.2961	18.8982
3.2836	17.7672
3.2712	16.9159
3.2588	15.7953
3.2466	14.8005
3.2345	13.8815
3.2224	12.8898
3.2104	12.1172
3.1985	11.3871
3.1867	10.4805
3.175	9.7175
3.1634	9.196
3.1519	8.537
3.1404	7.8891
3.129	7.4557
3.1178	6.8562
3.1065	6.3882
3.0954	6.2016
3.0844	6.038
3.0734	5.7234
3.0625	5.7371
3.0517	5.653
3.041	5.4351
3.0303	5.5041
3.0197	5.4344
3.0092	4.9946
2.9987	5.0726
2.9884	4.6402
2.9781	4.6448
2.9678	4.5522
2.9577	4.4116
2.9476	4.3652
2.9376	4.2686
2.9276	4.4157
2.9177	4.4436
2.9079	4.4077
2.8982	4.5651
2.8885	4.621
2.8789	4.7004
2.8693	4.627
2.8598	4.9382
2.8504	5.0428
2.841	4.6244
2.8317	4.6435
2.8224	4.6894
2.8133	4.8471
2.8041	4.4518
2.7951	4.8011
2.786	5.1333
2.7771	5.0813
2.7682	5.5433
2.7594	6.0476
2.7506	7.1384
2.7418	8.9115
2.7332	10.387
2.7246	11.85
2.716	15.9169
2.7075	21.951
2.699	23.5215
2.6906	24.8216
2.6823	33.6601
2.674	42.5558
2.6657	45.6961
2.6575	46.6856
2.6494	47.75
2.6413	48.6964
2.6332	49.7524
2.6252	50.4381
2.6173	51.115
2.6094	51.476
2.6015	51.655
2.5937	52.3302
2.5859	52.3914
2.5782	52.6132
2.5706	52.7909
2.5629	53.0278
2.5554	53.0464
2.5478	53.2163
2.5403	53.2485
2.5329	53.446
2.5255	53.6706
2.5181	53.7461
2.5108	53.9677
2.5035	54.2179
2.4963	54.727
2.4891	54.9784
2.482	55.2585
2.4749	55.6814
2.4678	56.1417
2.4608	56.2826
2.4538	56.7256
2.4468	57.0282
2.4399	57.1445
2.4331	57.397
2.4262	57.6577
2.4194	57.8266
2.4127	58.1311
2.4059	58.1623
2.3993	58.2132
2.3926	58.305
2.386	58.2094
2.3795	59.0266
2.3729	59.8279
2.3664	60.3881
2.36	60.9468
2.3535	61.0826
2.3471	61.4497
2.3408	61.0347
2.3345	60.1885
2.3282	59.556
2.3219	59.2064
2.3157	59.1706
2.3095	59.478
2.3034	59.5349
2.2972	59.7337
2.2911	60.6824
2.2851	62.5971
2.279	64.3077
2.2731	65.9138
2.2671	66.7666
2.2612	67.4273
2.2553	67.7677
2.2494	68.3799
2.2435	68.6772
2.2377	68.8715
2.232	68.8682
2.2262	69.2702
2.2205	69.399
2.2148	69.3656
2.2091	69.2779
2.2035	69.4026
2.1979	69.4937
2.1923	69.5554
2.1868	69.554
2.1812	69.5761
2.1758	69.6646
2.1703	69.698
2.1649	69.6426
2.1595	69.5127
2.1541	69.5548
2.1487	69.7687
2.1434	69.4535
2.1381	69.4465
2.1328	69.5003
2.1275	69.4074
2.1223	69.354
2.1171	69.3606
2.112	69.2115
2.1068	69.0591
2.1017	68.9642
2.0966	68.9018
2.0915	68.6844
2.0865	68.9041
2.0814	68.4511
2.0764	68.6132
2.0715	68.8451
2.0665	68.3282
2.0616	68.2247
2.0567	67.9692
2.0518	68.0649
2.0469	67.5921
2.0421	67.5029
2.0373	67.5805
2.0325	67.0874
2.0277	66.6986
2.0229	66.6635
2.0182	66.1448
2.0135	66.1195
2.0088	65.8311
2.0042	65.3609
