Name: Anhydrite CaSO_4
Type: Mineral
Class: Sulfate
Subclass: None
Particle Size: Fine
Sample No.: SO-1A
Owner: JPL
Wavelength Range: VSWIR
Origin: Canada, Nova Scotia.
Description: Particle size was 0-45um. Collected by:  Ward's Original ASTER Spectral Library name was jpl.perkin.mineral.sulfate.none.fine.so01a.spectrum.txt
Measurement: Hemispherical reflectance
X Units: Wavelength (micrometers)
Y Units: Reflectance (percent)
wavelength	value
2.5	72.5365
2.494	72.8278
2.488	72.4784
2.482	72.5897
2.476	72.9654
2.47	73.2339
2.464	73.433
2.458	73.719
2.452	74.0167
2.446	74.1791
2.44	74.4114
2.434	74.6434
2.428	74.8382
2.422	75.2754
2.416	75.8416
2.41	76.356
2.404	77.0441
2.398	77.8317
2.392	78.8714
2.386	79.547
2.38	80.2565
2.374	80.9647
2.368	81.5309
2.362	81.9413
2.356	82.3041
2.35	82.6895
2.344	83.1273
2.338	83.3256
2.332	83.5136
2.326	83.723
2.32	83.7885
2.314	83.7784
2.308	84.0269
2.302	83.9015
2.296	83.9342
2.29	83.9671
2.284	83.7477
2.278	83.5899
2.272	83.5103
2.266	83.2617
2.26	83.434
2.254	83.492
2.248	83.4796
2.242	83.5693
2.236	83.4398
2.23	83.2303
2.224	83.0277
2.218	82.9094
2.212	82.99
2.206	83.3879
2.2	83.6944
2.194	83.7757
2.188	83.8734
2.182	84.1315
2.176	84.2263
2.17	84.4315
2.164	84.7886
2.158	85.0836
2.152	85.3424
2.146	85.462
2.14	85.4936
2.134	85.5689
2.128	85.4211
2.122	85.3476
2.116	85.2214
2.11	85.0266
2.104	84.8418
2.098	84.8101
2.092	84.8769
2.086	85.0009
2.08	85.1112
2.074	85.1507
2.068	85.1589
2.062	85.1721
2.056	85.2196
2.05	85.1648
2.044	85.1847
2.038	84.9424
2.032	84.6989
2.026	84.4819
2.02	84.0528
2.014	83.6121
2.008	82.9125
2.002	81.8796
1.996	80.3003
1.99	78.7714
1.984	77.7384
1.978	76.9952
1.972	76.3916
1.966	76.0782
1.96	75.2659
1.954	73.4041
1.948	72.0378
1.942	71.8272
1.936	72.6905
1.93	74.5114
1.924	76.6305
1.918	78.4852
1.912	80.0177
1.906	81.6241
1.9	83.0736
1.894	84.2592
1.888	85.3302
1.882	86.3559
1.876	87.0487
1.87	87.7646
1.864	88.2499
1.858	88.5001
1.852	88.7013
1.846	88.8599
1.84	88.9423
1.834	88.8755
1.828	88.8846
1.822	88.8516
1.816	88.92
1.81	88.8898
1.804	88.8189
1.798	88.7095
1.792	88.7244
1.786	88.5317
1.78	88.4689
1.774	88.304
1.768	88.2758
1.762	88.2065
1.756	88.1843
1.75	88.125
1.744	88.1675
1.738	88.4146
1.732	88.7093
1.726	88.8844
1.72	89.1469
1.714	89.2441
1.708	89.4505
1.702	89.5363
1.696	89.5665
1.69	89.6332
1.684	89.551
1.678	89.6412
1.672	89.5418
1.666	89.6247
1.66	89.5625
1.654	89.5897
1.648	89.5487
1.642	89.5241
1.636	89.5503
1.63	89.3173
1.624	89.4835
1.618	89.3992
1.612	89.3268
1.606	89.267
1.6	89.1667
1.594	89.0734
1.588	89.0442
1.582	88.8796
1.576	88.7759
1.57	88.7072
1.564	88.5712
1.558	88.4809
1.552	88.2187
1.546	87.9212
1.54	87.7952
1.534	87.7693
1.528	87.7509
1.522	87.7591
1.516	87.7772
1.51	87.5722
1.504	87.3043
1.498	86.922
1.492	86.6451
1.486	86.6746
1.48	86.7436
1.474	86.6493
1.468	86.5113
1.462	86.3342
1.456	86.0244
1.45	85.3668
1.444	85.4258
1.438	86.2057
1.432	86.7731
1.426	86.964
1.42	87.4201
1.414	87.7423
1.408	88.1335
1.402	88.3996
1.396	88.6999
1.39	88.9567
1.384	88.94
1.378	88.959
1.372	89.072
1.366	89.1874
1.36	89.0866
1.354	89.1919
1.348	89.2979
1.342	89.3348
1.336	89.2526
1.33	89.1875
1.324	89.2478
1.318	89.324
1.312	89.3896
1.306	89.2687
1.3	89.2644
1.294	89.3053
1.288	89.3073
1.282	89.2689
1.276	89.1841
1.27	89.1193
1.264	89.156
1.258	89.1497
1.252	89.1184
1.246	89.1001
1.24	89.011
1.234	88.9405
1.228	89.0039
1.222	89.004
1.216	88.879
1.21	88.7929
1.204	88.6863
1.198	88.7282
1.192	88.7554
1.186	88.7294
1.18	88.7719
1.174	88.7166
1.168	88.8065
1.162	88.8128
1.156	88.8238
1.15	88.8085
1.144	88.851
1.138	88.7779
1.132	88.8094
1.126	88.7316
1.12	88.7647
1.114	88.7306
1.108	88.7296
1.102	88.6593
1.096	88.8097
1.09	88.5669
1.084	88.7327
1.078	88.7116
1.072	88.714
1.066	88.6866
1.06	88.6049
1.054	88.523
1.048	88.5024
1.042	88.4441
1.036	88.5984
1.03	88.4567
1.024	88.5541
1.018	88.4632
1.012	88.4039
1.006	88.4807
1	88.3662
0.994	88.3044
0.988	88.3447
0.982	88.2398
0.976	88.3435
0.97	88.3471
0.964	88.2908
0.958	88.3295
0.952	88.3186
0.946	88.3174
0.94	88.3838
0.934	88.3466
0.928	88.2208
0.922	88.3237
0.916	88.3135
0.91	88.3406
0.904	88.3682
0.898	88.378
0.892	88.3764
0.886	88.3774
0.88	88.2788
0.874	88.3409
0.868	88.2435
0.862	88.2254
0.856	88.3257
0.85	88.3752
0.844	88.3592
0.838	88.2917
0.832	88.3054
0.826	88.2197
0.82	88.2304
0.814	88.1363
0.808	88.0961
0.802	88.0624
0.796	87.9357
0.79	87.8915
0.784	87.7773
0.778	87.6902
0.772	87.5742
0.766	87.4423
0.76	87.2786
0.754	87.1279
0.748	86.9833
0.742	86.8699
0.736	86.6232
0.73	86.4817
0.724	86.2279
0.718	86.0661
0.712	85.8753
0.706	85.6975
0.7	85.5359
0.694	85.3413
0.688	85.1678
0.682	84.9917
0.676	84.8167
0.67	84.6342
0.664	84.4666
0.658	84.3235
0.652	84.1394
0.646	83.9927
0.64	83.8445
0.634	83.6726
0.628	83.5418
0.622	83.4152
0.616	83.2982
0.61	83.2292
0.604	83.136
0.598	83.1317
0.592	83.1072
0.586	83.0544
0.58	83.0176
0.574	82.9622
0.568	82.8886
0.562	82.8178
0.556	82.7904
0.55	82.7229
0.544	82.6499
0.538	82.572
0.532	82.5063
0.526	82.3991
0.52	82.2924
0.514	82.2198
0.508	82.0978
0.502	82.0055
0.496	81.8811
0.49	81.7343
0.484	81.6013
0.478	81.345
0.472	81.1649
0.466	80.9671
0.46	80.7228
0.454	80.5305
0.448	80.3008
0.442	80.0258
0.436	79.7595
0.43	79.4692
0.424	79.164
0.418	78.8545
0.412	78.5355
0.406	78.2089
0.4	77.9032
