Name: Smithsonite PbCO_3
Type: Mineral
Class: Carbonate
Subclass: None
Particle Size: Fine
Sample No.: C-11A
Owner: JPL
Wavelength Range: VSWIR
Origin: None.
Description: Particle size was 0-45um.Collected by:  JPL Original ASTER Spectral Library name was jpl.perkin.mineral.carbonate.none.fine.c11a.spectrum.txt
Measurement: Hemispherical reflectance
X Units: Wavelength (micrometers)
Y Units: Reflectance (percent)
wavelength	value
2.5	68.2709
2.494	68.4237
2.488	69.2496
2.482	70.1939
2.476	70.9968
2.47	72.1108
2.464	73.0399
2.458	74.0037
2.452	74.7222
2.446	75.4773
2.44	75.9873
2.434	76.4888
2.428	76.8981
2.422	77.373
2.416	77.6862
2.41	78.0149
2.404	78.2732
2.398	78.0871
2.392	77.4674
2.386	76.3399
2.38	74.9999
2.374	73.9092
2.368	73.3152
2.362	73.1204
2.356	73.4047
2.35	73.7369
2.344	74.2086
2.338	74.4722
2.332	74.7227
2.326	74.9673
2.32	75.3334
2.314	75.7106
2.308	76.2071
2.302	76.7355
2.296	77.3856
2.29	77.9913
2.284	78.5952
2.278	79.1016
2.272	79.6641
2.266	80.0796
2.26	80.5314
2.254	80.9378
2.248	81.3069
2.242	81.7753
2.236	82.1609
2.23	82.4431
2.224	82.7199
2.218	83.0663
2.212	83.4085
2.206	83.6386
2.2	83.8766
2.194	83.8817
2.188	84.0891
2.182	84.2174
2.176	84.3156
2.17	84.3337
2.164	84.3659
2.158	84.6073
2.152	84.7866
2.146	85.0098
2.14	85.0677
2.134	85.0409
2.128	84.9048
2.122	84.7348
2.116	84.3936
2.11	84.1956
2.104	84.0143
2.098	83.8414
2.092	83.8604
2.086	83.9669
2.08	83.9848
2.074	84.0737
2.068	84.0764
2.062	84.1234
2.056	84.179
2.05	84.1665
2.044	84.2846
2.038	84.2503
2.032	84.2164
2.026	84.068
2.02	83.9456
2.014	83.7157
2.008	83.6776
2.002	83.7861
1.996	83.9132
1.99	83.9321
1.984	83.9393
1.978	84.013
1.972	84.0574
1.966	84.1149
1.96	84.1302
1.954	84.2364
1.948	84.2932
1.942	84.4836
1.936	84.59
1.93	84.7794
1.924	85.048
1.918	85.3172
1.912	85.4885
1.906	85.7936
1.9	85.8598
1.894	85.8478
1.888	86.0306
1.882	86.4993
1.876	86.8067
1.87	87.0468
1.864	87.2996
1.858	87.3574
1.852	87.448
1.846	87.6752
1.84	87.7663
1.834	87.8197
1.828	87.8835
1.822	88.0221
1.816	88.0831
1.81	88.1702
1.804	88.1918
1.798	88.2826
1.792	88.2844
1.786	88.2065
1.78	88.2397
1.774	88.2087
1.768	88.2184
1.762	88.257
1.756	88.3196
1.75	88.3919
1.744	88.3883
1.738	88.4728
1.732	88.4971
1.726	88.5537
1.72	88.6394
1.714	88.705
1.708	88.7541
1.702	88.678
1.696	88.7226
1.69	88.7585
1.684	88.7467
1.678	88.8419
1.672	88.8255
1.666	88.8559
1.66	88.8999
1.654	88.96
1.648	88.8672
1.642	88.882
1.636	88.9578
1.63	89.0166
1.624	89.0775
1.618	89.1031
1.612	89.0892
1.606	89.2073
1.6	89.2485
1.594	89.1572
1.588	89.1664
1.582	89.1242
1.576	89.1226
1.57	89.1274
1.564	89.1559
1.558	89.1655
1.552	89.1788
1.546	89.0999
1.54	89.2192
1.534	89.1301
1.528	89.1207
1.522	89.183
1.516	89.177
1.51	89.1607
1.504	89.1072
1.498	89.1764
1.492	89.1399
1.486	89.0896
1.48	89.1552
1.474	89.0839
1.468	89.0514
1.462	89.0909
1.456	89.0737
1.45	89.1356
1.444	89.126
1.438	89.1085
1.432	89.1554
1.426	89.1865
1.42	89.241
1.414	89.2119
1.408	89.3173
1.402	89.4153
1.396	89.505
1.39	89.5968
1.384	89.6074
1.378	89.5834
1.372	89.5364
1.366	89.5128
1.36	89.4409
1.354	89.4902
1.348	89.3827
1.342	89.2942
1.336	89.3064
1.33	89.2234
1.324	89.1583
1.318	89.1056
1.312	88.9905
1.306	88.8674
1.3	88.9004
1.294	88.7687
1.288	88.6789
1.282	88.5889
1.276	88.5196
1.27	88.3743
1.264	88.3299
1.258	88.2224
1.252	88.1291
1.246	88.0317
1.24	87.9346
1.234	87.8546
1.228	87.7802
1.222	87.7414
1.216	87.6351
1.21	87.5551
1.204	87.5209
1.198	87.4648
1.192	87.4101
1.186	87.4078
1.18	87.2429
1.174	87.2239
1.168	87.1955
1.162	87.0957
1.156	87.0111
1.15	87.0055
1.144	86.9542
1.138	86.8986
1.132	86.7576
1.126	86.7423
1.12	86.6042
1.114	86.4911
1.108	86.4387
1.102	86.2844
1.096	86.2056
1.09	86.0658
1.084	85.9655
1.078	85.8219
1.072	85.6331
1.066	85.4586
1.06	85.392
1.054	85.1871
1.048	84.9648
1.042	84.9119
1.036	84.7341
1.03	84.6668
1.024	84.5504
1.018	84.4243
1.012	84.2002
1.006	84.1306
1	83.9799
0.994	83.9579
0.988	83.8895
0.982	83.821
0.976	83.7577
0.97	83.6748
0.964	83.6905
0.958	83.6234
0.952	83.6456
0.946	83.7118
0.94	83.6893
0.934	83.7364
0.928	83.8928
0.922	83.8965
0.916	84.0145
0.91	84.0874
0.904	84.2273
0.898	84.3603
0.892	84.5239
0.886	84.6478
0.88	84.7954
0.874	84.9745
0.868	85.0448
0.862	85.2969
0.856	85.632
0.85	85.7343
0.844	85.9728
0.838	86.1979
0.832	86.3555
0.826	86.4958
0.82	86.6943
0.814	86.8345
0.808	87.0286
0.802	87.1989
0.796	87.2292
0.79	87.4229
0.784	87.5819
0.778	87.6439
0.772	87.7406
0.766	87.8477
0.76	87.937
0.754	88.0554
0.748	88.1318
0.742	88.226
0.736	88.3052
0.73	88.4356
0.724	88.4778
0.718	88.5695
0.712	88.6517
0.706	88.7178
0.7	88.8105
0.694	88.8793
0.688	88.9476
0.682	89.0301
0.676	89.0858
0.67	89.1839
0.664	89.2497
0.658	89.3304
0.652	89.3705
0.646	89.4302
0.64	89.4922
0.634	89.5252
0.628	89.5738
0.622	89.6583
0.616	89.705
0.61	89.7299
0.604	89.7103
0.598	89.7745
0.592	89.7887
0.586	89.742
0.58	89.6707
0.574	89.5462
0.568	89.4002
0.562	89.1904
0.556	88.9841
0.55	88.7087
0.544	88.5259
0.538	88.3218
0.532	88.1594
0.526	87.9907
0.52	87.8459
0.514	87.7288
0.508	87.6206
0.502	87.5564
0.496	87.4356
0.49	87.2988
0.484	87.0999
0.478	86.9529
0.472	86.848
0.466	86.7437
0.46	86.5817
0.454	86.3788
0.448	86.1282
0.442	85.7901
0.436	85.3999
0.43	84.9843
0.424	84.5595
0.418	84.1594
0.412	83.7198
0.406	83.3641
0.4	82.8623
