Name: Gypsum (alabaster) CaSO4.2H20
Type: Mineral
Class: Sulfate
Subclass: None
Particle Size: Coarse
Sample No.: gypsum_1
Owner: JHU
Wavelength Range: TIR
Origin: Pomaia, Italy via Hunt and Salisbury Collection #26B(purchased from Ward's Natural Science Establishment).
Description: The sample was white, translucent, and appeared pure, both in hand sample and under the microscope. XRD Analysis- Pure gypsum. Particle size was 74-250 Micrometers. Original ASTER Spectral Library name was jhu.nicolet.mineral.sulfate.none.coarse.gypsum1.spectrum.txt
Measurement: Bidirectional reflectance
X Units: Wavelength (micrometers)
Y Units: Reflectance (percent)
wavelength	value
25.0442	1.4885
24.3388	1.6326
23.6719	1.8696
23.0407	1.8235
22.4422	1.7092
21.8741	1.7991
21.334	1.9321
20.8199	1.9053
20.33	1.9443
19.8627	1.8794
19.4163	1.8967
18.9896	1.885
18.5812	1.8657
18.19	1.8425
17.815	1.8591
17.4551	1.925
17.1094	2.0603
16.7772	2.3804
16.4576	1.8374
16.15	1.4929
15.8537	1.3901
15.568	1.4924
15.2925	1.6077
15.0265	2.168
14.7697	2.4026
14.5214	1.7258
14.2814	1.4692
14.0492	1.405
13.8244	1.5598
13.6067	1.6641
13.3957	1.7222
13.1912	1.7866
12.9929	1.8105
12.8004	1.8423
12.6135	1.8496
12.432	1.8769
12.2557	1.9382
12.0843	1.9355
11.9176	1.9321
11.7555	2.0037
11.5977	2.0332
11.444	2.094
11.2944	2.1518
11.1487	2.1501
11.0067	2.1804
10.8682	2.1848
10.7332	2.1643
10.6015	2.1565
10.473	2.1226
10.3476	2.0803
10.2251	2.0193
10.1056	1.9338
9.9887	1.791
9.8746	1.6921
9.763	1.9019
9.6539	1.9326
9.5472	1.8887
9.4429	1.9055
9.3408	1.968
9.2409	2.0464
9.1431	2.2454
9.0474	2.7195
8.9536	3.3931
8.8618	3.8069
8.7718	3.8845
8.6837	4.5986
8.5973	5.5857
8.5126	5.647
8.4295	5.5627
8.3481	5.6362
8.2682	5.2632
8.1898	4.4934
8.1129	3.8242
8.0374	3.012
7.9634	1.9236
7.8906	0.9565
7.8192	0.4783
7.7491	0.4404
7.6802	0.5181
7.6126	0.6389
7.5461	0.7707
7.4807	0.9241
7.4165	1.1169
7.3534	1.3086
7.2914	1.5415
7.2303	1.801
7.1703	2.0188
7.1113	2.217
7.0533	2.436
6.9962	2.6648
6.94	2.8784
6.8847	3.0351
6.8302	3.1882
6.7767	3.3411
6.7239	3.4282
6.672	3.4265
6.6209	3.3691
6.5705	3.1623
6.5209	2.886
6.4721	2.6931
6.424	2.5415
6.3766	2.4993
6.3299	2.2502
6.2838	1.9111
6.2385	1.4748
6.1937	1.1191
6.1496	1.1482
6.1062	1.2544
6.0633	1.7075
6.0211	2.126
5.9794	2.4597
5.9383	2.7041
5.8978	3.0693
5.8578	3.5918
5.8184	3.8948
5.7794	4.1531
5.741	4.3701
5.7031	4.665
5.6657	4.9072
5.6288	5.1267
5.5924	5.2615
5.5564	5.406
5.5209	5.6062
5.4859	5.7705
5.4513	5.9453
5.4171	6.1584
5.3833	6.3701
5.35	6.5151
5.3171	6.6228
5.2846	6.6784
5.2524	6.7434
5.2207	6.7478
5.1893	6.6963
5.1584	6.6076
5.1277	6.5093
5.0975	6.4243
5.0676	6.3193
5.038	6.218
5.0088	6.0847
4.98	5.6933
4.9514	5.6692
4.9232	5.6267
4.8953	5.5095
4.8678	5.3572
4.8405	5.105
4.8135	4.613
4.7868	3.8074
4.7605	3.4206
4.7344	3.0525
4.7086	2.2856
4.6831	1.7629
4.6578	2.1172
4.6328	2.1172
4.6081	2.1418
4.5837	2.5442
4.5595	2.8293
4.5356	2.7873
4.5119	2.5161
4.4884	2.2424
4.4652	2.2986
4.4423	2.4163
4.4196	2.6921
4.3971	3.0044
4.3748	3.2527
4.3528	3.3455
4.331	3.4678
4.3094	3.6423
4.288	3.8376
4.2668	4.1284
4.2458	4.5461
4.2251	5.1655
4.2045	5.8386
4.1841	6.3952
4.164	6.8139
4.144	7.1208
4.1242	7.4065
4.1046	7.6914
4.0852	7.9638
4.066	8.2124
4.047	8.4533
4.0281	8.6601
4.0094	8.8159
3.9909	8.9182
3.9725	8.8718
3.9544	9.1841
3.9363	9.3967
3.9185	9.5261
3.9008	9.6094
3.8833	9.5788
3.8659	9.5224
3.8487	9.7475
3.8316	9.7932
3.8147	9.7629
3.7979	9.6833
3.7813	9.7029
3.7648	9.7678
3.7485	9.7688
3.7323	9.7326
3.7162	9.6953
3.7003	9.6379
3.6845	9.5356
3.6689	9.4419
3.6534	9.3406
3.638	9.2405
3.6227	9.1262
3.6076	9.0002
3.5926	8.8608
3.5777	8.7224
3.563	8.5866
3.5484	8.4631
3.5338	8.3386
3.5195	8.2436
3.5052	8.112
3.491	8.0019
3.477	7.8728
3.463	7.7563
3.4492	7.594
3.4355	7.4211
3.4219	7.229
3.4084	7.0513
3.395	6.9043
3.3817	6.72
3.3685	6.5444
3.3554	6.3733
3.3425	6.1997
3.3296	6.0168
3.3168	5.8367
3.3041	5.6304
3.2915	5.435
3.279	5.2422
3.2666	5.0688
3.2543	4.8926
3.2421	4.7261
3.23	4.5688
3.218	4.4143
3.206	4.2644
3.1942	4.1184
3.1824	3.9563
3.1707	3.7839
3.1591	3.6387
3.1476	3.4824
3.1362	3.2947
3.1249	3.0879
3.1136	2.9343
3.1024	2.9333
3.0913	2.9202
3.0803	2.8845
3.0694	2.884
3.0585	2.8408
3.0477	2.7883
3.037	2.7307
3.0264	2.6626
3.0158	2.583
3.0053	2.511
2.9949	2.4517
2.9845	2.396
2.9743	2.3403
2.9641	2.2666
2.9539	2.2358
2.9439	2.2073
2.9339	2.1833
2.9239	2.166
2.9141	2.085
2.9043	1.9839
2.8946	1.9045
2.8849	1.863
2.8753	1.7996
2.8658	1.7507
2.8563	1.7002
2.8469	1.6802
2.8375	1.5925
2.8282	1.4609
2.819	1.2764
2.8098	1.1562
2.8007	1.1809
2.7917	1.2957
2.7827	1.1848
2.7738	1.0029
2.7649	0.9495
2.7561	1.0515
2.7473	1.2961
2.7386	1.6868
2.7299	2.1789
2.7213	2.6907
2.7128	3.2368
2.7043	3.7429
2.6959	4.2041
2.6875	4.6387
2.6791	5.0312
2.6709	5.3674
2.6626	5.6802
2.6545	5.9451
2.6463	6.1406
2.6382	6.3086
2.6302	6.4685
2.6222	6.6174
2.6143	6.7402
2.6064	6.8271
2.5986	6.8945
2.5908	6.9311
2.583	6.9668
2.5753	6.9668
2.5677	6.9695
2.5601	6.9714
2.5525	6.925
2.545	6.9265
2.5375	6.917
2.5301	6.8479
2.5227	6.7859
2.5154	6.6838
2.5081	6.5676
2.5008	6.4936
2.4936	6.4223
2.4864	6.3752
2.4793	6.3711
2.4722	6.437
2.4651	6.5168
2.4581	6.5974
2.4511	6.7556
2.4442	6.8857
2.4373	7.0425
2.4305	7.206
2.4236	7.3921
2.4169	7.5898
2.4101	7.8357
2.4034	8.1374
2.3967	8.469
2.3901	8.8066
2.3835	9.1428
2.377	9.4573
2.3704	9.7082
2.364	9.8767
2.3575	10.0852
2.3511	10.2715
2.3447	10.3691
2.3384	10.4873
2.3321	10.56
2.3258	10.6076
2.3195	10.6479
2.3133	10.6567
2.3071	10.6814
2.301	10.6418
2.2949	10.6323
2.2888	10.5576
2.2828	10.4778
2.2767	10.3738
2.2708	10.2585
2.2648	10.2297
2.2589	10.372
2.253	10.3637
2.2471	10.3794
2.2413	10.383
2.2355	10.2947
2.2297	10.188
2.224	10.0166
2.2183	9.9128
2.2126	9.9787
2.207	10.0708
2.2013	10.1543
2.1957	10.2397
2.1902	10.2627
2.1846	10.3501
2.1791	10.3083
2.1736	10.372
2.1682	10.4548
2.1628	10.5207
2.1574	10.6001
2.152	10.6059
2.1466	10.6643
2.1413	10.7053
2.136	10.7768
2.1308	10.8051
2.1255	10.8454
2.1203	10.9873
2.1151	11.0683
2.11	11.0967
2.1048	11.1523
2.0997	11.145
2.0946	11.2934
2.0895	11.3676
2.0845	11.4126
2.0795	11.4177
