Name: Natrojarosite NaFe_3^3+(SO_4)_2(OH)_6
Type: Mineral
Class: Sulfate
Subclass: None
Particle Size: Fine
Sample No.: SO-7C
Owner: JPL
Wavelength Range: VSWIR
Origin: USA, Utah, Tooele County, Gold Hill
Description: Particle size was 0-45um.Collected by Ward's Original ASTER Spectral Library name was jpl.beckman.mineral.sulfate.none.fine.so07c.spectrum.txt
Measurement: Hemispherical reflectance
X Units: Wavelength (micrometers)
Y Units: Reflectance (percent)
wavelength	value
0.4	5.42
0.403	6.65
0.406	7.66
0.409	8.38
0.412	8.99
0.415	9.52
0.418	9.51
0.421	9.58
0.424	9.29
0.427	8.92
0.43	8.32
0.433	8.05
0.436	8.44
0.439	9.2
0.442	10.24
0.445	11.39
0.448	12.48
0.451	13.64
0.454	14.58
0.457	15.5
0.46	16.01
0.463	16.79
0.466	17.52
0.469	18.08
0.472	18.59
0.475	19.17
0.478	19.77
0.481	20.39
0.484	21.04
0.487	21.59
0.49	22.27
0.493	22.93
0.496	23.79
0.499	24.6
0.502	25.38
0.505	26.23
0.508	27.13
0.511	28.19
0.514	29.24
0.517	30.33
0.52	31.53
0.523	32.67
0.526	34.16
0.529	35.5
0.532	36.89
0.535	38.49
0.538	39.96
0.541	41.6
0.544	43.22
0.547	44.61
0.55	46.16
0.553	47.53
0.556	49.01
0.559	50.06
0.562	51.71
0.565	52.97
0.568	53.8
0.571	54.81
0.574	55.59
0.577	56.18
0.58	56.86
0.583	57.39
0.586	57.89
0.589	58.5
0.592	58.75
0.595	59.15
0.598	59.57
0.601	59.98
0.604	60.27
0.607	60.54
0.61	60.8
0.613	61.08
0.616	61.51
0.619	61.63
0.622	61.91
0.625	62.16
0.628	62.43
0.631	62.77
0.634	62.85
0.637	63.22
0.64	63.49
0.643	63.74
0.646	64.06
0.649	64.4
0.652	64.73
0.655	65.08
0.658	65.42
0.661	65.73
0.664	66.01
0.667	66.49
0.67	66.81
0.673	67.23
0.676	67.56
0.679	67.94
0.682	68.37
0.685	68.78
0.688	69.29
0.691	69.59
0.694	69.88
0.697	70.26
0.7	70.42
0.703	70.93
0.706	71.32
0.709	71.56
0.712	71.81
0.715	71.99
0.718	72.2
0.721	72.35
0.724	72.54
0.727	72.51
0.73	72.54
0.733	72.61
0.736	72.44
0.739	72.41
0.742	72.2
0.745	72.04
0.748	71.78
0.751	71.64
0.754	71.43
0.757	71.04
0.76	70.65
0.763	70.3
0.766	69.89
0.769	69.53
0.772	69.03
0.775	68.62
0.778	68.07
0.781	67.63
0.784	67.23
0.787	66.67
0.79	66.15
0.793	65.67
0.796	65.37
0.799	64.99
0.808	63.49
0.82	61.76
0.832	60.19
0.844	58.82
0.856	57.76
0.868	56.87
0.88	56.22
0.892	55.8
0.904	55.57
0.916	55.48
0.928	55.51
0.94	55.98
0.952	56.35
0.964	57.11
0.976	57.93
0.988	59.09
1	59.98
1.012	61.37
1.024	62.68
1.036	63.96
1.048	65.32
1.06	66.61
1.072	67.79
1.084	68.99
1.096	69.96
1.108	71.01
1.12	71.93
1.132	72.8
1.144	73.54
1.156	74.33
1.168	75.07
1.18	75.85
1.192	76.54
1.204	77.32
1.216	78.02
1.228	78.89
1.24	79.5
1.252	80.28
1.264	80.99
1.276	81.68
1.288	82.46
1.3	83.21
1.312	83.88
1.324	84.47
1.336	85.09
1.348	85.71
1.36	86.36
1.372	86.84
1.384	87.35
1.396	87.77
1.408	88.17
1.42	88.37
1.432	88.48
1.444	88.23
1.456	86.65
1.468	83.72
1.48	84.23
1.492	87.04
1.504	87.53
1.516	87.38
1.528	87.13
1.54	87.31
1.552	87.57
1.564	87.92
1.576	88.48
1.588	88.99
1.6	89.47
1.612	89.66
1.624	89.8
1.636	90.14
1.648	90.41
1.66	90.56
1.672	90.6
1.684	90.79
1.696	90.96
1.708	91.12
1.72	91.12
1.732	91
1.744	90.78
1.756	90.49
1.768	90.21
1.78	90.1
1.792	89.87
1.804	89.25
1.816	88.43
1.828	86.29
1.84	83.48
1.852	83.48
1.864	85.38
1.876	87.82
1.888	88.7
1.9	88.74
1.912	88.45
1.924	87.93
1.936	87.47
1.948	87.26
1.96	87.19
1.972	87.02
1.984	86.8
1.996	86.61
2.008	86.51
2.02	86.36
2.032	85.89
2.044	85.45
2.056	85.17
2.068	84.77
2.08	84.52
2.092	84.2
2.104	84.07
2.116	83.84
2.128	83.4
2.14	82.81
2.152	82.19
2.164	81.64
2.176	81.08
2.188	79.99
2.2	78.81
2.212	77.44
2.224	76.5
2.236	75.41
2.248	73.29
2.26	71.05
2.272	71.54
2.284	74
2.296	76.94
2.308	79.51
2.32	81.28
2.332	82.24
2.344	82.17
2.356	81.48
2.368	80.03
2.38	77.98
2.392	75.42
2.404	73.55
2.416	72.82
2.428	72.25
2.44	71.41
2.452	70.4
2.464	69.7
2.476	69.22
2.488	68.66
2.5	67.75
