Name: Alunite (potassium alunite) KAl3(SO4)2(OH)6
Type: Mineral
Class: Sulfate
Subclass: None
Particle Size: Coarse
Sample No.: alunite_3
Owner: JHU
Wavelength Range: TIR
Origin: Synthetic; Synthesized by Roger Stoffregen, supplied by PhilBethke (USGS).
Description: The sample was a light gray, microcrystalline powder composed of equant or lath-shaped crystallites from 1 to 15 micrometers in largest dimension.Particle size was 0-15 micrometers, but packed powder simulates coarse. Original ASTER Spectral Library name was jhu.nicolet.mineral.sulfate.none.packed.alunit3.spectrum.txt
Measurement: Bidirectional Reflectance
X Units: Wavelength (micrometers)
Y Units: Reflectance (percent)
wavelength	value
25.0442	7.0371
24.3388	7.3752
23.6719	7.8557
23.0407	8.5566
22.4422	5.7959
21.8741	5.8301
21.334	6.331
20.8199	6.7688
20.33	6.4743
19.8627	6.626
19.4163	6.8374
18.9896	7.2173
18.5812	6.1926
18.19	6.5251
17.815	6.873
17.4551	7.1911
17.1094	7.8435
16.7772	9.8159
16.4576	9.5959
16.15	7.9653
15.8537	9.7446
15.568	10.6828
15.2925	5.5288
15.0265	6.9534
14.7697	8.831
14.5214	10.5058
14.2814	11.8911
14.0492	13.3911
13.8244	14.6858
13.6067	11.2011
13.3957	5.6279
13.1912	2.2556
12.9929	2.0325
12.8004	2.3567
12.6135	2.6929
12.432	2.9094
12.2557	3.071
12.0843	3.3335
11.9176	3.5029
11.7555	3.717
11.5977	3.831
11.444	3.9414
11.2944	4.0044
11.1487	4.1121
11.0067	4.2278
10.8682	4.4275
10.7332	4.6262
10.6015	4.7934
10.473	4.9304
10.3476	5.064
10.2251	5.0913
10.1056	5.1304
9.9887	5.1772
9.8746	5.1387
9.763	5.0161
9.6539	4.9065
9.5472	5.2021
9.4429	5.3664
9.3408	6.1308
9.2409	6.9934
9.1431	7.5188
9.0474	8.0693
8.9536	8.7766
8.8618	9.2832
8.7718	9.1198
8.6837	8.0425
8.5973	8.2138
8.5126	7.5625
8.4295	5.7949
8.3481	4.8747
8.2682	4.4702
8.1898	4.522
8.1129	4.8108
8.0374	5.2866
7.9634	6.2861
7.8906	6.7917
7.8192	5.6848
7.7491	3.4663
7.6802	2.2146
7.6126	1.865
7.5461	1.887
7.4807	1.9692
7.4165	2.1543
7.3534	2.3591
7.2914	2.4968
7.2303	2.6528
7.1703	2.7815
7.1113	2.845
7.0533	2.8245
6.9962	2.8423
6.94	2.9619
6.8847	3.0813
6.8302	3.1362
6.7767	3.1211
6.7239	3.1851
6.672	3.3589
6.6209	3.5391
6.5705	3.7395
6.5209	3.9802
6.4721	4.1413
6.424	4.2331
6.3766	4.2026
6.3299	4.1802
6.2838	4.1662
6.2385	4.1382
6.1937	3.9995
6.1496	3.8315
6.1062	3.7329
6.0633	3.7141
6.0211	3.7742
5.9794	3.8335
5.9383	3.8945
5.8978	4.0691
5.8578	4.4126
5.8184	4.6733
5.7794	4.8801
5.741	5.0847
5.7031	5.2463
5.6657	5.3769
5.6288	5.5146
5.5924	5.6108
5.5564	5.6987
5.5209	5.822
5.4859	5.9988
5.4513	6.2348
5.4171	6.4162
5.3833	6.5408
5.35	6.6313
5.3171	6.7268
5.2846	6.8252
5.2524	6.9289
5.2207	7.0305
5.1893	7.1025
5.1584	7.1806
5.1277	7.2588
5.0975	7.3181
5.0676	7.3828
5.038	7.4404
5.0088	7.4853
4.98	7.4995
4.9514	7.5107
4.9232	7.4748
4.8953	7.3425
4.8678	7.1399
4.8405	6.8362
4.8135	7.0742
4.7868	6.6858
4.7605	5.4397
4.7344	4.3437
4.7086	4.5015
4.6831	4.6255
4.6578	4.9018
4.6328	4.4307
4.6081	4.0615
4.5837	3.9311
4.5595	4.2795
4.5356	4.3347
4.5119	4.3911
4.4884	4.3911
4.4652	4.6811
4.4423	4.7656
4.4196	4.9177
4.3971	4.959
4.3748	4.7881
4.3528	4.8909
4.331	5.1868
4.3094	5.7165
4.288	5.9119
4.2668	6.0332
4.2458	6.1885
4.2251	6.4023
4.2045	6.4961
4.1841	6.4953
4.164	6.4482
4.144	6.3989
4.1242	6.3804
4.1046	6.3906
4.0852	6.4143
4.066	6.4419
4.047	6.4521
4.0281	6.4912
4.0094	6.5193
3.9909	6.5373
3.9725	6.5552
3.9544	6.6023
3.9363	6.6567
3.9185	6.6953
3.9008	6.7256
3.8833	6.7639
3.8659	6.7358
3.8487	6.8305
3.8316	6.8398
3.8147	6.8628
3.7979	6.8684
3.7813	6.8569
3.7648	6.8474
3.7485	6.8166
3.7323	6.779
3.7162	6.7319
3.7003	6.6631
3.6845	6.5759
3.6689	6.5078
3.6534	6.4165
3.638	6.3049
3.6227	6.2056
3.6076	6.1079
3.5926	5.9997
3.5777	5.8918
3.563	5.7859
3.5484	5.6733
3.5338	5.582
3.5195	5.4707
3.5052	5.364
3.491	5.2932
3.477	5.2034
3.463	5.1086
3.4492	5.032
3.4355	4.9106
3.4219	4.803
3.4084	4.7444
3.395	4.6953
3.3817	4.6091
3.3685	4.5583
3.3554	4.4665
3.3425	4.3794
3.3296	4.3379
3.3168	4.2668
3.3041	4.1941
3.2915	4.167
3.279	4.1335
3.2666	4.0774
3.2543	4.0625
3.2421	4.0212
3.23	3.9907
3.218	3.9731
3.206	3.9517
3.1942	3.916
3.1824	3.8796
3.1707	3.8647
3.1591	3.8254
3.1476	3.7749
3.1362	3.7214
3.1249	3.6196
3.1136	3.7158
3.1024	3.6057
3.0913	3.4275
3.0803	3.3735
3.0694	3.3977
3.0585	3.4258
3.0477	3.5085
3.037	3.5034
3.0264	3.4202
3.0158	3.2627
3.0053	3.3105
2.9949	3.2554
2.9845	3.0356
2.9743	2.7939
2.9641	2.6929
2.9539	2.5054
2.9439	2.3518
2.9339	2.4231
2.9239	2.4919
2.9141	2.4651
2.9043	2.4746
2.8946	2.3652
2.8849	2.1362
2.8753	2.0256
2.8658	3.8227
2.8563	1.8335
2.8469	2.085
2.8375	1.9043
2.8282	1.2529
2.819	1.6455
2.8098	1.9209
2.8007	2.2122
2.7917	2.5847
2.7827	2.9197
2.7738	3.2436
2.7649	4.2187
2.7561	5.1987
2.7473	5.7139
2.7386	6.6535
2.7299	7.7956
2.7213	8.7285
2.7128	9.9172
2.7043	10.8596
2.6959	11.5569
2.6875	11.5132
2.6791	11.469
2.6709	11.9636
2.6626	12.24
2.6545	12.6035
2.6463	13.4936
2.6382	13.4516
2.6302	13.2502
2.6222	13.1399
2.6143	13.0923
2.6064	12.7783
2.5986	12.893
2.5908	12.3076
2.583	11.9546
2.5753	12.1447
2.5677	12.1357
2.5601	12.073
2.5525	12.4756
2.545	12.3977
2.5375	11.9575
2.5301	11.8908
2.5227	10.7981
2.5154	9.7378
2.5081	9.9421
2.5008	11.3916
2.4936	12.0019
2.4864	12.8745
2.4793	12.728
2.4722	11.9724
2.4651	11.812
2.4581	12.6069
2.4511	12.937
2.4442	12.8899
2.4373	12.2422
2.4305	11.7641
2.4236	12.4072
2.4169	12.8857
2.4101	13.3398
2.4034	13.4668
2.3967	13.3418
2.3901	13.6548
2.3835	14.3764
2.377	15.1831
2.3704	15.6704
2.364	15.914
2.3575	16.0197
2.3511	16.0332
2.3447	15.9524
2.3384	15.6665
2.3321	15.1499
2.3258	14.6027
2.3195	14.2331
2.3133	14.7509
2.3071	15.5778
2.301	16.0715
2.2949	16.2519
2.2888	16.3559
2.2828	16.3779
2.2767	16.4228
2.2708	16.4304
2.2648	16.4663
2.2589	16.4272
2.253	16.4311
2.2471	16.4521
2.2413	16.4101
2.2355	16.3945
2.2297	16.2114
2.224	15.9765
2.2183	14.9621
2.2126	13.4809
2.207	13.5434
2.2013	14.6425
2.1957	14.3476
2.1902	13.3567
2.1846	12.9455
2.1791	12.5139
2.1736	12.9712
2.1682	12.5581
2.1628	12.8193
2.1574	12.5239
2.152	12.813
2.1466	13.2238
2.1413	13.3127
2.136	13.5171
2.1308	13.6916
2.1255	13.9174
2.1203	14.3989
2.1151	14.8674
2.11	15.163
2.1048	15.3593
2.0997	15.5422
2.0946	15.6767
2.0895	15.7981
2.0845	15.843
2.0795	15.8339
