Name: Anthophyllite (Mg,Fe^2+)_7Si_8O_22(OH)_2
Type: Mineral
Class: Silicate
Subclass: Inosilicate
Particle Size: Coarse
Sample No.: IN-8A
Owner: JPL
Wavelength Range: TIR
Origin: USA, North Carolina
Description: Particle size was 125-500um.Collected by Ward's Original ASTER Spectral Library name was jpl.nicolet.mineral.silicate.inosilicate.coarse.in08a.spectrum.txt
Measurement: Hemispherical reflectance
X Units: Wavelength (micrometers)
Y Units: Reflectance (percent)
wavelength	value
15.3853	3.9046
15.1161	4.6075
14.8563	9.9366
14.6052	8.0754
14.3624	2.2829
14.1276	1.229
13.9004	1.6763
13.6803	1.9776
13.4671	2.5019
13.2604	2.8171
13.06	3.0968
12.8656	3.2586
12.6769	3.3779
12.4936	4.091
12.3155	4.9194
12.1425	5.764
11.9742	6.5388
11.8106	6.5303
11.6513	7.2438
11.4963	8.4686
11.3454	9.822
11.1983	9.899
11.0551	10.0711
10.9154	10.0528
10.7793	10.9685
10.6465	11.8483
10.5169	11.9468
10.3904	10.6376
10.267	11.1584
10.1464	12.1871
10.0287	11.507
9.9136	13.3858
9.8012	19.8989
9.6913	22.9812
9.5838	23.075
9.4787	19.6671
9.3758	21.1332
9.2752	20.7953
9.1767	18.5781
9.0803	19.0005
8.9858	18.811
8.8934	17.2757
8.8028	15.9939
8.714	13.5416
8.627	9.2084
8.5417	5.647
8.4581	3.7977
8.3761	2.4644
8.2957	1.5251
8.2169	1.182
8.1395	1.0354
8.0635	0.9661
7.989	1.0169
7.9158	1.2005
7.8439	1.3271
7.7734	1.4491
7.7041	1.6848
7.636	1.8361
7.5691	1.9891
7.5034	2.2305
7.4388	2.5404
7.3753	2.7616
7.3129	3.0698
7.2515	3.4346
7.1912	3.5364
7.1318	3.9151
7.0734	4.2579
7.016	4.6934
6.9595	5.4068
6.9039	6.0902
6.8492	6.2938
6.7953	7.1353
6.7423	7.6235
6.6901	8.4272
6.6387	9.2423
6.5881	8.9075
6.5382	8.8553
6.4892	9.6875
6.4408	9.323
6.3931	9.4864
6.3462	9.7781
6.2999	9.3275
6.2543	9.3069
6.2094	8.943
6.1651	8.5115
6.1214	7.6898
6.0784	6.2987
6.0359	5.7202
5.994	5.3642
5.9527	5.6529
5.912	6.9305
5.8718	6.6275
5.8322	6.6401
5.7931	7.304
5.7545	7.6775
5.7165	7.4544
5.6789	6.8708
5.6418	6.9953
5.6052	6.7857
5.5691	6.5145
5.5334	6.5571
5.4982	6.5518
5.4635	7.0303
5.4291	8.0179
5.3952	8.3099
5.3618	8.4611
5.3287	8.9893
5.2961	9.5187
5.2638	9.5579
5.2319	8.9399
5.2004	9.0625
5.1693	10.2938
5.1386	10.869
5.1082	11.9573
5.0782	14.3994
5.0485	15.8886
5.0192	16.3929
4.9902	16.2013
4.9616	16.047
4.9332	16.0756
4.9052	17.6493
4.8776	19.6003
4.8502	21.0104
4.8231	21.8568
4.7963	22.5507
4.7699	23.5398
4.7437	24.4553
4.7178	24.5751
4.6922	24.9973
4.6668	25.62
4.6418	26.204
4.617	27.7294
4.5924	29.1378
4.5681	29.87
4.5441	30.4865
4.5203	30.8209
4.4968	31.075
4.4735	31.4851
4.4505	31.7791
4.4277	32.51
4.4051	32.9876
4.3828	33.4831
4.3607	33.935
4.3388	34.0375
4.3171	34.441
4.2956	34.8928
4.2744	35.2009
4.2534	35.238
4.2325	35.8468
4.2119	35.5867
4.1915	35.6045
4.1712	35.7577
4.1512	35.9286
4.1313	36.0384
4.1117	36.2619
4.0922	36.4614
4.0729	36.4049
4.0538	36.493
4.0349	36.5377
4.0161	36.587
3.9976	36.7376
3.9792	37.0399
3.9609	37.0304
3.9428	37.1283
3.9249	37.1188
3.9072	37.1792
3.8896	37.3353
3.8722	37.3374
3.8549	37.4057
3.8378	37.4455
3.8208	37.4443
3.804	37.6455
3.7873	37.7579
3.7708	37.8431
3.7544	37.8488
3.7382	37.9227
3.7221	37.9271
3.7061	37.8881
3.6903	37.2879
3.6746	37.8351
3.659	37.7961
3.6436	37.6827
3.6283	37.6629
3.6131	37.6078
3.5981	37.4877
3.5832	37.4392
3.5684	37.3069
3.5537	37.2503
3.5391	37.0359
3.5247	36.7502
3.5104	36.4155
3.4962	36.0597
3.4821	35.9885
3.4681	35.8807
3.4543	35.7474
3.4405	35.3452
3.4269	34.8769
3.4133	34.3012
3.3999	34.1091
3.3866	33.6249
3.3733	32.747
3.3602	30.9893
3.3472	31.596
3.3343	32.4239
3.3215	30.4666
3.3088	29.4785
3.2961	31.8846
3.2836	32.3385
3.2712	32.7581
3.2588	32.8684
3.2466	32.781
3.2345	32.373
3.2224	31.9637
3.2104	31.7525
3.1985	31.3306
3.1867	30.7109
3.175	30.1424
3.1634	29.6443
3.1519	29.4856
3.1404	29.5031
3.129	29.5575
3.1178	29.1143
3.1065	28.741
3.0954	28.2526
3.0844	27.9671
3.0734	27.6175
3.0625	27.1588
3.0517	26.9229
3.041	26.4592
3.0303	26.1734
3.0197	26.1253
3.0092	25.7376
2.9987	25.3033
2.9884	24.7208
2.9781	24.5276
2.9678	24.3285
2.9577	24.0626
2.9476	23.7386
2.9376	23.7068
2.9276	23.4058
2.9177	23.4782
2.9079	23.1342
2.8982	23.1602
2.8885	22.9982
2.8789	22.9716
2.8693	23.0694
2.8598	23.1048
2.8504	22.9051
2.841	22.8271
2.8317	22.6794
2.8224	22.3547
2.8133	22.0568
2.8041	21.7103
2.7951	21.0431
2.786	20.3072
2.7771	20.826
2.7682	20.7604
2.7594	20.5771
2.7506	19.5834
2.7418	18.2553
2.7332	13.5799
2.7246	11.1144
2.716	13.2106
2.7075	16.9083
2.699	22.2833
2.6906	33.2188
2.6823	38.9214
2.674	42.521
2.6657	45.5001
2.6575	43.6368
2.6494	43.1001
2.6413	43.5071
2.6332	43.7225
2.6252	43.6547
2.6173	44.0279
2.6094	43.3198
2.6015	42.3305
2.5937	43.5419
2.5859	41.3448
2.5782	40.2994
2.5706	40.3034
2.5629	40.554
2.5554	39.2113
2.5478	40.1682
2.5403	39.284
2.5329	39.0453
2.5255	38.6396
2.5181	38.0489
2.5108	38.203
2.5035	37.9141
2.4963	37.4195
2.4891	38.2708
2.482	38.1108
2.4749	37.2009
2.4678	35.5834
2.4608	36.0664
2.4538	36.8982
2.4468	37.2388
2.4399	37.0302
2.4331	36.9555
2.4262	36.5376
2.4194	38.2094
2.4127	38.2652
2.4059	37.9237
2.3993	35.4752
2.3926	32.7201
2.386	33.4217
2.3795	34.4207
2.3729	35.8032
2.3664	37.4753
2.36	38.0187
2.3535	37.9418
2.3471	38.3631
2.3408	37.8767
2.3345	36.6696
2.3282	34.2075
2.3219	30.9218
2.3157	26.0881
2.3095	25.7458
2.3034	30.4176
2.2972	33.3436
2.2911	29.419
2.2851	33.3106
2.279	37.1833
2.2731	38.6401
2.2671	39.8242
2.2612	41.3667
2.2553	42.0573
2.2494	42.6929
2.2435	42.9651
2.2377	42.9509
2.232	43.2399
2.2262	44.152
2.2205	44.9862
2.2148	45.7013
2.2091	45.7446
2.2035	46.1957
2.1979	46.139
2.1923	46.535
2.1868	46.6079
2.1812	46.6165
2.1758	46.7714
2.1703	46.933
2.1649	47.1933
2.1595	47.3543
2.1541	47.4621
2.1487	47.5025
2.1434	47.5631
2.1381	47.5598
2.1328	47.7118
2.1275	47.811
2.1223	48.2228
2.1171	48.3484
2.112	48.5768
2.1068	48.9446
2.1017	49.1822
2.0966	49.1688
2.0915	49.3094
2.0865	49.5165
2.0814	49.3356
2.0764	49.4178
2.0715	50.0094
2.0665	50.4514
2.0616	50.5169
2.0567	51.1781
2.0518	50.8958
2.0469	50.9145
2.0421	51.2856
2.0373	51.3484
2.0325	51.2475
2.0277	51.3564
2.0229	51.4678
2.0182	51.3944
2.0135	51.3643
2.0088	51.569
2.0042	51.6936
