Name: Saponite (Ca/2,Na)_0.33(Mg,Fe^2+)_3(Si,Al)_4O_10(OH)_2.4H_2O
Type: Mineral
Class: Silicate
Subclass: Phyllosilicate
Particle Size: Fine
Sample No.: PS-24A
Owner: JPL
Wavelength Range: VSWIR
Origin: USA, California, Ballarat
Description: Particle size was 0-45um.Collected by Clay Mineral Society Original ASTER Spectral Library name was jpl.beckman.mineral.silicate.phyllosilicate.fine.ps24a.spectrum.txt
Measurement: Hemispherical reflectance
X Units: Wavelength (micrometers)
Y Units: Reflectance (percent)
wavelength	value
0.4	60.68
0.403	62.19
0.406	62.89
0.409	63.77
0.412	64.39
0.415	65.06
0.418	65.74
0.421	66.32
0.424	66.99
0.427	67.37
0.43	68.04
0.433	68.67
0.436	69.22
0.439	69.85
0.442	70.27
0.445	70.51
0.448	71.09
0.451	71.45
0.454	71.76
0.457	72.22
0.46	72.65
0.463	73.77
0.466	74.65
0.469	75.68
0.472	76.58
0.475	77.38
0.478	77.96
0.481	78.65
0.484	79.22
0.487	79.45
0.49	79.96
0.493	80.46
0.496	81.02
0.499	81.48
0.502	81.86
0.505	82.32
0.508	82.72
0.511	82.9
0.514	83.36
0.517	83.55
0.52	84.04
0.523	84.18
0.526	84.65
0.529	85.02
0.532	85.06
0.535	85.16
0.538	85.47
0.541	85.53
0.544	85.63
0.547	85.72
0.55	86.04
0.553	86.17
0.556	86.07
0.559	86.2
0.562	86.87
0.565	87.07
0.568	86.97
0.571	86.75
0.574	86.74
0.577	86.97
0.58	86.94
0.583	87.02
0.586	87.16
0.589	87.27
0.592	87.34
0.595	87.27
0.598	87.42
0.601	87.63
0.604	87.76
0.607	87.72
0.61	87.85
0.613	87.79
0.616	87.73
0.619	87.67
0.622	87.8
0.625	87.69
0.628	87.85
0.631	87.9
0.634	88.08
0.637	87.92
0.64	87.96
0.643	88.19
0.646	88.15
0.649	88.43
0.652	88.37
0.655	88.69
0.658	88.7
0.661	88.65
0.664	88.71
0.667	89.09
0.67	89
0.673	89.1
0.676	89.22
0.679	89.32
0.682	89.57
0.685	89.51
0.688	89.46
0.691	89.78
0.694	89.8
0.697	90.01
0.7	90.01
0.703	89.98
0.706	90.03
0.709	90.3
0.712	90.48
0.715	90.42
0.718	90.42
0.721	90.47
0.724	90.6
0.727	90.43
0.73	90.42
0.733	90.65
0.736	90.42
0.739	90.54
0.742	90.65
0.745	90.82
0.748	90.49
0.751	90.6
0.754	90.77
0.757	90.77
0.76	90.88
0.763	90.77
0.766	90.83
0.769	90.78
0.772	90.77
0.775	90.83
0.778	90.77
0.781	90.72
0.784	90.61
0.787	90.77
0.79	90.55
0.793	90.44
0.796	90.49
0.799	90.59
0.808	90.49
0.82	90.19
0.832	89.89
0.844	89.82
0.856	89.64
0.868	89.28
0.88	89.16
0.892	89.03
0.904	88.85
0.916	88.67
0.928	88.55
0.94	87.78
0.952	87.53
0.964	87.8
0.976	87.9
0.988	88.03
1	88.26
1.012	88.44
1.024	88.61
1.036	88.62
1.048	88.73
1.06	88.88
1.072	89.01
1.084	89.15
1.096	89.29
1.108	89.27
1.12	89.38
1.132	89.1
1.144	87.84
1.156	87.69
1.168	88.51
1.18	88.87
1.192	89.03
1.204	89.49
1.216	89.67
1.228	89.87
1.24	90.25
1.252	90.39
1.264	90.36
1.276	90.12
1.288	90.22
1.3	89.92
1.312	89.28
1.324	88.24
1.336	87.22
1.348	86.34
1.36	85.23
1.372	82.6
1.384	66.67
1.396	70.41
1.408	67.76
1.42	69.34
1.432	72
1.444	73.64
1.456	74.06
1.468	75.44
1.48	77.68
1.492	79.4
1.504	80.84
1.516	81.86
1.528	82.79
1.54	83.68
1.552	84.41
1.564	84.95
1.576	85.52
1.588	85.85
1.6	86.31
1.612	86.6
1.624	86.78
1.636	87.06
1.648	87.14
1.66	87.26
1.672	87.22
1.684	87.14
1.696	86.9
1.708	86.44
1.72	85.87
1.732	85.04
1.744	84.31
1.756	83.42
1.768	82.67
1.78	81.86
1.792	81.43
1.804	80.96
1.816	80.59
1.828	80.04
1.84	79.08
1.852	77.21
1.864	73.28
1.876	64.68
1.888	52.87
1.9	44.37
1.912	45.04
1.924	49.37
1.936	52.54
1.948	54.4
1.96	56.1
1.972	58.2
1.984	60.59
1.996	63.14
2.008	65.45
2.02	67.39
2.032	69.01
2.044	70.19
2.056	70.97
2.068	71.61
2.08	71.97
2.092	72.11
2.104	72.54
2.116	72.87
2.128	73.13
2.14	73.49
2.152	73.52
2.164	73.45
2.176	73.48
2.188	73.48
2.2	73.42
2.212	73.12
2.224	72.77
2.236	72.27
2.248	71.36
2.26	69.53
2.272	65.59
2.284	60.48
2.296	55.49
2.308	53.56
2.32	56.11
2.332	60.31
2.344	61.88
2.356	60.7
2.368	57.68
2.38	54.88
2.392	54.16
2.404	54.46
2.416	54.03
2.428	52.72
2.44	51.09
2.452	49.66
2.464	48.52
2.476	47.56
2.488	46.69
2.5	46.08
