Name: Strontianite SrCO_3
Type: Mineral
Class: Carbonate
Subclass: None
Particle Size: Fine
Sample No.: C-1A
Owner: JPL
Wavelength Range: VSWIR
Origin: Germany, Westphalia, Hamm
Description: Particle size was 0-45um.Collected by Ward's Original ASTER Spectral Library name was jpl.beckman.mineral.carbonate.none.fine.c01a.spectrum.txt
Measurement: Hemispherical reflectance
X Units: Wavelength (micrometers)
Y Units: Reflectance (percent)
wavelength	value
0.4	78.75
0.403	79.68
0.406	79.56
0.409	80.08
0.412	80.31
0.415	80.71
0.418	80.89
0.421	81.12
0.424	81.35
0.427	81.29
0.43	81.57
0.433	81.41
0.436	81.92
0.439	82.03
0.442	82.61
0.445	82.21
0.448	82.84
0.451	82.44
0.454	83.25
0.457	83.19
0.46	83.55
0.463	83.62
0.466	83.33
0.469	84.31
0.472	83.85
0.475	84.03
0.478	84.16
0.481	84.04
0.484	84.62
0.487	84.23
0.49	84.81
0.493	84.53
0.496	85.05
0.499	84.94
0.502	85
0.505	85.29
0.508	85.12
0.511	85.63
0.514	85.17
0.517	85.57
0.52	85.45
0.523	86.03
0.526	86.03
0.529	86.21
0.532	86.27
0.535	86.38
0.538	86.55
0.541	86.21
0.544	86.79
0.547	86.61
0.55	86.61
0.553	86.55
0.556	86.84
0.559	86.9
0.562	87.41
0.565	87.41
0.568	87.36
0.571	87.82
0.574	87.41
0.577	87.99
0.58	87.47
0.583	87.65
0.586	87.59
0.589	87.65
0.592	87.7
0.595	87.36
0.598	87.76
0.601	87.82
0.604	88.17
0.607	88.4
0.61	88.63
0.613	88.68
0.616	88.46
0.619	89.03
0.622	88.57
0.625	88.97
0.628	88.85
0.631	88.79
0.634	89.08
0.637	88.68
0.64	89.37
0.643	88.91
0.646	89.26
0.649	89.26
0.652	89.2
0.655	89.49
0.658	89.43
0.661	89.72
0.664	89.49
0.667	89.78
0.67	89.49
0.673	89.37
0.676	89.84
0.679	89.37
0.682	89.78
0.685	89.61
0.688	90.01
0.691	89.9
0.694	89.84
0.697	90.19
0.7	89.84
0.703	89.49
0.706	90.01
0.709	89.84
0.712	90.01
0.715	89.84
0.718	90.07
0.721	89.84
0.724	90.07
0.727	89.9
0.73	89.43
0.733	90.01
0.736	89.66
0.739	89.95
0.742	89.9
0.745	89.66
0.748	90.07
0.751	89.78
0.754	90.24
0.757	89.66
0.76	90.18
0.763	89.95
0.766	90.07
0.769	90.19
0.772	89.84
0.775	90.35
0.778	89.95
0.781	90.19
0.784	90.13
0.787	89.9
0.79	90.13
0.793	89.95
0.796	90.41
0.799	89.72
0.808	89.66
0.82	89.55
0.832	89.61
0.844	89.84
0.856	89.95
0.868	89.84
0.88	89.95
0.892	90.01
0.904	89.84
0.916	89.9
0.928	90.07
0.94	90.01
0.952	90.19
0.964	90.13
0.976	90.24
0.988	90.35
1	90.29
1.012	90.41
1.024	90.46
1.036	90.46
1.048	90.58
1.06	90.52
1.072	90.52
1.084	90.81
1.096	90.58
1.108	90.81
1.12	90.81
1.132	90.87
1.144	91.04
1.156	90.92
1.168	90.95
1.18	90.88
1.192	90.92
1.204	91.13
1.216	91.07
1.228	91.13
1.24	91.24
1.252	91.19
1.264	91.27
1.276	91.43
1.288	91.22
1.3	91.32
1.312	91.25
1.324	91.28
1.336	91.32
1.348	91.29
1.36	91.52
1.372	91.34
1.384	91.4
1.396	91.23
1.408	91.13
1.42	91.33
1.432	91.4
1.444	91.6
1.456	91.2
1.468	91.43
1.48	91.43
1.492	91.38
1.504	91.49
1.516	91.67
1.528	91.49
1.54	91.55
1.552	91.72
1.564	91.61
1.576	91.72
1.588	91.78
1.6	91.9
1.612	91.82
1.624	91.67
1.636	91.88
1.648	91.75
1.66	91.73
1.672	91.77
1.684	91.91
1.696	91.77
1.708	91.76
1.72	91.82
1.732	91.76
1.744	91.71
1.756	91.82
1.768	91.82
1.78	91.71
1.792	91.71
1.804	91.69
1.816	91.59
1.828	91.39
1.84	91.42
1.852	91.28
1.864	90.91
1.876	90.67
1.888	90.35
1.9	90.45
1.912	90.48
1.924	90.69
1.936	90.5
1.948	90.7
1.96	90.59
1.972	90.69
1.984	90.8
1.996	90.84
2.008	90.67
2.02	91.28
2.032	91.53
2.044	91.71
2.056	91.88
2.068	92.17
2.08	91.94
2.092	92.16
2.104	92.15
2.116	92.16
2.128	92.08
2.14	91.87
2.152	91.44
2.164	90.76
2.176	90.64
2.188	90.79
2.2	90.62
2.212	90.3
2.224	90.09
2.236	89.7
2.248	89.26
2.26	88.38
2.272	87.97
2.284	87.06
2.296	86.29
2.308	85.41
2.32	84.41
2.332	83.18
2.344	83.13
2.356	84.76
2.368	87.11
2.38	88.76
2.392	89.45
2.404	89.89
2.416	89.53
2.428	89.17
2.44	88.37
2.452	87.19
2.464	85.6
2.476	84.08
2.488	83
2.5	82.25
