Name: Sodalite Na8Al6Si6O24Cl2
Type: Mineral
Class: Silicate
Subclass: Tectosilicate
Particle Size: Solid
Sample No.: sodalite_1
Owner: JHU
Wavelength Range: TIR
Origin: Bancroft, Ontario, Canada via Norma Vergo.
Description: The hand sample was a large chunk of vivid blue sodalite that appeared quite pure. Microscopic examination showed about 2% contamination with either a colorless mineral with 1 degreeyellow birefringence, or another colorless mineral with slight brownish staining, 2 degrees birefringence, and 2 directions of cleavage. One observed contaminant was a carbonate. Sample had fracture surface. (Framework silicates); Feldspathoid Group Original ASTER Spectral Library name was jhu.nicolet.mineral.silicate.tectosilicate.solid.sodali1.spectrum.txt
Measurement: Bidirectional reflectance
X Units: Wavelength (micrometers)
Y Units: Reflectance (percent)
wavelength	value
25.0442	6.1211
24.3388	6.791
23.6719	8.9458
23.0407	18.7099
22.4422	15.4814
21.8741	6.55
21.334	18.1181
20.8199	21.1354
20.33	16.5283
19.8627	1.5337
19.4163	0.6645
18.9896	1.3237
18.5812	1.6995
18.19	2.0591
17.815	2.3008
17.4551	2.5618
17.1094	2.7493
16.7772	2.9651
16.4576	3.1479
16.15	3.3613
15.8537	3.6033
15.568	3.9184
15.2925	4.5537
15.0265	6.9917
14.7697	2.2881
14.5214	3.1096
14.2814	4.0215
14.0492	5.2192
13.8244	4.0632
13.6067	9.1001
13.3957	3.0952
13.1912	1.5078
12.9929	2.1838
12.8004	2.5657
12.6135	2.7971
12.432	3.0315
12.2557	3.2334
12.0843	3.4414
11.9176	3.6328
11.7555	3.8528
11.5977	4.0517
11.444	4.3149
11.2944	4.5942
11.1487	4.9333
11.0067	5.3364
10.8682	5.9187
10.7332	6.7153
10.6015	7.9365
10.473	10.1343
10.3476	14.8254
10.2251	21.5908
10.1056	22.3642
9.9887	23.1537
9.8746	23.0869
9.763	23.206
9.6539	23.4643
9.5472	24.4343
9.4429	24.5002
9.3408	21.7758
9.2409	18.3342
9.1431	14.7212
9.0474	11.1716
8.9536	7.6186
8.8618	3.9663
8.7718	1.5068
8.6837	0.3811
8.5973	0.1345
8.5126	0.1794
8.4295	0.2888
8.3481	0.3894
8.2682	0.5029
8.1898	0.5916
8.1129	0.6711
8.0374	0.7424
7.9634	0.8223
7.8906	0.8921
7.8192	0.9524
7.7491	1.0139
7.6802	1.0596
7.6126	1.1091
7.5461	1.1545
7.4807	1.1367
7.4165	1.2246
7.3534	1.272
7.2914	1.3184
7.2303	1.3379
7.1703	1.3679
7.1113	1.394
7.0533	1.4185
6.9962	1.4416
6.94	1.4407
6.8847	1.4475
6.8302	1.4844
6.7767	1.5391
6.7239	1.5635
6.672	1.5947
6.6209	1.5918
6.5705	1.5913
6.5209	1.6321
6.4721	1.6311
6.424	1.6274
6.3766	1.6384
6.3299	1.6694
6.2838	1.677
6.2385	1.6811
6.1937	1.676
6.1496	1.6851
6.1062	1.6685
6.0633	1.6897
6.0211	1.6921
5.9794	1.7031
5.9383	1.6804
5.8978	1.6775
5.8578	1.637
5.8184	1.7251
5.7794	1.7993
5.741	1.8328
5.7031	1.8494
5.6657	1.8769
5.6288	1.9297
5.5924	1.9812
5.5564	1.9714
5.5209	1.9851
5.4859	2.0171
5.4513	2.0676
5.4171	2.1931
5.3833	2.281
5.35	2.3306
5.3171	2.3581
5.2846	2.3728
5.2524	2.3691
5.2207	2.333
5.1893	2.1892
5.1584	2.0229
5.1277	1.9126
5.0975	2.0664
5.0676	2.1509
5.038	2.1948
5.0088	2.2192
4.98	2.2578
4.9514	2.1987
4.9232	2.0681
4.8953	2.0737
4.8678	2.0796
4.8405	2.1899
4.8135	2.3184
4.7868	2.4082
4.7605	2.5383
4.7344	2.6125
4.7086	2.6052
4.6831	2.6003
4.6578	2.6621
4.6328	2.748
4.6081	2.8086
4.5837	2.8542
4.5595	2.8699
4.5356	2.8992
4.5119	2.896
4.4884	2.9123
4.4652	2.9314
4.4423	2.9409
4.4196	2.9497
4.3971	2.9482
4.3748	2.9646
4.3528	2.9775
4.331	2.9773
4.3094	2.9736
4.288	2.926
4.2668	2.8464
4.2458	2.9751
4.2251	3.0044
4.2045	3.0259
4.1841	3.0295
4.164	3.0344
4.144	3.0322
4.1242	3.03
4.1046	3.0408
4.0852	3.0613
4.066	3.0649
4.047	3.0642
4.0281	3.0671
4.0094	3.0698
3.9909	3.0696
3.9725	3.0713
3.9544	3.0657
3.9363	3.0686
3.9185	3.0735
3.9008	3.0774
3.8833	3.0889
3.8659	3.0847
3.8487	3.0784
3.8316	3.0762
3.8147	3.0725
3.7979	3.0415
3.7813	3.0112
3.7648	2.9824
3.7485	2.9993
3.7323	3.0312
3.7162	3.0434
3.7003	3.0437
3.6845	3.0403
3.6689	3.0403
3.6534	3.0388
3.638	3.0259
3.6227	3.0198
3.6076	3.008
3.5926	3.0032
3.5777	2.999
3.563	2.9834
3.5484	2.9768
3.5338	2.9646
3.5195	2.9416
3.5052	2.908
3.491	2.9014
3.477	2.9038
3.463	2.8811
3.4492	2.8596
3.4355	2.8252
3.4219	2.7817
3.4084	2.7851
3.395	2.7871
3.3817	2.7768
3.3685	2.7781
3.3554	2.7832
3.3425	2.7761
3.3296	2.7676
3.3168	2.7383
3.3041	2.6804
3.2915	2.6313
3.279	2.6777
3.2666	2.6736
3.2543	2.6601
3.2421	2.6367
3.23	2.6213
3.218	2.6064
3.206	2.6008
3.1942	2.5747
3.1824	2.5432
3.1707	2.521
3.1591	2.4973
3.1476	2.4856
3.1362	2.4614
3.1249	2.4404
3.1136	2.4316
3.1024	2.4048
3.0913	2.3774
3.0803	2.3599
3.0694	2.3374
3.0585	2.3132
3.0477	2.3091
3.037	2.2781
3.0264	2.2642
3.0158	2.2454
3.0053	2.2278
2.9949	2.209
2.9845	2.1885
2.9743	2.176
2.9641	2.1553
2.9539	2.1472
2.9439	2.124
2.9339	2.1196
2.9239	2.1018
2.9141	2.081
2.9043	2.0681
2.8946	2.043
2.8849	2.0356
2.8753	2.02
2.8658	2.0098
2.8563	1.9849
2.8469	1.9653
2.8375	1.9194
2.8282	1.9009
2.819	1.9377
2.8098	2.0024
2.8007	2.0371
2.7917	2.0918
2.7827	2.1245
2.7738	2.1367
2.7649	2.1616
2.7561	2.1616
2.7473	2.1865
2.7386	2.2278
2.7299	2.3555
2.7213	2.4377
2.7128	2.5049
2.7043	2.5261
2.6959	2.5666
2.6875	2.5942
2.6791	2.605
2.6709	2.6128
2.6626	2.624
2.6545	2.5969
2.6463	2.6243
2.6382	2.5957
2.6302	2.574
2.6222	2.5649
2.6143	2.5444
2.6064	2.5454
2.5986	2.5063
2.5908	2.5237
2.583	2.5024
2.5753	2.4954
2.5677	2.4893
2.5601	2.4836
2.5525	2.4507
2.545	2.4394
2.5375	2.4482
2.5301	2.4136
2.5227	2.4194
2.5154	2.3997
2.5081	2.3909
2.5008	2.3381
2.4936	2.3342
2.4864	2.3362
2.4793	2.3098
2.4722	2.3101
2.4651	2.2834
2.4581	2.249
2.4511	2.2493
2.4442	2.2353
2.4373	2.2139
2.4305	2.1943
2.4236	2.206
2.4169	2.1943
2.4101	2.189
2.4034	2.1602
2.3967	2.1592
2.3901	2.178
2.3835	2.1499
2.377	2.1787
2.3704	2.1567
2.364	2.1626
2.3575	2.1518
2.3511	2.1435
2.3447	2.1318
2.3384	2.1352
2.3321	2.1514
2.3258	2.1045
2.3195	2.104
2.3133	2.1201
2.3071	2.0937
2.301	2.1103
2.2949	2.0986
2.2888	2.1138
2.2828	2.0928
2.2767	2.0801
2.2708	2.0884
2.2648	2.0557
2.2589	2.0527
2.253	2.0625
2.2471	2.0605
2.2413	2.0806
2.2355	2.083
2.2297	2.0937
2.224	2.0708
2.2183	2.0723
2.2126	2.0801
2.207	2.0723
2.2013	2.1035
2.1957	2.0889
2.1902	2.0928
2.1846	2.1094
2.1791	2.0859
2.1736	2.1079
2.1682	2.104
2.1628	2.1064
2.1574	2.0801
2.152	2.1152
2.1466	2.125
2.1413	2.0942
2.136	2.1182
2.1308	2.1138
2.1255	2.1079
2.1203	2.1055
2.1151	2.0977
2.11	2.1157
2.1048	2.1367
2.0997	2.1567
2.0946	2.1201
2.0895	2.1465
2.0845	2.1685
2.0795	2.1309
