Name: Calcite CaCO3
Type: Mineral
Class: Carbonate
Subclass: None
Particle Size: Fine
Sample No.: calcite_2
Owner: JHU
Wavelength Range: TIR
Origin: Hunt and Salisbury Collection #48B; Sample from CherokeeCo., Kansas.
Description: No solid sample is available for the specimen.  Microscopic examination of the white powder fraction indicated pure calcite. Particle size was less than 2 Micrometers. Original ASTER Spectral Library name was jhu.nicolet.mineral.carbonate.none.powder.calcit2.spectrum.txt
Measurement: Transmission
X Units: Wavelength (micrometers)
Y Units: Transmittance (percent)
wavelength	value
25.0442	84.4842
24.3388	87.1873
23.6719	89.2752
23.0407	90.5955
22.4422	92.3064
21.8741	93.5896
21.334	94.2439
20.8199	95.3279
20.33	96.2859
19.8627	97.0115
19.4163	97.6765
18.9896	98.2693
18.5812	98.6853
18.19	99.029
17.815	99.4822
17.4551	99.4372
17.1094	99.4412
16.7772	99.5915
16.4576	99.8044
16.15	99.9079
15.8537	99.823
15.568	99.7429
15.2925	99.5847
15.0265	99.2849
14.7697	98.678
14.5214	97.74
14.2814	95.5037
14.0492	76.0252
13.8244	99.6565
13.6067	99.5452
13.3957	99.0281
13.1912	98.449
12.9929	97.7795
12.8004	97.197
12.6135	96.7937
12.432	96.2136
12.2557	95.3416
12.0843	94.0847
11.9176	91.9099
11.7555	88.6018
11.5977	81.2566
11.444	52.6625
11.2944	74.3084
11.1487	88.8299
11.0067	90.405
10.8682	90.8772
10.7332	90.8342
10.6015	90.7019
10.473	90.4075
10.3476	89.9461
10.2251	89.3264
10.1056	88.6091
9.9887	87.8045
9.8746	87.0335
9.763	86.5633
9.6539	86.0882
9.5472	85.6761
9.4429	85.283
9.3408	84.8079
9.2409	84.1971
9.1431	84.0071
9.0474	83.6477
8.9536	83.0491
8.8618	82.5027
8.7718	81.7986
8.6837	81.0313
8.5973	80.2893
8.5126	79.6707
8.4295	79.0047
8.3481	78.2813
8.2682	77.3782
8.1898	76.3309
8.1129	75.0801
8.0374	73.827
7.9634	72.4109
7.8906	70.8475
7.8192	69.159
7.7491	67.2618
7.6802	65.0899
7.6126	62.754
7.5461	60.2928
7.4807	57.3612
7.4165	53.8793
7.3534	49.7667
7.2914	44.9337
7.2303	39.3241
7.1703	32.4191
7.1113	27.1008
7.0533	22.4064
6.9962	22.373
6.94	24.371
6.8847	26.8469
6.8302	30.09
6.7767	33.8388
6.7239	38.7716
6.672	44.1942
6.6209	49.3583
6.5705	54.0033
6.5209	58.1183
6.4721	62.0567
6.424	65.7948
6.3766	68.3826
6.3299	70.3065
6.2838	71.9112
6.2385	73.6993
6.1937	75.1258
6.1496	76.3389
6.1062	77.7225
6.0633	78.7742
6.0211	79.8767
5.9794	80.7051
5.9383	81.7078
5.8978	82.5818
5.8578	83.2381
5.8184	84.1377
5.7794	84.7322
5.741	85.4014
5.7031	86.1707
5.6657	87.0105
5.6288	88.03
5.5924	88.2322
5.5564	83.1355
5.5209	87.3467
5.4859	88.8252
5.4513	89.6926
5.4171	90.4522
5.3833	91.0354
5.35	91.6472
5.3171	92.125
5.2846	92.6309
5.2524	93.0986
5.2207	93.542
5.1893	93.9675
5.1584	94.3555
5.1277	94.7383
5.0975	95.0439
5.0676	95.4636
5.038	95.7766
5.0088	96.1082
4.98	96.4004
4.9514	96.7002
4.9232	96.9893
4.8953	97.2556
4.8678	97.4941
4.8405	97.7253
4.8135	97.9521
4.7868	98.1809
4.7605	98.3594
4.7344	98.5076
4.7086	98.6081
4.6831	98.6081
4.6578	98.7195
4.6328	98.9451
4.6081	99.157
4.5837	99.332
4.5595	99.4714
4.5356	99.5896
4.5119	99.698
4.4884	99.8
4.4652	99.9245
4.4423	100.024
4.4196	100.112
4.3971	100.204
4.3748	100.311
4.3528	100.341
4.331	100.432
4.3094	100.501
4.288	100.562
4.2668	100.607
4.2458	100.652
4.2251	100.702
4.2045	100.675
4.1841	100.704
4.164	100.721
4.144	100.708
4.1242	100.675
4.1046	100.643
4.0852	100.579
4.066	100.423
4.047	100.138
4.0281	99.2204
4.0094	97.6384
3.9909	94.3543
3.9725	93.3318
3.9544	95.1418
3.9363	97.8088
3.9185	98.3894
3.9008	98.5788
3.8833	98.7009
3.8659	98.8171
3.8487	98.9631
3.8316	99.343
3.8147	99.907
3.7979	100.356
3.7813	100.637
3.7648	100.676
3.7485	100.681
3.7323	100.661
3.7162	100.681
3.7003	100.657
3.6845	100.625
3.6689	100.609
3.6534	100.562
3.638	100.53
3.6227	100.47
3.6076	100.422
3.5926	100.353
3.5777	100.204
3.563	100.103
3.5484	99.9636
3.5338	99.5964
3.5195	98.7385
3.5052	97.7522
3.491	97.1189
3.477	96.6863
3.463	98.0705
3.4492	98.4514
3.4355	98.365
3.4219	98.1326
3.4084	98.1179
3.395	98.1838
3.3817	98.0124
3.3685	97.9851
3.3554	97.6023
3.3425	98.2878
3.3296	99.3347
3.3168	99.512
3.3041	99.487
3.2915	99.4597
3.279	99.4514
3.2666	99.3679
3.2543	99.301
3.2421	99.2327
3.23	99.1716
3.218	99.0876
3.206	99.0705
3.1942	98.9788
3.1824	98.9626
3.1707	98.9822
3.1591	98.8791
3.1476	98.8845
3.1362	98.8738
3.1249	98.8826
3.1136	98.8845
3.1024	98.8635
3.0913	98.9319
3.0803	98.9548
3.0694	98.9631
3.0585	98.9534
3.0477	98.9587
3.037	98.9006
3.0264	98.9529
3.0158	98.9421
3.0053	98.9548
2.9949	99.0398
2.9845	99.0837
2.9743	99.1296
2.9641	99.1384
2.9539	99.1726
2.9439	99.1648
2.9339	99.2683
2.9239	99.2644
2.9141	99.2195
2.9043	99.1775
2.8946	99.2615
2.8849	99.2663
2.8753	99.3259
2.8658	99.2419
2.8563	99.2263
2.8469	99.1521
2.8375	99.1453
2.8282	99.0701
2.819	99.0232
2.8098	98.9079
2.8007	98.8415
2.7917	98.7312
2.7827	98.5788
2.7738	98.3865
2.7649	98.2165
2.7561	98.1804
2.7473	97.9617
2.7386	98.0593
2.7299	97.9275
2.7213	97.9109
2.7128	97.8484
2.7043	97.821
2.6959	97.9333
2.6875	97.8914
2.6791	97.8826
2.6709	98.0134
2.6626	97.9001
2.6545	97.8181
2.6463	97.7234
2.6382	97.6687
2.6302	97.7927
2.6222	97.6287
2.6143	97.657
2.6064	97.7117
2.5986	97.5828
2.5908	97.4978
2.583	97.5349
2.5753	97.4412
2.5677	97.4529
2.5601	97.4148
2.5525	97.3748
2.545	97.2927
2.5375	97.3494
2.5301	97.2234
2.5227	97.3123
2.5154	97.2546
2.5081	97.1482
2.5008	97.0974
2.4936	97.0623
2.4864	97.1208
2.4793	97.031
2.4722	97.0974
2.4651	97.1208
2.4581	97.0896
2.4511	97.033
2.4442	96.9021
2.4373	96.8982
2.4305	96.8669
2.4236	96.8474
2.4169	96.7439
2.4101	96.7126
2.4034	96.7283
2.3967	96.7419
2.3901	96.7654
2.3835	96.5876
2.377	96.6267
2.3704	96.6638
2.364	96.6091
2.3575	96.4255
2.3511	96.4685
2.3447	96.488
2.3384	96.2576
2.3321	96.3533
2.3258	96.3611
2.3195	96.2419
2.3133	96.3142
2.3071	96.1912
2.301	96.3005
2.2949	96.2419
2.2888	96.2185
2.2828	96.2205
2.2767	96.1345
2.2708	95.9685
2.2648	95.9607
2.2589	95.9841
2.253	96.031
2.2471	95.9919
2.2413	95.8767
2.2355	95.9294
2.2297	95.8533
2.224	95.8201
2.2183	95.7732
2.2126	95.9451
2.207	95.8005
2.2013	95.5798
2.1957	95.5857
2.1902	95.6833
2.1846	95.6345
2.1791	95.533
2.1736	95.4607
2.1682	95.5701
2.1628	95.4451
2.1574	95.283
2.152	95.4861
2.1466	95.4294
2.1413	95.3279
2.136	95.3044
2.1308	95.3279
2.1255	95.1287
2.1203	95.2048
2.1151	95.1052
2.11	94.9685
2.1048	95.3064
2.0997	95.2126
2.0946	95.0623
2.0895	95.2029
2.0845	94.9529
2.0795	95.0349
