Name: Quartz SiO_2
Type: Mineral
Class: Silicate
Subclass: Tectosilicate
Particle Size: Medium
Sample No.: TS-1D
Owner: JPL
Wavelength Range: VSWIR
Origin: USA, Coloradi, Buffalo
Description: Milky quartz. Particle size was 45-125um.Collected by Ward's Original ASTER Spectral Library name was jpl.beckman.mineral.silicate.tectosilicate.medium.ts01d.spectrum.txt
Measurement: Hemispherical reflectance
X Units: Wavelength (micrometers)
Y Units: Reflectance (percent)
wavelength	value
0.4	84.12
0.403	84.21
0.406	84.23
0.409	84.56
0.412	84.57
0.415	84.46
0.418	84.56
0.421	84.58
0.424	84.71
0.427	84.71
0.43	84.87
0.433	84.9
0.436	84.88
0.439	85.17
0.442	85.09
0.445	84.99
0.448	85.03
0.451	85.24
0.454	85.4
0.457	85.22
0.46	85.51
0.463	85.52
0.466	85.51
0.469	85.51
0.472	85.71
0.475	85.62
0.478	85.67
0.481	85.77
0.484	85.77
0.487	85.67
0.49	85.74
0.493	85.89
0.496	85.77
0.499	85.91
0.502	86.05
0.505	86.01
0.508	86.02
0.511	86.11
0.514	86.21
0.517	86.09
0.52	86.22
0.523	86.38
0.526	86.21
0.529	86.15
0.532	86.27
0.535	86.19
0.538	86.35
0.541	86.25
0.544	86.37
0.547	86.3
0.55	86.51
0.553	86.56
0.556	86.63
0.559	86.52
0.562	87
0.565	86.96
0.568	86.82
0.571	86.6
0.574	86.53
0.577	86.54
0.58	86.4
0.583	86.46
0.586	86.41
0.589	86.4
0.592	86.52
0.595	86.54
0.598	86.62
0.601	86.74
0.604	86.69
0.607	86.6
0.61	86.62
0.613	86.75
0.616	86.64
0.619	86.51
0.622	86.64
0.625	86.58
0.628	86.59
0.631	86.67
0.634	86.68
0.637	86.69
0.64	86.58
0.643	86.61
0.646	86.58
0.649	86.7
0.652	86.53
0.655	86.67
0.658	86.62
0.661	86.64
0.664	86.58
0.667	86.7
0.67	86.79
0.673	86.53
0.676	86.58
0.679	86.75
0.682	86.8
0.685	86.59
0.688	86.71
0.691	86.76
0.694	86.74
0.697	86.64
0.7	86.56
0.703	86.75
0.706	86.42
0.709	86.64
0.712	86.63
0.715	86.58
0.718	86.53
0.721	86.71
0.724	86.64
0.727	86.6
0.73	86.78
0.733	86.69
0.736	86.71
0.739	86.66
0.742	86.77
0.745	86.66
0.748	86.59
0.751	86.55
0.754	86.76
0.757	86.6
0.76	86.55
0.763	86.77
0.766	86.79
0.769	86.5
0.772	86.73
0.775	86.84
0.778	86.67
0.781	86.56
0.784	86.74
0.787	86.81
0.79	86.79
0.793	86.85
0.796	86.85
0.799	86.8
0.808	86.7
0.82	86.78
0.832	86.84
0.844	86.95
0.856	87.01
0.868	87.06
0.88	86.99
0.892	87.04
0.904	86.87
0.916	86.93
0.928	86.93
0.94	86.97
0.952	86.91
0.964	86.97
0.976	86.93
0.988	86.88
1	86.97
1.012	87.01
1.024	87.02
1.036	87.03
1.048	86.98
1.06	86.98
1.072	87.1
1.084	87.09
1.096	87.17
1.108	87.11
1.12	87.22
1.132	87.09
1.144	87.19
1.156	87.06
1.168	87.1
1.18	87.01
1.192	87.07
1.204	87.04
1.216	87.01
1.228	86.99
1.24	86.99
1.252	87.03
1.264	87.04
1.276	87.09
1.288	87.12
1.3	87.07
1.312	86.98
1.324	86.89
1.336	87.02
1.348	86.93
1.36	87.05
1.372	86.88
1.384	86.83
1.396	86.85
1.408	86.84
1.42	86.84
1.432	86.8
1.444	86.83
1.456	86.84
1.468	86.83
1.48	86.89
1.492	86.9
1.504	86.9
1.516	86.9
1.528	87.02
1.54	86.97
1.552	87.02
1.564	87.1
1.576	87.07
1.588	87.03
1.6	87.07
1.612	87.13
1.624	87.16
1.636	87.08
1.648	87.15
1.66	87.19
1.672	87.26
1.684	87.28
1.696	87.32
1.708	87.34
1.72	87.32
1.732	87.26
1.744	87.21
1.756	87.28
1.768	87.13
1.78	87.27
1.792	87.24
1.804	87.31
1.816	87.26
1.828	87.25
1.84	87.3
1.852	87.13
1.864	87.15
1.876	86.98
1.888	86.87
1.9	86.63
1.912	86.54
1.924	86.49
1.936	86.48
1.948	86.47
1.96	86.73
1.972	86.84
1.984	86.98
1.996	87.15
2.008	87.28
2.02	87.4
2.032	87.5
2.044	87.62
2.056	87.69
2.068	87.68
2.08	87.82
2.092	87.89
2.104	88.06
2.116	88.32
2.128	88.23
2.14	88.23
2.152	87.85
2.164	87.77
2.176	87.59
2.188	87.49
2.2	87.42
2.212	87.29
2.224	87.47
2.236	87.41
2.248	87.43
2.26	87.52
2.272	87.61
2.284	87.55
2.296	87.65
2.308	87.85
2.32	88.04
2.332	87.99
2.344	88.06
2.356	88.01
2.368	87.97
2.38	87.95
2.392	87.86
2.404	87.8
2.416	87.83
2.428	87.76
2.44	87.62
2.452	87.56
2.464	87.52
2.476	87.56
2.488	87.97
2.5	88.28
