Name: Mordenite (Ca,Na2,K2)Al2Si10O24.7H2O
Type: Mineral
Class: Silicate
Subclass: Tectosilicate
Particle Size: Solid
Sample No.: morden_1
Owner: JHU
Wavelength Range: TIR
Origin: Union Pass, Arizona via W. J. Ehmann #10
Description: The sample consisted of small transparent crystals of apparent purity.(Framework Silicates); (ZeoliteGroup) Original ASTER Spectral Library name was jhu.nicolet.mineral.silicate.tectosilicate.solid.morden1.spectrum.txt
Measurement: Bidirectional reflectance
X Units: Wavelength (micrometers)
Y Units: Reflectance (percent)
wavelength	value
25.0442	4.168
24.3388	4.4563
23.6719	4.6929
23.0407	5.1125
22.4422	5.3428
21.8741	5.6836
21.334	6.1999
20.8199	5.949
20.33	4.4661
19.8627	3.3357
19.4163	3.0176
18.9896	3.0837
18.5812	2.9299
18.19	2.8176
17.815	2.6311
17.4551	2.4329
17.1094	2.196
16.7772	1.9416
16.4576	1.9241
16.15	1.791
15.8537	1.7112
15.568	1.5671
15.2925	1.4998
15.0265	1.5725
14.7697	1.6482
14.5214	1.6655
14.2814	1.6938
14.0492	1.7424
13.8244	1.7373
13.6067	1.7224
13.3957	1.7278
13.1912	1.7778
12.9929	1.821
12.8004	1.8647
12.6135	1.8523
12.432	1.7756
12.2557	1.7471
12.0843	1.8469
11.9176	1.9812
11.7555	2.0854
11.5977	2.1687
11.444	2.2336
11.2944	2.292
11.1487	2.3821
11.0067	2.4883
10.8682	2.5735
10.7332	2.6663
10.6015	2.8125
10.473	3.0015
10.3476	3.2124
10.2251	3.4661
10.1056	3.7815
9.9887	4.1518
9.8746	4.5889
9.763	5.0437
9.6539	5.5434
9.5472	6.0154
9.4429	6.418
9.3408	6.6763
9.2409	6.9702
9.1431	7.1135
9.0474	6.7954
8.9536	6.1692
8.8618	5.5351
8.7718	5.1228
8.6837	4.8996
8.5973	4.7224
8.5126	4.574
8.4295	4.4707
8.3481	4.3301
8.2682	4.2256
8.1898	4.5029
8.1129	5.1933
8.0374	5.7961
7.9634	5.4436
7.8906	3.8552
7.8192	2.0139
7.7491	0.8337
7.6802	0.4377
7.6126	0.3713
7.5461	0.3899
7.4807	0.4214
7.4165	0.4705
7.3534	0.5176
7.2914	0.5679
7.2303	0.606
7.1703	0.6599
7.1113	0.6946
7.0533	0.7312
6.9962	0.7766
6.94	0.8142
6.8847	0.8513
6.8302	0.8796
6.7767	0.9116
6.7239	0.9446
6.672	0.978
6.6209	1.0022
6.5705	1.0322
6.5209	1.0527
6.4721	1.0681
6.424	1.0852
6.3766	1.0762
6.3299	1.0637
6.2838	1.0447
6.2385	1.0164
6.1937	0.9905
6.1496	0.9468
6.1062	0.8953
6.0633	0.8608
6.0211	0.8472
5.9794	0.8748
5.9383	0.9268
5.8978	1.0154
5.8578	1.1094
5.8184	1.1843
5.7794	1.2395
5.741	1.2844
5.7031	1.3179
5.6657	1.3291
5.6288	1.3406
5.5924	1.3503
5.5564	1.3494
5.5209	1.3647
5.4859	1.3594
5.4513	1.3735
5.4171	1.3979
5.3833	1.4228
5.35	1.4558
5.3171	1.4927
5.2846	1.5254
5.2524	1.5535
5.2207	1.5725
5.1893	1.5901
5.1584	1.6008
5.1277	1.6182
5.0975	1.6487
5.0676	1.6875
5.038	1.7248
5.0088	1.7749
4.98	1.8352
4.9514	1.8862
4.9232	1.9419
4.8953	1.9954
4.8678	2.0427
4.8405	2.0762
4.8135	2.1106
4.7868	2.1279
4.7605	2.1462
4.7344	2.1555
4.7086	2.1728
4.6831	2.1802
4.6578	2.1921
4.6328	2.2056
4.6081	2.2173
4.5837	2.2351
4.5595	2.2595
4.5356	2.281
4.5119	2.3091
4.4884	2.3423
4.4652	2.3826
4.4423	2.4341
4.4196	2.4851
4.3971	2.5498
4.3748	2.6152
4.3528	2.6902
4.331	2.7759
4.3094	2.8518
4.288	2.9409
4.2668	3.0149
4.2458	3.1189
4.2251	3.219
4.2045	3.3196
4.1841	3.4072
4.164	3.5049
4.144	3.5981
4.1242	3.6946
4.1046	3.7788
4.0852	3.8806
4.066	3.96
4.047	4.041
4.0281	4.114
4.0094	4.1514
3.9909	4.1719
3.9725	4.2063
3.9544	4.2615
3.9363	4.3213
3.9185	4.3476
3.9008	4.3613
3.8833	4.3735
3.8659	4.373
3.8487	4.3584
3.8316	4.3494
3.8147	4.3203
3.7979	4.2988
3.7813	4.2583
3.7648	4.2121
3.7485	4.1719
3.7323	4.1211
3.7162	4.0561
3.7003	3.9934
3.6845	3.9265
3.6689	3.8511
3.6534	3.7688
3.638	3.6982
3.6227	3.6135
3.6076	3.5173
3.5926	3.4243
3.5777	3.3318
3.563	3.2427
3.5484	3.145
3.5338	3.0359
3.5195	2.9309
3.5052	2.8198
3.491	2.7297
3.477	2.6318
3.463	2.5508
3.4492	2.4485
3.4355	2.3542
3.4219	2.2639
3.4084	2.1716
3.395	2.0923
3.3817	2.012
3.3685	1.9458
3.3554	1.8791
3.3425	1.814
3.3296	1.7436
3.3168	1.6926
3.3041	1.6416
3.2915	1.5928
3.279	1.542
3.2666	1.4949
3.2543	1.4658
3.2421	1.427
3.23	1.3926
3.218	1.3628
3.206	1.3296
3.1942	1.3081
3.1824	1.2795
3.1707	1.2585
3.1591	1.2415
3.1476	1.2165
3.1362	1.1982
3.1249	1.1802
3.1136	1.1672
3.1024	1.1489
3.0913	1.1428
3.0803	1.1243
3.0694	1.1199
3.0585	1.113
3.0477	1.105
3.037	1.0999
3.0264	1.0984
3.0158	1.0847
3.0053	1.0747
2.9949	1.083
2.9845	1.0586
2.9743	1.0557
2.9641	1.05
2.9539	1.0383
2.9439	1.0439
2.9339	1.0266
2.9239	1.0107
2.9141	1.0193
2.9043	1.0034
2.8946	1.0061
2.8849	0.9998
2.8753	0.9819
2.8658	0.9963
2.8563	0.99
2.8469	0.9976
2.8375	0.9915
2.8282	0.9761
2.819	0.9641
2.8098	0.97
2.8007	0.9727
2.7917	0.9521
2.7827	0.927
2.7738	0.9187
2.7649	0.9216
2.7561	0.9033
2.7473	0.9067
2.7386	0.9009
2.7299	0.9309
2.7213	0.9907
2.7128	1.0986
2.7043	1.2993
2.6959	1.4902
2.6875	1.6875
2.6791	1.8545
2.6709	2.0017
2.6626	2.1748
2.6545	2.3098
2.6463	2.439
2.6382	2.5325
2.6302	2.5969
2.6222	2.6509
2.6143	2.6819
2.6064	2.707
2.5986	2.7253
2.5908	2.7646
2.583	2.769
2.5753	2.7756
2.5677	2.7976
2.5601	2.823
2.5525	2.8562
2.545	2.8777
2.5375	2.9045
2.5301	2.947
2.5227	2.9956
2.5154	3.0305
2.5081	3.0884
2.5008	3.1467
2.4936	3.2114
2.4864	3.2795
2.4793	3.3481
2.4722	3.3938
2.4651	3.4751
2.4581	3.5464
2.4511	3.613
2.4442	3.6985
2.4373	3.793
2.4305	3.9233
2.4236	4.0454
2.4169	4.1418
2.4101	4.2876
2.4034	4.4177
2.3967	4.551
2.3901	4.6597
2.3835	4.7969
2.377	4.9194
2.3704	5.0539
2.364	5.1731
2.3575	5.3057
2.3511	5.4292
2.3447	5.5288
2.3384	5.6411
2.3321	5.7502
2.3258	5.8616
2.3195	5.9841
2.3133	6.0408
2.3071	6.1394
2.301	6.1702
2.2949	6.2363
2.2888	6.2922
2.2828	6.3564
2.2767	6.3493
2.2708	6.375
2.2648	6.376
2.2589	6.3662
2.253	6.3738
2.2471	6.3518
2.2413	6.353
2.2355	6.3694
2.2297	6.3567
2.224	6.3823
2.2183	6.4031
2.2126	6.4409
2.207	6.4534
2.2013	6.5195
2.1957	6.5735
2.1902	6.5886
2.1846	6.6899
2.1791	6.7119
2.1736	6.793
2.1682	6.8108
2.1628	6.8611
2.1574	6.8782
2.152	6.8987
2.1466	6.8928
2.1413	6.8745
2.136	6.8918
2.1308	6.8935
2.1255	6.8774
2.1203	6.8232
2.1151	6.8498
2.11	6.8476
2.1048	6.7727
2.0997	6.7688
2.0946	6.7763
2.0895	6.7309
2.0845	6.7253
2.0795	6.718
