Name: Smithsonite PbCO_3
Type: Mineral
Class: Carbonate
Subclass: None
Particle Size: Medium
Sample No.: C-11A
Owner: JPL
Wavelength Range: VSWIR
Description: Particle size was 45-125um.Collected by JPL Original ASTER Spectral Library name was jpl.beckman.mineral.carbonate.none.medium.c11a.spectrum.txt
Measurement: Hemispherical reflectance
X Units: Wavelength (micrometers)
Y Units: Reflectance (percent)
wavelength	value
0.4	78.65
0.403	79.62
0.406	79.96
0.409	80.07
0.412	80.53
0.415	81.18
0.418	81.57
0.421	81.85
0.424	82.3
0.427	82.63
0.43	83.02
0.433	83.29
0.436	83.58
0.439	83.86
0.442	83.98
0.445	84.22
0.448	84.43
0.451	84.55
0.454	84.72
0.457	84.7
0.46	84.68
0.463	84.59
0.466	84.54
0.469	84.31
0.472	84.37
0.475	84.15
0.478	84.09
0.481	84.1
0.484	84.12
0.487	84.26
0.49	84.31
0.493	84.13
0.496	84.11
0.499	84.15
0.502	84.06
0.505	83.94
0.508	83.66
0.511	83.74
0.514	83.66
0.517	83.51
0.52	83.76
0.523	83.64
0.526	83.74
0.529	83.79
0.532	84.06
0.535	84.19
0.538	84.12
0.541	84.38
0.544	84.54
0.547	84.9
0.55	85.24
0.553	85.42
0.556	85.81
0.559	86.09
0.562	86.83
0.565	87.14
0.568	87.48
0.571	87.7
0.574	87.67
0.577	87.87
0.58	87.93
0.583	87.95
0.586	88.11
0.589	88.11
0.592	88.1
0.595	88.12
0.598	88.2
0.601	88.13
0.604	88.07
0.607	88.01
0.61	87.79
0.613	87.86
0.616	87.57
0.619	87.39
0.622	87.33
0.625	87.21
0.628	87.05
0.631	87.03
0.634	86.76
0.637	86.65
0.64	86.54
0.643	86.4
0.646	86.24
0.649	86.14
0.652	85.96
0.655	85.78
0.658	85.64
0.661	85.44
0.664	85.33
0.667	85.06
0.67	84.84
0.673	84.76
0.676	84.63
0.679	84.35
0.682	84.15
0.685	83.98
0.688	83.89
0.691	83.66
0.694	83.52
0.697	83.31
0.7	83.15
0.703	82.96
0.706	82.87
0.709	82.59
0.712	82.38
0.715	82.32
0.718	82.15
0.721	81.94
0.724	81.74
0.727	81.57
0.73	81.38
0.733	81.17
0.736	81.08
0.739	80.77
0.742	80.75
0.745	80.52
0.748	80.23
0.751	80.07
0.754	79.87
0.757	79.67
0.76	79.61
0.763	79.28
0.766	79.21
0.769	78.83
0.772	78.66
0.775	78.48
0.778	78.27
0.781	78.2
0.784	77.88
0.787	77.65
0.79	77.42
0.793	77.22
0.796	77.08
0.799	76.93
0.808	76.23
0.82	75.22
0.832	74.35
0.844	73.47
0.856	72.61
0.868	71.73
0.88	70.83
0.892	70.04
0.904	69.44
0.916	68.9
0.928	68.56
0.94	68.46
0.952	68.33
0.964	68.43
0.976	68.54
0.988	68.91
1	69.2
1.012	69.83
1.024	70.47
1.036	71.24
1.048	72.03
1.06	72.7
1.072	73.44
1.084	74.19
1.096	74.88
1.108	75.38
1.12	76
1.132	76.48
1.144	76.79
1.156	77.14
1.168	77.43
1.18	77.69
1.192	77.99
1.204	78.4
1.216	78.79
1.228	79.28
1.24	79.72
1.252	80.2
1.264	80.88
1.276	81.38
1.288	81.9
1.3	82.31
1.312	82.84
1.324	83.19
1.336	83.59
1.348	83.88
1.36	84.24
1.372	84.34
1.384	84.49
1.396	84.25
1.408	83.63
1.42	83.49
1.432	83.34
1.444	83.29
1.456	83.21
1.468	83.04
1.48	83.18
1.492	83.25
1.504	83.3
1.516	83.28
1.528	83.33
1.54	83.19
1.552	83.04
1.564	83.05
1.576	82.95
1.588	82.95
1.6	83.05
1.612	82.95
1.624	82.82
1.636	82.63
1.648	82.55
1.66	82.45
1.672	82.34
1.684	82.15
1.696	81.96
1.708	81.72
1.72	81.55
1.732	81.28
1.744	81.11
1.756	80.76
1.768	80.72
1.78	80.65
1.792	80.69
1.804	80.42
1.816	80.14
1.828	79.65
1.84	79.01
1.852	78.41
1.864	77.71
1.876	76.47
1.888	75.22
1.9	74.91
1.912	74.37
1.924	73.64
1.936	72.94
1.948	72.39
1.96	72.03
1.972	71.7
1.984	71.33
1.996	70.97
2.008	70.88
2.02	71.71
2.032	72.36
2.044	72.69
2.056	72.7
2.068	72.98
2.08	73.15
2.092	73.26
2.104	73.29
2.116	73.39
2.128	73.24
2.14	72.78
2.152	72.15
2.164	72
2.176	72.3
2.188	72.11
2.2	71.74
2.212	70.94
2.224	69.84
2.236	68.51
2.248	67
2.26	65.09
2.272	63.25
2.284	61.06
2.296	58.61
2.308	56.24
2.32	54.85
2.332	53.9
2.344	52.9
2.356	51.98
2.368	52.76
2.38	56.46
2.392	60.37
2.404	61.93
2.416	61.41
2.428	59.92
2.44	58.11
2.452	55.73
2.464	52.89
2.476	49.95
2.488	47.72
2.5	46.06
