Name: Witherite BaCO_3
Type: Mineral
Class: Carbonate
Subclass: None
Particle Size: Medium
Sample No.: C-2A
Owner: JPL
Wavelength Range: TIR
Origin: United Kingdom, England
Description: Particle size was 45-125um.Collected by Grieger's Inc. Original ASTER Spectral Library name was jpl.nicolet.mineral.carbonate.none.medium.c02a.spectrum.txt
Measurement: Hemispherical reflectance
X Units: Wavelength (micrometers)
Y Units: Reflectance (percent)
wavelength	value
15.3853	46.5821
15.1161	43.2099
14.8563	30.0253
14.6052	10.8089
14.3624	2.658
14.1276	23.9277
13.9004	40.5825
13.6803	49.107
13.4671	49.8957
13.2604	44.2843
13.06	37.5849
12.8656	38.2783
12.6769	40.0881
12.4936	37.1184
12.3155	31.8576
12.1425	28.1467
11.9742	13.5408
11.8106	8.9407
11.6513	17.4812
11.4963	10.1569
11.3454	9.4903
11.1983	12.759
11.0551	18.6275
10.9154	26.9278
10.7793	23.2764
10.6465	29.6109
10.5169	34.24
10.3904	30.341
10.267	30.7885
10.1464	29.9486
10.0287	27.9788
9.9136	25.4902
9.8012	24.1333
9.6913	23.6108
9.5838	21.3314
9.4787	15.8609
9.3758	21.2398
9.2752	22.1194
9.1767	19.657
9.0803	17.0788
8.9858	14.8076
8.8934	16.9975
8.8028	17.3479
8.714	15.0041
8.627	13.7188
8.5417	14.3582
8.4581	14.0208
8.3761	14.9966
8.2957	13.6992
8.2169	10.5236
8.1395	11.8545
8.0635	10.3522
7.989	8.9024
7.9158	8.5845
7.8439	8.4003
7.7734	6.4626
7.7041	6.1096
7.636	6.1108
7.5691	6.3751
7.5034	6.4595
7.4388	6.9729
7.3753	7.4648
7.3129	7.9057
7.2515	8.5406
7.1912	10.1283
7.1318	12.3941
7.0734	19.4175
7.016	28.1603
6.9595	30.2428
6.9039	32.0573
6.8492	34.064
6.7953	34.3481
6.7423	31.5285
6.6901	29.4562
6.6387	31.4388
6.5881	23.7526
6.5382	8.1481
6.4892	2.3697
6.4408	0.8614
6.3931	0.5374
6.3462	0.4949
6.2999	0.6258
6.2543	0.5819
6.2094	0.9621
6.1651	1.2708
6.1214	1.4353
6.0784	2.0464
6.0359	3.1468
5.994	5.6104
5.9527	9.4146
5.912	14.1487
5.8718	19.7993
5.8322	21.5104
5.7931	24.6009
5.7545	16.5014
5.7165	1.8555
5.6789	3.8626
5.6418	30.5494
5.6052	40.451
5.5691	46.0859
5.5334	49.4924
5.4982	51.5714
5.4635	54.4425
5.4291	56.9217
5.3952	58.8451
5.3618	59.5452
5.3287	61.7641
5.2961	63.1601
5.2638	62.1365
5.2319	63.0555
5.2004	65.5396
5.1693	66.0385
5.1386	64.8229
5.1082	66.954
5.0782	70.8142
5.0485	70.493
5.0192	71.9238
4.9902	72.8991
4.9616	72.1027
4.9332	71.9082
4.9052	71.7071
4.8776	70.2109
4.8502	63.4324
4.8231	51.6614
4.7963	29.144
4.7699	22.3724
4.7437	31.5193
4.7178	37.5366
4.6922	46.562
4.6668	50.8118
4.6418	54.6088
4.617	55.9934
4.5924	55.8265
4.5681	55.9967
4.5441	58.0256
4.5203	62.8594
4.4968	67.8125
4.4735	68.3837
4.4505	67.3737
4.4277	62.0495
4.4051	50.7847
4.3828	50.9955
4.3607	54.688
4.3388	55.5432
4.3171	55.5378
4.2956	53.745
4.2744	48.4302
4.2534	47.0836
4.2325	46.2393
4.2119	44.5417
4.1915	42.4972
4.1712	40.238
4.1512	34.535
4.1313	19.0878
4.1117	11.9405
4.0922	3.6832
4.0729	2.6432
4.0538	3.0734
4.0349	3.5972
4.0161	6.0729
3.9976	7.9509
3.9792	9.6361
3.9609	10.5309
3.9428	9.8948
3.9249	10.0747
3.9072	10.801
3.8896	16.8234
3.8722	34.8504
3.8549	43.1332
3.8378	44.5488
3.8208	46.9318
3.804	49.7513
3.7873	51.6186
3.7708	53.3235
3.7544	54.6382
3.7382	55.1186
3.7221	54.8037
3.7061	54.9391
3.6903	54.3273
3.6746	52.9571
3.659	50.474
3.6436	40.0105
3.6283	46.0985
3.6131	41.9746
3.5981	32.5642
3.5832	18.5179
3.5684	8.8617
3.5537	5.1919
3.5391	3.9963
3.5247	5.5083
3.5104	6.976
3.4962	8.1914
3.4821	6.9234
3.4681	6.3517
3.4543	7.2863
3.4405	9.9498
3.4269	17.1695
3.4133	26.8902
3.3999	34.1668
3.3866	38.9422
3.3733	42.4388
3.3602	45.4959
3.3472	47.405
3.3343	48.131
3.3215	49.1489
3.3088	50.2028
3.2961	51.893
3.2836	53.4412
3.2712	55.345
3.2588	56.4749
3.2466	57.4934
3.2345	58.1844
3.2224	58.2968
3.2104	56.4715
3.1985	50.115
3.1867	42.8258
3.175	44.7537
3.1634	50.7709
3.1519	53.4361
3.1404	55.4475
3.129	56.2259
3.1178	56.6216
3.1065	56.3836
3.0954	56.4419
3.0844	56.2267
3.0734	56.495
3.0625	56.7817
3.0517	57.2483
3.041	57.3251
3.0303	57.0503
3.0197	56.7784
3.0092	56.611
2.9987	56.2563
2.9884	56.0836
2.9781	56.0996
2.9678	55.7073
2.9577	55.7534
2.9476	55.5911
2.9376	55.6046
2.9276	55.7355
2.9177	55.914
2.9079	56.1152
2.8982	56.0902
2.8885	55.1405
2.8789	52.4949
2.8693	47.2926
2.8598	39.3178
2.8504	45.7738
2.841	52.3259
2.8317	55.6582
2.8224	58.9228
2.8133	60.8127
2.8041	62.5128
2.7951	63.5104
2.786	64.8734
2.7771	66.2406
2.7682	68.5807
2.7594	71.2534
2.7506	74.2143
2.7418	76.5467
2.7332	78.6409
2.7246	81.234
2.716	82.76
2.7075	84.2663
2.699	85.5646
2.6906	86.3633
2.6823	86.4903
2.674	86.5931
2.6657	87.1249
2.6575	86.1025
2.6494	85.2494
2.6413	81.6703
2.6332	83.8073
2.6252	81.049
2.6173	73.2158
2.6094	61.6807
2.6015	48.34
2.5937	48.5537
2.5859	51.2132
2.5782	56.1224
2.5706	60.9766
2.5629	64.158
2.5554	65.7426
2.5478	66.3408
2.5403	66.5597
2.5329	67.3098
2.5255	69.8342
2.5181	73.7131
2.5108	77.3109
2.5035	80.4043
2.4963	82.3677
2.4891	83.5514
2.482	84.4364
2.4749	84.929
2.4678	85.3192
2.4608	85.6892
2.4538	85.5735
2.4468	85.5039
2.4399	85.9748
2.4331	85.3125
2.4262	84.3101
2.4194	82.37
2.4127	79.445
2.4059	73.9801
2.3993	66.5357
2.3926	61.0005
2.386	59.5008
2.3795	66.1842
2.3729	70.7861
2.3664	73.3435
2.36	74.7252
2.3535	75.6112
2.3471	76.0194
2.3408	76.438
2.3345	77.103
2.3282	78.5179
2.3219	80.2238
2.3157	81.7539
2.3095	83.0589
2.3034	84.2484
2.2972	85.3845
2.2911	86.3383
2.2851	87.4109
2.279	88.2359
2.2731	88.8931
2.2671	89.5699
2.2612	90.4401
2.2553	91.1714
2.2494	91.5879
2.2435	92.0532
2.2377	92.2849
2.232	92.5398
2.2262	92.2551
2.2205	91.1409
2.2148	88.679
2.2091	87.8047
2.2035	88.1526
2.1979	90.8542
2.1923	92.1798
2.1868	92.9401
2.1812	93.0482
2.1758	93.524
2.1703	93.487
2.1649	93.5073
2.1595	93.7161
2.1541	93.7852
2.1487	94.0519
2.1434	94.5162
2.1381	94.5413
2.1328	94.7615
2.1275	94.8179
2.1223	95.0582
2.1171	95.0616
2.112	95.1679
2.1068	94.9672
2.1017	95.1145
2.0966	94.9052
2.0915	94.9899
2.0865	94.4291
2.0814	94.898
2.0764	94.6829
2.0715	94.5977
2.0665	94.6426
2.0616	93.3645
2.0567	92.3186
2.0518	90.2642
2.0469	87.4775
2.0421	89.7276
2.0373	90.7036
2.0325	91.3652
2.0277	92.4286
2.0229	92.608
2.0182	92.9588
2.0135	92.8056
2.0088	92.8555
2.0042	93.0707
