Name: Quartz SiO_2
Type: Mineral
Class: Silicate
Subclass: Tectosilicate
Particle Size: Coarse
Sample No.: TS-1B
Owner: JPL
Wavelength Range: VSWIR
Origin: Brazil, Minas Gerais
Description: Smoky quartz. Particle size was 125-500um.Collected by Burminco Original ASTER Spectral Library name was jpl.beckman.mineral.silicate.tectosilicate.coarse.ts01b.spectrum.txt
Measurement: Hemispherical reflectance
X Units: Wavelength (micrometers)
Y Units: Reflectance (percent)
wavelength	value
0.4	45.51
0.403	45.39
0.406	45.43
0.409	45.39
0.412	45.39
0.415	45.39
0.418	45.19
0.421	45.34
0.424	45.34
0.427	45.43
0.43	45.4
0.433	45.31
0.436	45.4
0.439	45.25
0.442	45.31
0.445	45.37
0.448	45.37
0.451	45.31
0.454	45.28
0.457	45.4
0.46	45.27
0.463	45.26
0.466	45.32
0.469	45.33
0.472	45.54
0.475	45.63
0.478	45.56
0.481	45.73
0.484	45.74
0.487	45.83
0.49	46.07
0.493	46.08
0.496	46.32
0.499	46.27
0.502	46.47
0.505	46.82
0.508	46.85
0.511	47.12
0.514	47.25
0.517	47.46
0.52	47.49
0.523	47.69
0.526	47.86
0.529	48.01
0.532	48.31
0.535	48.24
0.538	48.6
0.541	48.65
0.544	48.83
0.547	49.04
0.55	49.2
0.553	49.41
0.556	49.5
0.559	49.72
0.562	50.16
0.565	50.23
0.568	50.33
0.571	50.28
0.574	50.27
0.577	50.37
0.58	50.49
0.583	50.57
0.586	50.7
0.589	50.81
0.592	50.88
0.595	51.08
0.598	51.28
0.601	51.33
0.604	51.49
0.607	51.53
0.61	51.64
0.613	51.66
0.616	51.75
0.619	51.63
0.622	51.84
0.625	51.95
0.628	52
0.631	52.24
0.634	52.19
0.637	52.38
0.64	52.52
0.643	52.52
0.646	52.75
0.649	52.8
0.652	52.95
0.655	53.04
0.658	53.23
0.661	53.26
0.664	53.44
0.667	53.73
0.67	53.68
0.673	53.89
0.676	54.07
0.679	54.2
0.682	54.45
0.685	54.63
0.688	54.71
0.691	54.97
0.694	55.03
0.697	55.12
0.7	55.38
0.703	55.61
0.706	55.68
0.709	55.99
0.712	56.19
0.715	56.34
0.718	56.56
0.721	56.75
0.724	56.92
0.727	57.23
0.73	57.4
0.733	57.47
0.736	57.76
0.739	57.84
0.742	58.21
0.745	58.38
0.748	58.52
0.751	58.75
0.754	58.91
0.757	59.26
0.76	59.38
0.763	59.64
0.766	59.94
0.769	60.07
0.772	60.41
0.775	60.66
0.778	60.81
0.781	61.1
0.784	61.2
0.787	61.66
0.79	61.81
0.793	61.87
0.796	62.24
0.799	62.31
0.808	63.4
0.82	64.36
0.832	65.15
0.844	65.96
0.856	66.92
0.868	67.71
0.88	68.35
0.892	69.04
0.904	69.76
0.916	70.35
0.928	70.87
0.94	71.55
0.952	72.22
0.964	72.72
0.976	73.12
0.988	73.61
1	73.96
1.012	74.48
1.024	74.75
1.036	75.09
1.048	75.55
1.06	75.92
1.072	76.01
1.084	76.3
1.096	76.59
1.108	76.9
1.12	77.05
1.132	77.17
1.144	77.44
1.156	77.52
1.168	77.54
1.18	77.73
1.192	77.97
1.204	77.95
1.216	78.08
1.228	78.17
1.24	78.28
1.252	78.38
1.264	78.49
1.276	78.54
1.288	78.62
1.3	78.58
1.312	78.69
1.324	78.74
1.336	78.83
1.348	78.77
1.36	78.77
1.372	78.84
1.384	79.01
1.396	79.03
1.408	78.98
1.42	78.98
1.432	79.13
1.444	79.26
1.456	79.19
1.468	79.22
1.48	79.31
1.492	79.38
1.504	79.35
1.516	79.39
1.528	79.4
1.54	79.39
1.552	79.4
1.564	79.51
1.576	79.49
1.588	79.46
1.6	79.56
1.612	79.68
1.624	79.56
1.636	79.61
1.648	79.73
1.66	79.75
1.672	79.67
1.684	79.81
1.696	79.9
1.708	79.86
1.72	80
1.732	79.96
1.744	79.73
1.756	79.84
1.768	79.93
1.78	79.82
1.792	79.93
1.804	80
1.816	80.07
1.828	79.83
1.84	79.99
1.852	80.1
1.864	79.92
1.876	79.96
1.888	79.99
1.9	79.93
1.912	79.97
1.924	80.1
1.936	80.1
1.948	79.99
1.96	80.09
1.972	80.32
1.984	80.33
1.996	80.43
2.008	80.53
2.02	80.68
2.032	80.79
2.044	80.83
2.056	80.77
2.068	80.81
2.08	81.05
2.092	81.09
2.104	81.21
2.116	81.3
2.128	81.44
2.14	81.3
2.152	81.15
2.164	81.14
2.176	81.05
2.188	80.97
2.2	80.92
2.212	80.75
2.224	80.97
2.236	81.03
2.248	80.99
2.26	80.94
2.272	80.98
2.284	81.17
2.296	81.24
2.308	81.34
2.32	81.61
2.332	81.57
2.344	81.64
2.356	81.64
2.368	81.67
2.38	81.6
2.392	81.48
2.404	81.69
2.416	81.74
2.428	81.61
2.44	81.55
2.452	81.64
2.464	81.56
2.476	81.53
2.488	81.85
2.5	82.17
