Name: Tschermigite (NH_4)Al(SO_4)_2.12H_2O
Type: Mineral
Class: Sulfate
Subclass: None
Particle Size: Medium
Sample No.: SO-6A
Owner: JPL
Wavelength Range: TIR
Origin: USA, Nevada, Esmeralda County, Silver Peak
Description: Particle size was 45-125um.Collected by Burminco Original ASTER Spectral Library name was jpl.nicolet.mineral.sulfate.none.medium.so06a.spectrum.txt
Measurement: Hemispherical reflectance
X Units: Wavelength (micrometers)
Y Units: Reflectance (percent)
wavelength	value
15.3853	1.8731
15.1161	1.9674
14.8563	1.9893
14.6052	2.0173
14.3624	1.9309
14.1276	1.8302
13.9004	1.6396
13.6803	0.9996
13.4671	0.9595
13.2604	0.7019
13.06	0.8381
12.8656	0.991
12.6769	0.9189
12.4936	1.1191
12.3155	0.9213
12.1425	1.1849
11.9742	1.2827
11.8106	1.2879
11.6513	1.3654
11.4963	1.494
11.3454	1.5429
11.1983	1.6326
11.0551	1.748
10.9154	1.3286
10.7793	1.7801
10.6465	1.4742
10.5169	1.4327
10.3904	1.6166
10.267	1.594
10.1464	1.6485
10.0287	1.7973
9.9136	2.0045
9.8012	2.3354
9.6913	2.902
9.5838	3.3272
9.4787	4.3421
9.3758	4.6468
9.2752	5.5366
9.1767	8.3746
9.0803	11.3033
8.9858	11.3303
8.8934	8.828
8.8028	4.6018
8.714	0.8311
8.627	0.211
8.5417	0.1722
8.4581	0.3734
8.3761	0.3347
8.2957	0.1401
8.2169	0.2122
8.1395	0.361
8.0635	0.5112
7.989	0.5689
7.9158	0.5224
7.8439	0.6361
7.7734	0.6631
7.7041	0.7242
7.636	0.7795
7.5691	0.7887
7.5034	0.8399
7.4388	0.9205
7.3753	0.8453
7.3129	0.8778
7.2515	0.8052
7.1912	0.851
7.1318	0.9701
7.0734	0.9068
7.016	1.0349
6.9595	1.013
6.9039	1.011
6.8492	0.931
6.7953	0.9883
6.7423	0.9931
6.6901	0.9398
6.6387	1.0877
6.5881	1.068
6.5382	1.0274
6.4892	0.9937
6.4408	1.0816
6.3931	1.0938
6.3462	1.0992
6.2999	1.1295
6.2543	1.0106
6.2094	1.1088
6.1651	0.9152
6.1214	1.0966
6.0784	0.9687
6.0359	0.8955
5.994	0.9187
5.9527	0.823
5.912	0.781
5.8718	0.8289
5.8322	0.8367
5.7931	0.8083
5.7545	0.9225
5.7165	0.9582
5.6789	0.8897
5.6418	0.9334
5.6052	0.9222
5.5691	0.8482
5.5334	0.9921
5.4982	1.0071
5.4635	0.9365
5.4291	0.9599
5.3952	1.0475
5.3618	1.0145
5.3287	1.1702
5.2961	1.0641
5.2638	1.161
5.2319	1.203
5.2004	1.1605
5.1693	1.1621
5.1386	1.2162
5.1082	1.111
5.0782	1.286
5.0485	1.293
5.0192	1.2506
4.9902	1.1746
4.9616	1.2841
4.9332	1.2337
4.9052	1.3457
4.8776	1.186
4.8502	1.2522
4.8231	1.3389
4.7963	1.2028
4.7699	1.3038
4.7437	1.4295
4.7178	1.2968
4.6922	1.3451
4.6668	1.3791
4.6418	1.3392
4.617	1.2985
4.5924	1.3142
4.5681	1.2474
4.5441	1.3132
4.5203	1.2697
4.4968	1.2852
4.4735	1.4094
4.4505	1.3445
4.4277	1.3313
4.4051	1.31
4.3828	1.4069
4.3607	1.3498
4.3388	1.3668
4.3171	1.2762
4.2956	1.3057
4.2744	1.5171
4.2534	1.4636
4.2325	1.4429
4.2119	1.3345
4.1915	1.4199
4.1712	1.3007
4.1512	1.4789
4.1313	1.3615
4.1117	1.3838
4.0922	1.3534
4.0729	1.449
4.0538	1.327
4.0349	1.4026
4.0161	1.3599
3.9976	1.4477
3.9792	1.3542
3.9609	1.3451
3.9428	1.3354
3.9249	1.3642
3.9072	1.2512
3.8896	1.247
3.8722	1.393
3.8549	1.4299
3.8378	1.2581
3.8208	1.3824
3.804	1.3836
3.7873	1.4653
3.7708	1.3599
3.7544	1.3967
3.7382	1.3785
3.7221	1.4347
3.7061	1.4547
3.6903	1.5665
3.6746	1.6539
3.659	1.4683
3.6436	1.4266
3.6283	1.541
3.6131	1.527
3.5981	1.5338
3.5832	1.589
3.5684	1.5958
3.5537	1.5812
3.5391	1.5599
3.5247	1.5895
3.5104	1.6405
3.4962	1.6664
3.4821	1.578
3.4681	1.5161
3.4543	1.5451
3.4405	1.4773
3.4269	1.4512
3.4133	1.4796
3.3999	1.4251
3.3866	1.3344
3.3733	1.4117
3.3602	1.1936
3.3472	1.3669
3.3343	1.1377
3.3215	1.0926
3.3088	1.0747
3.2961	0.919
3.2836	1.0848
3.2712	0.8837
3.2588	1.0023
3.2466	0.7901
3.2345	0.9226
3.2224	0.9088
3.2104	0.8771
3.1985	0.9314
3.1867	0.818
3.175	0.7943
3.1634	0.763
3.1519	1.0049
3.1404	0.9304
3.129	0.9012
3.1178	0.9051
3.1065	0.7121
3.0954	1.0077
3.0844	0.9079
3.0734	1.0705
3.0625	1.0129
3.0517	0.872
3.041	1.0568
3.0303	1.2464
3.0197	1.3226
3.0092	1.1197
2.9987	1.1741
2.9884	1.2881
2.9781	1.1563
2.9678	0.9559
2.9577	1.0827
2.9476	0.8639
2.9376	0.7305
2.9276	0.6588
2.9177	0.4705
2.9079	0.4179
2.8982	0.4166
2.8885	0.3649
2.8789	0.3431
2.8693	0.3584
2.8598	0.5176
2.8504	0.3685
2.841	0.3895
2.8317	0.2471
2.8224	0.3722
2.8133	0.2558
2.8041	0.491
2.7951	0.3434
2.786	0.516
2.7771	0.6823
2.7682	0.6088
2.7594	0.5551
2.7506	1.0418
2.7418	1.1131
2.7332	1.2471
2.7246	1.7243
2.716	2.1321
2.7075	2.2386
2.699	2.5106
2.6906	2.8492
2.6823	3.1925
2.674	3.4963
2.6657	3.8322
2.6575	3.9552
2.6494	4.2239
2.6413	4.5823
2.6332	4.649
2.6252	4.8143
2.6173	5.1988
2.6094	5.3619
2.6015	5.2701
2.5937	5.6244
2.5859	5.5716
2.5782	5.5146
2.5706	5.5789
2.5629	5.6807
2.5554	5.4363
2.5478	5.6879
2.5403	5.2737
2.5329	5.2956
2.5255	5.4934
2.5181	5.4982
2.5108	5.9005
2.5035	5.8131
2.4963	6.0409
2.4891	6.476
2.482	6.6154
2.4749	6.974
2.4678	7.1542
2.4608	7.5149
2.4538	7.5883
2.4468	7.8445
2.4399	8.334
2.4331	8.5938
2.4262	8.8352
2.4194	9.3526
2.4127	9.9671
2.4059	10.2814
2.3993	10.351
2.3926	10.868
2.386	10.9944
2.3795	11.2883
2.3729	11.4245
2.3664	11.6032
2.36	11.71
2.3535	11.9804
2.3471	11.8545
2.3408	11.6941
2.3345	11.6877
2.3282	11.8321
2.3219	11.5806
2.3157	11.6129
2.3095	11.679
2.3034	11.2859
2.2972	11.8001
2.2911	11.4352
2.2851	11.7362
2.279	11.5295
2.2731	11.9499
2.2671	11.5972
2.2612	11.7556
2.2553	11.5691
2.2494	11.7041
2.2435	11.5322
2.2377	11.6867
2.232	11.5394
2.2262	11.387
2.2205	11.4653
2.2148	11.4555
2.2091	11.4591
2.2035	11.4533
2.1979	11.4192
2.1923	11.2707
2.1868	11.2085
2.1812	11.3864
2.1758	11.3268
2.1703	11.2463
2.1649	11.0895
2.1595	11.2207
2.1541	11.1783
2.1487	11.2805
2.1434	11.1491
2.1381	11.0633
2.1328	11.3549
2.1275	11.3994
2.1223	11.2963
2.1171	11.694
2.112	11.9089
2.1068	11.9668
2.1017	11.8935
2.0966	11.8905
2.0915	11.6102
2.0865	12.2097
2.0814	12.0616
2.0764	12.4078
2.0715	12.0325
2.0665	12.2009
2.0616	12.125
2.0567	12.1548
2.0518	12.218
2.0469	11.7882
2.0421	11.3883
2.0373	11.3887
2.0325	11.1827
2.0277	10.5802
2.0229	10.2952
2.0182	10.132
2.0135	9.6341
2.0088	9.191
2.0042	8.9119
