Name: Talc Mg_3Si_4O_10(OH)_2
Type: Mineral
Class: Silicate
Subclass: Phyllosilicate
Particle Size: Fine
Sample No.: PS-14A
Owner: JPL
Wavelength Range: TIR
Origin: USA, Georgia, Cherokee County, Holly Springs
Description: Particle size was 0-45um.Collected by Burminco Original ASTER Spectral Library name was jpl.nicolet.mineral.silicate.phyllosilicate.fine.ps14a.spectrum.txt
Measurement: Hemispherical reflectance
X Units: Wavelength (micrometers)
Y Units: Reflectance (percent)
wavelength	value
15.3853	6.7554
15.1161	5.8403
14.8563	8.8908
14.6052	6.7917
14.3624	1.6388
14.1276	0.5403
13.9004	2.1924
13.6803	5.207
13.4671	8.0904
13.2604	10.651
13.06	11.7535
12.8656	10.4024
12.6769	11.1922
12.4936	14.5674
12.3155	16.6413
12.1425	18.4451
11.9742	19.7679
11.8106	19.7619
11.6513	18.9297
11.4963	18.0412
11.3454	17.6529
11.1983	17.0288
11.0551	16.1463
10.9154	16.0641
10.7793	15.9062
10.6465	14.4069
10.5169	12.8804
10.3904	11.5886
10.267	10.7852
10.1464	10.1377
10.0287	10.1373
9.9136	12.313
9.8012	18.571
9.6913	19.978
9.5838	19.2879
9.4787	17.0026
9.3758	20.7219
9.2752	22.4651
9.1767	22.9586
9.0803	23.1096
8.9858	22.4106
8.8934	20.9726
8.8028	20.0619
8.714	19.2416
8.627	16.8035
8.5417	14.301
8.4581	10.8847
8.3761	8.1823
8.2957	5.7203
8.2169	4.4185
8.1395	4.1524
8.0635	4.211
7.989	4.6898
7.9158	6.1229
7.8439	6.5213
7.7734	6.2463
7.7041	5.7821
7.636	6.0641
7.5691	7.4
7.5034	9.346
7.4388	10.2782
7.3753	10.7419
7.3129	12.0672
7.2515	12.8754
7.1912	12.605
7.1318	13.8707
7.0734	15.2071
7.016	17.2012
6.9595	19.2926
6.9039	22.0116
6.8492	23.2917
6.7953	27.0312
6.7423	30.5266
6.6901	33.4457
6.6387	34.0287
6.5881	32.0092
6.5382	31.8686
6.4892	34.74
6.4408	35.6702
6.3931	35.986
6.3462	36.5576
6.2999	36.1851
6.2543	36.3629
6.2094	33.7329
6.1651	30.8819
6.1214	24.8402
6.0784	18.2766
6.0359	17.7673
5.994	15.0861
5.9527	17.9668
5.912	24.942
5.8718	20.7429
5.8322	21.349
5.7931	26.7322
5.7545	27.8366
5.7165	26.2528
5.6789	23.7017
5.6418	25.2623
5.6052	24.8246
5.5691	21.4756
5.5334	20.0774
5.4982	19.3395
5.4635	21.1862
5.4291	26.6398
5.3952	26.512
5.3618	25.5475
5.3287	27.3944
5.2961	30.1782
5.2638	29.4252
5.2319	26.5029
5.2004	25.9788
5.1693	30.0067
5.1386	31.1655
5.1082	35.6623
5.0782	47.0642
5.0485	53.833
5.0192	55.6468
4.9902	55.7866
4.9616	55.2622
4.9332	54.1633
4.9052	58.3797
4.8776	61.8779
4.8502	63.2032
4.8231	63.6398
4.7963	64.7795
4.7699	66.8335
4.7437	69.0306
4.7178	67.0206
4.6922	67.1735
4.6668	67.9506
4.6418	68.4379
4.617	73.5784
4.5924	77.2207
4.5681	78.619
4.5441	79.4146
4.5203	79.499
4.4968	79.341
4.4735	79.5137
4.4505	79.6156
4.4277	81.2704
4.4051	82.23
4.3828	83.3152
4.3607	83.6452
4.3388	83.717
4.3171	83.8075
4.2956	83.7465
4.2744	83.9532
4.2534	84.2674
4.2325	84.1337
4.2119	84.2414
4.1915	84.251
4.1712	84.1776
4.1512	84.2421
4.1313	84.3324
4.1117	84.3409
4.0922	84.1171
4.0729	83.9933
4.0538	84.0076
4.0349	84.1984
4.0161	84.57
3.9976	84.7401
3.9792	84.7708
3.9609	84.8527
3.9428	84.6862
3.9249	84.6953
3.9072	84.6182
3.8896	84.7129
3.8722	84.9152
3.8549	85.0792
3.8378	85.0832
3.8208	85.2285
3.804	85.4346
3.7873	85.7542
3.7708	85.8794
3.7544	86.0278
3.7382	85.9554
3.7221	85.9056
3.7061	85.8061
3.6903	84.0644
3.6746	85.513
3.659	85.3451
3.6436	85.0975
3.6283	85.0499
3.6131	85.1577
3.5981	85.1077
3.5832	85.0697
3.5684	84.798
3.5537	84.4106
3.5391	83.7643
3.5247	82.4256
3.5104	78.2559
3.4962	76.8254
3.4821	77.5125
3.4681	78.821
3.4543	78.0091
3.4405	75.9568
3.4269	71.8768
3.4133	70.0705
3.3999	72.6579
3.3866	72.0873
3.3733	70.3526
3.3602	67.9089
3.3472	70.9018
3.3343	74.8552
3.3215	68.9479
3.3088	65.8388
3.2961	74.5192
3.2836	76.6681
3.2712	78.674
3.2588	79.2938
3.2466	79.1216
3.2345	78.6062
3.2224	77.8932
3.2104	77.4495
3.1985	76.4606
3.1867	74.801
3.175	73.9082
3.1634	72.9476
3.1519	72.7406
3.1404	73.8317
3.129	74.5576
3.1178	74.1626
3.1065	73.3989
3.0954	72.1982
3.0844	72.21
3.0734	71.7153
3.0625	71.3067
3.0517	71.0071
3.041	70.447
3.0303	69.8669
3.0197	70.5159
3.0092	70.0625
2.9987	69.0333
2.9884	68.6471
2.9781	68.8718
2.9678	68.392
2.9577	67.8956
2.9476	67.7326
2.9376	67.6806
2.9276	67.571
2.9177	67.5608
2.9079	67.2028
2.8982	67.1809
2.8885	67.0736
2.8789	66.9737
2.8693	67.5674
2.8598	67.5393
2.8504	67.3029
2.841	68.1605
2.8317	68.1624
2.8224	67.9146
2.8133	66.915
2.8041	65.9612
2.7951	64.0456
2.786	64.3466
2.7771	65.6766
2.7682	66.7134
2.7594	66.6625
2.7506	65.5676
2.7418	62.2437
2.7332	33.0165
2.7246	35.1276
2.716	34.1802
2.7075	67.1802
2.699	75.6869
2.6906	79.3164
2.6823	83.0104
2.674	85.6017
2.6657	87.5064
2.6575	86.3334
2.6494	85.7802
2.6413	85.2563
2.6332	85.5783
2.6252	85.1719
2.6173	84.9437
2.6094	84.9091
2.6015	83.3867
2.5937	83.7823
2.5859	81.9132
2.5782	79.9268
2.5706	80.7788
2.5629	81.5248
2.5554	80.2419
2.5478	82.1356
2.5403	80.8184
2.5329	80.2049
2.5255	79.9832
2.5181	79.1751
2.5108	80.3494
2.5035	80.644
2.4963	78.8158
2.4891	81.2125
2.482	81.9522
2.4749	79.0104
2.4678	73.6383
2.4608	74.9792
2.4538	77.2314
2.4468	78.453
2.4399	78.264
2.4331	78.6953
2.4262	76.6127
2.4194	81.4997
2.4127	82.2969
2.4059	80.9895
2.3993	73.0414
2.3926	65.8063
2.386	67.8666
2.3795	70.3948
2.3729	74.5259
2.3664	79.4556
2.36	81.471
2.3535	81.3332
2.3471	84.0097
2.3408	84.5254
2.3345	81.3982
2.3282	72.5573
2.3219	62.8361
2.3157	48.8861
2.3095	48.283
2.3034	60.5252
2.2972	68.1297
2.2911	56.3856
2.2851	65.3335
2.279	75.3042
2.2731	80.1428
2.2671	83.3432
2.2612	85.5399
2.2553	86.9755
2.2494	88.1518
2.2435	88.6057
2.2377	87.9107
2.232	86.1652
2.2262	87.2445
2.2205	89.2577
2.2148	89.4007
2.2091	89.416
2.2035	89.429
2.1979	89.524
2.1923	89.4406
2.1868	89.3218
2.1812	88.5255
2.1758	88.3757
2.1703	88.3532
2.1649	88.6985
2.1595	88.9774
2.1541	89.282
2.1487	88.927
2.1434	88.3526
2.1381	88.1891
2.1328	88.069
2.1275	88.1204
2.1223	88.9225
2.1171	88.8929
2.112	89.1723
2.1068	89.289
2.1017	89.1523
2.0966	89.2488
2.0915	88.8124
2.0865	88.6486
2.0814	88.3757
2.0764	88.1725
2.0715	89.0406
2.0665	89.7443
2.0616	90.1991
2.0567	90.2721
2.0518	90.216
2.0469	90.5281
2.0421	90.5337
2.0373	90.6635
2.0325	90.7941
2.0277	90.7868
2.0229	90.6383
2.0182	90.2204
2.0135	90.252
2.0088	90.3345
2.0042	90.8012
