Name: Beryl Be3Al2Si6O18
Type: Mineral
Class: Silicate
Subclass: Cyclosilicate
Particle Size: Fine
Sample No.: beryl_1
Owner: JHU
Wavelength Range: TIR
Origin: Sample from Maine via Hunt and Salisbury Collection sample#180B (purchased from Ward's Natural Science Establishment).
Description: The hand sample was cut and polished along an unknown axis.  It was pale green and appeared pure.  Microscopic examination showed a small amount (2% or less) of very fine, low birefringent material in the sample.  The contaminating grains occasionally have rhombic or cubic shape.  These grains were unidentifiable. Particle size was Less than 2 Micrometers. (Ring Silicates) Original ASTER Spectral Library name was jhu.nicolet.mineral.silicate.cyclosilicate.powder.beryl1.spectrum.txt
Measurement: Transmission
X Units: Wavelength (micrometers)
Y Units: Transmittance (percent)
wavelength	value
25.0442	86.5154
24.3388	82.4724
23.6719	75.2576
23.0407	53.8299
22.4422	53.953
21.8741	65.533
21.334	73.1483
20.8199	70.5819
20.33	51.4491
19.8627	65.9198
19.4163	54.3788
18.9896	46.8046
18.5812	53.6649
18.19	64.5662
17.815	76.5154
17.4551	76.3396
17.1094	64.494
16.7772	51.0057
16.4576	66.45
16.15	69.5194
15.8537	71.7996
15.568	67.9393
15.2925	60.1424
15.0265	61.0418
14.7697	45.6532
14.5214	47.8954
14.2814	62.0565
14.0492	66.8944
13.8244	65.0682
13.6067	57.8558
13.3957	56.1737
13.1912	65.3363
12.9929	71.346
12.8004	71.0721
12.6135	66.0096
12.432	56.0487
12.2557	57.4222
12.0843	67.1156
11.9176	75.1409
11.7555	79.4007
11.5977	80.908
11.444	79.3641
11.2944	77.1839
11.1487	72.7952
11.0067	65.6649
10.8682	56.6996
10.7332	47.3578
10.6015	39.8202
10.473	34.893
10.3476	36.1469
10.2251	43.5961
10.1056	49.3983
9.9887	55.3592
9.8746	55.2899
9.763	55.3143
9.6539	63.0379
9.5472	70.4769
9.4429	74.4568
9.3408	77.7151
9.2409	79.907
9.1431	81.1878
9.0474	81.739
8.9536	81.8025
8.8618	80.5555
8.7718	77.3094
8.6837	72.9315
8.5973	70.2298
8.5126	61.3436
8.4295	52.6547
8.3481	41.5643
8.2682	41.84
8.1898	46.8807
8.1129	51.8146
8.0374	59.4735
7.9634	67.5272
7.8906	73.9134
7.8192	78.8829
7.7491	82.5721
7.6802	84.5196
7.6126	85.6795
7.5461	86.6709
7.4807	87.3894
7.4165	88.0078
7.3534	88.469
7.2914	88.6778
7.2303	88.8128
7.1703	88.6101
7.1113	88.5117
7.0533	88.4207
6.9962	88.6702
6.94	89.1699
6.8847	89.6758
6.8302	90.2449
6.7767	90.7688
6.7239	91.4343
6.672	91.7988
6.6209	92.1033
6.5705	92.3106
6.5209	92.7783
6.4721	92.405
6.424	92.7644
6.3766	93.1716
6.3299	93.2022
6.2838	93.0847
6.2385	92.4587
6.1937	92.0918
6.1496	90.8203
6.1062	90.6289
6.0633	91.7178
6.0211	92.6201
5.9794	93.4434
5.9383	93.6921
5.8978	94.0398
5.8578	94.4216
5.8184	94.4482
5.7794	94.6875
5.741	94.8796
5.7031	95.0671
5.6657	95.1816
5.6288	95.2168
5.5924	95.2615
5.5564	95.2625
5.5209	95.3838
5.4859	95.4294
5.4513	95.6375
5.4171	95.6377
5.3833	95.6865
5.35	95.7283
5.3171	95.8601
5.2846	95.8142
5.2524	95.7959
5.2207	95.7058
5.1893	95.5564
5.1584	95.5791
5.1277	95.6016
5.0975	95.6443
5.0676	95.781
5.038	95.8728
5.0088	95.9182
4.98	96.0178
4.9514	96.1321
4.9232	96.1374
4.8953	96.1565
4.8678	96.2898
4.8405	96.3054
4.8135	96.3474
4.7868	96.3704
4.7605	96.4294
4.7344	96.5256
4.7086	96.5066
4.6831	96.5974
4.6578	96.6033
4.6328	96.6277
4.6081	96.6213
4.5837	96.7668
4.5595	96.7996
4.5356	96.7546
4.5119	96.8279
4.4884	96.8479
4.4652	96.8025
4.4423	96.8503
4.4196	96.9236
4.3971	96.9421
4.3748	97.0569
4.3528	96.9778
4.331	97.0339
4.3094	97.074
4.288	97.0662
4.2668	97.0007
4.2458	96.8831
4.2251	97.0002
4.2045	97.1228
4.1841	97.2063
4.164	97.2712
4.144	97.301
4.1242	97.2561
4.1046	97.3518
4.0852	97.3088
4.066	97.3108
4.047	97.3791
4.0281	97.2849
4.0094	97.2664
3.9909	97.239
3.9725	97.2737
3.9544	97.2815
3.9363	97.2873
3.9185	97.3738
3.9008	97.4104
3.8833	97.3171
3.8659	97.3074
3.8487	97.4158
3.8316	97.3479
3.8147	97.3498
3.7979	97.3552
3.7813	97.3835
3.7648	97.3728
3.7485	97.3962
3.7323	97.3191
3.7162	97.3396
3.7003	97.3674
3.6845	97.3464
3.6689	97.3044
3.6534	97.3748
3.638	97.3464
3.6227	97.3455
3.6076	97.2561
3.5926	97.3523
3.5777	97.2795
3.563	97.3518
3.5484	97.1882
3.5338	97.2732
3.5195	97.2439
3.5052	97.3181
3.491	97.1892
3.477	97.0564
3.463	96.9163
3.4492	97.0759
3.4355	97.0662
3.4219	97.4001
3.4084	97.2327
3.395	97.1111
3.3817	97.0178
3.3685	97.0666
3.3554	97.0061
3.3425	96.9768
3.3296	97.0134
3.3168	97.0271
3.3041	96.9514
3.2915	96.9163
3.279	96.9475
3.2666	96.8835
3.2543	96.7556
3.2421	96.6003
3.23	96.5281
3.218	96.4812
3.206	96.3621
3.1942	96.2332
3.1824	96.1414
3.1707	96.0623
3.1591	95.8708
3.1476	95.5857
3.1362	95.6091
3.1249	95.364
3.1136	95.1716
3.1024	94.8777
3.0913	94.6003
3.0803	94.3142
3.0694	94.1209
3.0585	93.7244
3.0477	93.7263
3.037	93.3416
3.0264	93.238
3.0158	92.7937
3.0053	92.4265
2.9949	91.7439
2.9845	91.2713
2.9743	90.5711
2.9641	89.8406
2.9539	89.1834
2.9439	88.4929
2.9339	88.1834
2.9239	87.7342
2.9141	87.6336
2.9043	87.8406
2.8946	88.0974
2.8849	88.3611
2.8753	88.6414
2.8658	89.1062
2.8563	89.5007
2.8469	90.0047
2.8375	90.6297
2.8282	91.2156
2.819	92.0086
2.8098	92.6462
2.8007	93.156
2.7917	93.8396
2.7827	93.6335
2.7738	94.6619
2.7649	95.7078
2.7561	96.0251
2.7473	96.5867
2.7386	96.5154
2.7299	96.8005
2.7213	96.7322
2.7128	96.949
2.7043	94.9578
2.6959	97.0115
2.6875	97.7429
2.6791	97.7693
2.6709	97.8328
2.6626	98.0662
2.6545	97.9187
2.6463	98.0437
2.6382	98.1521
2.6302	97.9197
2.6222	98.156
2.6143	98.1892
2.6064	97.99
2.5986	98.1072
2.5908	98.2537
2.583	98.115
2.5753	98.031
2.5677	98.0974
2.5601	98.2361
2.5525	98.0564
2.545	98.2263
2.5375	98.408
2.5301	98.199
2.5227	98.1111
2.5154	98.3689
2.5081	98.3435
2.5008	98.3513
2.4936	98.3044
2.4864	98.5271
2.4793	98.3298
2.4722	98.2751
2.4651	98.5154
2.4581	98.5642
2.4511	98.5701
2.4442	98.3142
2.4373	98.783
2.4305	98.5779
2.4236	98.3044
2.4169	98.6736
2.4101	98.7986
2.4034	98.5193
2.3967	98.572
2.3901	98.4626
2.3835	98.7361
2.377	98.7751
2.3704	98.697
2.364	98.6052
2.3575	98.4548
2.3511	98.6326
2.3447	98.5076
2.3384	98.6326
2.3321	98.6423
2.3258	98.5466
2.3195	98.5642
2.3133	98.8396
2.3071	98.6247
2.301	98.5857
2.2949	98.8455
2.2888	98.7732
2.2828	98.783
2.2767	98.8279
2.2708	98.4021
2.2648	98.906
2.2589	98.7849
2.253	98.5935
2.2471	98.6521
2.2413	98.5662
2.2355	98.738
2.2297	98.7029
2.224	98.6951
2.2183	98.6443
2.2126	98.8435
2.207	98.6872
2.2013	99.1443
2.1957	98.8474
2.1902	98.7068
2.1846	98.7732
2.1791	98.6716
2.1736	98.8747
2.1682	98.9138
2.1628	98.863
2.1574	98.5037
2.152	98.8122
2.1466	98.7497
2.1413	98.6521
2.136	98.5779
2.1308	98.5232
2.1255	98.5622
2.1203	98.656
2.1151	98.9412
2.11	98.8122
2.1048	98.4919
2.0997	98.6755
2.0946	98.7185
2.0895	98.8318
2.0845	98.9099
2.0795	98.5076
