Name: Periclase MgO
Type: Mineral
Class: Oxide
Subclass: None
Particle Size: Fine
Sample No.: O-14A
Owner: JPL
Wavelength Range: VSWIR
Description: Synthetic periclase. Particle size was 0-45um.Collected by JPL Original ASTER Spectral Library name was jpl.beckman.mineral.oxide.none.fine.o14a.spectrum.txt
Measurement: Hemispherical reflectance
X Units: Wavelength (micrometers)
Y Units: Reflectance (percent)
wavelength	value
0.4	98.17
0.403	98.22
0.406	98.28
0.409	98.2
0.412	98.27
0.415	98.34
0.418	98.33
0.421	98.45
0.424	98.38
0.427	98.32
0.43	98.49
0.433	98.38
0.436	98.51
0.439	98.5
0.442	98.45
0.445	98.5
0.448	98.61
0.451	98.65
0.454	98.65
0.457	98.59
0.46	98.79
0.463	98.88
0.466	98.86
0.469	98.75
0.472	98.81
0.475	98.9
0.478	99.03
0.481	98.85
0.484	99.02
0.487	98.89
0.49	98.74
0.493	98.9
0.496	98.87
0.499	99.05
0.502	98.79
0.505	98.91
0.508	98.85
0.511	99.04
0.514	99.05
0.517	98.91
0.52	98.99
0.523	98.98
0.526	98.98
0.529	98.91
0.532	99.09
0.535	98.75
0.538	98.88
0.541	99.07
0.544	98.93
0.547	99.03
0.55	98.88
0.553	99.03
0.556	98.94
0.559	99.12
0.562	99.52
0.565	99.38
0.568	99.14
0.571	99.1
0.574	98.69
0.577	98.94
0.58	98.82
0.583	98.77
0.586	98.78
0.589	98.65
0.592	98.9
0.595	98.96
0.598	98.94
0.601	98.97
0.604	99.03
0.607	99.07
0.61	99.01
0.613	98.95
0.616	98.9
0.619	98.95
0.622	98.9
0.625	98.77
0.628	98.84
0.631	98.83
0.634	98.77
0.637	98.71
0.64	98.79
0.643	98.76
0.646	98.77
0.649	98.83
0.652	98.67
0.655	98.83
0.658	98.72
0.661	98.71
0.664	98.78
0.667	98.78
0.67	98.71
0.673	98.83
0.676	98.78
0.679	98.73
0.682	98.77
0.685	98.83
0.688	98.72
0.691	98.9
0.694	98.77
0.697	98.73
0.7	98.73
0.703	98.72
0.706	98.82
0.709	98.72
0.712	98.94
0.715	98.65
0.718	98.83
0.721	98.66
0.724	98.7
0.727	98.82
0.73	98.78
0.733	98.59
0.736	98.71
0.739	98.71
0.742	98.77
0.745	98.71
0.748	98.64
0.751	98.58
0.754	98.58
0.757	98.58
0.76	98.58
0.763	98.7
0.766	98.58
0.769	98.57
0.772	98.76
0.775	98.63
0.778	98.48
0.781	98.53
0.784	98.74
0.787	98.64
0.79	98.63
0.793	98.58
0.796	98.53
0.799	98.71
0.808	98.72
0.82	98.73
0.832	98.79
0.844	98.87
0.856	98.88
0.868	98.94
0.88	98.75
0.892	98.69
0.904	98.57
0.916	98.52
0.928	98.22
0.94	98.04
0.952	97.87
0.964	98.4
0.976	98.34
0.988	98.4
1	98.57
1.012	98.48
1.024	98.48
1.036	98.42
1.048	98.23
1.06	98.2
1.072	98.27
1.084	98.21
1.096	98.19
1.108	98.12
1.12	98.19
1.132	98.18
1.144	98.08
1.156	97.96
1.168	97.87
1.18	97.78
1.192	97.66
1.204	97.65
1.216	97.45
1.228	97.53
1.24	97.38
1.252	97.25
1.264	97.23
1.276	97.03
1.288	96.61
1.3	96.75
1.312	96.72
1.324	96.65
1.336	96.33
1.348	95.72
1.36	91.82
1.372	91.19
1.384	89.51
1.396	88.49
1.408	92.92
1.42	94.1
1.432	94.41
1.444	94.55
1.456	94.39
1.468	94.45
1.48	94.56
1.492	94.62
1.504	94.74
1.516	94.73
1.528	94.68
1.54	94.74
1.552	94.74
1.564	94.79
1.576	94.96
1.588	94.85
1.6	94.85
1.612	94.6
1.624	94.51
1.636	94.43
1.648	94.34
1.66	94.39
1.672	94.14
1.684	94
1.696	93.86
1.708	93.68
1.72	93.56
1.732	93.34
1.744	93.05
1.756	92.87
1.768	92.69
1.78	92.58
1.792	92.43
1.804	92.39
1.816	92.07
1.828	91.92
1.84	91.65
1.852	91.14
1.864	90.42
1.876	89.53
1.888	88.96
1.9	88.15
1.912	87.27
1.924	86.72
1.936	86.24
1.948	86.09
1.96	85.93
1.972	85.97
1.984	86.04
1.996	86.21
2.008	86.28
2.02	86.43
2.032	86.6
2.044	86.67
2.056	86.73
2.068	86.81
2.08	86.83
2.092	86.84
2.104	86.88
2.116	87.02
2.128	86.97
2.14	86.79
2.152	86.41
2.164	85.86
2.176	85.12
2.188	84.25
2.2	83.43
2.212	82.73
2.224	82.23
2.236	81.66
2.248	81.23
2.26	80.46
2.272	79.97
2.284	79.01
2.296	78.19
2.308	77.33
2.32	77.27
2.332	77.72
2.344	78.26
2.356	78.35
2.368	78.04
2.38	77.45
2.392	76.16
2.404	74.22
2.416	71.47
2.428	68.96
2.44	66.89
2.452	64.78
2.464	63.09
2.476	62.56
2.488	63.57
2.5	65.31
