Name: Heulandite (Na,Ca)2-3Al3(Al,Si)2Si13O36.12H2O
Type: Mineral
Class: Silicate
Subclass: Tectosilicate
Particle Size: Fine
Sample No.: heulan_1
Owner: JHU
Wavelength Range: TIR
Origin: Teigarhora, Iceland via W. J. Ehmann #37.
Description: No solid sample was available.  Petrographically the sample was pure heulandite, with <1% of the grains showing parallel sets of (fluid) inclusions. Particle size was less than 2 Micrometers.(Zeolite Group) Original ASTER Spectral Library name was jhu.nicolet.mineral.silicate.tectosilicate.powder.heulan1.spectrum.txt
Measurement: Transmission
X Units: Wavelength (micrometers)
Y Units: Transmittance (percent)
wavelength	value
25.0442	45.9764
24.3388	41.0643
23.6719	36.662
23.0407	31.9657
22.4422	27.996
21.8741	26.704
21.334	28.455
20.8199	34.1415
20.33	41.7811
19.8627	47.6718
19.4163	50.3944
18.9896	51.4632
18.5812	53.4183
18.19	53.7699
17.815	53.2035
17.4551	52.2704
17.1094	51.4003
16.7772	50.1976
16.4576	51.3006
16.15	53.723
15.8537	55.6786
15.568	56.3739
15.2925	56.057
15.0265	55.307
14.7697	55.0707
14.5214	54.8275
14.2814	53.7992
14.0492	52.9144
13.8244	52.6095
13.6067	53.3866
13.3957	54.9181
13.1912	57.1405
12.9929	58.7765
12.8004	60.3944
12.6135	62.7625
12.432	66.4925
12.2557	70.6143
12.0843	72.3113
11.9176	70.1966
11.7555	64.8006
11.5977	59.4471
11.444	55.4015
11.2944	53.1024
11.1487	52.1717
11.0067	52.0458
10.8682	51.6769
10.7332	49.8202
10.6015	45.4174
10.473	37.8754
10.3476	28.8459
10.2251	20.2978
10.1056	13.7307
9.9887	9.4262
9.8746	6.8296
9.763	5.3567
9.6539	4.55
9.5472	4.2602
9.4429	4.5723
9.3408	5.3579
9.2409	6.8154
9.1431	8.5776
9.0474	10.1269
8.9536	11.5324
8.8618	12.9365
8.7718	14.3547
8.6837	16.0041
8.5973	18.1057
8.5126	21.0556
8.4295	24.9208
8.3481	30.1576
8.2682	38.6088
8.1898	50.6849
8.1129	61.0741
8.0374	67.6766
7.9634	71.7642
7.8906	74.8067
7.8192	77.0062
7.7491	78.7283
7.6802	80.1631
7.6126	81.212
7.5461	82.2466
7.4807	83.0498
7.4165	83.7513
7.3534	84.0054
7.2914	84.4568
7.2303	84.7659
7.1703	83.9993
7.1113	84.0066
7.0533	85.2571
6.9962	85.6756
6.94	85.9251
6.8847	85.6897
6.8302	85.3064
6.7767	85.4759
6.7239	86.2459
6.672	86.9993
6.6209	87.4744
6.5705	87.6399
6.5209	87.3992
6.4721	87.0154
6.424	86.4983
6.3766	85.6272
6.3299	83.8142
6.2838	81.8172
6.2385	79.492
6.1937	74.575
6.1496	68.4818
6.1062	67.4324
6.0633	69.2767
6.0211	71.6644
5.9794	75.2723
5.9383	79.8118
5.8978	83.6492
5.8578	86.0149
5.8184	87.3196
5.7794	88.1453
5.741	88.6057
5.7031	88.9417
5.6657	89.2503
5.6288	89.448
5.5924	89.5518
5.5564	89.7317
5.5209	89.8469
5.4859	89.9666
5.4513	90.1255
5.4171	90.2625
5.3833	90.4192
5.35	90.4661
5.3171	90.6218
5.2846	90.6795
5.2524	90.7825
5.2207	90.8049
5.1893	90.9143
5.1584	90.991
5.1277	91.1199
5.0975	91.1306
5.0676	91.1663
5.038	91.1834
5.0088	91.3015
4.98	91.2024
4.9514	91.2598
4.9232	91.2495
4.8953	91.28
4.8678	91.2151
4.8405	91.2288
4.8135	91.262
4.7868	91.1985
4.7605	91.1494
4.7344	91.1038
4.7086	91.0559
4.6831	90.992
4.6578	90.9597
4.6328	90.8953
4.6081	90.9763
4.5837	90.9226
4.5595	90.9043
4.5356	90.8838
4.5119	90.8386
4.4884	90.8855
4.4652	90.8416
4.4423	90.8108
4.4196	90.8963
4.3971	90.8694
4.3748	90.9522
4.3528	90.9492
4.331	91.0176
4.3094	91.0227
4.288	91.0088
4.2668	91.0471
4.2458	91.156
4.2251	91.1846
4.2045	91.1856
4.1841	91.2678
4.164	91.2908
4.144	91.3438
4.1242	91.4219
4.1046	91.4739
4.0852	91.4739
4.066	91.5156
4.047	91.5281
4.0281	91.5957
4.0094	91.6306
3.9909	91.647
3.9725	91.6045
3.9544	91.636
3.9363	91.6047
3.9185	91.6594
3.9008	91.552
3.8833	91.4754
3.8659	91.3801
3.8487	91.3184
3.8316	91.1643
3.8147	91.0994
3.7979	90.9971
3.7813	90.8308
3.7648	90.6755
3.7485	90.459
3.7323	90.2957
3.7162	90.093
3.7003	89.8289
3.6845	89.634
3.6689	89.3977
3.6534	89.1135
3.638	88.8943
3.6227	88.5589
3.6076	88.2686
3.5926	87.991
3.5777	87.655
3.563	87.3057
3.5484	86.9383
3.5338	86.4236
3.5195	85.9141
3.5052	85.2649
3.491	84.9151
3.477	84.4729
3.463	84.0371
3.4492	83.3836
3.4355	82.6778
3.4219	81.7715
3.4084	81.1524
3.395	80.7517
3.3817	80.0955
3.3685	79.4229
3.3554	78.7344
3.3425	77.9053
3.3296	77.0428
3.3168	76.1541
3.3041	75.2938
3.2915	74.366
3.279	73.3575
3.2666	72.3094
3.2543	71.2195
3.2421	70.0447
3.23	68.7266
3.218	67.4271
3.206	66.171
3.1942	64.9207
3.1824	63.6729
3.1707	62.3858
3.1591	61.1385
3.1476	59.7035
3.1362	58.4203
3.1249	57.1683
3.1136	55.8963
3.1024	54.7733
3.0913	53.8856
3.0803	53.0614
3.0694	52.2738
3.0585	51.5985
3.0477	50.8817
3.037	50.1278
3.0264	49.2738
3.0158	48.2899
3.0053	47.2557
2.9949	46.1913
2.9845	45.2772
2.9743	44.4139
2.9641	43.7738
2.9539	43.411
2.9439	43.16
2.9339	43.0487
2.9239	42.9535
2.9141	43.1239
2.9043	43.3505
2.8946	43.5336
2.8849	43.869
2.8753	44.3378
2.8658	44.9315
2.8563	45.6122
2.8469	46.6762
2.8375	47.705
2.8282	48.5175
2.819	49.3456
2.8098	50.3592
2.8007	51.4569
2.7917	52.4432
2.7827	53.6254
2.7738	55.223
2.7649	57.2752
2.7561	60.2171
2.7473	64.0687
2.7386	68.5511
2.7299	72.6268
2.7213	75.8475
2.7128	77.8641
2.7043	79.617
2.6959	80.9422
2.6875	81.7674
2.6791	82.3963
2.6709	82.7776
2.6626	83.0628
2.6545	83.3953
2.6463	83.5179
2.6382	83.6092
2.6302	83.7303
2.6222	83.7127
2.6143	83.9099
2.6064	84.0061
2.5986	84.1858
2.5908	84.2205
2.583	84.4373
2.5753	84.2166
2.5677	84.2757
2.5601	84.3318
2.5525	84.4431
2.545	84.3904
2.5375	84.2932
2.5301	84.1785
2.5227	84.2752
2.5154	84.3631
2.5081	84.5437
2.5008	84.3494
2.4936	84.3123
2.4864	84.3777
2.4793	84.241
2.4722	84.2195
2.4651	84.3582
2.4581	84.4793
2.4511	84.5906
2.4442	84.5642
2.4373	84.3826
2.4305	84.3103
2.4236	84.4978
2.4169	84.5486
2.4101	84.4929
2.4034	84.5652
2.3967	84.5437
2.3901	84.3494
2.3835	84.3924
2.377	84.5916
2.3704	84.5681
2.364	84.365
2.3575	84.2185
2.3511	84.4392
2.3447	84.4812
2.3384	84.2693
2.3321	84.2
2.3258	83.9549
2.3195	84.2771
2.3133	84.3601
2.3071	84.1453
2.301	84.0086
2.2949	84.1111
2.2888	84.0056
2.2828	83.9959
2.2767	84.076
2.2708	83.9783
2.2648	83.6492
2.2589	83.6883
2.253	84.1736
2.2471	83.9998
2.2413	83.5125
2.2355	83.6795
2.2297	83.7498
2.224	83.6072
2.2183	83.5789
2.2126	83.6482
2.207	83.5711
2.2013	83.3445
2.1957	83.406
2.1902	83.6365
2.1846	83.3797
2.1791	83.282
2.1736	83.8162
2.1682	83.45
2.1628	83.7615
2.1574	83.8953
2.152	83.5203
2.1466	83.3201
2.1413	83.3328
2.136	83.4773
2.1308	83.4265
2.1255	83.4851
2.1203	83.3826
2.1151	83.5017
2.11	83.3084
2.1048	83.2322
2.0997	83.3904
2.0946	83.4998
2.0895	83.1756
2.0845	83.1424
2.0795	82.9412
