Name: Scheelite CaWO_4
Type: Mineral
Class: Tungstate
Subclass: None
Particle Size: Medium
Sample No.: T-1A
Owner: JPL
Wavelength Range: TIR
Origin: USA, California, Kern County, Atolia
Description: Particle size was 45-125um.Collected by Burminco Original ASTER Spectral Library name was jpl.nicolet.mineral.tungstate.none.medium.t01a.spectrum.txt
Measurement: Hemispherical reflectance
X Units: Wavelength (micrometers)
Y Units: Reflectance (percent)
wavelength	value
15.3853	7.0138
15.1161	7.3437
14.8563	7.2828
14.6052	7.4635
14.3624	7.5096
14.1276	7.7817
13.9004	8.783
13.6803	9.1646
13.4671	10.131
13.2604	11.8006
13.06	13.8271
12.8656	18.8457
12.6769	29.9378
12.4936	37.4667
12.3155	36.1755
12.1425	35.162
11.9742	34.3557
11.8106	33.7502
11.6513	33.5932
11.4963	33.8472
11.3454	37.4575
11.1983	33.5093
11.0551	17.4757
10.9154	6.5107
10.7793	3.8287
10.6465	3.2969
10.5169	3.1008
10.3904	3.1694
10.267	3.4391
10.1464	3.9224
10.0287	4.575
9.9136	5.3888
9.8012	6.2314
9.6913	7.5756
9.5838	9.1949
9.4787	10.8895
9.3758	13.1073
9.2752	15.3817
9.1767	16.1746
9.0803	15.7552
8.9858	15.544
8.8934	16.4642
8.8028	16.8033
8.714	17.7178
8.627	17.6925
8.5417	20.7184
8.4581	21.9021
8.3761	22.1831
8.2957	22.5872
8.2169	23.4369
8.1395	23.7624
8.0635	23.8701
7.989	24.9231
7.9158	24.8536
7.8439	24.7965
7.7734	26.027
7.7041	26.3099
7.636	27.9881
7.5691	28.3824
7.5034	29.8912
7.4388	30.9711
7.3753	32.0558
7.3129	32.2863
7.2515	32.8263
7.1912	33.1067
7.1318	32.9454
7.0734	32.8489
7.016	32.5304
6.9595	33.1315
6.9039	32.7898
6.8492	32.4458
6.7953	32.4468
6.7423	31.6738
6.6901	31.4185
6.6387	32.1412
6.5881	30.0372
6.5382	28.5033
6.4892	28.7344
6.4408	23.7328
6.3931	17.6255
6.3462	13.0575
6.2999	10.1372
6.2543	9.5493
6.2094	9.5583
6.1651	9.9388
6.1214	11.3078
6.0784	12.2133
6.0359	11.0676
5.994	10.1527
5.9527	9.4188
5.912	8.325
5.8718	7.3637
5.8322	8.0301
5.7931	10.1152
5.7545	16.0404
5.7165	16.3893
5.6789	18.4391
5.6418	20.8711
5.6052	18.4314
5.5691	12.6288
5.5334	16.1463
5.4982	31.1002
5.4635	37.3068
5.4291	38.8387
5.3952	37.5275
5.3618	36.3261
5.3287	36.7088
5.2961	37.6509
5.2638	39.3237
5.2319	42.0616
5.2004	44.1907
5.1693	44.311
5.1386	44.1835
5.1082	44.12
5.0782	43.4377
5.0485	43.2397
5.0192	43.3914
4.9902	43.9551
4.9616	45.9553
4.9332	47.5311
4.9052	50.4488
4.8776	54.3908
4.8502	56.7667
4.8231	58.0124
4.7963	58.9595
4.7699	59.6669
4.7437	60.1593
4.7178	60.4291
4.6922	59.7594
4.6668	60.1296
4.6418	61.5133
4.617	62.5653
4.5924	63.3609
4.5681	63.7636
4.5441	63.6934
4.5203	63.0306
4.4968	62.0842
4.4735	61.9875
4.4505	62.4789
4.4277	63.1584
4.4051	64.0061
4.3828	64.7497
4.3607	65.5276
4.3388	65.5779
4.3171	64.5833
4.2956	62.1142
4.2744	55.1402
4.2534	58.7998
4.2325	61.8835
4.2119	63.8513
4.1915	64.9781
4.1712	65.4704
4.1512	65.8667
4.1313	66.0379
4.1117	65.9654
4.0922	65.7873
4.0729	65.1426
4.0538	64.1297
4.0349	62.363
4.0161	61.1804
3.9976	60.2816
3.9792	60.4563
3.9609	61.2141
3.9428	62.5951
3.9249	63.4983
3.9072	63.9192
3.8896	64.1553
3.8722	64.0694
3.8549	64.0002
3.8378	63.7929
3.8208	64.2649
3.804	65.4426
3.7873	66.5477
3.7708	66.9448
3.7544	66.7857
3.7382	66.6094
3.7221	66.4897
3.7061	66.306
3.6903	66.0291
3.6746	65.7198
3.659	65.3033
3.6436	64.8781
3.6283	64.5088
3.6131	63.8871
3.5981	63.3692
3.5832	62.4225
3.5684	61.6624
3.5537	60.9027
3.5391	59.9274
3.5247	58.2908
3.5104	56.0821
3.4962	54.9572
3.4821	54.6365
3.4681	54.6523
3.4543	54.3377
3.4405	53.3592
3.4269	51.9671
3.4133	50.7916
3.3999	51.0795
3.3866	50.8057
3.3733	50.2668
3.3602	50.1735
3.3472	49.7942
3.3343	49.8973
3.3215	49.5269
3.3088	48.8323
3.2961	48.0913
3.2836	47.1117
3.2712	46.306
3.2588	45.3018
3.2466	44.3662
3.2345	43.5797
3.2224	42.5916
3.2104	41.4688
3.1985	40.5718
3.1867	39.6457
3.175	38.8161
3.1634	37.8115
3.1519	37.1098
3.1404	36.2541
3.129	35.5133
3.1178	34.9177
3.1065	34.4265
3.0954	33.9445
3.0844	33.5199
3.0734	33.1595
3.0625	32.9354
3.0517	32.6365
3.041	32.2693
3.0303	32.0105
3.0197	31.8011
3.0092	31.6748
2.9987	31.4302
2.9884	31.0145
2.9781	30.8784
2.9678	30.823
2.9577	30.4696
2.9476	30.8766
2.9376	30.8947
2.9276	30.9805
2.9177	31.256
2.9079	31.7627
2.8982	31.9689
2.8885	32.3741
2.8789	32.7627
2.8693	33.2333
2.8598	34.1
2.8504	34.635
2.841	35.2816
2.8317	35.974
2.8224	36.748
2.8133	37.4115
2.8041	38.4795
2.7951	38.7385
2.786	39.5341
2.7771	39.9342
2.7682	40.832
2.7594	41.4035
2.7506	42.9135
2.7418	45.6039
2.7332	47.4372
2.7246	51.5871
2.716	54.9358
2.7075	59.2453
2.699	63.0925
2.6906	67.5075
2.6823	70.8573
2.674	72.578
2.6657	75.4203
2.6575	74.4574
2.6494	75.075
2.6413	75.5096
2.6332	76.1668
2.6252	76.3723
2.6173	77.3795
2.6094	76.9092
2.6015	76.9432
2.5937	78.4802
2.5859	77.3076
2.5782	77.1746
2.5706	77.4534
2.5629	77.8222
2.5554	76.9243
2.5478	76.9384
2.5403	76.6309
2.5329	76.6691
2.5255	76.83
2.5181	76.9016
2.5108	76.8236
2.5035	76.9094
2.4963	76.9058
2.4891	76.9827
2.482	77.1482
2.4749	77.2473
2.4678	77.3893
2.4608	77.5668
2.4538	77.6237
2.4468	77.7743
2.4399	77.7667
2.4331	78.0577
2.4262	78.2601
2.4194	78.5628
2.4127	78.7401
2.4059	78.856
2.3993	78.8718
2.3926	79.0447
2.386	79.1026
2.3795	79.1284
2.3729	79.168
2.3664	79.2401
2.36	79.3438
2.3535	79.2088
2.3471	79.0475
2.3408	79.1356
2.3345	79.489
2.3282	79.5932
2.3219	79.9822
2.3157	80.0056
2.3095	80.0081
2.3034	80.0991
2.2972	80.2329
2.2911	80.4405
2.2851	80.4141
2.279	80.727
2.2731	80.6205
2.2671	80.8459
2.2612	80.8026
2.2553	80.7828
2.2494	80.8267
2.2435	80.8295
2.2377	80.7652
2.232	80.825
2.2262	80.6835
2.2205	80.5005
2.2148	80.2874
2.2091	80.1565
2.2035	79.9348
2.1979	79.9335
2.1923	80.0878
2.1868	80.7167
2.1812	80.8222
2.1758	81.0775
2.1703	81.2633
2.1649	81.2293
2.1595	81.5834
2.1541	81.616
2.1487	81.738
2.1434	81.7995
2.1381	81.6212
2.1328	81.657
2.1275	81.5835
2.1223	81.4751
2.1171	81.5845
2.112	81.8306
2.1068	81.4042
2.1017	81.5459
2.0966	81.3459
2.0915	81.8093
2.0865	81.6614
2.0814	81.6527
2.0764	81.6619
2.0715	81.5249
2.0665	82.0376
2.0616	81.4268
2.0567	81.404
2.0518	81.6232
2.0469	81.3749
2.0421	81.5232
2.0373	81.1844
2.0325	81.1582
2.0277	81.1197
2.0229	81.2461
2.0182	81.1032
2.0135	80.8516
2.0088	80.6437
2.0042	80.6446
