Name: Nontronite Na_0.33Fe_2^3+(Si,Al)_4O_10(OH)_2.H_2O
Type: Mineral
Class: Silicate
Subclass: Phyllosilicate
Particle Size: Fine
Sample No.: PS-6B
Owner: JPL
Wavelength Range: TIR
Origin: Germany, Westphalia, Hohen Hagen
Description: Particle size was 0-45um.Collected by Clay Mineral Society Original ASTER Spectral Library name was jpl.nicolet.mineral.silicate.phyllosilicate.fine.ps06b.spectrum.txt
Measurement: Hemispherical reflectance
X Units: Wavelength (micrometers)
Y Units: Reflectance (percent)
wavelength	value
15.3853	1.9631
15.1161	2.1762
14.8563	1.903
14.6052	2.2502
14.3624	1.7714
14.1276	2.1812
13.9004	2.3158
13.6803	2.7335
13.4671	2.6374
13.2604	2.8687
13.06	2.5326
12.8656	2.7871
12.6769	2.3253
12.4936	2.3072
12.3155	2.0688
12.1425	2.3811
11.9742	2.8215
11.8106	3.1535
11.6513	3.3925
11.4963	3.8656
11.3454	3.9754
11.1983	4.1212
11.0551	4.2438
10.9154	4.1312
10.7793	4.06
10.6465	3.9358
10.5169	3.7966
10.3904	3.9712
10.267	3.9602
10.1464	4.3344
10.0287	4.4237
9.9136	5.0041
9.8012	5.2783
9.6913	5.671
9.5838	5.9704
9.4787	5.9894
9.3758	5.8816
9.2752	5.8717
9.1767	5.5807
9.0803	5.0095
8.9858	4.6554
8.8934	4.6632
8.8028	4.4739
8.714	4.2435
8.627	3.7327
8.5417	4.3464
8.4581	4.6861
8.3761	4.7307
8.2957	4.6965
8.2169	4.7668
8.1395	4.8309
8.0635	4.3145
7.989	4.0899
7.9158	3.8112
7.8439	3.7359
7.7734	4.0046
7.7041	4.2169
7.636	4.4613
7.5691	4.9031
7.5034	5.2773
7.4388	5.6013
7.3753	5.93
7.3129	6.2839
7.2515	6.7257
7.1912	7.2098
7.1318	7.5639
7.0734	8.0354
7.016	8.4707
6.9595	8.7673
6.9039	9.2239
6.8492	9.483
6.7953	9.5751
6.7423	9.7916
6.6901	9.806
6.6387	9.694
6.5881	10.0172
6.5382	9.9356
6.4892	9.8086
6.4408	9.9153
6.3931	9.3267
6.3462	8.0248
6.2999	6.8423
6.2543	5.2078
6.2094	3.9476
6.1651	2.8568
6.1214	2.5676
6.0784	2.6204
6.0359	2.8368
5.994	3.3211
5.9527	4.1241
5.912	5.3547
5.8718	7.0532
5.8322	9.3733
5.7931	11.6378
5.7545	13.0021
5.7165	13.8901
5.6789	14.5846
5.6418	14.2378
5.6052	14.2087
5.5691	14.3006
5.5334	14.9886
5.4982	15.9634
5.4635	16.6363
5.4291	17.067
5.3952	16.5871
5.3618	15.6683
5.3287	15.9665
5.2961	16.4752
5.2638	17.6674
5.2319	18.9684
5.2004	20.0317
5.1693	20.5506
5.1386	20.8697
5.1082	21.0891
5.0782	21.0995
5.0485	20.9503
5.0192	20.9943
4.9902	21.2438
4.9616	21.9844
4.9332	22.4239
4.9052	23.1049
4.8776	23.9706
4.8502	24.3294
4.8231	24.7778
4.7963	25.1629
4.7699	25.373
4.7437	25.7625
4.7178	26.0267
4.6922	26.3045
4.6668	26.547
4.6418	26.9787
4.617	27.3219
4.5924	27.5835
4.5681	27.9539
4.5441	28.2068
4.5203	28.3953
4.4968	28.4776
4.4735	28.6777
4.4505	28.9751
4.4277	29.2702
4.4051	29.6329
4.3828	30.2002
4.3607	30.5747
4.3388	30.9604
4.3171	31.3189
4.2956	31.7003
4.2744	31.9051
4.2534	32.5086
4.2325	33.0576
4.2119	33.5874
4.1915	34.1079
4.1712	34.634
4.1512	35.1937
4.1313	35.6221
4.1117	36.144
4.0922	36.6292
4.0729	37.0458
4.0538	37.5238
4.0349	37.9319
4.0161	38.2158
3.9976	38.4602
3.9792	38.6419
3.9609	38.9156
3.9428	38.8265
3.9249	38.9074
3.9072	38.8415
3.8896	38.5829
3.8722	38.2747
3.8549	38.0065
3.8378	37.5943
3.8208	37.1049
3.804	36.6622
3.7873	36.0938
3.7708	35.6901
3.7544	34.87
3.7382	34.2511
3.7221	33.4833
3.7061	32.7856
3.6903	31.9809
3.6746	31.1025
3.659	30.1309
3.6436	29.2998
3.6283	28.4643
3.6131	27.5625
3.5981	26.7687
3.5832	25.9563
3.5684	25.1186
3.5537	24.1665
3.5391	23.3617
3.5247	22.5063
3.5104	21.5869
3.4962	20.5554
3.4821	19.8438
3.4681	19.0974
3.4543	18.1912
3.4405	17.4166
3.4269	16.4388
3.4133	15.7229
3.3999	15.0001
3.3866	14.1766
3.3733	13.6064
3.3602	12.8998
3.3472	12.1556
3.3343	11.6191
3.3215	10.9347
3.3088	10.3277
3.2961	9.7564
3.2836	9.2206
3.2712	8.5799
3.2588	8.0095
3.2466	7.5125
3.2345	6.9566
3.2224	6.5685
3.2104	6.1246
3.1985	5.8819
3.1867	5.5826
3.175	5.3413
3.1634	4.9333
3.1519	4.7782
3.1404	4.5446
3.129	4.2454
3.1178	4.1245
3.1065	4.0666
3.0954	3.9384
3.0844	3.9895
3.0734	3.9948
3.0625	3.8765
3.0517	3.723
3.041	3.6822
3.0303	3.6841
3.0197	3.5437
3.0092	3.6049
2.9987	3.4432
2.9884	3.2857
2.9781	3.5164
2.9678	3.2519
2.9577	3.0874
2.9476	3.1595
2.9376	3.3089
2.9276	3.2927
2.9177	3.2206
2.9079	3.368
2.8982	3.4181
2.8885	3.2057
2.8789	3.5526
2.8693	3.3813
2.8598	3.4971
2.8504	3.7578
2.841	3.8686
2.8317	3.6282
2.8224	3.6594
2.8133	3.1222
2.8041	2.8621
2.7951	2.8366
2.786	2.8019
2.7771	3.3852
2.7682	3.2393
2.7594	3.5547
2.7506	3.9508
2.7418	4.4163
2.7332	5.7633
2.7246	8
2.716	12.0094
2.7075	16.4022
2.699	20.9895
2.6906	24.5232
2.6823	27.5934
2.674	29.92
2.6657	31.2225
2.6575	33.9579
2.6494	35.6204
2.6413	36.8685
2.6332	37.6006
2.6252	38.6961
2.6173	38.6202
2.6094	39.9048
2.6015	40.3659
2.5937	39.8055
2.5859	40.8238
2.5782	41.2895
2.5706	41.2349
2.5629	41.297
2.5554	41.8292
2.5478	41.8273
2.5403	41.9811
2.5329	42.1345
2.5255	42.2703
2.5181	42.5136
2.5108	42.72
2.5035	43.0124
2.4963	43.5484
2.4891	44.4526
2.482	45.5567
2.4749	46.3464
2.4678	46.9676
2.4608	47.611
2.4538	47.9239
2.4468	48.6233
2.4399	48.8996
2.4331	49.1994
2.4262	49.5602
2.4194	49.5643
2.4127	49.4164
2.4059	49.2135
2.3993	49.482
2.3926	50.3326
2.386	52.0172
2.3795	53.8138
2.3729	55.0022
2.3664	55.8049
2.36	56.8545
2.3535	57.5781
2.3471	58.0514
2.3408	58.672
2.3345	59.0621
2.3282	59.3163
2.3219	58.9106
2.3157	58.6478
2.3095	57.5731
2.3034	55.1667
2.2972	52.1811
2.2911	50.4099
2.2851	50.6834
2.279	52.8985
2.2731	55.1953
2.2671	58.1685
2.2612	60.3123
2.2553	61.7661
2.2494	63.1838
2.2435	63.7218
2.2377	63.9997
2.232	64.3655
2.2262	64.1468
2.2205	64.4589
2.2148	64.6192
2.2091	64.9041
2.2035	64.7171
2.1979	64.6711
2.1923	65.0633
2.1868	65.2785
2.1812	65.2195
2.1758	65.6387
2.1703	65.6599
2.1649	65.7587
2.1595	66.0457
2.1541	65.9539
2.1487	66.2239
2.1434	65.7295
2.1381	65.6767
2.1328	65.6477
2.1275	65.5867
2.1223	65.7204
2.1171	65.647
2.112	65.5037
2.1068	65.4519
2.1017	65.3448
2.0966	65.0767
2.0915	64.7273
2.0865	64.7684
2.0814	64.6929
2.0764	64.7476
2.0715	64.2519
2.0665	64.1537
2.0616	63.7846
2.0567	63.9927
2.0518	63.3827
2.0469	63.2513
2.0421	63.2377
2.0373	62.6862
2.0325	62.2729
2.0277	62.0448
2.0229	61.5094
2.0182	60.9153
2.0135	60.445
2.0088	59.821
2.0042	59.4061
