Name: Rhodonite (Mn+2,Fe+2,Mg,Ca)SiO3
Type: Mineral
Class: Silicate
Subclass: Inosilicate
Particle Size: Fine
Sample No.: rhodon_1
Owner: JHU
Wavelength Range: TIR
Origin: Franklin, New Jersey via the Smithsonian (sample no. NMNHC6148)
Description: The hand sample was composed of two fragments, each about 2 cm x 2 cm x 1 cm. Pink rhodonite crystals were removed from host rock by sawing to free pure rhodonite. Under the petrographic microscope, many of the grains show a small degree of unidentified alteration, likely accounting for the strong hydroxyl bands near 2.7 micrometers. Particle size was Less than 2 Micrometers. (chain silicates); (Pyroxenoid Group) Original ASTER Spectral Library name was jhu.nicolet.mineral.silicate.inosilicate.powder.rhodon1.spectrum.txt
Measurement: Transmission
X Units: Wavelength (micrometers)
Y Units: Transmittance (percent)
wavelength	value
25.0442	84.6638
24.3388	74.7381
23.6719	75.5154
23.0407	61.8436
22.4422	43.1405
21.8741	38.121
21.334	53.0116
20.8199	65.5467
20.33	54.5311
19.8627	55.3553
19.4163	57.1756
18.9896	71.9461
18.5812	73.3924
18.19	81.492
17.815	71.7313
17.4551	73.3289
17.1094	78.6248
16.7772	89.2752
16.4576	91.24
16.15	92.0164
15.8537	90.8982
15.568	87.6609
15.2925	86.114
15.0265	74.2127
14.7697	87.115
14.5214	88.2429
14.2814	88.7468
14.0492	87.8025
13.8244	81.826
13.6067	91.5798
13.3957	92.7307
13.1912	92.0452
12.9929	91.1389
12.8004	89.3264
12.6135	88.1287
12.432	85.8523
12.2557	82.8128
12.0843	79.1111
11.9176	73.5428
11.7555	65.9471
11.5977	53.786
11.444	44.0653
11.2944	39.6488
11.1487	30.0551
11.0067	35.3671
10.8682	36.8168
10.7332	43.828
10.6015	34.4633
10.473	36.0517
10.3476	47.1727
10.2251	58.1932
10.1056	52.2186
9.9887	47.5136
9.8746	45.4105
9.763	39.2763
9.6539	41.2548
9.5472	42.1229
9.4429	33.9672
9.3408	35.0907
9.2409	36.6181
9.1431	40.0082
9.0474	47.4418
8.9536	60.037
8.8618	68.5916
8.7718	74.4686
8.6837	78.4842
8.5973	81.2683
8.5126	83.5794
8.4295	85.5945
8.3481	87.823
8.2682	89.7283
8.1898	91.374
8.1129	92.4705
8.0374	93.2976
7.9634	93.822
7.8906	94.03
7.8192	94.3298
7.7491	94.9758
7.6802	95.5449
7.6126	95.9922
7.5461	96.3806
7.4807	96.7722
7.4165	97.1697
7.3534	97.5752
7.2914	97.9385
7.2303	98.2624
7.1703	98.2805
7.1113	98.5127
7.0533	98.6912
6.9962	98.7617
6.94	98.8672
6.8847	99.0735
6.8302	99.3708
6.7767	99.5076
6.7239	99.5364
6.672	99.6829
6.6209	99.6506
6.5705	99.8193
6.5209	99.7322
6.4721	99.6514
6.424	99.6081
6.3766	99.4277
6.3299	99.1555
6.2838	99.1406
6.2385	98.9578
6.1937	98.6435
6.1496	98.5788
6.1062	98.8601
6.0633	99.0098
6.0211	99.1804
5.9794	98.9336
5.9383	99.5019
5.8978	99.7744
5.8578	99.9128
5.8184	100.048
5.7794	99.9783
5.741	100.098
5.7031	100.101
5.6657	100.115
5.6288	100.118
5.5924	100.091
5.5564	100.175
5.5209	100.198
5.4859	100.221
5.4513	100.235
5.4171	100.178
5.3833	100.051
5.35	100.002
5.3171	99.9316
5.2846	99.8703
5.2524	99.8223
5.2207	99.7549
5.1893	99.7451
5.1584	99.7341
5.1277	99.7041
5.0975	99.6745
5.0676	99.6875
5.038	99.6579
5.0088	99.6345
4.98	99.6765
4.9514	99.6794
4.9232	99.5823
4.8953	99.6306
4.8678	99.5554
4.8405	99.5588
4.8135	99.512
4.7868	99.4807
4.7605	99.4319
4.7344	99.4319
4.7086	99.3494
4.6831	99.3386
4.6578	99.2346
4.6328	99.1902
4.6081	99.1531
4.5837	99.0945
4.5595	99.0408
4.5356	98.967
4.5119	98.8689
4.4884	98.8245
4.4652	98.6809
4.4423	98.6223
4.4196	98.6086
4.3971	98.5154
4.3748	98.4441
4.3528	98.3699
4.331	98.2878
4.3094	98.2737
4.288	98.1423
4.2668	98.133
4.2458	98.0808
4.2251	98.0496
4.2045	97.9377
4.1841	97.8733
4.164	97.8025
4.144	97.7224
4.1242	97.5901
4.1046	97.5437
4.0852	97.4744
4.066	97.4089
4.047	97.3796
4.0281	97.3362
4.0094	97.2136
3.9909	97.0803
3.9725	97.012
3.9544	96.948
3.9363	96.8811
3.9185	96.9163
3.9008	96.7776
3.8833	96.6838
3.8659	96.5603
3.8487	96.6467
3.8316	96.5139
3.8147	96.3542
3.7979	96.3523
3.7813	96.2737
3.7648	96.198
3.7485	96.1189
3.7323	95.9177
3.7162	95.9104
3.7003	95.783
3.6845	95.7327
3.6689	95.6121
3.6534	95.5706
3.638	95.5037
3.6227	95.4275
3.6076	95.2483
3.5926	95.2092
3.5777	95.0701
3.563	95.0491
3.5484	95.0115
3.5338	94.9314
3.5195	94.9124
3.5052	94.9373
3.491	94.8123
3.477	94.678
3.463	94.5549
3.4492	94.6306
3.4355	94.6091
3.4219	94.7561
3.4084	94.4514
3.395	94.2053
3.3817	93.9646
3.3685	93.8303
3.3554	93.5857
3.3425	93.4885
3.3296	93.4158
3.3168	93.1736
3.3041	93.1326
3.2915	93.0081
3.279	92.9319
3.2666	92.8064
3.2543	92.6609
3.2421	92.5418
3.23	92.4558
3.218	92.3416
3.206	92.2771
3.1942	92.0974
3.1824	91.99
3.1707	91.8748
3.1591	91.7703
3.1476	91.5193
3.1362	91.4353
3.1249	91.3875
3.1136	91.3259
3.1024	91.2595
3.0913	91.1541
3.0803	91.1658
3.0694	91.0613
3.0585	91.0437
3.0477	91.0359
3.037	90.7713
3.0264	90.6658
3.0158	90.4099
3.0053	90.2673
2.9949	90.0974
2.9845	90.0789
2.9743	89.7498
2.9641	89.3006
2.9539	89.032
2.9439	88.9109
2.9339	88.7752
2.9239	88.5603
2.9141	88.3787
2.9043	88.4295
2.8946	88.5388
2.8849	88.7615
2.8753	88.7068
2.8658	88.949
2.8563	89.2224
2.8469	89.3084
2.8375	89.3611
2.8282	89.2088
2.819	89.2068
2.8098	89.0701
2.8007	89.1677
2.7917	89.3601
2.7827	89.3611
2.7738	89.2361
2.7649	89.3875
2.7561	89.5818
2.7473	89.6873
2.7386	89.864
2.7299	89.9461
2.7213	90.0203
2.7128	89.9998
2.7043	89.9763
2.6959	90.0789
2.6875	90.1218
2.6791	90.0857
2.6709	90.157
2.6626	89.9881
2.6545	89.8679
2.6463	89.8552
2.6382	89.867
2.6302	89.6404
2.6222	89.8416
2.6143	89.6677
2.6064	89.5838
2.5986	89.615
2.5908	89.6267
2.583	89.6834
2.5753	89.4138
2.5677	89.1756
2.5601	89.2048
2.5525	89.0076
2.545	89.0584
2.5375	89.2966
2.5301	89.0193
2.5227	88.8591
2.5154	88.8982
2.5081	88.8826
2.5008	88.6951
2.4936	88.8142
2.4864	88.783
2.4793	88.7205
2.4722	88.492
2.4651	88.7498
2.4581	88.3299
2.4511	88.7205
2.4442	88.2107
2.4373	88.2908
2.4305	88.2459
2.4236	88.1209
2.4169	87.783
2.4101	88.2537
2.4034	88.0857
2.3967	87.9373
2.3901	87.8377
2.3835	87.5506
2.377	87.7927
2.3704	87.7283
2.364	87.658
2.3575	87.5252
2.3511	87.281
2.3447	87.4861
2.3384	87.3123
2.3321	87.4314
2.3258	87.3142
2.3195	86.9783
2.3133	87.0623
2.3071	86.9295
2.301	86.8748
2.2949	87.0935
2.2888	86.9138
2.2828	86.5174
2.2767	86.7576
2.2708	86.4881
2.2648	86.3982
2.2589	86.6482
2.253	86.5037
2.2471	86.0974
2.2413	86.2732
2.2355	86.2459
2.2297	86.1482
2.224	85.9451
2.2183	85.7967
2.2126	85.6638
2.207	86.1599
2.2013	85.8513
2.1957	85.4763
2.1902	85.5818
2.1846	85.4802
2.1791	85.4451
2.1736	85.2537
2.1682	85.531
2.1628	85.2303
2.1574	85.0701
2.152	85.4685
2.1466	85.0701
2.1413	84.9217
2.136	84.8006
2.1308	84.5935
2.1255	84.2381
2.1203	84.7068
2.1151	84.4568
2.11	84.5701
2.1048	84.5974
2.0997	84.3006
2.0946	84.6131
2.0895	84.2342
2.0845	84.2381
2.0795	84.0037
