Name: Glauconite (K,Na)(Fe^3+,Al,Mg)_2(Si,Al)_4O_10(OH)_2
Type: Mineral
Class: Silicate
Subclass: Phyllosilicate
Particle Size: Medium
Sample No.: PS-19A
Owner: JPL
Wavelength Range: VSWIR
Origin: USA, New Jersey
Description: Particle size was 45-125um.Collected by Ward's Original ASTER Spectral Library name was jpl.beckman.mineral.silicate.phyllosilicate.medium.ps19a.spectrum.txt
Measurement: Hemispherical reflectance
X Units: Wavelength (micrometers)
Y Units: Reflectance (percent)
wavelength	value
0.4	5.36
0.403	5.36
0.406	5.42
0.409	5.42
0.412	5.53
0.415	5.66
0.418	5.6
0.421	5.76
0.424	5.77
0.427	5.83
0.43	5.83
0.433	5.77
0.436	6.05
0.439	5.98
0.442	5.94
0.445	6.07
0.448	6.01
0.451	6.17
0.454	6.21
0.457	6.29
0.46	6.45
0.463	6.46
0.466	6.65
0.469	6.78
0.472	6.92
0.475	6.99
0.478	7.16
0.481	7.28
0.484	7.43
0.487	7.51
0.49	7.44
0.493	7.48
0.496	7.62
0.499	7.77
0.502	7.81
0.505	7.86
0.508	7.86
0.511	7.9
0.514	8.01
0.517	8.07
0.52	8.04
0.523	8.19
0.526	8.09
0.529	8.32
0.532	8.33
0.535	8.3
0.538	8.25
0.541	8.29
0.544	8.28
0.547	8.3
0.55	8.18
0.553	8.15
0.556	8.17
0.559	8
0.562	7.97
0.565	7.89
0.568	7.82
0.571	7.78
0.574	7.62
0.577	7.45
0.58	7.3
0.583	7.24
0.586	7.14
0.589	7.02
0.592	6.84
0.595	6.73
0.598	6.5
0.601	6.47
0.604	6.4
0.607	6.25
0.61	6.1
0.613	6.03
0.616	6.02
0.619	5.9
0.622	5.75
0.625	5.68
0.628	5.57
0.631	5.56
0.634	5.41
0.637	5.28
0.64	5.22
0.643	5.1
0.646	5.13
0.649	5.05
0.652	4.93
0.655	4.87
0.658	4.83
0.661	4.71
0.664	4.76
0.667	4.71
0.67	4.59
0.673	4.48
0.676	4.46
0.679	4.47
0.682	4.4
0.685	4.3
0.688	4.17
0.691	4.18
0.694	4.24
0.697	4.09
0.7	4.1
0.703	3.96
0.706	3.95
0.709	3.96
0.712	3.9
0.715	3.85
0.718	3.84
0.721	3.72
0.724	3.72
0.727	3.79
0.73	3.72
0.733	3.73
0.736	3.56
0.739	3.6
0.742	3.55
0.745	3.61
0.748	3.54
0.751	3.49
0.754	3.49
0.757	3.49
0.76	3.6
0.763	3.5
0.766	3.42
0.769	3.43
0.772	3.37
0.775	3.42
0.778	3.49
0.781	3.49
0.784	3.42
0.787	3.42
0.79	3.43
0.793	3.54
0.796	3.54
0.799	3.86
0.808	3.95
0.82	3.91
0.832	3.9
0.844	3.85
0.856	3.8
0.868	3.75
0.88	3.63
0.892	3.57
0.904	3.45
0.916	3.39
0.928	3.26
0.94	3.21
0.952	3.22
0.964	3.21
0.976	3.15
0.988	3.09
1	3.06
1.012	3.02
1.024	3.04
1.036	2.97
1.048	2.98
1.06	2.96
1.072	2.9
1.084	2.87
1.096	2.9
1.108	2.95
1.12	2.85
1.132	2.82
1.144	2.77
1.156	2.83
1.168	2.84
1.18	2.84
1.192	2.89
1.204	2.91
1.216	2.96
1.228	2.94
1.24	3.02
1.252	3.06
1.264	3.13
1.276	3.18
1.288	3.29
1.3	3.35
1.312	3.45
1.324	3.52
1.336	3.64
1.348	3.68
1.36	3.78
1.372	3.85
1.384	3.91
1.396	3.98
1.408	4.1
1.42	4.25
1.432	4.37
1.444	4.51
1.456	4.72
1.468	4.85
1.48	5.03
1.492	5.26
1.504	5.46
1.516	5.65
1.528	5.82
1.54	6.12
1.552	6.34
1.564	6.62
1.576	6.81
1.588	7.11
1.6	7.38
1.612	7.65
1.624	7.93
1.636	8.24
1.648	8.51
1.66	8.85
1.672	9.27
1.684	9.62
1.696	9.99
1.708	10.4
1.72	10.78
1.732	11.13
1.744	11.65
1.756	12.05
1.768	12.43
1.78	12.88
1.792	13.39
1.804	13.86
1.816	14.3
1.828	14.78
1.84	15.21
1.852	15.65
1.864	15.96
1.876	15.88
1.888	15.16
1.9	14.14
1.912	14.26
1.924	15.09
1.936	15.97
1.948	16.59
1.96	17.34
1.972	17.99
1.984	18.82
1.996	19.69
2.008	20.43
2.02	21.2
2.032	21.89
2.044	22.51
2.056	23.16
2.068	23.77
2.08	24.36
2.092	24.89
2.104	25.44
2.116	25.88
2.128	26.23
2.14	26.49
2.152	26.74
2.164	26.95
2.176	26.92
2.188	26.89
2.2	26.78
2.212	26.53
2.224	25.93
2.236	25.05
2.248	24.51
2.26	24.5
2.272	24.3
2.284	22.94
2.296	20.93
2.308	20.17
2.32	21.12
2.332	21.95
2.344	21.62
2.356	20.99
2.368	21.21
2.38	22.32
2.392	23.24
2.404	23.78
2.416	23.7
2.428	23.09
2.44	22.38
2.452	21.74
2.464	21.15
2.476	20.61
2.488	20.36
2.5	20.27
