Name: Beryl Be3Al2Si6O18
Type: Mineral
Class: Silicate
Subclass: Cyclosilicate
Particle Size: Solid
Sample No.: beryl_2
Owner: JHU
Wavelength Range: TIR
Origin: Smithsonian NMNH 134700Sample from Palermo Mine, NorthGroton, New Hampshire.
Description: Hand sample was pale green to white in color and appeared pure on the inside, with a small amount of surface discoloration.  The sample was roughly cubical, 2 cm on a side.  Microscopic examination indicated it to be pure with a very small amount (much less than 1%) of alteration. Sample measured was polished surface.(Ring Silicates) Original ASTER Spectral Library name was jhu.nicolet.mineral.silicate.cyclosilicate.solid.beryl2.spectrum.txt
Measurement: Bidirectional reflectance
X Units: Wavelength (micrometers)
Y Units: Reflectance (percent)
wavelength	value
25.0442	18.3691
24.3388	21.4882
23.6719	26.8495
23.0407	32.1347
22.4422	34.0995
21.8741	34.7714
21.334	35.1317
20.8199	24.6821
20.33	24.9731
19.8627	18.0151
19.4163	23.9135
18.9896	32.9433
18.5812	35.0487
18.19	28.2724
17.815	18.1027
17.4551	13.9126
17.1094	14.4282
16.7772	24.1855
16.4576	22.9736
16.15	14.1059
15.8537	14.7336
15.568	15.3823
15.2925	16.6135
15.0265	17.3403
14.7697	22.3173
14.5214	27.8732
14.2814	26.2695
14.0492	22.1201
13.8244	22.8212
13.6067	26.7919
13.3957	27.9931
13.1912	25.6054
12.9929	16.3964
12.8004	10.0766
12.6135	12.7675
12.432	16.1015
12.2557	18.6977
12.0843	18.9863
11.9176	17.7478
11.7555	17.5327
11.5977	18.4799
11.444	19.7587
11.2944	21.402
11.1487	23.4067
11.0067	26.4279
10.8682	30.3363
10.7332	33.2548
10.6015	35.3837
10.473	40.1801
10.3476	45.6305
10.2251	45.4301
10.1056	42.0526
9.9887	34.8363
9.8746	33.6811
9.763	34.8803
9.6539	33.8432
9.5472	30.7851
9.4429	28.9809
9.3408	30.4006
9.2409	31.1029
9.1431	31.0849
9.0474	30.8156
8.9536	30.1237
8.8618	28.9545
8.7718	27.4255
8.6837	25.6384
8.5973	23.9824
8.5126	23.2985
8.4295	22.8942
8.3481	26.9006
8.2682	28.3405
8.1898	26.663
8.1129	25.6933
8.0374	25.8325
7.9634	26.2338
7.8906	27.3747
7.8192	30.3385
7.7491	28.1288
7.6802	22.8535
7.6126	18.1293
7.5461	14.0105
7.4807	10.1286
7.4165	6.3672
7.3534	4.4216
7.2914	4.5896
7.2303	5.0576
7.1703	5.4353
7.1113	5.8313
7.0533	6.0644
6.9962	6.3974
6.94	6.6999
6.8847	6.8904
6.8302	7.0417
6.7767	7.2153
6.7239	7.3896
6.672	7.5762
6.6209	7.768
6.5705	7.7563
6.5209	7.9892
6.4721	8.1084
6.424	8.2331
6.3766	8.4233
6.3299	8.5896
6.2838	8.7209
6.2385	8.7534
6.1937	9.0151
6.1496	9.2512
6.1062	7.9448
6.0633	8.4819
6.0211	8.6889
5.9794	8.855
5.9383	8.6679
5.8978	8.9126
5.8578	9.0481
5.8184	8.9848
5.7794	9.1518
5.741	9.2263
5.7031	9.3567
5.6657	9.4287
5.6288	9.4314
5.5924	9.5129
5.5564	9.5046
5.5209	9.6032
5.4859	9.6335
5.4513	9.7385
5.4171	9.7173
5.3833	9.7883
5.35	9.6919
5.3171	9.8552
5.2846	9.865
5.2524	9.8708
5.2207	9.853
5.1893	9.8662
5.1584	9.8447
5.1277	9.8491
5.0975	9.8535
5.0676	9.884
5.038	9.9184
5.0088	9.9538
4.98	9.9863
4.9514	10.0437
4.9232	10.0732
4.8953	10.122
4.8678	10.1521
4.8405	10.1755
4.8135	10.2114
4.7868	10.2419
4.7605	10.2842
4.7344	10.3257
4.7086	10.3479
4.6831	10.3708
4.6578	10.3852
4.6328	10.4363
4.6081	10.4585
4.5837	10.4905
4.5595	10.5085
4.5356	10.5393
4.5119	10.5681
4.4884	10.5927
4.4652	10.6025
4.4423	10.634
4.4196	10.6584
4.3971	10.6682
4.3748	10.6772
4.3528	10.6484
4.331	10.5393
4.3094	10.4204
4.288	10.2571
4.2668	10.2199
4.2458	10.188
4.2251	10.1416
4.2045	10.5766
4.1841	10.7632
4.164	10.7683
4.144	10.7749
4.1242	10.7932
4.1046	10.7968
4.0852	10.7932
4.066	10.8015
4.047	10.8091
4.0281	10.8315
4.0094	10.8369
3.9909	10.8413
3.9725	10.8564
3.9544	10.8633
3.9363	10.8957
3.9185	10.8833
3.9008	10.903
3.8833	10.8996
3.8659	10.9101
3.8487	10.8908
3.8316	10.903
3.8147	10.9048
3.7979	10.906
3.7813	10.9089
3.7648	10.8882
3.7485	10.8977
3.7323	10.8774
3.7162	10.8799
3.7003	10.8803
3.6845	10.8838
3.6689	10.8667
3.6534	10.8513
3.638	10.8603
3.6227	10.8711
3.6076	10.8681
3.5926	10.874
3.5777	10.8628
3.563	10.8659
3.5484	10.8613
3.5338	10.8669
3.5195	10.8496
3.5052	10.8608
3.491	10.8528
3.477	10.8491
3.463	10.8364
3.4492	10.8408
3.4355	10.8403
3.4219	10.8554
3.4084	10.8315
3.395	10.8134
3.3817	10.8076
3.3685	10.8039
3.3554	10.7817
3.3425	10.7671
3.3296	10.768
3.3168	10.7617
3.3041	10.7627
3.2915	10.748
3.279	10.749
3.2666	10.7148
3.2543	10.7207
3.2421	10.6772
3.23	10.6865
3.218	10.6675
3.206	10.6767
3.1942	10.6762
3.1824	10.6362
3.1707	10.6228
3.1591	10.625
3.1476	10.6103
3.1362	10.5945
3.1249	10.5932
3.1136	10.5752
3.1024	10.4953
3.0913	10.4392
3.0803	10.4751
3.0694	10.5039
3.0585	10.5283
3.0477	10.4878
3.037	10.4966
3.0264	10.5129
3.0158	10.4863
3.0053	10.4775
2.9949	10.4514
2.9845	10.4463
2.9743	10.4087
2.9641	10.384
2.9539	10.3791
2.9439	10.3408
2.9339	10.333
2.9239	10.2981
2.9141	10.2641
2.9043	10.2842
2.8946	10.23
2.8849	10.185
2.8753	10.1438
2.8658	10.135
2.8563	10.0976
2.8469	10.0566
2.8375	10.0246
2.8282	10.0403
2.819	9.9729
2.8098	9.9448
2.8007	9.9377
2.7917	9.842
2.7827	9.7959
2.7738	9.456
2.7649	9.6758
2.7561	9.7002
2.7473	9.7231
2.7386	9.6474
2.7299	9.6709
2.7213	9.6782
2.7128	9.6799
2.7043	9.5549
2.6959	9.248
2.6875	9.4326
2.6791	9.4863
2.6709	9.5576
2.6626	9.6509
2.6545	9.6479
2.6463	9.6704
2.6382	9.6789
2.6302	9.7109
2.6222	9.7109
2.6143	9.6899
2.6064	9.7051
2.5986	9.688
2.5908	9.6782
2.583	9.6816
2.5753	9.6665
2.5677	9.6474
2.5601	9.665
2.5525	9.6943
2.545	9.7378
2.5375	9.7309
2.5301	9.6972
2.5227	9.6924
2.5154	9.6972
2.5081	9.7099
2.5008	9.7334
2.4936	9.7387
2.4864	9.7529
2.4793	9.7422
2.4722	9.7651
2.4651	9.7715
2.4581	9.7602
2.4511	9.7812
2.4442	9.7929
2.4373	9.7773
2.4305	9.7705
2.4236	9.7636
2.4169	9.7446
2.4101	9.747
2.4034	9.7685
2.3967	9.7466
2.3901	9.7207
2.3835	9.7368
2.377	9.7231
2.3704	9.7031
2.364	9.7392
2.3575	9.7314
2.3511	9.6777
2.3447	9.6894
2.3384	9.7129
2.3321	9.6738
2.3258	9.6953
2.3195	9.688
2.3133	9.6728
2.3071	9.6997
2.301	9.645
2.2949	9.7407
2.2888	9.7304
2.2828	9.6899
2.2767	9.6469
2.2708	9.688
2.2648	9.6953
2.2589	9.7114
2.253	9.7251
2.2471	9.6719
2.2413	9.7031
2.2355	9.6767
2.2297	9.6875
2.224	9.6406
2.2183	9.666
2.2126	9.6899
2.207	9.7075
2.2013	9.6855
2.1957	9.6645
2.1902	9.6777
2.1846	9.7051
2.1791	9.7861
2.1736	9.6826
2.1682	9.6523
2.1628	9.7187
2.1574	9.7304
2.152	9.6992
2.1466	9.709
2.1413	9.7265
2.136	9.7138
2.1308	9.7578
2.1255	9.7256
2.1203	9.7597
2.1151	9.7158
2.11	9.7783
2.1048	9.7304
2.0997	9.7783
2.0946	9.7265
2.0895	9.7168
2.0845	9.8213
2.0795	9.7519
