Name: Clinozoisite Ca_2Al_3(SiO_4)_3(OH)
Type: Mineral
Class: Silicate
Subclass: Sorosilicate
Particle Size: Fine
Sample No.: SS-4A
Owner: JPL
Wavelength Range: VSWIR
Origin: Mexico, Sonora
Description: Particle size was 0-45um.Collected by Ward's Original ASTER Spectral Library name was jpl.beckman.mineral.silicate.sorosilicate.fine.ss04a.spectrum.txt
Measurement: Hemispherical reflectance
X Units: Wavelength (micrometers)
Y Units: Reflectance (percent)
wavelength	value
0.4	32.43
0.403	32.77
0.406	33.42
0.409	34
0.412	34.75
0.415	35.39
0.418	35.9
0.421	36.33
0.424	36.86
0.427	37.5
0.43	37.94
0.433	38.65
0.436	39.05
0.439	39.37
0.442	39.4
0.445	39.44
0.448	39.54
0.451	39.18
0.454	39.69
0.457	40.45
0.46	40.74
0.463	40.95
0.466	41.3
0.469	41.42
0.472	41.5
0.475	42.08
0.478	42.62
0.481	43.2
0.484	43.66
0.487	44.33
0.49	44.9
0.493	45.3
0.496	45.72
0.499	45.9
0.502	46.17
0.505	46.2
0.508	46.43
0.511	46.49
0.514	46.49
0.517	46.49
0.52	46.37
0.523	46.46
0.526	46.38
0.529	46.43
0.532	46.69
0.535	46.57
0.538	46.84
0.541	47.02
0.544	47.3
0.547	47.6
0.55	48.16
0.553	48.71
0.556	49.04
0.559	49.41
0.562	50.37
0.565	50.88
0.568	51.65
0.571	52.19
0.574	52.87
0.577	53.48
0.58	54.04
0.583	54.73
0.586	55.33
0.589	55.98
0.592	56.54
0.595	57.2
0.598	57.52
0.601	58.14
0.604	58.52
0.607	59.08
0.61	59.4
0.613	59.71
0.616	60.08
0.619	60.21
0.622	60.53
0.625	60.74
0.628	61
0.631	61.2
0.634	61.4
0.637	61.53
0.64	61.58
0.643	62
0.646	62.1
0.649	62.22
0.652	62.43
0.655	62.57
0.658	62.74
0.661	63.03
0.664	63.05
0.667	63.23
0.67	63.4
0.673	63.71
0.676	63.63
0.679	63.78
0.682	63.97
0.685	64.02
0.688	64.22
0.691	64.37
0.694	64.5
0.697	64.45
0.7	64.52
0.703	64.78
0.706	64.79
0.709	64.85
0.712	65.01
0.715	65.08
0.718	65.08
0.721	65.08
0.724	65.19
0.727	65.2
0.73	65.1
0.733	65.4
0.736	65.24
0.739	65.22
0.742	65.31
0.745	65.33
0.748	65.2
0.751	65.25
0.754	65.43
0.757	65.39
0.76	65.33
0.763	65.31
0.766	65.26
0.769	65.15
0.772	65.35
0.775	65.46
0.778	65.31
0.781	65.23
0.784	65.27
0.787	65.13
0.79	65.34
0.793	65.42
0.796	65.27
0.799	65.27
0.808	65.63
0.82	65.56
0.832	65.67
0.844	65.73
0.856	65.99
0.868	66.12
0.88	66.22
0.892	66.56
0.904	66.74
0.916	67.04
0.928	67.3
0.94	67.54
0.952	67.85
0.964	68.02
0.976	68.21
0.988	68.35
1	68.41
1.012	68.58
1.024	68.69
1.036	68.85
1.048	68.92
1.06	69.11
1.072	69.4
1.084	69.58
1.096	69.99
1.108	70.28
1.12	70.83
1.132	71.23
1.144	71.62
1.156	72.05
1.168	72.39
1.18	72.92
1.192	73.39
1.204	73.91
1.216	74.19
1.228	74.65
1.24	74.88
1.252	75.21
1.264	75.39
1.276	75.61
1.288	75.8
1.3	75.83
1.312	75.96
1.324	75.9
1.336	75.97
1.348	76.11
1.36	76.17
1.372	76
1.384	75.45
1.396	73.81
1.408	72.6
1.42	74.3
1.432	75.41
1.444	75.94
1.456	76.11
1.468	76.26
1.48	76.33
1.492	76.4
1.504	76.19
1.516	76.07
1.528	75.58
1.54	75.24
1.552	75.22
1.564	75.49
1.576	75.98
1.588	76.46
1.6	76.8
1.612	77.17
1.624	77.28
1.636	77.44
1.648	77.67
1.66	77.87
1.672	77.88
1.684	77.96
1.696	78.12
1.708	78.21
1.72	78.18
1.732	78.21
1.744	78.24
1.756	78.17
1.768	78.22
1.78	78.26
1.792	78.26
1.804	78.21
1.816	77.86
1.828	77.64
1.84	77.89
1.852	77.92
1.864	77.79
1.876	77.02
1.888	75.53
1.9	73.43
1.912	72.5
1.924	73.12
1.936	73.81
1.948	74.31
1.96	74.82
1.972	75.22
1.984	75.86
1.996	76.34
2.008	76.68
2.02	77.04
2.032	77.36
2.044	77.55
2.056	77.65
2.068	77.78
2.08	77.84
2.092	77.86
2.104	77.77
2.116	77.81
2.128	77.77
2.14	77.31
2.152	76.54
2.164	75.36
2.176	73.93
2.188	72.14
2.2	71.3
2.212	71.9
2.224	72.36
2.236	71.2
2.248	69.47
2.26	69.5
2.272	70.12
2.284	69.33
2.296	66.78
2.308	62.71
2.32	58.59
2.332	55.1
2.344	54.39
2.356	58.11
2.368	63.58
2.38	67.65
2.392	69.24
2.404	69.71
2.416	69.59
2.428	69.01
2.44	68.65
2.452	68.35
2.464	67.98
2.476	67.64
2.488	67.6
2.5	67.49
