Name: Andradite Ca3Fe2+3 (SiO4)3
Type: Mineral
Class: Silicate
Subclass: Nesosilicate
Particle Size: Fine
Sample No.: andradite_1
Owner: JHU
Wavelength Range: TIR
Origin: Sample from Rimpfischwange, Zermatt, Valais, Switzerland,via the Smithsonian (sample no. NMNH 113829).
Description: A cluster of subhedral green crystals, some coated with a soft, white contaminant which did not dissolve when treated with HCl. Sample was lightly crushed to free individual 3mm crystals, then hand-picked to assemble only clean, bright green crystals. Under the petrographic microscope, the sample appeared pure, clean and unaltered. A few grains had a light brownish tinge on some edges.  Particle size was less than 2 micrometers. (Isolated tetrahedra) (Garnet Group) Original ASTER Spectral Library name was jhu.nicolet.mineral.silicate.nesosilicate.powder.andrad1.spectrum.txt
Measurement: Transmission
X Units: Wavelength (micrometers)
Y Units: Transmittance (percent)
wavelength	value
25.0442	42.4374
24.3388	58.5389
23.6719	74.9998
23.0407	42.7108
22.4422	49.8846
21.8741	69.1717
21.334	72.2518
20.8199	55.9315
20.33	73.6561
19.8627	57.2118
19.4163	44.9921
18.9896	65.45
18.5812	76.7498
18.19	79.118
17.815	80.8201
17.4551	79.867
17.1094	77.7674
16.7772	77.9021
16.4576	78.3084
16.15	77.324
15.8537	77.7478
15.568	77.4559
15.2925	78.868
15.0265	79.2518
14.7697	78.6424
14.5214	78.5613
14.2814	78.6365
14.0492	78.5105
13.8244	78.3943
13.6067	78.5042
13.3957	79.2952
13.1912	78.5525
12.9929	76.3812
12.8004	71.3812
12.6135	61.658
12.432	46.3554
12.2557	30.9374
12.0843	27.1313
11.9176	21.6894
11.7555	36.1288
11.5977	54.7836
11.444	43.2308
11.2944	17.4609
11.1487	19.4731
11.0067	27.7324
10.8682	32.2758
10.7332	33.85
10.6015	41.1249
10.473	52.5423
10.3476	59.6527
10.2251	62.764
10.1056	63.7801
9.9887	64.37
9.8746	65.3304
9.763	65.8851
9.6539	66.7972
9.5472	69.0843
9.4429	71.367
9.3408	73.3065
9.2409	74.9402
9.1431	76.5281
9.0474	78.2478
8.9536	80.0086
8.8618	81.6311
8.7718	83.1311
8.6837	84.8924
8.5973	86.8303
8.5126	88.9011
8.4295	90.8972
8.3481	92.5173
8.2682	93.8613
8.1898	94.7949
8.1129	95.4141
8.0374	95.8494
7.9634	96.2981
7.8906	96.5303
7.8192	96.5896
7.7491	96.6433
7.6802	96.54
7.6126	96.8445
7.5461	96.9373
7.4807	96.9394
7.4165	96.833
7.3534	96.7334
7.2914	96.7478
7.2303	96.9297
7.1703	97.2273
7.1113	97.1973
7.0533	97.1289
6.9962	97.3435
6.94	97.8076
6.8847	97.7273
6.8302	97.5225
6.7767	97.7451
6.7239	97.8135
6.672	97.9187
6.6209	97.835
6.5705	97.946
6.5209	97.8691
6.4721	97.6931
6.424	97.4834
6.3766	97.2331
6.3299	96.75
6.2838	96.3984
6.2385	96.0449
6.1937	95.3669
6.1496	94.4707
6.1062	94.1677
6.0633	94.4607
6.0211	95.7168
5.9794	97.1553
5.9383	97.1492
5.8978	97.1794
5.8578	97.4424
5.8184	97.6768
5.7794	97.8359
5.741	97.9968
5.7031	97.9844
5.6657	98.0146
5.6288	97.9736
5.5924	97.9141
5.5564	97.8606
5.5209	97.8572
5.4859	97.9255
5.4513	97.9521
5.4171	97.9961
5.3833	97.9812
5.35	97.9756
5.3171	98.0027
5.2846	97.9285
5.2524	97.8662
5.2207	97.8865
5.1893	97.7998
5.1584	97.7273
5.1277	97.7068
5.0975	97.6423
5.0676	97.5935
5.038	97.6077
5.0088	97.5427
4.98	97.4514
4.9514	97.4099
4.9232	97.3513
4.8953	97.2849
4.8678	97.2795
4.8405	97.2732
4.8135	97.1882
4.7868	97.1194
4.7605	97.116
4.7344	97.05
4.7086	97.0569
4.6831	96.9905
4.6578	96.948
4.6328	96.9207
4.6081	96.9944
4.5837	96.8352
4.5595	96.8738
4.5356	96.739
4.5119	96.6213
4.4884	96.6106
4.4652	96.5525
4.4423	96.4685
4.4196	96.4255
4.3971	96.3406
4.3748	96.322
4.3528	96.2253
4.331	96.2195
4.3094	96.1467
4.288	96.1267
4.2668	95.9285
4.2458	95.9275
4.2251	95.9001
4.2045	95.7546
4.1841	95.8127
4.164	95.6794
4.144	95.5706
4.1242	95.5427
4.1046	95.5027
4.0852	95.448
4.066	95.3621
4.047	95.2683
4.0281	95.2019
4.0094	95.2214
3.9909	95.1228
3.9725	95.0164
3.9544	95.0046
3.9363	94.9158
3.9185	94.8669
3.9008	94.7952
3.8833	94.7498
3.8659	94.6335
3.8487	94.6101
3.8316	94.5349
3.8147	94.4138
3.7979	94.3167
3.7813	94.3533
3.7648	94.1277
3.7485	94.0095
3.7323	93.8816
3.7162	93.9002
3.7003	93.6482
3.6845	93.6648
3.6689	93.471
3.6534	93.3245
3.638	93.3503
3.6227	93.0828
3.6076	93.0007
3.5926	92.9216
3.5777	92.7888
3.563	92.635
3.5484	92.3967
3.5338	92.1746
3.5195	91.7752
3.5052	91.3103
3.491	91.3201
3.477	91.1467
3.463	91.0061
3.4492	90.7185
3.4355	90.4002
3.4219	89.9065
3.4084	89.9319
3.395	90.1912
3.3817	90.1389
3.3685	90.4417
3.3554	90.4685
3.3425	90.3728
3.3296	90.322
3.3168	90.1038
3.3041	89.9939
3.2915	89.8245
3.279	89.5955
3.2666	89.4046
3.2543	89.2107
3.2421	89.0623
3.23	88.7791
3.218	88.657
3.206	88.3513
3.1942	88.1707
3.1824	87.9422
3.1707	87.6287
3.1591	87.4373
3.1476	86.9597
3.1362	86.6912
3.1249	86.3416
3.1136	85.9929
3.1024	85.4744
3.0913	84.9607
3.0803	84.6053
3.0694	84.2361
3.0585	83.7566
3.0477	83.5437
3.037	83.1414
3.0264	82.8719
3.0158	82.2908
3.0053	81.7586
2.9949	81.0916
2.9845	80.4539
2.9743	79.6658
2.9641	78.8523
2.9539	78.2898
2.9439	77.7244
2.9339	77.2576
2.9239	77.0437
2.9141	76.9773
2.9043	77.0408
2.8946	77.2742
2.8849	77.3787
2.8753	77.4852
2.8658	77.8289
2.8563	78.2068
2.8469	78.7039
2.8375	79.3172
2.8282	79.9959
2.819	80.8601
2.8098	81.4383
2.8007	82.3201
2.7917	83.1404
2.7827	84.1385
2.7738	84.8377
2.7649	85.8201
2.7561	86.7752
2.7473	87.6463
2.7386	88.1541
2.7299	88.5193
2.7213	88.8406
2.7128	89.0349
2.7043	89.1961
2.6959	89.532
2.6875	89.6414
2.6791	89.656
2.6709	89.5076
2.6626	89.4451
2.6545	89.449
2.6463	89.3709
2.6382	89.4216
2.6302	89.1131
2.6222	89.1834
2.6143	89.1306
2.6064	89.0486
2.5986	89.2009
2.5908	88.8416
2.583	88.8416
2.5753	88.6736
2.5677	88.7049
2.5601	88.7732
2.5525	88.5213
2.545	88.4881
2.5375	88.4724
2.5301	88.3006
2.5227	88.1228
2.5154	88.2107
2.5081	88.2224
2.5008	88.158
2.4936	87.9881
2.4864	87.9841
2.4793	87.9412
2.4722	87.8904
2.4651	87.8201
2.4581	87.7342
2.4511	87.7361
2.4442	87.4842
2.4373	87.5779
2.4305	87.5408
2.4236	87.3084
2.4169	87.3943
2.4101	87.531
2.4034	87.3435
2.3967	86.9138
2.3901	86.8064
2.3835	86.9783
2.377	86.992
2.3704	86.7674
2.364	86.8435
2.3575	86.6814
2.3511	86.5232
2.3447	86.5388
2.3384	86.3142
2.3321	86.199
2.3258	86.2908
2.3195	86.2342
2.3133	86.158
2.3071	86.3201
2.301	85.8748
2.2949	86.1873
2.2888	85.947
2.2828	85.9217
2.2767	85.572
2.2708	85.4158
2.2648	86.1345
2.2589	85.3689
2.253	85.4705
2.2471	85.4646
2.2413	85.4217
2.2355	85.3357
2.2297	85.2732
2.224	85.0154
2.2183	85.0545
2.2126	84.7967
2.207	85.1287
2.2013	84.7654
2.1957	84.8631
2.1902	84.4842
2.1846	85.0154
2.1791	84.1873
2.1736	84.7849
2.1682	84.699
2.1628	84.5935
2.1574	84.117
2.152	84.2732
2.1466	83.8631
2.1413	83.5818
2.136	84.0232
2.1308	83.8826
2.1255	83.8474
2.1203	83.8318
2.1151	83.2068
2.11	83.3592
2.1048	83.6092
2.0997	83.2654
2.0946	83.867
2.0895	83.0232
2.0845	83.367
2.0795	83.0506
