Name: Hydroxyapophyllite KCa_4Si_8O_20(OH,F).8H_2O
Type: Mineral
Class: Silicate
Subclass: Phyllosilicate
Particle Size: Coarse
Sample No.: PS-22A
Owner: JPL
Wavelength Range: TIR
Origin: India, Maharashtra, Poona
Description: Particle size was 125-500um.Collected by Burminco Original ASTER Spectral Library name was jpl.nicolet.mineral.silicate.phyllosilicate.coarse.ps22a.spectrum.txt
Measurement: Hemispherical reflectance
X Units: Wavelength (micrometers)
Y Units: Reflectance (percent)
wavelength	value
15.3853	1.2227
15.1161	1.3647
14.8563	1.4138
14.6052	2.1933
14.3624	2.8716
14.1276	3.1553
13.9004	3.9849
13.6803	4.4391
13.4671	5.3418
13.2604	7.133
13.06	8.4242
12.8656	5.478
12.6769	6.5433
12.4936	3.5177
12.3155	1.6555
12.1425	2.0509
11.9742	2.6878
11.8106	3.1701
11.6513	3.7196
11.4963	4.146
11.3454	4.7126
11.1983	5.2728
11.0551	5.8474
10.9154	6.5099
10.7793	7.0499
10.6465	8.0495
10.5169	9.1753
10.3904	10.7697
10.267	12.8187
10.1464	16.8014
10.0287	24.6313
9.9136	39.6216
9.8012	52.1211
9.6913	52.7924
9.5838	52.52
9.4787	47.3381
9.3758	27.5096
9.2752	2.8439
9.1767	6.7118
9.0803	21.7457
8.9858	8.2407
8.8934	10.856
8.8028	5.0693
8.714	1.5322
8.627	0.3819
8.5417	0.1247
8.4581	0.0643
8.3761	0.1267
8.2957	0.2731
8.2169	0.4205
8.1395	0.572
8.0635	0.492
7.989	0.8154
7.9158	0.9561
7.8439	1.0709
7.7734	1.3246
7.7041	1.4995
7.636	1.6218
7.5691	1.6206
7.5034	1.7664
7.4388	1.7846
7.3753	1.8053
7.3129	2.0684
7.2515	2.01
7.1912	2.1125
7.1318	2.2781
7.0734	2.2157
7.016	2.2396
6.9595	2.3175
6.9039	2.2874
6.8492	2.444
6.7953	2.3592
6.7423	2.3854
6.6901	2.3265
6.6387	2.4378
6.5881	2.2917
6.5382	2.2954
6.4892	2.341
6.4408	2.32
6.3931	2.3736
6.3462	2.5873
6.2999	2.3156
6.2543	2.3795
6.2094	2.3991
6.1651	2.4738
6.1214	2.5269
6.0784	2.5505
6.0359	2.5693
5.994	2.588
5.9527	2.6374
5.912	2.5021
5.8718	1.6337
5.8322	1.7617
5.7931	2.3419
5.7545	2.4401
5.7165	2.6866
5.6789	2.8833
5.6418	2.9722
5.6052	2.9136
5.5691	3.1518
5.5334	3.3843
5.4982	3.3932
5.4635	3.5109
5.4291	3.5667
5.3952	3.4364
5.3618	3.6085
5.3287	3.3879
5.2961	3.3388
5.2638	3.4241
5.2319	3.6634
5.2004	3.6985
5.1693	3.7449
5.1386	3.8347
5.1082	3.8172
5.0782	3.9093
5.0485	4.0254
5.0192	3.8877
4.9902	3.8519
4.9616	4.1492
4.9332	4.0561
4.9052	4.0941
4.8776	4.1074
4.8502	4.151
4.8231	4.1687
4.7963	3.9918
4.7699	4.087
4.7437	3.9299
4.7178	3.8912
4.6922	3.795
4.6668	3.7866
4.6418	3.6917
4.617	3.5901
4.5924	3.468
4.5681	3.531
4.5441	3.465
4.5203	3.5067
4.4968	3.4754
4.4735	3.3434
4.4505	3.4902
4.4277	3.4937
4.4051	3.3443
4.3828	3.4082
4.3607	3.3705
4.3388	3.3608
4.3171	3.4207
4.2956	3.3139
4.2744	3.4426
4.2534	3.4195
4.2325	3.5912
4.2119	3.6937
4.1915	3.9452
4.1712	4.0604
4.1512	4.2532
4.1313	4.346
4.1117	4.323
4.0922	4.3717
4.0729	4.3431
4.0538	4.4399
4.0349	4.2192
4.0161	4.2215
3.9976	4.2049
3.9792	4.2377
3.9609	4.2192
3.9428	4.2063
3.9249	4.1593
3.9072	4.2325
3.8896	4.0786
3.8722	3.9936
3.8549	4.0354
3.8378	4.098
3.8208	3.9724
3.804	3.9814
3.7873	3.9189
3.7708	3.8942
3.7544	3.7289
3.7382	3.7313
3.7221	3.7079
3.7061	3.8145
3.6903	3.8243
3.6746	3.8233
3.659	3.6334
3.6436	3.7851
3.6283	3.7714
3.6131	3.74
3.5981	3.722
3.5832	3.668
3.5684	3.7493
3.5537	3.7241
3.5391	3.7532
3.5247	3.9232
3.5104	3.7776
3.4962	3.8582
3.4821	3.6976
3.4681	3.8058
3.4543	3.7227
3.4405	3.7095
3.4269	3.7787
3.4133	3.8664
3.3999	3.8734
3.3866	3.8126
3.3733	3.9808
3.3602	3.9405
3.3472	3.7972
3.3343	3.8486
3.3215	3.8148
3.3088	3.6646
3.2961	3.5477
3.2836	3.3081
3.2712	3.1966
3.2588	3.0717
3.2466	2.9312
3.2345	2.922
3.2224	2.8609
3.2104	2.6799
3.1985	2.7088
3.1867	2.5774
3.175	2.5947
3.1634	2.288
3.1519	2.3152
3.1404	2.3564
3.129	2.1919
3.1178	2.0701
3.1065	2.2048
3.0954	2.1766
3.0844	1.9053
3.0734	2.1281
3.0625	1.9792
3.0517	2.0672
3.041	2.221
3.0303	2.226
3.0197	2.2789
3.0092	2.3465
2.9987	2.3076
2.9884	2.4497
2.9781	2.4956
2.9678	2.452
2.9577	2.2762
2.9476	2.2465
2.9376	2.3844
2.9276	2.4729
2.9177	2.5096
2.9079	2.4589
2.8982	2.7333
2.8885	2.8556
2.8789	3.0291
2.8693	2.995
2.8598	3.0678
2.8504	3.3834
2.841	3.3011
2.8317	3.4046
2.8224	3.1185
2.8133	2.6665
2.8041	2.4227
2.7951	2.9306
2.786	3.6988
2.7771	3.9139
2.7682	4.1714
2.7594	4.6159
2.7506	5.2353
2.7418	5.7466
2.7332	5.9181
2.7246	6.5345
2.716	6.6657
2.7075	7.4478
2.699	7.5478
2.6906	8.0721
2.6823	8.8342
2.674	9.2265
2.6657	9.3635
2.6575	9.2053
2.6494	9.5352
2.6413	9.8933
2.6332	10.6157
2.6252	10.9619
2.6173	11.0042
2.6094	10.4545
2.6015	10.8412
2.5937	11.9531
2.5859	12.1137
2.5782	12.5712
2.5706	12.9808
2.5629	13.0398
2.5554	13.1067
2.5478	13.4843
2.5403	13.508
2.5329	12.7542
2.5255	11.996
2.5181	10.7975
2.5108	10.6378
2.5035	11.2084
2.4963	10.9706
2.4891	10.043
2.482	9.1372
2.4749	8.4443
2.4678	8.1655
2.4608	7.9777
2.4538	8.3795
2.4468	8.8241
2.4399	9.7696
2.4331	10.7447
2.4262	9.876
2.4194	8.5507
2.4127	7.9458
2.4059	7.8089
2.3993	7.7133
2.3926	7.9611
2.386	8.3154
2.3795	9.1027
2.3729	10.9531
2.3664	13.8216
2.36	16.9666
2.3535	20.1452
2.3471	22.1528
2.3408	23.4764
2.3345	24.2217
2.3282	24.4539
2.3219	24.5374
2.3157	23.8684
2.3095	23.2573
2.3034	23.5626
2.2972	24.4962
2.2911	25.5085
2.2851	26.0724
2.279	26.0615
2.2731	26.5114
2.2671	26.7873
2.2612	26.6881
2.2553	26.4933
2.2494	26.4969
2.2435	26.2735
2.2377	26.1486
2.232	25.7527
2.2262	25.5983
2.2205	25.3006
2.2148	24.7733
2.2091	24.1312
2.2035	23.5421
2.1979	23.0418
2.1923	22.7272
2.1868	22.1398
2.1812	22.1706
2.1758	21.8905
2.1703	21.6181
2.1649	21.1655
2.1595	20.2962
2.1541	20.2035
2.1487	19.5596
2.1434	19.1318
2.1381	19.0254
2.1328	19.6241
2.1275	19.5974
2.1223	20.3565
2.1171	20.6401
2.112	21.3103
2.1068	22.007
2.1017	22.5721
2.0966	22.3464
2.0915	22.6788
2.0865	22.3122
2.0814	22.5806
2.0764	22.0483
2.0715	21.8732
2.0665	21.4641
2.0616	21.7459
2.0567	22.0218
2.0518	21.865
2.0469	21.7084
2.0421	21.8805
2.0373	21.9293
2.0325	21.6905
2.0277	21.7849
2.0229	21.8686
2.0182	21.676
2.0135	21.5752
2.0088	21.4985
2.0042	21.3481
