Name: Riebeckite Na2(Fe+2,Mg)3Fe2+3Si8O22(OH)2
Type: Mineral
Class: Silicate
Subclass: Inosilicate
Particle Size: Solid
Sample No.: riebeck_1
Owner: JHU
Wavelength Range: TIR
Origin: Hurricane Mountain, Conway, New Hampshire via theSmithsonian (sample no. NMNH 122689)
Description: The sample was an 11.54 g portion of a black crystal.  The crystal displayed a small amount of surficial limonitic stain, which could be brushed off.  The crushed sample was hand-picked to avoid grains containing small crystals of included quartz.  The resultant sample appeared very pure under the microscope (<1% impurities). Sample had cleavage face. (chain silicates); (Amphibole Group) Original ASTER Spectral Library name was jhu.nicolet.mineral.silicate.inosilicate.solid.riebec1.spectrum.txt
Measurement: Bidirectional reflectance
X Units: Wavelength (micrometers)
Y Units: Reflectance (percent)
wavelength	value
25.0442	14.0683
24.3388	14.5312
23.6719	16.3891
23.0407	19.0205
22.4422	24.2455
21.8741	27.6359
21.334	27.3779
20.8199	29.7607
20.33	31.6088
19.8627	32.0048
19.4163	30.8398
18.9896	23.2516
18.5812	22.2009
18.19	23.7001
17.815	17.2988
17.4551	8.6181
17.1094	4.064
16.7772	3.1536
16.4576	3.6982
16.15	4.1826
15.8537	4.7319
15.568	5.176
15.2925	4.9336
15.0265	5.1555
14.7697	4.8428
14.5214	5.1484
14.2814	5.4375
14.0492	5.6711
13.8244	6.0683
13.6067	6.5705
13.3957	7.1343
13.1912	6.7353
12.9929	6.3127
12.8004	6.3293
12.6135	6.7431
12.432	7.1506
12.2557	7.5671
12.0843	7.9712
11.9176	8.4006
11.7555	8.9267
11.5977	9.5945
11.444	10.1369
11.2944	10.3301
11.1487	10.6557
11.0067	11.2444
10.8682	12.5351
10.7332	14.2702
10.6015	17.3908
10.473	21.53
10.3476	24.1762
10.2251	26.1945
10.1056	26.6371
9.9887	27.0278
9.8746	25.1147
9.763	23.8146
9.6539	22.9208
9.5472	19.2739
9.4429	21.0192
9.3408	23.1433
9.2409	23.7355
9.1431	20.3791
9.0474	16.7236
8.9536	14.479
8.8618	14.8781
8.7718	18.1425
8.6837	18.1127
8.5973	14.0464
8.5126	8.7571
8.4295	4.3276
8.3481	1.6565
8.2682	1.1106
8.1898	1.2744
8.1129	1.5168
8.0374	1.7541
7.9634	1.9736
7.8906	2.1821
7.8192	2.3686
7.7491	2.5386
7.6802	2.6912
7.6126	2.822
7.5461	2.9431
7.4807	3.0679
7.4165	3.1865
7.3534	3.2883
7.2914	3.3894
7.2303	3.4792
7.1703	3.5576
7.1113	3.6487
7.0533	3.7278
6.9962	3.8059
6.94	3.8855
6.8847	3.9446
6.8302	4.0088
6.7767	4.0586
6.7239	4.1186
6.672	4.1704
6.6209	4.2195
6.5705	4.2678
6.5209	4.3352
6.4721	4.3623
6.424	4.3689
6.3766	4.3953
6.3299	4.3935
6.2838	4.3916
6.2385	4.4126
6.1937	4.4167
6.1496	4.4551
6.1062	4.5017
6.0633	4.5434
6.0211	4.5688
5.9794	4.5964
5.9383	4.582
5.8978	4.6086
5.8578	4.6645
5.8184	4.6699
5.7794	4.6899
5.741	4.7043
5.7031	4.7097
5.6657	4.7317
5.6288	4.7463
5.5924	4.7732
5.5564	4.814
5.5209	4.876
5.4859	4.9292
5.4513	4.9741
5.4171	5.0112
5.3833	5.071
5.35	5.1308
5.3171	5.1841
5.2846	5.2097
5.2524	5.2519
5.2207	5.2776
5.1893	5.3127
5.1584	5.3508
5.1277	5.3745
5.0975	5.4006
5.0676	5.4263
5.038	5.4548
5.0088	5.498
4.98	5.5266
4.9514	5.581
4.9232	5.6362
4.8953	5.6907
4.8678	5.7546
4.8405	5.813
4.8135	5.8589
4.7868	5.9121
4.7605	5.9719
4.7344	6.0049
4.7086	6.0649
4.6831	6.1308
4.6578	6.2104
4.6328	6.2976
4.6081	6.4111
4.5837	6.5505
4.5595	6.675
4.5356	6.7883
4.5119	6.8877
4.4884	6.9729
4.4652	7.051
4.4423	7.1179
4.4196	7.1726
4.3971	7.2173
4.3748	7.2715
4.3528	7.313
4.331	7.3562
4.3094	7.3843
4.288	7.4214
4.2668	7.4519
4.2458	7.4851
4.2251	7.5036
4.2045	7.5471
4.1841	7.5786
4.164	7.6169
4.144	7.6504
4.1242	7.6755
4.1046	7.7158
4.0852	7.749
4.066	7.7785
4.047	7.8074
4.0281	7.8432
4.0094	7.8855
3.9909	7.915
3.9725	7.9543
3.9544	7.9897
3.9363	8.0271
3.9185	8.0554
3.9008	8.0954
3.8833	8.1291
3.8659	8.1535
3.8487	8.1733
3.8316	8.2043
3.8147	8.2236
3.7979	8.2458
3.7813	8.2705
3.7648	8.3083
3.7485	8.3198
3.7323	8.3374
3.7162	8.3703
3.7003	8.3855
3.6845	8.3867
3.6689	8.4209
3.6534	8.4267
3.638	8.4424
3.6227	8.467
3.6076	8.4753
3.5926	8.4736
3.5777	8.4829
3.563	8.4514
3.5484	8.4136
3.5338	8.4138
3.5195	8.4101
3.5052	8.2734
3.491	8.344
3.477	8.3625
3.463	8.3767
3.4492	8.3249
3.4355	8.2407
3.4219	8.0671
3.4084	8.0766
3.395	8.1604
3.3817	8.1252
3.3685	8.177
3.3554	8.2695
3.3425	8.3056
3.3296	8.3037
3.3168	8.313
3.3041	8.3252
3.2915	8.3926
3.279	8.4328
3.2666	8.4743
3.2543	8.4665
3.2421	8.4702
3.23	8.4424
3.218	8.4416
3.206	8.457
3.1942	8.4607
3.1824	8.4878
3.1707	8.4975
3.1591	8.5232
3.1476	8.53
3.1362	8.5093
3.1249	8.5119
3.1136	8.5051
3.1024	8.508
3.0913	8.5049
3.0803	8.49
3.0694	8.4829
3.0585	8.4663
3.0477	8.4717
3.037	8.4707
3.0264	8.459
3.0158	8.4512
3.0053	8.4546
2.9949	8.4707
2.9845	8.4966
2.9743	8.5215
2.9641	8.519
2.9539	8.5256
2.9439	8.529
2.9339	8.5664
2.9239	8.5603
2.9141	8.5615
2.9043	8.5791
2.8946	8.5915
2.8849	8.5674
2.8753	8.5532
2.8658	8.5515
2.8563	8.5932
2.8469	8.5849
2.8375	8.6128
2.8282	8.6164
2.819	8.5918
2.8098	8.5698
2.8007	8.5185
2.7917	8.458
2.7827	8.3174
2.7738	7.5102
2.7649	6.3442
2.7561	6.9761
2.7473	6.584
2.7386	6.7158
2.7299	7.8887
2.7213	8.2131
2.7128	8.3147
2.7043	8.0674
2.6959	8.9057
2.6875	9.6247
2.6791	9.8857
2.6709	9.9238
2.6626	9.9809
2.6545	9.9756
2.6463	10.0168
2.6382	10.0339
2.6302	10.1164
2.6222	10.1789
2.6143	10.2221
2.6064	10.2492
2.5986	10.2492
2.5908	10.2593
2.583	10.2756
2.5753	10.289
2.5677	10.2873
2.5601	10.312
2.5525	10.3139
2.545	10.2905
2.5375	10.2522
2.5301	10.2236
2.5227	10.2251
2.5154	10.1816
2.5081	10.2226
2.5008	10.2531
2.4936	10.2329
2.4864	10.2805
2.4793	10.3105
2.4722	10.3423
2.4651	10.3498
2.4581	10.376
2.4511	10.3418
2.4442	10.2795
2.4373	10.2424
2.4305	10.1074
2.4236	9.9377
2.4169	9.8242
2.4101	9.8232
2.4034	9.9414
2.3967	10.0937
2.3901	10.218
2.3835	10.3286
2.377	10.3857
2.3704	10.4094
2.364	10.2793
2.3575	9.9416
2.3511	9.4531
2.3447	9.1321
2.3384	9.1943
2.3321	9.4463
2.3258	9.7597
2.3195	10.0439
2.3133	10.186
2.3071	10.2226
2.301	10.3335
2.2949	10.417
2.2888	10.4472
2.2828	10.4692
2.2767	10.5566
2.2708	10.5332
2.2648	10.5547
2.2589	10.5942
2.253	10.5664
2.2471	10.5595
2.2413	10.562
2.2355	10.5659
2.2297	10.5571
2.224	10.5468
2.2183	10.541
2.2126	10.5342
2.207	10.5146
2.2013	10.5185
2.1957	10.5122
2.1902	10.5376
2.1846	10.4795
2.1791	10.4951
2.1736	10.5278
2.1682	10.5205
2.1628	10.4765
2.1574	10.5102
2.152	10.4951
2.1466	10.4697
2.1413	10.4502
2.136	10.477
2.1308	10.4414
2.1255	10.4902
2.1203	10.498
2.1151	10.4843
2.11	10.4926
2.1048	10.4848
2.0997	10.4907
2.0946	10.5337
2.0895	10.5029
2.0845	10.5039
2.0795	10.5239
