Name: Plumbojarosite PbFe_3^3+(SO_4)_4(OH)_12
Type: Mineral
Class: Sulfate
Subclass: none
Particle Size: Fine
Sample No.: SO-7B
Owner: JPL
Wavelength Range: VSWIR
Origin: Mexico, Hidalgo, Zimapan, Lomo De Toro Mine.
Description: Particle size was <45um Collected by:  Burminco Original ASTER Spectral Library name was jpl.perkin.mineral.sulfate.none.fine.so07b.spectrum.txt
Measurement: Hemispherical reflectance
X Units: Wavelength (micrometers)
Y Units: Reflectance (percent)
wavelength	value
2.5	65.089
2.494	65.6728
2.488	66.3928
2.482	66.7192
2.476	67.1653
2.47	67.3006
2.464	67.4686
2.458	67.3321
2.452	67.2679
2.446	66.9295
2.44	66.4981
2.434	66.4048
2.428	66.2327
2.422	66.0429
2.416	66.0849
2.41	66.1167
2.404	66.3904
2.398	67.0386
2.392	67.8626
2.386	68.5921
2.38	69.5029
2.374	70.2413
2.368	70.8095
2.362	71.317
2.356	71.6823
2.35	71.8324
2.344	71.9853
2.338	71.8032
2.332	71.428
2.326	70.7932
2.32	70.0604
2.314	69.3743
2.308	68.7947
2.302	68.1869
2.296	67.5679
2.29	67.047
2.284	66.8092
2.278	66.9172
2.272	67.3344
2.266	67.6868
2.26	67.8448
2.254	68.0686
2.248	68.6364
2.242	69.4922
2.236	70.6329
2.23	71.8498
2.224	72.8864
2.218	73.739
2.212	74.5687
2.206	75.2699
2.2	75.8695
2.194	76.429
2.188	76.9064
2.182	77.4049
2.176	77.9784
2.17	78.4535
2.164	78.9282
2.158	79.4079
2.152	79.708
2.146	80.0453
2.14	80.1125
2.134	80.2675
2.128	80.2723
2.122	80.1486
2.116	79.9772
2.11	79.8319
2.104	79.6784
2.098	79.5617
2.092	79.7044
2.086	79.7608
2.08	79.8143
2.074	79.7718
2.068	79.8
2.062	79.7192
2.056	79.7896
2.05	79.8435
2.044	80.0295
2.038	80.1318
2.032	80.3001
2.026	80.3604
2.02	80.4859
2.014	80.6076
2.008	80.7289
2.002	80.7981
1.996	80.861
1.99	80.9067
1.984	80.8536
1.978	80.7507
1.972	80.7977
1.966	80.748
1.96	80.6608
1.954	80.7108
1.948	80.6912
1.942	80.7912
1.936	80.8874
1.93	81.0368
1.924	81.2233
1.918	81.467
1.912	81.8342
1.906	82.0946
1.9	82.138
1.894	82.1241
1.888	81.8345
1.882	81.582
1.876	81.4186
1.87	81.4165
1.864	81.3948
1.858	81.4707
1.852	81.4635
1.846	81.3268
1.84	81.3013
1.834	81.5947
1.828	82.3073
1.822	82.8806
1.816	83.2252
1.81	83.3849
1.804	83.4774
1.798	83.5704
1.792	83.7486
1.786	83.8232
1.78	83.8411
1.774	83.8301
1.768	83.9873
1.762	83.9667
1.756	83.9948
1.75	84.0488
1.744	84.0446
1.738	84.0537
1.732	84.1333
1.726	84.1403
1.72	84.1173
1.714	84.2212
1.708	83.9979
1.702	84.0719
1.696	84.0978
1.69	84.0027
1.684	83.9829
1.678	83.9279
1.672	83.9276
1.666	83.8207
1.66	83.7828
1.654	83.7397
1.648	83.6407
1.642	83.7021
1.636	83.5668
1.63	83.5066
1.624	83.4477
1.618	83.3212
1.612	83.2602
1.606	83.1371
1.6	83.0586
1.594	83.0313
1.588	82.8411
1.582	82.7194
1.576	82.6436
1.57	81.8667
1.564	82.306
1.558	82.1932
1.552	82.0017
1.546	81.9059
1.54	81.7532
1.534	81.6976
1.528	81.6237
1.522	81.6075
1.516	81.5478
1.51	81.4493
1.504	81.3794
1.498	81.1953
1.492	80.8324
1.486	80.2381
1.48	80.1593
1.474	80.1632
1.468	80.3759
1.462	80.6959
1.456	81.0895
1.45	81.4552
1.444	81.6795
1.438	82.0362
1.432	82.0882
1.426	82.1111
1.42	82.0781
1.414	81.9951
1.408	82.0838
1.402	82
1.396	82.0475
1.39	81.9859
1.384	81.8719
1.378	81.7032
1.372	81.5082
1.366	81.3578
1.36	81.122
1.354	81.0097
1.348	80.7502
1.342	80.5719
1.336	80.3074
1.33	80.0113
1.324	79.7663
1.318	79.4067
1.312	79.1464
1.306	78.8354
1.3	78.5856
1.294	78.2266
1.288	77.8263
1.282	77.6076
1.276	77.1507
1.27	76.8898
1.264	76.501
1.258	76.0321
1.252	75.6346
1.246	75.2062
1.24	74.8767
1.234	74.3188
1.228	73.9588
1.222	73.4054
1.216	72.9268
1.21	72.4476
1.204	71.9486
1.198	71.4241
1.192	70.8597
1.186	70.457
1.18	69.905
1.174	69.3018
1.168	68.7334
1.162	68.2175
1.156	67.6839
1.15	67.0668
1.144	66.4848
1.138	65.9343
1.132	65.4043
1.126	64.6836
1.12	64.1387
1.114	63.6406
1.108	63.0332
1.102	62.4258
1.096	61.9345
1.09	61.3358
1.084	60.7519
1.078	60.2418
1.072	59.657
1.066	59.1399
1.06	58.7007
1.054	58.151
1.048	57.6833
1.042	57.1699
1.036	56.7072
1.03	56.3061
1.024	55.8039
1.018	55.4197
1.012	55.0409
1.006	54.7485
1	54.3501
0.994	54.0388
0.988	53.7101
0.982	53.3962
0.976	53.1921
0.97	52.9237
0.964	52.7013
0.958	52.5655
0.952	52.3992
0.946	52.2267
0.94	52.1101
0.934	51.9858
0.928	52.0354
0.922	51.9627
0.916	52.0603
0.91	52.0948
0.904	52.1336
0.898	52.358
0.892	52.5402
0.886	52.7173
0.88	52.9452
0.874	53.2435
0.868	53.5188
0.862	53.8612
0.856	54.4275
0.85	54.844
0.844	55.3577
0.838	55.9657
0.832	56.5366
0.826	57.2141
0.82	57.8777
0.814	58.5733
0.808	59.2766
0.802	59.983
0.796	60.6445
0.79	61.3678
0.784	62.0171
0.778	62.6927
0.772	63.2514
0.766	63.797
0.76	64.2782
0.754	64.5905
0.748	64.8279
0.742	64.9283
0.736	64.9023
0.73	64.7844
0.724	64.4854
0.718	64.0976
0.712	63.5915
0.706	63.0152
0.7	62.3556
0.694	61.6239
0.688	60.867
0.682	60.0645
0.676	59.2185
0.67	58.3661
0.664	57.4685
0.658	56.5537
0.652	55.6001
0.646	54.6429
0.64	53.6395
0.634	52.5788
0.628	51.4879
0.622	50.374
0.616	49.2396
0.61	48.1059
0.604	46.9495
0.598	45.8195
0.592	44.6704
0.586	43.4591
0.58	42.1745
0.574	40.7929
0.568	39.2859
0.562	37.6438
0.556	35.7887
0.55	33.8898
0.544	31.9002
0.538	29.8476
0.532	27.8318
0.526	25.876
0.52	24.0318
0.514	22.3075
0.508	20.6881
0.502	19.1756
0.496	17.779
0.49	16.5193
0.484	15.3335
0.478	14.346
0.472	13.4538
0.466	12.669
0.46	11.8517
0.454	10.7856
0.448	9.4627
0.442	8.2634
0.436	7.5951
0.43	7.2909
0.424	6.8968
0.418	6.3487
0.412	5.6689
0.406	4.9528
0.4	4.333
