Name: Orthoclase (Feldspar) (K,Na)AlSi_3O_8
Type: Mineral
Class: Silicate
Subclass: Tectosilicate
Particle Size: Coarse
Sample No.: TS-12A
Owner: JPL
Wavelength Range: TIR
Origin: India
Description: Particle size was 125-500um.Collected by Burminco Original ASTER Spectral Library name was jpl.nicolet.mineral.silicate.tectosilicate.coarse.ts12a.spectrum.txt
Measurement: Hemispherical reflectance
X Units: Wavelength (micrometers)
Y Units: Reflectance (percent)
wavelength	value
15.3853	2.6391
15.1161	1.3279
14.8563	1.8278
14.6052	2.1346
14.3624	2.5774
14.1276	3.1079
13.9004	3.159
13.6803	2.5956
13.4671	2.6776
13.2604	2.7186
13.06	2.7094
12.8656	2.4174
12.6769	2.1774
12.4936	1.9658
12.3155	2.0524
12.1425	2.6918
11.9742	3.124
11.8106	3.3035
11.6513	3.4096
11.4963	3.7606
11.3454	4.1351
11.1983	4.4065
11.0551	5.0146
10.9154	5.5236
10.7793	5.9051
10.6465	6.7003
10.5169	7.5583
10.3904	9.06
10.267	10.8283
10.1464	12.8945
10.0287	15.0104
9.9136	17.1431
9.8012	18.4269
9.6913	19.6064
9.5838	20.9177
9.4787	20.5676
9.3758	16.1671
9.2752	12.7483
9.1767	12.4494
9.0803	12.0347
8.9858	12.0061
8.8934	13.2075
8.8028	15.0282
8.714	15.7371
8.627	15.1134
8.5417	14.6365
8.4581	13.4059
8.3761	10.9408
8.2957	7.4292
8.2169	3.8726
8.1395	1.6346
8.0635	0.7036
7.989	0.4038
7.9158	0.0931
7.8439	0.1075
7.7734	0.1234
7.7041	0
7.636	0.1492
7.5691	0.2171
7.5034	0.3305
7.4388	0.1723
7.3753	0.4425
7.3129	0.3617
7.2515	0.587
7.1912	0.3628
7.1318	0.5131
7.0734	0.6117
7.016	0.7411
6.9595	0.7384
6.9039	0.6738
6.8492	0.8185
6.7953	0.8076
6.7423	0.8645
6.6901	0.8704
6.6387	1.0005
6.5881	1.1791
6.5382	1.1236
6.4892	1.1253
6.4408	1.1163
6.3931	1.0345
6.3462	1.109
6.2999	1.0129
6.2543	1.0546
6.2094	1.0767
6.1651	1.2558
6.1214	1.2218
6.0784	1.3107
6.0359	1.2338
5.994	1.2541
5.9527	1.3183
5.912	1.2324
5.8718	1.3469
5.8322	1.2965
5.7931	1.3136
5.7545	1.2421
5.7165	1.3107
5.6789	1.2294
5.6418	1.3014
5.6052	1.3467
5.5691	1.2787
5.5334	1.4476
5.4982	1.4775
5.4635	1.6316
5.4291	1.8649
5.3952	1.9043
5.3618	1.9856
5.3287	2.0749
5.2961	2.129
5.2638	2.3793
5.2319	2.6735
5.2004	3.0633
5.1693	3.6551
5.1386	4.2772
5.1082	5.1867
5.0782	6.0331
5.0485	7.0422
5.0192	7.7107
4.9902	8.2241
4.9616	8.3945
4.9332	8.1137
4.9052	7.796
4.8776	7.8073
4.8502	7.9077
4.8231	8.0348
4.7963	7.9467
4.7699	8.0554
4.7437	8.1987
4.7178	8.297
4.6922	8.4412
4.6668	8.6656
4.6418	9.1674
4.617	9.8794
4.5924	10.7765
4.5681	11.911
4.5441	13.3088
4.5203	14.8975
4.4968	16.5431
4.4735	18.2604
4.4505	20.0856
4.4277	21.9615
4.4051	23.891
4.3828	25.8669
4.3607	28.2548
4.3388	30.7613
4.3171	33.5631
4.2956	36.6068
4.2744	39.3821
4.2534	41.3869
4.2325	44.1938
4.2119	45.4484
4.1915	46.6609
4.1712	47.7688
4.1512	48.6094
4.1313	49.4463
4.1117	49.9427
4.0922	50.4285
4.0729	50.6911
4.0538	51.03
4.0349	51.3299
4.0161	51.5412
3.9976	51.9124
3.9792	52.0814
3.9609	52.6296
3.9428	52.9792
3.9249	53.4769
3.9072	53.9586
3.8896	54.5309
3.8722	55.0176
3.8549	55.8164
3.8378	56.4872
3.8208	57.3784
3.804	58.0892
3.7873	58.8454
3.7708	59.4989
3.7544	60.0531
3.7382	60.605
3.7221	61.152
3.7061	61.738
3.6903	62.2297
3.6746	62.7581
3.659	63.1528
3.6436	63.4904
3.6283	63.8056
3.6131	63.9313
3.5981	64.1092
3.5832	64.1747
3.5684	64.0192
3.5537	63.8749
3.5391	63.5569
3.5247	62.8917
3.5104	61.2763
3.4962	60.2185
3.4821	60.4811
3.4681	60.365
3.4543	59.8216
3.4405	58.6583
3.4269	56.8339
3.4133	55.6437
3.3999	56.7317
3.3866	56.7795
3.3733	56.338
3.3602	56.9331
3.3472	57.2471
3.3343	56.9589
3.3215	56.3745
3.3088	55.9025
3.2961	55.4908
3.2836	54.7779
3.2712	54.401
3.2588	53.8395
3.2466	53.2891
3.2345	52.8193
3.2224	52.4522
3.2104	51.9291
3.1985	51.6798
3.1867	51.2041
3.175	50.791
3.1634	50.4203
3.1519	50.1468
3.1404	49.7366
3.129	49.4822
3.1178	49.1755
3.1065	48.7538
3.0954	48.675
3.0844	48.3355
3.0734	48.2108
3.0625	48.138
3.0517	47.9175
3.041	47.7755
3.0303	47.7518
3.0197	47.6614
3.0092	47.4888
2.9987	47.3987
2.9884	46.9251
2.9781	46.7941
2.9678	46.345
2.9577	46.454
2.9476	46.0077
2.9376	45.9684
2.9276	45.767
2.9177	45.7715
2.9079	45.7016
2.8982	45.7575
2.8885	46.0377
2.8789	46.5642
2.8693	47.035
2.8598	47.5927
2.8504	48.1116
2.841	48.7566
2.8317	49.2543
2.8224	49.6034
2.8133	50.3693
2.8041	51.3127
2.7951	50.8632
2.786	51.7047
2.7771	51.7545
2.7682	52.6952
2.7594	52.5297
2.7506	56.12
2.7418	59.1096
2.7332	59.8465
2.7246	63.8444
2.716	64.4193
2.7075	62.1993
2.699	65.0756
2.6906	73.1971
2.6823	76.8872
2.674	78.6886
2.6657	82.7531
2.6575	80.4284
2.6494	80.5054
2.6413	81.1173
2.6332	81.8727
2.6252	81.8258
2.6173	83.6185
2.6094	82.312
2.6015	82.1103
2.5937	84.4672
2.5859	82.4437
2.5782	82.1447
2.5706	82.4033
2.5629	83.2373
2.5554	81.6962
2.5478	82.1302
2.5403	81.8359
2.5329	82.0496
2.5255	81.9395
2.5181	82.0389
2.5108	81.9882
2.5035	82.1794
2.4963	82.2706
2.4891	82.2136
2.482	82.362
2.4749	82.3248
2.4678	82.5001
2.4608	82.4833
2.4538	82.763
2.4468	82.7305
2.4399	82.8908
2.4331	82.9749
2.4262	82.9933
2.4194	83.2657
2.4127	83.3122
2.4059	83.3857
2.3993	83.4202
2.3926	83.3642
2.386	83.5239
2.3795	83.687
2.3729	83.6842
2.3664	83.6589
2.36	83.6277
2.3535	83.6732
2.3471	83.6079
2.3408	83.5128
2.3345	83.7197
2.3282	83.7526
2.3219	83.7948
2.3157	83.6766
2.3095	83.5624
2.3034	83.6986
2.2972	83.7333
2.2911	83.7074
2.2851	83.7829
2.279	83.7782
2.2731	83.7346
2.2671	83.7532
2.2612	83.9061
2.2553	83.6954
2.2494	83.8355
2.2435	83.9083
2.2377	83.8719
2.232	84.0193
2.2262	83.7177
2.2205	83.9227
2.2148	83.8991
2.2091	83.7458
2.2035	83.5818
2.1979	83.8863
2.1923	83.8261
2.1868	83.9791
2.1812	83.8285
2.1758	84.0398
2.1703	84.1058
2.1649	83.9028
2.1595	84.1336
2.1541	84.3474
2.1487	84.1091
2.1434	84.0046
2.1381	84.4657
2.1328	84.3114
2.1275	84.4164
2.1223	84.2569
2.1171	84.2392
2.112	84.3555
2.1068	84.1781
2.1017	84.245
2.0966	84.1025
2.0915	84.1617
2.0865	84.275
2.0814	84.1832
2.0764	84.1992
2.0715	83.9545
2.0665	84.2485
2.0616	84.2638
2.0567	84.0617
2.0518	84.3892
2.0469	84.0915
2.0421	84.1718
2.0373	84.1284
2.0325	83.9558
2.0277	84.219
2.0229	84.2187
2.0182	84.0684
2.0135	84.0125
2.0088	84.3939
2.0042	83.9716
