Name: Illite (K,H3O)(Al,Mg,Fe)2(Si,Al)4O10[(OH)2,H2O]
Type: Mineral
Class: Silicate
Subclass: Phyllosilicate
Particle Size: Fine
Sample No.: illite_1
Owner: JHU
Wavelength Range: TIR
Origin: Silver Hill, Montana via Clay Mineral Society, Source ClayMineral Repository #IMT-1.
Description: The sample was a greenish, earthy clay.  The bulk sample contained quartz and illite/smectite, but the 2 micrometers particle-size separate is pure illite/smectite, with 95% illite layers.Particle size was Less than 2 Micrometer.(Sheet Silicates); (Mica Group) Original ASTER Spectral Library name was jhu.nicolet.mineral.silicate.phyllosilicate.powder.illite1.spectrum.txt
Measurement: Transmission
X Units: Wavelength (micrometers)
Y Units: Transmittance (percent)
wavelength	value
25.0442	74.3357
24.3388	59.3436
23.6719	47.6405
23.0407	45.7987
22.4422	48.453
21.8741	40.4218
21.334	26.1132
20.8199	32.5507
20.33	43.6503
19.8627	43.5917
19.4163	37.4882
18.9896	34.1298
18.5812	38.0351
18.19	45.5712
17.815	51.6131
17.4551	60.2791
17.1094	68.1219
16.7772	73.8719
16.4576	77.201
16.15	78.9803
15.8537	81.1453
15.568	83.6219
15.2925	84.1629
15.0265	83.8435
14.7697	83.3162
14.5214	83.3689
14.2814	84.3797
14.0492	86.3465
13.8244	87.4646
13.6067	87.2224
13.3957	85.1619
13.1912	84.6487
12.9929	86.7425
12.8004	87.0315
12.6135	86.7366
12.432	85.2283
12.2557	83.3811
12.0843	80.6033
11.9176	82.7146
11.7555	84.7918
11.5977	83.7068
11.444	81.0203
11.2944	78.7601
11.1487	74.2581
11.0067	65.6131
10.8682	64.6414
10.7332	65.3866
10.6015	63.9793
10.473	57.2054
10.3476	44.7699
10.2251	29.7646
10.1056	18.4824
9.9887	12.7837
9.8746	10.145
9.763	9.4111
9.6539	11.0127
9.5472	17.5376
9.4429	23.9555
9.3408	28.079
9.2409	32.0546
9.1431	36.6415
9.0474	42.8007
8.9536	50.1063
8.8618	59.4515
8.7718	68.8968
8.6837	75.7112
8.5973	80.2952
8.5126	84.2044
8.4295	87.093
8.3481	89.3074
8.2682	90.6631
8.1898	91.6462
8.1129	92.3252
8.0374	92.9236
7.9634	93.3875
7.8906	93.6736
7.8192	93.9705
7.7491	94.21
7.6802	94.3826
7.6126	94.583
7.5461	94.8506
7.4807	95.0813
7.4165	95.1797
7.3534	95.3604
7.2914	95.4871
7.2303	95.5818
7.1703	95.2507
7.1113	95.2148
7.0533	95.3213
6.9962	95.4089
6.94	95.4941
6.8847	95.7197
6.8302	95.8848
6.7767	95.9402
6.7239	96.1113
6.672	96.282
6.6209	96.3623
6.5705	96.4929
6.5209	96.5342
6.4721	96.5234
6.424	96.5566
6.3766	96.407
6.3299	96.2263
6.2838	96.033
6.2385	95.6482
6.1937	94.8948
6.1496	94.3806
6.1062	94.4724
6.0633	94.822
6.0211	95.1834
5.9794	95.239
5.9383	95.7842
5.8978	96.1326
5.8578	96.3162
5.8184	96.5369
5.7794	96.6521
5.741	96.7498
5.7031	96.7712
5.6657	96.804
5.6288	96.8308
5.5924	96.7715
5.5564	96.7637
5.5209	96.7676
5.4859	96.7803
5.4513	96.8672
5.4171	96.9431
5.3833	96.9326
5.35	97.0352
5.3171	97.1218
5.2846	97.1621
5.2524	97.2683
5.2207	97.3613
5.1893	97.3914
5.1584	97.5029
5.1277	97.572
5.0975	97.6133
5.0676	97.6201
5.038	97.6721
5.0088	97.6858
4.98	97.7351
4.9514	97.7595
4.9232	97.7566
4.8953	97.7966
4.8678	97.8318
4.8405	97.9206
4.8135	97.8694
4.7868	97.9104
4.7605	97.9094
4.7344	97.9597
4.7086	97.9206
4.6831	97.9587
4.6578	97.9607
4.6328	97.9797
4.6081	97.9582
4.5837	98.0198
4.5595	98.0505
4.5356	97.9817
4.5119	97.9705
4.4884	98.0281
4.4652	97.9958
4.4423	98.0061
4.4196	98.0271
4.3971	98.0408
4.3748	98.0749
4.3528	98.0413
4.331	98.0447
4.3094	98.0369
4.288	98.0466
4.2668	98.0647
4.2458	98.1023
4.2251	98.0945
4.2045	98.0339
4.1841	98.0608
4.164	98.0749
4.144	98.0564
4.1242	98.0388
4.1046	98.0832
4.0852	98.1238
4.066	98.0666
4.047	98.1169
4.0281	98.116
4.0094	98.0632
3.9909	98.012
3.9725	98.0359
3.9544	98.1077
3.9363	98.1018
3.9185	98.1746
3.9008	98.1604
3.8833	98.0627
3.8659	98.1013
3.8487	98.1677
3.8316	98.1003
3.8147	98.1003
3.7979	98.1218
3.7813	98.1643
3.7648	98.0901
3.7485	98.0525
3.7323	98.0437
3.7162	98.0701
3.7003	98.0007
3.6845	98.0496
3.6689	98.0652
3.6534	98.0452
3.638	98.074
3.6227	98.0251
3.6076	97.9983
3.5926	97.9636
3.5777	97.9861
3.563	98.0037
3.5484	97.9924
3.5338	98.0178
3.5195	98.094
3.5052	98.3845
3.491	98.1912
3.477	98.0535
3.463	98.0154
3.4492	98.1995
3.4355	98.2932
3.4219	98.6038
3.4084	98.3245
3.395	97.9372
3.3817	97.8245
3.3685	97.5881
3.3554	97.3611
3.3425	97.2146
3.3296	97.1018
3.3168	97.0212
3.3041	97.0002
3.2915	96.9548
3.279	96.8904
3.2666	96.7693
3.2543	96.656
3.2421	96.5427
3.23	96.3953
3.218	96.2351
3.206	96.0671
3.1942	95.947
3.1824	95.7175
3.1707	95.6033
3.1591	95.4998
3.1476	95.2322
3.1362	95.1179
3.1249	94.906
3.1136	94.7693
3.1024	94.5896
3.0913	94.5701
3.0803	94.5642
3.0694	94.4802
3.0585	94.2693
3.0477	94.1873
3.037	93.9587
3.0264	93.7576
3.0158	93.4656
3.0053	93.324
2.9949	93.0584
2.9845	92.9158
2.9743	92.6531
2.9641	92.2556
2.9539	92.1609
2.9439	92.1072
2.9339	92.0164
2.9239	92.0212
2.9141	91.9841
2.9043	92.1882
2.8946	92.3992
2.8849	92.7273
2.8753	93.0154
2.8658	93.2117
2.8563	93.4685
2.8469	93.3953
2.8375	92.9744
2.8282	92.1755
2.819	91.1648
2.8098	90.3279
2.8007	89.1414
2.7917	87.3279
2.7827	84.908
2.7738	81.7185
2.7649	79.7351
2.7561	79.8182
2.7473	82.868
2.7386	85.7732
2.7299	89.0603
2.7213	92.6443
2.7128	94.4255
2.7043	94.0076
2.6959	96.6287
2.6875	97.782
2.6791	98.0779
2.6709	98.363
2.6626	98.4812
2.6545	98.5115
2.6463	98.3396
2.6382	98.4978
2.6302	98.6208
2.6222	98.7693
2.6143	98.7361
2.6064	98.7048
2.5986	98.8845
2.5908	98.9841
2.583	98.9665
2.5753	98.9724
2.5677	98.863
2.5601	98.9236
2.5525	98.906
2.545	99.0622
2.5375	99.1345
2.5301	99.0056
2.5227	98.9451
2.5154	99.031
2.5081	99.0583
2.5008	99.0857
2.4936	99.0173
2.4864	99.0974
2.4793	99.281
2.4722	99.1482
2.4651	99.1677
2.4581	99.2849
2.4511	99.2927
2.4442	99.197
2.4373	99.4548
2.4305	99.2204
2.4236	99.1111
2.4169	99.2224
2.4101	99.5095
2.4034	99.3122
2.3967	99.2537
2.3901	99.2146
2.3835	99.2497
2.377	99.4724
2.3704	99.3552
2.364	99.3318
2.3575	99.2576
2.3511	99.3122
2.3447	99.072
2.3384	99.1892
2.3321	99.3982
2.3258	99.2537
2.3195	99.0486
2.3133	99.2966
2.3071	99.322
2.301	99.3279
2.2949	99.4997
2.2888	99.4001
2.2828	99.3923
2.2767	99.3747
2.2708	99.363
2.2648	99.2458
2.2589	99.3357
2.253	99.238
2.2471	99.0349
2.2413	99.0818
2.2355	99.2654
2.2297	98.8708
2.224	98.8279
2.2183	99.1247
2.2126	99.0115
2.207	98.7419
2.2013	99.0505
2.1957	99.0076
2.1902	98.9763
2.1846	98.9529
2.1791	98.7849
2.1736	98.8787
2.1682	98.949
2.1628	99.2029
2.1574	98.7576
2.152	99.0622
2.1466	98.7497
2.1413	98.7888
2.136	98.8591
2.1308	98.9724
2.1255	98.5466
2.1203	99.0388
2.1151	98.7341
2.11	98.4919
2.1048	98.3513
2.0997	99.0622
2.0946	98.6912
2.0895	98.3982
2.0845	99.2068
2.0795	98.4568
