Name: Cummingtonite (Mg,Fe^2+)_7Si_8O_22(OH)_2
Type: Mineral
Class: Silicate
Subclass: Inosilicate
Particle Size: Coarse
Sample No.: IN-6A
Owner: JPL
Wavelength Range: VSWIR
Origin: USA, South Dakota.
Description: Particle size was 125-500um.Collected by:  Ward's Original ASTER Spectral Library name was jpl.perkin.mineral.silicate.inosilicate.coarse.in06a.spectrum.txt
Measurement: Hemispherical reflectance
X Units: Wavelength (micrometers)
Y Units: Reflectance (percent)
wavelength	value
2.5	4.2622
2.494	4.4273
2.488	4.4528
2.482	4.4474
2.476	4.497
2.47	4.5146
2.464	4.4302
2.458	4.5231
2.452	4.5749
2.446	4.6056
2.44	4.5969
2.434	4.5922
2.428	4.5726
2.422	4.6547
2.416	4.6355
2.41	4.6279
2.404	4.6825
2.398	4.6801
2.392	4.6949
2.386	4.6667
2.38	4.7087
2.374	4.6818
2.368	4.7603
2.362	4.7052
2.356	4.7755
2.35	4.7522
2.344	4.7131
2.338	4.7492
2.332	4.7856
2.326	4.7499
2.32	4.832
2.314	4.8693
2.308	4.9387
2.302	4.9241
2.296	4.9271
2.29	5.0371
2.284	5.0347
2.278	5.108
2.272	5.0781
2.266	5.0884
2.26	5.1318
2.254	5.1151
2.248	5.2554
2.242	5.2309
2.236	5.2304
2.23	5.2986
2.224	5.3801
2.218	5.3431
2.212	5.5114
2.206	5.4497
2.2	5.4324
2.194	5.4897
2.188	5.4305
2.182	5.5
2.176	5.5063
2.17	5.5224
2.164	5.6462
2.158	5.593
2.152	5.6341
2.146	5.6918
2.14	5.6576
2.134	5.6415
2.128	5.6473
2.122	5.699
2.116	5.679
2.11	5.6713
2.104	5.6981
2.098	5.6493
2.092	5.6496
2.086	5.683
2.08	5.7378
2.074	5.712
2.068	5.744
2.062	5.6788
2.056	5.736
2.05	5.7418
2.044	5.7457
2.038	5.7307
2.032	5.7214
2.026	5.7277
2.02	5.769
2.014	5.7995
2.008	5.7379
2.002	5.7702
1.996	5.8003
1.99	5.7673
1.984	5.7587
1.978	5.8198
1.972	5.7562
1.966	5.8656
1.96	5.8584
1.954	5.8462
1.948	5.7723
1.942	5.7974
1.936	5.7673
1.93	5.8519
1.924	5.8153
1.918	5.7633
1.912	5.8527
1.906	5.8422
1.9	5.852
1.894	5.8916
1.888	5.8638
1.882	5.9656
1.876	5.8806
1.87	5.8423
1.864	5.9648
1.858	5.9558
1.852	5.964
1.846	5.929
1.84	5.9168
1.834	5.9705
1.828	5.9907
1.822	6.009
1.816	5.9336
1.81	5.9521
1.804	5.9908
1.798	5.9794
1.792	5.9795
1.786	5.921
1.78	5.9909
1.774	5.9921
1.768	6.006
1.762	5.9953
1.756	5.9613
1.75	5.9518
1.744	5.988
1.738	6.001
1.732	5.9151
1.726	5.991
1.72	5.9833
1.714	6.0301
1.708	5.9784
1.702	5.9789
1.696	6.0075
1.69	6.007
1.684	6.0529
1.678	6.0434
1.672	6.0411
1.666	5.9894
1.66	6.017
1.654	5.9397
1.648	6.0193
1.642	6.0478
1.636	5.9793
1.63	6.0123
1.624	5.9268
1.618	5.9153
1.612	5.9599
1.606	5.9885
1.6	5.9346
1.594	5.9745
1.588	6.0211
1.582	5.9843
1.576	5.8863
1.57	5.9932
1.564	5.9175
1.558	5.8897
1.552	5.9426
1.546	5.8987
1.54	5.912
1.534	5.8491
1.528	5.8435
1.522	5.8332
1.516	5.8624
1.51	5.8566
1.504	5.8249
1.498	5.8162
1.492	5.7692
1.486	5.7563
1.48	5.7724
1.474	5.7289
1.468	5.7509
1.462	5.7001
1.456	5.7257
1.45	5.6805
1.444	5.6549
1.438	5.6384
1.432	5.6159
1.426	5.6286
1.42	5.5753
1.414	5.3834
1.408	5.3144
1.402	5.3939
1.396	5.486
1.39	5.4935
1.384	5.3793
1.378	5.4108
1.372	5.4024
1.366	5.4578
1.36	5.3828
1.354	5.4524
1.348	5.2968
1.342	5.4226
1.336	5.2872
1.33	5.3179
1.324	5.2554
1.318	5.3047
1.312	5.2426
1.306	5.1863
1.3	5.2236
1.294	5.1897
1.288	5.193
1.282	5.1371
1.276	5.1428
1.27	5.1217
1.264	5.1041
1.258	5.0599
1.252	4.9981
1.246	5.0487
1.24	5.0802
1.234	5.0152
1.228	4.9934
1.222	4.9907
1.216	5.0322
1.21	4.9823
1.204	4.9586
1.198	5.0243
1.192	5.0031
1.186	5.0311
1.18	4.9078
1.174	4.958
1.168	4.9671
1.162	4.9535
1.156	4.9118
1.15	4.9962
1.144	4.942
1.138	4.9832
1.132	4.9332
1.126	4.9373
1.12	4.9178
1.114	4.9504
1.108	4.9647
1.102	4.8385
1.096	4.8013
1.09	4.7756
1.084	4.6981
1.078	4.681
1.072	4.62
1.066	4.6639
1.06	4.5845
1.054	4.5416
1.048	4.4746
1.042	4.4491
1.036	4.348
1.03	4.253
1.024	4.2678
1.018	4.2297
1.012	4.181
1.006	4.1828
1	4.1353
0.994	4.1324
0.988	4.1076
0.982	4.0884
0.976	4.1232
0.97	4.1433
0.964	4.0491
0.958	4.1408
0.952	4.1569
0.946	4.1435
0.94	4.1171
0.934	4.1837
0.928	4.159
0.922	4.1469
0.916	4.2338
0.91	4.2602
0.904	4.311
0.898	4.3574
0.892	4.4278
0.886	4.4508
0.88	4.5163
0.874	4.5892
0.868	4.6249
0.862	4.7375
0.856	5.0822
0.85	5.1615
0.844	5.234
0.838	5.2938
0.832	5.3537
0.826	5.4214
0.82	5.4775
0.814	5.5179
0.808	5.5611
0.802	5.5857
0.796	5.6076
0.79	5.6312
0.784	5.6452
0.778	5.6402
0.772	5.6564
0.766	5.6586
0.76	5.656
0.754	5.6555
0.748	5.6664
0.742	5.6638
0.736	5.6651
0.73	5.6648
0.724	5.673
0.718	5.6756
0.712	5.6857
0.706	5.6978
0.7	5.711
0.694	5.728
0.688	5.746
0.682	5.7641
0.676	5.7855
0.67	5.8089
0.664	5.8353
0.658	5.8577
0.652	5.8837
0.646	5.9063
0.64	5.9294
0.634	5.9505
0.628	5.9678
0.622	5.9855
0.616	6.006
0.61	6.0319
0.604	6.0515
0.598	6.0745
0.592	6.0928
0.586	6.1036
0.58	6.1076
0.574	6.1123
0.568	6.1129
0.562	6.097
0.556	6.0568
0.55	6.045
0.544	6.0715
0.538	6.0744
0.532	6.0482
0.526	6.0129
0.52	5.9672
0.514	5.8856
0.508	5.8447
0.502	5.8675
0.496	5.8423
0.49	5.7947
0.484	5.7649
0.478	5.7204
0.472	5.706
0.466	5.6955
0.46	5.6746
0.454	5.6516
0.448	5.6207
0.442	5.5758
0.436	5.5309
0.43	5.5001
0.424	5.4595
0.418	5.4272
0.412	5.3999
0.406	5.3693
0.4	5.3274
