Name: Actinolite Ca_2(Mg,Fe^2+)_5Si_8O_22(OH)_2
Type: Mineral
Class: Silicate
Subclass: Inosilicate
Particle Size: Coarse
Sample No.: IN-4A
Owner: JPL
Wavelength Range: TIR
Origin: USA, California, San Bernadino County, Wrightwood
Description: Particle size was 125-500um.Collected by Burminco Original ASTER Spectral Library name was jpl.nicolet.mineral.silicate.inosilicate.coarse.in04a.spectrum.txt
Measurement: Hemispherical reflectance
X Units: Wavelength (micrometers)
Y Units: Reflectance (percent)
wavelength	value
15.3853	2.0544
15.1161	2.439
14.8563	2.7564
14.6052	4.3978
14.3624	2.9613
14.1276	2.0465
13.9004	2.288
13.6803	2.7923
13.4671	3.6728
13.2604	6.0355
13.06	5.8654
12.8656	1.8596
12.6769	2.3007
12.4936	3.105
12.3155	3.3085
12.1425	3.9738
11.9742	4.2066
11.8106	4.4792
11.6513	5.1498
11.4963	5.8265
11.3454	6.7172
11.1983	7.5663
11.0551	9.1839
10.9154	12.3021
10.7793	10.1191
10.6465	12.9566
10.5169	19.9019
10.3904	24.1369
10.267	27.3151
10.1464	33.6808
10.0287	36.9449
9.9136	33.0814
9.8012	22.4462
9.6913	17.3624
9.5838	17.6286
9.4787	18.0523
9.3758	18.9998
9.2752	21.4356
9.1767	18.8927
9.0803	12.83
8.9858	8.6682
8.8934	9.0631
8.8028	13.1958
8.714	14.464
8.627	10.2527
8.5417	3.2425
8.4581	1.1417
8.3761	0.362
8.2957	0.2402
8.2169	0.306
8.1395	0.3561
8.0635	0.2586
7.989	0.4376
7.9158	0.5644
7.8439	0.6633
7.7734	0.6123
7.7041	0.8391
7.636	0.8891
7.5691	1.0608
7.5034	1.0629
7.4388	1.1816
7.3753	1.3258
7.3129	1.3228
7.2515	1.6094
7.1912	1.745
7.1318	2.0649
7.0734	2.2109
7.016	2.438
6.9595	2.7962
6.9039	2.974
6.8492	3.1032
6.7953	3.3288
6.7423	3.3454
6.6901	3.8133
6.6387	4.2995
6.5881	4.6299
6.5382	4.7318
6.4892	4.6473
6.4408	4.3185
6.3931	3.7626
6.3462	3.5597
6.2999	2.9966
6.2543	2.7071
6.2094	2.4758
6.1651	2.477
6.1214	2.6591
6.0784	2.838
6.0359	3.225
5.994	3.387
5.9527	2.8411
5.912	2.8119
5.8718	2.9678
5.8322	3.3087
5.7931	3.4448
5.7545	3.6981
5.7165	3.698
5.6789	3.7252
5.6418	3.802
5.6052	3.7712
5.5691	4.1714
5.5334	4.4162
5.4982	4.4379
5.4635	4.2585
5.4291	4.7508
5.3952	5.024
5.3618	5.1113
5.3287	5.1604
5.2961	5.6343
5.2638	5.8593
5.2319	6.5265
5.2004	7.1997
5.1693	6.6846
5.1386	6.1143
5.1082	5.997
5.0782	6.2617
5.0485	6.4844
5.0192	7.0391
4.9902	7.5515
4.9616	8.156
4.9332	8.7758
4.9052	9.5266
4.8776	10.0269
4.8502	10.2915
4.8231	10.3361
4.7963	10.8351
4.7699	12.1459
4.7437	13.8094
4.7178	15.197
4.6922	16.2841
4.6668	18.0307
4.6418	19.8144
4.617	22.2607
4.5924	24.0374
4.5681	26.3244
4.5441	28.7793
4.5203	30.5852
4.4968	32.4864
4.4735	34.0494
4.4505	35.3153
4.4277	36.2133
4.4051	37.0679
4.3828	37.6571
4.3607	38.1538
4.3388	38.3524
4.3171	38.4125
4.2956	38.1705
4.2744	38.2444
4.2534	39.1319
4.2325	38.5608
4.2119	39.6342
4.1915	40.5006
4.1712	40.7767
4.1512	40.9419
4.1313	41.3841
4.1117	41.6806
4.0922	42.1385
4.0729	42.5189
4.0538	42.8319
4.0349	43.0873
4.0161	43.2119
3.9976	43.5391
3.9792	43.8121
3.9609	44.0819
3.9428	44.5546
3.9249	44.8822
3.9072	45.3479
3.8896	45.691
3.8722	46.0007
3.8549	46.1667
3.8378	46.3445
3.8208	46.52
3.804	46.6148
3.7873	46.9184
3.7708	47.1304
3.7544	47.3249
3.7382	47.4343
3.7221	47.3173
3.7061	46.9176
3.6903	46.2336
3.6746	47.3122
3.659	47.3594
3.6436	47.272
3.6283	47.3291
3.6131	47.295
3.5981	47.2171
3.5832	46.9843
3.5684	46.7533
3.5537	46.4742
3.5391	46.1695
3.5247	45.6245
3.5104	45.4032
3.4962	45.1762
3.4821	44.7124
3.4681	44.2371
3.4543	43.5799
3.4405	42.9049
3.4269	41.859
3.4133	40.2585
3.3999	38.5061
3.3866	36.9314
3.3733	35.5473
3.3602	34.1547
3.3472	32.2106
3.3343	33.0492
3.3215	33.9841
3.3088	34.0478
3.2961	36.0638
3.2836	38.4672
3.2712	40.0036
3.2588	39.9202
3.2466	39.6714
3.2345	39.0516
3.2224	38.4226
3.2104	37.4552
3.1985	36.0447
3.1867	34.5306
3.175	33.5048
3.1634	33.7392
3.1519	34.6814
3.1404	35.2101
3.129	34.768
3.1178	34.1639
3.1065	33.8348
3.0954	33.5674
3.0844	32.8153
3.0734	32.2559
3.0625	31.6493
3.0517	30.8378
3.041	29.9991
3.0303	29.4341
3.0197	28.8306
3.0092	27.9282
2.9987	27.1051
2.9884	26.1451
2.9781	25.4926
2.9678	25.5289
2.9577	26.2469
2.9476	26.8744
2.9376	26.813
2.9276	26.1321
2.9177	25.2665
2.9079	24.4658
2.8982	23.8893
2.8885	23.8012
2.8789	24.0474
2.8693	25.3855
2.8598	26.9038
2.8504	27.9616
2.841	28.8074
2.8317	28.9676
2.8224	28.7729
2.8133	29.1295
2.8041	29.4482
2.7951	28.3849
2.786	24.3746
2.7771	18.248
2.7682	13.4067
2.7594	9.046
2.7506	7.7577
2.7418	6.185
2.7332	5.1025
2.7246	5.5301
2.716	14.7439
2.7075	18.3545
2.699	18.41
2.6906	20.0786
2.6823	26.3869
2.674	35.5217
2.6657	39.527
2.6575	37.8845
2.6494	37.54
2.6413	36.6834
2.6332	36.5636
2.6252	36.1778
2.6173	36.514
2.6094	35.6649
2.6015	35.0716
2.5937	35.6068
2.5859	34.4467
2.5782	33.8728
2.5706	33.0073
2.5629	32.9762
2.5554	32.6969
2.5478	33.5242
2.5403	33.5572
2.5329	33.0691
2.5255	32.735
2.5181	31.7219
2.5108	31.3627
2.5035	30.9817
2.4963	30.5997
2.4891	30.5663
2.482	30.2867
2.4749	30.1832
2.4678	30.1089
2.4608	29.8038
2.4538	30.5254
2.4468	30.8352
2.4399	30.9297
2.4331	32.0665
2.4262	31.5996
2.4194	30.3941
2.4127	30.1839
2.4059	28.9026
2.3993	26.4429
2.3926	22.8925
2.386	21.8499
2.3795	24.6143
2.3729	28.9535
2.3664	31.2375
2.36	32.853
2.3535	33.1479
2.3471	33.5094
2.3408	31.7668
2.3345	28.6982
2.3282	23.2665
2.3219	18.7771
2.3157	18.3303
2.3095	19.7465
2.3034	20.6277
2.2972	20.2892
2.2911	24.8627
2.2851	27.7571
2.279	30.1443
2.2731	33.2227
2.2671	35.6279
2.2612	37.9433
2.2553	38.3115
2.2494	37.8083
2.2435	39.146
2.2377	41.154
2.232	43.0307
2.2262	43.5713
2.2205	43.8848
2.2148	44.3587
2.2091	44.5721
2.2035	44.8378
2.1979	45.4062
2.1923	45.4677
2.1868	46.0079
2.1812	45.9029
2.1758	46.0056
2.1703	46.492
2.1649	46.6578
2.1595	46.4861
2.1541	46.6007
2.1487	46.4718
2.1434	46.9429
2.1381	46.8466
2.1328	46.3406
2.1275	46.5628
2.1223	46.4837
2.1171	46.4556
2.112	47.1442
2.1068	48.5508
2.1017	50.1599
2.0966	50.5096
2.0915	50.9998
2.0865	51.2729
2.0814	51.9303
2.0764	52.5581
2.0715	52.5215
2.0665	53.1711
2.0616	53.2744
2.0567	53.6135
2.0518	53.8108
2.0469	54.5652
2.0421	55.1083
2.0373	55.3626
2.0325	56.0599
2.0277	56.0934
2.0229	55.995
2.0182	55.9286
2.0135	56.2013
2.0088	56.4934
2.0042	56.6869
