Name: Quartz SiO_2
Type: Mineral
Class: Silicate
Subclass: Tectosilicate
Particle Size: Coarse
Sample No.: TS-1E
Owner: JPL
Wavelength Range: All
Description: Crysoprase. Particle size was 125-500um.Collected by JPL Original ASTER Spectral Library name was jpl.nicolet.mineral.silicate.tectosilicate.coarse.ts01e.spectrum.txt
Measurement: Hemispherical reflectance
X Units: Wavelength (micrometers)
Y Units: Reflectance (percent)
wavelength	value
15.3853	2.356
15.1161	2.7241
14.8563	2.4732
14.6052	2.7628
14.3624	2.7613
14.1276	2.4888
13.9004	3.061
13.6803	3.2471
13.4671	3.6796
13.2604	4.1177
13.06	5.2582
12.8656	8.2838
12.6769	6.6906
12.4936	7.3349
12.3155	1.0974
12.1425	1.4376
11.9742	1.8955
11.8106	2.546
11.6513	2.8725
11.4963	3.1063
11.3454	3.4202
11.1983	3.6379
11.0551	3.8066
10.9154	4.1971
10.7793	4.3524
10.6465	4.8326
10.5169	4.9549
10.3904	5.38
10.267	5.9716
10.1464	6.4246
10.0287	6.9462
9.9136	8.0092
9.8012	9.0614
9.6913	10.7418
9.5838	12.9212
9.4787	17.5166
9.3758	28.9706
9.2752	37.7284
9.1767	37.8735
9.0803	37.4411
8.9858	36.026
8.8934	33.5923
8.8028	30.541
8.714	27.8136
8.627	20.3782
8.5417	28.1602
8.4581	30.1104
8.3761	31.6716
8.2957	33.7936
8.2169	35.9377
8.1395	31.287
8.0635	20.9884
7.989	13.5825
7.9158	7.6102
7.8439	4.0705
7.7734	2.1892
7.7041	1.0978
7.636	0.5262
7.5691	0.2663
7.5034	0.1498
7.4388	0.2118
7.3753	0.0511
7.3129	0.1342
7.2515	0.0774
7.1912	0.2053
7.1318	0.091
7.0734	0.1457
7.016	0.3004
6.9595	0.2306
6.9039	0.4062
6.8492	0.5271
6.7953	0.4798
6.7423	0.3953
6.6901	0.3712
6.6387	0.6318
6.5881	0.4763
6.5382	0.5264
6.4892	0.7129
6.4408	0.8133
6.3931	0.9068
6.3462	0.8521
6.2999	0.6842
6.2543	0.7293
6.2094	0.6639
6.1651	0.6866
6.1214	0.8253
6.0784	0.9357
6.0359	0.8841
5.994	0.9688
5.9527	0.862
5.912	0.92
5.8718	1.0445
5.8322	1.1346
5.7931	1.5027
5.7545	1.7792
5.7165	1.9734
5.6789	1.7474
5.6418	1.1585
5.6052	1.015
5.5691	0.977
5.5334	1.1295
5.4982	1.2952
5.4635	1.4314
5.4291	1.3045
5.3952	1.0718
5.3618	1.0856
5.3287	1.0043
5.2961	1.0077
5.2638	1.1229
5.2319	1.1829
5.2004	1.5226
5.1693	1.4219
5.1386	1.4732
5.1082	1.4769
5.0782	1.3668
5.0485	1.3037
5.0192	1.3515
4.9902	1.3263
4.9616	1.5201
4.9332	1.9048
4.9052	2.8991
4.8776	5.9818
4.8502	9.112
4.8231	11.4368
4.7963	13.4627
4.7699	14.8999
4.7437	16.0118
4.7178	16.0317
4.6922	14.0542
4.6668	14.6634
4.6418	17.7815
4.617	20.1736
4.5924	21.2558
4.5681	21.3257
4.5441	19.4282
4.5203	16.0278
4.4968	12.4034
4.4735	11.1596
4.4505	11.9393
4.4277	13.3735
4.4051	15.099
4.3828	17.6586
4.3607	20.366
4.3388	22.348
4.3171	22.926
4.2956	22.6745
4.2744	22.895
4.2534	24.5691
4.2325	24.4432
4.2119	24.7319
4.1915	25.0301
4.1712	26.2077
4.1512	27.2117
4.1313	28.2671
4.1117	29.5052
4.0922	30.8357
4.0729	31.7
4.0538	32.1111
4.0349	32.1736
4.0161	31.9481
3.9976	32.0422
3.9792	32.4381
3.9609	33.2354
3.9428	33.7806
3.9249	33.9703
3.9072	33.8955
3.8896	33.3027
3.8722	32.475
3.8549	32.0026
3.8378	31.9123
3.8208	31.8207
3.804	31.6665
3.7873	31.0865
3.7708	30.3832
3.7544	29.4327
3.7382	28.8986
3.7221	28.7802
3.7061	28.6984
3.6903	28.7909
3.6746	28.741
3.659	28.325
3.6436	27.7015
3.6283	26.9787
3.6131	26.2123
3.5981	25.4024
3.5832	24.6696
3.5684	23.749
3.5537	22.991
3.5391	22.1306
3.5247	21.0823
3.5104	19.9228
3.4962	18.7941
3.4821	18.1762
3.4681	17.3683
3.4543	16.4503
3.4405	15.3158
3.4269	14.373
3.4133	13.2854
3.3999	12.858
3.3866	12.1022
3.3733	11.499
3.3602	10.9273
3.3472	10.4191
3.3343	9.8274
3.3215	9.3232
3.3088	8.7142
3.2961	8.0878
3.2836	7.6772
3.2712	7.167
3.2588	6.7123
3.2466	6.3877
3.2345	5.9326
3.2224	5.492
3.2104	5.2308
3.1985	4.9206
3.1867	4.5684
3.175	4.3766
3.1634	4.3224
3.1519	4.0767
3.1404	3.8411
3.129	3.5915
3.1178	3.4575
3.1065	3.3491
3.0954	3.0604
3.0844	3.2237
3.0734	2.9131
3.0625	3.1319
3.0517	2.9367
3.041	2.7198
3.0303	2.8744
3.0197	2.7431
3.0092	2.7149
2.9987	2.4796
2.9884	2.5619
2.9781	2.5419
2.9678	2.4597
2.9577	2.4278
2.9476	2.351
2.9376	2.4489
2.9276	2.4611
2.9177	2.3311
2.9079	2.349
2.8982	2.3657
2.8885	2.5167
2.8789	2.5362
2.8693	2.5949
2.8598	2.3715
2.8504	2.7396
2.841	2.7422
2.8317	2.8716
2.8224	2.956
2.8133	3.0152
2.8041	2.8876
2.7951	2.8331
2.786	2.8443
2.7771	2.5988
2.7682	3.0622
2.7594	2.9552
2.7506	3.4857
2.7418	4.0768
2.7332	6.9036
2.7246	10.7793
2.716	15.8271
2.7075	21.6296
2.699	26.9893
2.6906	30.8663
2.6823	35.1098
2.674	38.0825
2.6657	41.2008
2.6575	42.6805
2.6494	44.0986
2.6413	45.2131
2.6332	46.2047
2.6252	46.8874
2.6173	47.8102
2.6094	47.827
2.6015	48.1761
2.5937	48.7726
2.5859	48.4889
2.5782	48.5625
2.5706	49.2068
2.5629	49.6376
2.5554	49.6077
2.5478	49.9158
2.5403	50.1595
2.5329	50.6559
2.5255	50.8821
2.5181	51.4304
2.5108	51.7238
2.5035	52.212
2.4963	52.6562
2.4891	53.407
2.482	53.9589
2.4749	54.7218
2.4678	55.5239
2.4608	56.6414
2.4538	57.6687
2.4468	58.9725
2.4399	59.9366
2.4331	60.8867
2.4262	61.1699
2.4194	62.0931
2.4127	62.8431
2.4059	63.427
2.3993	64.416
2.3926	65.1346
2.386	65.7918
2.3795	65.9718
2.3729	66.0949
2.3664	66.215
2.36	65.9836
2.3535	65.6211
2.3471	65.0945
2.3408	64.2206
2.3345	63.0831
2.3282	61.492
2.3219	60.5254
2.3157	60.345
2.3095	59.6094
2.3034	60.0329
2.2972	60.4017
2.2911	60.7198
2.2851	61.0866
2.279	61.3997
2.2731	61.4454
2.2671	61.4589
2.2612	61.189
2.2553	60.9122
2.2494	61.06
2.2435	61.071
2.2377	61.4766
2.232	61.4985
2.2262	61.5856
2.2205	61.3312
2.2148	61.8515
2.2091	61.4141
2.2035	63.0606
2.1979	64.3322
2.1923	65.7609
2.1868	67.2855
2.1812	68.7356
2.1758	70.2155
2.1703	71.546
2.1649	72.3928
2.1595	73.1142
2.1541	73.8801
2.1487	74.4788
2.1434	75.1394
2.1381	75.4183
2.1328	76.1069
2.1275	76.1156
2.1223	76.3365
2.1171	76.4596
2.112	76.4821
2.1068	76.3556
2.1017	76.3393
2.0966	76.3882
2.0915	76.4571
2.0865	76.6877
2.0814	76.6702
2.0764	76.5972
2.0715	76.9166
2.0665	76.4735
2.0616	76.7436
2.0567	76.4121
2.0518	76.3969
2.0469	76.2361
2.0421	76.405
2.0373	76.0084
2.0325	75.768
2.0277	75.4491
2.0229	75.5375
2.0182	74.9372
2.0135	74.6833
2.0088	74.1822
2.0042	73.6866
