Name: Kernite Na_2B_4O_6(OH)_2.3H_2O
Type: Mineral
Class: Borate
Subclass: None
Particle Size: Medium
Sample No.: B-2A
Owner: JPL
Wavelength Range: TIR
Origin: USA, California, Kern County, Boron
Description: Particle size was 45-125um.Collected by JPL Original ASTER Spectral Library name was jpl.nicolet.mineral.borate.none.medium.b02a.spectrum.txt
Measurement: Hemispherical reflectance
X Units: Wavelength (micrometers)
Y Units: Reflectance (percent)
wavelength	value
15.3853	4.45
15.1161	3.932
14.8563	4.5094
14.6052	5.4161
14.3624	4.1631
14.1276	3.6184
13.9004	4.5063
13.6803	3.7735
13.4671	3.9114
13.2604	3.8232
13.06	3.7104
12.8656	3.7159
12.6769	4.1174
12.4936	4.493
12.3155	4.4488
12.1425	4.8668
11.9742	4.6232
11.8106	4.5418
11.6513	4.4652
11.4963	4.2763
11.3454	3.9082
11.1983	4.1317
11.0551	5.0259
10.9154	6.2887
10.7793	6.476
10.6465	6.9588
10.5169	8.1453
10.3904	7.596
10.267	9.0022
10.1464	9.2117
10.0287	7.6374
9.9136	9.1322
9.8012	12.608
9.6913	13.2895
9.5838	14.1447
9.4787	12.4014
9.3758	9.1371
9.2752	6.0549
9.1767	4.1597
9.0803	3.1423
8.9858	2.1358
8.8934	1.3277
8.8028	1.1626
8.714	1.2977
8.627	1.2793
8.5417	1.4284
8.4581	1.6728
8.3761	1.6379
8.2957	2.0111
8.2169	2.4761
8.1395	2.9169
8.0635	3.2524
7.989	3.6804
7.9158	3.8763
7.8439	4.1917
7.7734	4.2868
7.7041	4.2753
7.636	4.2719
7.5691	4.3132
7.5034	5.955
7.4388	6.2413
7.3753	7.096
7.3129	7.7649
7.2515	9.5161
7.1912	10.4382
7.1318	9.6927
7.0734	8.9762
7.016	6.8219
6.9595	5.3216
6.9039	2.9141
6.8492	1.755
6.7953	1.5841
6.7423	1.2723
6.6901	1.0007
6.6387	1.1134
6.5881	1.0046
6.5382	1.0804
6.4892	1.0809
6.4408	1.3129
6.3931	1.3707
6.3462	1.5464
6.2999	1.561
6.2543	1.6444
6.2094	1.6931
6.1651	1.8095
6.1214	1.8231
6.0784	1.9809
6.0359	2.0232
5.994	1.979
5.9527	2.1755
5.912	1.975
5.8718	1.8857
5.8322	2.1559
5.7931	2.6644
5.7545	3.1441
5.7165	3.7392
5.6789	4.4112
5.6418	5.1503
5.6052	5.7335
5.5691	6.2388
5.5334	6.8302
5.4982	7.3838
5.4635	8.0509
5.4291	8.4893
5.3952	8.9624
5.3618	9.4773
5.3287	9.9182
5.2961	10.3733
5.2638	10.5233
5.2319	10.3911
5.2004	10.4925
5.1693	10.6383
5.1386	10.7637
5.1082	10.8303
5.0782	10.8983
5.0485	10.9031
5.0192	10.8216
4.9902	10.5787
4.9616	10.3047
4.9332	10.0771
4.9052	9.7218
4.8776	9.4393
4.8502	9.3343
4.8231	9.1527
4.7963	9.0121
4.7699	8.5408
4.7437	8.1983
4.7178	7.8353
4.6922	7.7344
4.6668	7.536
4.6418	7.2851
4.617	7.1911
4.5924	6.8457
4.5681	6.5548
4.5441	6.3818
4.5203	6.2733
4.4968	6.417
4.4735	6.6012
4.4505	6.5701
4.4277	6.7613
4.4051	6.82
4.3828	6.9244
4.3607	7.2235
4.3388	7.3776
4.3171	7.5106
4.2956	7.4576
4.2744	7.4883
4.2534	8.0422
4.2325	8.5522
4.2119	9.3578
4.1915	10.3281
4.1712	10.8203
4.1512	11.2221
4.1313	11.3181
4.1117	11.4347
4.0922	11.5108
4.0729	11.4431
4.0538	11.7169
4.0349	12.5082
4.0161	13.3118
3.9976	14.1149
3.9792	14.3983
3.9609	14.7018
3.9428	14.9245
3.9249	14.9043
3.9072	14.9329
3.8896	14.9502
3.8722	14.8817
3.8549	14.8572
3.8378	14.7472
3.8208	14.3782
3.804	13.9531
3.7873	13.7029
3.7708	13.6873
3.7544	13.611
3.7382	13.4729
3.7221	13.05
3.7061	12.6589
3.6903	12.2063
3.6746	11.6556
3.659	11.0599
3.6436	10.4795
3.6283	10.1993
3.6131	9.7301
3.5981	9.5074
3.5832	9.1928
3.5684	8.921
3.5537	8.6705
3.5391	8.6084
3.5247	8.2219
3.5104	7.9785
3.4962	7.8152
3.4821	7.5486
3.4681	7.4378
3.4543	7.1231
3.4405	6.9413
3.4269	6.5812
3.4133	6.2561
3.3999	5.8516
3.3866	5.5555
3.3733	5.0068
3.3602	5.0472
3.3472	4.5254
3.3343	4.2837
3.3215	4.2787
3.3088	3.9707
3.2961	3.7921
3.2836	3.9673
3.2712	3.8369
3.2588	3.6863
3.2466	3.6343
3.2345	3.3841
3.2224	3.2353
3.2104	3.1065
3.1985	3.0814
3.1867	3.011
3.175	2.9781
3.1634	3.0246
3.1519	2.702
3.1404	2.7712
3.129	2.5321
3.1178	2.6256
3.1065	2.5325
3.0954	2.5424
3.0844	2.5559
3.0734	2.6407
3.0625	2.35
3.0517	2.3382
3.041	2.4418
3.0303	2.2929
3.0197	2.211
3.0092	1.8801
2.9987	1.9891
2.9884	1.6966
2.9781	1.5988
2.9678	1.8229
2.9577	1.467
2.9476	1.6716
2.9376	1.5534
2.9276	1.6486
2.9177	1.4751
2.9079	1.4429
2.8982	1.1694
2.8885	1.3506
2.8789	1.4068
2.8693	1.7531
2.8598	1.689
2.8504	2.0739
2.841	2.1927
2.8317	2.3204
2.8224	2.3729
2.8133	1.3734
2.8041	1.4021
2.7951	1.8023
2.786	2.6757
2.7771	3.8419
2.7682	5.3124
2.7594	7.1116
2.7506	9.448
2.7418	12.3752
2.7332	15.3656
2.7246	19.3301
2.716	21.7404
2.7075	24.2341
2.699	26.0581
2.6906	28.0128
2.6823	29.8745
2.674	31.8286
2.6657	34.5696
2.6575	34.7506
2.6494	35.976
2.6413	37.2377
2.6332	38.2951
2.6252	39.1412
2.6173	40.5673
2.6094	40.4135
2.6015	40.4967
2.5937	41.8133
2.5859	40.7324
2.5782	39.9649
2.5706	38.8487
2.5629	38.2547
2.5554	37.3199
2.5478	37.7214
2.5403	37.646
2.5329	38.2815
2.5255	38.3407
2.5181	38.3703
2.5108	38.4929
2.5035	38.8242
2.4963	39.0293
2.4891	39.0893
2.482	39.2516
2.4749	39.1966
2.4678	39.4885
2.4608	39.7905
2.4538	39.8068
2.4468	39.5787
2.4399	39.5611
2.4331	39.8917
2.4262	40.0477
2.4194	40.9704
2.4127	41.5705
2.4059	42.016
2.3993	42.7386
2.3926	43.6193
2.386	45.2901
2.3795	46.5754
2.3729	48.1634
2.3664	49.7668
2.36	50.5881
2.3535	51.4305
2.3471	52.2411
2.3408	53.2335
2.3345	54.0009
2.3282	54.6784
2.3219	55.2109
2.3157	55.6454
2.3095	55.5431
2.3034	55.135
2.2972	54.6153
2.2911	53.5961
2.2851	52.7274
2.279	52.3315
2.2731	52.1142
2.2671	51.8131
2.2612	51.5899
2.2553	51.1275
2.2494	51.1795
2.2435	50.9397
2.2377	49.9098
2.232	48.5589
2.2262	47.5798
2.2205	46.5955
2.2148	44.9766
2.2091	43.1101
2.2035	41.679
2.1979	38.0362
2.1923	35.3348
2.1868	35.5486
2.1812	38.5345
2.1758	43.0951
2.1703	45.8223
2.1649	47.2182
2.1595	47.9428
2.1541	48.534
2.1487	48.7869
2.1434	49.2214
2.1381	49.4683
2.1328	49.9343
2.1275	49.8535
2.1223	49.8892
2.1171	49.8406
2.112	49.9189
2.1068	49.5697
2.1017	48.8674
2.0966	48.8058
2.0915	48.4829
2.0865	47.87
2.0814	47.4384
2.0764	46.8219
2.0715	46.6145
2.0665	45.4845
2.0616	44.7269
2.0567	43.2185
2.0518	42.0475
2.0469	42.358
2.0421	42.2208
2.0373	42.0603
2.0325	41.9517
2.0277	41.6857
2.0229	41.7199
2.0182	41.243
2.0135	40.6515
2.0088	40.2771
2.0042	39.8281
