Name: Azurite Cu_3(CO_3)_2(OH)_2
Type: Mineral
Class: Carbonate
Subclass: None
Particle Size: Fine
Sample No.: C-12A
Owner: JPL
Wavelength Range: TIR
Origin: USA, California, San Bernadino County, Near Valley Wells
Description: Particle size was 0-45um.Collected by Burminco Original ASTER Spectral Library name was jpl.nicolet.mineral.carbonate.none.fine.c12a.spectrum.txt
Measurement: Hemispherical reflectance
X Units: Wavelength (micrometers)
Y Units: Reflectance (percent)
wavelength	value
15.3853	1.7455
15.1161	2.0825
14.8563	1.9948
14.6052	2.0467
14.3624	2.3126
14.1276	2.2306
13.9004	2.2082
13.6803	2.4234
13.4671	2.1435
13.2604	2.1587
13.06	1.8576
12.8656	2.1175
12.6769	2.1067
12.4936	2.3145
12.3155	2.6213
12.1425	2.3247
11.9742	2.2999
11.8106	2.4741
11.6513	2.46
11.4963	2.472
11.3454	2.4629
11.1983	2.6294
11.0551	2.5449
10.9154	2.7754
10.7793	2.8532
10.6465	2.9134
10.5169	3.0829
10.3904	3.1339
10.267	3.2712
10.1464	3.4331
10.0287	3.5746
9.9136	3.8293
9.8012	3.9819
9.6913	4.4689
9.5838	4.3993
9.4787	4.1992
9.3758	3.4912
9.2752	2.6714
9.1767	1.9919
9.0803	1.6014
8.9858	1.5169
8.8934	1.9869
8.8028	1.8534
8.714	2.0936
8.627	2.3098
8.5417	2.7058
8.4581	3.2569
8.3761	3.8301
8.2957	4.7651
8.2169	5.5899
8.1395	6.4492
8.0635	6.973
7.989	7.643
7.9158	8.0068
7.8439	8.5136
7.7734	8.8323
7.7041	8.7562
7.636	8.4619
7.5691	8.1124
7.5034	7.9457
7.4388	7.6563
7.3753	7.1344
7.3129	6.2771
7.2515	5.0722
7.1912	4.573
7.1318	4.476
7.0734	5.2701
7.016	5.0209
6.9595	4.719
6.9039	4.7383
6.8492	4.9759
6.7953	4.8921
6.7423	4.565
6.6901	4.1096
6.6387	3.8272
6.5881	3.8852
6.5382	4.1283
6.4892	4.4445
6.4408	5.0056
6.3931	5.5929
6.3462	5.3893
6.2999	4.9646
6.2543	4.3858
6.2094	3.6716
6.1651	2.7806
6.1214	2.4521
6.0784	2.4067
6.0359	2.6221
5.994	3.1727
5.9527	3.9843
5.912	4.8955
5.8718	6.2168
5.8322	7.8657
5.7931	9.7464
5.7545	11.0643
5.7165	12.1084
5.6789	12.8757
5.6418	13.0929
5.6052	13.563
5.5691	13.834
5.5334	13.8905
5.4982	14.3578
5.4635	14.1022
5.4291	14.5671
5.3952	15.0358
5.3618	15.6174
5.3287	15.8756
5.2961	16.1244
5.2638	16.9572
5.2319	17.5632
5.2004	18.07
5.1693	18.5153
5.1386	18.9744
5.1082	19.4301
5.0782	19.8467
5.0485	20.1153
5.0192	20.2444
4.9902	20.4288
4.9616	20.3445
4.9332	20.3194
4.9052	20.2325
4.8776	19.9508
4.8502	19.8634
4.8231	19.7309
4.7963	19.6467
4.7699	19.8517
4.7437	19.9233
4.7178	20.0936
4.6922	20.239
4.6668	20.2199
4.6418	20.3275
4.617	20.501
4.5924	20.7291
4.5681	20.9612
4.5441	21.2504
4.5203	21.4946
4.4968	21.7403
4.4735	21.9692
4.4505	22.2786
4.4277	22.5693
4.4051	22.9593
4.3828	23.2659
4.3607	23.5038
4.3388	23.94
4.3171	24.2937
4.2956	24.7165
4.2744	24.9799
4.2534	25.3247
4.2325	25.4105
4.2119	25.6042
4.1915	25.6698
4.1712	25.6305
4.1512	25.5779
4.1313	25.6839
4.1117	25.7794
4.0922	26.1788
4.0729	26.3152
4.0538	26.1113
4.0349	25.7985
4.0161	24.4183
3.9976	22.9717
3.9792	23.4783
3.9609	23.6885
3.9428	23.9438
3.9249	23.4454
3.9072	23.4006
3.8896	24.5699
3.8722	25.2193
3.8549	25.0705
3.8378	25.3017
3.8208	25.6021
3.804	25.6737
3.7873	25.5994
3.7708	25.1813
3.7544	24.8823
3.7382	24.6232
3.7221	24.218
3.7061	23.7445
3.6903	23.1973
3.6746	22.6985
3.659	22.0646
3.6436	21.3793
3.6283	20.8896
3.6131	20.1913
3.5981	19.5215
3.5832	18.7037
3.5684	18.008
3.5537	17.0869
3.5391	16.222
3.5247	15.4864
3.5104	14.9721
3.4962	14.356
3.4821	13.7731
3.4681	13.0817
3.4543	12.5283
3.4405	11.9379
3.4269	11.4138
3.4133	10.89
3.3999	10.5415
3.3866	10.1275
3.3733	9.4979
3.3602	9.1845
3.3472	8.8127
3.3343	8.4167
3.3215	8.1198
3.3088	7.6297
3.2961	7.2482
3.2836	7.0484
3.2712	6.7276
3.2588	6.1798
3.2466	6.043
3.2345	5.8306
3.2224	5.4435
3.2104	5.2239
3.1985	4.867
3.1867	4.6427
3.175	4.5126
3.1634	4.3049
3.1519	4.0345
3.1404	3.8431
3.129	3.5694
3.1178	3.4765
3.1065	3.3058
3.0954	3.1705
3.0844	3.0993
3.0734	2.9526
3.0625	2.9253
3.0517	2.6927
3.041	2.7219
3.0303	2.475
3.0197	2.5616
3.0092	2.4189
2.9987	2.5275
2.9884	2.2322
2.9781	2.3226
2.9678	2.2124
2.9577	2.1841
2.9476	2.1784
2.9376	1.9518
2.9276	2.0009
2.9177	2.0768
2.9079	1.7821
2.8982	1.8654
2.8885	1.9738
2.8789	2.044
2.8693	1.996
2.8598	2.3287
2.8504	2.3395
2.841	2.6885
2.8317	2.7031
2.8224	2.7511
2.8133	2.8424
2.8041	2.9951
2.7951	3.043
2.786	3.2447
2.7771	3.2858
2.7682	3.2236
2.7594	2.9518
2.7506	3.4304
2.7418	4.2371
2.7332	5.8548
2.7246	8.3743
2.716	11.6373
2.7075	13.9264
2.699	16.3361
2.6906	21.6744
2.6823	27.1448
2.674	30.7165
2.6657	32.6767
2.6575	35.928
2.6494	37.6262
2.6413	38.9476
2.6332	39.7608
2.6252	40.5727
2.6173	40.5288
2.6094	41.5211
2.6015	42.2237
2.5937	41.9153
2.5859	42.8839
2.5782	42.9303
2.5706	43.5384
2.5629	44.0604
2.5554	45.4825
2.5478	45.721
2.5403	46.1201
2.5329	46.2699
2.5255	46.4669
2.5181	46.651
2.5108	47.1093
2.5035	47.5085
2.4963	48.0393
2.4891	48.2916
2.482	48.81
2.4749	49.5221
2.4678	50.0431
2.4608	50.4645
2.4538	50.9114
2.4468	51.1674
2.4399	51.6522
2.4331	52.0352
2.4262	52.549
2.4194	52.6056
2.4127	52.7258
2.4059	52.7861
2.3993	53.2237
2.3926	53.5325
2.386	53.7482
2.3795	54.208
2.3729	54.4966
2.3664	53.9232
2.36	50.1447
2.3535	49.0909
2.3471	50.6397
2.3408	52.9942
2.3345	56.8633
2.3282	59.1711
2.3219	59.9955
2.3157	60.3741
2.3095	60.2332
2.3034	59.5544
2.2972	58.1187
2.2911	54.7914
2.2851	52.5517
2.279	53.3621
2.2731	56.0006
2.2671	57.0825
2.2612	57.8074
2.2553	58.6914
2.2494	59.4664
2.2435	61.0304
2.2377	62.3961
2.232	63.522
2.2262	64.332
2.2205	64.5748
2.2148	64.608
2.2091	64.4736
2.2035	65.4674
2.1979	66.7361
2.1923	67.4273
2.1868	67.688
2.1812	68.0202
2.1758	68.0911
2.1703	68.4322
2.1649	68.5903
2.1595	68.9934
2.1541	69.0725
2.1487	69.3197
2.1434	69.3434
2.1381	69.4044
2.1328	69.4588
2.1275	69.3066
2.1223	69.1691
2.1171	69.1356
2.112	68.6883
2.1068	68.5211
2.1017	68.696
2.0966	68.2996
2.0915	68.3611
2.0865	68.0772
2.0814	67.6992
2.0764	67.7352
2.0715	66.928
2.0665	66.8141
2.0616	66.531
2.0567	66.1375
2.0518	65.5845
2.0469	65.082
2.0421	64.6214
2.0373	64.7207
2.0325	64.129
2.0277	63.5699
2.0229	63.2438
2.0182	62.8462
2.0135	62.3123
2.0088	62.1105
2.0042	60.9947
