Name: Rhodonite (Mn+2,Fe+2,Mg,Ca)SiO3
Type: Mineral
Class: Silicate
Subclass: Inosilicate
Particle Size: Solid
Sample No.: rhodon_1
Owner: JHU
Wavelength Range: TIR
Origin: Franklin, New Jersey via the Smithsonian (sample no. NMNHC6148)
Description: The hand sample was composed of two fragments, each about 2 cm x 2 cm x 1 cm. Pink rhodonite crystals were removed from host rock by sawing to free pure rhodonite. Under the petrographic microscope, many of the grains show a small degree of unidentified alteration, likely accounting for the strong hydroxyl bands near 2.7 micrometers. Sample was crystal mass. (chain silicates); (Pyroxenoid Group) Original ASTER Spectral Library name was jhu.nicolet.mineral.silicate.inosilicate.solid.rhodon1.spectrum.txt
Measurement: Bidirectional reflectance
X Units: Wavelength (micrometers)
Y Units: Reflectance (percent)
wavelength	value
25.0442	9.3408
24.3388	11.6963
23.6719	11.4804
23.0407	13.6289
22.4422	17.144
21.8741	18.9228
21.334	19.2348
20.8199	18.2578
20.33	18.2578
19.8627	19.4038
19.4163	22.3964
18.9896	20.0134
18.5812	13.2666
18.19	8.7966
17.815	13.1526
17.4551	15.2588
17.1094	15.1076
16.7772	9.5097
16.4576	5.0224
16.15	4.9399
15.8537	5.5298
15.568	6.2204
15.2925	6.3237
15.0265	7.0713
14.7697	6.6843
14.5214	7.218
14.2814	7.6448
14.0492	8.4419
13.8244	8.1091
13.6067	6.5442
13.3957	7.3259
13.1912	7.8174
12.9929	8.1948
12.8004	8.508
12.6135	8.8374
12.432	9.2234
12.2557	9.5747
12.0843	10.0683
11.9176	10.5588
11.7555	11.1318
11.5977	12.0551
11.444	13.3398
11.2944	14.4248
11.1487	18.8137
11.0067	20.5825
10.8682	19.6098
10.7332	17.5468
10.6015	14.3713
10.473	21.5954
10.3476	19.3388
10.2251	18.1906
10.1056	18.1726
9.9887	17.3801
9.8746	21.4565
9.763	23.5253
9.6539	22.0085
9.5472	19.2141
9.4429	21.3691
9.3408	21.312
9.2409	21.3937
9.1431	22.3747
9.0474	24.1515
8.9536	21.6337
8.8618	21.518
8.7718	15.801
8.6837	10.1801
8.5973	4.8833
8.5126	2.2043
8.4295	2.6431
8.3481	3.1189
8.2682	3.5146
8.1898	3.8464
8.1129	4.103
8.0374	4.3142
7.9634	4.522
7.8906	4.6714
7.8192	4.8069
7.7491	4.9397
7.6802	5.0554
7.6126	5.1865
7.5461	5.2944
7.4807	5.3674
7.4165	5.4682
7.3534	5.5674
7.2914	5.6228
7.2303	5.7165
7.1703	5.771
7.1113	5.8386
7.0533	5.8701
6.9962	5.9619
6.94	6.0249
6.8847	6.073
6.8302	6.1084
6.7767	6.1872
6.7239	6.2156
6.672	6.2937
6.6209	6.3933
6.5705	6.3284
6.5209	6.3721
6.4721	6.4389
6.424	6.3823
6.3766	6.4695
6.3299	6.5007
6.2838	6.5071
6.2385	6.5249
6.1937	6.5227
6.1496	6.5547
6.1062	6.5608
6.0633	6.623
6.0211	6.5784
5.9794	6.6238
5.9383	6.5007
5.8978	6.5561
5.8578	6.6689
5.8184	6.6758
5.7794	6.7295
5.741	6.758
5.7031	6.7724
5.6657	6.7915
5.6288	6.8125
5.5924	6.8154
5.5564	6.8457
5.5209	6.9009
5.4859	6.9587
5.4513	7.0317
5.4171	7.05
5.3833	7.0339
5.35	7.0112
5.3171	7.0356
5.2846	7.0447
5.2524	7.0373
5.2207	7.0339
5.1893	7.0688
5.1584	7.0776
5.1277	7.0986
5.0975	7.1015
5.0676	7.1235
5.038	7.1413
5.0088	7.1636
4.98	7.1907
4.9514	7.2248
4.9232	7.2512
4.8953	7.2756
4.8678	7.3061
4.8405	7.3161
4.8135	7.3554
4.7868	7.3764
4.7605	7.4297
4.7344	7.4883
4.7086	7.5547
4.6831	7.6304
4.6578	7.6992
4.6328	7.7886
4.6081	7.8503
4.5837	7.9299
4.5595	8.0051
4.5356	8.0998
4.5119	8.1787
4.4884	8.196
4.4652	8.2287
4.4423	8.2478
4.4196	8.2617
4.3971	8.2563
4.3748	8.2644
4.3528	8.3032
4.331	8.3745
4.3094	8.4934
4.288	8.647
4.2668	8.6445
4.2458	8.7026
4.2251	8.7803
4.2045	8.4004
4.1841	8.2392
4.164	8.2434
4.144	8.2414
4.1242	8.2336
4.1046	8.2441
4.0852	8.2346
4.066	8.25
4.047	8.2571
4.0281	8.2749
4.0094	8.342
3.9909	8.383
3.9725	8.4226
3.9544	8.4636
3.9363	8.4919
3.9185	8.5053
3.9008	8.5407
3.8833	8.5525
3.8659	8.5503
3.8487	8.5429
3.8316	8.5437
3.8147	8.5605
3.7979	8.5574
3.7813	8.5339
3.7648	8.519
3.7485	8.4929
3.7323	8.4785
3.7162	8.4411
3.7003	8.4326
3.6845	8.3918
3.6689	8.3713
3.6534	8.3474
3.638	8.323
3.6227	8.2934
3.6076	8.2756
3.5926	8.24
3.5777	8.2336
3.563	8.2241
3.5484	8.1865
3.5338	8.1731
3.5195	8.1511
3.5052	8.1084
3.491	8.0986
3.477	8.0913
3.463	8.0735
3.4492	8.0657
3.4355	8.0217
3.4219	8.0036
3.4084	8.0014
3.395	7.9868
3.3817	7.9807
3.3685	7.9792
3.3554	7.9739
3.3425	7.9604
3.3296	7.9338
3.3168	7.9223
3.3041	7.896
3.2915	7.8821
3.279	7.8293
3.2666	7.8025
3.2543	7.7658
3.2421	7.717
3.23	7.6977
3.218	7.6347
3.206	7.5989
3.1942	7.5439
3.1824	7.4804
3.1707	7.4272
3.1591	7.375
3.1476	7.3362
3.1362	7.3049
3.1249	7.2502
3.1136	7.2302
3.1024	7.187
3.0913	7.1809
3.0803	7.1492
3.0694	7.1448
3.0585	7.0976
3.0477	7.095
3.037	7.0798
3.0264	7.0586
3.0158	7.0574
3.0053	7.041
2.9949	7.0068
2.9845	6.9995
2.9743	6.978
2.9641	6.9385
2.9539	6.9277
2.9439	6.9067
2.9339	6.904
2.9239	6.8955
2.9141	6.8667
2.9043	6.8774
2.8946	6.8696
2.8849	6.8872
2.8753	6.8642
2.8658	6.9009
2.8563	6.9353
2.8469	6.9565
2.8375	7.0217
2.8282	7.029
2.819	7.0744
2.8098	7.0903
2.8007	7.1211
2.7917	7.1887
2.7827	7.2712
2.7738	7.1926
2.7649	7.2221
2.7561	7.1968
2.7473	6.8823
2.7386	7.5976
2.7299	7.7973
2.7213	8.0522
2.7128	8.104
2.7043	8.2143
2.6959	8.2783
2.6875	8.3442
2.6791	8.3596
2.6709	8.3557
2.6626	8.3364
2.6545	8.3135
2.6463	8.3345
2.6382	8.2851
2.6302	8.4023
2.6222	8.3533
2.6143	8.3545
2.6064	8.375
2.5986	8.2561
2.5908	8.3052
2.583	8.3423
2.5753	8.3501
2.5677	8.2734
2.5601	8.2915
2.5525	8.2368
2.545	8.281
2.5375	8.271
2.5301	8.2529
2.5227	8.2451
2.5154	8.2309
2.5081	8.2358
2.5008	8.2055
2.4936	8.2348
2.4864	8.2383
2.4793	8.2026
2.4722	8.2158
2.4651	8.2202
2.4581	8.2124
2.4511	8.208
2.4442	8.2182
2.4373	8.1748
2.4305	8.2344
2.4236	8.1811
2.4169	8.1899
2.4101	8.2197
2.4034	8.1936
2.3967	8.1675
2.3901	8.1545
2.3835	8.1789
2.377	8.165
2.3704	8.1658
2.364	8.1797
2.3575	8.1755
2.3511	8.1679
2.3447	8.1872
2.3384	8.2075
2.3321	8.1867
2.3258	8.2329
2.3195	8.1994
2.3133	8.2138
2.3071	8.2402
2.301	8.1972
2.2949	8.1938
2.2888	8.2397
2.2828	8.2236
2.2767	8.2295
2.2708	8.2617
2.2648	8.2651
2.2589	8.1933
2.253	8.2212
2.2471	8.2627
2.2413	8.2661
2.2355	8.2534
2.2297	8.2092
2.224	8.2563
2.2183	8.2461
2.2126	8.2903
2.207	8.2822
2.2013	8.2949
2.1957	8.2553
2.1902	8.2734
2.1846	8.3791
2.1791	8.3039
2.1736	8.3449
2.1682	8.3701
2.1628	8.3906
2.1574	8.3222
2.152	8.3432
2.1466	8.3821
2.1413	8.3559
2.136	8.3869
2.1308	8.3576
2.1255	8.4062
2.1203	8.3642
2.1151	8.395
2.11	8.4065
2.1048	8.4331
2.0997	8.4416
2.0946	8.4638
2.0895	8.4094
2.0845	8.4465
2.0795	8.3977
