Name: Hematite alpha Fe_2O_3
Type: Mineral
Class: Oxide
Subclass: None
Particle Size: Coarse
Sample No.: O-1A
Owner: JPL
Wavelength Range: TIR
Origin: USA, Alabama, Birmingham
Description: Particle size was 125-500um.Collected by Burminco Original ASTER Spectral Library name was jpl.nicolet.mineral.oxide.none.coarse.o01a.spectrum.txt
Measurement: Hemispherical reflectance
X Units: Wavelength (micrometers)
Y Units: Reflectance (percent)
wavelength	value
15.3853	8.7939
15.1161	4.5349
14.8563	2.3027
14.6052	1.6869
14.3624	1.3387
14.1276	1.3033
13.9004	1.3981
13.6803	1.7938
13.4671	1.7757
13.2604	2.3089
13.06	2.5356
12.8656	3.3777
12.6769	3.251
12.4936	3.74
12.3155	2.5872
12.1425	2.593
11.9742	2.8773
11.8106	3.094
11.6513	3.1523
11.4963	3.6095
11.3454	4.2007
11.1983	3.9986
11.0551	3.9031
10.9154	3.9728
10.7793	4.1166
10.6465	4.2822
10.5169	4.4496
10.3904	4.5304
10.267	4.6518
10.1464	5.2119
10.0287	5.3084
9.9136	5.3806
9.8012	5.7829
9.6913	5.917
9.5838	5.966
9.4787	6.6955
9.3758	8.0186
9.2752	9.4107
9.1767	9.6552
9.0803	10.1217
8.9858	10.3249
8.8934	10.5047
8.8028	10.4717
8.714	10.1718
8.627	8.3619
8.5417	10.5763
8.4581	11.1525
8.3761	11.6284
8.2957	11.6479
8.2169	12.069
8.1395	11.2957
8.0635	9.7737
7.989	8.6818
7.9158	7.9688
7.8439	7.4307
7.7734	7.3389
7.7041	7.1745
7.636	7.0872
7.5691	6.967
7.5034	6.917
7.4388	7.0591
7.3753	6.8281
7.3129	6.8278
7.2515	6.7923
7.1912	6.9467
7.1318	7.0621
7.0734	7.3466
7.016	7.3034
6.9595	7.5511
6.9039	7.4739
6.8492	7.4882
6.7953	7.5762
6.7423	7.6701
6.6901	7.7504
6.6387	7.9439
6.5881	8.0038
6.5382	8.0903
6.4892	8.278
6.4408	8.5299
6.3931	7.9135
6.3462	7.4782
6.2999	7.1678
6.2543	6.8372
6.2094	6.4786
6.1651	6.1989
6.1214	6.1628
6.0784	6.293
6.0359	6.3856
5.994	6.5732
5.9527	6.653
5.912	6.8611
5.8718	7.1015
5.8322	7.2663
5.7931	7.6061
5.7545	7.6049
5.7165	7.7303
5.6789	7.6958
5.6418	7.4435
5.6052	7.0228
5.5691	6.669
5.5334	7.1081
5.4982	7.5253
5.4635	7.8205
5.4291	7.9883
5.3952	7.7433
5.3618	7.7576
5.3287	7.7046
5.2961	7.7709
5.2638	7.908
5.2319	8.1829
5.2004	8.2907
5.1693	8.2955
5.1386	8.2903
5.1082	8.237
5.0782	8.0982
5.0485	8.1391
5.0192	8.0864
4.9902	8.1073
4.9616	8.236
4.9332	8.4133
4.9052	8.764
4.8776	9.275
4.8502	9.5563
4.8231	9.7279
4.7963	9.8136
4.7699	9.9575
4.7437	9.9985
4.7178	9.881
4.6922	9.587
4.6668	9.5844
4.6418	9.9042
4.617	10.1132
4.5924	10.1614
4.5681	10.2461
4.5441	10.3246
4.5203	10.1333
4.4968	9.9629
4.4735	9.8055
4.4505	9.8683
4.4277	10.1484
4.4051	10.2627
4.3828	10.3562
4.3607	10.6002
4.3388	10.5306
4.3171	10.6424
4.2956	10.6517
4.2744	10.5212
4.2534	10.5948
4.2325	10.704
4.2119	10.6435
4.1915	10.6315
4.1712	10.7079
4.1512	10.4915
4.1313	10.5681
4.1117	10.513
4.0922	10.5762
4.0729	10.3776
4.0538	10.218
4.0349	9.9189
4.0161	9.6976
3.9976	9.3176
3.9792	9.2017
3.9609	9.4038
3.9428	9.6035
3.9249	9.6192
3.9072	9.6666
3.8896	9.7292
3.8722	9.7578
3.8549	9.6933
3.8378	9.7743
3.8208	9.8507
3.804	10.083
3.7873	10.3461
3.7708	10.5138
3.7544	10.5084
3.7382	10.4214
3.7221	10.4465
3.7061	10.5482
3.6903	10.5674
3.6746	10.5043
3.659	10.4869
3.6436	10.447
3.6283	10.4031
3.6131	10.3897
3.5981	10.3642
3.5832	10.1326
3.5684	10.0353
3.5537	9.9369
3.5391	9.7344
3.5247	9.5203
3.5104	9.2419
3.4962	9.042
3.4821	9.0336
3.4681	9.0946
3.4543	9.1007
3.4405	9.1026
3.4269	8.9562
3.4133	8.9361
3.3999	8.9952
3.3866	8.8993
3.3733	8.7025
3.3602	8.7812
3.3472	8.7339
3.3343	8.9021
3.3215	8.814
3.3088	8.8287
3.2961	8.9053
3.2836	8.8578
3.2712	8.9788
3.2588	8.6321
3.2466	8.5967
3.2345	8.5368
3.2224	8.5749
3.2104	8.3049
3.1985	8.2049
3.1867	8.0281
3.175	8.0458
3.1634	8.066
3.1519	7.9056
3.1404	7.7302
3.129	7.6104
3.1178	7.6285
3.1065	7.6338
3.0954	7.5291
3.0844	7.3754
3.0734	7.3465
3.0625	7.3408
3.0517	7.3151
3.041	7.2654
3.0303	7.1895
3.0197	7.2568
3.0092	7.1547
2.9987	7.0709
2.9884	7.1511
2.9781	6.8173
2.9678	6.878
2.9577	6.9106
2.9476	6.8782
2.9376	6.8407
2.9276	6.9571
2.9177	6.9497
2.9079	6.8574
2.8982	6.9746
2.8885	7.0091
2.8789	6.9954
2.8693	7.2013
2.8598	7.0995
2.8504	7.005
2.841	7.3043
2.8317	7.1639
2.8224	7.0001
2.8133	7.0661
2.8041	6.9851
2.7951	7.17
2.786	7.1391
2.7771	6.9865
2.7682	6.9269
2.7594	7.2573
2.7506	7.2582
2.7418	7.8765
2.7332	8.2138
2.7246	8.7403
2.716	9.303
2.7075	9.6311
2.699	9.7895
2.6906	10.2432
2.6823	10.2143
2.674	10.0899
2.6657	10.3485
2.6575	10.1506
2.6494	10.3254
2.6413	10.3662
2.6332	10.2344
2.6252	10.4793
2.6173	10.277
2.6094	10.2545
2.6015	10.3882
2.5937	10.0449
2.5859	10.2325
2.5782	10.3613
2.5706	10.2746
2.5629	10.2602
2.5554	10.2621
2.5478	10.1654
2.5403	10.1256
2.5329	10.3457
2.5255	10.19
2.5181	9.9598
2.5108	10.214
2.5035	10.2773
2.4963	10.2542
2.4891	10.1126
2.482	10.1266
2.4749	10.1627
2.4678	10.1984
2.4608	10.1945
2.4538	10.1622
2.4468	10.1661
2.4399	10.1955
2.4331	10.264
2.4262	10.3794
2.4194	10.2601
2.4127	10.2145
2.4059	9.994
2.3993	10.1632
2.3926	10.2961
2.386	10.2599
2.3795	10.1029
2.3729	10.0762
2.3664	10.2319
2.36	10.0643
2.3535	10.1872
2.3471	10.011
2.3408	10.2613
2.3345	9.9718
2.3282	10.1932
2.3219	9.9998
2.3157	10.0076
2.3095	10.0418
2.3034	9.7823
2.2972	10.2799
2.2911	10.1624
2.2851	10.0579
2.279	9.7179
2.2731	10.0028
2.2671	10.0415
2.2612	10.0511
2.2553	10.1116
2.2494	10.022
2.2435	10.1078
2.2377	9.7612
2.232	10.0242
2.2262	10.3692
2.2205	10.0424
2.2148	10.023
2.2091	10.0137
2.2035	9.8134
2.1979	10.2913
2.1923	10.118
2.1868	9.9364
2.1812	9.9856
2.1758	10.2126
2.1703	9.9126
2.1649	10.1761
2.1595	10.0545
2.1541	9.8526
2.1487	9.9584
2.1434	9.8844
2.1381	9.9759
2.1328	9.9341
2.1275	9.9182
2.1223	9.9485
2.1171	9.8009
2.112	10.0794
2.1068	9.7089
2.1017	9.5799
2.0966	9.8834
2.0915	9.9505
2.0865	10.0501
2.0814	10.2152
2.0764	10.5084
2.0715	10.4372
2.0665	9.9975
2.0616	10.4336
2.0567	9.7785
2.0518	9.9648
2.0469	9.7764
2.0421	9.8444
2.0373	9.8276
2.0325	9.7529
2.0277	10.0726
2.0229	10.3413
2.0182	9.6353
2.0135	9.9083
2.0088	9.7825
2.0042	9.4105
