Name: Columbite Fe^2+Nb_2O_6
Type: Mineral
Class: Oxide
Subclass: None
Particle Size: Coarse
Sample No.: O-7A
Owner: JPL
Wavelength Range: TIR
Origin: USA, South Dakota, Pennington County, Keystone
Description: Particle size was 125-500um.Collected by Burminco Original ASTER Spectral Library name was jpl.nicolet.mineral.oxide.none.coarse.o07a.spectrum.txt
Measurement: Hemispherical reflectance
X Units: Wavelength (micrometers)
Y Units: Reflectance (percent)
wavelength	value
15.3853	16.2811
15.1161	16.5819
14.8563	17.829
14.6052	18.6165
14.3624	19.7166
14.1276	19.7739
13.9004	19.4387
13.6803	17.4874
13.4671	15.1838
13.2604	12.616
13.06	10.8622
12.8656	9.5558
12.6769	8.7236
12.4936	8.2742
12.3155	7.611
12.1425	6.9417
11.9742	6.4197
11.8106	6.1927
11.6513	4.8282
11.4963	2.989
11.3454	1.144
11.1983	0.4234
11.0551	0.6978
10.9154	0.7804
10.7793	0.8784
10.6465	1.0916
10.5169	1.4218
10.3904	1.5189
10.267	1.5574
10.1464	2.0233
10.0287	2.2878
9.9136	2.2487
9.8012	2.599
9.6913	2.7891
9.5838	2.9857
9.4787	3.113
9.3758	3.1102
9.2752	3.3763
9.1767	3.5391
9.0803	3.3175
8.9858	3.651
8.8934	3.8036
8.8028	3.8105
8.714	3.9929
8.627	3.962
8.5417	4.1021
8.4581	4.3191
8.3761	4.1913
8.2957	4.4589
8.2169	4.3638
8.1395	4.707
8.0635	4.472
7.989	4.4917
7.9158	4.5985
7.8439	4.7544
7.7734	5.0226
7.7041	4.9205
7.636	5.0884
7.5691	5.2077
7.5034	5.3442
7.4388	5.4637
7.3753	5.4764
7.3129	5.6339
7.2515	5.7245
7.1912	5.7187
7.1318	5.8625
7.0734	5.9043
7.016	5.9854
6.9595	5.9768
6.9039	6.0591
6.8492	6.1883
6.7953	6.2876
6.7423	6.3167
6.6901	6.401
6.6387	6.4779
6.5881	6.4665
6.5382	6.4062
6.4892	6.6328
6.4408	6.5633
6.3931	6.586
6.3462	6.8275
6.2999	6.746
6.2543	6.7875
6.2094	6.5787
6.1651	6.6982
6.1214	6.626
6.0784	6.6162
6.0359	6.4961
5.994	6.6007
5.9527	6.4773
5.912	6.4704
5.8718	6.6244
5.8322	6.8319
5.7931	7.0076
5.7545	7.3798
5.7165	8.0005
5.6789	8.5787
5.6418	9.0369
5.6052	9.4717
5.5691	9.768
5.5334	9.944
5.4982	10.1575
5.4635	10.4475
5.4291	10.5132
5.3952	10.6188
5.3618	10.6997
5.3287	10.7975
5.2961	10.8988
5.2638	10.9598
5.2319	11.0943
5.2004	11.1668
5.1693	11.2312
5.1386	11.3095
5.1082	11.1853
5.0782	11.3657
5.0485	11.4323
5.0192	11.5056
4.9902	11.4684
4.9616	11.4632
4.9332	11.4975
4.9052	11.5514
4.8776	11.6303
4.8502	11.7137
4.8231	11.8454
4.7963	11.8164
4.7699	11.981
4.7437	11.934
4.7178	11.967
4.6922	12.0123
4.6668	12.0152
4.6418	12.1521
4.617	12.2354
4.5924	12.3034
4.5681	12.2885
4.5441	12.4697
4.5203	12.4573
4.4968	12.5473
4.4735	12.5888
4.4505	12.6352
4.4277	12.6192
4.4051	12.7367
4.3828	12.8415
4.3607	12.8476
4.3388	12.9309
4.3171	12.9307
4.2956	12.9638
4.2744	12.8787
4.2534	13.0472
4.2325	12.9345
4.2119	13.078
4.1915	13.0922
4.1712	13.2817
4.1512	13.2698
4.1313	13.2562
4.1117	13.3162
4.0922	13.2569
4.0729	13.2986
4.0538	13.42
4.0349	13.4398
4.0161	13.3268
3.9976	13.3687
3.9792	13.3089
3.9609	13.3579
3.9428	13.4257
3.9249	13.3961
3.9072	13.3788
3.8896	13.1702
3.8722	13.278
3.8549	13.2015
3.8378	13.2408
3.8208	13.1895
3.804	13.1189
3.7873	12.9875
3.7708	12.9753
3.7544	13.0097
3.7382	12.8333
3.7221	12.842
3.7061	12.7861
3.6903	12.7544
3.6746	12.6121
3.659	12.6417
3.6436	12.6068
3.6283	12.4426
3.6131	12.3471
3.5981	12.2365
3.5832	12.0952
3.5684	12.0136
3.5537	11.9486
3.5391	11.9589
3.5247	11.7712
3.5104	11.7185
3.4962	11.6149
3.4821	11.337
3.4681	11.4183
3.4543	11.1839
3.4405	11.1183
3.4269	10.9835
3.4133	10.8693
3.3999	10.7959
3.3866	10.6793
3.3733	10.5539
3.3602	10.4259
3.3472	10.2005
3.3343	10.1889
3.3215	10.0386
3.3088	9.964
3.2961	9.7336
3.2836	9.7288
3.2712	9.7403
3.2588	9.4561
3.2466	9.2901
3.2345	9.3379
3.2224	9.128
3.2104	8.8201
3.1985	8.6852
3.1867	8.7251
3.175	8.5534
3.1634	8.5068
3.1519	8.386
3.1404	8.2419
3.129	8.1675
3.1178	8.1371
3.1065	7.8589
3.0954	7.9375
3.0844	7.8459
3.0734	7.8672
3.0625	7.7245
3.0517	7.6174
3.041	7.5227
3.0303	7.3789
3.0197	7.3879
3.0092	7.3896
2.9987	7.2253
2.9884	7.1322
2.9781	7.3069
2.9678	7.1519
2.9577	7.1788
2.9476	6.9816
2.9376	7.0506
2.9276	7.301
2.9177	7.1937
2.9079	7.3504
2.8982	7.5564
2.8885	7.6915
2.8789	7.763
2.8693	7.9821
2.8598	8.2152
2.8504	8.4281
2.841	8.4989
2.8317	8.9999
2.8224	9.0775
2.8133	9.452
2.8041	9.7755
2.7951	9.8727
2.786	10.628
2.7771	10.3277
2.7682	10.7509
2.7594	11.0481
2.7506	11.0945
2.7418	11.287
2.7332	11.8073
2.7246	11.7308
2.716	11.6642
2.7075	11.9153
2.699	11.9378
2.6906	12.098
2.6823	12.2488
2.674	12.2117
2.6657	12.412
2.6575	12.2134
2.6494	12.1173
2.6413	12.3421
2.6332	12.3596
2.6252	12.1895
2.6173	12.3308
2.6094	12.3641
2.6015	12.2261
2.5937	12.4416
2.5859	12.1199
2.5782	12.058
2.5706	12.1862
2.5629	12.1789
2.5554	12.012
2.5478	11.9996
2.5403	11.9148
2.5329	11.9482
2.5255	11.849
2.5181	11.9267
2.5108	11.7654
2.5035	11.9463
2.4963	11.9055
2.4891	11.6517
2.482	11.8007
2.4749	11.8207
2.4678	11.79
2.4608	11.7113
2.4538	11.7079
2.4468	11.6822
2.4399	11.5887
2.4331	11.5069
2.4262	11.5123
2.4194	11.6509
2.4127	11.486
2.4059	11.4836
2.3993	11.5156
2.3926	11.3805
2.386	11.3256
2.3795	11.2688
2.3729	11.299
2.3664	11.349
2.36	11.2354
2.3535	11.2729
2.3471	11.0107
2.3408	11.2809
2.3345	11.1273
2.3282	11.2352
2.3219	10.9769
2.3157	10.8922
2.3095	10.8119
2.3034	11.0838
2.2972	10.7758
2.2911	10.6645
2.2851	10.6935
2.279	10.7879
2.2731	10.7243
2.2671	10.7388
2.2612	10.9589
2.2553	10.6528
2.2494	10.5432
2.2435	10.5626
2.2377	10.4892
2.232	10.6011
2.2262	10.6667
2.2205	10.4733
2.2148	10.3641
2.2091	10.3804
2.2035	10.3235
2.1979	10.426
2.1923	10.2566
2.1868	9.9891
2.1812	10.18
2.1758	10.1246
2.1703	10.1925
2.1649	9.9455
2.1595	10.0525
2.1541	9.9672
2.1487	9.8415
2.1434	9.9536
2.1381	10.1818
2.1328	9.8227
2.1275	9.6717
2.1223	9.7781
2.1171	9.7454
2.112	9.6296
2.1068	9.5707
2.1017	9.4035
2.0966	9.5244
2.0915	9.4724
2.0865	9.7033
2.0814	9.2548
2.0764	8.7748
2.0715	9.6149
2.0665	9.4984
2.0616	8.6473
2.0567	9.6916
2.0518	9.1702
2.0469	9.1334
2.0421	9.0234
2.0373	8.9756
2.0325	9.1861
2.0277	9.0662
2.0229	8.3827
2.0182	9.0653
2.0135	9.0032
2.0088	8.5939
2.0042	8.8022
