Name: Scheelite CaWO_4
Type: Mineral
Class: Tungstate
Subclass: None
Particle Size: Coarse
Sample No.: T-1A
Owner: JPL
Wavelength Range: TIR
Origin: USA, California, Kern County, Atolia
Description: Particle size was 125-500um.Collected by Burminco Original ASTER Spectral Library name was jpl.nicolet.mineral.tungstate.none.coarse.t01a.spectrum.txt
Measurement: Hemispherical reflectance
X Units: Wavelength (micrometers)
Y Units: Reflectance (percent)
wavelength	value
15.3853	6.8662
15.1161	6.7441
14.8563	7.3139
14.6052	7.4653
14.3624	8.171
14.1276	8.525
13.9004	9.3762
13.6803	10.254
13.4671	11.3474
13.2604	12.9832
13.06	15.5946
12.8656	21.033
12.6769	33.0479
12.4936	40.2783
12.3155	38.989
12.1425	38.3655
11.9742	37.8883
11.8106	37.5319
11.6513	37.4248
11.4963	38.1911
11.3454	41.6735
11.1983	35.3837
11.0551	17.2288
10.9154	5.4128
10.7793	2.7523
10.6465	2.0509
10.5169	2.2567
10.3904	2.0654
10.267	2.2452
10.1464	2.5609
10.0287	2.5494
9.9136	3.266
9.8012	3.733
9.6913	4.2207
9.5838	5.0117
9.4787	6.1859
9.3758	7.3945
9.2752	9.035
9.1767	9.3378
9.0803	9.1198
8.9858	9.1198
8.8934	9.4129
8.8028	9.5174
8.714	9.7179
8.627	9.4973
8.5417	11.738
8.4581	12.3545
8.3761	12.4771
8.2957	12.465
8.2169	12.9982
8.1395	12.9789
8.0635	13.3088
7.989	14.1203
7.9158	14.1817
7.8439	14.3838
7.7734	15.4651
7.7041	15.6483
7.636	17.4536
7.5691	17.9664
7.5034	19.1501
7.4388	20.4453
7.3753	21.5373
7.3129	21.934
7.2515	22.2622
7.1912	22.424
7.1318	22.3442
7.0734	22.2782
7.016	22.1417
6.9595	22.2593
6.9039	21.8759
6.8492	21.6108
6.7953	21.3045
6.7423	20.8024
6.6901	20.2763
6.6387	19.9309
6.5881	18.4756
6.5382	17.0895
6.4892	15.8033
6.4408	12.045
6.3931	8.1357
6.3462	5.897
6.2999	4.8295
6.2543	4.7369
6.2094	4.7809
6.1651	5.0358
6.1214	5.1297
6.0784	5.5959
6.0359	5.1839
5.994	4.8949
5.9527	4.7385
5.912	4.4444
5.8718	4.2281
5.8322	4.2961
5.7931	4.9099
5.7545	7.0617
5.7165	7.3698
5.6789	8.3625
5.6418	9.7936
5.6052	8.5979
5.5691	5.8665
5.5334	7.3296
5.4982	17.9124
5.4635	23.8592
5.4291	26.4449
5.3952	27.2662
5.3618	27.6345
5.3287	28.3273
5.2961	29.0087
5.2638	30.1566
5.2319	31.7415
5.2004	33.0814
5.1693	33.2729
5.1386	33.3792
5.1082	33.509
5.0782	33.3566
5.0485	33.4727
5.0192	33.4891
4.9902	33.8259
4.9616	34.8954
4.9332	35.6922
4.9052	37.5132
4.8776	40.3315
4.8502	42.0775
4.8231	43.0433
4.7963	44
4.7699	44.6587
4.7437	45.0356
4.7178	45.2902
4.6922	44.5315
4.6668	45.067
4.6418	46.3691
4.617	47.5868
4.5924	48.3114
4.5681	48.8679
4.5441	48.8869
4.5203	48.3928
4.4968	47.5494
4.4735	47.5222
4.4505	48.2441
4.4277	48.8692
4.4051	49.6549
4.3828	50.3667
4.3607	51.0753
4.3388	50.9548
4.3171	49.2894
4.2956	45.6368
4.2744	36.4321
4.2534	41.185
4.2325	45.5784
4.2119	48.5893
4.1915	50.4284
4.1712	51.3269
4.1512	51.8928
4.1313	52.1549
4.1117	52.35
4.0922	52.086
4.0729	51.4719
4.0538	50.4458
4.0349	48.8177
4.0161	48.2074
3.9976	48.3417
3.9792	49.2503
3.9609	50.365
3.9428	51.5614
3.9249	52.2911
3.9072	52.7955
3.8896	53.0314
3.8722	52.9747
3.8549	52.7947
3.8378	52.3663
3.8208	52.5882
3.804	53.6084
3.7873	54.9976
3.7708	55.539
3.7544	55.4734
3.7382	55.3618
3.7221	55.4041
3.7061	55.2199
3.6903	54.866
3.6746	54.6618
3.659	54.3049
3.6436	53.8981
3.6283	53.4174
3.6131	52.7398
3.5981	52.1222
3.5832	51.2113
3.5684	50.2094
3.5537	49.4463
3.5391	48.3107
3.5247	46.7164
3.5104	43.9098
3.4962	43.076
3.4821	42.9603
3.4681	42.6833
3.4543	41.8667
3.4405	40.5856
3.4269	38.534
3.4133	37.3745
3.3999	37.9398
3.3866	37.3071
3.3733	36.8917
3.3602	37.0333
3.3472	36.3657
3.3343	35.8924
3.3215	35.2023
3.3088	34.2608
3.2961	33.3331
3.2836	32.1677
3.2712	31.1966
3.2588	30.1217
3.2466	29.1088
3.2345	28.0605
3.2224	27.1093
3.2104	26.086
3.1985	25.101
3.1867	24.2922
3.175	23.5051
3.1634	22.6726
3.1519	21.9877
3.1404	21.1941
3.129	20.6768
3.1178	20.2201
3.1065	19.8081
3.0954	19.3875
3.0844	19.0429
3.0734	18.9472
3.0625	18.7262
3.0517	18.4637
3.041	18.3343
3.0303	18.2793
3.0197	17.9765
3.0092	17.9615
2.9987	17.7311
2.9884	17.7483
2.9781	17.396
2.9678	17.2017
2.9577	17.3305
2.9476	17.2986
2.9376	17.5673
2.9276	17.709
2.9177	17.798
2.9079	18.0286
2.8982	18.3197
2.8885	18.7522
2.8789	18.8813
2.8693	19.3795
2.8598	19.9836
2.8504	20.7306
2.841	21.0713
2.8317	21.8421
2.8224	22.4163
2.8133	23.2385
2.8041	23.8969
2.7951	24.6477
2.786	25.5201
2.7771	26.2848
2.7682	27.1122
2.7594	28.3744
2.7506	29.9001
2.7418	32.1418
2.7332	34.9066
2.7246	38.971
2.716	43.2667
2.7075	47.7383
2.699	51.7248
2.6906	56.1927
2.6823	59.2185
2.674	60.9421
2.6657	62.7982
2.6575	63.5891
2.6494	64.4126
2.6413	64.9972
2.6332	65.627
2.6252	65.948
2.6173	66.4688
2.6094	66.5729
2.6015	66.9251
2.5937	67.4616
2.5859	67.2865
2.5782	67.415
2.5706	67.4636
2.5629	67.4815
2.5554	67.3129
2.5478	67.0382
2.5403	66.997
2.5329	66.9223
2.5255	66.9859
2.5181	67.165
2.5108	67.3378
2.5035	67.3433
2.4963	67.5227
2.4891	67.5676
2.482	67.7433
2.4749	68.0102
2.4678	68.2891
2.4608	68.4929
2.4538	68.7407
2.4468	68.9564
2.4399	68.9842
2.4331	69.4023
2.4262	69.5906
2.4194	70.0046
2.4127	70.4261
2.4059	70.5381
2.3993	70.8091
2.3926	70.8813
2.386	71.122
2.3795	71.2789
2.3729	71.3397
2.3664	71.4026
2.36	71.3792
2.3535	71.2438
2.3471	71.245
2.3408	71.2627
2.3345	71.8928
2.3282	72.0085
2.3219	72.5234
2.3157	72.5071
2.3095	72.6379
2.3034	72.9351
2.2972	73.1996
2.2911	73.4246
2.2851	73.6884
2.279	73.8682
2.2731	73.9871
2.2671	74.2742
2.2612	74.2004
2.2553	74.2004
2.2494	74.0838
2.2435	74.2804
2.2377	74.186
2.232	74.0347
2.2262	73.9496
2.2205	73.6483
2.2148	73.4272
2.2091	72.8663
2.2035	72.6882
2.1979	72.8132
2.1923	73.0426
2.1868	73.4856
2.1812	73.9899
2.1758	74.6008
2.1703	74.8259
2.1649	75.137
2.1595	75.4482
2.1541	75.3736
2.1487	75.3215
2.1434	75.5234
2.1381	75.1367
2.1328	75.3358
2.1275	75.2711
2.1223	75.3506
2.1171	75.2768
2.112	75.3134
2.1068	75.1831
2.1017	75.3091
2.0966	75.0474
2.0915	75.1472
2.0865	75.4744
2.0814	75.0682
2.0764	75.297
2.0715	74.5159
2.0665	75.3716
2.0616	74.5789
2.0567	74.6573
2.0518	74.9716
2.0469	74.4106
2.0421	74.4029
2.0373	74.367
2.0325	74.1251
2.0277	73.957
2.0229	73.8861
2.0182	73.6451
2.0135	73.477
2.0088	73.2486
2.0042	73.0343
