Name: Cerussite PbCO_3
Type: Mineral
Class: Carbonate
Subclass: None
Particle Size: Medium
Sample No.: C-10A
Owner: JPL
Wavelength Range: VSWIR
Origin: USA, Arizona, Flux Mine
Description: Particle size was 45-125um.Collected by JPL Original ASTER Spectral Library name was jpl.beckman.mineral.carbonate.none.medium.c10a.spectrum.txt
Measurement: Hemispherical reflectance
X Units: Wavelength (micrometers)
Y Units: Reflectance (percent)
wavelength	value
0.4	78.59
0.403	78.95
0.406	79.16
0.409	79.34
0.412	79.5
0.415	79.65
0.418	79.94
0.421	80.01
0.424	80.16
0.427	80.43
0.43	80.72
0.433	80.81
0.436	80.98
0.439	81.18
0.442	81.27
0.445	81.57
0.448	81.64
0.451	81.7
0.454	81.86
0.457	81.96
0.46	82.16
0.463	82.22
0.466	82.35
0.469	82.51
0.472	82.74
0.475	82.72
0.478	82.8
0.481	83.04
0.484	83.16
0.487	83.15
0.49	83.31
0.493	83.44
0.496	83.45
0.499	83.66
0.502	83.85
0.505	83.99
0.508	84.09
0.511	84.25
0.514	84.43
0.517	84.68
0.52	84.62
0.523	84.79
0.526	85
0.529	85.13
0.532	85.28
0.535	85.23
0.538	85.39
0.541	85.53
0.544	85.62
0.547	85.74
0.55	85.95
0.553	85.96
0.556	86.11
0.559	86.15
0.562	86.69
0.565	86.5
0.568	86.49
0.571	86.32
0.574	86.13
0.577	86.15
0.58	85.9
0.583	86.2
0.586	86.38
0.589	86.81
0.592	86.92
0.595	87.03
0.598	87.12
0.601	87.3
0.604	87.35
0.607	87.48
0.61	87.5
0.613	87.51
0.616	87.63
0.619	87.49
0.622	87.62
0.625	87.56
0.628	87.63
0.631	87.67
0.634	87.69
0.637	87.79
0.64	87.69
0.643	87.78
0.646	87.86
0.649	87.8
0.652	87.93
0.655	87.96
0.658	87.95
0.661	87.92
0.664	88.03
0.667	88.03
0.67	87.96
0.673	87.98
0.676	87.97
0.679	88.09
0.682	88.14
0.685	88.05
0.688	88.11
0.691	88.17
0.694	88.25
0.697	88.32
0.7	88.19
0.703	88.27
0.706	88.29
0.709	88.29
0.712	88.26
0.715	88.34
0.718	88.38
0.721	88.34
0.724	88.44
0.727	88.28
0.73	88.29
0.733	88.14
0.736	88.39
0.739	88.4
0.742	88.33
0.745	88.56
0.748	88.45
0.751	88.51
0.754	88.62
0.757	88.56
0.76	88.63
0.763	88.63
0.766	88.63
0.769	88.63
0.772	88.68
0.775	88.68
0.778	88.68
0.781	88.69
0.784	88.69
0.787	88.69
0.79	88.8
0.793	88.58
0.796	88.63
0.799	88.76
0.808	88.82
0.82	88.94
0.832	89.04
0.844	89.09
0.856	89.21
0.868	89.27
0.88	89.27
0.892	89.38
0.904	89.38
0.916	89.39
0.928	89.5
0.94	89.55
0.952	89.67
0.964	89.67
0.976	89.61
0.988	89.68
1	89.62
1.012	89.74
1.024	89.86
1.036	89.92
1.048	89.85
1.06	89.75
1.072	89.88
1.084	89.98
1.096	89.95
1.108	89.97
1.12	90.05
1.132	90.05
1.144	90.07
1.156	90
1.168	90.03
1.18	90.1
1.192	89.91
1.204	89.97
1.216	89.9
1.228	89.92
1.24	89.96
1.252	89.98
1.264	89.94
1.276	90
1.288	90.09
1.3	89.97
1.312	89.9
1.324	89.86
1.336	89.85
1.348	89.83
1.36	89.78
1.372	89.6
1.384	89.35
1.396	88.89
1.408	88.49
1.42	88.19
1.432	88.06
1.444	88.01
1.456	88.03
1.468	88.17
1.48	88.39
1.492	88.53
1.504	88.8
1.516	88.99
1.528	88.97
1.54	89.11
1.552	89.24
1.564	89.39
1.576	89.57
1.588	89.52
1.6	89.63
1.612	89.55
1.624	89.51
1.636	89.57
1.648	89.5
1.66	89.65
1.672	89.68
1.684	89.76
1.696	89.76
1.708	89.69
1.72	89.61
1.732	89.57
1.744	89.41
1.756	89.17
1.768	89.1
1.78	88.99
1.792	88.88
1.804	88.86
1.816	88.71
1.828	88.69
1.84	88.62
1.852	88.4
1.864	88
1.876	86.97
1.888	85.35
1.9	83.63
1.912	82.43
1.924	81.9
1.936	81.57
1.948	81.73
1.96	81.95
1.972	82.44
1.984	83.33
1.996	84.21
2.008	84.88
2.02	85.34
2.032	85.45
2.044	85.33
2.056	85.18
2.068	84.84
2.08	84.69
2.092	85.52
2.104	86.7
2.116	87.46
2.128	87.86
2.14	88.09
2.152	88.11
2.164	87.92
2.176	87.6
2.188	87.08
2.2	86.62
2.212	85.83
2.224	84.99
2.236	84.18
2.248	83.8
2.26	83.69
2.272	83.66
2.284	83.13
2.296	82.37
2.308	81.13
2.32	79.9
2.332	78.69
2.344	77.18
2.356	75.76
2.368	74.06
2.38	72.51
2.392	70.9
2.404	69.34
2.416	67.92
2.428	66.88
2.44	66.06
2.452	65.43
2.464	65.3
2.476	66.12
2.488	67.81
2.5	69.69
