Name: Lepidolite K(Li,Al)3(Si,Al)_4O_10(F,OH)_2
Type: Mineral
Class: Silicate
Subclass: Phyllosilicate
Particle Size: Coarse
Sample No.: PS-13B
Owner: JPL
Wavelength Range: TIR
Origin: South Africa
Description: Lavender lepidolite.Particle size was 125-500um.Collected by Ward's Original ASTER Spectral Library name was jpl.nicolet.mineral.silicate.phyllosilicate.coarse.ps13b.spectrum.txt
Measurement: Hemispherical reflectance
X Units: Wavelength (micrometers)
Y Units: Reflectance (percent)
wavelength	value
15.3853	1.0667
15.1161	1.0935
14.8563	1.2398
14.6052	1.4984
14.3624	1.6529
14.1276	1.7301
13.9004	2.3013
13.6803	2.6142
13.4671	2.2475
13.2604	2.3602
13.06	2.2624
12.8656	2.4499
12.6769	2.5063
12.4936	2.5993
12.3155	2.6125
12.1425	2.9636
11.9742	3.2795
11.8106	3.499
11.6513	3.7425
11.4963	4.2307
11.3454	4.4979
11.1983	4.9889
11.0551	5.5923
10.9154	6.0804
10.7793	6.3484
10.6465	6.8438
10.5169	7.9732
10.3904	10.1641
10.267	10.8848
10.1464	12.5893
10.0287	15.333
9.9136	16.6534
9.8012	18.3189
9.6913	21.2162
9.5838	24.0159
9.4787	20.1953
9.3758	19.3353
9.2752	19.5932
9.1767	18.198
9.0803	18.6906
8.9858	18.4714
8.8934	16.4015
8.8028	12.9925
8.714	9.749
8.627	6.2472
8.5417	4.3586
8.4581	3.2217
8.3761	2.4643
8.2957	1.9301
8.2169	1.5485
8.1395	1.2103
8.0635	0.8233
7.989	0.6655
7.9158	0.7752
7.8439	0.6969
7.7734	0.66
7.7041	0.9315
7.636	0.9842
7.5691	0.9899
7.5034	1.269
7.4388	1.4001
7.3753	1.493
7.3129	1.6813
7.2515	1.8943
7.1912	1.9225
7.1318	2.2346
7.0734	2.3529
7.016	2.5292
6.9595	2.6736
6.9039	3.1178
6.8492	3.2945
6.7953	3.3949
6.7423	3.7221
6.6901	3.9588
6.6387	4.2074
6.5881	4.2635
6.5382	4.3032
6.4892	4.8926
6.4408	4.7236
6.3931	4.7923
6.3462	4.9265
6.2999	4.9521
6.2543	4.905
6.2094	4.9587
6.1651	4.7218
6.1214	4.744
6.0784	4.4769
6.0359	4.1736
5.994	3.9024
5.9527	3.8039
5.912	3.7615
5.8718	3.9379
5.8322	3.9259
5.7931	4.0888
5.7545	3.8941
5.7165	3.9263
5.6789	3.6355
5.6418	3.691
5.6052	3.665
5.5691	3.739
5.5334	3.8207
5.4982	3.9667
5.4635	3.9612
5.4291	4.1722
5.3952	4.2373
5.3618	4.3832
5.3287	4.6656
5.2961	5.2283
5.2638	5.863
5.2319	6.7686
5.2004	7.9111
5.1693	9.3384
5.1386	10.8172
5.1082	11.949
5.0782	12.3816
5.0485	12.4995
5.0192	12.6479
4.9902	12.7159
4.9616	12.7411
4.9332	12.6029
4.9052	12.7416
4.8776	13.2276
4.8502	13.6484
4.8231	14.018
4.7963	14.2871
4.7699	14.8616
4.7437	15.783
4.7178	16.8142
4.6922	17.8706
4.6668	19.311
4.6418	21.1486
4.617	23.1132
4.5924	24.802
4.5681	26.5935
4.5441	28.6505
4.5203	30.7209
4.4968	32.8029
4.4735	35.0614
4.4505	37.8052
4.4277	40.9597
4.4051	44.0139
4.3828	46.976
4.3607	49.2333
4.3388	50.9409
4.3171	51.8731
4.2956	51.8296
4.2744	51.4214
4.2534	52.278
4.2325	53.8203
4.2119	55.3934
4.1915	56.2448
4.1712	56.8191
4.1512	57.3042
4.1313	57.6993
4.1117	58.125
4.0922	58.4722
4.0729	58.5766
4.0538	58.7545
4.0349	58.7963
4.0161	58.7355
3.9976	58.9388
3.9792	59.0946
3.9609	59.4206
3.9428	59.997
3.9249	60.4555
3.9072	60.9275
3.8896	61.395
3.8722	61.8801
3.8549	62.4393
3.8378	62.7821
3.8208	63.3245
3.804	63.484
3.7873	63.432
3.7708	62.9425
3.7544	61.7433
3.7382	59.4121
3.7221	58.5293
3.7061	58.3366
3.6903	59.0214
3.6746	59.4828
3.659	59.7233
3.6436	60.0797
3.6283	60.7476
3.6131	61.654
3.5981	62.1689
3.5832	62.1864
3.5684	61.8832
3.5537	61.5532
3.5391	61.1865
3.5247	60.7466
3.5104	60.3592
3.4962	60.2255
3.4821	60.1313
3.4681	60.2046
3.4543	60.1106
3.4405	59.6456
3.4269	58.9439
3.4133	57.8177
3.3999	57.3087
3.3866	56.7287
3.3733	56.0886
3.3602	55.3176
3.3472	54.7423
3.3343	53.9068
3.3215	53.4564
3.3088	53.0921
3.2961	52.7676
3.2836	52.3498
3.2712	51.9383
3.2588	51.4275
3.2466	50.9378
3.2345	50.3544
3.2224	49.1286
3.2104	48.1892
3.1985	47.2659
3.1867	46.3158
3.175	45.4289
3.1634	44.731
3.1519	43.988
3.1404	43.1461
3.129	42.6353
3.1178	41.5462
3.1065	40.864
3.0954	40.2442
3.0844	39.5404
3.0734	39.0539
3.0625	38.6246
3.0517	38.0591
3.041	37.705
3.0303	37.2504
3.0197	37.2724
3.0092	37.2471
2.9987	37.1619
2.9884	37.145
2.9781	36.5545
2.9678	35.8469
2.9577	35.0837
2.9476	34.0733
2.9376	32.6963
2.9276	31.3222
2.9177	29.7525
2.9079	28.1499
2.8982	26.9987
2.8885	26.6176
2.8789	26.5637
2.8693	26.5675
2.8598	26.454
2.8504	25.2829
2.841	23.0764
2.8317	20.966
2.8224	18.9608
2.8133	16.7225
2.8041	13.1874
2.7951	9.9292
2.786	6.8209
2.7771	4.4733
2.7682	3.1365
2.7594	2.6172
2.7506	2.3654
2.7418	2.3735
2.7332	2.5715
2.7246	2.9551
2.716	5.4219
2.7075	8.6958
2.699	12.0815
2.6906	23.7083
2.6823	26.8706
2.674	29.0385
2.6657	31.8651
2.6575	33.3459
2.6494	34.9147
2.6413	35.3341
2.6332	35.411
2.6252	35.2295
2.6173	35.3821
2.6094	35.3589
2.6015	36.2312
2.5937	38.3125
2.5859	39.03
2.5782	39.1378
2.5706	39.5135
2.5629	40.3892
2.5554	40.8776
2.5478	41.5848
2.5403	41.9032
2.5329	41.7675
2.5255	41.0205
2.5181	40.0644
2.5108	38.7455
2.5035	37.5004
2.4963	36.6718
2.4891	35.9584
2.482	35.5981
2.4749	34.9776
2.4678	34.2954
2.4608	33.3403
2.4538	32.4805
2.4468	31.6831
2.4399	31.2852
2.4331	31.4298
2.4262	32.678
2.4194	34.4576
2.4127	36.2783
2.4059	38.3224
2.3993	40.0323
2.3926	40.4044
2.386	40.2767
2.3795	40.4841
2.3729	40.4269
2.3664	40.1211
2.36	39.2319
2.3535	37.8793
2.3471	37.3292
2.3408	38.5255
2.3345	40.4389
2.3282	43.1556
2.3219	46.2662
2.3157	49.2921
2.3095	51.9465
2.3034	54.9088
2.2972	56.9628
2.2911	58.6813
2.2851	59.5351
2.279	60.2454
2.2731	60.8388
2.2671	60.9597
2.2612	60.8446
2.2553	60.4929
2.2494	60.0787
2.2435	59.5232
2.2377	58.942
2.232	57.3771
2.2262	55.1882
2.2205	50.9623
2.2148	44.3997
2.2091	36.7114
2.2035	31.1881
2.1979	28.7491
2.1923	29.418
2.1868	33.9284
2.1812	40.2735
2.1758	47.5956
2.1703	54.4432
2.1649	58.82
2.1595	62.0578
2.1541	64.55
2.1487	66.3147
2.1434	67.7141
2.1381	68.5614
2.1328	68.9919
2.1275	68.5097
2.1223	68.2288
2.1171	68.2513
2.112	69.21
2.1068	70.3713
2.1017	71.3479
2.0966	72.7562
2.0915	74.2091
2.0865	75.5592
2.0814	76.6468
2.0764	77.1501
2.0715	78.1199
2.0665	78.6074
2.0616	79.3823
2.0567	79.5145
2.0518	79.2943
2.0469	79.552
2.0421	79.5426
2.0373	79.9897
2.0325	79.978
2.0277	80.3946
2.0229	80.2058
2.0182	80.413
2.0135	80.5285
2.0088	80.5577
2.0042	80.4356
