Name: Glauberite Na_2Ca(SO_4)_2
Type: Mineral
Class: Sulfate
Subclass: None
Particle Size: Fine
Sample No.: SO-8A
Owner: JPL
Wavelength Range: VSWIR
Origin: USA, Arizona, Yavapai County, Campe Verde.
Description: Particle size was 0-45um. Collected b:  Burminco Original ASTER Spectral Library name was jpl.perkin.mineral.sulfate.none.fine.so08a.spectrum.txt
Measurement: Hemispherical reflectance
X Units: Wavelength (micrometers)
Y Units: Reflectance (percent)
wavelength	value
2.5	94.8856
2.494	94.9249
2.488	94.871
2.482	94.9885
2.476	94.941
2.47	94.9762
2.464	95.144
2.458	95.0385
2.452	95.0723
2.446	95.1053
2.44	95.1062
2.434	95.2489
2.428	95.2777
2.422	95.2643
2.416	95.3683
2.41	95.4719
2.404	95.4985
2.398	95.4957
2.392	95.5093
2.386	95.5104
2.38	95.5587
2.374	95.6269
2.368	95.5757
2.362	95.6366
2.356	95.6443
2.35	95.6118
2.344	95.5908
2.338	95.5532
2.332	95.5323
2.326	95.4015
2.32	95.3311
2.314	95.2341
2.308	95.1437
2.302	95.1253
2.296	95.1248
2.29	95.1402
2.284	95.1704
2.278	95.1474
2.272	95.2411
2.266	95.1032
2.26	95.1314
2.254	95.06
2.248	94.9348
2.242	94.9789
2.236	94.9942
2.23	94.9694
2.224	94.9614
2.218	94.9772
2.212	95.0621
2.206	95.0124
2.2	95.0898
2.194	95.2324
2.188	95.3254
2.182	95.6077
2.176	95.6921
2.17	95.8908
2.164	96.0102
2.158	96.1953
2.152	96.3164
2.146	96.4478
2.14	96.4283
2.134	96.4372
2.128	96.4171
2.122	96.3447
2.116	96.2191
2.11	96.1581
2.104	96.0747
2.098	95.9559
2.092	95.9688
2.086	95.8808
2.08	95.8208
2.074	95.8064
2.068	95.6779
2.062	95.6392
2.056	95.6164
2.05	95.5067
2.044	95.4544
2.038	95.367
2.032	95.2672
2.026	95.1544
2.02	95.0005
2.014	94.9067
2.008	94.7754
2.002	94.6413
1.996	94.4788
1.99	94.3504
1.984	94.1535
1.978	94.0728
1.972	93.9639
1.966	93.8101
1.96	93.7192
1.954	93.5886
1.948	93.567
1.942	93.3858
1.936	93.4451
1.93	93.4894
1.924	93.5391
1.918	93.5589
1.912	93.5708
1.906	93.6744
1.9	93.8974
1.894	94.2075
1.888	94.3351
1.882	94.5155
1.876	94.5779
1.87	94.6137
1.864	94.6786
1.858	94.7006
1.852	94.6824
1.846	94.6569
1.84	94.6442
1.834	94.662
1.828	94.6399
1.822	94.518
1.816	94.5855
1.81	94.5567
1.804	94.5534
1.798	94.4844
1.792	94.5112
1.786	94.482
1.78	94.4489
1.774	94.4588
1.768	94.4629
1.762	94.4605
1.756	94.4792
1.75	94.4947
1.744	94.528
1.738	94.4849
1.732	94.5062
1.726	94.5422
1.72	94.5206
1.714	94.5463
1.708	94.5146
1.702	94.4929
1.696	94.4855
1.69	94.4795
1.684	94.4096
1.678	94.4178
1.672	94.3662
1.666	94.3736
1.66	94.456
1.654	94.3794
1.648	94.3474
1.642	94.3526
1.636	94.3202
1.63	94.3296
1.624	94.3356
1.618	94.3269
1.612	94.2942
1.606	94.2821
1.6	94.2583
1.594	94.29
1.588	94.1834
1.582	94.236
1.576	94.2232
1.57	94.1691
1.564	94.1985
1.558	94.1593
1.552	94.1443
1.546	94.1196
1.54	94.0955
1.534	94.04
1.528	94.0917
1.522	94.0187
1.516	93.9907
1.51	94.042
1.504	93.9737
1.498	93.9812
1.492	93.9501
1.486	93.9932
1.48	93.9131
1.474	93.8516
1.468	93.8753
1.462	93.8039
1.456	93.8286
1.45	93.7719
1.444	93.7815
1.438	93.7277
1.432	93.7213
1.426	93.6487
1.42	93.6369
1.414	93.6262
1.408	93.5964
1.402	93.8222
1.396	93.7842
1.39	93.738
1.384	93.7519
1.378	93.8191
1.372	93.834
1.366	93.8073
1.36	93.8118
1.354	93.7821
1.348	93.773
1.342	93.7564
1.336	93.6813
1.33	93.7604
1.324	93.7747
1.318	93.7104
1.312	93.6891
1.306	93.6675
1.3	93.6486
1.294	93.6243
1.288	93.6352
1.282	93.5788
1.276	93.5678
1.27	93.5112
1.264	93.4783
1.258	93.4361
1.252	93.4772
1.246	93.4372
1.24	93.4485
1.234	93.4353
1.228	93.4162
1.222	93.3916
1.216	93.3148
1.21	93.292
1.204	93.2845
1.198	93.2249
1.192	93.2396
1.186	93.1752
1.18	93.2263
1.174	93.1576
1.168	93.1765
1.162	93.1718
1.156	93.1193
1.15	93.034
1.144	93.0667
1.138	93.0359
1.132	93.006
1.126	93.0241
1.12	92.9414
1.114	93.0395
1.108	92.9457
1.102	92.9429
1.096	92.9158
1.09	92.8619
1.084	92.864
1.078	92.8714
1.072	92.8081
1.066	92.848
1.06	92.7515
1.054	92.8102
1.048	92.7714
1.042	92.7628
1.036	92.6973
1.03	92.7337
1.024	92.6803
1.018	92.7322
1.012	92.6803
1.006	92.7211
1	92.6562
0.994	92.6258
0.988	92.5742
0.982	92.5986
0.976	92.6009
0.97	92.5524
0.964	92.5275
0.958	92.5703
0.952	92.4862
0.946	92.458
0.94	92.4834
0.934	92.4502
0.928	92.4272
0.922	92.4102
0.916	92.403
0.91	92.4006
0.904	92.3597
0.898	92.3517
0.892	92.3337
0.886	92.3529
0.88	92.321
0.874	92.3134
0.868	92.2652
0.862	92.3057
0.856	92.3371
0.85	92.2769
0.844	92.2594
0.838	92.2764
0.832	92.2726
0.826	92.2511
0.82	92.2294
0.814	92.2478
0.808	92.1908
0.802	92.1677
0.796	92.1239
0.79	92.1027
0.784	92.053
0.778	92.0033
0.772	91.9566
0.766	91.9191
0.76	91.8616
0.754	91.8175
0.748	91.755
0.742	91.7176
0.736	91.6678
0.73	91.6171
0.724	91.5611
0.718	91.5132
0.712	91.4891
0.706	91.4379
0.7	91.3926
0.694	91.3553
0.688	91.313
0.682	91.2794
0.676	91.2425
0.67	91.2117
0.664	91.1802
0.658	91.1476
0.652	91.1261
0.646	91.0825
0.64	91.043
0.634	91.0048
0.628	90.9655
0.622	90.9281
0.616	90.8923
0.61	90.8464
0.604	90.7987
0.598	90.7463
0.592	90.6904
0.586	90.6308
0.58	90.559
0.574	90.4704
0.568	90.3712
0.562	90.2575
0.556	90.1201
0.55	89.9607
0.544	89.7971
0.538	89.6176
0.532	89.4201
0.526	89.2172
0.52	88.9903
0.514	88.7569
0.508	88.4945
0.502	88.2416
0.496	87.9815
0.49	87.7406
0.484	87.5168
0.478	87.3179
0.472	87.1232
0.466	86.9656
0.46	86.7673
0.454	86.5616
0.448	86.2582
0.442	85.9235
0.436	85.5248
0.43	85.0551
0.424	84.6107
0.418	84.2097
0.412	83.7947
0.406	83.3999
0.4	82.9667
