Name: Monticellite CaMgSiO4
Type: Mineral
Class: Silicate
Subclass: Nesosilicate
Particle Size: Solid
Sample No.: monticell_1
Owner: JHU
Wavelength Range: TIR
Origin: Magnet Cove, Arkansas via the Smithsonian (NMNH 79051-1)
Description: The sample was composed of one large fragment and two smaller ones, all from the same crystal.  The large fragment was 1 cm in diameter and 2.5 cm long, with the other pieces half as large.  Total weight was 7.5 g.  The sample was tan in color, with abundant (10-20%) calcite. Petrographic examination showed minor (<1%) alteration to green antigorite and a few opaque grains. (Isolated tetrahedra); (OlivineGroup) Original ASTER Spectral Library name was jhu.nicolet.mineral.silicate.nesosilicate.solid.montic1.spectrum.txt
Measurement: Bidirectional reflectance
X Units: Wavelength (micrometers)
Y Units: Reflectance (percent)
wavelength	value
25.0442	17.2793
24.3388	13.4243
23.6719	17.2993
23.0407	21.1069
22.4422	19.4328
21.8741	11.4941
21.334	11.9738
20.8199	16.3176
20.33	17.8566
19.8627	16.4663
19.4163	17.9016
18.9896	18.8208
18.5812	17.4262
18.19	15.0844
17.815	10.9126
17.4551	8.4529
17.1094	9.4995
16.7772	13.2094
16.4576	16.8754
16.15	15.8745
15.8537	10.623
15.568	4.6665
15.2925	3.7851
15.0265	4.3799
14.7697	4.8779
14.5214	5.3003
14.2814	5.6252
14.0492	5.9431
13.8244	6.2019
13.6067	6.4502
13.3957	6.7353
13.1912	7.0139
12.9929	7.3281
12.8004	7.6033
12.6135	7.9826
12.432	8.4123
12.2557	9.1018
12.0843	10.5959
11.9176	9.3279
11.7555	10.7456
11.5977	13.0974
11.444	19.7868
11.2944	24.5158
11.1487	27.1384
11.0067	31.3725
10.8682	36.3991
10.7332	38.59
10.6015	35.1098
10.473	23.5234
10.3476	29.8344
10.2251	23.277
10.1056	21.7534
9.9887	21.0436
9.8746	21.0615
9.763	19.9201
9.6539	20.0971
9.5472	19.302
9.4429	16.3481
9.3408	11.2004
9.2409	6.022
9.1431	3.0203
9.0474	2.1328
8.9536	2.4629
8.8618	2.668
8.7718	2.852
8.6837	3.0251
8.5973	3.1719
8.5126	3.2839
8.4295	3.4155
8.3481	3.5102
8.2682	3.5928
8.1898	3.6875
8.1129	3.749
8.0374	3.8115
7.9634	3.8672
7.8906	3.9492
7.8192	4.0166
7.7491	4.0967
7.6802	4.1589
7.6126	4.2197
7.5461	4.2759
7.4807	4.3249
7.4165	4.3704
7.3534	4.4184
7.2914	4.4382
7.2303	4.4829
7.1703	4.54
7.1113	4.5935
7.0533	4.6272
6.9962	4.6504
6.94	4.6643
6.8847	4.6709
6.8302	4.6858
6.7767	4.6887
6.7239	4.6797
6.672	4.6662
6.6209	4.6738
6.5705	4.6582
6.5209	4.6709
6.4721	4.6797
6.424	4.6597
6.3766	4.6924
6.3299	4.7236
6.2838	4.7314
6.2385	4.7353
6.1937	4.7141
6.1496	4.7041
6.1062	4.677
6.0633	4.6802
6.0211	4.6648
5.9794	4.6587
5.9383	4.6147
5.8978	4.6191
5.8578	4.6225
5.8184	4.5942
5.7794	4.6265
5.741	4.6775
5.7031	4.6641
5.6657	4.6428
5.6288	4.6321
5.5924	4.6326
5.5564	4.6216
5.5209	4.6279
5.4859	4.6218
5.4513	4.6391
5.4171	4.6333
5.3833	4.6348
5.35	4.6326
5.3171	4.6465
5.2846	4.6457
5.2524	4.6597
5.2207	4.6614
5.1893	4.6877
5.1584	4.7121
5.1277	4.7236
5.0975	4.7314
5.0676	4.7253
5.038	4.7234
5.0088	4.7168
4.98	4.7161
4.9514	4.7475
4.9232	4.7927
4.8953	4.8159
4.8678	4.8442
4.8405	4.8567
4.8135	4.8655
4.7868	4.8774
4.7605	4.8813
4.7344	4.8896
4.7086	4.8801
4.6831	4.8879
4.6578	4.8882
4.6328	4.907
4.6081	4.9133
4.5837	4.9238
4.5595	4.937
4.5356	4.9397
4.5119	4.9397
4.4884	4.9448
4.4652	4.949
4.4423	4.9502
4.4196	4.9463
4.3971	4.9607
4.3748	4.956
4.3528	4.9612
4.331	4.948
4.3094	4.9355
4.288	4.9385
4.2668	4.9504
4.2458	4.9419
4.2251	4.9375
4.2045	4.9358
4.1841	4.9348
4.164	4.9326
4.144	4.9448
4.1242	4.9397
4.1046	4.9092
4.0852	4.8935
4.066	4.8591
4.047	4.8415
4.0281	4.845
4.0094	4.8308
3.9909	4.8125
3.9725	4.8159
3.9544	4.8196
3.9363	4.7986
3.9185	4.7891
3.9008	4.7866
3.8833	4.7883
3.8659	4.7903
3.8487	4.7881
3.8316	4.7768
3.8147	4.7737
3.7979	4.7732
3.7813	4.7742
3.7648	4.7693
3.7485	4.7737
3.7323	4.7727
3.7162	4.7722
3.7003	4.7515
3.6845	4.7505
3.6689	4.7436
3.6534	4.7358
3.638	4.7219
3.6227	4.7124
3.6076	4.7019
3.5926	4.6894
3.5777	4.6758
3.563	4.6794
3.5484	4.6557
3.5338	4.6348
3.5195	4.615
3.5052	4.5784
3.491	4.6404
3.477	4.6079
3.463	4.6103
3.4492	4.5793
3.4355	4.5766
3.4219	4.552
3.4084	4.5935
3.395	4.5996
3.3817	4.5893
3.3685	4.6457
3.3554	4.6301
3.3425	4.625
3.3296	4.5972
3.3168	4.5845
3.3041	4.5813
3.2915	4.5701
3.279	4.5622
3.2666	4.5515
3.2543	4.5215
3.2421	4.5127
3.23	4.5037
3.218	4.4741
3.206	4.4648
3.1942	4.4697
3.1824	4.4585
3.1707	4.4311
3.1591	4.4267
3.1476	4.4248
3.1362	4.4036
3.1249	4.3838
3.1136	4.3791
3.1024	4.3586
3.0913	4.3516
3.0803	4.324
3.0694	4.3247
3.0585	4.3093
3.0477	4.2964
3.037	4.272
3.0264	4.2649
3.0158	4.2554
3.0053	4.2285
2.9949	4.2187
2.9845	4.2183
2.9743	4.1848
2.9641	4.1675
2.9539	4.1435
2.9439	4.1472
2.9339	4.124
2.9239	4.1006
2.9141	4.0918
2.9043	4.0791
2.8946	4.0688
2.8849	4.0508
2.8753	4.0259
2.8658	4.0088
2.8563	4.0117
2.8469	3.9809
2.8375	3.9487
2.8282	3.9106
2.819	3.8638
2.8098	3.833
2.8007	3.7974
2.7917	3.9009
2.7827	3.8845
2.7738	3.8994
2.7649	3.8823
2.7561	3.8572
2.7473	3.8713
2.7386	3.8838
2.7299	3.8691
2.7213	3.8603
2.7128	3.8501
2.7043	3.8476
2.6959	3.8965
2.6875	3.9101
2.6791	3.9145
2.6709	3.8821
2.6626	3.8772
2.6545	3.8743
2.6463	3.8401
2.6382	3.8381
2.6302	3.7922
2.6222	3.7944
2.6143	3.8061
2.6064	3.7583
2.5986	3.7397
2.5908	3.7121
2.583	3.7275
2.5753	3.7017
2.5677	3.6479
2.5601	3.6782
2.5525	3.6633
2.545	3.6318
2.5375	3.603
2.5301	3.6008
2.5227	3.5688
2.5154	3.5637
2.5081	3.5615
2.5008	3.5539
2.4936	3.508
2.4864	3.4966
2.4793	3.4954
2.4722	3.4468
2.4651	3.4404
2.4581	3.4473
2.4511	3.4316
2.4442	3.4036
2.4373	3.4014
2.4305	3.374
2.4236	3.387
2.4169	3.3782
2.4101	3.3791
2.4034	3.3428
2.3967	3.3518
2.3901	3.3296
2.3835	3.3501
2.377	3.3179
2.3704	3.3398
2.364	3.2866
2.3575	3.3144
2.3511	3.2441
2.3447	3.3091
2.3384	3.2861
2.3321	3.2939
2.3258	3.2964
2.3195	3.3008
2.3133	3.2837
2.3071	3.2309
2.301	3.2871
2.2949	3.2695
2.2888	3.2622
2.2828	3.3125
2.2767	3.2934
2.2708	3.2847
2.2648	3.2969
2.2589	3.335
2.253	3.3013
2.2471	3.3618
2.2413	3.3828
2.2355	3.3779
2.2297	3.3735
2.224	3.3613
2.2183	3.3794
2.2126	3.4043
2.207	3.4048
2.2013	3.416
2.1957	3.4145
2.1902	3.4072
2.1846	3.3716
2.1791	3.3975
2.1736	3.3911
2.1682	3.397
2.1628	3.4297
2.1574	3.4307
2.152	3.416
2.1466	3.4248
2.1413	3.373
2.136	3.438
2.1308	3.4809
2.1255	3.4316
2.1203	3.4307
2.1151	3.459
2.11	3.4922
2.1048	3.4785
2.0997	3.4184
2.0946	3.5
2.0895	3.4653
2.0845	3.5019
2.0795	3.5117
