Name: Wollastonite CaSiO_3
Type: Mineral
Class: Silicate
Subclass: Inosilicate
Particle Size: Medium
Sample No.: IN-2A
Owner: JPL
Wavelength Range: TIR
Origin: USA, California, Inyo County, Panamint Mountains
Description: Particle size was 45-125um.Collected by Burminco Original ASTER Spectral Library name was jpl.nicolet.mineral.silicate.inosilicate.medium.in02a.spectrum.txt
Measurement: Hemispherical reflectance
X Units: Wavelength (micrometers)
Y Units: Reflectance (percent)
wavelength	value
15.3853	4.3716
15.1161	2.213
14.8563	3.1553
14.6052	3.4838
14.3624	2.7223
14.1276	5.3075
13.9004	6.9489
13.6803	8.5913
13.4671	9.4294
13.2604	9.9984
13.06	10.1357
12.8656	10.2148
12.6769	10.0195
12.4936	9.9218
12.3155	9.5716
12.1425	9.0411
11.9742	8.8319
11.8106	8.5024
11.6513	8.2751
11.4963	8.2252
11.3454	8.8452
11.1983	11.4585
11.0551	16.5426
10.9154	15.3222
10.7793	17.8623
10.6465	19.165
10.5169	21.1976
10.3904	23.4027
10.267	23.4159
10.1464	15.8723
10.0287	13.9524
9.9136	12.1025
9.8012	11.1533
9.6913	12.0985
9.5838	7.9588
9.4787	14.1868
9.3758	24.6502
9.2752	24.684
9.1767	14.5185
9.0803	10.3297
8.9858	10.7011
8.8934	11.826
8.8028	9.5362
8.714	4.12
8.627	2.177
8.5417	1.9622
8.4581	2.1597
8.3761	2.3828
8.2957	2.935
8.2169	3.2064
8.1395	3.8043
8.0635	4.1338
7.989	4.6626
7.9158	4.9187
7.8439	5.6916
7.7734	6.5512
7.7041	7.2598
7.636	7.6975
7.5691	8.115
7.5034	8.6888
7.4388	9.6111
7.3753	10.9179
7.3129	12.2317
7.2515	12.9778
7.1912	13.1665
7.1318	13.0389
7.0734	12.9792
7.016	13.4411
6.9595	13.5803
6.9039	13.5351
6.8492	13.4117
6.7953	13.3148
6.7423	12.6603
6.6901	12.4527
6.6387	13.7975
6.5881	15.3052
6.5382	15.2482
6.4892	14.6132
6.4408	13.2024
6.3931	11.6428
6.3462	12.5655
6.2999	13.9457
6.2543	14.2623
6.2094	13.3933
6.1651	13.3643
6.1214	13.1444
6.0784	14.0486
6.0359	16.4411
5.994	19.3099
5.9527	20.2086
5.912	19.7726
5.8718	18.3867
5.8322	16.435
5.7931	16.1567
5.7545	17.6757
5.7165	20.4899
5.6789	25.2828
5.6418	25.898
5.6052	25.0758
5.5691	24.7647
5.5334	25.2675
5.4982	29.2944
5.4635	31.8575
5.4291	31.7858
5.3952	30.1905
5.3618	28.1934
5.3287	27.2189
5.2961	21.6642
5.2638	17.8016
5.2319	17.9368
5.2004	18.6853
5.1693	20.9581
5.1386	23.3801
5.1082	24.3862
5.0782	24.9552
5.0485	25.8564
5.0192	26.7972
4.9902	27.4916
4.9616	27.9403
4.9332	27.1572
4.9052	28.3599
4.8776	30.4002
4.8502	32.2096
4.8231	33.7462
4.7963	36.9099
4.7699	38.2562
4.7437	40.725
4.7178	44.2705
4.6922	45.693
4.6668	47.1087
4.6418	50.5241
4.617	54.0493
4.5924	56.0119
4.5681	57.0887
4.5441	60.2771
4.5203	62.8361
4.4968	63.5859
4.4735	64.0119
4.4505	64.5037
4.4277	64.9723
4.4051	65.3434
4.3828	65.9484
4.3607	66.8016
4.3388	67.3639
4.3171	67.7308
4.2956	68.0556
4.2744	68.4419
4.2534	68.7309
4.2325	68.9388
4.2119	69.3107
4.1915	69.5484
4.1712	69.8163
4.1512	69.9637
4.1313	70.1399
4.1117	70.381
4.0922	70.783
4.0729	70.8366
4.0538	70.3979
4.0349	69.1824
4.0161	67.6973
3.9976	65.3408
3.9792	64.5453
3.9609	65.1483
3.9428	66.5886
3.9249	67.3312
3.9072	67.6663
3.8896	67.7719
3.8722	67.7606
3.8549	67.7333
3.8378	67.8563
3.8208	68.5076
3.804	69.2728
3.7873	69.9539
3.7708	70.0316
3.7544	69.9306
3.7382	69.7507
3.7221	69.4039
3.7061	69.0527
3.6903	68.7008
3.6746	68.304
3.659	67.9338
3.6436	67.6978
3.6283	67.2512
3.6131	66.6703
3.5981	66.2252
3.5832	65.7772
3.5684	65.4046
3.5537	65.1277
3.5391	64.5868
3.5247	63.2843
3.5104	61.9044
3.4962	61.0919
3.4821	60.5909
3.4681	60.9724
3.4543	61.416
3.4405	61.1781
3.4269	60.8674
3.4133	60.3557
3.3999	60.2738
3.3866	60.166
3.3733	59.6782
3.3602	59.3876
3.3472	59.3507
3.3343	60.4435
3.3215	60.4968
3.3088	60.2369
3.2961	60.002
3.2836	59.8223
3.2712	59.5087
3.2588	59.1597
3.2466	58.6724
3.2345	58.1733
3.2224	57.768
3.2104	57.1771
3.1985	56.5268
3.1867	55.9615
3.175	55.3421
3.1634	54.6772
3.1519	54.0574
3.1404	53.4193
3.129	52.6377
3.1178	52.0427
3.1065	51.2736
3.0954	50.7817
3.0844	50.1243
3.0734	49.6748
3.0625	49.1411
3.0517	48.896
3.041	48.6076
3.0303	48.0671
3.0197	47.5059
3.0092	46.9982
2.9987	46.3008
2.9884	45.7533
2.9781	45.2924
2.9678	44.6663
2.9577	44.1147
2.9476	44.0078
2.9376	43.8867
2.9276	43.8955
2.9177	43.6374
2.9079	43.5488
2.8982	43.5566
2.8885	43.5155
2.8789	43.7639
2.8693	44.0034
2.8598	44.7119
2.8504	45.7179
2.841	46.7138
2.8317	47.6667
2.8224	48.6952
2.8133	49.736
2.8041	50.5323
2.7951	51.2148
2.786	52.176
2.7771	53.518
2.7682	55.0928
2.7594	57.0063
2.7506	59.3717
2.7418	62.8543
2.7332	65.722
2.7246	69.4384
2.716	71.7302
2.7075	74.1593
2.699	75.9216
2.6906	77.0526
2.6823	77.9714
2.674	78.3749
2.6657	80.2614
2.6575	80.0613
2.6494	80.4617
2.6413	80.6219
2.6332	80.8816
2.6252	80.8176
2.6173	80.9804
2.6094	80.5914
2.6015	80.6257
2.5937	81.2451
2.5859	80.6877
2.5782	80.5198
2.5706	80.6223
2.5629	80.785
2.5554	80.333
2.5478	80.4379
2.5403	79.9868
2.5329	80.066
2.5255	80.2459
2.5181	80.6726
2.5108	81.0211
2.5035	81.2409
2.4963	81.2672
2.4891	81.4287
2.482	81.4367
2.4749	81.3349
2.4678	81.597
2.4608	82.0985
2.4538	82.2423
2.4468	82.1745
2.4399	82.5668
2.4331	82.4625
2.4262	82.5144
2.4194	82.1318
2.4127	82.0856
2.4059	82.1084
2.3993	81.8439
2.3926	81.2324
2.386	81.1141
2.3795	81.2477
2.3729	81.2754
2.3664	80.4611
2.36	79.8559
2.3535	80.0378
2.3471	80.4876
2.3408	80.7175
2.3345	80.9491
2.3282	81.5049
2.3219	82.7241
2.3157	83.894
2.3095	84.0145
2.3034	84.0188
2.2972	83.7766
2.2911	83.66
2.2851	83.6679
2.279	83.6998
2.2731	83.8486
2.2671	84.1742
2.2612	84.2175
2.2553	84.2646
2.2494	84.0188
2.2435	84.1606
2.2377	83.8693
2.232	83.706
2.2262	84.0707
2.2205	84.0001
2.2148	84.365
2.2091	84.467
2.2035	84.6762
2.1979	84.8101
2.1923	84.8397
2.1868	84.9854
2.1812	84.9719
2.1758	85.0249
2.1703	85.0743
2.1649	84.9845
2.1595	85.0166
2.1541	85.0845
2.1487	85.0763
2.1434	84.997
2.1381	85.1466
2.1328	85.0658
2.1275	84.9411
2.1223	85.1328
2.1171	85.0195
2.112	85.2006
2.1068	85.0197
2.1017	84.9799
2.0966	85.1118
2.0915	85.0424
2.0865	85.1776
2.0814	84.963
2.0764	85.3142
2.0715	84.7692
2.0665	85.0792
2.0616	84.5792
2.0567	85.0091
2.0518	84.934
2.0469	84.9184
2.0421	84.7966
2.0373	84.6954
2.0325	84.694
2.0277	84.941
2.0229	84.7554
2.0182	84.73
2.0135	84.8478
2.0088	84.4066
2.0042	84.5772
