Name: Topaz Al2SiO4(F,OH)2
Type: Mineral
Class: Silicate
Subclass: Nesosilicate
Particle Size: Fine
Sample No.: topaz_1
Owner: JHU
Wavelength Range: TIR
Origin: Rhondonia, Brazil via Don Hoover, USGS
Description: The sample was a 1 cm x 1 cm x 1 cm fragment of a single crystal.  It was colorless and appeared free of fluid inclusions under the microscope (however, the presence of a CO2 band at 4.3 micrometers in the infrared reflectance spectra of particulate samples shows that fluid inclusions are present). Particle size was less than 2 Micrometers.(Isolated tetrahedra) Original ASTER Spectral Library name was jhu.nicolet.mineral.silicate.nesosilicate.powder.topaz1.spectrum.txt
Measurement: Transmittance
X Units: Wavelength (micrometers)
Y Units: Transmittance (percent)
wavelength	value
25.0442	57.0936
24.3388	68.6404
23.6719	54.871
23.0407	50.6815
22.4422	26.6562
21.8741	15.1914
21.334	28.6034
20.8199	21.1093
20.33	32.8398
19.8627	32.4277
19.4163	29.2851
18.9896	25.3105
18.5812	46.2665
18.19	62.9217
17.815	43.9823
17.4551	62.0506
17.1094	53.2626
16.7772	57.0604
16.4576	30.8847
16.15	8.5791
15.8537	11.7158
15.568	21.2539
15.2925	26.1093
15.0265	37.8251
14.7697	58.9276
14.5214	68.9344
14.2814	70.4217
14.0492	70.4451
13.8244	77.8401
13.6067	79.9319
13.3957	80.8147
13.1912	80.6409
12.9929	78.0809
12.8004	79.7347
12.6135	78.6551
12.432	75.3973
12.2557	69.9256
12.0843	59.6864
11.9176	42.3422
11.7555	24.7577
11.5977	11.1489
11.444	5.1465
11.2944	5.2754
11.1487	7.6269
11.0067	10.6045
10.8682	13.9848
10.7332	16.1904
10.6015	16.6503
10.473	17.3818
10.3476	23.4731
10.2251	34.4228
10.1056	38.0199
9.9887	29.2128
9.8746	31.6435
9.763	37.5243
9.6539	41.0258
9.5472	44.6732
9.4429	47.4852
9.3408	49.3553
9.2409	50.8641
9.1431	52.745
9.0474	55.3475
8.9536	58.161
8.8618	60.5643
8.7718	62.6395
8.6837	63.3743
8.5973	54.1732
8.5126	65.5545
8.4295	72.7776
8.3481	77.1697
8.2682	80.7676
8.1898	83.5901
8.1129	85.5789
8.0374	87.0652
7.9634	88.2383
7.8906	89.2615
7.8192	89.9656
7.7491	90.4092
7.6802	90.8125
7.6126	91.1311
7.5461	91.4756
7.4807	91.708
7.4165	91.8601
7.3534	91.8054
7.2914	91.7842
7.2303	91.7627
7.1703	91.2432
7.1113	90.9353
7.0533	91.1409
6.9962	91.0891
6.94	91.0818
6.8847	91.1155
6.8302	91.3001
6.7767	91.7608
6.7239	92.458
6.672	93.0693
6.6209	93.3718
6.5705	93.6045
6.5209	93.5674
6.4721	93.543
6.424	93.4763
6.3766	93.2229
6.3299	92.7185
6.2838	92.1941
6.2385	91.8496
6.1937	91.4109
6.1496	90.2236
6.1062	90.1387
6.0633	90.3533
6.0211	90.6018
5.9794	91.6113
5.9383	92.9902
5.8978	94.1326
5.8578	94.8533
5.8184	95.3633
5.7794	95.583
5.741	95.8564
5.7031	96.0349
5.6657	96.0869
5.6288	96.0486
5.5924	95.8916
5.5564	95.7869
5.5209	95.7119
5.4859	95.7617
5.4513	95.9236
5.4171	96.0859
5.3833	95.9773
5.35	96.1455
5.3171	96.2458
5.2846	96.3701
5.2524	96.6133
5.2207	96.7627
5.1893	96.9216
5.1584	97.0615
5.1277	97.085
5.0975	97.179
5.0676	97.2019
5.038	97.2283
5.0088	97.2617
4.98	97.3328
4.9514	97.3518
4.9232	97.3323
4.8953	97.4221
4.8678	97.4407
4.8405	97.4451
4.8135	97.5354
4.7868	97.5261
4.7605	97.5134
4.7344	97.4866
4.7086	97.428
4.6831	97.5164
4.6578	97.488
4.6328	97.5046
4.6081	97.6008
4.5837	97.5652
4.5595	97.6091
4.5356	97.6116
4.5119	97.5559
4.4884	97.5779
4.4652	97.5378
4.4423	97.5222
4.4196	97.5198
4.3971	97.5422
4.3748	97.5339
4.3528	97.6052
4.331	97.5608
4.3094	97.4343
4.288	97.5925
4.2668	97.5647
4.2458	97.5378
4.2251	97.5671
4.2045	97.5002
4.1841	97.5554
4.164	97.5159
4.144	97.5154
4.1242	97.4827
4.1046	97.4919
4.0852	97.4221
4.066	97.5295
4.047	97.5178
4.0281	97.4968
4.0094	97.5173
3.9909	97.4705
3.9725	97.531
3.9544	97.4431
3.9363	97.5808
3.9185	97.5295
3.9008	97.5261
3.8833	97.5027
3.8659	97.4128
3.8487	97.4695
3.8316	97.4675
3.8147	97.4353
3.7979	97.4001
3.7813	97.3367
3.7648	97.3186
3.7485	97.2346
3.7323	97.1453
3.7162	97.0193
3.7003	97.0105
3.6845	97.0124
3.6689	96.905
3.6534	96.7859
3.638	96.7058
3.6227	96.6272
3.6076	96.5242
3.5926	96.4187
3.5777	96.3904
3.563	96.2312
3.5484	96.0627
3.5338	95.8811
3.5195	95.678
3.5052	95.1306
3.491	95.1995
3.477	95.1101
3.463	95.0173
3.4492	94.6951
3.4355	94.3538
3.4219	93.6843
3.4084	93.6565
3.395	93.8992
3.3817	93.7097
3.3685	93.7131
3.3554	93.5623
3.3425	93.3342
3.3296	93.1975
3.3168	92.8943
3.3041	92.7717
3.2915	92.4646
3.279	92.3259
3.2666	91.9456
3.2543	91.7503
3.2421	91.3381
3.23	90.8826
3.218	90.5252
3.206	90.1018
3.1942	89.7639
3.1824	89.3753
3.1707	89.1599
3.1591	88.6453
3.1476	88.2927
3.1362	88.0008
3.1249	87.7342
3.1136	87.3875
3.1024	86.9842
3.0913	86.7283
3.0803	86.5388
3.0694	86.1502
3.0585	85.9656
3.0477	85.6677
3.037	85.3308
3.0264	85.2117
3.0158	84.9148
3.0053	84.4265
2.9949	84.2283
2.9845	84.1306
2.9743	83.989
2.9641	84.1756
2.9539	84.2127
2.9439	84.3289
2.9339	84.2703
2.9239	84.3015
2.9141	84.4588
2.9043	84.4392
2.8946	84.6287
2.8849	84.657
2.8753	84.864
2.8658	84.9158
2.8563	85.3592
2.8469	85.9461
2.8375	86.4353
2.8282	86.9461
2.819	87.408
2.8098	87.9529
2.8007	88.0789
2.7917	88.5047
2.7827	88.9256
2.7738	89.2273
2.7649	89.7673
2.7561	90.0896
2.7473	86.8142
2.7386	74.8885
2.7299	93.5779
2.7213	94.322
2.7128	94.9568
2.7043	95.5398
2.6959	95.8884
2.6875	95.9783
2.6791	96.2576
2.6709	96.3591
2.6626	96.0291
2.6545	96.0476
2.6463	96.1404
2.6382	96.1873
2.6302	96.0779
2.6222	96.0007
2.6143	95.9031
2.6064	95.9255
2.5986	96.0632
2.5908	96.0749
2.583	96.113
2.5753	95.9802
2.5677	95.9138
2.5601	95.8279
2.5525	95.6267
2.545	95.6755
2.5375	95.6794
2.5301	95.74
2.5227	95.5505
2.5154	95.6365
2.5081	95.5876
2.5008	95.5818
2.4936	95.5857
2.4864	95.7068
2.4793	95.6248
2.4722	95.5095
2.4651	95.2107
2.4581	95.5173
2.4511	95.6345
2.4442	95.24
2.4373	95.3943
2.4305	95.2908
2.4236	95.7419
2.4169	95.3572
2.4101	95.1834
2.4034	95.3904
2.3967	95.2224
2.3901	95.1365
2.3835	95.2302
2.377	95.3162
2.3704	94.8376
2.364	95.5623
2.3575	95.0193
2.3511	95.4412
2.3447	94.8611
2.3384	95.0544
2.3321	95.0662
2.3258	94.9373
2.3195	95.2263
2.3133	95.3064
2.3071	95.4294
2.301	95.2419
2.2949	94.8611
2.2888	95.0623
2.2828	95.0857
2.2767	95.2615
2.2708	95.0486
2.2648	95.0193
2.2589	95.2498
2.253	95.5251
2.2471	95.2048
2.2413	95.3435
2.2355	95.2751
2.2297	94.9548
2.224	95.1267
2.2183	95.1658
2.2126	95.4548
2.207	95.2517
2.2013	95.322
2.1957	95.1345
2.1902	95.2576
2.1846	95.3044
2.1791	95.2595
2.1736	95.3123
2.1682	95.5154
2.1628	95.699
2.1574	95.5583
2.152	95.4412
2.1466	95.3904
2.1413	95.4177
2.136	95.5037
2.1308	95.4919
2.1255	95.7537
2.1203	95.5896
2.1151	95.4216
2.11	95.613
2.1048	95.5935
2.0997	95.6873
2.0946	95.449
2.0895	95.7185
2.0845	95.2966
2.0795	96.1951
