Name: Fluorite CaF_2
Type: Mineral
Class: Halide
Subclass: None
Particle Size: Coarse
Sample No.: H-2A
Owner: JPL
Wavelength Range: VSWIR
Origin: USA, Illinois, Hardin County, Rosiclare
Description: Purple fluorite. Particle size was 125-500um.Collected by Ward's Original ASTER Spectral Library name was jpl.beckman.mineral.halide.none.coarse.h02a.spectrum.txt
Measurement: Hemispherical reflectance
X Units: Wavelength (micrometers)
Y Units: Reflectance (percent)
wavelength	value
0.4	66.02
0.403	65.77
0.406	65.86
0.409	65.83
0.412	65.72
0.415	65.58
0.418	65.56
0.421	65.6
0.424	65.62
0.427	65.63
0.43	65.52
0.433	65.44
0.436	65.51
0.439	65.62
0.442	65.63
0.445	65.43
0.448	65.26
0.451	65.25
0.454	65.3
0.457	65.28
0.46	65.27
0.463	65.03
0.466	64.93
0.469	64.88
0.472	64.72
0.475	64.67
0.478	64.57
0.481	64.45
0.484	64.28
0.487	64.02
0.49	63.68
0.493	63.55
0.496	63.47
0.499	63.26
0.502	63.01
0.505	62.83
0.508	62.44
0.511	62.3
0.514	62.15
0.517	61.97
0.52	61.87
0.523	61.62
0.526	61.58
0.529	61.56
0.532	61.46
0.535	61.39
0.538	61.37
0.541	61.49
0.544	61.55
0.547	61.62
0.55	61.9
0.553	62.04
0.556	62.36
0.559	62.66
0.562	63.22
0.565	63.47
0.568	63.76
0.571	64.1
0.574	64.43
0.577	64.76
0.58	65.19
0.583	65.48
0.586	66.05
0.589	66.36
0.592	66.82
0.595	67.04
0.598	67.39
0.601	67.9
0.604	68.35
0.607	68.74
0.61	68.94
0.613	69.4
0.616	69.71
0.619	69.99
0.622	70.33
0.625	70.69
0.628	70.98
0.631	71.28
0.634	71.67
0.637	71.83
0.64	72.08
0.643	72.28
0.646	72.49
0.649	72.74
0.652	73.03
0.655	73.31
0.658	73.47
0.661	73.65
0.664	73.8
0.667	73.96
0.67	74.13
0.673	74.33
0.676	74.38
0.679	74.6
0.682	74.67
0.685	74.91
0.688	74.97
0.691	75.02
0.694	75.24
0.697	75.32
0.7	75.41
0.703	75.56
0.706	75.66
0.709	75.78
0.712	75.9
0.715	75.91
0.718	76.08
0.721	76.1
0.724	76.14
0.727	76.29
0.73	76.32
0.733	76.42
0.736	76.52
0.739	76.47
0.742	76.63
0.745	76.64
0.748	76.68
0.751	76.86
0.754	76.89
0.757	77
0.76	76.8
0.763	76.94
0.766	77.03
0.769	77.12
0.772	77.18
0.775	77.14
0.778	77.12
0.781	77.32
0.784	77.34
0.787	77.41
0.79	77.45
0.793	77.48
0.796	77.54
0.799	77.53
0.808	77.85
0.82	77.93
0.832	78.12
0.844	78.32
0.856	78.52
0.868	78.66
0.88	78.61
0.892	78.72
0.904	78.79
0.916	78.95
0.928	79.04
0.94	79.11
0.952	79.17
0.964	79.3
0.976	79.25
0.988	79.26
1	79.35
1.012	79.31
1.024	79.33
1.036	79.5
1.048	79.64
1.06	79.53
1.072	79.67
1.084	79.59
1.096	79.61
1.108	79.66
1.12	79.74
1.132	79.71
1.144	79.76
1.156	79.74
1.168	79.8
1.18	79.78
1.192	79.71
1.204	79.76
1.216	79.63
1.228	79.65
1.24	79.79
1.252	79.84
1.264	79.74
1.276	79.72
1.288	79.77
1.3	79.73
1.312	79.69
1.324	79.65
1.336	79.59
1.348	79.5
1.36	79.64
1.372	79.5
1.384	79.35
1.396	79.27
1.408	79.08
1.42	78.97
1.432	79.08
1.444	79.25
1.456	79.37
1.468	79.37
1.48	79.54
1.492	79.5
1.504	79.71
1.516	79.82
1.528	79.79
1.54	79.97
1.552	79.97
1.564	80.01
1.576	80.05
1.588	80.05
1.6	80.14
1.612	80.15
1.624	80.23
1.636	80.25
1.648	80.34
1.66	80.38
1.672	80.37
1.684	80.34
1.696	80.42
1.708	80.52
1.72	80.55
1.732	80.39
1.744	80.25
1.756	80.34
1.768	80.24
1.78	80.33
1.792	80.29
1.804	80.33
1.816	80.22
1.828	80.12
1.84	80.16
1.852	80.19
1.864	80.05
1.876	79.76
1.888	79.27
1.9	78.53
1.912	78.13
1.924	78.04
1.936	78.13
1.948	78.35
1.96	78.48
1.972	78.74
1.984	79.19
1.996	79.45
2.008	79.66
2.02	79.89
2.032	80.07
2.044	80.15
2.056	80.23
2.068	80.36
2.08	80.53
2.092	80.59
2.104	80.84
2.116	80.88
2.128	80.86
2.14	80.82
2.152	80.78
2.164	80.48
2.176	80.42
2.188	80.28
2.2	80.3
2.212	80.24
2.224	80.19
2.236	80.23
2.248	80.2
2.26	80.21
2.272	80.3
2.284	80.23
2.296	80.14
2.308	80.09
2.32	80.25
2.332	80.32
2.344	80.24
2.356	80.29
2.368	80.21
2.38	80.05
2.392	79.91
2.404	79.87
2.416	79.77
2.428	79.71
2.44	79.65
2.452	79.56
2.464	79.42
2.476	79.18
2.488	79.3
2.5	79.69
