Name: Almandine Garnet Fe_3Al_2(SiO_4)_3
Type: Mineral
Class: Silicate
Subclass: Nesosilicate
Particle Size: Coarse
Sample No.: NS-4A
Owner: JPL
Wavelength Range: VSWIR
Origin: USA, Arizona, Graham County, Stanley Butte
Description: Particle size was 125-500um.Collected by Burminco Original ASTER Spectral Library name was jpl.beckman.mineral.silicate.nesosilicate.coarse.ns04a.spectrum.txt
Measurement: Hemispherical reflectance
X Units: Wavelength (micrometers)
Y Units: Reflectance (percent)
wavelength	value
0.4	11.62
0.403	11.69
0.406	11.73
0.409	11.59
0.412	11.61
0.415	11.61
0.418	11.29
0.421	11.07
0.424	10.96
0.427	10.95
0.43	10.88
0.433	10.92
0.436	11.41
0.439	11.47
0.442	11.55
0.445	11.56
0.448	11.51
0.451	11.53
0.454	11.52
0.457	11.37
0.46	11.44
0.463	11.38
0.466	11.46
0.469	11.44
0.472	11.67
0.475	11.62
0.478	11.59
0.481	11.6
0.484	11.37
0.487	11.19
0.49	11.05
0.493	10.8
0.496	10.74
0.499	10.55
0.502	10.34
0.505	10.63
0.508	11.04
0.511	11.51
0.514	11.8
0.517	11.89
0.52	12.18
0.523	12.45
0.526	12.64
0.529	13.14
0.532	13.67
0.535	14.31
0.538	14.77
0.541	15.14
0.544	15.82
0.547	16.04
0.55	16.23
0.553	16.35
0.556	16.34
0.559	16.52
0.562	16.39
0.565	16.27
0.568	16.21
0.571	16.49
0.574	16.77
0.577	17.4
0.58	18.23
0.583	19.04
0.586	19.92
0.589	20.71
0.592	21.43
0.595	22.11
0.598	22.48
0.601	23.06
0.604	23.57
0.607	23.87
0.61	24.27
0.613	24.64
0.616	25.09
0.619	25.75
0.622	26.24
0.625	27.04
0.628	27.8
0.631	28.57
0.634	29.35
0.637	29.83
0.64	30.45
0.643	31
0.646	31.25
0.649	31.64
0.652	31.94
0.655	32
0.658	32.06
0.661	32.06
0.664	32.1
0.667	32.04
0.67	31.77
0.673	31.81
0.676	31.83
0.679	31.67
0.682	31.64
0.685	31.65
0.688	31.67
0.691	31.81
0.694	31.66
0.697	31.98
0.7	32.15
0.703	32.42
0.706	32.64
0.709	32.99
0.712	33.42
0.715	33.92
0.718	34.25
0.721	34.73
0.724	35.39
0.727	35.73
0.73	36.23
0.733	36.72
0.736	37.34
0.739	37.85
0.742	38.29
0.745	38.97
0.748	39.46
0.751	39.77
0.754	40.29
0.757	40.64
0.76	41.17
0.763	41.35
0.766	41.71
0.769	42.15
0.772	42.3
0.775	42.54
0.778	42.77
0.781	43.05
0.784	43.2
0.787	43.29
0.79	43.57
0.793	43.69
0.796	43.81
0.799	43.93
0.808	44.42
0.82	44.58
0.832	44.66
0.844	44.83
0.856	44.87
0.868	44.92
0.88	44.71
0.892	44.53
0.904	44.38
0.916	43.99
0.928	43.58
0.94	42.76
0.952	41.9
0.964	40.71
0.976	39.35
0.988	37.75
1	35.89
1.012	33.9
1.024	31.71
1.036	29.33
1.048	27.13
1.06	24.75
1.072	22.61
1.084	20.47
1.096	18.54
1.108	16.84
1.12	15.31
1.132	13.75
1.144	12.54
1.156	11.53
1.168	10.55
1.18	9.72
1.192	9.06
1.204	8.58
1.216	8.13
1.228	7.7
1.24	7.52
1.252	7.25
1.264	7.15
1.276	7.07
1.288	7.08
1.3	7.12
1.312	7.15
1.324	7.41
1.336	7.69
1.348	7.86
1.36	8.1
1.372	8.53
1.384	8.98
1.396	9.44
1.408	9.8
1.42	10.28
1.432	10.7
1.444	11.11
1.456	11.33
1.468	11.52
1.48	11.7
1.492	11.81
1.504	11.79
1.516	11.83
1.528	11.74
1.54	11.61
1.552	11.55
1.564	11.36
1.576	11.15
1.588	11.05
1.6	10.92
1.612	10.83
1.624	10.68
1.636	10.66
1.648	10.61
1.66	10.51
1.672	10.5
1.684	10.54
1.696	10.64
1.708	10.64
1.72	10.8
1.732	10.91
1.744	11.03
1.756	11.2
1.768	11.34
1.78	11.62
1.792	11.83
1.804	12.06
1.816	12.25
1.828	12.54
1.84	12.75
1.852	12.85
1.864	13.08
1.876	13.26
1.888	13.49
1.9	13.51
1.912	13.58
1.924	13.72
1.936	13.83
1.948	13.78
1.96	13.91
1.972	13.92
1.984	13.85
1.996	13.88
2.008	13.88
2.02	13.75
2.032	13.71
2.044	13.67
2.056	13.54
2.068	13.4
2.08	13.26
2.092	13.17
2.104	13.13
2.116	12.95
2.128	12.76
2.14	12.65
2.152	12.56
2.164	12.49
2.176	12.25
2.188	12.19
2.2	12.14
2.212	12.05
2.224	12.03
2.236	11.89
2.248	11.81
2.26	11.83
2.272	11.78
2.284	11.86
2.296	11.74
2.308	11.83
2.32	11.84
2.332	11.91
2.344	12.04
2.356	12.18
2.368	12.24
2.38	12.36
2.392	12.54
2.404	12.69
2.416	12.86
2.428	12.94
2.44	13.28
2.452	13.49
2.464	13.62
2.476	13.88
2.488	14.23
2.5	14.56
