Name: Olivine (Fo41) (Fe+2,Mg)2SiO4
Type: Mineral
Class: Silicate
Subclass: Nesosilicate
Particle Size: Coarse
Sample No.: olivine_4
Owner: JHU
Wavelength Range: TIR
Origin: Kiglapait Intrusion, Labrador via Trude King #KI4143(obtained from S.A. Morse, Univ. of Mass.)
Description: Initially, the specimen was contaminated with pyroxene, spinel (?) and ilmenite.  Heavy liquid separation, followed by magnetic separation and hand picking, allowed olivines of different iron content to be solated.  The sample was ground to <60 micrometers and wet sieved.  Fine particles are missing from the sample; average particle size is close to 60 micrometers. Particle size was 0-60 micrometers, but Packed powder simulates coarse.(Isolated tetrahedra); (Olivine Group)  Original ASTER Spectral Library name was jhu.nicolet.mineral.silicate.nesosilicate.packed.olivin4.spectrum.txt
Measurement: Bidirectional reflectance
X Units: Wavelength (micrometers)
Y Units: Reflectance (percent)
wavelength	value
25.0442	4.6462
24.3388	3.7212
23.6719	3.3967
23.0407	3.1672
22.4422	3.2324
21.8741	3.2783
21.334	3.8403
20.8199	4.5449
20.33	4.5044
19.8627	4.8428
19.4163	5.6177
18.9896	6.1775
18.5812	5.8398
18.19	4.4509
17.815	3.0945
17.4551	2.6584
17.1094	2.842
16.7772	3.0815
16.4576	3.1977
16.15	2.9299
15.8537	2.2559
15.568	2.0024
15.2925	2.1182
15.0265	2.2839
14.7697	2.4121
14.5214	2.5181
14.2814	2.5981
14.0492	2.697
13.8244	2.7146
13.6067	2.7629
13.3957	2.73
13.1912	2.7329
12.9929	2.7624
12.8004	2.8152
12.6135	2.8935
12.432	3.0154
12.2557	3.1897
12.0843	3.6099
11.9176	3.2756
11.7555	3.8091
11.5977	4.7685
11.444	5.9953
11.2944	6.7568
11.1487	7.1694
11.0067	7.5998
10.8682	7.8738
10.7332	6.7947
10.6015	4.6638
10.473	5.7947
10.3476	6.1772
10.2251	5.3293
10.1056	4.8469
9.9887	4.1855
9.8746	3.8325
9.763	3.8408
9.6539	4.0276
9.5472	3.7913
9.4429	2.9639
9.3408	2.1099
9.2409	1.5701
9.1431	1.4963
9.0474	1.5947
8.9536	1.7046
8.8618	1.832
8.7718	1.9246
8.6837	2.0024
8.5973	2.074
8.5126	2.1431
8.4295	2.2266
8.3481	2.3069
8.2682	2.3999
8.1898	2.4856
8.1129	2.5466
8.0374	2.5727
7.9634	2.5835
7.8906	2.5991
7.8192	2.5994
7.7491	2.5884
7.6802	2.6008
7.6126	2.6421
7.5461	2.6982
7.4807	2.7524
7.4165	2.7986
7.3534	2.8411
7.2914	2.866
7.2303	2.8977
7.1703	2.9184
7.1113	2.9499
7.0533	2.9853
6.9962	2.9939
6.94	3.0249
6.8847	3.0496
6.8302	3.0718
6.7767	3.0832
6.7239	3.0754
6.672	3.0613
6.6209	3.0588
6.5705	3.0535
6.5209	3.0408
6.4721	3.0317
6.424	3.03
6.3766	3.0159
6.3299	2.999
6.2838	2.978
6.2385	2.948
6.1937	2.9072
6.1496	2.8289
6.1062	2.7161
6.0633	2.6201
6.0211	2.6162
5.9794	2.6384
5.9383	2.6404
5.8978	2.6536
5.8578	2.6633
5.8184	2.6685
5.7794	2.6196
5.741	2.5537
5.7031	2.5144
5.6657	2.5303
5.6288	2.5767
5.5924	2.6081
5.5564	2.6221
5.5209	2.6409
5.4859	2.6682
5.4513	2.6963
5.4171	2.7209
5.3833	2.7341
5.35	2.7544
5.3171	2.7732
5.2846	2.7983
5.2524	2.8428
5.2207	2.8662
5.1893	2.8931
5.1584	2.9104
5.1277	2.9167
5.0975	2.9329
5.0676	2.9519
5.038	3.0002
5.0088	3.0503
4.98	3.0972
4.9514	3.144
4.9232	3.1809
4.8953	3.2151
4.8678	3.2378
4.8405	3.2659
4.8135	3.2854
4.7868	3.3069
4.7605	3.3296
4.7344	3.3569
4.7086	3.3782
4.6831	3.4014
4.6578	3.4275
4.6328	3.4578
4.6081	3.4858
4.5837	3.5154
4.5595	3.5476
4.5356	3.5684
4.5119	3.5996
4.4884	3.6287
4.4652	3.6616
4.4423	3.6943
4.4196	3.7241
4.3971	3.7642
4.3748	3.7961
4.3528	3.8254
4.331	3.8596
4.3094	3.8977
4.288	3.9302
4.2668	3.9582
4.2458	3.991
4.2251	4.0244
4.2045	4.0566
4.1841	4.0847
4.164	4.1138
4.144	4.1479
4.1242	4.1814
4.1046	4.2097
4.0852	4.2449
4.066	4.2742
4.047	4.3086
4.0281	4.3476
4.0094	4.3909
3.9909	4.4138
3.9725	4.449
3.9544	4.4866
3.9363	4.5276
3.9185	4.5703
3.9008	4.5994
3.8833	4.6277
3.8659	4.6584
3.8487	4.6836
3.8316	4.7234
3.8147	4.7566
3.7979	4.7881
3.7813	4.8227
3.7648	4.8577
3.7485	4.8862
3.7323	4.9167
3.7162	4.9363
3.7003	4.967
3.6845	4.9902
3.6689	5.019
3.6534	5.0491
3.638	5.0796
3.6227	5.1042
3.6076	5.1269
3.5926	5.1526
3.5777	5.1653
3.563	5.1885
3.5484	5.2009
3.5338	5.2224
3.5195	5.2261
3.5052	5.2129
3.491	5.2475
3.477	5.2663
3.463	5.2761
3.4492	5.2756
3.4355	5.2749
3.4219	5.2554
3.4084	5.2812
3.395	5.3166
3.3817	5.3274
3.3685	5.3503
3.3554	5.3765
3.3425	5.3933
3.3296	5.4043
3.3168	5.4053
3.3041	5.4075
3.2915	5.4077
3.279	5.3962
3.2666	5.3935
3.2543	5.3826
3.2421	5.373
3.23	5.3537
3.218	5.3406
3.206	5.3279
3.1942	5.3166
3.1824	5.2834
3.1707	5.279
3.1591	5.2541
3.1476	5.2236
3.1362	5.2126
3.1249	5.1997
3.1136	5.1938
3.1024	5.1826
3.0913	5.1697
3.0803	5.1582
3.0694	5.1487
3.0585	5.1416
3.0477	5.1384
3.037	5.1289
3.0264	5.1152
3.0158	5.1015
3.0053	5.0828
2.9949	5.0835
2.9845	5.0652
2.9743	5.052
2.9641	5.0434
2.9539	5.0344
2.9439	5.0259
2.9339	5.0264
2.9239	5.0283
2.9141	5.0315
2.9043	5.0344
2.8946	5.0447
2.8849	5.0366
2.8753	5.0471
2.8658	5.0495
2.8563	5.0478
2.8469	5.039
2.8375	5.0078
2.8282	4.9863
2.819	4.9529
2.8098	4.9289
2.8007	4.9116
2.7917	4.9036
2.7827	4.9133
2.7738	4.8918
2.7649	4.8843
2.7561	4.8852
2.7473	4.8945
2.7386	4.9338
2.7299	4.9641
2.7213	5.1079
2.7128	5.3494
2.7043	5.8508
2.6959	6.154
2.6875	6.2671
2.6791	6.3254
2.6709	6.3699
2.6626	6.3767
2.6545	6.3769
2.6463	6.3611
2.6382	6.3745
2.6302	6.3745
2.6222	6.376
2.6143	6.3584
2.6064	6.3774
2.5986	6.3647
2.5908	6.3491
2.583	6.3479
2.5753	6.3384
2.5677	6.3242
2.5601	6.3108
2.5525	6.2947
2.545	6.3013
2.5375	6.3056
2.5301	6.2961
2.5227	6.2785
2.5154	6.2554
2.5081	6.2617
2.5008	6.2439
2.4936	6.241
2.4864	6.2402
2.4793	6.2502
2.4722	6.2351
2.4651	6.2375
2.4581	6.2319
2.4511	6.2175
2.4442	6.2173
2.4373	6.2099
2.4305	6.2146
2.4236	6.1863
2.4169	6.188
2.4101	6.2097
2.4034	6.1977
2.3967	6.1697
2.3901	6.1667
2.3835	6.1575
2.377	6.1528
2.3704	6.1514
2.364	6.1531
2.3575	6.156
2.3511	6.1435
2.3447	6.1306
2.3384	6.1101
2.3321	6.1008
2.3258	6.1057
2.3195	6.1225
2.3133	6.1291
2.3071	6.1186
2.301	6.1118
2.2949	6.1184
2.2888	6.1221
2.2828	6.0964
2.2767	6.1411
2.2708	6.1252
2.2648	6.1499
2.2589	6.126
2.253	6.1347
2.2471	6.1438
2.2413	6.1526
2.2355	6.1472
2.2297	6.1462
2.224	6.1294
2.2183	6.136
2.2126	6.1467
2.207	6.1328
2.2013	6.126
2.1957	6.1296
2.1902	6.1409
2.1846	6.1531
2.1791	6.1387
2.1736	6.1308
2.1682	6.1377
2.1628	6.1557
2.1574	6.1667
2.152	6.1482
2.1466	6.1575
2.1413	6.1618
2.136	6.1582
2.1308	6.1638
2.1255	6.1594
2.1203	6.1824
2.1151	6.1719
2.11	6.1816
2.1048	6.1987
2.0997	6.175
2.0946	6.2207
2.0895	6.2095
2.0845	6.2124
2.0795	6.2256
