Name: Analcime NaAlSi_2O_6.H_2O
Type: Mineral
Class: Silicate
Subclass: Tectosilicate
Particle Size: Fine
Sample No.: TS-18A
Owner: JPL
Wavelength Range: VSWIR
Description: Particle size was 0-45um.Collected by JPL Original ASTER Spectral Library name was jpl.beckman.mineral.silicate.tectosilicate.fine.ts18a.spectrum.txt
Measurement: Hemispherical reflectance
X Units: Wavelength (micrometers)
Y Units: Reflectance (percent)
wavelength	value
0.4	71.43
0.403	71.84
0.406	72.27
0.409	72.16
0.412	72.41
0.415	72.53
0.418	72.83
0.421	72.99
0.424	73.25
0.427	73.32
0.43	73.38
0.433	73.77
0.436	73.89
0.439	74.22
0.442	74.4
0.445	74.75
0.448	74.88
0.451	75.06
0.454	75.21
0.457	75.34
0.46	75.57
0.463	75.62
0.466	75.9
0.469	76
0.472	76.03
0.475	76.3
0.478	76.23
0.481	76.42
0.484	76.61
0.487	76.69
0.49	76.75
0.493	76.9
0.496	76.98
0.499	77.04
0.502	77.44
0.505	77.51
0.508	77.61
0.511	77.69
0.514	77.94
0.517	77.97
0.52	78.14
0.523	78.43
0.526	78.56
0.529	78.71
0.532	78.85
0.535	78.89
0.538	78.99
0.541	79.23
0.544	79.35
0.547	79.41
0.55	79.53
0.553	79.89
0.556	79.89
0.559	79.96
0.562	80.55
0.565	80.79
0.568	80.9
0.571	81.06
0.574	80.96
0.577	81.19
0.58	81.21
0.583	81.36
0.586	81.3
0.589	81.66
0.592	81.79
0.595	81.86
0.598	82.01
0.601	82.16
0.604	82.36
0.607	82.29
0.61	82.62
0.613	82.49
0.616	82.36
0.619	82.42
0.622	82.58
0.625	82.62
0.628	82.71
0.631	82.76
0.634	82.73
0.637	82.72
0.64	82.98
0.643	82.99
0.646	83.19
0.649	83.25
0.652	83.33
0.655	83.38
0.658	83.49
0.661	83.52
0.664	83.5
0.667	83.67
0.67	83.61
0.673	83.64
0.676	83.78
0.679	83.94
0.682	83.9
0.685	83.98
0.688	84.02
0.691	84.13
0.694	84.18
0.697	84.3
0.7	84.23
0.703	84.17
0.706	84.46
0.709	84.53
0.712	84.59
0.715	84.5
0.718	84.47
0.721	84.53
0.724	84.77
0.727	84.71
0.73	84.84
0.733	84.67
0.736	84.63
0.739	84.72
0.742	84.84
0.745	84.82
0.748	84.96
0.751	84.78
0.754	84.94
0.757	85.02
0.76	85.18
0.763	85.23
0.766	85.36
0.769	85.2
0.772	85.28
0.775	85.37
0.778	85.4
0.781	85.4
0.784	85.53
0.787	85.37
0.79	85.3
0.793	85.59
0.796	85.42
0.799	85.59
0.808	86.13
0.82	86.09
0.832	86
0.844	86.05
0.856	85.99
0.868	86.26
0.88	86.13
0.892	86.19
0.904	86.01
0.916	86.03
0.928	85.66
0.94	85.35
0.952	84.9
0.964	83.12
0.976	83.29
0.988	84.61
1	85.32
1.012	85.61
1.024	85.84
1.036	85.93
1.048	85.92
1.06	85.97
1.072	85.94
1.084	86.02
1.096	85.83
1.108	85.63
1.12	85.59
1.132	85.16
1.144	83.35
1.156	77.78
1.168	81.93
1.18	84.08
1.192	84.1
1.204	84.98
1.216	85.49
1.228	85.48
1.24	85.57
1.252	85.67
1.264	85.74
1.276	85.5
1.288	85.29
1.3	84.86
1.312	84.45
1.324	82.98
1.336	80.21
1.348	78.32
1.36	77.28
1.372	76.75
1.384	73.58
1.396	68.14
1.408	57.88
1.42	48.63
1.432	57.13
1.444	66.24
1.456	68.15
1.468	67.84
1.48	74.6
1.492	78.21
1.504	80.26
1.516	81.67
1.528	82.64
1.54	83.32
1.552	83.87
1.564	84.28
1.576	84.63
1.588	84.93
1.6	85.25
1.612	85.3
1.624	85.39
1.636	85.35
1.648	85.43
1.66	85.23
1.672	85.16
1.684	84.95
1.696	84.56
1.708	83.99
1.72	82.97
1.732	81.4
1.744	78.91
1.756	75.69
1.768	72.73
1.78	71.15
1.792	70.46
1.804	70.89
1.816	72.86
1.828	74.19
1.84	74.24
1.852	72.78
1.864	69.27
1.876	61.52
1.888	49.95
1.9	35.02
1.912	31.21
1.924	40.53
1.936	49.87
1.948	56.49
1.96	61.8
1.972	66.48
1.984	70.12
1.996	72.38
2.008	73.59
2.02	73.99
2.032	74.25
2.044	74.41
2.056	74.57
2.068	74.59
2.08	74.34
2.092	73.76
2.104	72.89
2.116	72.06
2.128	71.47
2.14	71.38
2.152	71.88
2.164	72.34
2.176	72.45
2.188	72.5
2.2	72.52
2.212	72.27
2.224	72.08
2.236	71.83
2.248	71.47
2.26	70.98
2.272	70.45
2.284	69.74
2.296	68.87
2.308	68.02
2.32	67.45
2.332	66.67
2.344	65.64
2.356	64.4
2.368	62.82
2.38	60.7
2.392	58.22
2.404	54.8
2.416	50.59
2.428	45.5
2.44	40.65
2.452	36.17
2.464	32.52
2.476	29.78
2.488	28.21
2.5	26.99
