Name: Sphalerite (Zn,Fe)S
Type: Mineral
Class: Sulfide
Subclass: None
Particle Size: Coarse
Sample No.: S-1A
Owner: JPL
Wavelength Range: TIR
Origin: USA, Oklahoma, Ottawa County, Picher
Description: Particle size was 125-500um.Collected by JPL Original ASTER Spectral Library name was jpl.nicolet.mineral.sulfide.none.coarse.s01a.spectrum.txt
Measurement: Hemispherical reflectance
X Units: Wavelength (micrometers)
Y Units: Reflectance (percent)
wavelength	value
15.3853	15.3401
15.1161	18.0978
14.8563	14.7921
14.6052	21.1597
14.3624	25.1497
14.1276	28.725
13.9004	29.9662
13.6803	31.5467
13.4671	32.4668
13.2604	33.369
13.06	33.7269
12.8656	34.0143
12.6769	34.6595
12.4936	35.4631
12.3155	36.5093
12.1425	37.3489
11.9742	38.1849
11.8106	38.6075
11.6513	38.627
11.4963	38.5331
11.3454	38.4149
11.1983	38.311
11.0551	38.207
10.9154	38.059
10.7793	38.3648
10.6465	38.2727
10.5169	38.1541
10.3904	38.0203
10.267	37.7214
10.1464	37.7664
10.0287	37.636
9.9136	37.876
9.8012	37.8432
9.6913	38.0584
9.5838	38.2294
9.4787	38.5838
9.3758	38.8414
9.2752	39.1797
9.1767	39.0609
9.0803	39.4052
8.9858	39.5462
8.8934	39.9386
8.8028	40.2247
8.714	40.639
8.627	41.0416
8.5417	41.3692
8.4581	41.3458
8.3761	41.5961
8.2957	42.1132
8.2169	42.1491
8.1395	42.1119
8.0635	42.143
7.989	42.2365
7.9158	42.716
7.8439	43.176
7.7734	43.4934
7.7041	43.5702
7.636	43.7217
7.5691	43.7015
7.5034	43.7267
7.4388	43.7651
7.3753	43.5779
7.3129	43.3265
7.2515	43.2004
7.1912	43.4682
7.1318	43.4408
7.0734	43.3665
7.016	43.1063
6.9595	43.2734
6.9039	43.1508
6.8492	43.273
6.7953	43.4522
6.7423	43.3199
6.6901	43.3244
6.6387	43.6284
6.5881	43.2933
6.5382	42.9422
6.4892	42.9497
6.4408	42.5689
6.3931	42.3434
6.3462	42.5967
6.2999	42.2093
6.2543	42.3223
6.2094	42.2837
6.1651	42.3511
6.1214	42.0993
6.0784	42.28
6.0359	42.289
5.994	42.2303
5.9527	42.189
5.912	42.2485
5.8718	42.3563
5.8322	42.2193
5.7931	41.6543
5.7545	41.0882
5.7165	41.4204
5.6789	42.1659
5.6418	42.3409
5.6052	42.1171
5.5691	42.0394
5.5334	41.9999
5.4982	41.9443
5.4635	41.9678
5.4291	41.8617
5.3952	41.7198
5.3618	41.6812
5.3287	41.4848
5.2961	41.4284
5.2638	41.2453
5.2319	41.1326
5.2004	41.0306
5.1693	40.7235
5.1386	40.5997
5.1082	40.3857
5.0782	40.0788
5.0485	39.8131
5.0192	39.5089
4.9902	39.1801
4.9616	38.7387
4.9332	38.3991
4.9052	38.0271
4.8776	37.5413
4.8502	37.0729
4.8231	36.5321
4.7963	35.959
4.7699	35.3059
4.7437	34.6993
4.7178	34.0113
4.6922	33.3378
4.6668	32.6018
4.6418	31.7273
4.617	31.1411
4.5924	30.2143
4.5681	29.4117
4.5441	28.5882
4.5203	27.6726
4.4968	26.7899
4.4735	26.0328
4.4505	25.2531
4.4277	24.2751
4.4051	23.5159
4.3828	22.5716
4.3607	21.7654
4.3388	20.9546
4.3171	20.1553
4.2956	19.539
4.2744	18.7515
4.2534	18.0385
4.2325	17.2965
4.2119	16.694
4.1915	15.9535
4.1712	15.4252
4.1512	14.7934
4.1313	14.2511
4.1117	13.72
4.0922	13.2876
4.0729	12.7398
4.0538	12.1774
4.0349	11.9617
4.0161	11.2992
3.9976	11.2245
3.9792	10.7952
3.9609	10.5503
3.9428	10.3588
3.9249	10.01
3.9072	9.7366
3.8896	9.3895
3.8722	9.3998
3.8549	9.1886
3.8378	8.9273
3.8208	8.7642
3.804	8.5534
3.7873	8.4684
3.7708	8.2762
3.7544	8.268
3.7382	7.9976
3.7221	7.9205
3.7061	7.8705
3.6903	7.8082
3.6746	7.719
3.659	7.6982
3.6436	7.6444
3.6283	7.4984
3.6131	7.5831
3.5981	7.416
3.5832	7.4433
3.5684	7.3278
3.5537	7.3809
3.5391	7.3819
3.5247	7.3359
3.5104	7.2523
3.4962	7.2333
3.4821	7.364
3.4681	7.2463
3.4543	7.1883
3.4405	7.3229
3.4269	7.3585
3.4133	7.2818
3.3999	7.3491
3.3866	7.2016
3.3733	7.2866
3.3602	7.3844
3.3472	7.1275
3.3343	7.1363
3.3215	7.3428
3.3088	7.3257
3.2961	7.2513
3.2836	7.2686
3.2712	7.2007
3.2588	7.2268
3.2466	7.3562
3.2345	7.1027
3.2224	7.2933
3.2104	7.1843
3.1985	7.186
3.1867	7.196
3.175	7.1638
3.1634	7.2687
3.1519	7.377
3.1404	7.2103
3.129	7.2316
3.1178	7.32
3.1065	7.2829
3.0954	7.3253
3.0844	7.2773
3.0734	7.0807
3.0625	7.2149
3.0517	7.1676
3.041	7.1768
3.0303	7.219
3.0197	7.1067
3.0092	7.1902
2.9987	7.1571
2.9884	7.1836
2.9781	6.9211
2.9678	7.2868
2.9577	7.0293
2.9476	7.3087
2.9376	7.0789
2.9276	7.1622
2.9177	7.1674
2.9079	7.09
2.8982	7.0819
2.8885	7.3358
2.8789	6.9366
2.8693	6.9917
2.8598	6.9302
2.8504	7.097
2.841	6.8437
2.8317	6.9847
2.8224	6.8712
2.8133	7.0789
2.8041	6.8435
2.7951	7.1496
2.786	7.0714
2.7771	6.9916
2.7682	6.7911
2.7594	7.0074
2.7506	6.9993
2.7418	7.1093
2.7332	6.9323
2.7246	7.156
2.716	6.9662
2.7075	6.9345
2.699	7.1194
2.6906	7.1788
2.6823	7.1113
2.674	7.0832
2.6657	7.0973
2.6575	7.1476
2.6494	6.9504
2.6413	7.1087
2.6332	7.1722
2.6252	7.2337
2.6173	7.1265
2.6094	7.4703
2.6015	6.9648
2.5937	7.0888
2.5859	7.1262
2.5782	7.2176
2.5706	7.1873
2.5629	7.1002
2.5554	6.9985
2.5478	6.9728
2.5403	7.0947
2.5329	7.1526
2.5255	7.3405
2.5181	7.1229
2.5108	7.2891
2.5035	7.0534
2.4963	7.2838
2.4891	7.3454
2.482	7.3604
2.4749	7.2702
2.4678	7.4854
2.4608	7.3786
2.4538	7.3754
2.4468	7.1997
2.4399	7.522
2.4331	7.4869
2.4262	7.4037
2.4194	7.3672
2.4127	7.6394
2.4059	7.6868
2.3993	7.6716
2.3926	7.5042
2.386	7.7531
2.3795	7.6496
2.3729	7.8234
2.3664	7.7734
2.36	7.8219
2.3535	7.814
2.3471	7.8912
2.3408	8.1342
2.3345	8.0573
2.3282	8.1296
2.3219	7.966
2.3157	8.4616
2.3095	8.3901
2.3034	8.4317
2.2972	8.7511
2.2911	8.6084
2.2851	8.7101
2.279	8.6129
2.2731	8.9785
2.2671	9.1862
2.2612	9.0657
2.2553	9.2566
2.2494	9.3934
2.2435	9.7341
2.2377	9.5999
2.232	9.7842
2.2262	10.1019
2.2205	10.2307
2.2148	10.3556
2.2091	10.3639
2.2035	10.6296
2.1979	10.9565
2.1923	10.9886
2.1868	11.3165
2.1812	11.6348
2.1758	11.8313
2.1703	11.9838
2.1649	12.311
2.1595	12.7463
2.1541	12.7567
2.1487	12.8506
2.1434	13.2758
2.1381	13.6517
2.1328	14.0496
2.1275	14.184
2.1223	14.922
2.1171	14.9448
2.112	15.0241
2.1068	15.6307
2.1017	16.0361
2.0966	16.2842
2.0915	16.6868
2.0865	17.4888
2.0814	17.5109
2.0764	17.7731
2.0715	18.3946
2.0665	18.9086
2.0616	19.0128
2.0567	19.6333
2.0518	20.0472
2.0469	20.6672
2.0421	20.6272
2.0373	21.2907
2.0325	21.4813
2.0277	22.0965
2.0229	22.3758
2.0182	23.2412
2.0135	23.2565
2.0088	23.5268
2.0042	24.463
