Name: Tincalconite Na_2B_4O_5(OH)_4.3H_2O
Type: Mineral
Class: Borate
Subclass: None
Particle Size: Fine
Sample No.: B-4A
Owner: JPL
Wavelength Range: TIR
Origin: USA, California, Kern County, Boron
Description: Particle size was 0-45um.Collected by Burminco Original ASTER Spectral Library name was jpl.nicolet.mineral.borate.none.fine.b04a.spectrum.txt
Measurement: Hemispherical reflectance
X Units: Wavelength (micrometers)
Y Units: Reflectance (percent)
wavelength	value
15.3853	3.5595
15.1161	2.6864
14.8563	2.6957
14.6052	2.903
14.3624	2.3196
14.1276	1.7258
13.9004	1.4151
13.6803	1.681
13.4671	1.8737
13.2604	1.7571
13.06	2.0471
12.8656	1.6241
12.6769	1.7413
12.4936	2.2088
12.3155	2.5337
12.1425	3.6233
11.9742	2.2417
11.8106	0.669
11.6513	0.8885
11.4963	1.0669
11.3454	1.3329
11.1983	1.5085
11.0551	1.6263
10.9154	1.7516
10.7793	2.348
10.6465	2.8712
10.5169	2.7072
10.3904	1.3715
10.267	2.1593
10.1464	3.0038
10.0287	4.4869
9.9136	4.7336
9.8012	3.1476
9.6913	3.3452
9.5838	2.9105
9.4787	1.4549
9.3758	0.7905
9.2752	0.9732
9.1767	0.7453
9.0803	0.5522
8.9858	0.7581
8.8934	1.4662
8.8028	2.455
8.714	1.1156
8.627	0.783
8.5417	0.7398
8.4581	0.8177
8.3761	1.018
8.2957	1.0739
8.2169	0.9924
8.1395	1.0833
8.0635	1.0634
7.989	1.3392
7.9158	1.2415
7.8439	1.3002
7.7734	1.0559
7.7041	0.8887
7.636	0.9638
7.5691	1.2647
7.5034	1.6903
7.4388	1.8633
7.3753	1.6184
7.3129	1.1825
7.2515	1.3078
7.1912	1.3311
7.1318	1.1896
7.0734	1.294
7.016	1.5618
6.9595	1.6773
6.9039	1.3398
6.8492	1.407
6.7953	2.0971
6.7423	2.7135
6.6901	3.0798
6.6387	2.5108
6.5881	1.159
6.5382	0.4147
6.4892	0.4102
6.4408	0.4192
6.3931	0.5483
6.3462	0.8143
6.2999	0.8018
6.2543	1.0336
6.2094	0.9044
6.1651	0.9234
6.1214	0.8099
6.0784	0.6392
6.0359	0.5431
5.994	0.5165
5.9527	0.5376
5.912	0.4638
5.8718	0.741
5.8322	1.1305
5.7931	1.4325
5.7545	1.9059
5.7165	2.187
5.6789	2.425
5.6418	2.7277
5.6052	2.7516
5.5691	2.9665
5.5334	3.1171
5.4982	3.3127
5.4635	3.7023
5.4291	3.8408
5.3952	4.1371
5.3618	4.6633
5.3287	5.087
5.2961	5.2426
5.2638	5.2119
5.2319	5.2491
5.2004	5.1804
5.1693	5.2742
5.1386	5.3473
5.1082	5.7071
5.0782	5.8729
5.0485	6.0207
5.0192	6.2177
4.9902	6.2195
4.9616	6.0438
4.9332	6.1094
4.9052	6.2749
4.8776	6.3468
4.8502	6.5536
4.8231	6.8886
4.7963	6.8195
4.7699	6.8484
4.7437	6.6582
4.7178	6.7796
4.6922	6.697
4.6668	6.3846
4.6418	6.2653
4.617	6.1853
4.5924	6.0881
4.5681	5.9681
4.5441	5.787
4.5203	5.6774
4.4968	5.8941
4.4735	5.979
4.4505	6.3281
4.4277	6.3292
4.4051	6.3236
4.3828	6.1444
4.3607	6.0673
4.3388	6.1591
4.3171	6.1459
4.2956	5.9927
4.2744	5.9037
4.2534	5.7345
4.2325	5.4153
4.2119	4.6589
4.1915	4.0384
4.1712	3.2287
4.1512	2.5563
4.1313	2.0471
4.1117	1.7041
4.0922	1.7788
4.0729	1.8999
4.0538	1.9844
4.0349	2.08
4.0161	2.1074
3.9976	2.1056
3.9792	2.2976
3.9609	2.3322
3.9428	2.2671
3.9249	2.3319
3.9072	2.0911
3.8896	1.9088
3.8722	1.658
3.8549	1.595
3.8378	1.4579
3.8208	1.5526
3.804	1.6231
3.7873	1.6814
3.7708	1.7056
3.7544	1.7821
3.7382	1.8744
3.7221	1.8353
3.7061	1.8378
3.6903	1.859
3.6746	1.7129
3.659	1.6084
3.6436	1.5035
3.6283	1.6083
3.6131	1.3629
3.5981	1.2869
3.5832	1.2748
3.5684	1.2965
3.5537	1.1699
3.5391	1.0933
3.5247	1.161
3.5104	1.1028
3.4962	1.1897
3.4821	1.0669
3.4681	1.0429
3.4543	1.1108
3.4405	0.8806
3.4269	1.017
3.4133	1.0459
3.3999	1.086
3.3866	0.8531
3.3733	0.9563
3.3602	1.0295
3.3472	0.9551
3.3343	0.8217
3.3215	0.8139
3.3088	0.7824
3.2961	0.8211
3.2836	0.8435
3.2712	0.8235
3.2588	0.7889
3.2466	0.9659
3.2345	0.7771
3.2224	0.7293
3.2104	0.7703
3.1985	0.9089
3.1867	0.7947
3.175	0.9377
3.1634	0.7963
3.1519	0.8476
3.1404	0.7904
3.129	0.9071
3.1178	0.8386
3.1065	0.8821
3.0954	0.9775
3.0844	0.7999
3.0734	0.9755
3.0625	0.877
3.0517	0.9895
3.041	0.943
3.0303	0.9885
3.0197	1.0324
3.0092	1.0601
2.9987	0.9733
2.9884	0.956
2.9781	0.9993
2.9678	0.7011
2.9577	0.5792
2.9476	0.3034
2.9376	0.4329
2.9276	0.4207
2.9177	0.3521
2.9079	0.4142
2.8982	0.4831
2.8885	0.4649
2.8789	0.2841
2.8693	0.4809
2.8598	0.2922
2.8504	0.3898
2.841	0.5417
2.8317	0.3282
2.8224	0.6242
2.8133	0.3386
2.8041	0.6458
2.7951	0.7079
2.786	0.6918
2.7771	1.0946
2.7682	1.0162
2.7594	1.2698
2.7506	1.8195
2.7418	3.1694
2.7332	4.8996
2.7246	7.3417
2.716	9.312
2.7075	11.5401
2.699	13.2929
2.6906	15.0503
2.6823	16.584
2.674	17.8086
2.6657	19.1623
2.6575	19.9153
2.6494	20.8513
2.6413	21.8266
2.6332	23.0886
2.6252	23.6883
2.6173	24.5361
2.6094	24.8453
2.6015	25.2537
2.5937	25.9477
2.5859	25.6795
2.5782	25.6539
2.5706	25.7735
2.5629	25.6838
2.5554	24.986
2.5478	24.4406
2.5403	23.8419
2.5329	23.737
2.5255	23.8504
2.5181	24.5372
2.5108	25.9109
2.5035	26.7997
2.4963	27.981
2.4891	29.155
2.482	30.0768
2.4749	30.9124
2.4678	31.7481
2.4608	32.3329
2.4538	32.8425
2.4468	32.9681
2.4399	33.2721
2.4331	33.7357
2.4262	34.3978
2.4194	35.156
2.4127	36.2667
2.4059	36.9144
2.3993	38.1319
2.3926	39.1637
2.386	40.2695
2.3795	41.1001
2.3729	41.7206
2.3664	42.4825
2.36	43.1719
2.3535	43.3814
2.3471	43.6634
2.3408	43.9841
2.3345	44.1912
2.3282	44.1355
2.3219	44.1647
2.3157	44.0113
2.3095	44.001
2.3034	44.1474
2.2972	44.2546
2.2911	44.1592
2.2851	44.1285
2.279	44.1306
2.2731	44.2383
2.2671	44.1532
2.2612	44.2296
2.2553	44.3739
2.2494	44.432
2.2435	44.5183
2.2377	44.5389
2.232	44.6892
2.2262	44.5984
2.2205	45.0556
2.2148	45.341
2.2091	45.5677
2.2035	45.7689
2.1979	45.8023
2.1923	45.9354
2.1868	45.674
2.1812	45.472
2.1758	45.065
2.1703	44.3603
2.1649	43.731
2.1595	42.6557
2.1541	42.7293
2.1487	42.6946
2.1434	43.7233
2.1381	44.5031
2.1328	45.1979
2.1275	45.3646
2.1223	45.3304
2.1171	45.3544
2.112	45.2925
2.1068	44.734
2.1017	45.0472
2.0966	44.9422
2.0915	44.9941
2.0865	44.8026
2.0814	44.7183
2.0764	44.7803
2.0715	44.2175
2.0665	44.3624
2.0616	44.347
2.0567	44.3348
2.0518	44.0203
2.0469	43.5658
2.0421	43.3689
2.0373	43.4328
2.0325	43.0328
2.0277	43.1776
2.0229	42.6741
2.0182	42.3865
2.0135	42.3096
2.0088	42.1992
2.0042	41.9143
