Name: Quartz SiO_2
Type: Mineral
Class: Silicate
Subclass: Tectosilicate
Particle Size: Coarse
Sample No.: TS-1B
Owner: JPL
Wavelength Range: TIR
Origin: Brazil, Minas Gerais
Description: Smoky quartz. Particle size was 125-500um.Collected by Burminco Original ASTER Spectral Library name was jpl.nicolet.mineral.silicate.tectosilicate.coarse.ts01b.spectrum.txt
Measurement: Hemispherical reflectance
X Units: Wavelength (micrometers)
Y Units: Reflectance (percent)
wavelength	value
15.3853	4.0255
15.1161	4.3734
14.8563	4.5967
14.6052	5.0582
14.3624	5.0635
14.1276	3.595
13.9004	4.6832
13.6803	5.2236
13.4671	5.6563
13.2604	6.7592
13.06	8.4253
12.8656	14.3301
12.6769	11.1927
12.4936	14.0065
12.3155	1.6079
12.1425	2.0022
11.9742	2.9417
11.8106	3.8988
11.6513	4.46
11.4963	4.8902
11.3454	5.3082
11.1983	5.545
11.0551	6.0336
10.9154	6.5949
10.7793	6.9842
10.6465	7.3946
10.5169	7.8997
10.3904	8.4158
10.267	9.1927
10.1464	10.0246
10.0287	11.047
9.9136	12.3503
9.8012	14.1292
9.6913	16.8181
9.5838	20.2005
9.4787	27.1143
9.3758	44.1727
9.2752	59.7147
9.1767	62.9053
9.0803	64.5127
8.9858	65.2266
8.8934	65.2087
8.8028	62.4723
8.714	57.468
8.627	36.6415
8.5417	58.2545
8.4581	59.8368
8.3761	57.4217
8.2957	55.0971
8.2169	51.9418
8.1395	41.192
8.0635	25.5583
7.989	15.6584
7.9158	8.5376
7.8439	4.5838
7.7734	2.6664
7.7041	1.4178
7.636	0.5766
7.5691	0.3287
7.5034	0.0628
7.4388	0.0154
7.3753	0.0289
7.3129	0.0421
7.2515	0.0344
7.1912	0.0478
7.1318	0.1246
7.0734	0.2742
7.016	0.4543
6.9595	0.4586
6.9039	0.5007
6.8492	0.4901
6.7953	0.525
6.7423	0.5662
6.6901	0.6174
6.6387	0.7228
6.5881	0.7585
6.5382	0.8375
6.4892	0.869
6.4408	1.2791
6.3931	1.2841
6.3462	0.9782
6.2999	1.0532
6.2543	0.9805
6.2094	1.0393
6.1651	1.0826
6.1214	1.2803
6.0784	1.3566
6.0359	1.5406
5.994	1.4088
5.9527	1.2634
5.912	1.2997
5.8718	1.5743
5.8322	1.8518
5.7931	2.146
5.7545	2.6022
5.7165	2.8061
5.6789	2.4735
5.6418	1.736
5.6052	1.5896
5.5691	1.6229
5.5334	1.6876
5.4982	1.8037
5.4635	2.0925
5.4291	1.9519
5.3952	1.653
5.3618	1.5374
5.3287	1.4785
5.2961	1.4736
5.2638	1.4981
5.2319	1.723
5.2004	2.0684
5.1693	2.1079
5.1386	2.0374
5.1082	2.1185
5.0782	1.9134
5.0485	1.9045
5.0192	1.8361
4.9902	1.8945
4.9616	2.2925
4.9332	2.7277
4.9052	4.0019
4.8776	8.0327
4.8502	12.3089
4.8231	15.8433
4.7963	18.6873
4.7699	21.3554
4.7437	23.2971
4.7178	23.6217
4.6922	19.3945
4.6668	20.3255
4.6418	25.9541
4.617	30.6488
4.5924	32.7553
4.5681	32.4819
4.5441	28.7818
4.5203	22.2328
4.4968	15.9198
4.4735	14.1058
4.4505	15.4159
4.4277	17.1808
4.4051	19.7387
4.3828	23.7469
4.3607	28.4042
4.3388	31.728
4.3171	32.6111
4.2956	31.701
4.2744	32.7904
4.2534	34.6836
4.2325	34.043
4.2119	34.4026
4.1915	34.5971
4.1712	36.5029
4.1512	37.9335
4.1313	39.7474
4.1117	41.8908
4.0922	44.4437
4.0729	46.3834
4.0538	46.9408
4.0349	46.5254
4.0161	46.1894
3.9976	46.3047
3.9792	47.6193
3.9609	49.2965
3.9428	51.1853
3.9249	52.3111
3.9072	52.2852
3.8896	51.0659
3.8722	49.7267
3.8549	49.0927
3.8378	49.3108
3.8208	50.3991
3.804	51.0767
3.7873	50.758
3.7708	49.6714
3.7544	48.5265
3.7382	48.3275
3.7221	49.326
3.7061	51.5518
3.6903	54.4313
3.6746	57.1865
3.659	59.482
3.6436	60.6907
3.6283	61.11
3.6131	61.4288
3.5981	62.0725
3.5832	63.0532
3.5684	64.254
3.5537	65.893
3.5391	67.4713
3.5247	69.0671
3.5104	70.3335
3.4962	71.2561
3.4821	72.9268
3.4681	73.9119
3.4543	74.6778
3.4405	74.5983
3.4269	73.9076
3.4133	73.2566
3.3999	74.1561
3.3866	74.5677
3.3733	74.6568
3.3602	76.0418
3.3472	76.7034
3.3343	76.991
3.3215	77.0276
3.3088	76.577
3.2961	76.5346
3.2836	76.2038
3.2712	76.2074
3.2588	76.2614
3.2466	76.5533
3.2345	76.3957
3.2224	76.4647
3.2104	76.3135
3.1985	76.2557
3.1867	75.9815
3.175	75.9307
3.1634	75.498
3.1519	74.6655
3.1404	72.2217
3.129	70.8742
3.1178	71.7054
3.1065	73.4907
3.0954	74.841
3.0844	75.283
3.0734	74.9283
3.0625	73.4298
3.0517	71.4131
3.041	69.2805
3.0303	68.5143
3.0197	68.9514
3.0092	69.8878
2.9987	71.1952
2.9884	71.6306
2.9781	71.0865
2.9678	67.5698
2.9577	65.4518
2.9476	69.0104
2.9376	70.7541
2.9276	71.2687
2.9177	71.1317
2.9079	72.3072
2.8982	73.924
2.8885	75.1453
2.8789	76.0755
2.8693	76.7983
2.8598	77.5124
2.8504	78.0842
2.841	78.5197
2.8317	78.8384
2.8224	79.1786
2.8133	79.4603
2.8041	79.8186
2.7951	79.7366
2.786	80.243
2.7771	80.2745
2.7682	81.0487
2.7594	80.7403
2.7506	81.463
2.7418	82.4348
2.7332	82.4743
2.7246	83.7273
2.716	83.2959
2.7075	83.4132
2.699	83.4466
2.6906	83.8935
2.6823	83.9981
2.674	84.2508
2.6657	85.1023
2.6575	84.3072
2.6494	84.2376
2.6413	84.3719
2.6332	84.4872
2.6252	84.3008
2.6173	84.7667
2.6094	84.3716
2.6015	84.4339
2.5937	85.031
2.5859	84.5655
2.5782	84.2755
2.5706	84.5147
2.5629	84.7414
2.5554	84.1785
2.5478	84.2364
2.5403	84.1109
2.5329	84.1286
2.5255	84.2311
2.5181	84.3369
2.5108	84.1449
2.5035	84.0833
2.4963	83.9829
2.4891	84.0721
2.482	84.1708
2.4749	84.1152
2.4678	84.1578
2.4608	84.1455
2.4538	84.3057
2.4468	84.1457
2.4399	84.1986
2.4331	84.3472
2.4262	84.1869
2.4194	84.3099
2.4127	84.1583
2.4059	84.1378
2.3993	84.2367
2.3926	84.1998
2.386	84.3235
2.3795	84.2609
2.3729	84.2286
2.3664	84.419
2.36	84.3355
2.3535	84.2897
2.3471	84.1882
2.3408	84.2881
2.3345	84.3862
2.3282	84.2473
2.3219	84.2374
2.3157	84.4135
2.3095	84.2329
2.3034	84.295
2.2972	84.0942
2.2911	84.2424
2.2851	84.2693
2.279	84.3477
2.2731	84.237
2.2671	84.2149
2.2612	84.3086
2.2553	84.2432
2.2494	84.1755
2.2435	84.2264
2.2377	84.2092
2.232	84.2217
2.2262	84.1547
2.2205	84.2796
2.2148	84.2283
2.2091	84.1035
2.2035	84.0952
2.1979	84.1873
2.1923	84.1261
2.1868	84.2223
2.1812	84.0687
2.1758	84.2679
2.1703	84.3492
2.1649	84.0305
2.1595	83.9792
2.1541	84.3558
2.1487	84.1934
2.1434	83.9888
2.1381	84.2913
2.1328	84.2009
2.1275	83.935
2.1223	84.2571
2.1171	84.315
2.112	83.9165
2.1068	84.2213
2.1017	84.1589
2.0966	84.0052
2.0915	84.0478
2.0865	84.074
2.0814	84.117
2.0764	84.2672
2.0715	84.3718
2.0665	84.1104
2.0616	83.9772
2.0567	84.1222
2.0518	84.2221
2.0469	84.0122
2.0421	83.9649
2.0373	83.9396
2.0325	83.7814
2.0277	84.1891
2.0229	84.0488
2.0182	84.0282
2.0135	83.6653
2.0088	84.0617
2.0042	84.0103
