Name: Montebrasite LiAlPO_4(OH)
Type: Mineral
Class: Phosphate
Subclass: None
Particle Size: Coarse
Sample No.: P-2A
Owner: JPL
Wavelength Range: TIR
Origin: USA, Couth Dakota, Custer County, Custer
Description: Particle size was 125-500um.Collected by Burminco Original ASTER Spectral Library name was jpl.nicolet.mineral.phosphate.none.coarse.p02a.spectrum.txt
Measurement: Hemispherical reflectance
X Units: Wavelength (micrometers)
Y Units: Reflectance (percent)
wavelength	value
15.3853	8.6298
15.1161	8.7613
14.8563	7.5273
14.6052	2.8388
14.3624	1.1204
14.1276	0.7408
13.9004	0.8342
13.6803	1.0771
13.4671	1.4271
13.2604	1.6269
13.06	2.0735
12.8656	2.7468
12.6769	3.4718
12.4936	4.7225
12.3155	6.1993
12.1425	7.104
11.9742	6.1255
11.8106	2.1206
11.6513	1.8366
11.4963	2.1556
11.3454	2.39
11.1983	2.6955
11.0551	3.0614
10.9154	3.3841
10.7793	3.538
10.6465	4.0501
10.5169	4.4413
10.3904	5.0967
10.267	5.4963
10.1464	6.5301
10.0287	8.3114
9.9136	10.566
9.8012	13.2184
9.6913	10.441
9.5838	8.2731
9.4787	12.4977
9.3758	20.4326
9.2752	27.8463
9.1767	35.0029
9.0803	38.0155
8.9858	36.9084
8.8934	34.7041
8.8028	30.8181
8.714	23.3658
8.627	23.7304
8.5417	24.9017
8.4581	22.1781
8.3761	16.009
8.2957	13.6362
8.2169	12.7233
8.1395	7.8943
8.0635	2.9393
7.989	0.8558
7.9158	0.3205
7.8439	0.244
7.7734	0.1273
7.7041	0.1729
7.636	0.1778
7.5691	0.2664
7.5034	0.328
7.4388	0.379
7.3753	0.4817
7.3129	0.5338
7.2515	0.6328
7.1912	0.7816
7.1318	0.7275
7.0734	0.825
7.016	0.861
6.9595	0.9938
6.9039	1.0916
6.8492	1.1551
6.7953	1.2973
6.7423	1.4092
6.6901	1.4005
6.6387	1.7483
6.5881	1.692
6.5382	1.6964
6.4892	1.9502
6.4408	1.8252
6.3931	1.9321
6.3462	1.9019
6.2999	1.8113
6.2543	1.8416
6.2094	1.9168
6.1651	1.9957
6.1214	2.1489
6.0784	2.4146
6.0359	2.5479
5.994	2.7213
5.9527	2.8822
5.912	2.982
5.8718	3.3037
5.8322	3.4693
5.7931	3.599
5.7545	4.075
5.7165	4.4793
5.6789	5.0729
5.6418	5.6583
5.6052	6.1191
5.5691	6.4752
5.5334	6.735
5.4982	7.0298
5.4635	7.132
5.4291	6.9206
5.3952	6.6414
5.3618	6.5994
5.3287	6.9011
5.2961	7.1824
5.2638	7.6307
5.2319	8.0158
5.2004	8.3537
5.1693	8.7749
5.1386	8.8997
5.1082	8.4352
5.0782	7.5423
5.0485	6.38
5.0192	5.075
4.9902	4.3274
4.9616	3.9083
4.9332	3.7332
4.9052	3.4269
4.8776	3.1084
4.8502	2.9097
4.8231	2.8732
4.7963	2.9402
4.7699	2.7547
4.7437	2.5674
4.7178	2.7369
4.6922	2.8422
4.6668	3.0499
4.6418	3.04
4.617	3.0273
4.5924	3.2411
4.5681	3.2692
4.5441	3.2684
4.5203	3.5499
4.4968	3.4712
4.4735	3.7197
4.4505	3.8904
4.4277	3.6444
4.4051	3.5355
4.3828	3.8316
4.3607	4.2681
4.3388	4.4729
4.3171	4.5761
4.2956	4.193
4.2744	4.2138
4.2534	4.4311
4.2325	4.8969
4.2119	5.1886
4.1915	5.323
4.1712	5.585
4.1512	6.4439
4.1313	7.6619
4.1117	9.2417
4.0922	10.6972
4.0729	11.767
4.0538	12.503
4.0349	12.879
4.0161	13.056
3.9976	13.1843
3.9792	13.2901
3.9609	13.7469
3.9428	13.9619
3.9249	14.0263
3.9072	13.989
3.8896	14.0984
3.8722	14.2524
3.8549	14.5211
3.8378	15.1564
3.8208	15.7238
3.804	16.131
3.7873	16.4331
3.7708	16.8073
3.7544	17.0475
3.7382	17.3173
3.7221	17.3402
3.7061	17.5551
3.6903	17.4021
3.6746	17.1682
3.659	17.0661
3.6436	16.5375
3.6283	16.2709
3.6131	15.8116
3.5981	15.5498
3.5832	15.5352
3.5684	15.2898
3.5537	15.1416
3.5391	14.7966
3.5247	14.3607
3.5104	13.6358
3.4962	13.2454
3.4821	12.8872
3.4681	12.5065
3.4543	12.21
3.4405	11.966
3.4269	11.8762
3.4133	11.5787
3.3999	11.0296
3.3866	10.7447
3.3733	10.3579
3.3602	9.9811
3.3472	9.5166
3.3343	8.9619
3.3215	8.5268
3.3088	7.9369
3.2961	7.3787
3.2836	6.8139
3.2712	6.3233
3.2588	6.044
3.2466	5.9063
3.2345	5.736
3.2224	5.5989
3.2104	5.6587
3.1985	5.4692
3.1867	5.4511
3.175	5.1586
3.1634	4.8924
3.1519	4.6672
3.1404	4.5437
3.129	4.4907
3.1178	4.3273
3.1065	4.1877
3.0954	4.0789
3.0844	4.1241
3.0734	4.1939
3.0625	3.9933
3.0517	4.1483
3.041	4.1026
3.0303	4.228
3.0197	4.1385
3.0092	4.0735
2.9987	4.1666
2.9884	3.8946
2.9781	4.0317
2.9678	4.286
2.9577	4.3655
2.9476	4.1868
2.9376	3.3204
2.9276	2.9245
2.9177	2.8435
2.9079	3.0353
2.8982	3.3768
2.8885	3.6378
2.8789	3.5877
2.8693	3.7443
2.8598	3.6416
2.8504	3.7574
2.841	3.7221
2.8317	3.8457
2.8224	4.6104
2.8133	4.4728
2.8041	5.1106
2.7951	5.3157
2.786	6.0111
2.7771	6.431
2.7682	7.0472
2.7594	7.5314
2.7506	8.3866
2.7418	9.5194
2.7332	10.3107
2.7246	11.4759
2.716	12.1801
2.7075	13.4143
2.699	14.3388
2.6906	15.3708
2.6823	15.7936
2.674	15.957
2.6657	16.8099
2.6575	15.8587
2.6494	15.4989
2.6413	15.3666
2.6332	15.3157
2.6252	14.6792
2.6173	14.4143
2.6094	14.0027
2.6015	14.2343
2.5937	15.5207
2.5859	15.5386
2.5782	15.8631
2.5706	16.606
2.5629	16.9628
2.5554	17.0185
2.5478	18.0187
2.5403	18.8677
2.5329	19.6241
2.5255	20.1519
2.5181	20.727
2.5108	21.1761
2.5035	21.4416
2.4963	22.0289
2.4891	22.7415
2.482	24.1367
2.4749	26.1421
2.4678	28.2296
2.4608	30.9132
2.4538	33.4288
2.4468	36.0067
2.4399	38.1386
2.4331	39.2876
2.4262	39.8964
2.4194	39.482
2.4127	38.2141
2.4059	35.5134
2.3993	31.2937
2.3926	24.7485
2.386	17.644
2.3795	12.8523
2.3729	11.4838
2.3664	16.0485
2.36	23.6337
2.3535	34.1148
2.3471	42.0691
2.3408	45.8934
2.3345	47.8078
2.3282	48.7671
2.3219	48.6716
2.3157	47.9396
2.3095	46.8031
2.3034	45.581
2.2972	44.0316
2.2911	41.541
2.2851	38.7083
2.279	36.814
2.2731	36.5409
2.2671	36.3419
2.2612	35.3888
2.2553	33.8702
2.2494	32.195
2.2435	30.3476
2.2377	29.0012
2.232	27.3593
2.2262	25.6381
2.2205	23.8913
2.2148	22.6019
2.2091	20.29
2.2035	17.4834
2.1979	14.8995
2.1923	13.2822
2.1868	11.6012
2.1812	10.6967
2.1758	10.1559
2.1703	10.1807
2.1649	13.9831
2.1595	22.6877
2.1541	31.9024
2.1487	37.9621
2.1434	41.8371
2.1381	44.059
2.1328	45.1275
2.1275	45.8746
2.1223	46.4819
2.1171	47.3013
2.112	47.7777
2.1068	48.6129
2.1017	49.2478
2.0966	49.8123
2.0915	50.136
2.0865	50.2242
2.0814	50.1018
2.0764	48.7309
2.0715	48.5831
2.0665	48.9198
2.0616	48.8306
2.0567	48.9427
2.0518	49.4231
2.0469	50.2957
2.0421	51.2108
2.0373	51.8889
2.0325	52.5556
2.0277	52.6266
2.0229	52.4785
2.0182	51.393
2.0135	49.1601
2.0088	44.8417
2.0042	39.5804
