Name: Vesuvianite Ca_10(Mg,Fe^2+)_2Al_4(Si_2O_7)_2(SiO_4)_5(OH,F)_4
Type: Mineral
Class: Silicate
Subclass: Sorosilicate
Particle Size: Fine
Sample No.: SS-3A
Owner: JPL
Wavelength Range: VSWIR
Origin: USA, California, Riverside County, Crestmore Quarry
Description: Particle size was 0-45um.Collected by Burminco Original ASTER Spectral Library name was jpl.beckman.mineral.silicate.sorosilicate.fine.ss03a.spectrum.txt
Measurement: Hemispherical reflectance
X Units: Wavelength (micrometers)
Y Units: Reflectance (percent)
wavelength	value
0.4	57.03
0.403	58.42
0.406	59.31
0.409	59.82
0.412	60.52
0.415	61.09
0.418	61.49
0.421	62.24
0.424	62.94
0.427	63.45
0.43	64.13
0.433	64.53
0.436	65.07
0.439	65.5
0.442	66.2
0.445	66.77
0.448	67.43
0.451	67.99
0.454	68.54
0.457	68.83
0.46	68.87
0.463	69.67
0.466	70.97
0.469	71.58
0.472	72.02
0.475	72.54
0.478	72.99
0.481	73.17
0.484	73.49
0.487	73.75
0.49	73.98
0.493	74.19
0.496	74.36
0.499	74.45
0.502	74.89
0.505	74.94
0.508	75.13
0.511	75.31
0.514	75.36
0.517	75.29
0.52	75.53
0.523	75.51
0.526	75.48
0.529	75.61
0.532	75.62
0.535	75.62
0.538	76
0.541	75.94
0.544	75.97
0.547	76.12
0.55	76.19
0.553	76.16
0.556	76.35
0.559	76.41
0.562	76.78
0.565	76.78
0.568	77.04
0.571	76.94
0.574	76.86
0.577	76.86
0.58	76.93
0.583	76.8
0.586	77.01
0.589	76.97
0.592	77.05
0.595	76.93
0.598	77.06
0.601	77.09
0.604	77.45
0.607	77.25
0.61	77.26
0.613	77.18
0.616	77.37
0.619	77.12
0.622	77.28
0.625	77.33
0.628	77.37
0.631	77.35
0.634	77.29
0.637	77.46
0.64	77.59
0.643	77.75
0.646	77.57
0.649	77.63
0.652	77.6
0.655	77.86
0.658	77.84
0.661	77.94
0.664	77.93
0.667	77.94
0.67	78.09
0.673	78.1
0.676	78.26
0.679	78.26
0.682	78.09
0.685	78.29
0.688	78.24
0.691	78.36
0.694	78.57
0.697	78.68
0.7	78.52
0.703	78.48
0.706	78.5
0.709	78.68
0.712	78.65
0.715	78.67
0.718	78.72
0.721	78.6
0.724	78.6
0.727	78.7
0.73	78.69
0.733	78.75
0.736	78.77
0.739	78.62
0.742	78.61
0.745	78.82
0.748	78.8
0.751	78.86
0.754	78.82
0.757	78.74
0.76	78.68
0.763	78.81
0.766	78.83
0.769	78.91
0.772	78.78
0.775	78.82
0.778	78.71
0.781	78.86
0.784	78.79
0.787	78.94
0.79	78.97
0.793	78.89
0.796	78.97
0.799	79.05
0.808	79.1
0.82	79.24
0.832	79.23
0.844	79.19
0.856	79.11
0.868	79.03
0.88	78.73
0.892	78.56
0.904	78.21
0.916	77.84
0.928	77.62
0.94	77.94
0.952	78.55
0.964	79.15
0.976	79.45
0.988	79.65
1	79.71
1.012	79.8
1.024	79.9
1.036	80.05
1.048	79.94
1.06	80.06
1.072	80.17
1.084	80.16
1.096	80.26
1.108	80.39
1.12	80.4
1.132	80.48
1.144	80.5
1.156	80.47
1.168	80.58
1.18	80.68
1.192	80.73
1.204	80.83
1.216	80.87
1.228	80.77
1.24	80.96
1.252	80.85
1.264	80.96
1.276	80.94
1.288	81.05
1.3	81.08
1.312	80.94
1.324	80.99
1.336	81
1.348	80.82
1.36	80.75
1.372	80.54
1.384	79.12
1.396	78.23
1.408	78.83
1.42	79.43
1.432	78.89
1.444	79.75
1.456	79.81
1.468	80.03
1.48	80.28
1.492	80.33
1.504	80.5
1.516	80.67
1.528	80.63
1.54	80.53
1.552	80.69
1.564	80.67
1.576	80.54
1.588	80.67
1.6	80.62
1.612	80.49
1.624	80.54
1.636	80.46
1.648	80.4
1.66	80.47
1.672	80.33
1.684	80.34
1.696	80.35
1.708	80.23
1.72	80.34
1.732	80.13
1.744	80.13
1.756	80.07
1.768	79.96
1.78	80.04
1.792	79.88
1.804	79.97
1.816	79.9
1.828	79.75
1.84	79.63
1.852	79.48
1.864	79.29
1.876	79.08
1.888	78.81
1.9	78.4
1.912	78.27
1.924	78.08
1.936	77.94
1.948	77.85
1.96	77.47
1.972	77.3
1.984	77.24
1.996	77.7
2.008	77.88
2.02	78.08
2.032	78.31
2.044	78.31
2.056	78.09
2.068	78.14
2.08	77.88
2.092	77.7
2.104	77.03
2.116	76.39
2.128	75.49
2.14	74.82
2.152	74.38
2.164	74.28
2.176	73.74
2.188	73.15
2.2	72.16
2.212	71.16
2.224	70.92
2.236	70.24
2.248	69.45
2.26	68.55
2.272	67.61
2.284	66.6
2.296	65.4
2.308	64.22
2.32	63.65
2.332	62.56
2.344	61.87
2.356	62.01
2.368	62.55
2.38	62.99
2.392	62.68
2.404	62.59
2.416	62.48
2.428	62.46
2.44	62.55
2.452	62.58
2.464	62.66
2.476	62.53
2.488	62.64
2.5	62.83
