Name: Topaz Al2SiO4(F,OH)2
Type: Mineral
Class: Silicate
Subclass: Nesosilicate
Particle Size: Solid
Sample No.: topaz_2
Owner: JHU
Wavelength Range: TIR
Origin: Ouro Preto, Brazil via Don Hoover, USGS
Description: The sample consisted of several orange-colored, rounded (tumbled) grains, each about 1 cm in diameter.  Under the microscope, the sample appeared to be pure topaz with abundant fluid inclusions. Sample was random polished surface.(Isolated tetrahedra) Original ASTER Spectral Library name was jhu.nicolet.mineral.silicate.nesosilicate.solid.topaz2.spectrum.txt
Measurement: Bidirectional reflectance
X Units: Wavelength (micrometers)
Y Units: Reflectance (percent)
wavelength	value
25.0442	26.6318
24.3388	25.0058
23.6719	27.7887
23.0407	35.6498
22.4422	45.8554
21.8741	53.0738
21.334	40.6669
20.8199	37.5336
20.33	33.9931
19.8627	32.9277
19.4163	28.1069
18.9896	26.6552
18.5812	30.8398
18.19	32.9562
17.815	19.029
17.4551	11.8737
17.1094	15.1672
16.7772	21.1748
16.4576	31.571
16.15	41.0182
15.8537	44.6271
15.568	43.4359
15.2925	38.1437
15.0265	27.2138
14.7697	14.0966
14.5214	6.989
14.2814	5.5876
14.0492	2.8579
13.8244	4.3533
13.6067	6.2466
13.3957	7.8342
13.1912	9.1089
12.9929	9.6433
12.8004	10.6189
12.6135	12.749
12.432	15.1032
12.2557	18.1914
12.0843	22.7883
11.9176	29.2807
11.7555	35.6693
11.5977	41.6334
11.444	47.5375
11.2944	50.6634
11.1487	51.6886
11.0067	51.2086
10.8682	51.7577
10.7332	54.8436
10.6015	56.6283
10.473	55.2943
10.3476	48.3661
10.2251	36.3756
10.1056	38.1107
9.9887	39.8473
9.8746	34.8844
9.763	30.7343
9.6539	29.155
9.5472	26.1364
9.4429	19.6726
9.3408	12.0879
9.2409	5.2075
9.1431	1.2517
9.0474	0.4517
8.9536	0.9414
8.8618	1.8262
8.7718	3.4656
8.6837	6.7002
8.5973	9.9262
8.5126	11.0371
8.4295	5.6518
8.3481	1.2932
8.2682	0.7219
8.1898	0.8437
8.1129	1.1396
8.0374	1.4136
7.9634	1.6631
7.8906	1.8882
7.8192	2.0911
7.7491	2.272
7.6802	2.4326
7.6126	2.5798
7.5461	2.7261
7.4807	2.8645
7.4165	3.0051
7.3534	3.1311
7.2914	3.2512
7.2303	3.3479
7.1703	3.4248
7.1113	3.5391
7.0533	3.6252
6.9962	3.729
6.94	3.8318
6.8847	3.9116
6.8302	3.991
6.7767	3.9768
6.7239	4.0452
6.672	4.0898
6.6209	4.1357
6.5705	4.1958
6.5209	4.2661
6.4721	4.3152
6.424	4.3467
6.3766	4.4612
6.3299	4.5359
6.2838	4.6228
6.2385	4.6716
6.1937	4.6843
6.1496	4.7349
6.1062	4.7666
6.0633	4.7612
6.0211	4.8603
5.9794	4.884
5.9383	4.8955
5.8978	4.918
5.8578	5.022
5.8184	5.062
5.7794	5.1736
5.741	5.3765
5.7031	5.2744
5.6657	5.124
5.6288	5.1343
5.5924	5.1645
5.5564	5.1855
5.5209	5.2187
5.4859	5.2327
5.4513	5.2524
5.4171	5.2649
5.3833	5.3059
5.35	5.3164
5.3171	5.3562
5.2846	5.3806
5.2524	5.4148
5.2207	5.4372
5.1893	5.4704
5.1584	5.4963
5.1277	5.5215
5.0975	5.5442
5.0676	5.5627
5.038	5.5781
5.0088	5.594
4.98	5.6108
4.9514	5.6267
4.9232	5.6452
4.8953	5.6621
4.8678	5.6819
4.8405	5.7002
4.8135	5.7222
4.7868	5.7424
4.7605	5.7632
4.7344	5.7798
4.7086	5.7932
4.6831	5.8078
4.6578	5.8237
4.6328	5.8386
4.6081	5.852
4.5837	5.8638
4.5595	5.8745
4.5356	5.886
4.5119	5.8979
4.4884	5.9097
4.4652	5.9221
4.4423	5.9348
4.4196	5.946
4.3971	5.9568
4.3748	5.9663
4.3528	5.9756
4.331	5.9848
4.3094	5.9966
4.288	6.0061
4.2668	6.0154
4.2458	6.0246
4.2251	6.0337
4.2045	6.043
4.1841	6.0525
4.164	6.0637
4.144	6.0727
4.1242	6.0849
4.1046	6.0976
4.0852	6.1047
4.066	6.1055
4.047	6.1006
4.0281	6.0954
4.0094	6.0928
3.9909	6.0957
3.9725	6.1059
3.9544	6.1235
3.9363	6.1438
3.9185	6.1628
3.9008	6.1809
3.8833	6.1963
3.8659	6.208
3.8487	6.2168
3.8316	6.2226
3.8147	6.2253
3.7979	6.2265
3.7813	6.2253
3.7648	6.2231
3.7485	6.2214
3.7323	6.2175
3.7162	6.2165
3.7003	6.2195
3.6845	6.2243
3.6689	6.2314
3.6534	6.241
3.638	6.2536
3.6227	6.2673
3.6076	6.2798
3.5926	6.2947
3.5777	6.312
3.563	6.3325
3.5484	6.3633
3.5338	6.3804
3.5195	6.3721
3.5052	6.365
3.491	6.3579
3.477	6.3506
3.463	6.3437
3.4492	6.3364
3.4355	6.3293
3.4219	6.3222
3.4084	6.3149
3.395	6.3081
3.3817	6.3008
3.3685	6.2937
3.3554	6.2866
3.3425	6.2722
3.3296	6.2756
3.3168	6.2754
3.3041	6.2612
3.2915	6.2605
3.279	6.2668
3.2666	6.2746
3.2543	6.2817
3.2421	6.2888
3.23	6.2978
3.218	6.3074
3.206	6.3152
3.1942	6.3232
3.1824	6.3308
3.1707	6.3369
3.1591	6.3401
3.1476	6.343
3.1362	6.3437
3.1249	6.3437
3.1136	6.3396
3.1024	6.3347
3.0913	6.3293
3.0803	6.3222
3.0694	6.3152
3.0585	6.3052
3.0477	6.2969
3.037	6.2888
3.0264	6.2859
3.0158	6.2886
3.0053	6.2954
2.9949	6.3054
2.9845	6.3147
2.9743	6.3218
2.9641	6.3293
2.9539	6.3357
2.9439	6.3403
2.9339	6.3462
2.9239	6.3484
2.9141	6.353
2.9043	6.3469
2.8946	6.3457
2.8849	6.3423
2.8753	6.3323
2.8658	6.3218
2.8563	6.3113
2.8469	6.3069
2.8375	6.2954
2.8282	6.2942
2.819	6.2795
2.8098	6.2783
2.8007	6.2744
2.7917	6.2964
2.7827	6.3198
2.7738	6.3696
2.7649	6.4612
2.7561	6.4692
2.7473	6.0779
2.7386	5.5176
2.7299	5.8577
2.7213	5.9746
2.7128	6.074
2.7043	6.1379
2.6959	6.136
2.6875	6.1716
2.6791	6.1435
2.6709	6.0881
2.6626	6.1379
2.6545	6.1868
2.6463	6.1911
2.6382	6.1938
2.6302	6.1255
2.6222	6.1267
2.6143	6.126
2.6064	6.095
2.5986	6.0867
2.5908	6.0849
2.583	6.1084
2.5753	6.1274
2.5677	6.1382
2.5601	6.1452
2.5525	6.1733
2.545	6.1799
2.5375	6.1894
2.5301	6.1958
2.5227	6.2031
2.5154	6.2051
2.5081	6.208
2.5008	6.2092
2.4936	6.2087
2.4864	6.208
2.4793	6.2041
2.4722	6.1975
2.4651	6.1919
2.4581	6.1841
2.4511	6.1723
2.4442	6.1606
2.4373	6.1482
2.4305	6.1384
2.4236	6.1274
2.4169	6.1221
2.4101	6.1225
2.4034	6.125
2.3967	6.1304
2.3901	6.1352
2.3835	6.1404
2.377	6.1443
2.3704	6.1504
2.364	6.1548
2.3575	6.157
2.3511	6.1584
2.3447	6.1597
2.3384	6.1562
2.3321	6.154
2.3258	6.1555
2.3195	6.1528
2.3133	6.1499
2.3071	6.1426
2.301	6.136
2.2949	6.1274
2.2888	6.1196
2.2828	6.1062
2.2767	6.0896
2.2708	6.0766
2.2648	6.0683
2.2589	6.0679
2.253	6.0774
2.2471	6.0823
2.2413	6.0862
2.2355	6.0852
2.2297	6.083
2.224	6.0813
2.2183	6.0825
2.2126	6.0808
2.207	6.0842
2.2013	6.0842
2.1957	6.0879
2.1902	6.0859
2.1846	6.0815
2.1791	6.0766
2.1736	6.0713
2.1682	6.0666
2.1628	6.0554
2.1574	6.0466
2.152	6.0364
2.1466	6.0261
2.1413	6.0163
2.136	6.0112
2.1308	6.0088
2.1255	5.999
2.1203	5.9985
2.1151	5.9963
2.11	5.9931
2.1048	5.9941
2.0997	5.9936
2.0946	5.9931
2.0895	5.99
2.0845	5.987
2.0795	5.9883
