Name: Hematite alpha Fe_2O_3
Type: Mineral
Class: Oxide
Subclass: None
Particle Size: Medium
Sample No.: O-1A
Owner: JPL
Wavelength Range: TIR
Origin: USA, Alabama, Birmingham
Description: Particle size was 45-125um.Collected by Burminco Original ASTER Spectral Library name was jpl.nicolet.mineral.oxide.none.medium.o01a.spectrum.txt
Measurement: Hemispherical reflectance
X Units: Wavelength (micrometers)
Y Units: Reflectance (percent)
wavelength	value
15.3853	7.9859
15.1161	4.6871
14.8563	2.7169
14.6052	1.9303
14.3624	1.6595
14.1276	1.434
13.9004	1.677
13.6803	2.1399
13.4671	2.3173
13.2604	2.6696
13.06	2.8465
12.8656	3.8555
12.6769	3.5795
12.4936	4.3708
12.3155	2.6922
12.1425	2.9491
11.9742	3.1274
11.8106	3.4022
11.6513	3.2797
11.4963	3.5255
11.3454	4.3337
11.1983	4.2227
11.0551	4.2104
10.9154	4.195
10.7793	4.2163
10.6465	4.484
10.5169	4.5111
10.3904	4.7547
10.267	5.0435
10.1464	5.0896
10.0287	5.1676
9.9136	5.2233
9.8012	5.4722
9.6913	5.8081
9.5838	6.1853
9.4787	7.0338
9.3758	8.7777
9.2752	10.0887
9.1767	10.4264
9.0803	11.067
8.9858	11.2671
8.8934	11.6009
8.8028	11.6292
8.714	11.1608
8.627	9.2249
8.5417	11.8104
8.4581	12.865
8.3761	13.4932
8.2957	14.0124
8.2169	14.4957
8.1395	13.8004
8.0635	12.1999
7.989	11.2612
7.9158	10.2682
7.8439	9.7
7.7734	9.5395
7.7041	9.5862
7.636	9.3696
7.5691	9.4309
7.5034	9.505
7.4388	9.3936
7.3753	9.4949
7.3129	9.3529
7.2515	9.3061
7.1912	9.4588
7.1318	9.5531
7.0734	9.541
7.016	9.4618
6.9595	9.8227
6.9039	9.659
6.8492	9.4755
6.7953	9.5951
6.7423	9.4518
6.6901	9.4304
6.6387	9.9386
6.5881	9.6307
6.5382	9.5456
6.4892	10.4558
6.4408	10.499
6.3931	10.095
6.3462	9.603
6.2999	8.9235
6.2543	8.6293
6.2094	7.9402
6.1651	7.7782
6.1214	7.7976
6.0784	8.3883
6.0359	8.6852
5.994	9.0282
5.9527	9.0199
5.912	9.3243
5.8718	10.0066
5.8322	10.5361
5.7931	10.8496
5.7545	11.0822
5.7165	11.3891
5.6789	11.1687
5.6418	10.704
5.6052	9.5886
5.5691	8.8047
5.5334	9.6507
5.4982	10.4677
5.4635	11.1788
5.4291	11.1405
5.3952	10.5452
5.3618	9.895
5.3287	9.9457
5.2961	10.0892
5.2638	10.3756
5.2319	11.0513
5.2004	11.5965
5.1693	11.5675
5.1386	11.4428
5.1082	11.2908
5.0782	11.1444
5.0485	11.1185
5.0192	10.8049
4.9902	11.1008
4.9616	11.4441
4.9332	11.9296
4.9052	12.5392
4.8776	13.3079
4.8502	13.6683
4.8231	13.8196
4.7963	13.945
4.7699	13.9959
4.7437	13.9922
4.7178	14.0177
4.6922	13.5372
4.6668	13.5691
4.6418	13.7808
4.617	14.0789
4.5924	14.1638
4.5681	14.2434
4.5441	14.2868
4.5203	14.1182
4.4968	14.0175
4.4735	13.8769
4.4505	14.1935
4.4277	14.2123
4.4051	14.2804
4.3828	14.4341
4.3607	14.4846
4.3388	14.6415
4.3171	14.6501
4.2956	14.5406
4.2744	14.6189
4.2534	14.6073
4.2325	14.6644
4.2119	14.6456
4.1915	14.6049
4.1712	14.5084
4.1512	14.4793
4.1313	14.3464
4.1117	14.3445
4.0922	14.3234
4.0729	14.0652
4.0538	13.728
4.0349	13.264
4.0161	12.5388
3.9976	12.1117
3.9792	11.8735
3.9609	11.9444
3.9428	12.2791
3.9249	12.5545
3.9072	12.6372
3.8896	12.6575
3.8722	12.6347
3.8549	12.6769
3.8378	12.6883
3.8208	12.9669
3.804	13.3795
3.7873	13.7177
3.7708	13.557
3.7544	13.7947
3.7382	13.7009
3.7221	13.8658
3.7061	13.752
3.6903	13.7909
3.6746	13.6857
3.659	13.6333
3.6436	13.5817
3.6283	13.4457
3.6131	13.4171
3.5981	13.2937
3.5832	13.1148
3.5684	12.8686
3.5537	12.8776
3.5391	12.5052
3.5247	12.0413
3.5104	11.554
3.4962	11.363
3.4821	11.1583
3.4681	11.2124
3.4543	11.4727
3.4405	11.2962
3.4269	11.2472
3.4133	11.2805
3.3999	11.1255
3.3866	11.1906
3.3733	10.9233
3.3602	10.8714
3.3472	10.8472
3.3343	11.1397
3.3215	11.4005
3.3088	11.4657
3.2961	11.3531
3.2836	11.4657
3.2712	11.3836
3.2588	11.2872
3.2466	11.1956
3.2345	11.0092
3.2224	10.9744
3.2104	10.7737
3.1985	10.853
3.1867	10.5524
3.175	10.4758
3.1634	10.4807
3.1519	10.2936
3.1404	10.247
3.129	9.8916
3.1178	9.8403
3.1065	9.7941
3.0954	9.639
3.0844	9.7535
3.0734	9.6249
3.0625	9.4217
3.0517	9.4152
3.041	9.2978
3.0303	9.1636
3.0197	9.1858
3.0092	8.9627
2.9987	8.9668
2.9884	8.8166
2.9781	8.8459
2.9678	8.719
2.9577	8.6635
2.9476	8.6874
2.9376	8.7179
2.9276	8.6179
2.9177	8.82
2.9079	8.512
2.8982	8.6374
2.8885	8.692
2.8789	8.5856
2.8693	8.8439
2.8598	8.9462
2.8504	8.9277
2.841	8.963
2.8317	8.7384
2.8224	8.7474
2.8133	8.8033
2.8041	8.8471
2.7951	8.7687
2.786	8.8409
2.7771	8.4408
2.7682	8.2749
2.7594	8.567
2.7506	9.184
2.7418	9.6447
2.7332	9.9692
2.7246	10.742
2.716	11.3466
2.7075	11.7924
2.699	12.0861
2.6906	12.3233
2.6823	12.6502
2.674	12.6104
2.6657	12.9781
2.6575	12.4813
2.6494	12.5768
2.6413	12.5877
2.6332	12.7073
2.6252	12.6093
2.6173	12.758
2.6094	12.5863
2.6015	12.7152
2.5937	12.9668
2.5859	12.6692
2.5782	12.5939
2.5706	12.5173
2.5629	12.6513
2.5554	12.4082
2.5478	12.4039
2.5403	12.3449
2.5329	12.3574
2.5255	12.318
2.5181	12.2712
2.5108	12.2763
2.5035	12.2588
2.4963	12.437
2.4891	12.2493
2.482	12.2178
2.4749	12.2074
2.4678	12.3851
2.4608	12.0644
2.4538	12.1982
2.4468	12.2211
2.4399	12.219
2.4331	12.14
2.4262	12.2992
2.4194	12.4393
2.4127	12.4042
2.4059	12.164
2.3993	12.2507
2.3926	12.0886
2.386	12.1117
2.3795	12.099
2.3729	12.16
2.3664	12.0459
2.36	12.3751
2.3535	12.034
2.3471	12.1278
2.3408	12.2814
2.3345	12.0562
2.3282	12.2202
2.3219	12.1867
2.3157	12.0477
2.3095	12.2254
2.3034	11.9219
2.2972	12.1523
2.2911	11.9755
2.2851	12.3041
2.279	12.1719
2.2731	11.9609
2.2671	11.9694
2.2612	11.9578
2.2553	11.9602
2.2494	12.0211
2.2435	11.9686
2.2377	11.7875
2.232	11.98
2.2262	12.0771
2.2205	12.0728
2.2148	11.8592
2.2091	11.5766
2.2035	11.9872
2.1979	11.7101
2.1923	11.6362
2.1868	11.8352
2.1812	11.8833
2.1758	11.8951
2.1703	11.7476
2.1649	11.8996
2.1595	11.9811
2.1541	11.8439
2.1487	11.9422
2.1434	11.7544
2.1381	11.9392
2.1328	12.0295
2.1275	11.6297
2.1223	11.8072
2.1171	11.7624
2.112	11.4575
2.1068	11.5912
2.1017	12.0635
2.0966	12.1252
2.0915	11.83
2.0865	11.3539
2.0814	11.5325
2.0764	12.0363
2.0715	11.6126
2.0665	11.6359
2.0616	11.9215
2.0567	11.4808
2.0518	11.5268
2.0469	11.7286
2.0421	11.6131
2.0373	11.847
2.0325	11.7895
2.0277	12.1225
2.0229	11.8427
2.0182	11.3904
2.0135	11.5757
2.0088	11.6056
2.0042	11.9072
