Name: Celestite SrSO_4
Type: Mineral
Class: Sulfate
Subclass: None
Particle Size: Coarse
Sample No.: SO-5A
Owner: JPL
Wavelength Range: TIR
Origin: USA, Utah, Emery County
Description: Particle size was 125-500um.Collected by Grieger's Inc. Original ASTER Spectral Library name was jpl.nicolet.mineral.sulfate.none.coarse.so05a.spectrum.txt
Measurement: Hemispherical reflectance
X Units: Wavelength (micrometers)
Y Units: Reflectance (percent)
wavelength	value
15.3853	11.7429
15.1161	3.7574
14.8563	1.2434
14.6052	1.8906
14.3624	3.1623
14.1276	3.8097
13.9004	4.6331
13.6803	5.4293
13.4671	6.3405
13.2604	6.6074
13.06	6.5074
12.8656	6.6496
12.6769	6.9785
12.4936	6.8807
12.3155	6.9744
12.1425	7.1891
11.9742	7.5946
11.8106	7.9082
11.6513	8.7504
11.4963	9.1441
11.3454	9.4349
11.1983	9.5438
11.0551	8.5419
10.9154	7.4685
10.7793	6.7722
10.6465	6.7974
10.5169	6.6685
10.3904	6.4826
10.267	6.2717
10.1464	6.5129
10.0287	5.9788
9.9136	7.0809
9.8012	7.5294
9.6913	8.6123
9.5838	9.8374
9.4787	12.3748
9.3758	17.149
9.2752	22.1931
9.1767	25.5376
9.0803	28.0763
8.9858	30.1536
8.8934	32.7384
8.8028	33.9414
8.714	34.1318
8.627	30.2564
8.5417	21.6143
8.4581	20.4117
8.3761	17.022
8.2957	16.2642
8.2169	16.4159
8.1395	16.4185
8.0635	15.9748
7.989	14.0458
7.9158	8.4506
7.8439	2.4815
7.7734	0.6378
7.7041	0.4923
7.636	0.4515
7.5691	0.6056
7.5034	0.8459
7.4388	1.2425
7.3753	1.5593
7.3129	1.916
7.2515	2.538
7.1912	3.4545
7.1318	4.5592
7.0734	5.5649
7.016	8.0194
6.9595	13.4429
6.9039	15.7532
6.8492	15.7189
6.7953	22.1229
6.7423	26.0648
6.6901	27.7892
6.6387	27.5054
6.5881	21.4712
6.5382	12.9635
6.4892	7.9122
6.4408	6.0134
6.3931	6.6777
6.3462	8.0708
6.2999	9.7489
6.2543	7.7825
6.2094	8.3852
6.1651	7.7949
6.1214	12.1995
6.0784	13.822
6.0359	20.4137
5.994	27.3434
5.9527	26.6916
5.912	31.1542
5.8718	32.5503
5.8322	32.5019
5.7931	30.7149
5.7545	32.71
5.7165	33.809
5.6789	34.1121
5.6418	35.2409
5.6052	36.1466
5.5691	37.4419
5.5334	38.4661
5.4982	39.2571
5.4635	38.3324
5.4291	38.2935
5.3952	38.1309
5.3618	39.2256
5.3287	42.6758
5.2961	46.2648
5.2638	48.4803
5.2319	49.3571
5.2004	49.279
5.1693	48.0683
5.1386	43.5415
5.1082	41.8409
5.0782	34.5588
5.0485	14.7878
5.0192	17.1771
4.9902	31.591
4.9616	29.5574
4.9332	23.9633
4.9052	16.6176
4.8776	9.5185
4.8502	5.4041
4.8231	4.4093
4.7963	3.7239
4.7699	3.7815
4.7437	4.3163
4.7178	4.2953
4.6922	4.2951
4.6668	3.8081
4.6418	3.3131
4.617	3.3929
4.5924	3.8224
4.5681	4.3082
4.5441	4.1072
4.5203	3.8563
4.4968	3.6917
4.4735	4.0692
4.4505	4.9077
4.4277	5.8263
4.4051	6.4302
4.3828	6.9456
4.3607	7.4781
4.3388	8.1608
4.3171	8.6018
4.2956	9.197
4.2744	10.1429
4.2534	10.9605
4.2325	10.1673
4.2119	9.6139
4.1915	9.8227
4.1712	10.1241
4.1512	11.5073
4.1313	14.0337
4.1117	18.4563
4.0922	24.8831
4.0729	31.4665
4.0538	36.6329
4.0349	40.994
4.0161	45.7081
3.9976	49.3459
3.9792	51.6002
3.9609	54.1882
3.9428	55.788
3.9249	57.5972
3.9072	59.7825
3.8896	62.0569
3.8722	62.7345
3.8549	61.1022
3.8378	62.2292
3.8208	64.4046
3.804	66.9539
3.7873	68.9441
3.7708	71.4758
3.7544	72.1661
3.7382	71.7422
3.7221	71.1976
3.7061	72.0517
3.6903	72.2616
3.6746	73.1651
3.659	74.3629
3.6436	75.5948
3.6283	76.3434
3.6131	76.2931
3.5981	75.8502
3.5832	75.1876
3.5684	74.7211
3.5537	74.2524
3.5391	73.8098
3.5247	73.8662
3.5104	73.0778
3.4962	72.4992
3.4821	72.2424
3.4681	72.26
3.4543	71.7244
3.4405	71.3011
3.4269	70.6427
3.4133	70.1435
3.3999	70.7868
3.3866	71.0383
3.3733	69.4974
3.3602	67.6675
3.3472	71.78
3.3343	72.6596
3.3215	72.3763
3.3088	70.5199
3.2961	65.9288
3.2836	58.261
3.2712	56.034
3.2588	56.9137
3.2466	58.1028
3.2345	61.1562
3.2224	62.9014
3.2104	63.9514
3.1985	63.0273
3.1867	61.2406
3.175	60.1729
3.1634	60.2036
3.1519	60.5267
3.1404	60.3692
3.129	60.5398
3.1178	60.8212
3.1065	61.1903
3.0954	61.5231
3.0844	61.5004
3.0734	61.0311
3.0625	61.6615
3.0517	62.3189
3.041	62.5923
3.0303	62.4952
3.0197	62.5698
3.0092	62.6379
2.9987	62.9296
2.9884	63.2628
2.9781	63.8946
2.9678	64.4743
2.9577	64.8337
2.9476	65.3604
2.9376	65.7409
2.9276	66.3935
2.9177	66.8191
2.9079	67.3571
2.8982	67.4361
2.8885	67.8031
2.8789	68.1813
2.8693	68.57
2.8598	68.9008
2.8504	69.3078
2.841	69.5663
2.8317	70.1085
2.8224	70.6415
2.8133	71.3616
2.8041	72.7105
2.7951	73.7473
2.786	75.4553
2.7771	77.042
2.7682	78.7915
2.7594	80.1081
2.7506	81.4508
2.7418	83.1097
2.7332	84.0086
2.7246	85.3353
2.716	85.5071
2.7075	86.2832
2.699	86.6257
2.6906	87.2871
2.6823	87.5182
2.674	87.7732
2.6657	88.574
2.6575	88.1748
2.6494	88.1881
2.6413	88.3156
2.6332	88.4748
2.6252	88.5451
2.6173	88.8813
2.6094	88.5807
2.6015	88.5239
2.5937	89.096
2.5859	88.6617
2.5782	88.6537
2.5706	88.6469
2.5629	88.68
2.5554	88.5494
2.5478	88.46
2.5403	88.3868
2.5329	88.5134
2.5255	88.2188
2.5181	88.5192
2.5108	88.3999
2.5035	88.4413
2.4963	88.346
2.4891	88.032
2.482	87.9429
2.4749	87.94
2.4678	88.094
2.4608	88.1274
2.4538	88.3588
2.4468	88.2575
2.4399	88.4877
2.4331	88.5288
2.4262	88.396
2.4194	88.2309
2.4127	88.3285
2.4059	88.3816
2.3993	88.3427
2.3926	88.2816
2.386	88.3419
2.3795	88.3086
2.3729	88.3966
2.3664	88.329
2.36	88.4122
2.3535	88.5714
2.3471	88.6379
2.3408	88.6571
2.3345	88.5934
2.3282	88.5935
2.3219	88.7591
2.3157	88.6308
2.3095	88.6409
2.3034	88.5406
2.2972	88.8663
2.2911	88.7709
2.2851	88.6902
2.279	88.9122
2.2731	88.7491
2.2671	88.7749
2.2612	88.7049
2.2553	88.8526
2.2494	88.796
2.2435	88.9462
2.2377	88.8516
2.232	89.0838
2.2262	88.9125
2.2205	88.8958
2.2148	89.0563
2.2091	89.0471
2.2035	89.0763
2.1979	89.1025
2.1923	89.0304
2.1868	89.1262
2.1812	89.1488
2.1758	89.1872
2.1703	89.0856
2.1649	89.1607
2.1595	89.0633
2.1541	89.1595
2.1487	89.2162
2.1434	89.2794
2.1381	89.0404
2.1328	89.2089
2.1275	89.0272
2.1223	89.3976
2.1171	89.2223
2.112	89.0142
2.1068	89.2632
2.1017	89.1669
2.0966	88.7878
2.0915	89.1626
2.0865	89.1783
2.0814	89.1402
2.0764	89.266
2.0715	88.9106
2.0665	89.0559
2.0616	88.944
2.0567	89.0393
2.0518	89.312
2.0469	89.312
2.0421	89.1434
2.0373	89.4286
2.0325	89.0846
2.0277	89.1529
2.0229	89.0529
2.0182	89.4532
2.0135	89.2048
2.0088	89.5021
2.0042	89.0532
