Name: Talc Mg3Si4O10(OH)2
Type: Mineral
Class: Silicate
Subclass: Phyllosilicate
Particle Size: Coarse
Sample No.: talc_1
Owner: JHU
Wavelength Range: TIR
Origin: Feiser Mine, Ruby Mountains, Montana, USA via Jim Crowley,USGS
Description: The hand sample was massive, compact, translucent, and light green in color.  Under the microscope, sample was cryptocrystalline and appeared pure.  XRD analysis indicates pure talc. Particle size was 75 - 250  Micrometers.(Sheets silicates);  (Talc/Pyrophyllite Group) Original ASTER Spectral Library name was jhu.nicolet.mineral.silicate.phyllosilicate.coarse.talc1.spectrum.txt
Measurement: Bidirectional reflectance
X Units: Wavelength (micrometers)
Y Units: Reflectance (percent)
wavelength	value
25.0442	3.3867
24.3388	3.8271
23.6719	4.3179
23.0407	4.4712
22.4422	5.2082
21.8741	5.8989
21.334	7.5932
20.8199	8.5598
20.33	8.8628
19.8627	7.6618
19.4163	8.7739
18.9896	9.2173
18.5812	8.4963
18.19	7.1631
17.815	7.1582
17.4551	6.1821
17.1094	3.0132
16.7772	1.2202
16.4576	1.1968
16.15	1.3345
15.8537	1.4751
15.568	1.6785
15.2925	1.9734
15.0265	2.959
14.7697	4.8984
14.5214	4.4578
14.2814	1.3833
14.0492	1.1121
13.8244	1.2805
13.6067	1.4126
13.3957	1.4856
13.1912	1.5439
12.9929	1.5586
12.8004	1.5366
12.6135	1.5774
12.432	1.6177
12.2557	1.6648
12.0843	1.7175
11.9176	1.7751
11.7555	1.8477
11.5977	1.8464
11.444	1.8696
11.2944	1.9123
11.1487	1.978
11.0067	2.0432
10.8682	2.1265
10.7332	2.1936
10.6015	2.3225
10.473	2.4546
10.3476	2.6099
10.2251	2.7915
10.1056	3.0759
9.9887	3.5622
9.8746	4.813
9.763	6.447
9.6539	7.2783
9.5472	7.3938
9.4429	6.1841
9.3408	6.4394
9.2409	6.8401
9.1431	7.0898
9.0474	7.5012
8.9536	7.7046
8.8618	7.8198
8.7718	8.0871
8.6837	8.2261
8.5973	7.5574
8.5126	6.4468
8.4295	5.1216
8.3481	3.7917
8.2682	2.6226
8.1898	1.915
8.1129	1.5107
8.0374	1.3533
7.9634	1.2519
7.8906	1.2571
7.8192	1.1811
7.7491	1.0642
7.6802	0.9973
7.6126	1.0071
7.5461	1.0681
7.4807	1.1191
7.4165	1.1265
7.3534	1.136
7.2914	1.1653
7.2303	1.1191
7.1703	1.1267
7.1113	1.1794
7.0533	1.2429
6.9962	1.3171
6.94	1.3987
6.8847	1.491
6.8302	1.5361
6.7767	1.7869
6.7239	1.9983
6.672	2.1023
6.6209	2.0537
6.5705	1.9512
6.5209	1.978
6.4721	2.1377
6.424	2.1631
6.3766	2.2068
6.3299	2.1956
6.2838	2.2041
6.2385	2.0933
6.1937	1.8174
6.1496	1.5718
6.1062	1.2317
6.0633	1.1045
6.0211	1.0859
5.9794	1.0342
5.9383	1.1924
5.8978	1.3682
5.8578	1.1802
5.8184	1.3005
5.7794	1.4846
5.741	1.4951
5.7031	1.3967
5.6657	1.3162
5.6288	1.3735
5.5924	1.3008
5.5564	1.1829
5.5209	1.1374
5.4859	1.1128
5.4513	1.1814
5.4171	1.3137
5.3833	1.2869
5.35	1.2847
5.3171	1.3977
5.2846	1.4824
5.2524	1.4141
5.2207	1.2974
5.1893	1.366
5.1584	1.5354
5.1277	1.5986
5.0975	2.0332
5.0676	2.9282
5.038	3.5198
5.0088	3.6838
4.98	3.7087
4.9514	3.458
4.9232	3.5344
4.8953	4.0813
4.8678	4.4946
4.8405	4.6089
4.8135	4.7002
4.7868	4.8528
4.7605	5.2009
4.7344	5.3528
4.7086	5.1274
4.6831	5.2099
4.6578	5.3032
4.6328	5.5859
4.6081	6.3103
4.5837	6.8247
4.5595	7.0183
4.5356	7.1318
4.5119	7.1704
4.4884	7.1765
4.4652	7.1728
4.4423	7.3264
4.4196	7.7466
4.3971	8.0102
4.3748	8.2239
4.3528	8.3074
4.331	8.3572
4.3094	8.3957
4.288	8.4526
4.2668	8.5129
4.2458	8.5884
4.2251	8.6208
4.2045	8.6216
4.1841	8.6391
4.164	8.6416
4.144	8.664
4.1242	8.6821
4.1046	8.6831
4.0852	8.6648
4.066	8.6594
4.047	8.6604
4.0281	8.7163
4.0094	8.8191
3.9909	8.8725
3.9725	8.893
3.9544	8.8884
3.9363	8.8664
3.9185	8.8711
3.9008	8.8867
3.8833	8.9067
3.8659	8.9548
3.8487	8.9902
3.8316	8.9968
3.8147	9.039
3.7979	9.0678
3.7813	9.1137
3.7648	9.1513
3.7485	9.1509
3.7323	9.1474
3.7162	9.113
3.7003	9.0696
3.6845	8.9192
3.6689	8.9446
3.6534	8.8718
3.638	8.8044
3.6227	8.7861
3.6076	8.7715
3.5926	8.7339
3.5777	8.6999
3.563	8.6313
3.5484	8.5713
3.5338	8.4809
3.5195	8.3288
3.5052	8.1472
3.491	7.9914
3.477	7.9826
3.463	8.0068
3.4492	7.8904
3.4355	7.7065
3.4219	7.3962
3.4084	7.1892
3.395	7.0654
3.3817	6.7095
3.3685	6.1118
3.3554	5.0825
3.3425	6.1284
3.3296	5.8865
3.3168	4.7439
3.3041	4.8728
3.2915	5.906
3.279	5.9565
3.2666	6.1658
3.2543	6.1208
3.2421	5.988
3.23	5.8059
3.218	5.6299
3.206	5.4846
3.1942	5.24
3.1824	5.0093
3.1707	4.791
3.1591	4.6047
3.1476	4.5647
3.1362	4.6802
3.1249	4.6238
3.1136	4.5061
3.1024	4.355
3.0913	4.2641
3.0803	4.155
3.0694	4.103
3.0585	4.0222
3.0477	3.9324
3.037	3.8152
3.0264	3.7817
3.0158	3.7392
3.0053	3.6435
2.9949	3.509
2.9845	3.4148
2.9743	3.3704
2.9641	3.2668
2.9539	3.2134
2.9439	3.1475
2.9339	3.1184
2.9239	3.0969
2.9141	3.0234
2.9043	3.0159
2.8946	2.9907
2.8849	2.9639
2.8753	2.9365
2.8658	2.9016
2.8563	2.8542
2.8469	2.7947
2.8375	2.7378
2.8282	2.616
2.819	2.4189
2.8098	2.0752
2.8007	1.8843
2.7917	1.6204
2.7827	1.7092
2.7738	1.8044
2.7649	1.9248
2.7561	2.053
2.7473	2.0193
2.7386	1.7866
2.7299	1.228
2.7213	0.7505
2.7128	1.6445
2.7043	4.0727
2.6959	5.7978
2.6875	6.4768
2.6791	7.199
2.6709	8.352
2.6626	8.9133
2.6545	8.9665
2.6463	8.8786
2.6382	8.9441
2.6302	8.9944
2.6222	8.855
2.6143	8.8823
2.6064	8.6931
2.5986	8.5056
2.5908	8.4057
2.583	7.9958
2.5753	7.6689
2.5677	7.8879
2.5601	7.9839
2.5525	7.9702
2.545	8.4184
2.5375	7.9365
2.5301	7.708
2.5227	7.9184
2.5154	7.5154
2.5081	8.185
2.5008	7.656
2.4936	7.7612
2.4864	8.2656
2.4793	8.32
2.4722	7.0762
2.4651	6.1814
2.4581	6.8638
2.4511	7.3799
2.4442	7.6113
2.4373	7.562
2.4305	7.8305
2.4236	7.6059
2.4169	8.5307
2.4101	8.7724
2.4034	8.1938
2.3967	5.7441
2.3901	5.0015
2.3835	5.5132
2.377	6.1787
2.3704	7.2563
2.364	8.2148
2.3575	8.2556
2.3511	8.5913
2.3447	9.1792
2.3384	9.1833
2.3321	8.196
2.3258	5.6372
2.3195	4.4404
2.3133	2.1147
2.3071	2.9387
2.301	4.7436
2.2949	5.1841
2.2888	3.5283
2.2828	5.7627
2.2767	7.4316
2.2708	8.4887
2.2648	9.1928
2.2589	9.7265
2.253	10.0576
2.2471	10.2583
2.2413	10.3408
2.2355	10.0229
2.2297	9.6426
2.224	10.2973
2.2183	10.6928
2.2126	10.8672
2.207	10.8703
2.2013	10.9082
2.1957	10.9094
2.1902	10.9121
2.1846	10.8254
2.1791	10.6347
2.1736	10.5749
2.1682	10.6711
2.1628	10.769
2.1574	10.8183
2.152	10.8147
2.1466	10.7021
2.1413	10.5031
2.136	10.5132
2.1308	10.4411
2.1255	10.4377
2.1203	10.8554
2.1151	10.6445
2.11	11.0073
2.1048	10.9819
2.0997	10.9568
2.0946	10.8974
2.0895	10.7632
2.0845	10.8149
2.0795	10.498
