Name: Borax Na_2B_4O_5(OH)_4.8H_2O
Type: Mineral
Class: Borate
Subclass: None
Particle Size: Medium
Sample No.: B-6A
Owner: JPL
Wavelength Range: TIR
Origin: USA, California, Kern County, Boron
Description: Particle size was 45-125um.Collected by Burminco Original ASTER Spectral Library name was jpl.nicolet.mineral.borate.none.medium.b06a.spectrum.txt
Measurement: Hemispherical reflectance
X Units: Wavelength (micrometers)
Y Units: Reflectance (percent)
wavelength	value
15.3853	2.9638
15.1161	3.0414
14.8563	2.6747
14.6052	2.8695
14.3624	2.9786
14.1276	2.6194
13.9004	1.9712
13.6803	2.0552
13.4671	2.1172
13.2604	2.4238
13.06	2.6129
12.8656	2.6054
12.6769	2.9059
12.4936	2.9807
12.3155	3.4104
12.1425	4.829
11.9742	2.9096
11.8106	0.9277
11.6513	1.0768
11.4963	1.4831
11.3454	1.5901
11.1983	1.7369
11.0551	2.3093
10.9154	2.6746
10.7793	3.1252
10.6465	3.9905
10.5169	3.6519
10.3904	1.5845
10.267	2.6999
10.1464	4.1239
10.0287	6.1059
9.9136	6.462
9.8012	4.1608
9.6913	4.2173
9.5838	3.9808
9.4787	1.7142
9.3758	1.0121
9.2752	1.1707
9.1767	0.8477
9.0803	0.8667
8.9858	1.1004
8.8934	2.3395
8.8028	3.2694
8.714	1.3324
8.627	0.9474
8.5417	0.6673
8.4581	0.8411
8.3761	1.0624
8.2957	1.1446
8.2169	1.306
8.1395	1.3168
8.0635	1.364
7.989	1.7617
7.9158	1.373
7.8439	1.3544
7.7734	1.3025
7.7041	1.0325
7.636	1.1864
7.5691	1.6703
7.5034	2.3842
7.4388	2.7204
7.3753	2.3117
7.3129	1.5702
7.2515	1.8377
7.1912	1.7305
7.1318	1.7208
7.0734	1.6763
7.016	2.0528
6.9595	1.9204
6.9039	1.5666
6.8492	1.4264
6.7953	1.8293
6.7423	2.0856
6.6901	2.5589
6.6387	2.1705
6.5881	1.3039
6.5382	0.6733
6.4892	0.6158
6.4408	0.693
6.3931	0.6981
6.3462	0.7254
6.2999	0.7383
6.2543	0.738
6.2094	0.9586
6.1651	0.8854
6.1214	0.7224
6.0784	0.6996
6.0359	0.6961
5.994	0.5678
5.9527	0.5505
5.912	0.6063
5.8718	0.6856
5.8322	0.9418
5.7931	1.1231
5.7545	1.3951
5.7165	1.5884
5.6789	1.7225
5.6418	1.8727
5.6052	1.9388
5.5691	2.0915
5.5334	2.2296
5.4982	2.2407
5.4635	2.4976
5.4291	2.6197
5.3952	2.8701
5.3618	3.1521
5.3287	3.4176
5.2961	3.4944
5.2638	3.6431
5.2319	3.6363
5.2004	3.5672
5.1693	3.5829
5.1386	3.768
5.1082	3.8469
5.0782	3.9392
5.0485	4.0387
5.0192	4.152
4.9902	4.3143
4.9616	4.1886
4.9332	4.2603
4.9052	4.2515
4.8776	4.3492
4.8502	4.5283
4.8231	4.7512
4.7963	4.7316
4.7699	4.6357
4.7437	4.7297
4.7178	4.523
4.6922	4.6746
4.6668	4.495
4.6418	4.4124
4.617	4.2514
4.5924	4.2232
4.5681	4.0983
4.5441	3.9072
4.5203	3.9612
4.4968	4.012
4.4735	4.1915
4.4505	4.425
4.4277	4.4731
4.4051	4.528
4.3828	4.2294
4.3607	4.2751
4.3388	4.2948
4.3171	4.1884
4.2956	4.2099
4.2744	4.0393
4.2534	4.1121
4.2325	3.83
4.2119	3.3975
4.1915	3.1119
4.1712	2.5373
4.1512	2.1476
4.1313	1.8748
4.1117	1.5705
4.0922	1.6484
4.0729	1.6277
4.0538	1.7004
4.0349	1.7706
4.0161	1.6956
3.9976	1.7203
3.9792	1.8542
3.9609	1.8723
3.9428	1.9325
3.9249	2.011
3.9072	1.698
3.8896	1.8194
3.8722	1.6376
3.8549	1.5167
3.8378	1.3666
3.8208	1.44
3.804	1.518
3.7873	1.6516
3.7708	1.7322
3.7544	1.6696
3.7382	1.7096
3.7221	1.7104
3.7061	1.6148
3.6903	1.5781
3.6746	1.5739
3.659	1.497
3.6436	1.5544
3.6283	1.4572
3.6131	1.4542
3.5981	1.4979
3.5832	1.4574
3.5684	1.4133
3.5537	1.2605
3.5391	1.2977
3.5247	1.2704
3.5104	1.2418
3.4962	1.2759
3.4821	1.3828
3.4681	1.2458
3.4543	1.1516
3.4405	1.2302
3.4269	1.1436
3.4133	1.334
3.3999	1.2009
3.3866	1.2501
3.3733	1.0409
3.3602	1.1895
3.3472	1.179
3.3343	1.1299
3.3215	1.1155
3.3088	1.0628
3.2961	0.9485
3.2836	1.0917
3.2712	1.0718
3.2588	1.0513
3.2466	0.9835
3.2345	0.974
3.2224	0.8971
3.2104	1.0006
3.1985	1.0132
3.1867	0.9633
3.175	1.113
3.1634	1.216
3.1519	1.1841
3.1404	1.0961
3.129	1.083
3.1178	1.143
3.1065	1.0559
3.0954	0.9854
3.0844	1.0807
3.0734	1.0589
3.0625	1.1287
3.0517	1.0422
3.041	1.2562
3.0303	1.1835
3.0197	1.1325
3.0092	1.3784
2.9987	1.4198
2.9884	1.3167
2.9781	1.2258
2.9678	0.7864
2.9577	0.5025
2.9476	0.5699
2.9376	0.5364
2.9276	0.5211
2.9177	0.5688
2.9079	0.8393
2.8982	0.5543
2.8885	0.4641
2.8789	0.4266
2.8693	0.4387
2.8598	0.587
2.8504	0.4485
2.841	0.5092
2.8317	0.3877
2.8224	0.4101
2.8133	0.7884
2.8041	0.586
2.7951	0.6409
2.786	0.7705
2.7771	0.6599
2.7682	1.0518
2.7594	1.0232
2.7506	1.2443
2.7418	2.293
2.7332	3.4348
2.7246	4.7823
2.716	6.4725
2.7075	8.023
2.699	9.3819
2.6906	10.9082
2.6823	11.8886
2.674	12.9424
2.6657	14.1596
2.6575	14.8633
2.6494	15.74
2.6413	16.4601
2.6332	17.4709
2.6252	17.8792
2.6173	18.9648
2.6094	19.1256
2.6015	19.6264
2.5937	20.3282
2.5859	20.1325
2.5782	19.9791
2.5706	19.8607
2.5629	19.8423
2.5554	19.2019
2.5478	18.845
2.5403	18.2213
2.5329	17.9161
2.5255	18.3079
2.5181	18.9468
2.5108	19.7278
2.5035	20.939
2.4963	21.8762
2.4891	22.8855
2.482	23.8251
2.4749	24.6889
2.4678	25.5597
2.4608	26.0287
2.4538	26.5455
2.4468	26.7039
2.4399	26.8588
2.4331	27.1601
2.4262	27.7312
2.4194	28.6684
2.4127	29.5339
2.4059	30.6424
2.3993	31.529
2.3926	32.5172
2.386	33.8003
2.3795	34.6437
2.3729	35.3064
2.3664	35.695
2.36	36.579
2.3535	36.692
2.3471	37.1239
2.3408	37.2358
2.3345	37.3487
2.3282	37.4832
2.3219	37.5105
2.3157	37.5314
2.3095	37.5025
2.3034	37.6003
2.2972	37.6472
2.2911	37.5057
2.2851	37.6029
2.279	37.4542
2.2731	37.6122
2.2671	37.5172
2.2612	37.5874
2.2553	37.6269
2.2494	37.7578
2.2435	37.7638
2.2377	37.919
2.232	38.0402
2.2262	38.1689
2.2205	38.2908
2.2148	38.6255
2.2091	38.9671
2.2035	39.0764
2.1979	39.2892
2.1923	39.2969
2.1868	39.1569
2.1812	38.8652
2.1758	38.2933
2.1703	37.6293
2.1649	37.0063
2.1595	36.4226
2.1541	36.0691
2.1487	36.3047
2.1434	37.1792
2.1381	38.0724
2.1328	38.5287
2.1275	38.646
2.1223	38.8532
2.1171	38.7233
2.112	38.554
2.1068	38.2728
2.1017	37.7892
2.0966	38.4061
2.0915	38.4385
2.0865	38.391
2.0814	38.2075
2.0764	38.2505
2.0715	38.372
2.0665	37.867
2.0616	37.8292
2.0567	37.7868
2.0518	37.424
2.0469	37.0538
2.0421	37.2933
2.0373	37.0288
2.0325	36.7955
2.0277	36.8036
2.0229	36.3381
2.0182	36.2382
2.0135	35.7457
2.0088	35.6505
2.0042	35.4395
