Name: Cerussite PbCO_3
Type: Mineral
Class: Carbonate
Subclass: None
Particle Size: Coarse
Sample No.: C-10A
Owner: JPL
Wavelength Range: TIR
Origin: USA, Arizona, Flux Mine
Description: Particle size was 125-500um.Collected by JPL Original ASTER Spectral Library name was jpl.nicolet.mineral.carbonate.none.coarse.c10a.spectrum.txt
Measurement: Hemispherical reflectance
X Units: Wavelength (micrometers)
Y Units: Reflectance (percent)
wavelength	value
15.3853	7.6579
15.1161	8.1167
14.8563	7.6869
14.6052	3.0077
14.3624	5.3393
14.1276	8.2902
13.9004	7.0974
13.6803	6.324
13.4671	7.3419
13.2604	8.7332
13.06	8.4209
12.8656	7.2653
12.6769	7.439
12.4936	7.6421
12.3155	6.8556
12.1425	6.4353
11.9742	10.1918
11.8106	5.406
11.6513	5.4886
11.4963	5.6333
11.3454	7.3445
11.1983	8.7523
11.0551	10.3004
10.9154	11.0164
10.7793	10.3188
10.6465	10.0848
10.5169	9.096
10.3904	9.2167
10.267	9.3155
10.1464	7.4272
10.0287	7.0929
9.9136	8.4313
9.8012	9.6865
9.6913	7.8777
9.5838	7.1295
9.4787	4.9519
9.3758	7.3499
9.2752	7.9984
9.1767	6.9279
9.0803	6.0608
8.9858	5.8492
8.8934	6.482
8.8028	6.4309
8.714	6.5149
8.627	6.5186
8.5417	6.6723
8.4581	6.7642
8.3761	6.6243
8.2957	6.521
8.2169	6.3036
8.1395	6.4454
8.0635	6.4962
7.989	6.2412
7.9158	6.2858
7.8439	6.3973
7.7734	6.611
7.7041	6.6678
7.636	6.7312
7.5691	6.9157
7.5034	7.5211
7.4388	8.1024
7.3753	9.1562
7.3129	10.8278
7.2515	14.0546
7.1912	16.2521
7.1318	15.2966
7.0734	12.5826
7.016	11.9906
6.9595	13.6095
6.9039	13.4621
6.8492	12.4873
6.7953	10.9714
6.7423	8.5518
6.6901	5.2958
6.6387	2.7418
6.5881	1.6018
6.5382	1.4969
6.4892	1.5094
6.4408	1.6016
6.3931	1.6703
6.3462	1.9319
6.2999	1.9871
6.2543	2.2873
6.2094	2.5268
6.1651	2.8752
6.1214	3.3328
6.0784	3.9983
6.0359	4.7728
5.994	5.8133
5.9527	6.8823
5.912	7.9103
5.8718	8.6001
5.8322	8.3504
5.7931	4.4555
5.7545	4.5581
5.7165	7.793
5.6789	15.4909
5.6418	16.6943
5.6052	18.7591
5.5691	23.782
5.5334	26.9739
5.4982	27.1624
5.4635	28.5754
5.4291	30.9883
5.3952	33.106
5.3618	34.9524
5.3287	35.3446
5.2961	35.8776
5.2638	37.5953
5.2319	40.1026
5.2004	41.7172
5.1693	42.506
5.1386	42.804
5.1082	42.0604
5.0782	40.2204
5.0485	37.111
5.0192	33.896
4.9902	30.9716
4.9616	27.9924
4.9332	22.3633
4.9052	15.5282
4.8776	14.1454
4.8502	16.6844
4.8231	21.5348
4.7963	25.1812
4.7699	25.9164
4.7437	28.3455
4.7178	29.7706
4.6922	29.6757
4.6668	25.0772
4.6418	23.5839
4.617	29.3713
4.5924	31.7955
4.5681	32.1446
4.5441	31.8657
4.5203	30.845
4.4968	29.4113
4.4735	30.2764
4.4505	31.3333
4.4277	30.7823
4.4051	29.9471
4.3828	28.0793
4.3607	25.1187
4.3388	21.514
4.3171	18.1623
4.2956	15.13
4.2744	12.549
4.2534	10.7366
4.2325	10.0708
4.2119	9.4058
4.1915	8.2291
4.1712	7.0681
4.1512	6.2701
4.1313	6.5996
4.1117	7.4003
4.0922	8.0521
4.0729	8.5042
4.0538	8.5171
4.0349	8.7819
4.0161	9.2236
3.9976	9.5035
3.9792	9.8613
3.9609	10.44
3.9428	11.5569
3.9249	14.4765
3.9072	18.3479
3.8896	21.1907
3.8722	22.9361
3.8549	23.7735
3.8378	23.708
3.8208	22.9779
3.804	21.6254
3.7873	19.8396
3.7708	17.7763
3.7544	15.776
3.7382	14.4313
3.7221	13.2398
3.7061	11.8177
3.6903	10.2343
3.6746	8.8461
3.659	8.1117
3.6436	8.0393
3.6283	8.3903
3.6131	8.4299
3.5981	8.2496
3.5832	8.3412
3.5684	8.4155
3.5537	8.582
3.5391	8.8085
3.5247	9.4538
3.5104	10.2835
3.4962	11.4523
3.4821	13.1099
3.4681	14.9594
3.4543	16.483
3.4405	17.9471
3.4269	19.5198
3.4133	20.8526
3.3999	22.4008
3.3866	23.5865
3.3733	24.8191
3.3602	25.9247
3.3472	26.9003
3.3343	27.5141
3.3215	27.8296
3.3088	27.9253
3.2961	27.5475
3.2836	26.439
3.2712	24.7958
3.2588	23.3373
3.2466	21.7562
3.2345	21.1259
3.2224	21.9498
3.2104	22.2373
3.1985	21.9248
3.1867	21.2222
3.175	20.5338
3.1634	19.9005
3.1519	19.0869
3.1404	18.3882
3.129	17.9426
3.1178	17.3892
3.1065	16.9012
3.0954	16.5998
3.0844	16.3678
3.0734	16.0614
3.0625	15.8211
3.0517	15.5879
3.041	15.4445
3.0303	15.1321
3.0197	15.0476
3.0092	14.6958
2.9987	14.5651
2.9884	14.3739
2.9781	14.2682
2.9678	14.1588
2.9577	13.8414
2.9476	13.81
2.9376	13.835
2.9276	14.0153
2.9177	13.7549
2.9079	13.6342
2.8982	13.5661
2.8885	14.354
2.8789	15.1742
2.8693	15.7168
2.8598	16.3805
2.8504	16.7467
2.841	17.4619
2.8317	18.1362
2.8224	19.1439
2.8133	19.9477
2.8041	20.9997
2.7951	22.0693
2.786	23.3782
2.7771	24.5616
2.7682	26.0821
2.7594	27.4626
2.7506	29.1952
2.7418	32.2497
2.7332	34.933
2.7246	39.4278
2.716	42.7678
2.7075	46.0944
2.699	47.8131
2.6906	48.8115
2.6823	47.9756
2.674	44.8901
2.6657	41.1131
2.6575	36.397
2.6494	36.3428
2.6413	38.477
2.6332	40.5588
2.6252	41.2606
2.6173	42.2752
2.6094	43.602
2.6015	45.6147
2.5937	48.1771
2.5859	49.0572
2.5782	50.844
2.5706	53.3119
2.5629	56.0633
2.5554	58.1196
2.5478	60.0833
2.5403	60.949
2.5329	61.7214
2.5255	61.6092
2.5181	61.1117
2.5108	60.2227
2.5035	58.6951
2.4963	57.1639
2.4891	55.6243
2.482	54.5676
2.4749	53.9583
2.4678	53.1721
2.4608	52.7608
2.4538	53.5985
2.4468	54.7292
2.4399	55.7074
2.4331	56.0988
2.4262	55.9036
2.4194	57.0552
2.4127	58.403
2.4059	59.8788
2.3993	61.0342
2.3926	62.3665
2.386	63.4336
2.3795	64.6955
2.3729	66.0272
2.3664	67.1254
2.36	68.3931
2.3535	69.486
2.3471	70.8237
2.3408	71.9164
2.3345	73.1062
2.3282	74.2638
2.3219	75.3923
2.3157	76.3041
2.3095	77.2157
2.3034	77.7748
2.2972	78.6875
2.2911	79.1444
2.2851	79.536
2.279	80.087
2.2731	80.281
2.2671	80.3398
2.2612	80.1851
2.2553	79.9927
2.2494	80.1416
2.2435	80.9534
2.2377	81.1249
2.232	81.3068
2.2262	82.2826
2.2205	83.1708
2.2148	83.6159
2.2091	84.0237
2.2035	84.3011
2.1979	84.4801
2.1923	84.5231
2.1868	84.8943
2.1812	85.2099
2.1758	85.0987
2.1703	85.2317
2.1649	85.4652
2.1595	85.4636
2.1541	85.2905
2.1487	85.4161
2.1434	85.1714
2.1381	84.8459
2.1328	84.8374
2.1275	84.4671
2.1223	84.1933
2.1171	83.8722
2.112	83.3645
2.1068	83.0436
2.1017	82.8553
2.0966	81.9702
2.0915	81.3559
2.0865	80.1873
2.0814	80.107
2.0764	80.8707
2.0715	80.8807
2.0665	81.0722
2.0616	81.1793
2.0567	81.1126
2.0518	81.6305
2.0469	81.3889
2.0421	81.4368
2.0373	81.4793
2.0325	81.3252
2.0277	81.2276
2.0229	80.9801
2.0182	80.9608
2.0135	80.5034
2.0088	80.4401
2.0042	79.8261
