Name: Rhodonite (Mn,Ca)SiO_3
Type: Mineral
Class: Silicate
Subclass: Inosilicate
Particle Size: Fine
Sample No.: IN-1A
Owner: JPL
Wavelength Range: VSWIR
Origin: USA, California, Fresno County.
Description: Particle size was 0-45um.Collected by:  Burminco Original ASTER Spectral Library name was jpl.perkin.mineral.silicate.inosilicate.fine.in01a.spectrum.txt
Measurement: Hemispherical reflectance
X Units: Wavelength (micrometers)
Y Units: Reflectance (percent)
wavelength	value
2.5	65.6657
2.494	65.6281
2.488	65.8015
2.482	65.7968
2.476	65.811
2.47	66.0207
2.464	66.115
2.458	66.1834
2.452	66.336
2.446	66.388
2.44	66.5497
2.434	66.4399
2.428	66.513
2.422	66.5716
2.416	66.5428
2.41	66.6314
2.404	66.6481
2.398	66.5927
2.392	66.6885
2.386	66.638
2.38	66.6951
2.374	66.71
2.368	66.625
2.362	66.6794
2.356	66.6596
2.35	66.7766
2.344	66.739
2.338	66.7929
2.332	66.8065
2.326	66.784
2.32	66.7888
2.314	66.7839
2.308	66.7901
2.302	66.7748
2.296	66.7699
2.29	66.7896
2.284	66.779
2.278	66.7669
2.272	66.8436
2.266	66.7887
2.26	66.8283
2.254	66.7958
2.248	66.9866
2.242	66.9626
2.236	67.0334
2.23	67.1016
2.224	67.2257
2.218	67.1798
2.212	67.3803
2.206	67.4382
2.2	67.672
2.194	67.742
2.188	67.764
2.182	67.8603
2.176	68.0222
2.17	68.1627
2.164	68.3042
2.158	68.48
2.152	68.6509
2.146	68.6355
2.14	68.7276
2.134	68.6757
2.128	68.6175
2.122	68.4458
2.116	68.2735
2.11	68.1422
2.104	67.9695
2.098	67.9167
2.092	68.0299
2.086	68.1324
2.08	68.2313
2.074	68.3487
2.068	68.446
2.062	68.5303
2.056	68.6387
2.05	68.7473
2.044	68.8553
2.038	68.9262
2.032	68.9862
2.026	69.0417
2.02	69.0222
2.014	69.0772
2.008	69.1575
2.002	69.1705
1.996	69.1438
1.99	69.1511
1.984	69.0817
1.978	69.1461
1.972	69.1632
1.966	69.0351
1.96	69.0882
1.954	69.055
1.948	69.1584
1.942	69.1578
1.936	69.1992
1.93	69.1371
1.924	69.1816
1.918	69.3064
1.912	69.418
1.906	69.6112
1.9	70.0785
1.894	70.4587
1.888	70.8532
1.882	71.0693
1.876	71.209
1.87	71.4014
1.864	71.5473
1.858	71.5746
1.852	71.6819
1.846	71.7904
1.84	71.7909
1.834	71.9087
1.828	71.8534
1.822	71.8807
1.816	71.9139
1.81	71.9984
1.804	72.0439
1.798	72.029
1.792	72.0099
1.786	71.9433
1.78	71.9393
1.774	71.9621
1.768	71.9334
1.762	71.9002
1.756	71.8375
1.75	71.896
1.744	71.9671
1.738	71.8814
1.732	71.8958
1.726	71.8763
1.72	71.8265
1.714	71.7783
1.708	71.7516
1.702	71.604
1.696	71.6998
1.69	71.5436
1.684	71.5435
1.678	71.5044
1.672	71.3666
1.666	71.4032
1.66	71.3359
1.654	71.2761
1.648	71.2255
1.642	71.2468
1.636	71.1083
1.63	70.9889
1.624	71.0357
1.618	70.9122
1.612	70.8707
1.606	70.7935
1.6	70.7758
1.594	70.714
1.588	70.6331
1.582	70.5682
1.576	70.4803
1.57	70.4947
1.564	70.358
1.558	70.3623
1.552	70.3043
1.546	70.2558
1.54	70.2384
1.534	70.1856
1.528	70.1399
1.522	70.0923
1.516	70.0742
1.51	70.0242
1.504	69.9443
1.498	69.9879
1.492	69.9103
1.486	69.8452
1.48	69.8296
1.474	69.7566
1.468	69.7299
1.462	69.7278
1.456	69.6657
1.45	69.6411
1.444	69.6251
1.438	69.572
1.432	69.4697
1.426	69.4963
1.42	69.4023
1.414	69.309
1.408	69.2599
1.402	69.3929
1.396	69.529
1.39	69.5688
1.384	69.4438
1.378	69.4711
1.372	69.3437
1.366	69.2968
1.36	69.0524
1.354	68.9467
1.348	68.8706
1.342	68.6989
1.336	68.4904
1.33	68.3256
1.324	68.1088
1.318	67.9072
1.312	67.6973
1.306	67.4006
1.3	67.1472
1.294	66.8244
1.288	66.5111
1.282	66.1622
1.276	65.8033
1.27	65.3962
1.264	65.0319
1.258	64.5261
1.252	64.1646
1.246	63.6914
1.24	63.1997
1.234	62.7275
1.228	62.2079
1.222	61.6749
1.216	61.1893
1.21	60.5755
1.204	60.0642
1.198	59.4739
1.192	58.9374
1.186	58.32
1.18	57.7115
1.174	57.1221
1.168	56.5348
1.162	55.909
1.156	55.364
1.15	54.7145
1.144	54.167
1.138	53.572
1.132	53.0033
1.126	52.4408
1.12	51.9239
1.114	51.3485
1.108	50.8486
1.102	50.3008
1.096	49.8738
1.09	49.4478
1.084	49.0463
1.078	48.6565
1.072	48.3203
1.066	48.0313
1.06	47.8648
1.054	47.7155
1.048	47.6483
1.042	47.5757
1.036	47.7017
1.03	47.7901
1.024	48.0112
1.018	48.2941
1.012	48.5576
1.006	48.9857
1	49.4136
0.994	49.8843
0.988	50.3783
0.982	51.0525
0.976	51.6745
0.97	52.3801
0.964	53.0459
0.958	53.8153
0.952	54.547
0.946	55.307
0.94	56.1397
0.934	56.9763
0.928	57.7584
0.922	58.5428
0.916	59.3714
0.91	60.0662
0.904	60.9103
0.898	61.5549
0.892	62.1876
0.886	62.8037
0.88	63.3025
0.874	63.8325
0.868	64.2641
0.862	64.6491
0.856	65.3098
0.85	65.6361
0.844	65.8781
0.838	66.0632
0.832	66.2127
0.826	66.3098
0.82	66.4664
0.814	66.4527
0.808	66.4583
0.802	66.4106
0.796	66.3115
0.79	66.1606
0.784	66.0222
0.778	65.8874
0.772	65.7077
0.766	65.5149
0.76	65.3229
0.754	65.1589
0.748	64.9285
0.742	64.7214
0.736	64.5
0.73	64.2484
0.724	64.0389
0.718	63.7945
0.712	63.5421
0.706	63.3064
0.7	63.064
0.694	62.8178
0.688	62.5523
0.682	62.2718
0.676	61.9911
0.67	61.6737
0.664	61.3603
0.658	60.9834
0.652	60.6479
0.646	60.2488
0.64	59.8341
0.634	59.3962
0.628	58.9127
0.622	58.4137
0.616	57.8566
0.61	57.2542
0.604	56.5822
0.598	55.8627
0.592	55.0678
0.586	54.1679
0.58	53.1888
0.574	52.1436
0.568	51.0974
0.562	50.0688
0.556	49.0997
0.55	48.2599
0.544	47.584
0.538	47.071
0.532	46.6484
0.526	46.3151
0.52	46.0167
0.514	45.7185
0.508	45.3957
0.502	45.0459
0.496	44.7079
0.49	44.2872
0.484	43.8196
0.478	43.336
0.472	42.8549
0.466	42.3137
0.46	41.7545
0.454	41.2687
0.448	40.7977
0.442	40.1981
0.436	39.462
0.43	38.6958
0.424	38.0762
0.418	37.2213
0.412	36.1964
0.406	36.5329
0.4	37.1583
