Name: Glaucophane Na_2(Mg,Fe^2+)_3Al_2Si_8O_22(OH)_2
Type: Mineral
Class: Silicate
Subclass: Inosilicate
Particle Size: Coarse
Sample No.: IN-3A
Owner: JPL
Wavelength Range: VSWIR
Origin: USA, California
Description: Particle size was 125-500um.Collected by Ward's Original ASTER Spectral Library name was jpl.beckman.mineral.silicate.inosilicate.coarse.in03a.spectrum.txt
Measurement: Hemispherical reflectance
X Units: Wavelength (micrometers)
Y Units: Reflectance (percent)
wavelength	value
0.4	5.98
0.403	5.93
0.406	6.23
0.409	6.39
0.412	6.62
0.415	6.82
0.418	6.87
0.421	7.04
0.424	7.11
0.427	7.12
0.43	7.17
0.433	7.35
0.436	7.28
0.439	7.45
0.442	7.69
0.445	7.82
0.448	7.7
0.451	7.69
0.454	7.73
0.457	7.92
0.46	7.96
0.463	7.94
0.466	7.85
0.469	7.88
0.472	7.99
0.475	8
0.478	7.99
0.481	8.04
0.484	8.14
0.487	8.18
0.49	8.27
0.493	8.21
0.496	8.17
0.499	8.2
0.502	8.25
0.505	8.18
0.508	8.31
0.511	8.26
0.514	8.23
0.517	8.19
0.52	8.13
0.523	8.25
0.526	8.18
0.529	8.05
0.532	8.17
0.535	8.16
0.538	8.06
0.541	8.13
0.544	8.03
0.547	8.11
0.55	8.05
0.553	8.11
0.556	8.1
0.559	8.09
0.562	8.1
0.565	8.09
0.568	8.14
0.571	7.99
0.574	8
0.577	7.91
0.58	7.93
0.583	7.81
0.586	7.83
0.589	7.82
0.592	7.84
0.595	7.83
0.598	7.84
0.601	7.77
0.604	7.85
0.607	7.69
0.61	7.69
0.613	7.59
0.616	7.62
0.619	7.6
0.622	7.56
0.625	7.59
0.628	7.6
0.631	7.48
0.634	7.45
0.637	7.44
0.64	7.43
0.643	7.54
0.646	7.57
0.649	7.42
0.652	7.55
0.655	7.39
0.658	7.46
0.661	7.54
0.664	7.49
0.667	7.53
0.67	7.45
0.673	7.5
0.676	7.44
0.679	7.6
0.682	7.61
0.685	7.61
0.688	7.58
0.691	7.71
0.694	7.67
0.697	7.85
0.7	7.73
0.703	7.83
0.706	7.87
0.709	7.89
0.712	8.06
0.715	8.02
0.718	8
0.721	8.1
0.724	8.08
0.727	8.17
0.73	8.23
0.733	8.35
0.736	8.29
0.739	8.34
0.742	8.44
0.745	8.51
0.748	8.43
0.751	8.6
0.754	8.63
0.757	8.67
0.76	8.66
0.763	8.8
0.766	8.82
0.769	8.88
0.772	8.96
0.775	8.82
0.778	8.91
0.781	8.78
0.784	8.93
0.787	8.91
0.79	9.02
0.793	8.87
0.796	8.84
0.799	8.82
0.808	9.35
0.82	9.32
0.832	9.27
0.844	9.25
0.856	9.38
0.868	9.63
0.88	9.76
0.892	10.01
0.904	10.14
0.916	10.3
0.928	10.55
0.94	10.68
0.952	10.82
0.964	10.96
0.976	11.11
0.988	11.16
1	11.3
1.012	11.38
1.024	11.58
1.036	11.8
1.048	12.12
1.06	12.41
1.072	12.68
1.084	13.12
1.096	13.58
1.108	14.01
1.12	14.5
1.132	15.13
1.144	15.77
1.156	16.34
1.168	16.94
1.18	17.54
1.192	18.28
1.204	18.89
1.216	19.46
1.228	20.25
1.24	20.86
1.252	21.39
1.264	22.03
1.276	22.59
1.288	23.16
1.3	23.75
1.312	24.12
1.324	24.66
1.336	25.17
1.348	25.76
1.36	26.13
1.372	26.39
1.384	26.3
1.396	22.44
1.408	23.83
1.42	27.4
1.432	27.82
1.444	27.96
1.456	28.19
1.468	28.76
1.48	29.31
1.492	29.83
1.504	30.08
1.516	30.43
1.528	30.66
1.54	31.03
1.552	31.51
1.564	32.05
1.576	32.53
1.588	32.93
1.6	33.38
1.612	33.73
1.624	34.01
1.636	34.31
1.648	34.6
1.66	34.82
1.672	35.13
1.684	35.45
1.696	35.78
1.708	36.19
1.72	36.41
1.732	36.69
1.744	37
1.756	37.42
1.768	37.61
1.78	37.86
1.792	38.12
1.804	38.28
1.816	38.38
1.828	38.56
1.84	38.85
1.852	39.04
1.864	38.97
1.876	38.77
1.888	38.35
1.9	37.83
1.912	37.33
1.924	36.94
1.936	36.75
1.948	36.98
1.96	37.23
1.972	37.6
1.984	37.96
1.996	38.19
2.008	38.43
2.02	38.9
2.032	39.35
2.044	39.73
2.056	40.03
2.068	40.19
2.08	40.25
2.092	40.25
2.104	40.05
2.116	39.87
2.128	39.54
2.14	39.02
2.152	38.14
2.164	37.2
2.176	36.63
2.188	36.01
2.2	35.4
2.212	34.43
2.224	32.67
2.236	30.19
2.248	27.77
2.26	26.19
2.272	24.61
2.284	22.21
2.296	18.9
2.308	16.54
2.32	16.35
2.332	17.7
2.344	20.07
2.356	22.01
2.368	22.94
2.38	23.19
2.392	23.86
2.404	25.06
2.416	26.22
2.428	26.69
2.44	26.48
2.452	25.71
2.464	24.83
2.476	24.17
2.488	23.85
2.5	23.66
