Name: Cryolite Na_3AlF_6
Type: Mineral
Class: Halide
Subclass: None
Particle Size: Fine
Sample No.: H-1A
Owner: JPL
Wavelength Range: VSWIR
Origin: Denmark, Greenland, Ivigtut
Description: Particle size was 0-45um.Collected by Ward's Original ASTER Spectral Library name was jpl.beckman.mineral.halide.none.fine.h01a.spectrum.txt
Measurement: Hemispherical reflectance
X Units: Wavelength (micrometers)
Y Units: Reflectance (percent)
wavelength	value
0.4	88.11
0.403	88.24
0.406	88.31
0.409	88.43
0.412	88.31
0.415	88.49
0.418	88.66
0.421	88.72
0.424	88.74
0.427	88.85
0.43	88.96
0.433	89.21
0.436	89.27
0.439	89.39
0.442	89.53
0.445	89.47
0.448	89.58
0.451	89.81
0.454	89.78
0.457	89.94
0.46	89.93
0.463	90.02
0.466	90.01
0.469	89.97
0.472	90.15
0.475	90.28
0.478	90.35
0.481	90.48
0.484	90.36
0.487	90.5
0.49	90.52
0.493	90.53
0.496	90.55
0.499	90.62
0.502	90.81
0.505	90.93
0.508	91
0.511	91.11
0.514	91
0.517	91.17
0.52	91.35
0.523	91.3
0.526	91.53
0.529	91.29
0.532	91.52
0.535	91.58
0.538	91.7
0.541	91.65
0.544	91.67
0.547	91.74
0.55	91.92
0.553	91.94
0.556	91.93
0.559	91.9
0.562	92.4
0.565	92.4
0.568	92.33
0.571	92.22
0.574	92.07
0.577	92.35
0.58	92.34
0.583	92.28
0.586	92.28
0.589	92.29
0.592	92.4
0.595	92.41
0.598	92.54
0.601	92.61
0.604	92.57
0.607	92.57
0.61	92.69
0.613	92.69
0.616	92.63
0.619	92.63
0.622	92.63
0.625	92.69
0.628	92.81
0.631	92.69
0.634	92.69
0.637	92.63
0.64	92.81
0.643	92.81
0.646	92.75
0.649	92.75
0.652	92.75
0.655	92.86
0.658	92.81
0.661	92.75
0.664	92.81
0.667	92.75
0.67	92.86
0.673	92.75
0.676	92.92
0.679	92.86
0.682	92.69
0.685	92.93
0.688	92.93
0.691	92.92
0.694	92.81
0.697	92.8
0.7	92.91
0.703	92.93
0.706	93.04
0.709	92.98
0.712	92.87
0.715	92.87
0.718	92.93
0.721	93.1
0.724	92.98
0.727	93.04
0.73	92.93
0.733	92.92
0.736	92.98
0.739	93.04
0.742	92.98
0.745	92.93
0.748	92.87
0.751	92.92
0.754	92.99
0.757	92.93
0.76	92.93
0.763	92.93
0.766	92.93
0.769	92.93
0.772	92.99
0.775	92.99
0.778	92.87
0.781	92.87
0.784	92.99
0.787	93.1
0.79	93.16
0.793	92.99
0.796	92.98
0.799	92.92
0.808	92.9
0.82	93.01
0.832	92.95
0.844	93.13
0.856	93.07
0.868	93.07
0.88	93.01
0.892	93.01
0.904	93.13
0.916	93.13
0.928	93.19
0.94	93.19
0.952	93.25
0.964	93.37
0.976	93.25
0.988	93.25
1	93.19
1.012	93.25
1.024	93.25
1.036	93.31
1.048	93.31
1.06	93.31
1.072	93.31
1.084	93.26
1.096	93.27
1.108	93.21
1.12	93.38
1.132	93.32
1.144	93.19
1.156	93.3
1.168	93.09
1.18	93.19
1.192	93.23
1.204	93.27
1.216	93.33
1.228	93.28
1.24	93.28
1.252	93.28
1.264	93.15
1.276	93.24
1.288	93.16
1.3	93.08
1.312	93
1.324	93.03
1.336	93.07
1.348	93.16
1.36	93.08
1.372	92.93
1.384	92.99
1.396	92.87
1.408	92.6
1.42	92.56
1.432	92.58
1.444	92.48
1.456	92.56
1.468	92.68
1.48	92.85
1.492	92.79
1.504	92.9
1.516	92.96
1.528	92.96
1.54	92.96
1.552	93.08
1.564	93.14
1.576	93.2
1.588	93.19
1.6	93.31
1.612	93.29
1.624	93.32
1.636	93.18
1.648	93.33
1.66	93.31
1.672	93.4
1.684	93.43
1.696	93.31
1.708	93.35
1.72	93.24
1.732	93.12
1.744	93.06
1.756	93.12
1.768	92.95
1.78	93.06
1.792	93.18
1.804	93.21
1.816	93.06
1.828	93.03
1.84	92.99
1.852	92.86
1.864	92.66
1.876	92.3
1.888	91.93
1.9	91.11
1.912	90.17
1.924	89.37
1.936	89.84
1.948	90.4
1.96	91.12
1.972	91.7
1.984	91.97
1.996	92.24
2.008	92.35
2.02	92.56
2.032	92.74
2.044	92.81
2.056	92.87
2.068	92.88
2.08	93.03
2.092	93.21
2.104	93.38
2.116	93.51
2.128	93.52
2.14	93.41
2.152	93.04
2.164	92.7
2.176	92.59
2.188	92.52
2.2	92.46
2.212	92.48
2.224	92.56
2.236	92.56
2.248	92.63
2.26	92.71
2.272	92.63
2.284	92.52
2.296	92.46
2.308	92.32
2.32	92.21
2.332	91.92
2.344	91.5
2.356	91.16
2.368	90.66
2.38	90.36
2.392	90.04
2.404	90.03
2.416	90.07
2.428	90.04
2.44	89.86
2.452	89.74
2.464	89.55
2.476	89.75
2.488	90.43
2.5	91.08
