Name: Fluorite CaF2
Type: Mineral
Class: Halide
Subclass: None
Particle Size: Coarse
Sample No.: flourite_1
Owner: JHU
Wavelength Range: TIR
Origin: Donated by Norma Vergo; sample from Bingham, New Mexico.
Description: The sample was a large piece of a transparent single crystal and appeared to be pure fluorite. Particle size was 74-250 Micrometers. Original ASTER Spectral Library name was jhu.nicolet.mineral.halide.none.coarse.flouri1.spectrum.txt
Measurement: Bidirectional reflectance
X Units: Wavelength (micrometers)
Y Units: Reflectance (percent)
wavelength	value
25.0442	9.4883
24.3388	9.4533
23.6719	9.5486
23.0407	9.8269
22.4422	9.791
21.8741	9.6814
21.334	9.3847
20.8199	8.6889
20.33	7.5537
19.8627	6.241
19.4163	5.3437
18.9896	4.5012
18.5812	3.4067
18.19	2.5225
17.815	1.8621
17.4551	1.4099
17.1094	0.9944
16.7772	0.6611
16.4576	0.3472
16.15	0.2288
15.8537	0.2092
15.568	0.2222
15.2925	0.2332
15.0265	0.3306
14.7697	0.4304
14.5214	0.5745
14.2814	0.6768
14.0492	0.749
13.8244	0.8171
13.6067	0.9497
13.3957	1.1711
13.1912	1.407
12.9929	1.6182
12.8004	1.8769
12.6135	2.1899
12.432	2.5659
12.2557	2.9492
12.0843	3.2529
11.9176	3.5317
11.7555	3.7703
11.5977	4.0156
11.444	4.2073
11.2944	4.4202
11.1487	4.5876
11.0067	4.7805
10.8682	4.9707
10.7332	5.1457
10.6015	5.3064
10.473	5.4563
10.3476	5.5781
10.2251	5.6843
10.1056	5.7468
9.9887	5.8391
9.8746	5.9143
9.763	5.97
9.6539	5.9983
9.5472	5.9866
9.4429	5.9421
9.3408	5.9084
9.2409	5.9055
9.1431	5.9223
9.0474	6.0229
8.9536	6.0974
8.8618	6.1006
8.7718	6.1304
8.6837	6.251
8.5973	6.3877
8.5126	6.5076
8.4295	6.5471
8.3481	6.5732
8.2682	6.6264
8.1898	6.6943
8.1129	6.7646
8.0374	6.8345
7.9634	6.9228
7.8906	7.0261
7.8192	7.1211
7.7491	7.2114
7.6802	7.272
7.6126	7.3269
7.5461	7.375
7.4807	7.4009
7.4165	7.4106
7.3534	7.415
7.2914	7.4079
7.2303	7.3877
7.1703	7.3149
7.1113	7.2803
7.0533	7.2781
6.9962	7.3083
6.94	7.3345
6.8847	7.3481
6.8302	7.334
6.7767	7.3479
6.7239	7.363
6.672	7.3594
6.6209	7.3811
6.5705	7.3923
6.5209	7.4236
6.4721	7.4402
6.424	7.4365
6.3766	7.4675
6.3299	7.4875
6.2838	7.4809
6.2385	7.4802
6.1937	7.4741
6.1496	7.4634
6.1062	7.4592
6.0633	7.4804
6.0211	7.5237
5.9794	7.5827
5.9383	7.6426
5.8978	7.7136
5.8578	7.772
5.8184	7.7798
5.7794	7.7822
5.741	7.7978
5.7031	7.8398
5.6657	7.8804
5.6288	7.9004
5.5924	7.9194
5.5564	7.9304
5.5209	7.9314
5.4859	7.9282
5.4513	7.9341
5.4171	7.935
5.3833	7.9609
5.35	7.9717
5.3171	7.9958
5.2846	8.0107
5.2524	8.0163
5.2207	8.0212
5.1893	8.0244
5.1584	8.0205
5.1277	8.029
5.0975	8.0395
5.0676	8.0617
5.038	8.0764
5.0088	8.0842
4.98	8.0762
4.9514	8.0705
4.9232	8.0654
4.8953	8.0512
4.8678	8.0566
4.8405	8.0593
4.8135	8.0766
4.7868	8.0805
4.7605	8.0759
4.7344	8.074
4.7086	8.0608
4.6831	8.0603
4.6578	8.0715
4.6328	8.0884
4.6081	8.1047
4.5837	8.1069
4.5595	8.104
4.5356	8.1086
4.5119	8.1052
4.4884	8.1067
4.4652	8.1167
4.4423	8.1308
4.4196	8.1509
4.3971	8.1665
4.3748	8.1633
4.3528	8.1679
4.331	8.1706
4.3094	8.1662
4.288	8.1636
4.2668	8.1589
4.2458	8.187
4.2251	8.1899
4.2045	8.2138
4.1841	8.2153
4.164	8.2021
4.144	8.1819
4.1242	8.1872
4.1046	8.1943
4.0852	8.1968
4.066	8.2109
4.047	8.2016
4.0281	8.2053
4.0094	8.1987
3.9909	8.1887
3.9725	8.1775
3.9544	8.175
3.9363	8.1855
3.9185	8.1784
3.9008	8.1872
3.8833	8.197
3.8659	8.1889
3.8487	8.1855
3.8316	8.187
3.8147	8.1838
3.7979	8.185
3.7813	8.186
3.7648	8.199
3.7485	8.1948
3.7323	8.1953
3.7162	8.1936
3.7003	8.176
3.6845	8.1716
3.6689	8.1665
3.6534	8.1662
3.638	8.1621
3.6227	8.1528
3.6076	8.1489
3.5926	8.1416
3.5777	8.1274
3.563	8.1047
3.5484	8.0857
3.5338	8.0783
3.5195	8.0622
3.5052	8.0188
3.491	8.0198
3.477	8.0251
3.463	8.0229
3.4492	7.9958
3.4355	7.9778
3.4219	7.9455
3.4084	7.9436
3.395	7.956
3.3817	7.967
3.3685	7.9702
3.3554	7.9717
3.3425	7.9638
3.3296	7.9626
3.3168	7.9582
3.3041	7.9416
3.2915	7.928
3.279	7.9101
3.2666	7.8889
3.2543	7.8813
3.2421	7.8603
3.23	7.8359
3.218	7.8139
3.206	7.7842
3.1942	7.759
3.1824	7.7258
3.1707	7.6946
3.1591	7.6716
3.1476	7.6374
3.1362	7.6098
3.1249	7.5818
3.1136	7.562
3.1024	7.5261
3.0913	7.5127
3.0803	7.4922
3.0694	7.4736
3.0585	7.4665
3.0477	7.4575
3.037	7.4446
3.0264	7.426
3.0158	7.4177
3.0053	7.4026
2.9949	7.3877
2.9845	7.3662
2.9743	7.3393
2.9641	7.3305
2.9539	7.313
2.9439	7.3032
2.9339	7.3064
2.9239	7.2942
2.9141	7.2832
2.9043	7.2878
2.8946	7.303
2.8849	7.3008
2.8753	7.3152
2.8658	7.3215
2.8563	7.3274
2.8469	7.3486
2.8375	7.3613
2.8282	7.3742
2.819	7.3799
2.8098	7.4136
2.8007	7.4189
2.7917	7.4424
2.7827	7.4707
2.7738	7.5102
2.7649	7.5276
2.7561	7.5359
2.7473	7.5754
2.7386	7.5901
2.7299	7.6428
2.7213	7.6606
2.7128	7.7234
2.7043	7.7463
2.6959	7.7617
2.6875	7.7783
2.6791	7.7671
2.6709	7.7612
2.6626	7.7768
2.6545	7.7646
2.6463	7.7678
2.6382	7.7412
2.6302	7.7307
2.6222	7.7178
2.6143	7.7134
2.6064	7.6867
2.5986	7.6916
2.5908	7.6929
2.583	7.6628
2.5753	7.6455
2.5677	7.6457
2.5601	7.6406
2.5525	7.6157
2.545	7.6076
2.5375	7.5908
2.5301	7.5805
2.5227	7.5532
2.5154	7.5578
2.5081	7.5329
2.5008	7.5183
2.4936	7.5129
2.4864	7.4944
2.4793	7.4919
2.4722	7.4758
2.4651	7.4963
2.4581	7.4604
2.4511	7.4377
2.4442	7.436
2.4373	7.414
2.4305	7.4111
2.4236	7.4172
2.4169	7.4009
2.4101	7.3635
2.4034	7.3594
2.3967	7.3513
2.3901	7.3457
2.3835	7.3271
2.377	7.311
2.3704	7.3042
2.364	7.2881
2.3575	7.282
2.3511	7.2822
2.3447	7.2932
2.3384	7.2615
2.3321	7.2742
2.3258	7.248
2.3195	7.2668
2.3133	7.2519
2.3071	7.2256
2.301	7.2483
2.2949	7.2378
2.2888	7.2334
2.2828	7.2331
2.2767	7.2363
2.2708	7.2138
2.2648	7.2026
2.2589	7.2226
2.253	7.2226
2.2471	7.2217
2.2413	7.2207
2.2355	7.2324
2.2297	7.2163
2.224	7.228
2.2183	7.2265
2.2126	7.23
2.207	7.2705
2.2013	7.2463
2.1957	7.2656
2.1902	7.2661
2.1846	7.2656
2.1791	7.2715
2.1736	7.2807
2.1682	7.2876
2.1628	7.2446
2.1574	7.3208
2.152	7.3017
2.1466	7.3335
2.1413	7.2934
2.136	7.3159
2.1308	7.3252
2.1255	7.3362
2.1203	7.364
2.1151	7.3462
2.11	7.3811
2.1048	7.425
2.0997	7.4441
2.0946	7.4382
2.0895	7.438
2.0845	7.4643
2.0795	7.4814
