Name: Rutile TiO2
Type: Mineral
Class: Oxide
Subclass: None
Particle Size: Solid
Sample No.: rutile_1
Owner: JHU
Wavelength Range: TIR
Origin: White Plains, Alexander County, North Carolina vie theSmithsonian (sample no. NMNH 83192)
Description: The sample was composed of three small crystals with a total weight of 3.83 g.  Some reddish-brown clay mineral and muscovite coating one surface was scraped away.  Veining inside crystals showed limonitic staining.  The crushed sample was given an HCl and HF bath to remove stain, after which microscopic examination indicated a pure sample. Sample was unknown crystal face. (Rutile Group) Original ASTER Spectral Library name was jhu.nicolet.mineral.oxide.none.solid.rutile1.spectrum.txt
Measurement: Bidirectional reflectance
X Units: Wavelength (micrometers)
Y Units: Reflectance (percent)
wavelength	value
25.0442	34.6205
24.3388	35.0666
23.6719	33.8349
23.0407	31.0351
22.4422	26.4081
21.8741	26.6166
21.334	28.6528
20.8199	30.8271
20.33	32.9577
19.8627	35.3026
19.4163	36.38
18.9896	36.2526
18.5812	35.8053
18.19	35.258
17.815	34.8229
17.4551	34.4645
17.1094	33.9018
16.7772	33.6877
16.4576	33.7543
16.15	33.8693
15.8537	33.912
15.568	33.7958
15.2925	33.4281
15.0265	33.0871
14.7697	32.8041
14.5214	32.4118
14.2814	32.0617
14.0492	31.9179
13.8244	31.7978
13.6067	31.486
13.3957	30.9096
13.1912	29.9831
12.9929	28.5751
12.8004	26.728
12.6135	24.5903
12.432	22.3154
12.2557	20.2036
12.0843	17.9067
11.9176	15.1399
11.7555	11.9331
11.5977	8.4302
11.444	5.1877
11.2944	2.9956
11.1487	2.0469
11.0067	1.9849
10.8682	2.2771
10.7332	2.6531
10.6015	3.0378
10.473	3.3984
10.3476	3.7014
10.2251	4.0041
10.1056	4.2698
9.9887	4.5483
9.8746	4.7832
9.763	4.9936
9.6539	5.1958
9.5472	5.3933
9.4429	5.5525
9.3408	5.6868
9.2409	5.834
9.1431	5.9868
9.0474	6.1206
8.9536	6.2803
8.8618	6.3467
8.7718	6.3828
8.6837	6.478
8.5973	6.5722
8.5126	6.6636
8.4295	6.7366
8.3481	6.7959
8.2682	6.8679
8.1898	6.9233
8.1129	6.9687
8.0374	7.0161
7.9634	7.0488
7.8906	7.0908
7.8192	7.177
7.7491	7.2449
7.6802	7.3198
7.6126	7.355
7.5461	7.3965
7.4807	7.4162
7.4165	7.4668
7.3534	7.5005
7.2914	7.5288
7.2303	7.5693
7.1703	7.5937
7.1113	7.6545
7.0533	7.6753
6.9962	7.7243
6.94	7.7568
6.8847	7.7837
6.8302	7.8301
6.7767	7.9057
6.7239	7.9314
6.672	7.9587
6.6209	8.0063
6.5705	8.0093
6.5209	8.092
6.4721	8.1247
6.424	8.1269
6.3766	8.2287
6.3299	8.3017
6.2838	8.3579
6.2385	8.4006
6.1937	8.4348
6.1496	8.4975
6.1062	8.5461
6.0633	8.6467
6.0211	8.7532
5.9794	8.8327
5.9383	8.8506
5.8978	8.9966
5.8578	9.1535
5.8184	9.1762
5.7794	9.4123
5.741	9.6357
5.7031	9.8142
5.6657	9.9468
5.6288	10.0512
5.5924	10.1662
5.5564	10.261
5.5209	10.3357
5.4859	10.3982
5.4513	10.4572
5.4171	10.4848
5.3833	10.5649
5.35	10.6162
5.3171	10.7058
5.2846	10.7793
5.2524	10.8606
5.2207	10.9341
5.1893	11.0029
5.1584	11.0488
5.1277	11.0996
5.0975	11.1259
5.0676	11.1762
5.038	11.2238
5.0088	11.2592
4.98	11.2978
4.9514	11.3239
4.9232	11.3662
4.8953	11.4275
4.8678	11.4675
4.8405	11.499
4.8135	11.4658
4.7868	11.3923
4.7605	11.2221
4.7344	11.051
4.7086	11.0422
4.6831	11.1411
4.6578	11.2995
4.6328	11.4778
4.6081	11.5905
4.5837	11.644
4.5595	11.6733
4.5356	11.688
4.5119	11.688
4.4884	11.7199
4.4652	11.7404
4.4423	11.7509
4.4196	11.7539
4.3971	11.7661
4.3748	11.7627
4.3528	11.75
4.331	11.7192
4.3094	11.6738
4.288	11.6572
4.2668	11.6701
4.2458	11.7485
4.2251	11.7949
4.2045	11.8137
4.1841	11.8115
4.164	11.8164
4.144	11.8105
4.1242	11.822
4.1046	11.8132
4.0852	11.8298
4.066	11.823
4.047	11.8171
4.0281	11.8012
4.0094	11.7878
3.9909	11.7622
3.9725	11.7409
3.9544	11.7287
3.9363	11.7143
3.9185	11.6994
3.9008	11.6941
3.8833	11.6689
3.8659	11.6355
3.8487	11.6152
3.8316	11.5967
3.8147	11.5769
3.7979	11.5512
3.7813	11.5166
3.7648	11.5
3.7485	11.4621
3.7323	11.4421
3.7162	11.4045
3.7003	11.3825
3.6845	11.334
3.6689	11.2976
3.6534	11.269
3.638	11.2334
3.6227	11.1921
3.6076	11.1692
3.5926	11.1125
3.5777	11.0461
3.563	10.9863
3.5484	10.9258
3.5338	10.8147
3.5195	10.6452
3.5052	10.4157
3.491	10.5197
3.477	10.5332
3.463	10.4751
3.4492	10.3501
3.4355	10.2236
3.4219	10.0744
3.4084	10.1797
3.395	10.2436
3.3817	10.1977
3.3685	10.2976
3.3554	10.2917
3.3425	10.2278
3.3296	10.1294
3.3168	10.0178
3.3041	9.906
3.2915	9.7802
3.279	9.6899
3.2666	9.5713
3.2543	9.4717
3.2421	9.4201
3.23	9.3794
3.218	9.3335
3.206	9.2927
3.1942	9.2446
3.1824	9.1955
3.1707	9.1133
3.1591	9.0161
3.1476	8.9155
3.1362	8.8132
3.1249	8.748
3.1136	8.5954
3.1024	8.3799
3.0913	8.1033
3.0803	7.8147
3.0694	7.5915
3.0585	7.3342
3.0477	7.1706
3.037	7.1975
3.0264	7.3235
3.0158	7.4746
3.0053	7.6379
2.9949	7.8667
2.9845	8.0642
2.9743	8.1235
2.9641	8.1408
2.9539	8.1958
2.9439	8.2434
2.9339	8.2829
2.9239	8.311
2.9141	8.395
2.9043	8.4905
2.8946	8.5732
2.8849	8.6272
2.8753	8.676
2.8658	8.7195
2.8563	8.7495
2.8469	8.7409
2.8375	8.7344
2.8282	8.7048
2.819	8.6814
2.8098	8.6555
2.8007	8.5945
2.7917	8.5544
2.7827	8.4719
2.7738	8.4001
2.7649	8.2846
2.7561	8.1953
2.7473	8.2522
2.7386	8.1477
2.7299	8.1872
2.7213	8.1467
2.7128	8.1387
2.7043	8.0491
2.6959	8.1316
2.6875	8.3425
2.6791	8.4328
2.6709	8.4551
2.6626	8.5237
2.6545	8.5161
2.6463	8.4873
2.6382	8.4861
2.6302	8.4275
2.6222	8.4438
2.6143	8.4077
2.6064	8.3413
2.5986	8.3608
2.5908	8.3205
2.583	8.2817
2.5753	8.2563
2.5677	8.228
2.5601	8.1741
2.5525	8.1343
2.545	8.1167
2.5375	8.0312
2.5301	7.935
2.5227	7.8525
2.5154	7.7229
2.5081	7.646
2.5008	7.6208
2.4936	7.5766
2.4864	7.5141
2.4793	7.5093
2.4722	7.4658
2.4651	7.4319
2.4581	7.4446
2.4511	7.4507
2.4442	7.468
2.4373	7.529
2.4305	7.539
2.4236	7.53
2.4169	7.5571
2.4101	7.5371
2.4034	7.5337
2.3967	7.4873
2.3901	7.479
2.3835	7.4463
2.377	7.4448
2.3704	7.4316
2.364	7.4096
2.3575	7.3576
2.3511	7.3266
2.3447	7.3418
2.3384	7.2615
2.3321	7.2573
2.3258	7.2402
2.3195	7.1948
2.3133	7.0759
2.3071	6.9389
2.301	6.845
2.2949	6.8804
2.2888	7.0312
2.2828	7.0898
2.2767	7.145
2.2708	7.1892
2.2648	7.2095
2.2589	7.2138
2.253	7.2346
2.2471	7.2463
2.2413	7.2314
2.2355	7.2834
2.2297	7.2746
2.224	7.2817
2.2183	7.3056
2.2126	7.2991
2.207	7.2825
2.2013	7.313
2.1957	7.3432
2.1902	7.3774
2.1846	7.3691
2.1791	7.3186
2.1736	7.3467
2.1682	7.3596
2.1628	7.4004
2.1574	7.3889
2.152	7.3559
2.1466	7.4404
2.1413	7.4104
2.136	7.4717
2.1308	7.4458
2.1255	7.4726
2.1203	7.4844
2.1151	7.5158
2.11	7.4741
2.1048	7.4902
2.0997	7.5469
2.0946	7.5928
2.0895	7.5703
2.0845	7.581
2.0795	7.542
