Name: Dolomite CaMg(CO3)2
Type: Mineral
Class: Carbonate
Subclass: None
Particle Size: Coarse
Sample No.: dolomite_1
Owner: JHU
Wavelength Range: TIR
Origin: Sample from Oberdorf, Styria, Austria via the Smithsonian(sample no. NMNH R12596).
Description: The sample was a single white crystal, 3 cm x 2 cm x 2 cm and 29 g, showing good cleavage.  No impurities or alteration were visible in hand sample.  Under the microscope it appears very pure and unaltered.Particle size was 74-250 Micrometers. Original ASTER Spectral Library name was jhu.nicolet.mineral.carbonate.none.coarse.dolomi1.spectrum.txt
Measurement: Bidirectional reflectance
X Units: Wavelength (micrometers)
Y Units: Reflectance (percent)
wavelength	value
25.0442	6.582
24.3388	6.4673
23.6719	6.2768
23.0407	5.333
22.4422	4.1982
21.8741	2.8154
21.334	1.5457
20.8199	0.7385
20.33	0.4536
19.8627	0.4219
19.4163	0.3906
18.9896	0.5342
18.5812	0.6077
18.19	0.6851
17.815	0.7273
17.4551	0.7881
17.1094	0.8633
16.7772	0.9421
16.4576	1.1499
16.15	1.3821
15.8537	1.4194
15.568	1.2661
15.2925	1.2749
15.0265	1.4167
14.7697	1.5405
14.5214	1.6018
14.2814	1.6072
14.0492	1.4116
13.8244	1.1782
13.6067	0.6895
13.3957	1.4478
13.1912	2.6086
12.9929	3.4866
12.8004	3.7383
12.6135	3.9954
12.432	4.1106
12.2557	3.9521
12.0843	3.6814
11.9176	3.2163
11.7555	1.9714
11.5977	1.8923
11.444	1.8435
11.2944	3.6218
11.1487	5.7954
11.0067	3.571
10.8682	2.6155
10.7332	2.5703
10.6015	2.6069
10.473	2.7222
10.3476	2.7363
10.2251	2.5989
10.1056	2.4851
9.9887	2.5054
9.8746	2.3713
9.763	2.1013
9.6539	1.9795
9.5472	2.1582
9.4429	2.3181
9.3408	1.9773
9.2409	2.0134
9.1431	2.1492
9.0474	1.8445
8.9536	1.834
8.8618	1.7141
8.7718	1.731
8.6837	1.6223
8.5973	1.6665
8.5126	1.5127
8.4295	1.3843
8.3481	1.4233
8.2682	1.5293
8.1898	1.4709
8.1129	1.373
8.0374	1.427
7.9634	1.447
7.8906	1.4712
7.8192	1.479
7.7491	1.4441
7.6802	1.4729
7.6126	1.5381
7.5461	1.5791
7.4807	1.6094
7.4165	1.6836
7.3534	1.771
7.2914	1.8809
7.2303	2.0159
7.1703	2.2246
7.1113	2.6025
7.0533	3.1477
6.9962	4.1072
6.94	4.2639
6.8847	4.4018
6.8302	4.6365
6.7767	4.8408
6.7239	5.1003
6.672	5.4814
6.6209	6.4458
6.5705	7.3286
6.5209	7.9951
6.4721	8.459
6.424	8.5085
6.3766	8.0605
6.3299	5.2126
6.2838	3.6948
6.2385	2.7405
6.1937	2.2915
6.1496	1.7659
6.1062	1.0576
6.0633	0.533
6.0211	0.2781
5.9794	0.3223
5.9383	0.4014
5.8978	0.4824
5.8578	0.5486
5.8184	0.5889
5.7794	0.6157
5.741	0.6433
5.7031	0.7065
5.6657	0.697
5.6288	0.6462
5.5924	0.606
5.5564	0.5369
5.5209	0.4858
5.4859	0.4641
5.4513	0.6619
5.4171	1.314
5.3833	2.0188
5.35	2.5491
5.3171	2.8569
5.2846	3.1565
5.2524	3.7768
5.2207	4.4473
5.1893	4.9285
5.1584	5.4097
5.1277	5.7348
5.0975	5.9084
5.0676	4.7912
5.038	6.03
5.0088	6.7251
4.98	6.9253
4.9514	7.0615
4.9232	7.1897
4.8953	7.324
4.8678	7.4153
4.8405	7.4311
4.8135	7.3909
4.7868	7.3252
4.7605	7.2251
4.7344	7.0456
4.7086	6.5744
4.6831	5.6362
4.6578	3.8691
4.6328	3.2803
4.6081	3.2366
4.5837	3.864
4.5595	4.5947
4.5356	5.0842
4.5119	5.4765
4.4884	6.3999
4.4652	6.0337
4.4423	5.2439
4.4196	5.4529
4.3971	6.2019
4.3748	6.8403
4.3528	7.2473
4.331	6.1665
4.3094	5.7004
4.288	5.5793
4.2668	5.6802
4.2458	5.9663
4.2251	5.9922
4.2045	6.2312
4.1841	6.3132
4.164	5.9817
4.144	5.5437
4.1242	5.5276
4.1046	5.3164
4.0852	4.9458
4.066	4.3015
4.047	3.53
4.0281	2.6191
4.0094	1.6851
3.9909	1.0559
3.9725	0.7727
3.9544	0.7126
3.9363	0.7083
3.9185	0.7273
3.9008	0.8076
3.8833	0.8809
3.8659	0.927
3.8487	1.2805
3.8316	1.4556
3.8147	1.0579
3.7979	0.9548
3.7813	1.2539
3.7648	1.8318
3.7485	3.0857
3.7323	4.6008
3.7162	5.2021
3.7003	5.6838
3.6845	6.1994
3.6689	6.5012
3.6534	6.6804
3.638	6.7807
3.6227	6.7986
3.6076	6.7629
3.5926	6.7026
3.5777	6.5752
3.563	6.0847
3.5484	4.5283
3.5338	4.8989
3.5195	3.883
3.5052	2.261
3.491	1.1914
3.477	0.9521
3.463	0.8501
3.4492	0.7996
3.4355	0.8962
3.4219	1.0769
3.4084	1.1448
3.395	1.2195
3.3817	1.3391
3.3685	1.4612
3.3554	1.188
3.3425	1.0588
3.3296	1.0486
3.3168	0.9741
3.3041	0.9077
3.2915	2.1226
3.279	3.6619
3.2666	4.4114
3.2543	4.9563
3.2421	5.4321
3.23	5.8176
3.218	6.1108
3.206	6.4035
3.1942	6.5762
3.1824	6.7698
3.1707	6.9165
3.1591	6.9795
3.1476	6.6802
3.1362	6.3728
3.1249	6.3857
3.1136	6.4419
3.1024	6.4731
3.0913	6.2827
3.0803	6.1548
3.0694	6.4001
3.0585	6.7473
3.0477	6.9165
3.037	7.0017
3.0264	7.3371
3.0158	7.6831
3.0053	7.9702
2.9949	8.0749
2.9845	8.1206
2.9743	8.2549
2.9641	8.3877
2.9539	8.4956
2.9439	8.5493
2.9339	8.5835
2.9239	8.6274
2.9141	8.6804
2.9043	8.7578
2.8946	8.8305
2.8849	8.8696
2.8753	8.9094
2.8658	8.9333
2.8563	8.9721
2.8469	8.9809
2.8375	8.9721
2.8282	8.9475
2.819	8.8672
2.8098	8.6655
2.8007	8.2912
2.7917	7.8213
2.7827	7.3188
2.7738	6.6826
2.7649	6.4175
2.7561	6.8569
2.7473	7.3967
2.7386	7.841
2.7299	8.3847
2.7213	8.4817
2.7128	8.8655
2.7043	9.1819
2.6959	9.1648
2.6875	9.1137
2.6791	9.352
2.6709	9.604
2.6626	9.8955
2.6545	10.0444
2.6463	10.1364
2.6382	10.1855
2.6302	10.1404
2.6222	10.2395
2.6143	10.2556
2.6064	10.2138
2.5986	10.2473
2.5908	10.2231
2.583	10.1391
2.5753	10.0776
2.5677	9.9101
2.5601	9.6592
2.5525	9.4438
2.545	8.8764
2.5375	7.9487
2.5301	7.0561
2.5227	6.4966
2.5154	6.2302
2.5081	6.3354
2.5008	6.5749
2.4936	6.8232
2.4864	7.1387
2.4793	7.4697
2.4722	7.5801
2.4651	7.574
2.4581	7.6953
2.4511	7.9302
2.4442	8.251
2.4373	8.6479
2.4305	8.9013
2.4236	9.1636
2.4169	9.4428
2.4101	9.5781
2.4034	9.6426
2.3967	9.7314
2.3901	9.8181
2.3835	9.8525
2.377	9.9294
2.3704	10.0259
2.364	10.0024
2.3575	9.9082
2.3511	9.7153
2.3447	9.1555
2.3384	8.5749
2.3321	8.0654
2.3258	7.7519
2.3195	7.7031
2.3133	7.7851
2.3071	7.8764
2.301	8.0066
2.2949	8.1716
2.2888	8.2939
2.2828	8.3723
2.2767	8.4729
2.2708	8.4912
2.2648	8.626
2.2589	8.7973
2.253	9.0158
2.2471	9.1919
2.2413	9.4065
2.2355	9.5552
2.2297	9.6047
2.224	9.6382
2.2183	9.7319
2.2126	9.8196
2.207	9.8056
2.2013	9.8774
2.1957	9.8847
2.1902	10.0393
2.1846	9.9944
2.1791	10.0276
2.1736	10.0307
2.1682	10.0002
2.1628	10.0488
2.1574	10.0022
2.152	9.9592
2.1466	9.9052
2.1413	9.8818
2.136	9.917
2.1308	9.9231
2.1255	10.001
2.1203	10.0276
2.1151	10.0315
2.11	10.133
2.1048	10.1145
2.0997	10.1447
2.0946	10.1885
2.0895	10.1938
2.0845	10.2324
2.0795	10.165
