Name: Mimetite Pb_5(AsO_4)_3Cl
Type: Mineral
Class: Arsenate
Subclass: None
Particle Size: Coarse
Sample No.: A-1A
Owner: JPL
Wavelength Range: VSWIR
Origin: Mexico, Chihuahua, Ingla Tierra Mine
Description: Particle size was 125-500um.Collected by JPL Original ASTER Spectral Library name was jpl.beckman.mineral.arsenate.none.coarse.a01.spectrum.txt
Measurement: Hemispherical reflectance
X Units: Wavelength (micrometers)
Y Units: Reflectance (percent)
wavelength	value
0.4	12.74
0.403	12.82
0.406	12.82
0.409	13.05
0.412	13.13
0.415	13.23
0.418	13.4
0.421	13.57
0.424	13.86
0.427	13.98
0.43	14.33
0.433	14.62
0.436	14.93
0.439	15.26
0.442	15.66
0.445	16
0.448	16.47
0.451	17.05
0.454	17.6
0.457	18.23
0.46	18.58
0.463	19.59
0.466	20.18
0.469	21.12
0.472	21.92
0.475	22.9
0.478	23.93
0.481	24.83
0.484	25.99
0.487	27.03
0.49	28.3
0.493	29.63
0.496	30.93
0.499	32.22
0.502	33.56
0.505	34.99
0.508	36.5
0.511	37.98
0.514	39.38
0.517	40.58
0.52	42.05
0.523	43.51
0.526	44.84
0.529	46.11
0.532	47.24
0.535	48.47
0.538	49.74
0.541	50.74
0.544	51.8
0.547	52.8
0.55	53.79
0.553	54.65
0.556	55.7
0.559	56.33
0.562	57.64
0.565	58.5
0.568	59.24
0.571	60.07
0.574	60.76
0.577	61.47
0.58	62.05
0.583	62.72
0.586	63.47
0.589	63.98
0.592	64.6
0.595	65.08
0.598	65.44
0.601	66.13
0.604	66.67
0.607	67.06
0.61	67.25
0.613	67.61
0.616	67.96
0.619	68.22
0.622	68.45
0.625	68.75
0.628	68.77
0.631	69.09
0.634	69.14
0.637	69.45
0.64	69.66
0.643	69.69
0.646	69.86
0.649	70.02
0.652	70.35
0.655	70.4
0.658	70.62
0.661	70.56
0.664	70.87
0.667	71.18
0.67	71.3
0.673	71.45
0.676	71.54
0.679	71.68
0.682	71.85
0.685	72.11
0.688	72.19
0.691	72.31
0.694	72.36
0.697	72.45
0.7	72.67
0.703	72.67
0.706	72.82
0.709	73.03
0.712	73.16
0.715	73.3
0.718	73.34
0.721	73.49
0.724	73.53
0.727	73.7
0.73	73.71
0.733	73.88
0.736	73.81
0.739	73.87
0.742	74.05
0.745	74.14
0.748	74.23
0.751	74.28
0.754	74.37
0.757	74.46
0.76	74.57
0.763	74.69
0.766	74.75
0.769	74.78
0.772	74.74
0.775	74.84
0.778	74.77
0.781	75.02
0.784	74.97
0.787	75.07
0.79	75.22
0.793	75.03
0.796	75.31
0.799	75.15
0.808	75.71
0.82	75.8
0.832	76.09
0.844	76.51
0.856	77.04
0.868	77.29
0.88	77.53
0.892	77.81
0.904	78.04
0.916	78.19
0.928	78.46
0.94	78.67
0.952	78.82
0.964	79.1
0.976	79.22
0.988	79.38
1	79.58
1.012	79.74
1.024	79.95
1.036	80.3
1.048	80.5
1.06	80.68
1.072	81.04
1.084	81.34
1.096	81.56
1.108	81.65
1.12	81.88
1.132	81.91
1.144	81.99
1.156	82.07
1.168	82.12
1.18	82.15
1.192	82.21
1.204	82.19
1.216	82.2
1.228	82.11
1.24	82.16
1.252	82.21
1.264	82.2
1.276	82.17
1.288	82.06
1.3	81.98
1.312	81.96
1.324	81.77
1.336	81.66
1.348	81.46
1.36	81.35
1.372	81.16
1.384	80.91
1.396	80.65
1.408	80.29
1.42	80.06
1.432	79.68
1.444	79.53
1.456	79.46
1.468	79.4
1.48	79.4
1.492	79.34
1.504	79.29
1.516	79.27
1.528	79.15
1.54	79.06
1.552	78.9
1.564	78.71
1.576	78.47
1.588	78.31
1.6	78.06
1.612	77.91
1.624	77.67
1.636	77.46
1.648	77.27
1.66	77
1.672	76.8
1.684	76.47
1.696	76.13
1.708	75.9
1.72	75.58
1.732	75.19
1.744	74.9
1.756	74.56
1.768	74.23
1.78	73.88
1.792	73.7
1.804	73.34
1.816	73.1
1.828	72.72
1.84	72.3
1.852	71.98
1.864	71.45
1.876	70.82
1.888	70.1
1.9	69.33
1.912	68.79
1.924	68.33
1.936	68.02
1.948	67.83
1.96	67.78
1.972	67.82
1.984	67.95
1.996	68.04
2.008	67.97
2.02	68.19
2.032	68.22
2.044	68.21
2.056	68.39
2.068	68.45
2.08	68.39
2.092	68.43
2.104	68.51
2.116	68.68
2.128	68.7
2.14	68.6
2.152	68.36
2.164	68.21
2.176	68.01
2.188	67.91
2.2	67.89
2.212	67.62
2.224	67.46
2.236	67.13
2.248	66.58
2.26	66.26
2.272	66.34
2.284	66.51
2.296	66.4
2.308	66.13
2.32	65.81
2.332	65.79
2.344	66.17
2.356	66.47
2.368	66.43
2.38	66.34
2.392	66.14
2.404	65.94
2.416	65.82
2.428	65.66
2.44	65.56
2.452	65.43
2.464	65.33
2.476	65.22
2.488	65.27
2.5	65.35
