Name: Rivadavite Na6MgB24O40 * 22H2O
Type: Mineral
Class: Borate
Subclass: None
Particle Size: Coarse
Sample No.: NMNH170164
Owner: Smithsonian Institute, National Museum of Nat. History
Wavelength Range: All
Origin: Tinclayu, Salta, Argentina
Description: Rivadavite from Tinclayu, Salta, ArgentinaSample was Unsieved coarse powder. Original ASTER Spectral Library name was usgs.perknic.mineral.borate.none.coarse.rivadac.spectrum.txt
Measurement: Directional Hemispherical Reflectance
X Units: Wavelength (micrometers)
Y Units: Reflectance (percent)
wavelength	value
13.9	3.986
13.644	3.904
13.398	4.604
13.16	5.243
12.93	6.118
12.708	7.643
12.494	9.188
12.287	10.403
12.086	5.49
11.892	3.842
11.704	5.212
11.522	6.036
11.346	3.904
11.175	3.605
11.009	4.336
10.848	3.687
10.691	4.995
10.539	6.808
10.391	11.268
10.247	4.81
10.108	4.686
9.972	6.149
9.839	6.427
9.71	6.726
9.585	7.416
9.462	8.106
9.343	9.126
9.226	12.257
9.113	13.091
9.002	9.826
8.894	7.931
8.789	6.705
8.686	7.653
8.585	6.139
8.487	3.729
8.391	3.78
8.297	4.542
8.205	4.408
8.115	4.141
8.027	3.533
7.941	2.215
7.857	1.823
7.774	2.482
7.694	3.471
7.614	3.708
7.537	4.347
7.461	5.768
7.387	7.54
7.314	11.711
7.242	9.795
7.172	5.202
7.103	3.234
7.036	4.274
6.97	4.408
6.905	6.613
6.841	6.767
6.778	2.657
6.717	1.813
6.657	1.061
6.597	0.597
6.539	0.608
6.482	0.68
6.426	0.793
6.37	0.865
6.316	0.958
6.263	1.071
6.21	1.174
6.159	1.133
6.108	1.133
6.058	1.267
6.009	1.164
5.96	1.226
5.913	1.298
5.866	1.298
5.82	1.391
5.775	1.555
5.73	1.689
5.686	1.792
5.643	1.875
5.6	1.957
5.558	2.029
5.517	2.06
5.476	2.122
5.436	2.204
5.396	2.256
5.357	2.338
5.319	2.39
5.281	2.462
5.243	2.482
5.206	2.596
5.17	2.637
5.134	2.719
5.099	2.699
5.064	2.76
5.03	2.812
4.996	2.833
4.962	2.853
4.929	2.936
4.897	2.936
4.865	3.018
4.833	3.018
4.802	3.038
4.771	2.997
4.74	3.038
4.71	3.008
4.68	2.987
4.651	3.08
4.622	3.09
4.593	3.142
4.565	3.121
4.537	3.162
4.509	3.203
4.482	3.255
4.455	3.265
4.428	3.193
4.402	3.265
4.376	3.172
4.35	3.203
4.325	3.183
4.3	3.275
4.275	3.327
4.251	3.255
4.226	3.214
4.202	3.286
4.179	3.275
4.155	3.317
4.132	3.337
4.109	3.399
4.086	3.492
4.064	3.44
4.042	3.461
4.02	3.512
3.998	3.502
3.977	3.492
3.956	3.471
3.935	3.42
3.914	3.348
3.893	3.44
3.873	3.461
3.853	3.471
3.833	3.512
3.813	3.43
3.794	3.574
3.774	3.605
3.755	3.492
3.736	3.626
3.717	3.554
3.699	3.502
3.68	3.512
3.662	3.626
3.644	3.492
3.626	3.481
3.609	3.43
3.591	3.43
3.574	3.317
3.557	3.399
3.54	3.296
3.523	3.337
3.506	3.337
3.49	3.224
3.473	3.337
3.457	3.306
3.441	3.244
3.425	3.224
3.409	3.224
3.394	3.183
3.378	3.183
3.363	3.111
3.348	3.162
3.333	3.131
3.318	2.977
3.303	3.09
3.288	3.018
3.274	3.09
3.259	3.121
3.245	3.059
3.231	3.008
3.217	3.244
3.203	3.193
3.189	3.183
3.176	3.1
3.162	3.203
3.149	3.183
3.135	3.193
3.122	3.059
3.109	3.255
3.096	3.152
3.083	3.203
3.07	3.255
3.058	3.368
3.045	3.337
3.033	3.244
3.02	3.224
3.008	3.337
2.996	3.069
2.984	2.822
2.972	2.709
2.96	2.781
2.948	2.688
2.937	2.369
2.925	2.4
2.913	2.596
2.902	2.565
2.891	2.4
2.879	2.256
2.868	2.101
2.857	2.276
2.846	2.287
2.835	2.575
2.825	2.544
2.814	1.772
2.803	1.586
2.793	1.494
2.782	1.823
2.772	1.648
2.761	1.792
2.751	1.905
2.741	2.132
2.731	2.359
2.721	2.894
2.711	3.244
2.701	3.821
2.691	3.842
2.681	4.82
2.672	4.8
2.662	5.469
2.653	5.737
2.643	5.83
2.634	5.984
2.624	6.396
2.615	6.417
2.606	6.52
2.597	7.066
2.588	7.025
2.579	7.138
2.57	6.973
2.561	7.22
2.552	7.334
2.543	6.716
2.535	6.757
2.526	6.664
2.517	6.973
2.509	7.014
2.5	7.117
2.486	6.911
2.472	6.697
2.458	6.66
2.444	6.295
2.43	6.37
2.416	6.996
2.402	7.522
2.388	8.143
2.374	8.78
2.36	9.271
2.346	9.65
2.332	10.13
2.318	10.486
2.304	10.441
2.29	10.121
2.276	9.833
2.262	9.614
2.248	9.443
2.234	9.108
2.22	8.664
2.206	8.181
2.192	7.816
2.178	7.643
2.164	7.403
2.15	8.184
2.136	9.039
2.122	9.244
2.108	9.241
2.094	9.479
2.08	9.959
2.066	10.535
2.052	10.582
2.038	10.647
2.024	10.618
2.01	10.616
1.996	10.354
1.982	9.896
1.968	8.886
1.954	8.399
1.94	7.603
1.926	7.515
1.912	9.147
1.898	12.141
1.884	14.567
1.87	16.092
1.856	16.532
1.842	16.768
1.828	16.44
1.814	16.419
1.8	16.087
1.786	15.924
1.772	15.909
1.758	16.311
1.744	16.704
1.73	17.179
1.716	17.462
1.702	17.624
1.688	17.784
1.674	17.875
1.66	17.961
1.646	18.022
1.632	17.96
1.618	17.756
1.604	17.642
1.59	17.354
1.576	17.287
1.562	17.379
1.548	17.283
1.534	17.196
1.52	16.652
1.506	16.354
1.492	15.659
1.478	14.869
1.464	14.68
1.45	12.304
1.436	13.146
1.422	15.857
1.408	19.043
1.394	26.703
1.38	31.409
1.366	32.641
1.352	32.663
1.338	33.016
1.324	36.774
1.31	39.842
1.296	41.69
1.282	42.288
1.268	42.062
1.254	41.991
1.24	43.612
1.226	44.397
1.212	44.952
1.198	44.116
1.184	44.149
1.17	44.044
1.156	48.083
1.142	52.303
1.128	53.419
1.114	53.992
1.1	54.483
1.086	54.979
1.072	55.095
1.058	54.769
1.044	54.078
1.03	52.809
1.016	51.204
1.002	48.59
0.988	45.563
0.974	48.633
0.96	53.032
0.946	55.081
0.932	56.852
0.918	57.905
0.904	58.436
0.89	59.261
0.876	59.596
0.862	59.558
0.848	60.987
0.834	61.694
0.82	62.128
0.806	62.436
0.792	62.553
0.778	62.443
0.764	62.128
0.75	62.416
0.736	63.505
0.722	64.032
0.708	64.313
0.694	64.465
0.68	64.657
0.666	64.73
0.652	64.835
0.638	64.859
0.624	64.835
0.61	64.932
0.596	64.998
0.582	64.924
0.568	64.766
0.554	64.615
0.54	64.453
0.526	64.359
0.512	64.249
0.498	64.118
0.484	64.046
0.47	63.916
0.456	63.767
0.442	63.68
0.428	63.654
0.414	63.538
0.4	63.485
