Name: Montmorillonite (Na,Ca)_0.33(Al,Mg)_2Si_4O_10(OH)_2.H_2O
Type: Mineral
Class: Silicate
Subclass: Phyllosilicate
Particle Size: Fine
Sample No.: PS-2B
Owner: JPL
Wavelength Range: VSWIR
Origin: USA, Texas, Gonzales County.
Description: Particle size was 0-45um.Collected by:  Clay Mineral Society Original ASTER Spectral Library name was jpl.perkin.mineral.silicate.phyllosilicate.fine.ps02b.spectrum.txt
Measurement: Hemispherical reflectance
X Units: Wavelength (micrometers)
Y Units: Reflectance (percent)
wavelength	value
2.5	34.917
2.494	35.2006
2.488	35.8806
2.482	36.3189
2.476	37.0021
2.47	37.4934
2.464	38.0677
2.458	38.6991
2.452	39.173
2.446	39.8757
2.44	40.5526
2.434	41.4331
2.428	42.1166
2.422	42.937
2.416	43.6715
2.41	44.3968
2.404	45.1188
2.398	45.8689
2.392	46.5671
2.386	47.3966
2.38	48.3409
2.374	49.1152
2.368	49.7482
2.362	50.5284
2.356	51.3459
2.35	52.1363
2.344	52.9483
2.338	53.8938
2.332	54.7043
2.326	55.5448
2.32	56.1787
2.314	56.7273
2.308	57.2185
2.302	57.8191
2.296	58.4853
2.29	59.2076
2.284	59.8167
2.278	60.4144
2.272	60.9293
2.266	61.2806
2.26	61.43
2.254	61.2925
2.248	60.9256
2.242	60.4542
2.236	59.5899
2.23	58.4545
2.224	56.799
2.218	54.3019
2.212	52.4546
2.206	52.4153
2.2	54.5735
2.194	57.4864
2.188	60.2979
2.182	62.4369
2.176	63.9694
2.17	65.0984
2.164	65.9041
2.158	66.3937
2.152	66.6289
2.146	66.6649
2.14	66.6799
2.134	66.6097
2.128	66.2908
2.122	65.8899
2.116	65.4527
2.11	64.7699
2.104	64.2242
2.098	63.8684
2.092	63.6843
2.086	63.4811
2.08	63.3892
2.074	63.154
2.068	62.9194
2.062	62.6855
2.056	62.2954
2.05	61.8216
2.044	61.2453
2.038	60.6251
2.032	59.8654
2.026	58.9764
2.02	58.0444
2.014	57.0227
2.008	55.9564
2.002	54.9004
1.996	53.7674
1.99	52.5825
1.984	51.5641
1.978	50.6188
1.972	49.7214
1.966	49.0024
1.96	48.3721
1.954	47.7129
1.948	47.1285
1.942	46.3124
1.936	45.3438
1.93	43.9012
1.924	41.7523
1.918	39.1151
1.912	36.7087
1.906	36.0935
1.9	39.5503
1.894	46.1875
1.888	53.4325
1.882	59.5903
1.876	64.2674
1.87	68.6925
1.864	71.5426
1.858	73.4031
1.852	74.5883
1.846	75.2902
1.84	75.7081
1.834	76.1882
1.828	76.4729
1.822	76.6495
1.816	76.8092
1.81	76.9656
1.804	77.0121
1.798	77.1135
1.792	77.1792
1.786	77.3339
1.78	77.6056
1.774	77.9221
1.768	78.3102
1.762	78.556
1.756	78.9341
1.75	79.3657
1.744	79.6473
1.738	80.0602
1.732	80.3334
1.726	80.6132
1.72	80.8156
1.714	81.0109
1.708	81.2575
1.702	81.383
1.696	81.4935
1.69	81.5158
1.684	81.6155
1.678	81.6214
1.672	81.5723
1.666	81.6721
1.66	81.5793
1.654	81.5669
1.648	81.4731
1.642	81.4246
1.636	81.3881
1.63	81.3441
1.624	81.1916
1.618	81.0694
1.612	80.9455
1.606	80.8171
1.6	80.5025
1.594	80.4556
1.588	80.2776
1.582	79.988
1.576	79.6945
1.57	79.4602
1.564	79.1482
1.558	78.9393
1.552	78.5103
1.546	78.0928
1.54	77.6557
1.534	77.1745
1.528	76.7343
1.522	76.2194
1.516	75.5323
1.51	74.9724
1.504	74.2594
1.498	73.6333
1.492	72.8435
1.486	71.9288
1.48	70.9258
1.474	69.776
1.468	68.7392
1.462	68.3589
1.456	68.3965
1.45	68.2212
1.444	67.6626
1.438	66.79
1.432	65.3536
1.426	63.0469
1.42	59.8451
1.414	58.7947
1.408	61.0071
1.402	64.0425
1.396	68.0923
1.39	72.8425
1.384	76.6439
1.378	79.2891
1.372	81.0624
1.366	82.0909
1.36	82.9828
1.354	83.3979
1.348	83.9258
1.342	84.3488
1.336	84.8424
1.33	85.4312
1.324	85.7218
1.318	86.3422
1.312	86.7075
1.306	87.0124
1.3	87.2574
1.294	87.5753
1.288	87.8634
1.282	88.0214
1.276	88.1406
1.27	88.2539
1.264	88.243
1.258	88.159
1.252	88.1177
1.246	88.182
1.24	88.2442
1.234	88.2523
1.228	88.2166
1.222	88.1317
1.216	88.0884
1.21	88.1028
1.204	87.9744
1.198	87.8768
1.192	87.8835
1.186	87.7987
1.18	87.8026
1.174	87.623
1.168	87.3272
1.162	86.9831
1.156	86.68
1.15	87.0308
1.144	87.9124
1.138	88.6705
1.132	89.0029
1.126	89.2657
1.12	89.2708
1.114	89.3924
1.108	89.3513
1.102	89.3077
1.096	89.4854
1.09	89.4097
1.084	89.436
1.078	89.3955
1.072	89.4348
1.066	89.4081
1.06	89.4176
1.054	89.364
1.048	89.2854
1.042	89.2706
1.036	89.1932
1.03	89.1543
1.024	89.0465
1.018	88.9707
1.012	89.0117
1.006	88.8353
1	88.7383
0.994	88.6577
0.988	88.4622
0.982	88.2633
0.976	87.9877
0.97	87.5797
0.964	87.4781
0.958	87.6377
0.952	88.1492
0.946	88.4944
0.94	88.6785
0.934	88.8491
0.928	88.9121
0.922	89.0159
0.916	89.0041
0.91	89.0302
0.904	89.1671
0.898	89.1761
0.892	89.1991
0.886	89.224
0.88	89.1528
0.874	89.1855
0.868	89.243
0.862	89.2229
0.856	89.5323
0.85	89.5462
0.844	89.6568
0.838	89.6494
0.832	89.7103
0.826	89.8324
0.82	89.8517
0.814	89.891
0.808	89.9594
0.802	90.0027
0.796	89.9752
0.79	90.0201
0.784	90.059
0.778	89.9579
0.772	90.0495
0.766	89.9992
0.76	89.9639
0.754	89.9123
0.748	89.8501
0.742	89.8137
0.736	89.7503
0.73	89.7448
0.724	89.6695
0.718	89.6134
0.712	89.5109
0.706	89.3724
0.7	89.2606
0.694	89.1592
0.688	89.0005
0.682	88.8329
0.676	88.69
0.67	88.5303
0.664	88.401
0.658	88.2498
0.652	88.1144
0.646	88.0051
0.64	87.8743
0.634	87.7403
0.628	87.6457
0.622	87.5283
0.616	87.4105
0.61	87.287
0.604	87.1452
0.598	87.029
0.592	86.8961
0.586	86.7234
0.58	86.4849
0.574	86.228
0.568	85.9852
0.562	85.6622
0.556	85.3035
0.55	84.9277
0.544	84.5545
0.538	84.1654
0.532	83.7504
0.526	83.3429
0.52	82.8919
0.514	82.4625
0.508	82.0607
0.502	81.6258
0.496	81.242
0.49	80.8331
0.484	80.4928
0.478	80.1923
0.472	79.9145
0.466	79.6277
0.46	79.3571
0.454	78.9878
0.448	78.3305
0.442	77.4454
0.436	76.6105
0.43	75.7863
0.424	74.8588
0.418	73.9012
0.412	72.8978
0.406	71.9348
0.4	70.8911
