Name: Acmite NaFe+3Si2O6
Type: Mineral
Class: Silicate
Subclass: Inosilicate
Particle Size: Coarse
Sample No.: acmite_2
Owner: JHU
Wavelength Range: TIR
Origin: Sample from Kangerdluarssuk, near Narssaq, Greenland viathe Smithsonian (sample no. NMNH 133746).
Description: The sample consisted of large (up to 2 cm long and almost as wide), very dark green prismatic crystals of acmite intergrown with albite.  The material was crushed and hand-picked for single crystal measurements and grinding.  The concentrate appeared pure under microscopic examination.  Particle size was 74-250 Micrometers.(Pyroxene Group - single chain) Original ASTER Spectral Library name was jhu.nicolet.mineral.silicate.inosilicate.coarse.acmite2.spectrum.txt
Measurement: Bidirectional reflectance
X Units: Wavelength (micrometers)
Y Units: Reflectance (percent)
wavelength	value
25.0442	3.3921
24.3388	3.0503
23.6719	2.9136
23.0407	3.3418
22.4422	3.9385
21.8741	4.4385
21.334	4.6894
20.8199	4.6316
20.33	4.928
19.8627	5.2768
19.4163	4.8022
18.9896	4.3664
18.5812	4.1855
18.19	4.0229
17.815	4.3789
17.4551	4.2663
17.1094	3.3186
16.7772	1.8115
16.4576	0.7825
16.15	0.9338
15.8537	1.1785
15.568	1.5525
15.2925	1.25
15.0265	0.9141
14.7697	1.1003
14.5214	1.199
14.2814	1.3125
14.0492	1.3618
13.8244	1.4138
13.6067	1.4136
13.3957	1.5283
13.1912	1.6721
12.9929	1.7737
12.8004	1.8208
12.6135	1.8486
12.432	1.9214
12.2557	1.9612
12.0843	2.0464
11.9176	2.1597
11.7555	2.2793
11.5977	2.2703
11.444	2.3682
11.2944	2.5813
11.1487	2.8191
11.0067	3.0554
10.8682	3.3262
10.7332	3.77
10.6015	4.3577
10.473	4.616
10.3476	4.5627
10.2251	4.5654
10.1056	4.9285
9.9887	5.3652
9.8746	5.5036
9.763	5.478
9.6539	5.6501
9.5472	6.1831
9.4429	6.6731
9.3408	6.4565
9.2409	5.8008
9.1431	5.1369
9.0474	4.4092
8.9536	3.834
8.8618	3.5891
8.7718	3.7378
8.6837	3.8201
8.5973	2.9602
8.5126	1.928
8.4295	1.084
8.3481	0.5874
8.2682	0.4736
8.1898	0.533
8.1129	0.635
8.0374	0.7219
7.9634	0.7898
7.8906	0.8603
7.8192	0.9392
7.7491	0.9956
7.6802	1.0474
7.6126	1.0967
7.5461	1.1394
7.4807	1.1587
7.4165	1.2178
7.3534	1.3
7.2914	1.3845
7.2303	1.4832
7.1703	1.5684
7.1113	1.6382
7.0533	1.6809
6.9962	1.7495
6.94	1.8284
6.8847	1.865
6.8302	1.8811
6.7767	1.904
6.7239	1.9543
6.672	1.9824
6.6209	2.0234
6.5705	2.0723
6.5209	2.106
6.4721	2.0698
6.424	1.9807
6.3766	1.8979
6.3299	1.8484
6.2838	1.8176
6.2385	1.7639
6.1937	1.7749
6.1496	1.8777
6.1062	1.9731
6.0633	1.9844
6.0211	1.9348
5.9794	1.8503
5.9383	1.7449
5.8978	1.709
5.8578	1.7285
5.8184	1.658
5.7794	1.6094
5.741	1.6421
5.7031	1.6758
5.6657	1.7068
5.6288	1.7842
5.5924	1.9954
5.5564	2.3269
5.5209	2.6609
5.4859	2.7783
5.4513	2.7788
5.4171	2.7561
5.3833	2.7151
5.35	2.6616
5.3171	2.6121
5.2846	2.5759
5.2524	2.5185
5.2207	2.4897
5.1893	2.5547
5.1584	2.6782
5.1277	2.793
5.0975	2.9375
5.0676	3.0818
5.038	3.209
5.0088	3.3169
4.98	3.4282
4.9514	3.5246
4.9232	3.6064
4.8953	3.7244
4.8678	3.8425
4.8405	3.9199
4.8135	4.0061
4.7868	4.0959
4.7605	4.2185
4.7344	4.3474
4.7086	4.5205
4.6831	4.8423
4.6578	5.2019
4.6328	5.5705
4.6081	5.9253
4.5837	6.2148
4.5595	6.4368
4.5356	6.6159
4.5119	6.7446
4.4884	6.8225
4.4652	6.8923
4.4423	6.9416
4.4196	6.9812
4.3971	7.0259
4.3748	7.0586
4.3528	7.0837
4.331	7.1035
4.3094	7.1216
4.288	7.1435
4.2668	7.1689
4.2458	7.2063
4.2251	7.2322
4.2045	7.2595
4.1841	7.2778
4.164	7.2976
4.144	7.3144
4.1242	7.3406
4.1046	7.3711
4.0852	7.4126
4.066	7.4614
4.047	7.4985
4.0281	7.5451
4.0094	7.5696
3.9909	7.5928
3.9725	7.6208
3.9544	7.644
3.9363	7.6623
3.9185	7.6709
3.9008	7.6892
3.8833	7.685
3.8659	7.6809
3.8487	7.6721
3.8316	7.6721
3.8147	7.6667
3.7979	7.6841
3.7813	7.6987
3.7648	7.7131
3.7485	7.7185
3.7323	7.7248
3.7162	7.7331
3.7003	7.7336
3.6845	7.7407
3.6689	7.7461
3.6534	7.7463
3.638	7.7551
3.6227	7.7566
3.6076	7.7563
3.5926	7.7632
3.5777	7.7453
3.563	7.7297
3.5484	7.718
3.5338	7.697
3.5195	7.6728
3.5052	7.6452
3.491	7.6291
3.477	7.6142
3.463	7.5962
3.4492	7.5659
3.4355	7.53
3.4219	7.4819
3.4084	7.4568
3.395	7.4431
3.3817	7.417
3.3685	7.3913
3.3554	7.374
3.3425	7.3533
3.3296	7.3264
3.3168	7.2727
3.3041	7.2431
3.2915	7.2068
3.279	7.1653
3.2666	7.1242
3.2543	7.0698
3.2421	7.0173
3.23	6.9538
3.218	6.8904
3.206	6.8332
3.1942	6.7659
3.1824	6.6924
3.1707	6.6186
3.1591	6.5525
3.1476	6.466
3.1362	6.3862
3.1249	6.3071
3.1136	6.2356
3.1024	6.1533
3.0913	6.0801
3.0803	6.0266
3.0694	5.9568
3.0585	5.9009
3.0477	5.8564
3.037	5.7961
3.0264	5.7285
3.0158	5.6694
3.0053	5.605
2.9949	5.5454
2.9845	5.4634
2.9743	5.4082
2.9641	5.3411
2.9539	5.2925
2.9439	5.2561
2.9339	5.2222
2.9239	5.2131
2.9141	5.2046
2.9043	5.1951
2.8946	5.1951
2.8849	5.1909
2.8753	5.1843
2.8658	5.1953
2.8563	5.2178
2.8469	5.207
2.8375	5.2041
2.8282	5.2065
2.819	5.2063
2.8098	5.2358
2.8007	5.2756
2.7917	5.3274
2.7827	5.3894
2.7738	5.4311
2.7649	5.4582
2.7561	5.4568
2.7473	5.5869
2.7386	5.7124
2.7299	5.8254
2.7213	5.8281
2.7128	5.8728
2.7043	5.8828
2.6959	6.1274
2.6875	6.3362
2.6791	6.3996
2.6709	6.4106
2.6626	6.4302
2.6545	6.3828
2.6463	6.3591
2.6382	6.3269
2.6302	6.2888
2.6222	6.2424
2.6143	6.2119
2.6064	6.1702
2.5986	6.1362
2.5908	6.1001
2.583	6.0764
2.5753	6.0073
2.5677	5.9797
2.5601	5.9306
2.5525	5.8703
2.545	5.8467
2.5375	5.8142
2.5301	5.7627
2.5227	5.7148
2.5154	5.6711
2.5081	5.6433
2.5008	5.6152
2.4936	5.5503
2.4864	5.4844
2.4793	5.4697
2.4722	5.446
2.4651	5.3877
2.4581	5.3642
2.4511	5.3349
2.4442	5.2842
2.4373	5.2322
2.4305	5.1977
2.4236	5.1726
2.4169	5.1094
2.4101	5.0889
2.4034	5.0557
2.3967	5.0078
2.3901	4.9526
2.3835	4.9202
2.377	4.8711
2.3704	4.8447
2.364	4.8232
2.3575	4.7693
2.3511	4.7446
2.3447	4.7051
2.3384	4.6745
2.3321	4.6401
2.3258	4.5891
2.3195	4.5664
2.3133	4.5508
2.3071	4.5083
2.301	4.4521
2.2949	4.4141
2.2888	4.4038
2.2828	4.3657
2.2767	4.3057
2.2708	4.31
2.2648	4.2661
2.2589	4.2446
2.253	4.189
2.2471	4.1587
2.2413	4.146
2.2355	4.1333
2.2297	4.0774
2.224	4.0581
2.2183	4.021
2.2126	4.0063
2.207	3.9592
2.2013	3.9504
2.1957	3.8982
2.1902	3.895
2.1846	3.8411
2.1791	3.8418
2.1736	3.7983
2.1682	3.7837
2.1628	3.7676
2.1574	3.6987
2.152	3.7075
2.1466	3.6748
2.1413	3.6301
2.136	3.6213
2.1308	3.6099
2.1255	3.5642
2.1203	3.5251
2.1151	3.5054
2.11	3.4873
2.1048	3.4661
2.0997	3.4531
2.0946	3.427
2.0895	3.3911
2.0845	3.3833
2.0795	3.3743
