Name: Kaolinite Al2Si2O5(OH)4
Type: Mineral
Class: Silicate
Subclass: Phyllosilicate
Particle Size: Coarse
Sample No.: kaolinite_3
Owner: JHU
Wavelength Range: TIR
Origin: Washington Co., Georgia via Hunt and Salisbury Collection#CMS KGA-1 (purchased from Clay Mineral Society Repository)
Description: White, earthy clay. The <2 um separate is pure, well-crystallized kaolinite.  The bulk sample is slightly contaminated with anatase. Particle size was 0-2 micrometers, but packed powder simulates coarse.(Chain Silicates); (Serpentine/Kaoline Group) Original ASTER Spectral Library name was jhu.nicolet.mineral.silicate.phyllosilicate.packed.kaolin3.spectrum.txt
Measurement: Bidirectional reflectance Packed
X Units: Wavelength (micrometers)
Y Units: Reflectance (percent)
wavelength	value
25.0442	6.7217
24.3388	7.3105
23.6719	7.5176
23.0407	8.0049
22.4422	6.6445
21.8741	7.6875
21.334	9.478
20.8199	10.2929
20.33	5.7046
19.8627	6.0361
19.4163	6.7949
18.9896	8.0964
18.5812	9.7063
18.19	10.9258
17.815	11.7539
17.4551	12.4821
17.1094	12.0327
16.7772	10.9961
16.4576	9.9355
16.15	7.5327
15.8537	4.8848
15.568	4.4568
15.2925	4.1941
15.0265	4.1435
14.7697	4.404
14.5214	4.8081
14.2814	4.7815
14.0492	2.9927
13.8244	2.8628
13.6067	3.4451
13.3957	3.7585
13.1912	3.646
12.9929	3.5798
12.8004	3.8799
12.6135	3.8393
12.432	3.583
12.2557	3.9399
12.0843	4.3025
11.9176	4.5715
11.7555	4.7607
11.5977	4.9621
11.444	5.092
11.2944	5.2488
11.1487	5.4946
11.0067	6.1474
10.8682	6.2253
10.7332	5.4551
10.6015	5.4499
10.473	4.1189
10.3476	4.6059
10.2251	5.145
10.1056	5.7412
9.9887	6.6975
9.8746	7.8257
9.763	7.6216
9.6539	10.0117
9.5472	12.2077
9.4429	14.2724
9.3408	15.2551
9.2409	13.5322
9.1431	11.0014
9.0474	10.7561
8.9536	11.33
8.8618	20.3408
8.7718	20.6403
8.6837	17.2192
8.5973	13.4074
8.5126	9.5525
8.4295	5.6472
8.3481	2.8215
8.2682	1.7424
8.1898	1.6157
8.1129	1.762
8.0374	1.947
7.9634	2.144
7.8906	2.2798
7.8192	2.4311
7.7491	2.5708
7.6802	2.6448
7.6126	2.6572
7.5461	2.7073
7.4807	2.74
7.4165	2.7927
7.3534	2.8328
7.2914	2.8953
7.2303	2.9971
7.1703	3.084
7.1113	3.1555
7.0533	3.2202
6.9962	3.2971
6.94	3.3975
6.8847	3.4509
6.8302	3.4961
6.7767	3.5864
6.7239	3.7185
6.672	3.8215
6.6209	3.9211
6.5705	4.0122
6.5209	4.0461
6.4721	4.0893
6.424	4.1626
6.3766	4.2073
6.3299	4.2092
6.2838	4.2004
6.2385	4.2026
6.1937	4.176
6.1496	4.1638
6.1062	4.1714
6.0633	4.1689
6.0211	4.1457
5.9794	4.1462
5.9383	4.1377
5.8978	4.1162
5.8578	4.0857
5.8184	4.061
5.7794	4.0969
5.741	4.1968
5.7031	4.2473
5.6657	4.2778
5.6288	4.3589
5.5924	4.4084
5.5564	4.331
5.5209	4.0871
5.4859	3.8921
5.4513	4.0212
5.4171	4.1719
5.3833	4.2952
5.35	4.4245
5.3171	4.5039
5.2846	4.5137
5.2524	4.4409
5.2207	4.3618
5.1893	4.3042
5.1584	4.3235
5.1277	4.4299
5.0975	4.6741
5.0676	4.9416
5.038	5.2187
5.0088	5.4245
4.98	5.583
4.9514	5.7622
4.9232	5.8669
4.8953	5.9739
4.8678	6.1216
4.8405	6.2634
4.8135	6.4133
4.7868	6.5513
4.7605	6.6296
4.7344	6.6377
4.7086	6.6235
4.6831	6.6152
4.6578	6.6699
4.6328	6.8474
4.6081	7.0503
4.5837	7.2016
4.5595	7.3081
4.5356	7.3791
4.5119	7.3674
4.4884	7.3752
4.4652	7.4543
4.4423	7.5122
4.4196	7.5532
4.3971	7.592
4.3748	7.6172
4.3528	7.6455
4.331	7.6553
4.3094	7.6582
4.288	7.6245
4.2668	7.5408
4.2458	7.6435
4.2251	7.7048
4.2045	7.7265
4.1841	7.7241
4.164	7.7346
4.144	7.7319
4.1242	7.7363
4.1046	7.7517
4.0852	7.7578
4.066	7.7602
4.047	7.7627
4.0281	7.7661
4.0094	7.7649
3.9909	7.7683
3.9725	7.7517
3.9544	7.7536
3.9363	7.7612
3.9185	7.7568
3.9008	7.7458
3.8833	7.7334
3.8659	7.7092
3.8487	7.6755
3.8316	7.6501
3.8147	7.5998
3.7979	7.5661
3.7813	7.5195
3.7648	7.4831
3.7485	7.4197
3.7323	7.3469
3.7162	7.2292
3.7003	7.0146
3.6845	7.0149
3.6689	7.1037
3.6534	7.1181
3.638	7.0981
3.6227	7.0515
3.6076	6.9907
3.5926	6.9429
3.5777	6.8808
3.563	6.8284
3.5484	6.772
3.5338	6.7016
3.5195	6.5879
3.5052	6.4011
3.491	6.3183
3.477	6.2566
3.463	6.2036
3.4492	6.1264
3.4355	6.0312
3.4219	5.9304
3.4084	5.8584
3.395	5.8733
3.3817	5.9018
3.3685	5.9099
3.3554	5.9682
3.3425	6.0014
3.3296	6.0068
3.3168	5.9507
3.3041	5.9145
3.2915	5.8572
3.279	5.8076
3.2666	5.7441
3.2543	5.6931
3.2421	5.6326
3.23	5.5727
3.218	5.5024
3.206	5.4531
3.1942	5.3816
3.1824	5.334
3.1707	5.2712
3.1591	5.2195
3.1476	5.1462
3.1362	5.06
3.1249	5.0056
3.1136	4.9492
3.1024	4.8747
3.0913	4.8262
3.0803	4.7732
3.0694	4.7248
3.0585	4.6601
3.0477	4.5964
3.037	4.5566
3.0264	4.522
3.0158	4.4746
3.0053	4.4214
2.9949	4.3303
2.9845	4.2515
2.9743	4.1672
2.9641	4.1228
2.9539	4.0576
2.9439	3.9624
2.9339	3.854
2.9239	3.688
2.9141	3.3169
2.9043	3.416
2.8946	3.4614
2.8849	3.4321
2.8753	3.3862
2.8658	3.3345
2.8563	3.2781
2.8469	3.209
2.8375	3.1675
2.8282	3.0957
2.819	3.0342
2.8098	2.9775
2.8007	2.8867
2.7917	2.7529
2.7827	2.6089
2.7738	2.3345
2.7649	1.7476
2.7561	1.4324
2.7473	1.6597
2.7386	1.4556
2.7299	1.4453
2.7213	1.4521
2.7128	1.5239
2.7043	1.4385
2.6959	1.4805
2.6875	2.2436
2.6791	2.9951
2.6709	3.5552
2.6626	4.0276
2.6545	4.387
2.6463	4.6338
2.6382	4.8794
2.6302	5.0962
2.6222	5.2246
2.6143	5.3025
2.6064	5.3782
2.5986	5.4324
2.5908	5.4768
2.583	5.5159
2.5753	5.5332
2.5677	5.5674
2.5601	5.6216
2.5525	5.6409
2.545	5.6572
2.5375	5.7319
2.5301	5.7407
2.5227	5.7873
2.5154	5.8098
2.5081	5.8623
2.5008	5.9014
2.4936	5.9446
2.4864	5.959
2.4793	6.0708
2.4722	6.1616
2.4651	6.2063
2.4581	6.2231
2.4511	6.2778
2.4442	6.3459
2.4373	6.4267
2.4305	6.6064
2.4236	6.6938
2.4169	6.7519
2.4101	6.8345
2.4034	6.8215
2.3967	6.7402
2.3901	6.6233
2.3835	6.5539
2.377	6.6543
2.3704	6.7551
2.364	6.8237
2.3575	6.7856
2.3511	6.852
2.3447	6.9895
2.3384	7.0312
2.3321	7.0239
2.3258	6.9922
2.3195	7.0168
2.3133	7.0539
2.3071	7.1474
2.301	7.2466
2.2949	7.3008
2.2888	7.341
2.2828	7.4204
2.2767	7.4648
2.2708	7.5312
2.2648	7.5959
2.2589	7.6484
2.253	7.7021
2.2471	7.6826
2.2413	7.6831
2.2355	7.706
2.2297	7.6802
2.224	7.5766
2.2183	7.3183
2.2126	6.4565
2.207	5.7988
2.2013	6.5703
2.1957	6.7695
2.1902	6.8384
2.1846	7.0317
2.1791	7.04
2.1736	7.0097
2.1682	6.9575
2.1628	6.9472
2.1574	7.0732
2.152	7.2617
2.1466	7.5517
2.1413	7.8369
2.136	8.0449
2.1308	8.1015
2.1255	8.1992
2.1203	8.2558
2.1151	8.2412
2.11	8.2759
2.1048	8.3857
2.0997	8.4302
2.0946	8.4829
2.0895	8.4853
2.0845	8.5039
2.0795	8.5752
