Name: Grossular Garnet Ca_3Al_2(SiO_4)_3
Type: Mineral
Class: Silicate
Subclass: Nesosilicate
Particle Size: Coarse
Sample No.: NS-3B
Owner: JPL
Wavelength Range: VSWIR
Origin: Mexico, Lake Jaco
Description: Particle size was 125-500um.Collected by New, David Original ASTER Spectral Library name was jpl.beckman.mineral.silicate.nesosilicate.coarse.ns03b.spectrum.txt
Measurement: Hemispherical reflectance
X Units: Wavelength (micrometers)
Y Units: Reflectance (percent)
wavelength	value
0.4	49.63
0.403	50.82
0.406	51.63
0.409	51.83
0.412	52.73
0.415	52.91
0.418	52.83
0.421	52.21
0.424	50.87
0.427	49.79
0.43	49.56
0.433	49.83
0.436	50.77
0.439	52.84
0.442	56.05
0.445	58.12
0.448	59.55
0.451	60.48
0.454	61.4
0.457	62.14
0.46	62.55
0.463	63.43
0.466	63.91
0.469	64.61
0.472	64.96
0.475	65.29
0.478	65.88
0.481	65.97
0.484	66.14
0.487	66.25
0.49	66.35
0.493	66.28
0.496	66.26
0.499	66.57
0.502	66.72
0.505	66.85
0.508	67.06
0.511	67.16
0.514	67.14
0.517	67.24
0.52	67.54
0.523	67.61
0.526	67.71
0.529	67.84
0.532	67.94
0.535	67.79
0.538	68.22
0.541	68.5
0.544	68.46
0.547	68.43
0.55	68.65
0.553	68.59
0.556	68.52
0.559	68.77
0.562	69.14
0.565	69.08
0.568	69.19
0.571	69.13
0.574	69.27
0.577	69.3
0.58	69.28
0.583	69.44
0.586	69.77
0.589	70
0.592	70.36
0.595	70.7
0.598	70.83
0.601	71.13
0.604	71.6
0.607	72.05
0.61	72.21
0.613	72.61
0.616	72.72
0.619	73.06
0.622	73.36
0.625	73.42
0.628	73.8
0.631	74.03
0.634	74.24
0.637	74.44
0.64	74.84
0.643	75.15
0.646	75.19
0.649	75.34
0.652	75.83
0.655	76.02
0.658	76.25
0.661	76.55
0.664	77
0.667	77.07
0.67	77.39
0.673	77.74
0.676	77.91
0.679	78.05
0.682	78.41
0.685	78.76
0.688	78.76
0.691	78.88
0.694	79.2
0.697	79.5
0.7	79.4
0.703	79.68
0.706	79.75
0.709	80.01
0.712	80.02
0.715	80.09
0.718	80.09
0.721	80.18
0.724	80.43
0.727	80.1
0.73	80.04
0.733	80.35
0.736	80.26
0.739	80.1
0.742	80.24
0.745	80.19
0.748	80.12
0.751	80.2
0.754	80.22
0.757	80.04
0.76	80.13
0.763	79.88
0.766	80.01
0.769	79.8
0.772	79.57
0.775	79.66
0.778	79.39
0.781	79.29
0.784	78.99
0.787	78.91
0.79	78.82
0.793	78.54
0.796	78.35
0.799	78.14
0.808	77.54
0.82	76.5
0.832	75.51
0.844	74.58
0.856	73.9
0.868	73.51
0.88	73.4
0.892	73.58
0.904	74.04
0.916	74.64
0.928	75.38
0.94	76.23
0.952	77.27
0.964	78.28
0.976	79.27
0.988	80.22
1	80.99
1.012	81.7
1.024	82.21
1.036	82.71
1.048	82.85
1.06	83.22
1.072	83.43
1.084	83.55
1.096	83.54
1.108	83.69
1.12	83.82
1.132	83.77
1.144	83.78
1.156	83.63
1.168	83.6
1.18	83.58
1.192	83.33
1.204	83.61
1.216	83.49
1.228	83.39
1.24	83.44
1.252	83.43
1.264	83.44
1.276	83.35
1.288	83.34
1.3	83.29
1.312	83.15
1.324	83.23
1.336	83.11
1.348	83.16
1.36	83.1
1.372	82.97
1.384	82.69
1.396	82.21
1.408	82.32
1.42	82.24
1.432	82.45
1.444	82.63
1.456	82.66
1.468	82.75
1.48	82.7
1.492	82.73
1.504	82.72
1.516	82.68
1.528	82.78
1.54	82.69
1.552	82.69
1.564	82.65
1.576	82.6
1.588	82.58
1.6	82.55
1.612	82.41
1.624	82.41
1.636	82.3
1.648	82.23
1.66	82.27
1.672	82.04
1.684	81.93
1.696	81.76
1.708	81.56
1.72	81.4
1.732	81.25
1.744	81.01
1.756	80.82
1.768	80.74
1.78	80.52
1.792	80.38
1.804	80.16
1.816	79.88
1.828	79.7
1.84	79.35
1.852	79.12
1.864	78.89
1.876	78.31
1.888	77.77
1.9	76.96
1.912	76.56
1.924	76.48
1.936	76.48
1.948	76.16
1.96	76.26
1.972	76.13
1.984	75.98
1.996	76.1
2.008	75.97
2.02	76.01
2.032	75.74
2.044	75.65
2.056	75.39
2.068	75.17
2.08	75
2.092	74.78
2.104	74.55
2.116	74.41
2.128	74.09
2.14	73.49
2.152	72.92
2.164	72.25
2.176	71.79
2.188	71.27
2.2	70.89
2.212	70.5
2.224	70.3
2.236	70
2.248	69.52
2.26	69.31
2.272	69.03
2.284	68.85
2.296	68.45
2.308	68.11
2.32	67.89
2.332	67.45
2.344	67.2
2.356	66.88
2.368	66.62
2.38	66.57
2.392	66.28
2.404	66.22
2.416	65.87
2.428	65.68
2.44	65.39
2.452	65.06
2.464	64.76
2.476	64.32
2.488	64.27
2.5	64.16
