Name: Vesuvianite Ca_10(Mg,Fe^2+)_2Al_4(Si_2O_7)_2(SiO_4)_5(OH,F)_4
Type: Mineral
Class: Silicate
Subclass: Sorosilicate
Particle Size: Coarse
Sample No.: SS-3A
Owner: JPL
Wavelength Range: TIR
Origin: USA, California, Riverside County, Crestmore Quarry
Description: Particle size was 125-500um.Collected by Burminco Original ASTER Spectral Library name was jpl.nicolet.mineral.silicate.sorosilicate.coarse.ss03a.spectrum.txt
Measurement: Hemispherical reflectance
X Units: Wavelength (micrometers)
Y Units: Reflectance (percent)
wavelength	value
15.3853	1.9449
15.1161	1.9237
14.8563	1.7861
14.6052	2.1174
14.3624	1.989
14.1276	2.3405
13.9004	2.6102
13.6803	3.1397
13.4671	3.7309
13.2604	3.9244
13.06	4.5453
12.8656	5.3665
12.6769	5.9004
12.4936	6.0437
12.3155	5.9133
12.1425	6.3771
11.9742	7.3258
11.8106	7.7682
11.6513	8.0729
11.4963	8.4988
11.3454	9.5023
11.1983	9.1111
11.0551	9.0186
10.9154	10.2019
10.7793	9.321
10.6465	8.3336
10.5169	9.2305
10.3904	10.5076
10.267	10.4188
10.1464	9.0194
10.0287	8.9055
9.9136	13.441
9.8012	18.653
9.6913	20.2535
9.5838	17.1372
9.4787	10.5052
9.3758	3.6696
9.2752	1.4823
9.1767	0.8966
9.0803	0.5029
8.9858	0.9119
8.8934	0.6524
8.8028	0.7791
8.714	0.5958
8.627	0.5871
8.5417	0.6234
8.4581	0.9176
8.3761	1.1391
8.2957	1.1703
8.2169	1.3747
8.1395	1.6746
8.0635	1.5124
7.989	1.5697
7.9158	1.7169
7.8439	1.7026
7.7734	1.8303
7.7041	2.0711
7.636	2.1849
7.5691	2.3289
7.5034	2.473
7.4388	2.518
7.3753	2.3638
7.3129	2.428
7.2515	2.8326
7.1912	3.1515
7.1318	3.5651
7.0734	4.0021
7.016	4.3524
6.9595	4.6873
6.9039	4.8157
6.8492	4.0865
6.7953	4.0601
6.7423	4.6883
6.6901	5.7787
6.6387	6.6624
6.5881	6.4634
6.5382	5.4206
6.4892	4.7212
6.4408	3.4573
6.3931	2.7812
6.3462	3.1948
6.2999	4.4198
6.2543	4.972
6.2094	4.8455
6.1651	4.7964
6.1214	4.4365
6.0784	4.3529
6.0359	4.1778
5.994	4.198
5.9527	4.2047
5.912	4.2501
5.8718	4.3026
5.8322	4.1241
5.7931	3.9487
5.7545	3.8738
5.7165	3.8048
5.6789	3.7184
5.6418	3.5612
5.6052	3.3348
5.5691	3.1297
5.5334	3.2946
5.4982	3.556
5.4635	3.7062
5.4291	3.8954
5.3952	4.1047
5.3618	4.2527
5.3287	4.3697
5.2961	4.5748
5.2638	4.9328
5.2319	5.235
5.2004	5.6477
5.1693	6.1068
5.1386	6.4503
5.1082	6.9353
5.0782	7.6588
5.0485	8.3303
5.0192	9.0097
4.9902	9.6341
4.9616	10.2175
4.9332	10.9597
4.9052	11.649
4.8776	12.2618
4.8502	12.971
4.8231	13.5341
4.7963	13.9798
4.7699	14.4866
4.7437	14.7882
4.7178	14.7967
4.6922	14.5623
4.6668	14.6378
4.6418	15.1267
4.617	15.6242
4.5924	15.8395
4.5681	16.1093
4.5441	16.1207
4.5203	16.2594
4.4968	16.4155
4.4735	16.7472
4.4505	16.9787
4.4277	17.2132
4.4051	17.4399
4.3828	17.5356
4.3607	17.5694
4.3388	17.552
4.3171	17.7564
4.2956	17.8017
4.2744	17.9352
4.2534	18.0068
4.2325	18.1044
4.2119	17.8095
4.1915	17.6782
4.1712	17.5881
4.1512	17.4684
4.1313	17.1592
4.1117	17.0796
4.0922	16.7629
4.0729	16.4743
4.0538	16.1546
4.0349	15.3961
4.0161	14.8478
3.9976	14.3596
3.9792	14.0669
3.9609	14.036
3.9428	14.0415
3.9249	13.8178
3.9072	13.2853
3.8896	13.1901
3.8722	13.4474
3.8549	13.4509
3.8378	13.4086
3.8208	13.4804
3.804	13.5128
3.7873	13.7004
3.7708	13.6362
3.7544	13.187
3.7382	13.162
3.7221	13.0024
3.7061	12.6244
3.6903	12.2287
3.6746	11.9271
3.659	11.4072
3.6436	11.0726
3.6283	10.5554
3.6131	10.1683
3.5981	9.6762
3.5832	9.0777
3.5684	8.705
3.5537	8.2747
3.5391	7.7162
3.5247	6.9735
3.5104	6.4395
3.4962	5.9591
3.4821	5.7413
3.4681	5.5813
3.4543	5.3794
3.4405	5.2432
3.4269	4.9322
3.4133	4.8281
3.3999	4.6828
3.3866	4.4583
3.3733	4.2157
3.3602	4.2275
3.3472	3.8824
3.3343	4.1233
3.3215	4.054
3.3088	3.9992
3.2961	4.0688
3.2836	3.9223
3.2712	3.8142
3.2588	3.97
3.2466	3.7861
3.2345	3.7801
3.2224	3.8102
3.2104	3.7819
3.1985	3.6553
3.1867	3.7627
3.175	3.5924
3.1634	3.5545
3.1519	3.3812
3.1404	3.2759
3.129	3.3092
3.1178	3.5498
3.1065	3.2771
3.0954	3.2223
3.0844	3.4204
3.0734	3.3574
3.0625	3.3599
3.0517	3.4718
3.041	3.4484
3.0303	3.4377
3.0197	3.5483
3.0092	3.6069
2.9987	3.5552
2.9884	3.3773
2.9781	3.5371
2.9678	3.7138
2.9577	3.5574
2.9476	3.5576
2.9376	3.5656
2.9276	3.4637
2.9177	3.4704
2.9079	3.5295
2.8982	3.3712
2.8885	3.4832
2.8789	3.499
2.8693	3.4449
2.8598	3.5307
2.8504	3.5254
2.841	3.2727
2.8317	3.5006
2.8224	3.6602
2.8133	3.3341
2.8041	3.5633
2.7951	3.3858
2.786	3.3879
2.7771	3.2154
2.7682	3.854
2.7594	3.4358
2.7506	3.6271
2.7418	3.5094
2.7332	3.4688
2.7246	3.7686
2.716	3.7786
2.7075	6.2458
2.699	9.4998
2.6906	11.291
2.6823	12.9536
2.674	14.0625
2.6657	15.7134
2.6575	16.0954
2.6494	16.8158
2.6413	17.5406
2.6332	18.8266
2.6252	19.9216
2.6173	21.1896
2.6094	21.6614
2.6015	21.9831
2.5937	23.1153
2.5859	23.0968
2.5782	23.4253
2.5706	24.0638
2.5629	24.7656
2.5554	25.1135
2.5478	25.6462
2.5403	26.1106
2.5329	26.5855
2.5255	27.0427
2.5181	27.2611
2.5108	27.1164
2.5035	27.3101
2.4963	27.1448
2.4891	27.1983
2.482	27.2746
2.4749	27.1725
2.4678	27.3244
2.4608	27.3539
2.4538	27.1517
2.4468	26.8064
2.4399	26.5829
2.4331	26.6081
2.4262	26.6455
2.4194	26.6738
2.4127	26.7669
2.4059	26.7219
2.3993	26.9188
2.3926	27.3078
2.386	27.6013
2.3795	27.552
2.3729	27.2407
2.3664	26.6892
2.36	25.7982
2.3535	25.5524
2.3471	25.6341
2.3408	26.7835
2.3345	28.1151
2.3282	29.4371
2.3219	30.2297
2.3157	30.4989
2.3095	30.6746
2.3034	30.9828
2.2972	32.3718
2.2911	33.7776
2.2851	34.6753
2.279	35.0935
2.2731	35.8479
2.2671	36.6689
2.2612	37.358
2.2553	38.7013
2.2494	39.6083
2.2435	40.5128
2.2377	41.2758
2.232	41.6429
2.2262	42.3448
2.2205	42.3752
2.2148	42.3598
2.2091	43.0986
2.2035	45.0217
2.1979	46.5037
2.1923	47.6716
2.1868	48.0592
2.1812	48.6593
2.1758	49.0122
2.1703	49.5412
2.1649	49.8176
2.1595	49.6476
2.1541	49.7674
2.1487	49.0657
2.1434	50.0312
2.1381	50.8452
2.1328	52.1222
2.1275	53.5413
2.1223	54.4732
2.1171	55.5468
2.112	56.7881
2.1068	57.8377
2.1017	58.8197
2.0966	59.698
2.0915	60.5677
2.0865	60.858
2.0814	61.5345
2.0764	61.8767
2.0715	61.939
2.0665	62.3014
2.0616	62.2186
2.0567	62.699
2.0518	62.6779
2.0469	62.7982
2.0421	62.9798
2.0373	63.2769
2.0325	63.248
2.0277	62.965
2.0229	62.8201
2.0182	62.6372
2.0135	62.4279
2.0088	62.3745
2.0042	62.4699
