Name: Grossular Garnet Ca_3Al_2(SiO_4)_3
Type: Mineral
Class: Silicate
Subclass: Nesosilicate
Particle Size: Coarse
Sample No.: NS-3B
Owner: JPL
Wavelength Range: TIR
Origin: Mexico, Lake Jaco
Description: Particle size was 125-500um.Collected by New, David Original ASTER Spectral Library name was jpl.nicolet.mineral.silicate.nesosilicate.coarse.ns03b.spectrum.txt
Measurement: Hemispherical reflectance
X Units: Wavelength (micrometers)
Y Units: Reflectance (percent)
wavelength	value
15.3853	1.3005
15.1161	2.2276
14.8563	2.6691
14.6052	3.1913
14.3624	3.6908
14.1276	4.5147
13.9004	4.8026
13.6803	5.5137
13.4671	6.5177
13.2604	6.9369
13.06	7.0166
12.8656	7.9586
12.6769	9.828
12.4936	11.9022
12.3155	15.0215
12.1425	19.9424
11.9742	27.2323
11.8106	25.4513
11.6513	30.9868
11.4963	27.3513
11.3454	10.6972
11.1983	9.1812
11.0551	25.3508
10.9154	35.9173
10.7793	35.7261
10.6465	39.4093
10.5169	40.7184
10.3904	46.8053
10.267	46.613
10.1464	41.4039
10.0287	31.4692
9.9136	17.481
9.8012	8.4531
9.6913	2.9813
9.5838	0.9022
9.4787	0.3259
9.3758	0.084
9.2752	0.1815
9.1767	0.0186
9.0803	0.2976
8.9858	0.305
8.8934	0.5046
8.8028	0.5183
8.714	0.6991
8.627	0.7368
8.5417	0.8917
8.4581	0.991
8.3761	0.9419
8.2957	1.2216
8.2169	1.3625
8.1395	1.401
8.0635	1.5276
7.989	1.4822
7.9158	1.7901
7.8439	1.6536
7.7734	1.8861
7.7041	1.9671
7.636	2.0306
7.5691	2.0758
7.5034	2.2082
7.4388	2.2503
7.3753	2.4175
7.3129	2.5333
7.2515	2.5558
7.1912	2.5654
7.1318	2.8212
7.0734	2.9199
7.016	3.098
6.9595	3.4008
6.9039	3.6044
6.8492	4.3622
6.7953	4.9253
6.7423	5.1954
6.6901	5.6009
6.6387	6.3217
6.5881	6.5064
6.5382	6.8939
6.4892	8.0121
6.4408	7.7025
6.3931	7.3735
6.3462	7.8493
6.2999	7.4064
6.2543	7.2047
6.2094	6.5969
6.1651	5.7457
6.1214	4.6076
6.0784	3.7105
6.0359	3.1907
5.994	2.8782
5.9527	2.7787
5.912	2.5871
5.8718	2.7056
5.8322	2.8917
5.7931	2.9203
5.7545	3.067
5.7165	3.1755
5.6789	3.4538
5.6418	3.9007
5.6052	3.9743
5.5691	4.0391
5.5334	4.0618
5.4982	4.0693
5.4635	4.2012
5.4291	4.3684
5.3952	4.6571
5.3618	5.2237
5.3287	5.7492
5.2961	7.0975
5.2638	8.6758
5.2319	9.6167
5.2004	10.3274
5.1693	10.8538
5.1386	11.2865
5.1082	11.8198
5.0782	12.3576
5.0485	12.6779
5.0192	13.1946
4.9902	13.6525
4.9616	14.1444
4.9332	14.58
4.9052	14.9155
4.8776	15.2625
4.8502	15.5035
4.8231	15.918
4.7963	16.2439
4.7699	16.6717
4.7437	17.0645
4.7178	17.3124
4.6922	17.6416
4.6668	17.8495
4.6418	18.1145
4.617	18.1957
4.5924	18.4106
4.5681	18.5032
4.5441	18.6239
4.5203	18.6823
4.4968	18.718
4.4735	18.75
4.4505	18.6693
4.4277	18.5778
4.4051	18.4838
4.3828	18.4715
4.3607	18.3835
4.3388	18.4253
4.3171	18.2461
4.2956	18.149
4.2744	18.0724
4.2534	17.9526
4.2325	17.6315
4.2119	17.391
4.1915	17.2412
4.1712	17.0605
4.1512	16.8132
4.1313	16.7072
4.1117	16.3587
4.0922	16.0818
4.0729	15.843
4.0538	15.5562
4.0349	15.3811
4.0161	15.4131
3.9976	15.6314
3.9792	16.0759
3.9609	16.2806
3.9428	16.847
3.9249	16.8756
3.9072	17.0454
3.8896	17.2651
3.8722	17.449
3.8549	17.4018
3.8378	17.6712
3.8208	17.8272
3.804	18.0335
3.7873	18.3492
3.7708	18.8013
3.7544	19.1659
3.7382	19.7143
3.7221	20.2196
3.7061	20.618
3.6903	21.2019
3.6746	21.5243
3.659	21.6516
3.6436	21.8214
3.6283	21.6315
3.6131	21.5079
3.5981	21.3404
3.5832	21.2182
3.5684	21.149
3.5537	21.1907
3.5391	21.1174
3.5247	21.1477
3.5104	21.1494
3.4962	21.2777
3.4821	21.6486
3.4681	21.9237
3.4543	22.1597
3.4405	22.4283
3.4269	22.7366
3.4133	23.1593
3.3999	23.9017
3.3866	24.4851
3.3733	24.9364
3.3602	25.7127
3.3472	26.3441
3.3343	27.1056
3.3215	27.6684
3.3088	28.5487
3.2961	29.2419
3.2836	29.6028
3.2712	30.4845
3.2588	31.1173
3.2466	31.747
3.2345	32.3808
3.2224	32.9905
3.2104	33.7117
3.1985	34.2738
3.1867	34.9536
3.175	35.4775
3.1634	36.1655
3.1519	36.7465
3.1404	37.3509
3.129	37.966
3.1178	38.5049
3.1065	39.0388
3.0954	39.5429
3.0844	40.0036
3.0734	40.4638
3.0625	40.9509
3.0517	41.3465
3.041	41.8317
3.0303	42.196
3.0197	42.3926
3.0092	42.4509
2.9987	42.8858
2.9884	43.0861
2.9781	43.4836
2.9678	43.7606
2.9577	43.98
2.9476	44.2925
2.9376	44.4321
2.9276	44.5525
2.9177	44.8574
2.9079	44.9568
2.8982	45.0574
2.8885	45.2404
2.8789	45.4772
2.8693	45.6111
2.8598	45.8509
2.8504	45.867
2.841	46.1705
2.8317	45.6707
2.8224	45.2189
2.8133	44.4612
2.8041	44.6203
2.7951	43.3687
2.786	42.2822
2.7771	38.0345
2.7682	35.4427
2.7594	29.115
2.7506	29.879
2.7418	37.7541
2.7332	32.0304
2.7246	40.6365
2.716	46.3656
2.7075	52.4607
2.699	55.713
2.6906	57.7765
2.6823	58.8826
2.674	59.6758
2.6657	62.0932
2.6575	60.0003
2.6494	60.2225
2.6413	60.5873
2.6332	61.2504
2.6252	61.607
2.6173	63.2158
2.6094	62.5827
2.6015	62.5848
2.5937	65.0062
2.5859	63.3937
2.5782	63.1396
2.5706	63.9246
2.5629	64.6451
2.5554	63.5746
2.5478	63.8733
2.5403	63.9243
2.5329	64.3276
2.5255	64.3118
2.5181	64.511
2.5108	64.6321
2.5035	64.8629
2.4963	65.1256
2.4891	65.3353
2.482	65.3654
2.4749	65.7707
2.4678	65.8223
2.4608	66.1947
2.4538	66.1676
2.4468	66.333
2.4399	66.5581
2.4331	66.5619
2.4262	66.8427
2.4194	67.0542
2.4127	66.9209
2.4059	67.2121
2.3993	67.2122
2.3926	67.3959
2.386	67.5515
2.3795	67.6317
2.3729	67.5367
2.3664	67.6113
2.36	67.6955
2.3535	67.8636
2.3471	67.9628
2.3408	68.2374
2.3345	68.538
2.3282	68.6686
2.3219	68.7661
2.3157	68.9789
2.3095	69.2796
2.3034	69.4039
2.2972	69.4944
2.2911	69.686
2.2851	69.8861
2.279	69.9754
2.2731	69.9109
2.2671	70.1738
2.2612	70.3009
2.2553	70.5391
2.2494	70.6641
2.2435	70.7711
2.2377	70.8764
2.232	71.044
2.2262	71.094
2.2205	71.3078
2.2148	71.321
2.2091	71.6416
2.2035	71.7095
2.1979	71.7653
2.1923	71.9227
2.1868	72.1353
2.1812	72.3779
2.1758	72.6082
2.1703	72.9566
2.1649	72.8408
2.1595	73.2615
2.1541	73.1916
2.1487	73.4597
2.1434	73.8277
2.1381	73.8179
2.1328	74.1492
2.1275	74.0551
2.1223	74.4362
2.1171	74.5521
2.112	74.669
2.1068	74.7089
2.1017	74.6947
2.0966	75.1556
2.0915	74.663
2.0865	75.3968
2.0814	75.4598
2.0764	75.2672
2.0715	75.5867
2.0665	75.4796
2.0616	75.7334
2.0567	75.7767
2.0518	75.8418
2.0469	75.8028
2.0421	75.7586
2.0373	76.071
2.0325	75.963
2.0277	76.2045
2.0229	76.3067
2.0182	76.0547
2.0135	76.2758
2.0088	76.3374
2.0042	76.2326
