Name: Chabazite CaAl2Si4O12.6H2O
Type: Mineral
Class: Silicate
Subclass: Tectosilicate
Particle Size: Fine
Sample No.: chabazite_1
Owner: JHU
Wavelength Range: TIR
Origin: W. J. Ehmann #40; from Kyogle, N.S.W., Australia.
Description: The sample was a white crystalline mass.  Petrographically the sample appears to be pure chabazite. Sample was <2 Micrometers in particle size. Original ASTER Spectral Library name was jhu.nicolet.mineral.silicate.tectosilicate.powder.chabaz1.spectrum.txt
Measurement: Transmission
X Units: Wavelength (micrometers)
Y Units: Transmittance (percent)
wavelength	value
25.044	48.871
24.339	44.383
23.672	41.316
23.041	40.055
22.442	38.627
21.874	37.416
21.334	39
20.82	44.16
20.33	49.773
19.863	52.773
19.416	52.409
18.99	53.519
18.581	57.417
18.19	58.438
17.815	58.16
17.455	57.631
17.109	56.88
16.777	56.166
16.458	55.047
16.15	53.91
15.854	52.759
15.568	52.061
15.292	53.836
15.027	56.221
14.77	56.504
14.521	55.391
14.281	54.226
14.049	53.745
13.824	53.963
13.607	54.877
13.396	56.975
13.191	59.027
12.993	61.574
12.8	64.351
12.614	67.884
12.432	71.27
12.256	74.19
12.084	74.369
11.918	71.476
11.755	67.042
11.598	63.054
11.444	60.361
11.294	58.995
11.149	58.25
11.007	57.409
10.868	55.396
10.733	51.142
10.602	44.254
10.473	35.706
10.348	27.678
10.225	20.725
10.106	15.222
9.9887	11.61
9.8746	9.2788
9.763	7.8374
9.6539	7.47
9.5472	8.1604
9.4429	9.8706
9.3408	12.064
9.2409	14.023
9.1431	15.637
9.0474	17.03
8.9536	18.529
8.8618	20.129
8.7718	21.976
8.6837	24.208
8.5973	27.211
8.5126	31.523
8.4295	37.592
8.3481	45.381
8.2682	54.028
8.1898	61.973
8.1129	67.802
8.0374	71.637
7.9634	74.378
7.8906	76.493
7.8192	78.098
7.7491	79.4
7.6802	80.462
7.6126	81.34
7.5461	82.18
7.4807	82.904
7.4165	83.442
7.3534	83.816
7.2914	84.172
7.2303	84.637
7.1703	84.225
7.1113	84.406
7.0533	84.968
6.9962	85.278
6.94	85.539
6.8847	85.6
6.8302	85.487
6.7767	85.787
6.7239	86.206
6.672	86.638
6.6209	86.916
6.5705	87.006
6.5209	86.882
6.4721	86.638
6.424	86.332
6.3766	85.858
6.3299	85.002
6.2838	84.014
6.2385	82.66
6.1937	79.571
6.1496	75.008
6.1062	72.275
6.0633	72.177
6.0211	74.186
5.9794	77.268
5.9383	80.342
5.8978	83.061
5.8578	85.012
5.8184	86.313
5.7794	87.162
5.741	87.684
5.7031	88.05
5.6657	88.341
5.6288	88.597
5.5924	88.775
5.5564	88.932
5.5209	89.03
5.4859	89.199
5.4513	89.341
5.4171	89.485
5.3833	89.562
5.35	89.622
5.3171	89.782
5.2846	89.823
5.2524	89.846
5.2207	89.953
5.1893	90.04
5.1584	90.124
5.1277	90.185
5.0975	90.22
5.0676	90.198
5.038	90.212
5.0088	90.236
4.98	90.201
4.9514	90.223
4.9232	90.208
4.8953	90.203
4.8678	90.16
4.8405	90.115
4.8135	90.141
4.7868	90.103
4.7605	90.022
4.7344	89.965
4.7086	89.856
4.6831	89.871
4.6578	89.899
4.6328	89.835
4.6081	89.842
4.5837	89.787
4.5595	89.728
4.5356	89.728
4.5119	89.649
4.4884	89.687
4.4652	89.611
4.4423	89.617
4.4196	89.683
4.3971	89.629
4.3748	89.691
4.3528	89.709
4.331	89.738
4.3094	89.729
4.288	89.722
4.2668	89.753
4.2458	89.81
4.2251	89.789
4.2045	89.812
4.1841	89.86
4.164	89.909
4.144	89.916
4.1242	89.974
4.1046	90.01
4.0852	90.047
4.066	90.047
4.047	90.116
4.0281	90.159
4.0094	90.209
3.9909	90.178
3.9725	90.163
3.9544	90.194
3.9363	90.226
3.9185	90.249
3.9008	90.213
3.8833	90.137
3.8659	90.047
3.8487	89.97
3.8316	89.838
3.8147	89.775
3.7979	89.696
3.7813	89.576
3.7648	89.442
3.7485	89.259
3.7323	89.109
3.7162	88.947
3.7003	88.735
3.6845	88.522
3.6689	88.284
3.6534	88.088
3.638	87.883
3.6227	87.574
3.6076	87.279
3.5926	87.088
3.5777	86.792
3.563	86.435
3.5484	86.089
3.5338	85.679
3.5195	85.2
3.5052	84.586
3.491	84.314
3.477	84.03
3.463	83.578
3.4492	82.963
3.4355	82.291
3.4219	81.454
3.4084	80.929
3.395	80.673
3.3817	80.16
3.3685	79.62
3.3554	79.027
3.3425	78.334
3.3296	77.61
3.3168	76.791
3.3041	75.964
3.2915	75.231
3.279	74.394
3.2666	73.44
3.2543	72.55
3.2421	71.559
3.23	70.46
3.218	69.264
3.206	68.136
3.1942	67.061
3.1824	65.955
3.1707	64.789
3.1591	63.57
3.1476	62.325
3.1362	61.174
3.1249	59.969
3.1136	58.809
3.1024	57.769
3.0913	56.811
3.0803	55.905
3.0694	55.249
3.0585	54.629
3.0477	53.959
3.037	53.338
3.0264	52.633
3.0158	51.815
3.0053	50.916
2.9949	50.022
2.9845	49.265
2.9743	48.579
2.9641	48.037
2.9539	47.532
2.9439	47.169
2.9339	47.086
2.9239	46.935
2.9141	46.985
2.9043	47.121
2.8946	47.271
2.8849	47.598
2.8753	47.93
2.8658	48.367
2.8563	48.881
2.8469	49.5
2.8375	50.184
2.8282	50.78
2.819	51.571
2.8098	52.256
2.8007	53.203
2.7917	54.305
2.7827	55.485
2.7738	57.102
2.7649	59.18
2.7561	62.061
2.7473	65.262
2.7386	68.696
2.7299	71.776
2.7213	74.037
2.7128	75.65
2.7043	77.116
2.6959	78.266
2.6875	79.035
2.6791	79.538
2.6709	79.84
2.6626	80.078
2.6545	80.446
2.6463	80.519
2.6382	80.532
2.6302	80.625
2.6222	80.784
2.6143	80.94
2.6064	81.017
2.5986	81.248
2.5908	81.309
2.583	81.354
2.5753	81.34
2.5677	81.418
2.5601	81.308
2.5525	81.277
2.545	81.264
2.5375	81.324
2.5301	81.373
2.5227	81.282
2.5154	81.359
2.5081	81.44
2.5008	81.406
2.4936	81.364
2.4864	81.417
2.4793	81.316
2.4722	81.432
2.4651	81.435
2.4581	81.354
2.4511	81.503
2.4442	81.48
2.4373	81.332
2.4305	81.321
2.4236	81.406
2.4169	81.325
2.4101	81.445
2.4034	81.416
2.3967	81.564
2.3901	81.407
2.3835	81.349
2.377	81.356
2.3704	81.39
2.364	81.172
2.3575	81.138
2.3511	81.218
2.3447	81.294
2.3384	81.174
2.3321	80.962
2.3258	80.871
2.3195	81.197
2.3133	81.314
2.3071	81.055
2.301	81.097
2.2949	81.002
2.2888	80.809
2.2828	80.891
2.2767	80.942
2.2708	80.766
2.2648	80.802
2.2589	80.742
2.253	80.826
2.2471	80.833
2.2413	80.797
2.2355	80.709
2.2297	80.462
2.224	80.515
2.2183	80.477
2.2126	80.724
2.207	80.805
2.2013	80.337
2.1957	80.246
2.1902	80.375
2.1846	80.325
2.1791	80.14
2.1736	80.461
2.1682	80.485
2.1628	80.637
2.1574	80.57
2.152	80.262
2.1466	80.2
2.1413	80.109
2.136	80.262
2.1308	80.394
2.1255	80.218
2.1203	80.192
2.1151	80.359
2.11	80.348
2.1048	80.379
2.0997	80.351
2.0946	80.316
2.0895	80.004
2.0845	80.076
2.0795	79.98
