Name: Spodumene LiAlS_2O_6
Type: Mineral
Class: Silicate
Subclass: Inosilicate
Particle Size: Fine
Sample No.: IN-13A
Owner: JPL
Wavelength Range: TIR
Origin: Brazil, Minas Gerais
Description: Particle size was 0-45um.Collected by Ward's Original ASTER Spectral Library name was jpl.nicolet.mineral.silicate.inosilicate.fine.in13a.spectrum.txt
Measurement: Hemispherical reflectance
X Units: Wavelength (micrometers)
Y Units: Reflectance (percent)
wavelength	value
15.3853	3.2595
15.1161	4.7837
14.8563	3.572
14.6052	1.944
14.3624	2.0984
14.1276	3.2517
13.9004	4.4867
13.6803	5.8376
13.4671	7.2536
13.2604	8.3656
13.06	9.3165
12.8656	9.5021
12.6769	9.8278
12.4936	9.7842
12.3155	9.85
12.1425	9.0534
11.9742	7.8957
11.8106	6.7792
11.6513	6.3388
11.4963	5.5718
11.3454	6.5768
11.1983	7.6523
11.0551	8.8389
10.9154	10.2908
10.7793	10.9804
10.6465	11.3234
10.5169	11.9637
10.3904	12.3088
10.267	11.9278
10.1464	10.5037
10.0287	8.1056
9.9136	7.701
9.8012	10.067
9.6913	10.9023
9.5838	11.3925
9.4787	11.6101
9.3758	11.9226
9.2752	12.177
9.1767	14.8415
9.0803	15.3068
8.9858	14.8475
8.8934	13.2546
8.8028	10.7402
8.714	9.0108
8.627	7.8846
8.5417	7.0567
8.4581	7.3671
8.3761	8.771
8.2957	9.3795
8.2169	6.8872
8.1395	4.0417
8.0635	2.3624
7.989	1.4541
7.9158	1.0881
7.8439	1.1748
7.7734	1.495
7.7041	1.9948
7.636	2.5422
7.5691	3.3448
7.5034	4.1973
7.4388	5.1669
7.3753	6.357
7.3129	7.2524
7.2515	8.5147
7.1912	9.1498
7.1318	9.7109
7.0734	10.4385
7.016	11.5891
6.9595	12.9023
6.9039	13.9523
6.8492	15.5776
6.7953	17.5373
6.7423	19.2366
6.6901	20.9597
6.6387	22.7933
6.5881	22.7517
6.5382	22.701
6.4892	23.7701
6.4408	22.1637
6.3931	21.7413
6.3462	22.7302
6.2999	22.2997
6.2543	22.6203
6.2094	22.8637
6.1651	23.6734
6.1214	24.3272
6.0784	25.1446
6.0359	25.8122
5.994	26.7428
5.9527	26.4335
5.912	25.4252
5.8718	25.0928
5.8322	26.1622
5.7931	26.1686
5.7545	25.0886
5.7165	22.6603
5.6789	21.9278
5.6418	22.0396
5.6052	20.5917
5.5691	19.9201
5.5334	20.5351
5.4982	22.4068
5.4635	24.5861
5.4291	26.091
5.3952	26.0768
5.3618	25.8145
5.3287	27.1132
5.2961	28.1568
5.2638	34.2324
5.2319	41.2241
5.2004	43.9724
5.1693	45.2512
5.1386	46.597
5.1082	47.2278
5.0782	48.2031
5.0485	48.21
5.0192	48.3031
4.9902	48.4136
4.9616	49.0624
4.9332	50.7726
4.9052	50.431
4.8776	48.005
4.8502	45.7083
4.8231	45.666
4.7963	45.7345
4.7699	45.9206
4.7437	48.8028
4.7178	51.8033
4.6922	52.6569
4.6668	52.3819
4.6418	52.566
4.617	54.74
4.5924	55.8337
4.5681	56.2768
4.5441	55.9996
4.5203	55.8935
4.4968	58.0944
4.4735	60.1947
4.4505	63.2488
4.4277	66.4328
4.4051	69.5097
4.3828	71.8091
4.3607	73.3563
4.3388	74.3762
4.3171	74.9212
4.2956	75.041
4.2744	75.0411
4.2534	75.6478
4.2325	75.1857
4.2119	76.2864
4.1915	77.0316
4.1712	77.3227
4.1512	77.3422
4.1313	77.3738
4.1117	77.5582
4.0922	77.6023
4.0729	77.7112
4.0538	77.6547
4.0349	77.6912
4.0161	77.7619
3.9976	77.8138
3.9792	77.8166
3.9609	77.8711
3.9428	77.7861
3.9249	77.8019
3.9072	77.6898
3.8896	77.5898
3.8722	77.4651
3.8549	77.536
3.8378	77.5739
3.8208	77.8456
3.804	77.8645
3.7873	77.9478
3.7708	77.8783
3.7544	77.8633
3.7382	77.8807
3.7221	77.7612
3.7061	77.6753
3.6903	77.4993
3.6746	77.3664
3.659	77.2956
3.6436	77.0869
3.6283	76.9817
3.6131	76.7529
3.5981	76.5716
3.5832	76.3527
3.5684	76.0426
3.5537	75.6735
3.5391	75.3026
3.5247	74.3316
3.5104	72.304
3.4962	71.5788
3.4821	71.8309
3.4681	71.9041
3.4543	71.3605
3.4405	70.3053
3.4269	68.4685
3.4133	67.4005
3.3999	68.4636
3.3866	68.653
3.3733	68.5179
3.3602	69.5354
3.3472	69.7945
3.3343	69.6852
3.3215	69.4637
3.3088	69.0769
3.2961	68.6456
3.2836	68.1101
3.2712	67.6964
3.2588	67.1949
3.2466	66.7305
3.2345	66.2956
3.2224	65.7302
3.2104	65.2652
3.1985	64.8364
3.1867	64.4189
3.175	63.8883
3.1634	63.4997
3.1519	62.9132
3.1404	62.5147
3.129	62.0269
3.1178	61.71
3.1065	61.2205
3.0954	60.8405
3.0844	60.5227
3.0734	60.0843
3.0625	59.9116
3.0517	59.5961
3.041	59.5134
3.0303	59.1982
3.0197	59.1232
3.0092	58.7321
2.9987	58.59
2.9884	58.2852
2.9781	58.0737
2.9678	57.9029
2.9577	57.6616
2.9476	57.3038
2.9376	57.2854
2.9276	57.2894
2.9177	57.3689
2.9079	57.2204
2.8982	57.2762
2.8885	57.5457
2.8789	57.5582
2.8693	57.6613
2.8598	57.8195
2.8504	58.0664
2.841	57.9272
2.8317	58.4013
2.8224	58.5774
2.8133	58.8117
2.8041	59.9109
2.7951	59.4315
2.786	60.2236
2.7771	59.7852
2.7682	59.4241
2.7594	56.3072
2.7506	59.458
2.7418	61.4102
2.7332	61.3622
2.7246	63.8364
2.716	63.2021
2.7075	61.1437
2.699	63.5872
2.6906	71.5245
2.6823	76.8025
2.674	79.3951
2.6657	83.0722
2.6575	81.3055
2.6494	81.7228
2.6413	82.2771
2.6332	82.9732
2.6252	83.1757
2.6173	84.3971
2.6094	83.6801
2.6015	83.652
2.5937	85.5975
2.5859	83.9606
2.5782	83.7236
2.5706	83.997
2.5629	84.7182
2.5554	83.5642
2.5478	83.8126
2.5403	83.6746
2.5329	83.9556
2.5255	83.9521
2.5181	83.9347
2.5108	83.8725
2.5035	84.073
2.4963	84.1031
2.4891	84.0848
2.482	84.2775
2.4749	84.2764
2.4678	84.3766
2.4608	84.4978
2.4538	84.4062
2.4468	84.4757
2.4399	84.391
2.4331	84.633
2.4262	84.6424
2.4194	85.003
2.4127	84.6897
2.4059	84.9413
2.3993	84.9972
2.3926	84.8579
2.386	84.9612
2.3795	84.861
2.3729	85.0044
2.3664	85.1285
2.36	85.0107
2.3535	85.0699
2.3471	85.1672
2.3408	85.3487
2.3345	85.311
2.3282	85.401
2.3219	85.2537
2.3157	85.5331
2.3095	85.3447
2.3034	85.5573
2.2972	85.4345
2.2911	85.5385
2.2851	85.7197
2.279	85.527
2.2731	85.6263
2.2671	85.6455
2.2612	85.7946
2.2553	85.5979
2.2494	85.7921
2.2435	85.5408
2.2377	85.8384
2.232	85.6897
2.2262	85.581
2.2205	85.616
2.2148	85.466
2.2091	84.7929
2.2035	84.8236
2.1979	85.2618
2.1923	85.4024
2.1868	85.458
2.1812	85.6505
2.1758	85.5842
2.1703	85.5845
2.1649	85.69
2.1595	85.7344
2.1541	86.0173
2.1487	86.2093
2.1434	85.9778
2.1381	86.1346
2.1328	86.0466
2.1275	86.27
2.1223	86.1593
2.1171	86.2017
2.112	86.1549
2.1068	86.3122
2.1017	86.4695
2.0966	86.4047
2.0915	86.3709
2.0865	86.2133
2.0814	86.1333
2.0764	86.5285
2.0715	86.1216
2.0665	86.3365
2.0616	86.2814
2.0567	86.3205
2.0518	86.4729
2.0469	86.1681
2.0421	86.5196
2.0373	86.382
2.0325	86.5187
2.0277	86.1638
2.0229	86.0481
2.0182	86.317
2.0135	86.4172
2.0088	86.4223
2.0042	86.3437
