Name: Cerussite, PbCO3
Type: Mineral
Class: Carbonate
Subclass: None
Particle Size: Coarse
Sample No.: cerussite_1
Owner: JHU
Wavelength Range: TIR
Origin: Sample from Australia; donated by Norma Vergo.
Description: The sample was a light tan irregular mass and appeared to be a pure carbonate, both in hand specimen and under the microscope. Particle size was 74-250 Micrometers. Original ASTER Spectral Library name was jhu.nicolet.mineral.carbonate.none.coarse.ceruss1.spectrum.txt
Measurement: Bidirectional reflectance
X Units: Wavelength (micrometers)
Y Units: Reflectance (percent)
wavelength	value
25.0442	1.6687
24.3388	1.9343
23.6719	2.155
23.0407	2.3984
22.4422	2.7598
21.8741	3.1338
21.334	3.5474
20.8199	3.8679
20.33	4.0764
19.8627	4.3645
19.4163	4.6035
18.9896	4.7539
18.5812	4.9106
18.19	4.9048
17.815	4.8816
17.4551	4.7558
17.1094	4.4846
16.7772	4.7405
16.4576	5.0852
16.15	4.1731
15.8537	3.654
15.568	3.5657
15.2925	3.4246
15.0265	2.5464
14.7697	3.2222
14.5214	1.5554
14.2814	2.5146
14.0492	3.6777
13.8244	2.8096
13.6067	2.5586
13.3957	3.5032
13.1912	3.8044
12.9929	3.4033
12.8004	2.9851
12.6135	2.9829
12.432	3.0259
12.2557	2.6721
12.0843	2.3679
11.9176	3.7168
11.7555	1.9575
11.5977	2.2966
11.444	2.4526
11.2944	3.24
11.1487	3.8042
11.0067	4.1948
10.8682	4.1782
10.7332	4.0129
10.6015	3.655
10.473	3.3567
10.3476	3.2815
10.2251	3.1899
10.1056	2.4018
9.9887	2.4871
9.8746	3.1765
9.763	3.3987
9.6539	3.0574
9.5472	2.281
9.4429	2.1907
9.3408	2.8686
9.2409	2.7952
9.1431	2.2122
9.0474	1.9663
8.9536	2.1006
8.8618	2.2266
8.7718	2.1853
8.6837	2.2048
8.5973	2.2236
8.5126	2.2341
8.4295	2.2192
8.3481	2.1514
8.2682	2.1018
8.1898	2.0894
8.1129	2.0818
8.0374	2.0703
7.9634	2.0532
7.8906	2.0532
7.8192	2.0796
7.7491	2.1179
7.6802	2.1514
7.6126	2.189
7.5461	2.2693
7.4807	2.4109
7.4165	2.6079
7.3534	2.9155
7.2914	3.4504
7.2303	4.3552
7.1703	4.7258
7.1113	4.3213
7.0533	3.6973
6.9962	3.8286
6.94	4.196
6.8847	4.1367
6.8302	3.8838
6.7767	3.5317
6.7239	2.9631
6.672	2.1435
6.6209	1.3442
6.5705	0.844
6.5209	0.6968
6.4721	0.7083
6.424	0.7502
6.3766	0.8015
6.3299	0.8674
6.2838	0.9424
6.2385	1.0149
6.1937	1.1052
6.1496	1.2478
6.1062	1.468
6.0633	1.7805
6.0211	2.1824
5.9794	2.5698
5.9383	2.9341
5.8978	3.0596
5.8578	3.3765
5.8184	2.3564
5.7794	1.3491
5.741	1.4546
5.7031	3.7715
5.6657	5.1387
5.6288	5.312
5.5924	5.9543
5.5564	6.8276
5.5209	7.0771
5.4859	7.1072
5.4513	7.3672
5.4171	7.7502
5.3833	8.074
5.35	8.251
5.3171	8.3052
5.2846	8.4353
5.2524	8.7024
5.2207	8.9682
5.1893	9.1335
5.1584	9.2029
5.1277	9.2322
5.0975	9.1579
5.0676	8.9074
5.038	8.542
5.0088	8.1418
4.98	7.7383
4.9514	7.1792
4.9232	5.852
4.8953	4.605
4.8678	4.7278
4.8405	5.6028
4.8135	6.6189
4.7868	7.1277
4.7605	7.2326
4.7344	7.6484
4.7086	7.8147
4.6831	7.5378
4.6578	6.6831
4.6328	6.8852
4.6081	7.9099
4.5837	8.0239
4.5595	8.0774
4.5356	7.9787
4.5119	7.7539
4.4884	7.6374
4.4652	7.812
4.4423	7.8552
4.4196	7.7544
4.3971	7.563
4.3748	7.1658
4.3528	6.5708
4.331	5.845
4.3094	5.0893
4.288	4.3264
4.2668	3.6116
4.2458	3.1807
4.2251	2.9324
4.2045	2.6035
4.1841	2.2331
4.164	1.9014
4.144	1.7937
4.1242	1.9338
4.1046	2.1804
4.0852	2.3811
4.066	2.4624
4.047	2.4927
4.0281	2.6204
4.0094	2.7739
3.9909	2.8789
3.9725	2.9961
3.9544	3.2053
3.9363	3.7312
3.9185	4.6741
3.9008	5.5173
3.8833	6.0122
3.8659	6.2905
3.8487	6.4099
3.8316	6.3347
3.8147	6.134
3.7979	5.8501
3.7813	5.501
3.7648	5.0571
3.7485	4.6313
3.7323	4.2825
3.7162	3.9199
3.7003	3.4524
3.6845	2.9141
3.6689	2.4961
3.6534	2.2978
3.638	2.2986
3.6227	2.3633
3.6076	2.3408
3.5926	2.3293
3.5777	2.3389
3.563	2.3728
3.5484	2.438
3.5338	2.5542
3.5195	2.762
3.5052	3.0896
3.491	3.5449
3.477	4.0459
3.463	4.5098
3.4492	4.9255
3.4355	5.3152
3.4219	5.6731
3.4084	6.0198
3.395	6.3547
3.3817	6.6745
3.3685	6.9626
3.3554	7.2285
3.3425	7.4841
3.3296	7.7136
3.3168	7.8694
3.3041	7.9761
3.2915	8.0403
3.279	7.8806
3.2666	7.6199
3.2543	7.375
3.2421	7.0781
3.23	7.2849
3.218	7.7163
3.206	8.0141
3.1942	8.1001
3.1824	8.1057
3.1707	8.0906
3.1591	8.0849
3.1476	8.0617
3.1362	8.0146
3.1249	7.9797
3.1136	7.9668
3.1024	7.9499
3.0913	7.9387
3.0803	7.8955
3.0694	7.8645
3.0585	7.823
3.0477	7.7807
3.037	7.7304
3.0264	7.665
3.0158	7.6013
3.0053	7.5173
2.9949	7.4341
2.9845	7.3408
2.9743	7.2578
2.9641	7.1545
2.9539	7.0307
2.9439	6.9118
2.9339	6.8259
2.9239	6.7556
2.9141	6.5918
2.9043	6.1911
2.8946	6.2236
2.8849	6.8042
2.8753	7.1506
2.8658	7.332
2.8563	7.4038
2.8469	7.4709
2.8375	7.7131
2.8282	7.9241
2.819	8.0925
2.8098	8.2754
2.8007	8.4753
2.7917	8.6797
2.7827	8.8679
2.7738	9.0351
2.7649	9.1733
2.7561	9.3071
2.7473	9.459
2.7386	9.5915
2.7299	9.7553
2.7213	9.854
2.7128	9.9206
2.7043	9.8735
2.6959	9.8076
2.6875	9.6792
2.6791	9.4001
2.6709	8.9402
2.6626	8.3637
2.6545	8.0354
2.6463	8.144
2.6382	8.3847
2.6302	8.5141
2.6222	8.553
2.6143	8.6513
2.6064	8.8222
2.5986	9.0246
2.5908	9.1677
2.583	9.3235
2.5753	9.4785
2.5677	9.6789
2.5601	9.8664
2.5525	10.0281
2.545	10.1118
2.5375	10.1755
2.5301	10.1855
2.5227	10.1421
2.5154	10.0849
2.5081	10.0029
2.5008	9.8864
2.4936	9.7617
2.4864	9.644
2.4793	9.5656
2.4722	9.4844
2.4651	9.4404
2.4581	9.4289
2.4511	9.4756
2.4442	9.5647
2.4373	9.5984
2.4305	9.5825
2.4236	9.5915
2.4169	9.6728
2.4101	9.7795
2.4034	9.8506
2.3967	9.9065
2.3901	9.9597
2.3835	10.0224
2.377	10.1028
2.3704	10.1179
2.364	10.1748
2.3575	10.2453
2.3511	10.3076
2.3447	10.3313
2.3384	10.3601
2.3321	10.3962
2.3258	10.4314
2.3195	10.4709
2.3133	10.4909
2.3071	10.5219
2.301	10.5827
2.2949	10.5869
2.2888	10.5869
2.2828	10.5901
2.2767	10.5991
2.2708	10.6196
2.2648	10.6035
2.2589	10.5935
2.253	10.6025
2.2471	10.6179
2.2413	10.635
2.2355	10.6267
2.2297	10.6579
2.224	10.6938
2.2183	10.7302
2.2126	10.7629
2.207	10.739
2.2013	10.747
2.1957	10.7973
2.1902	10.8015
2.1846	10.7922
2.1791	10.7749
2.1736	10.7817
2.1682	10.8166
2.1628	10.8
2.1574	10.8083
2.152	10.8152
2.1466	10.8232
2.1413	10.8086
2.136	10.8501
2.1308	10.8371
2.1255	10.8435
2.1203	10.8479
2.1151	10.8349
2.11	10.8349
2.1048	10.8462
2.0997	10.8286
2.0946	10.8562
2.0895	10.8037
2.0845	10.8181
2.0795	10.8196
