Name: Natrolite Na_2Al_2Si_3O_10.2H_2O
Type: Mineral
Class: Silicate
Subclass: Tectosilicate
Particle Size: Fine
Sample No.: TS-8A
Owner: JPL
Wavelength Range: VSWIR
Origin: India, Maharashtra, Poona.
Description: Particle size was 0-45um. Collected by:  Ward's Original ASTER Spectral Library name was jpl.perkin.mineral.silicate.tectosilicate.fine.ts08a.spectrum.txt
Measurement: Hemispherical reflectance
X Units: Wavelength (micrometers)
Y Units: Reflectance (percent)
wavelength	value
2.5	58.949
2.494	58.4019
2.488	57.5154
2.482	56.0208
2.476	54.2239
2.47	52.4603
2.464	51.1604
2.458	50.6331
2.452	50.5544
2.446	50.0353
2.44	48.8578
2.434	47.5706
2.428	47.1773
2.422	48.2928
2.416	50.7533
2.41	53.6793
2.404	56.6054
2.398	59.0267
2.392	60.6439
2.386	61.763
2.38	62.4408
2.374	63.2132
2.368	64.0701
2.362	64.9937
2.356	65.7955
2.35	66.5263
2.344	67.2089
2.338	67.9292
2.332	68.5542
2.326	69.2019
2.32	69.8009
2.314	70.2829
2.308	70.8288
2.302	71.0929
2.296	71.1433
2.29	70.9485
2.284	70.5056
2.278	70.3135
2.272	70.1961
2.266	70.3646
2.26	70.6357
2.254	70.8508
2.248	70.8618
2.242	70.5816
2.236	70.3161
2.23	69.7878
2.224	69.0844
2.218	67.9142
2.212	66.5535
2.206	65.2622
2.2	64.3397
2.194	64.3051
2.188	65.1449
2.182	66.2647
2.176	67.1044
2.17	67.3315
2.164	67.5257
2.158	67.8275
2.152	68.2484
2.146	68.466
2.14	68.7553
2.134	68.6015
2.128	68.1852
2.122	67.4727
2.116	66.5793
2.11	65.3513
2.104	63.7958
2.098	62.0896
2.092	60.9179
2.086	60.1817
2.08	60.1627
2.074	60.5641
2.068	61.0397
2.062	61.3951
2.056	61.2764
2.05	60.6888
2.044	59.6585
2.038	58.0707
2.032	55.7441
2.026	53.3322
2.02	51.4778
2.014	50.2918
2.008	49.9563
2.002	50.2384
1.996	51.169
1.99	52.5654
1.984	53.8656
1.978	54.524
1.972	54.4689
1.966	53.5876
1.96	50.7714
1.954	43.9537
1.948	33.6886
1.942	27.9738
1.936	31.4794
1.93	38.8043
1.924	44.9028
1.918	49.3361
1.912	52.8166
1.906	55.944
1.9	59.4253
1.894	63.0816
1.888	67.7904
1.882	71.8892
1.876	74.4432
1.87	76.162
1.864	77.1997
1.858	77.734
1.852	78.2482
1.846	78.403
1.84	78.456
1.834	78.1337
1.828	77.7599
1.822	77.3576
1.816	77.2786
1.81	77.7403
1.804	78.243
1.798	78.6411
1.792	78.7516
1.786	78.7303
1.78	78.4392
1.774	77.9753
1.768	77.7028
1.762	78.2185
1.756	79.0161
1.75	79.3464
1.744	79.3209
1.738	79.2971
1.732	79.5048
1.726	79.6312
1.72	79.6775
1.714	79.5832
1.708	79.523
1.702	79.4048
1.696	79.3438
1.69	79.3474
1.684	79.1802
1.678	78.9499
1.672	78.7884
1.666	78.596
1.66	78.3348
1.654	78.1716
1.648	77.8724
1.642	77.7657
1.636	77.4949
1.63	77.3957
1.624	77.1516
1.618	77.0505
1.612	76.8718
1.606	76.7318
1.6	76.7408
1.594	76.8812
1.588	76.9182
1.582	76.9121
1.576	76.8748
1.57	76.8377
1.564	76.6295
1.558	76.6745
1.552	76.8277
1.546	77.0972
1.54	77.3113
1.534	77.3396
1.528	77.3384
1.522	77.2335
1.516	77.0389
1.51	76.7841
1.504	76.1883
1.498	75.112
1.492	73.34
1.486	73.0566
1.48	74.1528
1.474	73.9143
1.468	72.1865
1.462	68.758
1.456	67.5355
1.45	69.9124
1.444	71.8687
1.438	72.2472
1.432	72.7724
1.426	73.6413
1.42	75.001
1.414	76.7099
1.408	78.0813
1.402	79.2861
1.396	80.3025
1.39	80.8092
1.384	81.1621
1.378	81.4474
1.372	81.4984
1.366	81.588
1.36	81.4267
1.354	81.2321
1.348	81.3268
1.342	81.3244
1.336	81.3705
1.33	81.8036
1.324	82.4375
1.318	82.8054
1.312	82.9198
1.306	82.9537
1.3	82.9924
1.294	83.0323
1.288	83.1086
1.282	83.08
1.276	83.062
1.27	83.0678
1.264	83.0043
1.258	82.9942
1.252	82.9193
1.246	82.919
1.24	83.001
1.234	82.9849
1.228	82.9869
1.222	82.9651
1.216	82.948
1.21	82.8745
1.204	82.921
1.198	83.0006
1.192	82.8451
1.186	82.5865
1.18	82.5307
1.174	82.8097
1.168	82.8507
1.162	83.079
1.156	83.2472
1.15	83.4795
1.144	83.5464
1.138	83.6332
1.132	83.7368
1.126	83.6059
1.12	83.6778
1.114	83.7391
1.108	83.7236
1.102	83.5881
1.096	83.7312
1.09	83.7574
1.084	83.7164
1.078	83.7036
1.072	83.8247
1.066	83.7411
1.06	83.7773
1.054	83.7626
1.048	83.6773
1.042	83.6743
1.036	83.6695
1.03	83.7682
1.024	83.7043
1.018	83.6775
1.012	83.6465
1.006	83.5673
1	83.4817
0.994	83.4118
0.988	83.5119
0.982	83.3834
0.976	83.3879
0.97	83.41
0.964	83.5448
0.958	83.6589
0.952	83.7487
0.946	83.6989
0.94	83.8235
0.934	83.7534
0.928	83.8628
0.922	83.8264
0.916	83.8814
0.91	83.8836
0.904	83.77
0.898	83.7728
0.892	83.8454
0.886	83.8681
0.88	83.9097
0.874	83.8241
0.868	83.8457
0.862	83.8993
0.856	83.8671
0.85	83.9288
0.844	83.9014
0.838	83.9343
0.832	83.9628
0.826	83.886
0.82	83.9352
0.814	83.9431
0.808	83.9261
0.802	83.941
0.796	83.881
0.79	83.795
0.784	83.816
0.778	83.7434
0.772	83.7134
0.766	83.7117
0.76	83.6802
0.754	83.692
0.748	83.6334
0.742	83.6191
0.736	83.5932
0.73	83.5596
0.724	83.6011
0.718	83.5139
0.712	83.5185
0.706	83.5022
0.7	83.4654
0.694	83.468
0.688	83.413
0.682	83.4147
0.676	83.3809
0.67	83.337
0.664	83.3123
0.658	83.276
0.652	83.2437
0.646	83.2132
0.64	83.178
0.634	83.1421
0.628	83.095
0.622	83.0581
0.616	83.0118
0.61	82.9466
0.604	82.8982
0.598	82.8891
0.592	82.8782
0.586	82.798
0.58	82.7224
0.574	82.6429
0.568	82.5517
0.562	82.4335
0.556	82.3212
0.55	82.1729
0.544	82.0336
0.538	81.879
0.532	81.7072
0.526	81.5148
0.52	81.3112
0.514	81.068
0.508	80.8315
0.502	80.5384
0.496	80.2501
0.49	79.9309
0.484	79.594
0.478	79.3205
0.472	79.0478
0.466	78.753
0.46	78.4519
0.454	78.1327
0.448	77.8298
0.442	77.51
0.436	77.1977
0.43	76.8825
0.424	76.6375
0.418	76.3773
0.412	76.1938
0.406	75.9657
0.4	75.7356
