Name: Augite (Ca,Na)(Mg,Fe,Al,Ti)(Si,Al)2O6
Type: Mineral
Class: Silicate
Subclass: Inosilicate
Particle Size: Fine
Sample No.: augite_2
Owner: JHU
Wavelength Range: TIR
Origin: Sample from Rozier, near Gorges du Tarn, Tarn, France viathe Smithsonian (sample no. NMNH 120049).
Description: The sample was a single 22.31 g portion of a single black crystal, displaying some veining with dolomite, which was completely removed by a warm acid bath.Particle size was less than 2 Micrometers.(Pyroxene Group - single chain) Original ASTER Spectral Library name was jhu.nicolet.mineral.silicate.inosilicate.powder.augite2.spectrum.txt
Measurement: Transmission
X Units: Wavelength (micrometers)
Y Units: Transmittance (percent)
wavelength	value
25.0442	42.8358
24.3388	40.3632
23.6719	40.4706
23.0407	39.7655
22.4422	36.828
21.8741	29.6601
21.334	23.0624
20.8199	19.7363
20.33	21.3134
19.8627	22.5976
19.4163	22.6796
18.9896	25.0702
18.5812	29.3876
18.19	35.7089
17.815	44.4901
17.4551	53.8592
17.1094	61.8885
16.7772	68.9686
16.4576	72.034
16.15	71.4793
15.8537	68.203
15.568	66.6326
15.2925	74.0315
15.0265	77.2693
14.7697	78.0022
14.5214	79.6209
14.2814	80.0105
14.0492	80.451
13.8244	80.448
13.6067	80.0808
13.3957	77.6287
13.1912	74.6526
12.9929	72.4764
12.8004	70.3558
12.6135	67.9769
12.432	64.575
12.2557	59.6346
12.0843	53.4867
11.9176	46.0844
11.7555	36.5941
11.5977	27.8481
11.444	23.2612
11.2944	21.6923
11.1487	21.2275
11.0067	21.186
10.8682	21.8471
10.7332	24.1205
10.6015	26.4384
10.473	26.0707
10.3476	24.214
10.2251	23.9182
10.1056	25.9387
9.9887	27.1965
9.8746	28.1525
9.763	28.5156
9.6539	26.8329
9.5472	23.7082
9.4429	20.5761
9.3408	19.1547
9.2409	20.9316
9.1431	26.537
9.0474	36.0365
8.9536	45.2167
8.8618	52.7113
8.7718	59.1007
8.6837	64.8778
8.5973	69.294
8.5126	72.4774
8.4295	75.4573
8.3481	78.1824
8.2682	80.6209
8.1898	82.6194
8.1129	84.3225
8.0374	85.7083
7.9634	87.0559
7.8906	88.1016
7.8192	88.8797
7.7491	89.6614
7.6802	90.3357
7.6126	91.053
7.5461	91.6633
7.4807	92.197
7.4165	92.6018
7.3534	93.0183
7.2914	93.345
7.2303	93.6619
7.1703	94.3398
7.1113	94.7012
7.0533	94.6533
6.9962	94.9668
6.94	95.3652
6.8847	95.4841
6.8302	95.5166
6.7767	95.7205
6.7239	95.8691
6.672	95.9993
6.6209	96.0703
6.5705	96.1543
6.5209	96.135
6.4721	96.1514
6.424	96.1728
6.3766	96.1926
6.3299	96.2432
6.2838	96.3799
6.2385	96.5225
6.1937	96.4346
6.1496	95.9685
6.1062	95.8789
6.0633	96.124
6.0211	97.0701
5.9794	97.9997
5.9383	97.553
5.8978	97.2693
5.8578	97.3994
5.8184	97.6621
5.7794	97.8542
5.741	97.9834
5.7031	97.9578
5.6657	97.9482
5.6288	97.9678
5.5924	97.9778
5.5564	97.9612
5.5209	97.946
5.4859	97.8874
5.4513	97.8259
5.4171	97.7676
5.3833	97.6172
5.35	97.5925
5.3171	97.5037
5.2846	97.4394
5.2524	97.3603
5.2207	97.3015
5.1893	97.282
5.1584	97.2422
5.1277	97.1628
5.0975	97.1367
5.0676	97.1345
5.038	97.1396
5.0088	97.041
4.98	97.0095
4.9514	96.9846
4.9232	96.9099
4.8953	96.8865
4.8678	96.8601
4.8405	96.8262
4.8135	96.7842
4.7868	96.7512
4.7605	96.7263
4.7344	96.6592
4.7086	96.6233
4.6831	96.5095
4.6578	96.4697
4.6328	96.4258
4.6081	96.5066
4.5837	96.3027
4.5595	96.2234
4.5356	96.1238
4.5119	96.033
4.4884	95.9861
4.4652	95.8357
4.4423	95.7363
4.4196	95.6619
4.3971	95.574
4.3748	95.532
4.3528	95.3984
4.331	95.3057
4.3094	95.2
4.288	95.1228
4.2668	95.0002
4.2458	94.9329
4.2251	94.8108
4.2045	94.6946
4.1841	94.637
4.164	94.5359
4.144	94.3669
4.1242	94.3035
4.1046	94.1897
4.0852	94.1218
4.066	93.9827
4.047	93.8943
4.0281	93.7839
4.0094	93.6492
3.9909	93.5442
3.9725	93.3777
3.9544	93.3142
3.9363	93.2283
3.9185	93.1589
3.9008	93.0794
3.8833	92.9465
3.8659	92.8181
3.8487	92.6892
3.8316	92.5808
3.8147	92.488
3.7979	92.3821
3.7813	92.2844
3.7648	92.1492
3.7485	91.9729
3.7323	91.8464
3.7162	91.7351
3.7003	91.532
3.6845	91.4666
3.6689	91.3025
3.6534	91.2254
3.638	91.1189
3.6227	90.9885
3.6076	90.8206
3.5926	90.7254
3.5777	90.5881
3.563	90.3884
3.5484	90.2288
3.5338	90.0422
3.5195	89.7517
3.5052	89.3093
3.491	89.3245
3.477	89.2595
3.463	89.159
3.4492	88.9265
3.4355	88.6521
3.4219	88.1121
3.4084	88.0281
3.395	88.2908
3.3817	88.3113
3.3685	88.3357
3.3554	88.2014
3.3425	88.1902
3.3296	88.1682
3.3168	88.0349
3.3041	87.9026
3.2915	87.7674
3.279	87.6033
3.2666	87.5017
3.2543	87.4241
3.2421	87.3245
3.23	87.1638
3.218	86.9885
3.206	86.8367
3.1942	86.719
3.1824	86.5564
3.1707	86.3435
3.1591	86.1409
3.1476	85.9827
3.1362	85.7835
3.1249	85.5838
3.1136	85.346
3.1024	85.072
3.0913	84.7132
3.0803	84.406
3.0694	84.2166
3.0585	83.951
3.0477	83.7732
3.037	83.5745
3.0264	83.3748
3.0158	83.0335
3.0053	82.6468
2.9949	82.2605
2.9845	81.9431
2.9743	81.4099
2.9641	80.8904
2.9539	80.4695
2.9439	80.1219
2.9339	79.823
2.9239	79.5701
2.9141	79.4705
2.9043	79.3963
2.8946	79.3455
2.8849	79.2928
2.8753	79.2596
2.8658	79.2781
2.8563	79.3055
2.8469	79.4031
2.8375	79.451
2.8282	79.6756
2.819	79.991
2.8098	80.2146
2.8007	80.3103
2.7917	80.5476
2.7827	80.7029
2.7738	80.9226
2.7649	81.2166
2.7561	81.5799
2.7473	81.865
2.7386	82.0467
2.7299	82.199
2.7213	82.2381
2.7128	82.3045
2.7043	82.3523
2.6959	82.4275
2.6875	82.4695
2.6791	82.4139
2.6709	82.3318
2.6626	82.1297
2.6545	82.0349
2.6463	81.95
2.6382	81.7976
2.6302	81.7478
2.6222	81.6805
2.6143	81.5242
2.6064	81.3904
2.5986	81.2517
2.5908	81.2615
2.583	81.1414
2.5753	80.8289
2.5677	80.7703
2.5601	80.7586
2.5525	80.4803
2.545	80.3279
2.5375	80.3006
2.5301	80.2459
2.5227	79.9109
2.5154	79.9695
2.5081	79.9139
2.5008	79.6883
2.4936	79.5516
2.4864	79.4451
2.4793	79.2967
2.4722	79.1834
2.4651	79.1853
2.4581	79.1189
2.4511	78.8904
2.4442	78.656
2.4373	78.6092
2.4305	78.5467
2.4236	78.4451
2.4169	78.3631
2.4101	78.2185
2.4034	78.1189
2.3967	78.0213
2.3901	77.8006
2.3835	77.7283
2.377	77.6248
2.3704	77.6365
2.364	77.4998
2.3575	77.41
2.3511	77.3357
2.3447	77.3318
2.3384	77.0193
2.3321	76.8357
2.3258	76.9373
2.3195	76.8748
2.3133	76.6678
2.3071	76.4412
2.301	76.5643
2.2949	76.4412
2.2888	76.3221
2.2828	76.0936
2.2767	75.9959
2.2708	75.9998
2.2648	75.908
2.2589	75.6033
2.253	75.7029
2.2471	75.8084
2.2413	75.6268
2.2355	75.5096
2.2297	75.4139
2.224	75.0818
2.2183	75.2147
2.2126	75.1795
2.207	75.1971
2.2013	74.8943
2.1957	74.8709
2.1902	75.0389
2.1846	74.7732
2.1791	74.5975
2.1736	74.617
2.1682	74.5311
2.1628	74.8846
2.1574	74.408
2.152	74.0115
2.1466	74.0623
2.1413	74.0955
2.136	74.0154
2.1308	74.1033
2.1255	74.1268
2.1203	73.6736
2.1151	73.7811
2.11	73.6736
2.1048	73.5018
2.0997	73.9471
2.0946	73.7498
2.0895	73.5174
2.0845	73.3768
2.0795	73.4334
