Name: Orthoclase (Feldspar) (K,Na)AlSi_3O_8
Type: Mineral
Class: Silicate
Subclass: Tectosilicate
Particle Size: Medium
Sample No.: TS-12A
Owner: JPL
Wavelength Range: TIR
Origin: India
Description: Particle size was 45-125um.Collected by Burminco Original ASTER Spectral Library name was jpl.nicolet.mineral.silicate.tectosilicate.medium.ts12a.spectrum.txt
Measurement: Hemispherical reflectance
X Units: Wavelength (micrometers)
Y Units: Reflectance (percent)
wavelength	value
15.3853	2.4248
15.1161	1.2193
14.8563	1.7277
14.6052	2.1997
14.3624	2.5351
14.1276	3.0508
13.9004	2.9614
13.6803	2.8051
13.4671	2.5032
13.2604	2.5349
13.06	2.405
12.8656	2.2553
12.6769	2.0117
12.4936	1.9888
12.3155	2.6223
12.1425	3.6694
11.9742	4.6888
11.8106	4.9071
11.6513	4.9357
11.4963	4.9936
11.3454	5.1392
11.1983	5.3124
11.0551	5.3515
10.9154	5.5503
10.7793	5.9923
10.6465	6.5803
10.5169	7.4775
10.3904	8.6509
10.267	10.4799
10.1464	12.4076
10.0287	14.3814
9.9136	16.3905
9.8012	17.3806
9.6913	18.5633
9.5838	20.1301
9.4787	19.7621
9.3758	15.6372
9.2752	12.2132
9.1767	12.067
9.0803	11.4135
8.9858	11.438
8.8934	12.5736
8.8028	14.3967
8.714	15.0345
8.627	14.8167
8.5417	14.5415
8.4581	13.2465
8.3761	10.9308
8.2957	7.5462
8.2169	3.9787
8.1395	1.8812
8.0635	0.7682
7.989	0.387
7.9158	0.207
7.8439	0.1098
7.7734	0.1218
7.7041	0.264
7.636	0.2626
7.5691	0.3438
7.5034	0.3981
7.4388	0.6592
7.3753	0.7386
7.3129	1.0457
7.2515	1.1711
7.1912	1.5176
7.1318	1.8292
7.0734	2.1478
7.016	2.4251
6.9595	2.7916
6.9039	2.8195
6.8492	3.1708
6.7953	3.2332
6.7423	3.2673
6.6901	3.7051
6.6387	3.9847
6.5881	4.0721
6.5382	4.1234
6.4892	4.3669
6.4408	4.1878
6.3931	3.9231
6.3462	3.933
6.2999	3.6083
6.2543	3.6221
6.2094	3.7375
6.1651	3.9846
6.1214	4.1999
6.0784	4.4253
6.0359	4.7338
5.994	5.0274
5.9527	4.933
5.912	4.8661
5.8718	4.7947
5.8322	4.6338
5.7931	4.3618
5.7545	4.3286
5.7165	4.1556
5.6789	4.0354
5.6418	4.0832
5.6052	4.0905
5.5691	4.4515
5.5334	4.9586
5.4982	5.7303
5.4635	6.4455
5.4291	7.0964
5.3952	7.6961
5.3618	8.1761
5.3287	8.6376
5.2961	9.1343
5.2638	9.9241
5.2319	10.9843
5.2004	12.5217
5.1693	14.1435
5.1386	15.9962
5.1082	18.1284
5.0782	20.2303
5.0485	22.1353
5.0192	23.6283
4.9902	24.3927
4.9616	24.7781
4.9332	24.2687
4.9052	23.7245
4.8776	23.7743
4.8502	23.8816
4.8231	23.96
4.7963	23.8417
4.7699	24.0257
4.7437	24.3114
4.7178	24.6615
4.6922	24.8665
4.6668	25.2604
4.6418	26.0576
4.617	27.3463
4.5924	28.8049
4.5681	30.5383
4.5441	32.5691
4.5203	34.7073
4.4968	36.8118
4.4735	38.9371
4.4505	41.0784
4.4277	43.1603
4.4051	45.2662
4.3828	47.3321
4.3607	49.6524
4.3388	52.0015
4.3171	54.6658
4.2956	57.3676
4.2744	59.6246
4.2534	61.3159
4.2325	63.4743
4.2119	64.444
4.1915	65.2798
4.1712	66.0843
4.1512	66.7101
4.1313	67.2223
4.1117	67.7355
4.0922	67.9378
4.0729	68.1088
4.0538	68.3619
4.0349	68.3596
4.0161	68.436
3.9976	68.5737
3.9792	68.6223
3.9609	69.0277
3.9428	69.3241
3.9249	69.7679
3.9072	70.0854
3.8896	70.4849
3.8722	70.8778
3.8549	71.3375
3.8378	71.9281
3.8208	72.4492
3.804	73.0049
3.7873	73.5352
3.7708	74.0159
3.7544	74.3714
3.7382	74.8036
3.7221	75.1144
3.7061	75.3545
3.6903	75.6186
3.6746	75.9058
3.659	76.0748
3.6436	76.315
3.6283	76.3285
3.6131	76.4049
3.5981	76.4467
3.5832	76.3448
3.5684	76.1944
3.5537	76.0077
3.5391	75.6137
3.5247	75.0917
3.5104	73.6794
3.4962	72.9326
3.4821	72.9396
3.4681	72.8886
3.4543	72.5592
3.4405	71.7194
3.4269	70.4329
3.4133	69.4883
3.3999	70.0739
3.3866	70.3325
3.3733	70.034
3.3602	70.4642
3.3472	70.7219
3.3343	70.7353
3.3215	70.5362
3.3088	70.1207
3.2961	69.8193
3.2836	69.419
3.2712	69.0361
3.2588	68.6369
3.2466	68.2742
3.2345	67.8856
3.2224	67.5829
3.2104	67.3017
3.1985	67.0247
3.1867	66.7893
3.175	66.3533
3.1634	66.1435
3.1519	65.8106
3.1404	65.5566
3.129	65.2996
3.1178	65.0949
3.1065	64.7559
3.0954	64.4837
3.0844	64.4063
3.0734	64.2627
3.0625	64.1498
3.0517	63.9822
3.041	63.9563
3.0303	63.875
3.0197	63.7481
3.0092	63.5902
2.9987	63.3641
2.9884	63.147
2.9781	62.9956
2.9678	62.8887
2.9577	62.744
2.9476	62.6543
2.9376	62.3461
2.9276	62.3751
2.9177	62.3426
2.9079	62.3123
2.8982	62.5491
2.8885	62.5914
2.8789	62.8709
2.8693	63.4766
2.8598	63.7715
2.8504	64.2901
2.841	64.5985
2.8317	65.0346
2.8224	65.3134
2.8133	65.7848
2.8041	66.8595
2.7951	66.4389
2.786	67.1984
2.7771	67.1068
2.7682	68.1481
2.7594	67.8877
2.7506	70.4735
2.7418	73.2467
2.7332	73.5616
2.7246	77.0293
2.716	76.5518
2.7075	75.3805
2.699	77.4299
2.6906	82.4483
2.6823	84.7764
2.674	86.1106
2.6657	90.1846
2.6575	87.592
2.6494	87.717
2.6413	88.1413
2.6332	88.7213
2.6252	88.7241
2.6173	90.4799
2.6094	89.1349
2.6015	88.9368
2.5937	91.1855
2.5859	89.1961
2.5782	88.8779
2.5706	89.1332
2.5629	89.8655
2.5554	88.3571
2.5478	88.772
2.5403	88.4461
2.5329	88.6359
2.5255	88.4919
2.5181	88.5742
2.5108	88.5422
2.5035	88.4853
2.4963	88.6743
2.4891	88.7875
2.482	88.7754
2.4749	88.8844
2.4678	88.9181
2.4608	88.9108
2.4538	88.9826
2.4468	89.1631
2.4399	89.1686
2.4331	89.2711
2.4262	89.2922
2.4194	89.4125
2.4127	89.5095
2.4059	89.6878
2.3993	89.5971
2.3926	89.4973
2.386	89.8125
2.3795	89.8263
2.3729	89.7853
2.3664	89.7507
2.36	89.7739
2.3535	89.7956
2.3471	89.7153
2.3408	89.5286
2.3345	89.8062
2.3282	89.8991
2.3219	89.8394
2.3157	89.6826
2.3095	89.7528
2.3034	89.7879
2.2972	89.7335
2.2911	89.9258
2.2851	89.7022
2.279	89.7277
2.2731	89.7238
2.2671	89.7593
2.2612	89.878
2.2553	89.7066
2.2494	89.88
2.2435	89.8684
2.2377	90.0526
2.232	90.0177
2.2262	89.742
2.2205	89.8789
2.2148	89.9933
2.2091	89.7486
2.2035	89.6834
2.1979	89.9603
2.1923	89.8667
2.1868	89.9848
2.1812	89.9864
2.1758	90.1506
2.1703	90.0113
2.1649	89.953
2.1595	90.1694
2.1541	90.2915
2.1487	90.1282
2.1434	89.8673
2.1381	90.5641
2.1328	90.3357
2.1275	90.419
2.1223	90.2812
2.1171	90.2657
2.112	90.4128
2.1068	90.0809
2.1017	90.3031
2.0966	90.2023
2.0915	90.0253
2.0865	90.3766
2.0814	90.1537
2.0764	90.3781
2.0715	90.4698
2.0665	90.3138
2.0616	90.3926
2.0567	89.9715
2.0518	90.6096
2.0469	90.2369
2.0421	90.2113
2.0373	90.1864
2.0325	90.2218
2.0277	90.4535
2.0229	90.3987
2.0182	90.4045
2.0135	90.3672
2.0088	90.5778
2.0042	90.283
