Name: Gypsum (alabaster) CaSO4.2H20
Type: Mineral
Class: Sulfate
Subclass: None
Particle Size: Solid
Sample No.: gypsum_1
Owner: JHU
Wavelength Range: TIR
Origin: Pomaia, Italy via Hunt and Salisbury Collection #26B(purchased from Ward's Natural Science Establishment).
Description: The sample was white, translucent, and appeared pure, both in hand sample and under the microscope. XRD Analysis- Pure gypsum. Sample was random sawn surface.  Original ASTER Spectral Library name was jhu.nicolet.mineral.sulfate.none.solid.gypsum1.spectrum.txt
Measurement: Bidirectional reflectance
X Units: Wavelength (micrometers)
Y Units: Reflectance (percent)
wavelength	value
25.0442	24.1992
24.3388	24.3749
23.6719	24.3671
23.0407	24.5361
22.4422	25.29
21.8741	26.0292
21.334	26.7929
20.8199	27.0527
20.33	26.9609
19.8627	26.2665
19.4163	25.3559
18.9896	24.2929
18.5812	23.4179
18.19	22.8369
17.815	23.0961
17.4551	23.8486
17.1094	24.7089
16.7772	28.8652
16.4576	32.3446
16.15	23.0742
15.8537	18.8266
15.568	18.2641
15.2925	18.895
15.0265	23.2568
14.7697	28.7485
14.5214	23.5283
14.2814	17.0703
14.0492	15.9643
13.8244	16.4233
13.6067	16.957
13.3957	17.3945
13.1912	17.7602
12.9929	18.1455
12.8004	18.4042
12.6135	18.6486
12.432	18.8303
12.2557	19.0109
12.0843	19.177
11.9176	19.3518
11.7555	19.5859
11.5977	19.7675
11.444	19.9279
11.2944	20.0908
11.1487	20.2512
11.0067	20.4121
10.8682	20.5949
10.7332	20.7844
10.6015	20.9873
10.473	21.1987
10.3476	21.4208
10.2251	21.6359
10.1056	21.9199
9.9887	22.3674
9.8746	22.4057
9.763	22.9238
9.6539	23.4367
9.5472	24.0458
9.4429	24.8544
9.3408	25.9806
9.2409	27.602
9.1431	30.3798
9.0474	35.5265
8.9536	45.2264
8.8618	53.7882
8.7718	61.4266
8.6837	67.4801
8.5973	68.9007
8.5126	64.6214
8.4295	56.8819
8.3481	52.4296
8.2682	44.0243
8.1898	30.6054
8.1129	18.5156
8.0374	11.2346
7.9634	7.8877
7.8906	7.3745
7.8192	8.5166
7.7491	9.6391
7.6802	10.5161
7.6126	11.1821
7.5461	11.7197
7.4807	12.1508
7.4165	12.5229
7.3534	12.8481
7.2914	13.1176
7.2303	13.3125
7.1703	13.5175
7.1113	13.7197
7.0533	13.872
6.9962	14.0395
6.94	14.1645
6.8847	14.2788
6.8302	14.3427
6.7767	14.3842
6.7239	14.4724
6.672	14.5478
6.6209	14.6411
6.5705	14.6889
6.5209	14.7949
6.4721	14.8857
6.424	14.978
6.3766	15.1406
6.3299	15.331
6.2838	15.601
6.2385	16.0683
6.1937	17.3183
6.1496	17.2036
6.1062	13.2866
6.0633	14.0251
6.0211	14.4672
5.9794	14.8786
5.9383	14.791
5.8978	13.6071
5.8578	14.0151
5.8184	14.1584
5.7794	14.3628
5.741	14.5114
5.7031	14.5512
5.6657	14.5717
5.6288	14.6025
5.5924	14.6303
5.5564	14.6565
5.5209	14.666
5.4859	14.6953
5.4513	14.7165
5.4171	14.7287
5.3833	14.7573
5.35	14.7531
5.3171	14.7797
5.2846	14.7888
5.2524	14.791
5.2207	14.812
5.1893	14.8166
5.1584	14.8252
5.1277	14.823
5.0975	14.813
5.0676	14.8198
5.038	14.8261
5.0088	14.8339
4.98	14.8166
4.9514	14.8242
4.9232	14.8359
4.8953	14.8374
4.8678	14.875
4.8405	14.8693
4.8135	14.8725
4.7868	14.8933
4.7605	14.8908
4.7344	14.8393
4.7086	14.8169
4.6831	14.801
4.6578	14.7912
4.6328	14.8032
4.6081	14.8054
4.5837	14.7932
4.5595	14.7592
4.5356	14.7099
4.5119	14.6623
4.4884	14.6342
4.4652	14.593
4.4423	14.5412
4.4196	14.5102
4.3971	14.4926
4.3748	14.4953
4.3528	14.4729
4.331	14.4917
4.3094	14.4985
4.288	14.5053
4.2668	14.4985
4.2458	14.5185
4.2251	14.5129
4.2045	14.5117
4.1841	14.5244
4.164	14.5302
4.144	14.5315
4.1242	14.5288
4.1046	14.5249
4.0852	14.5236
4.066	14.5112
4.047	14.4795
4.0281	14.5
4.0094	14.4746
3.9909	14.4585
3.9725	14.4416
3.9544	14.458
3.9363	14.4521
3.9185	14.4475
3.9008	14.4543
3.8833	14.4463
3.8659	14.4213
3.8487	14.4194
3.8316	14.4113
3.8147	14.4106
3.7979	14.385
3.7813	14.3798
3.7648	14.3791
3.7485	14.3772
3.7323	14.3564
3.7162	14.3491
3.7003	14.3349
3.6845	14.3134
3.6689	14.2959
3.6534	14.302
3.638	14.2727
3.6227	14.2666
3.6076	14.26
3.5926	14.248
3.5777	14.2236
3.563	14.2317
3.5484	14.2109
3.5338	14.206
3.5195	14.2275
3.5052	14.2356
3.491	14.2275
3.477	14.205
3.463	14.2063
3.4492	14.2065
3.4355	14.2138
3.4219	14.2197
3.4084	14.1425
3.395	14.101
3.3817	14.0922
3.3685	14.1069
3.3554	14.061
3.3425	14.0376
3.3296	14.0283
3.3168	13.9941
3.3041	13.9961
3.2915	13.9843
3.279	13.9746
3.2666	13.9546
3.2543	13.9604
3.2421	13.958
3.23	13.9365
3.218	13.9384
3.206	13.914
3.1942	13.9262
3.1824	13.9506
3.1707	13.9433
3.1591	13.9756
3.1476	13.9672
3.1362	13.9267
3.1249	13.9384
3.1136	13.9531
3.1024	13.9912
3.0913	13.9985
3.0803	13.8925
3.0694	13.874
3.0585	13.8779
3.0477	13.9355
3.037	13.9765
3.0264	14.0239
3.0158	14.0669
3.0053	14.0942
2.9949	14.1806
2.9845	14.2817
2.9743	14.4599
2.9641	14.8203
2.9539	15.3598
2.9439	15.9751
2.9339	16.2802
2.9239	15.5468
2.9141	13.9536
2.9043	12.6484
2.8946	12.0727
2.8849	12.0215
2.8753	12.207
2.8658	12.3716
2.8563	12.4609
2.8469	12.83
2.8375	13.186
2.8282	13.3833
2.819	13.2016
2.8098	12.4726
2.8007	11.4336
2.7917	10.5078
2.7827	9.916
2.7738	9.6977
2.7649	9.7109
2.7561	9.8379
2.7473	10.0434
2.7386	10.2446
2.7299	10.3598
2.7213	10.4638
2.7128	10.5576
2.7043	10.6142
2.6959	10.6455
2.6875	10.7187
2.6791	10.7402
2.6709	10.75
2.6626	10.7588
2.6545	10.7949
2.6463	10.7812
2.6382	10.7939
2.6302	10.7851
2.6222	10.832
2.6143	10.8281
2.6064	10.791
2.5986	10.8086
2.5908	10.8125
2.583	10.8261
2.5753	10.834
2.5677	10.8525
2.5601	10.8252
2.5525	10.8496
2.545	10.8515
2.5375	10.8681
2.5301	10.8672
2.5227	10.8691
2.5154	10.8564
2.5081	10.8769
2.5008	10.9336
2.4936	10.915
2.4864	10.8994
2.4793	10.916
2.4722	10.9433
2.4651	10.8867
2.4581	10.9492
2.4511	10.958
2.4442	10.9492
2.4373	10.9336
2.4305	10.9619
2.4236	10.9345
2.4169	11.0009
2.4101	10.997
2.4034	10.9843
2.3967	11.0156
2.3901	11.0468
2.3835	11.0586
2.377	11.0449
2.3704	11.083
2.364	11.082
2.3575	11.082
2.3511	11.1133
2.3447	11.1416
2.3384	11.1416
2.3321	11.1465
2.3258	11.1523
2.3195	11.207
2.3133	11.2011
2.3071	11.1699
2.301	11.2363
2.2949	11.2363
2.2888	11.2265
2.2828	11.2304
2.2767	11.2617
2.2708	11.2558
2.2648	11.248
2.2589	11.2578
2.253	11.2851
2.2471	11.2617
2.2413	11.209
2.2355	11.2695
2.2297	11.2304
2.224	11.2773
2.2183	11.3125
2.2126	11.2656
2.207	11.207
2.2013	11.2558
2.1957	11.2734
2.1902	11.2675
2.1846	11.2617
2.1791	11.2226
2.1736	11.2383
2.1682	11.2539
2.1628	11.2422
2.1574	11.25
2.152	11.1914
2.1466	11.205
2.1413	11.1992
2.136	11.1679
2.1308	11.1425
2.1255	11.1758
2.1203	11.2207
2.1151	11.1816
2.11	11.1347
2.1048	11.1445
2.0997	11.1113
2.0946	11.08
2.0895	11.1269
2.0845	11.0586
2.0795	11.039
