Name: Labradorite (Feldspar) (NaSi,CaAl)AlSi_2O_8
Type: Mineral
Class: Silicate
Subclass: Tectosilicate
Particle Size: Fine
Sample No.: TS-2A
Owner: JPL
Wavelength Range: TIR
Origin: Mexico, Sonora, Pinacate
Description: Particle size was 0-45um.Collected by Burminco Original ASTER Spectral Library name was jpl.nicolet.mineral.silicate.tectosilicate.fine.ts02a.spectrum.txt
Measurement: Hemispherical reflectance
X Units: Wavelength (micrometers)
Y Units: Reflectance (percent)
wavelength	value
15.3853	2.1886
15.1161	2.3092
14.8563	1.8715
14.6052	2.2064
14.3624	2.2269
14.1276	2.3025
13.9004	2.3559
13.6803	2.3338
13.4671	2.3195
13.2604	2.5687
13.06	2.2945
12.8656	2.7045
12.6769	3.4503
12.4936	5.1421
12.3155	7.7947
12.1425	8.1713
11.9742	6.6634
11.8106	5.4021
11.6513	5.1015
11.4963	4.947
11.3454	5.0516
11.1983	4.7107
11.0551	4.6332
10.9154	4.7413
10.7793	4.6076
10.6465	4.7269
10.5169	4.5886
10.3904	4.5496
10.267	4.229
10.1464	4.2232
10.0287	4.2287
9.9136	3.8967
9.8012	3.7553
9.6913	3.489
9.5838	3.2593
9.4787	3.0975
9.3758	2.9581
9.2752	2.7402
9.1767	2.6883
9.0803	3.0508
8.9858	3.2968
8.8934	3.2222
8.8028	3.5152
8.714	3.3655
8.627	3.5778
8.5417	3.5486
8.4581	3.5287
8.3761	3.4071
8.2957	2.9174
8.2169	1.6889
8.1395	1.0491
8.0635	0.4386
7.989	0.3254
7.9158	0.4578
7.8439	0.8308
7.7734	1.2724
7.7041	2.049
7.636	2.9359
7.5691	3.7888
7.5034	4.9801
7.4388	5.9753
7.3753	7.1198
7.3129	8.386
7.2515	9.3743
7.1912	10.4097
7.1318	11.4814
7.0734	12.1589
7.016	13.0589
6.9595	14.1572
6.9039	14.5422
6.8492	15.1066
6.7953	15.6818
6.7423	16.0143
6.6901	16.4576
6.6387	17.4771
6.5881	17.5435
6.5382	17.7216
6.4892	18.7386
6.4408	18.4506
6.3931	18.4785
6.3462	19.0994
6.2999	18.8502
6.2543	19.0322
6.2094	19.2914
6.1651	19.6953
6.1214	20.0862
6.0784	20.6142
6.0359	20.707
5.994	21.3987
5.9527	21.7692
5.912	22.4365
5.8718	23.4739
5.8322	24.6574
5.7931	25.1454
5.7545	26.29
5.7165	27.153
5.6789	27.7806
5.6418	28.7758
5.6052	29.0875
5.5691	29.9369
5.5334	30.5686
5.4982	31.3554
5.4635	32.4158
5.4291	33.1333
5.3952	34.0212
5.3618	35.1488
5.3287	36.2496
5.2961	37.3916
5.2638	38.4621
5.2319	39.6807
5.2004	41.0398
5.1693	42.4004
5.1386	43.8223
5.1082	45.2708
5.0782	46.6745
5.0485	47.9646
5.0192	49.2238
4.9902	50.232
4.9616	51.0423
4.9332	51.8245
4.9052	52.5414
4.8776	53.0602
4.8502	53.6687
4.8231	54.3911
4.7963	54.9327
4.7699	55.6669
4.7437	56.5038
4.7178	57.3671
4.6922	58.2931
4.6668	59.251
4.6418	60.4014
4.617	61.617
4.5924	62.7495
4.5681	63.9723
4.5441	65.019
4.5203	66.0296
4.4968	67.0731
4.4735	67.9768
4.4505	68.7766
4.4277	69.4925
4.4051	70.2438
4.3828	70.9385
4.3607	71.5276
4.3388	72.1937
4.3171	72.3909
4.2956	72.5251
4.2744	72.9677
4.2534	74.3041
4.2325	73.5825
4.2119	75.2108
4.1915	76.2942
4.1712	76.7616
4.1512	76.9914
4.1313	77.142
4.1117	77.5632
4.0922	77.6179
4.0729	77.8512
4.0538	78.0498
4.0349	78.3228
4.0161	78.4448
3.9976	78.6139
3.9792	78.7726
3.9609	78.9077
3.9428	79.1575
3.9249	79.1567
3.9072	79.269
3.8896	79.361
3.8722	79.4755
3.8549	79.4392
3.8378	79.5445
3.8208	79.4894
3.804	79.4386
3.7873	79.4098
3.7708	79.2916
3.7544	79.2335
3.7382	79.0814
3.7221	79.0035
3.7061	78.7866
3.6903	78.5739
3.6746	78.4267
3.659	78.2509
3.6436	77.9451
3.6283	77.7658
3.6131	77.6449
3.5981	77.346
3.5832	77.0977
3.5684	76.8027
3.5537	76.4549
3.5391	75.9878
3.5247	75.6519
3.5104	74.8583
3.4962	74.3048
3.4821	74.3241
3.4681	74.0076
3.4543	73.7505
3.4405	73.1864
3.4269	72.4263
3.4133	71.6604
3.3999	71.7863
3.3866	71.8262
3.3733	71.3655
3.3602	71.4351
3.3472	71.3178
3.3343	71.1716
3.3215	70.9762
3.3088	70.6375
3.2961	70.247
3.2836	70.0065
3.2712	69.6565
3.2588	69.3009
3.2466	68.9337
3.2345	68.5081
3.2224	68.3226
3.2104	67.9657
3.1985	67.6202
3.1867	67.2995
3.175	67.0056
3.1634	66.7806
3.1519	66.2672
3.1404	66.1428
3.129	65.9259
3.1178	65.6028
3.1065	65.3246
3.0954	65.2918
3.0844	65.1325
3.0734	64.9107
3.0625	64.867
3.0517	64.9188
3.041	64.7116
3.0303	64.6751
3.0197	64.5841
3.0092	64.3835
2.9987	64.5391
2.9884	64.2245
2.9781	64.301
2.9678	64.3307
2.9577	64.2262
2.9476	64.3821
2.9376	64.6143
2.9276	64.5688
2.9177	64.7817
2.9079	65.1555
2.8982	65.2192
2.8885	65.6447
2.8789	65.7444
2.8693	66.2798
2.8598	66.5596
2.8504	66.9236
2.841	67.1919
2.8317	67.6839
2.8224	68.2909
2.8133	68.748
2.8041	69.748
2.7951	69.8424
2.786	71.1398
2.7771	71.6012
2.7682	72.8352
2.7594	73.6131
2.7506	74.967
2.7418	77.3253
2.7332	77.9514
2.7246	80.2778
2.716	80.521
2.7075	81.3933
2.699	82.2611
2.6906	83.4642
2.6823	84.3216
2.674	85.0159
2.6657	87.0077
2.6575	85.2591
2.6494	85.4685
2.6413	85.6287
2.6332	85.8739
2.6252	86.1023
2.6173	86.6732
2.6094	86.051
2.6015	86.1304
2.5937	87.5323
2.5859	86.0994
2.5782	86.1628
2.5706	86.2068
2.5629	86.6526
2.5554	85.7982
2.5478	85.932
2.5403	85.8395
2.5329	85.9376
2.5255	85.8069
2.5181	85.9061
2.5108	85.9545
2.5035	85.8708
2.4963	85.897
2.4891	85.7458
2.482	86.0479
2.4749	85.9524
2.4678	85.9818
2.4608	86.0171
2.4538	85.9706
2.4468	86.0128
2.4399	86.0185
2.4331	86.1791
2.4262	86.0523
2.4194	86.2582
2.4127	86.3132
2.4059	86.2002
2.3993	86.3014
2.3926	86.2925
2.386	86.2447
2.3795	86.4509
2.3729	86.4323
2.3664	86.4845
2.36	86.3633
2.3535	86.4002
2.3471	86.5101
2.3408	86.3499
2.3345	86.3346
2.3282	86.6038
2.3219	86.4921
2.3157	86.6205
2.3095	86.6201
2.3034	86.5544
2.2972	86.6405
2.2911	86.6606
2.2851	86.5843
2.279	86.4037
2.2731	86.7351
2.2671	86.6414
2.2612	86.6101
2.2553	86.5786
2.2494	86.7021
2.2435	86.7286
2.2377	86.5823
2.232	86.7206
2.2262	86.8112
2.2205	86.6436
2.2148	86.7678
2.2091	86.8273
2.2035	86.6746
2.1979	86.9202
2.1923	86.7725
2.1868	86.9228
2.1812	86.8407
2.1758	87.0239
2.1703	86.8333
2.1649	87.11
2.1595	86.9335
2.1541	86.9417
2.1487	87.24
2.1434	87.1206
2.1381	87.1062
2.1328	86.9819
2.1275	87.0642
2.1223	87.2054
2.1171	87.2271
2.112	87.1236
2.1068	87.0641
2.1017	86.9638
2.0966	87.1256
2.0915	87.168
2.0865	87.1421
2.0814	87.1044
2.0764	86.7543
2.0715	87.4624
2.0665	87.0831
2.0616	87.2987
2.0567	86.9622
2.0518	87.381
2.0469	87.5132
2.0421	87.4192
2.0373	87.3258
2.0325	87.4142
2.0277	87.463
2.0229	87.3839
2.0182	87.277
2.0135	87.6577
2.0088	87.1831
2.0042	87.322
