Name: Chlorite
Type: Mineral
Class: Silicate
Subclass: Phyllosilicate
Particle Size: Coarse
Sample No.: PS-12F
Owner: JPL
Wavelength Range: TIR
Origin: USA, New Mexico
Description: Particle size was 125-500um.Collected by Ward's Original ASTER Spectral Library name was jpl.nicolet.mineral.silicate.phyllosilicate.coarse.ps12f.spectrum.txt
Measurement: Hemispherical reflectance
X Units: Wavelength (micrometers)
Y Units: Reflectance (percent)
wavelength	value
15.3853	3.0306
15.1161	3.14
14.8563	2.7917
14.6052	2.3125
14.3624	1.7823
14.1276	1.8624
13.9004	1.9949
13.6803	2.3574
13.4671	2.7042
13.2604	2.7723
13.06	2.5293
12.8656	2.5925
12.6769	2.1077
12.4936	2.1016
12.3155	1.9002
12.1425	1.6335
11.9742	1.6544
11.8106	1.9184
11.6513	1.9287
11.4963	2.396
11.3454	2.6676
11.1983	3.0162
11.0551	3.3672
10.9154	3.7983
10.7793	4.5695
10.6465	5.4706
10.5169	6.5968
10.3904	8.069
10.267	8.8296
10.1464	10.3464
10.0287	12.0353
9.9136	12.7005
9.8012	12.7499
9.6913	12.015
9.5838	11.1103
9.4787	10.4743
9.3758	8.5806
9.2752	5.5153
9.1767	3.6399
9.0803	2.7385
8.9858	2.4608
8.8934	2.2416
8.8028	1.9823
8.714	1.9662
8.627	1.5983
8.5417	2.163
8.4581	2.3294
8.3761	2.5545
8.2957	2.6894
8.2169	2.9781
8.1395	2.8781
8.0635	2.2922
7.989	2.0774
7.9158	1.8179
7.8439	1.7947
7.7734	1.9137
7.7041	1.8231
7.636	1.8757
7.5691	1.9681
7.5034	2.1158
7.4388	2.1491
7.3753	2.2496
7.3129	2.4348
7.2515	2.4692
7.1912	2.5014
7.1318	2.6917
7.0734	2.6624
7.016	2.7688
6.9595	2.7661
6.9039	2.8232
6.8492	2.8755
6.7953	2.8267
6.7423	2.7904
6.6901	2.7815
6.6387	2.7877
6.5881	2.8537
6.5382	2.6504
6.4892	2.7833
6.4408	2.6162
6.3931	2.6722
6.3462	2.5984
6.2999	2.5271
6.2543	2.6744
6.2094	2.5852
6.1651	2.6107
6.1214	2.7675
6.0784	2.7665
6.0359	2.7977
5.994	2.8093
5.9527	2.8769
5.912	3.0459
5.8718	3.0947
5.8322	3.1412
5.7931	3.4109
5.7545	3.4948
5.7165	3.6068
5.6789	3.6524
5.6418	3.7238
5.6052	3.7258
5.5691	3.8601
5.5334	3.9483
5.4982	4.1025
5.4635	4.1451
5.4291	4.2336
5.3952	4.1577
5.3618	4.1873
5.3287	4.177
5.2961	4.1587
5.2638	4.3231
5.2319	4.4342
5.2004	4.4199
5.1693	4.5527
5.1386	4.576
5.1082	4.5616
5.0782	4.6237
5.0485	4.7582
5.0192	4.6684
4.9902	4.7484
4.9616	5.021
4.9332	5.1784
4.9052	5.5025
4.8776	5.7698
4.8502	6.1673
4.8231	6.492
4.7963	6.8017
4.7699	7.1606
4.7437	7.6961
4.7178	8.1014
4.6922	8.4244
4.6668	8.7861
4.6418	9.184
4.617	9.5841
4.5924	10.2886
4.5681	10.8002
4.5441	11.4383
4.5203	11.7896
4.4968	12.0309
4.4735	12.4376
4.4505	12.847
4.4277	13.3186
4.4051	13.6222
4.3828	14.1103
4.3607	14.5352
4.3388	14.9446
4.3171	15.2586
4.2956	15.5625
4.2744	15.8474
4.2534	16.1045
4.2325	16.4245
4.2119	16.6795
4.1915	16.7181
4.1712	17.0211
4.1512	17.1483
4.1313	17.4171
4.1117	17.5438
4.0922	17.631
4.0729	17.6607
4.0538	17.7628
4.0349	17.7431
4.0161	17.6804
3.9976	17.8118
3.9792	17.8301
3.9609	17.6604
3.9428	17.7012
3.9249	17.6198
3.9072	17.4527
3.8896	17.3653
3.8722	17.2265
3.8549	17.0437
3.8378	16.9428
3.8208	16.7699
3.804	16.6484
3.7873	16.202
3.7708	16.1365
3.7544	15.9646
3.7382	15.7215
3.7221	15.4381
3.7061	15.3918
3.6903	15.0121
3.6746	14.8636
3.659	14.5575
3.6436	14.3029
3.6283	14.1362
3.6131	13.7494
3.5981	13.5
3.5832	12.9583
3.5684	12.6152
3.5537	12.3152
3.5391	12.1098
3.5247	11.9294
3.5104	11.6045
3.4962	11.4242
3.4821	11.1786
3.4681	10.9368
3.4543	10.7208
3.4405	10.4012
3.4269	10.4025
3.4133	9.9981
3.3999	9.7754
3.3866	9.5216
3.3733	9.3724
3.3602	8.9629
3.3472	8.7769
3.3343	8.5686
3.3215	8.3906
3.3088	8.1444
3.2961	7.7711
3.2836	7.5369
3.2712	7.186
3.2588	7.065
3.2466	6.71
3.2345	6.3731
3.2224	6.2693
3.2104	6.0446
3.1985	5.767
3.1867	5.5286
3.175	5.3809
3.1634	5.0865
3.1519	4.9131
3.1404	4.7968
3.129	4.512
3.1178	4.2378
3.1065	4.1227
3.0954	3.8949
3.0844	3.8592
3.0734	3.557
3.0625	3.5895
3.0517	3.5353
3.041	3.2635
3.0303	3.2692
3.0197	3.0252
3.0092	3.108
2.9987	2.7312
2.9884	2.812
2.9781	2.7544
2.9678	2.8306
2.9577	2.728
2.9476	2.6363
2.9376	2.6901
2.9276	2.6073
2.9177	2.7564
2.9079	2.4877
2.8982	2.7648
2.8885	2.8472
2.8789	2.8614
2.8693	2.966
2.8598	2.9657
2.8504	2.9864
2.841	2.9419
2.8317	2.8809
2.8224	2.7177
2.8133	2.7765
2.8041	2.8915
2.7951	3.1136
2.786	3.4757
2.7771	4.0358
2.7682	4.0844
2.7594	3.8311
2.7506	4.2488
2.7418	4.9999
2.7332	6.4721
2.7246	8.6031
2.716	11.2746
2.7075	12.3925
2.699	12.528
2.6906	15.6884
2.6823	17.0358
2.674	17.9492
2.6657	18.2963
2.6575	19.0085
2.6494	19.7614
2.6413	20.2002
2.6332	20.6558
2.6252	20.9357
2.6173	21.0418
2.6094	21.1299
2.6015	21.4105
2.5937	21.4778
2.5859	21.8701
2.5782	21.9431
2.5706	21.8813
2.5629	22.3398
2.5554	22.5784
2.5478	23.08
2.5403	23.0166
2.5329	23.4511
2.5255	23.524
2.5181	23.7487
2.5108	24.0468
2.5035	24.3854
2.4963	24.8278
2.4891	25.302
2.482	25.8469
2.4749	26.7548
2.4678	27.373
2.4608	27.9599
2.4538	28.3452
2.4468	28.4286
2.4399	28.407
2.4331	28.6401
2.4262	28.6695
2.4194	28.7161
2.4127	28.8493
2.4059	28.4244
2.3993	27.7711
2.3926	27.0268
2.386	25.5271
2.3795	24.1359
2.3729	22.6085
2.3664	21.8028
2.36	21.443
2.3535	21.4411
2.3471	21.9643
2.3408	23.0323
2.3345	23.8847
2.3282	24.8272
2.3219	25.4881
2.3157	26.2087
2.3095	27.0118
2.3034	27.7883
2.2972	28.2329
2.2911	28.3304
2.2851	28.0441
2.279	27.3327
2.2731	25.8871
2.2671	23.9334
2.2612	23.0573
2.2553	23.6667
2.2494	26.2669
2.2435	29.3292
2.2377	32.2881
2.232	34.3486
2.2262	35.9396
2.2205	36.7859
2.2148	37.5456
2.2091	38.1504
2.2035	38.6165
2.1979	38.841
2.1923	39.3534
2.1868	39.6828
2.1812	39.8251
2.1758	39.7931
2.1703	39.8956
2.1649	40.2219
2.1595	40.3907
2.1541	40.2567
2.1487	40.0969
2.1434	39.8947
2.1381	40.1405
2.1328	39.9838
2.1275	40.2072
2.1223	40.0566
2.1171	40.3733
2.112	40.3491
2.1068	40.3361
2.1017	40.2464
2.0966	40.0157
2.0915	39.9879
2.0865	39.6669
2.0814	39.6467
2.0764	39.6497
2.0715	38.9388
2.0665	38.6832
2.0616	38.2145
2.0567	37.9315
2.0518	37.591
2.0469	36.9466
2.0421	36.5214
2.0373	35.9506
2.0325	35.3614
2.0277	35.0159
2.0229	34.4896
2.0182	34.0442
2.0135	33.7407
2.0088	33.3828
2.0042	33.4127
