Name: Sepiolite Mg4Si6O15(OH)2.6H2)
Type: Mineral
Class: Silicate
Subclass: Phyllosilicate
Particle Size: Coarse
Sample No.: sepiolite_1
Owner: JHU
Wavelength Range: TIR
Origin: Two Crows, Nev., USA via Hunt and Salisbury Collection #CMSSEPNEV-1 (purchased from the Clay Mineral Society Repository)
Description: White, earthy clay.  Sepiolite plus a small amount of dolomite.  The sample was treated with HCl to remove the dolomite. (Sheet silicates); Sepiolite GroupParticle size was 0-2 micrometers and packed powder simulates coarse. Original ASTER Spectral Library name was jhu.nicolet.mineral.silicate.phyllosilicate.packed.sepiol1.spectrum.txt
Measurement: Bidirectional reflectance
X Units: Wavelength (micrometers)
Y Units: Reflectance (percent)
wavelength	value
25.0442	10.5581
24.3388	11.0197
23.6719	11.8689
23.0407	12.3369
22.4422	12.667
21.8741	12.0429
21.334	14.4851
20.8199	16.0705
20.33	14.7497
19.8627	14.5876
19.4163	15.1894
18.9896	15.3623
18.5812	15.2595
18.19	13.8523
17.815	11.3733
17.4551	7.8147
17.1094	4.4319
16.7772	3.407
16.4576	3.3086
16.15	3.4175
15.8537	4.0166
15.568	4.6804
15.2925	5.1792
15.0265	4.2334
14.7697	4.1401
14.5214	4.4094
14.2814	3.5947
14.0492	3.6406
13.8244	4.0268
13.6067	4.3459
13.3957	4.7988
13.1912	5.093
12.9929	5.1169
12.8004	4.873
12.6135	5.0163
12.432	5.5078
12.2557	5.9905
12.0843	6.3088
11.9176	6.5105
11.7555	6.3647
11.5977	6.1369
11.444	6.3096
11.2944	6.6086
11.1487	7.0364
11.0067	7.2468
10.8682	7.3616
10.7332	7.5603
10.6015	7.7554
10.473	7.9179
10.3476	8.4878
10.2251	9.5039
10.1056	8.8327
9.9887	7.457
9.8746	8.5469
9.763	10.4714
9.6539	13.0932
9.5472	13.2995
9.4429	12.7194
9.3408	10.3061
9.2409	11.1281
9.1431	11.2458
9.0474	9.4035
8.9536	11.6054
8.8618	10.4853
8.7718	10.8188
8.6837	9.3313
8.5973	6.1216
8.5126	4.0264
8.4295	3.6902
8.3481	3.7273
8.2682	3.7229
8.1898	2.2537
8.1129	1.1887
8.0374	1.2278
7.9634	1.4414
7.8906	1.6985
7.8192	2.0027
7.7491	2.2751
7.6802	2.5447
7.6126	2.7878
7.5461	2.938
7.4807	3.0066
7.4165	3.0083
7.3534	3.0134
7.2914	3.0862
7.2303	3.2746
7.1703	3.4751
7.1113	3.6289
7.0533	3.8159
6.9962	4.1006
6.94	4.4079
6.8847	4.7849
6.8302	5.2817
6.7767	5.7529
6.7239	6.1201
6.672	6.3281
6.6209	6.4206
6.5705	6.4702
6.5209	6.6477
6.4721	6.7131
6.424	6.646
6.3766	6.4389
6.3299	5.957
6.2838	5.0818
6.2385	3.8269
6.1937	2.9224
6.1496	2.5854
6.1062	2.896
6.0633	3.081
6.0211	3.1108
5.9794	3.6147
5.9383	4.384
5.8978	5.2036
5.8578	5.8943
5.8184	6.2742
5.7794	6.6474
5.741	7.0469
5.7031	7.2898
5.6657	7.4277
5.6288	7.4468
5.5924	7.3157
5.5564	7.3081
5.5209	7.5444
5.4859	7.8235
5.4513	8.165
5.4171	8.5036
5.3833	8.6684
5.35	8.6152
5.3171	8.6343
5.2846	8.7986
5.2524	8.9848
5.2207	9.0698
5.1893	9.0139
5.1584	9.0652
5.1277	9.3496
5.0975	9.7263
5.0676	10.1826
5.038	10.6428
5.0088	10.9333
4.98	11.0659
4.9514	11.1577
4.9232	11.1643
4.8953	11.0405
4.8678	10.9533
4.8405	10.9426
4.8135	10.9841
4.7868	10.9585
4.7605	10.7759
4.7344	10.5256
4.7086	10.5932
4.6831	10.7707
4.6578	11.011
4.6328	11.1313
4.6081	11.2583
4.5837	11.3703
4.5595	11.4397
4.5356	11.5647
4.5119	11.7497
4.4884	11.9607
4.4652	12.1252
4.4423	12.2795
4.4196	12.468
4.3971	12.6797
4.3748	12.9082
4.3528	13.1403
4.331	13.4155
4.3094	13.7014
4.288	13.989
4.2668	14.2561
4.2458	14.4834
4.2251	14.6711
4.2045	14.8315
4.1841	14.9658
4.164	15.0949
4.144	15.2307
4.1242	15.3779
4.1046	15.499
4.0852	15.653
4.066	15.7773
4.047	15.9365
4.0281	16.0805
4.0094	16.2175
3.9909	16.3286
3.9725	16.4106
3.9544	16.5127
3.9363	16.5959
3.9185	16.6784
3.9008	16.7233
3.8833	16.7324
3.8659	16.7243
3.8487	16.7439
3.8316	16.7253
3.8147	16.7326
3.7979	16.7387
3.7813	16.7395
3.7648	16.7348
3.7485	16.6892
3.7323	16.6569
3.7162	16.6162
3.7003	16.5354
3.6845	16.4397
3.6689	16.4123
3.6534	16.3371
3.638	16.2348
3.6227	16.1167
3.6076	15.9997
3.5926	15.8657
3.5777	15.7114
3.563	15.6045
3.5484	15.458
3.5338	15.2939
3.5195	15.1128
3.5052	14.821
3.491	14.7285
3.477	14.5276
3.463	14.322
3.4492	14.093
3.4355	13.8488
3.4219	13.5254
3.4084	13.1291
3.395	13.0522
3.3817	12.7431
3.3685	12.507
3.3554	12.1609
3.3425	11.8235
3.3296	11.5166
3.3168	11.1653
3.3041	10.7983
3.2915	10.5073
3.279	10.1877
3.2666	9.8659
3.2543	9.5014
3.2421	9.1218
3.23	8.7322
3.218	8.394
3.206	8.0556
3.1942	7.708
3.1824	7.3623
3.1707	7.02
3.1591	6.6277
3.1476	6.2351
3.1362	5.8262
3.1249	5.4294
3.1136	5.1753
3.1024	5.0564
3.0913	4.8645
3.0803	4.6797
3.0694	4.5369
3.0585	4.438
3.0477	4.3625
3.037	4.3093
3.0264	4.1931
3.0158	4.0547
3.0053	3.928
2.9949	3.8276
2.9845	3.7239
2.9743	3.6172
2.9641	3.5246
2.9539	3.4455
2.9439	3.3743
2.9339	3.3176
2.9239	3.2703
2.9141	3.2056
2.9043	3.1379
2.8946	3.0596
2.8849	2.9502
2.8753	2.8313
2.8658	2.6631
2.8563	2.4993
2.8469	2.3474
2.8375	2.2239
2.8282	2.1018
2.819	2.0437
2.8098	2.0117
2.8007	2.0295
2.7917	2.0972
2.7827	2.1365
2.7738	2.1226
2.7649	2.0974
2.7561	2.1084
2.7473	2.2956
2.7386	2.8101
2.7299	3.5359
2.7213	3.1785
2.7128	3.4846
2.7043	5.6592
2.6959	6.8296
2.6875	4.4604
2.6791	9.7114
2.6709	10.6736
2.6626	11.5337
2.6545	12.1401
2.6463	12.6303
2.6382	12.9995
2.6302	13.2368
2.6222	13.4853
2.6143	13.6716
2.6064	13.7566
2.5986	13.8925
2.5908	13.9199
2.583	13.8833
2.5753	13.8852
2.5677	13.8593
2.5601	13.7873
2.5525	13.6958
2.545	13.6833
2.5375	13.6086
2.5301	13.5539
2.5227	13.5415
2.5154	13.5456
2.5081	13.6118
2.5008	13.6792
2.4936	13.748
2.4864	13.7964
2.4793	13.8706
2.4722	13.914
2.4651	13.8737
2.4581	13.935
2.4511	14.0249
2.4442	14.0529
2.4373	14.1469
2.4305	14.2605
2.4236	14.3813
2.4169	14.5351
2.4101	14.7631
2.4034	14.9121
2.3967	14.7851
2.3901	14.7846
2.3835	15.1591
2.377	15.6777
2.3704	16
2.364	16.2578
2.3575	16.497
2.3511	16.7817
2.3447	16.9487
2.3384	17.0551
2.3321	17.0522
2.3258	16.8271
2.3195	16.3767
2.3133	15.2087
2.3071	15.4255
2.301	16.1626
2.2949	16.3625
2.2888	16.5236
2.2828	17.0131
2.2767	17.4475
2.2708	17.5991
2.2648	17.7658
2.2589	17.8701
2.253	17.9384
2.2471	18.0534
2.2413	18.0256
2.2355	18.0449
2.2297	18.0227
2.224	18.06
2.2183	18.1826
2.2126	18.1379
2.207	18.1772
2.2013	18.2219
2.1957	18.1601
2.1902	17.7944
2.1846	17.9543
2.1791	18.1845
2.1736	18.3769
2.1682	18.5634
2.1628	18.6359
2.1574	18.6616
2.152	18.7114
2.1466	18.7788
2.1413	18.8291
2.136	18.8847
2.1308	18.8359
2.1255	18.9458
2.1203	19.0336
2.1151	19.0363
2.11	19.0849
2.1048	19.0722
2.0997	19.1269
2.0946	19.2509
2.0895	19.2607
2.0845	19.2783
2.0795	19.2951
