Name: Chrysotile Mg3Si2O5(OH)4
Type: Mineral
Class: Silicate
Subclass: Phyllosilicate
Particle Size: Fine
Sample No.: chrysotile_1
Owner: JHU
Wavelength Range: TIR
Origin: Smithsonian NMNH 91197; Sample from Kaapsche Hoop,Barberton, Transvaal (E), South Africa.
Description: The hand sample was fibrous, asbestiform. The sample was relatively clean and sample portions with dust adhering were discarded.  The remainder was a fibrous white mass weighing approximately 2.35 g.  Aside from adhering dust, the sample showed no contamination.  The sample appears to be pure chrysotile under the microscope. Sample particle size was less than 2 Micrometers. (sheet silicates) (Serpentine/Kaplin Group) Original ASTER Spectral Library name was jhu.nicolet.mineral.silicate.phyllosilicate.powder.chryso1.spectrum.txt
Measurement: Transmission
X Units: Wavelength (micrometers)
Y Units: Transmittance (percent)
wavelength	value
25.0442	45.016
24.3388	50.5524
23.6719	50.4347
23.0407	26.3403
22.4422	45.6786
21.8741	51.4901
21.334	53.5826
20.8199	56.6051
20.33	62.6158
19.8627	69.5281
19.4163	75.9966
18.9896	77.7376
18.5812	71.939
18.19	63.732
17.815	62.6734
17.4551	62.4957
17.1094	59.443
16.7772	54.5589
16.4576	51.5751
16.15	55.297
15.8537	57.9935
15.568	60.8651
15.2925	61.4657
15.0265	65.7916
14.7697	72.2586
14.5214	76.7713
14.2814	80.7749
14.0492	83.1678
13.8244	84.7967
13.6067	86.3799
13.3957	87.6985
13.1912	88.4143
12.9929	89.6001
12.8004	90.2188
12.6135	91.1475
12.432	91.8101
12.2557	92.1975
12.0843	92.8008
11.9176	93.1502
11.7555	92.8826
11.5977	92.6011
11.444	91.8421
11.2944	90.488
11.1487	87.9844
11.0067	83.8582
10.8682	76.3992
10.7332	64.3123
10.6015	49.6403
10.473	38.5243
10.3476	37.2104
10.2251	41.3161
10.1056	45.7692
9.9887	48.0409
9.8746	44.5309
9.763	45.5931
9.6539	52.285
9.5472	59.4347
9.4429	62.0977
9.3408	55.3275
9.2409	47.8329
9.1431	49.4552
9.0474	59.3802
8.9536	68.9061
8.8618	73.6805
8.7718	76.2442
8.6837	78.0459
8.5973	79.3921
8.5126	80.5467
8.4295	81.5191
8.3481	82.4654
8.2682	83.4541
8.1898	84.6582
8.1129	85.8775
8.0374	86.9002
7.9634	87.5552
7.8906	88.0774
7.8192	88.657
7.7491	88.9688
7.6802	89.2058
7.6126	89.4331
7.5461	89.7442
7.4807	89.8928
7.4165	90.0962
7.3534	90.2427
7.2914	90.2395
7.2303	90.1694
7.1703	90.7478
7.1113	90.9168
7.0533	90.8789
6.9962	90.9714
6.94	91.0488
6.8847	90.9053
6.8302	90.844
6.7767	91.0581
6.7239	91.3543
6.672	91.6106
6.6209	91.7681
6.5705	91.8823
6.5209	91.8086
6.4721	91.7112
6.424	91.5598
6.3766	91.3059
6.3299	91.0391
6.2838	90.7605
6.2385	90.2922
6.1937	89.6629
6.1496	89.2073
6.1062	88.8108
6.0633	89.0962
6.0211	89.7012
5.9794	90.28
5.9383	90.8416
5.8978	91.4802
5.8578	91.9209
5.8184	92.1433
5.7794	92.4028
5.741	92.7263
5.7031	92.9011
5.6657	92.9607
5.6288	93.0615
5.5924	93.1611
5.5564	93.1921
5.5209	93.2712
5.4859	93.3345
5.4513	93.4229
5.4171	93.4216
5.3833	93.4863
5.35	93.5095
5.3171	93.5984
5.2846	93.6704
5.2524	93.7754
5.2207	93.7942
5.1893	93.853
5.1584	93.9348
5.1277	93.9053
5.0975	93.8723
5.0676	93.8994
5.038	93.8601
5.0088	93.8674
4.98	93.8569
4.9514	93.9375
4.9232	93.915
4.8953	93.8599
4.8678	93.9385
4.8405	93.9221
4.8135	93.9507
4.7868	94.0081
4.7605	93.9907
4.7344	93.9658
4.7086	93.9495
4.6831	94.0188
4.6578	94.0503
4.6328	94.0647
4.6081	94.1179
4.5837	94.0579
4.5595	94.0957
4.5356	94.0938
4.5119	94.0469
4.4884	94.0596
4.4652	94.032
4.4423	94.0469
4.4196	93.9724
4.3971	94.0149
4.3748	93.971
4.3528	94.0076
4.331	94.0281
4.3094	94.0178
4.288	93.9968
4.2668	94.0112
4.2458	93.98
4.2251	93.9985
4.2045	94.019
4.1841	94.0447
4.164	94.0447
4.144	94.0271
4.1242	94.011
4.1046	94.032
4.0852	94.0652
4.066	93.9902
4.047	94.0747
4.0281	94.0549
4.0094	94.009
3.9909	94.0005
3.9725	93.9883
3.9544	93.9517
3.9363	93.9932
3.9185	94.0195
3.9008	94.062
3.8833	93.9834
3.8659	93.9585
3.8487	93.9751
3.8316	93.9243
3.8147	93.9153
3.7979	93.9368
3.7813	93.8882
3.7648	93.8674
3.7485	93.834
3.7323	93.8284
3.7162	93.8425
3.7003	93.6877
3.6845	93.7556
3.6689	93.6856
3.6534	93.6238
3.638	93.6834
3.6227	93.6121
3.6076	93.5803
3.5926	93.573
3.5777	93.5232
3.563	93.491
3.5484	93.4214
3.5338	93.344
3.5195	93.1199
3.5052	92.5935
3.491	92.7354
3.477	92.8057
3.463	92.7415
3.4492	92.5261
3.4355	92.3677
3.4219	91.5811
3.4084	91.5715
3.395	92.1272
3.3817	92.0781
3.3685	92.1707
3.3554	92.323
3.3425	92.3318
3.3296	92.2398
3.3168	92.1697
3.3041	92.1729
3.2915	92.0745
3.279	91.9126
3.2666	91.7808
3.2543	91.7205
3.2421	91.4824
3.23	91.4456
3.218	91.2969
3.206	91.0623
3.1942	90.7422
3.1824	90.4529
3.1707	90.2432
3.1591	89.8999
3.1476	89.5872
3.1362	89.207
3.1249	88.8767
3.1136	88.6043
3.1024	88.2786
3.0913	87.8784
3.0803	87.6431
3.0694	87.5684
3.0585	87.3682
3.0477	87.0835
3.037	86.7761
3.0264	86.305
3.0158	85.9275
3.0053	85.5445
2.9949	85.2078
2.9845	85.0313
2.9743	84.5908
2.9641	84.2019
2.9539	83.8325
2.9439	83.8382
2.9339	83.8035
2.9239	83.8189
2.9141	83.9036
2.9043	84.1248
2.8946	84.4331
2.8849	84.7617
2.8753	84.972
2.8658	85.2652
2.8563	85.8023
2.8469	86.1428
2.8375	86.3123
2.8282	86.4431
2.819	86.5254
2.8098	86.6123
2.8007	86.7481
2.7917	86.8213
2.7827	87.0252
2.7738	86.572
2.7649	85.742
2.7561	83.1848
2.7473	76.5691
2.7386	76.9405
2.7299	79.5201
2.7213	72.5176
2.7128	58.0094
2.7043	60.6913
2.6959	79.9864
2.6875	86.1646
2.6791	87.7349
2.6709	88.8621
2.6626	89.3162
2.6545	89.6487
2.6463	89.8369
2.6382	90.1311
2.6302	90.2693
2.6222	90.3528
2.6143	90.5159
2.6064	90.4309
2.5986	90.5689
2.5908	90.7595
2.583	90.7898
2.5753	90.6235
2.5677	90.6629
2.5601	90.7744
2.5525	90.6489
2.545	90.8076
2.5375	90.9453
2.5301	90.7783
2.5227	90.7544
2.5154	90.7241
2.5081	90.7544
2.5008	90.906
2.4936	91.0188
2.4864	90.9675
2.4793	90.8989
2.4722	90.9902
2.4651	90.885
2.4581	90.8919
2.4511	90.7988
2.4442	90.7656
2.4373	90.762
2.4305	90.9187
2.4236	90.7783
2.4169	90.7368
2.4101	91.022
2.4034	90.9507
2.3967	90.6541
2.3901	90.7229
2.3835	90.9609
2.377	90.8897
2.3704	90.9255
2.364	90.8291
2.3575	90.8316
2.3511	90.7149
2.3447	90.6182
2.3384	90.4141
2.3321	90.4031
2.3258	90.459
2.3195	90.6475
2.3133	90.8179
2.3071	90.9358
2.301	90.6536
2.2949	90.5493
2.2888	90.8377
2.2828	90.8274
2.2767	90.5691
2.2708	90.6568
2.2648	90.6047
2.2589	90.636
2.253	90.8108
2.2471	90.551
2.2413	90.5974
2.2355	90.5586
2.2297	90.5894
2.224	90.6856
2.2183	90.4346
2.2126	90.7764
2.207	90.6809
2.2013	90.4607
2.1957	90.429
2.1902	90.5881
2.1846	90.7217
2.1791	90.6021
2.1736	90.5635
2.1682	90.7476
2.1628	90.9392
2.1574	90.6709
2.152	90.186
2.1466	90.5637
2.1413	90.4204
2.136	89.9898
2.1308	90.6057
2.1255	90.4934
2.1203	90.0728
2.1151	90.4829
2.11	90.4368
2.1048	90.4524
2.0997	90.6621
2.0946	90.283
2.0895	90.815
2.0845	90.9441
2.0795	90.3318
