Name: Quartz SiO_2
Type: Mineral
Class: Silicate
Subclass: Tectosilicate
Particle Size: Coarse
Sample No.: TS-1C
Owner: JPL
Wavelength Range: VSWIR
Origin: USA, South Dakota, Custer County, Custer.
Description: Rose quartzParticle size was 125-500um.Collected by:  Ward's Original ASTER Spectral Library name was jpl.perkin.mineral.silicate.tectosilicate.coarse.ts01c.spectrum.txt
Measurement: Hemispherical reflectance
X Units: Wavelength (micrometers)
Y Units: Reflectance (percent)
wavelength	value
2.5	76.5281
2.494	76.695
2.488	76.6542
2.482	76.8114
2.476	76.8938
2.47	77.1283
2.464	77.2672
2.458	77.2607
2.452	77.4708
2.446	77.4682
2.44	77.5685
2.434	77.7128
2.428	77.806
2.422	77.9427
2.416	78.1028
2.41	78.1439
2.404	78.2877
2.398	78.3968
2.392	78.4685
2.386	78.5366
2.38	78.7652
2.374	78.8016
2.368	78.8898
2.362	78.8934
2.356	79.0664
2.35	79.1931
2.344	79.2234
2.338	79.3584
2.332	79.3693
2.326	79.3795
2.32	79.4538
2.314	79.3781
2.308	79.4662
2.302	79.4229
2.296	79.4401
2.29	79.5973
2.284	79.5057
2.278	79.4708
2.272	79.5485
2.266	79.4929
2.26	79.5005
2.254	79.4667
2.248	79.5049
2.242	79.4944
2.236	79.4488
2.23	79.5441
2.224	79.5105
2.218	79.4907
2.212	79.59
2.206	79.5083
2.2	79.6151
2.194	79.5839
2.188	79.8132
2.182	79.9504
2.176	80.0609
2.17	80.3505
2.164	80.54
2.158	80.7565
2.152	80.8783
2.146	80.9646
2.14	80.9882
2.134	80.9133
2.128	80.6652
2.122	80.4976
2.116	80.2195
2.11	79.9631
2.104	79.6589
2.098	79.5218
2.092	79.6199
2.086	79.6366
2.08	79.7097
2.074	79.7426
2.068	79.8532
2.062	79.7845
2.056	79.7447
2.05	79.8394
2.044	79.8782
2.038	79.8675
2.032	79.8175
2.026	79.7526
2.02	79.6691
2.014	79.5809
2.008	79.4753
2.002	79.4184
1.996	79.3309
1.99	79.176
1.984	79.0395
1.978	78.8734
1.972	78.737
1.966	78.5252
1.96	78.4166
1.954	78.3763
1.948	78.2509
1.942	78.3456
1.936	78.2675
1.93	78.238
1.924	78.3145
1.918	78.3523
1.912	78.5914
1.906	78.8192
1.9	79.2427
1.894	79.6104
1.888	79.9898
1.882	80.1378
1.876	80.3751
1.87	80.501
1.864	80.5925
1.858	80.6932
1.852	80.6914
1.846	80.6877
1.84	80.7226
1.834	80.7184
1.828	80.7209
1.822	80.7947
1.816	80.7527
1.81	80.7358
1.804	80.8624
1.798	80.8067
1.792	80.8169
1.786	80.7875
1.78	80.7416
1.774	80.7034
1.768	80.7267
1.762	80.7125
1.756	80.7378
1.75	80.7882
1.744	80.8148
1.738	80.8188
1.732	80.8365
1.726	80.8724
1.72	80.8307
1.714	80.8633
1.708	80.7803
1.702	80.8071
1.696	80.7998
1.69	80.802
1.684	80.7937
1.678	80.7526
1.672	80.7521
1.666	80.8361
1.66	80.8247
1.654	80.7346
1.648	80.7258
1.642	80.7232
1.636	80.7587
1.63	80.7616
1.624	80.7031
1.618	80.7606
1.612	80.7309
1.606	80.7433
1.6	80.7009
1.594	80.7582
1.588	80.7772
1.582	80.7256
1.576	80.6498
1.57	80.7736
1.564	80.6445
1.558	80.6467
1.552	80.6015
1.546	80.5669
1.54	80.6473
1.534	80.5344
1.528	80.5394
1.522	80.4616
1.516	80.4745
1.51	80.44
1.504	80.3797
1.498	80.3373
1.492	80.2905
1.486	80.3435
1.48	80.2486
1.474	80.2227
1.468	80.2077
1.462	80.1945
1.456	80.1582
1.45	80.1691
1.444	80.1441
1.438	80.1349
1.432	80.0781
1.426	80.1639
1.42	80.066
1.414	80.1123
1.408	80.2177
1.402	80.2825
1.396	80.2966
1.39	80.5212
1.384	80.5462
1.378	80.5562
1.372	80.5369
1.366	80.5856
1.36	80.5969
1.354	80.5341
1.348	80.5913
1.342	80.5666
1.336	80.6285
1.33	80.5837
1.324	80.5092
1.318	80.5861
1.312	80.5828
1.306	80.5696
1.3	80.5229
1.294	80.5305
1.288	80.4922
1.282	80.4843
1.276	80.5716
1.27	80.4996
1.264	80.4504
1.258	80.4224
1.252	80.4928
1.246	80.4666
1.24	80.4952
1.234	80.4114
1.228	80.4266
1.222	80.4221
1.216	80.4067
1.21	80.4304
1.204	80.3153
1.198	80.339
1.192	80.3705
1.186	80.3858
1.18	80.3895
1.174	80.402
1.168	80.2958
1.162	80.4055
1.156	80.2859
1.15	80.3059
1.144	80.397
1.138	80.3592
1.132	80.3432
1.126	80.3253
1.12	80.3506
1.114	80.3232
1.108	80.2835
1.102	80.2667
1.096	80.3033
1.09	80.327
1.084	80.3296
1.078	80.2848
1.072	80.2803
1.066	80.291
1.06	80.1915
1.054	80.2753
1.048	80.2354
1.042	80.2718
1.036	80.2395
1.03	80.2631
1.024	80.2652
1.018	80.1709
1.012	80.1223
1.006	80.2484
1	80.1873
0.994	80.1004
0.988	80.1186
0.982	80.0316
0.976	80.1009
0.97	80.1185
0.964	80.1361
0.958	80.0839
0.952	80.0155
0.946	80.0406
0.94	80.0248
0.934	80.0422
0.928	79.9574
0.922	79.9422
0.916	79.9303
0.91	79.8786
0.904	79.9324
0.898	79.8604
0.892	79.9113
0.886	79.8207
0.88	79.8631
0.874	79.8606
0.868	79.8104
0.862	79.7762
0.856	79.8882
0.85	79.7707
0.844	79.6905
0.838	79.712
0.832	79.7433
0.826	79.7467
0.82	79.7533
0.814	79.7
0.808	79.7062
0.802	79.7133
0.796	79.657
0.79	79.6142
0.784	79.5629
0.778	79.5555
0.772	79.4998
0.766	79.5016
0.76	79.4861
0.754	79.423
0.748	79.436
0.742	79.4323
0.736	79.385
0.73	79.3609
0.724	79.3026
0.718	79.2573
0.712	79.2592
0.706	79.214
0.7	79.1636
0.694	79.1037
0.688	79.1143
0.682	79.0602
0.676	78.9994
0.67	78.9696
0.664	78.9156
0.658	78.8738
0.652	78.8125
0.646	78.7341
0.64	78.6493
0.634	78.5885
0.628	78.4865
0.622	78.3849
0.616	78.2473
0.61	78.1097
0.604	77.9523
0.598	77.7893
0.592	77.629
0.586	77.3965
0.58	77.1179
0.574	76.8458
0.568	76.5157
0.562	76.178
0.556	75.7927
0.55	75.4128
0.544	75.0441
0.538	74.6722
0.532	74.3098
0.526	73.968
0.52	73.6664
0.514	73.3841
0.508	73.1683
0.502	72.9908
0.496	72.8554
0.49	72.7645
0.484	72.7358
0.478	72.7647
0.472	72.8532
0.466	72.9948
0.46	73.1533
0.454	73.3269
0.448	73.5193
0.442	73.6738
0.436	73.8656
0.43	73.9686
0.424	74.116
0.418	74.3067
0.412	74.4972
0.406	74.6372
0.4	74.6291
