Name: Colemanite Ca_2B_6O_11.5H_2O
Type: Mineral
Class: Borate
Subclass: None
Particle Size: Medium
Sample No.: B-1A
Owner: JPL
Wavelength Range: TIR
Origin: USA, California, Kern County, Boron
Description: Particle size was 45-125um.Collected by Burminco Original ASTER Spectral Library name was jpl.nicolet.mineral.borate.none.medium.b01a.spectrum.txt
Measurement: Hemispherical reflectance
X Units: Wavelength (micrometers)
Y Units: Reflectance (percent)
wavelength	value
15.3853	4.095
15.1161	4.4768
14.8563	4.875
14.6052	4.9538
14.3624	5.0758
14.1276	5.156
13.9004	5.7082
13.6803	6.545
13.4671	5.4981
13.2604	7.633
13.06	7.4323
12.8656	4.2181
12.6769	5.2905
12.4936	5.5429
12.3155	6.4873
12.1425	6.0284
11.9742	7.0799
11.8106	8.887
11.6513	10.4371
11.4963	10.8277
11.3454	11.5616
11.1983	13.7268
11.0551	15.5403
10.9154	17.574
10.7793	16.1022
10.6465	16.3034
10.5169	17.8219
10.3904	16.9037
10.267	11.9951
10.1464	8.7988
10.0287	6.6742
9.9136	4.5477
9.8012	4.1364
9.6913	4.6159
9.5838	5.9986
9.4787	6.3469
9.3758	3.6865
9.2752	2.6515
9.1767	1.5814
9.0803	1.7083
8.9858	2.4271
8.8934	2.5917
8.8028	2.4486
8.714	2.0735
8.627	2.4316
8.5417	1.7746
8.4581	1.0944
8.3761	1.3452
8.2957	1.7076
8.2169	2.4441
8.1395	2.8006
8.0635	2.3483
7.989	2.6167
7.9158	3.5457
7.8439	4.0206
7.7734	3.8172
7.7041	3.6454
7.636	5.5052
7.5691	8.1942
7.5034	9.0813
7.4388	8.893
7.3753	8.9241
7.3129	12.6515
7.2515	13.3379
7.1912	10.7885
7.1318	7.8866
7.0734	4.9028
7.016	2.1155
6.9595	0.8684
6.9039	0.4607
6.8492	0.4744
6.7953	0.3332
6.7423	0.2941
6.6901	0.277
6.6387	0.2894
6.5881	0.4028
6.5382	0.4882
6.4892	0.5161
6.4408	0.528
6.3931	0.7054
6.3462	0.6255
6.2999	0.7627
6.2543	0.7941
6.2094	0.8674
6.1651	0.8161
6.1214	0.8901
6.0784	0.9364
6.0359	0.9239
5.994	1.015
5.9527	1.0124
5.912	1.0484
5.8718	1.0423
5.8322	1.02
5.7931	1.0429
5.7545	1.1103
5.7165	1.3417
5.6789	1.3821
5.6418	1.5031
5.6052	1.5589
5.5691	1.6606
5.5334	1.6323
5.4982	1.8238
5.4635	1.8509
5.4291	1.9424
5.3952	2.0434
5.3618	1.9278
5.3287	2.2314
5.2961	2.2908
5.2638	2.3693
5.2319	2.3966
5.2004	2.5526
5.1693	2.5898
5.1386	2.5305
5.1082	2.6771
5.0782	2.6902
5.0485	2.6947
5.0192	2.8122
4.9902	2.6316
4.9616	2.7969
4.9332	2.8068
4.9052	2.8931
4.8776	3.0403
4.8502	2.9903
4.8231	3.0192
4.7963	3.0171
4.7699	2.9823
4.7437	2.8751
4.7178	3.0489
4.6922	2.7089
4.6668	2.8246
4.6418	2.8653
4.617	2.9316
4.5924	2.8186
4.5681	2.8535
4.5441	2.8983
4.5203	2.9015
4.4968	2.9959
4.4735	3.0364
4.4505	3.1178
4.4277	3.2422
4.4051	3.3415
4.3828	3.3376
4.3607	3.4176
4.3388	3.5762
4.3171	3.4972
4.2956	3.403
4.2744	3.3811
4.2534	3.3921
4.2325	3.2936
4.2119	3.2416
4.1915	3.0875
4.1712	2.9951
4.1512	2.9148
4.1313	2.8999
4.1117	2.7628
4.0922	2.519
4.0729	2.3242
4.0538	2.2644
4.0349	2.2556
4.0161	2.2678
3.9976	2.1826
3.9792	2.2687
3.9609	2.2752
3.9428	2.255
3.9249	2.2304
3.9072	2.382
3.8896	2.3168
3.8722	2.2664
3.8549	2.3881
3.8378	2.4547
3.8208	2.5189
3.804	2.5358
3.7873	2.5244
3.7708	2.5798
3.7544	2.6237
3.7382	2.6291
3.7221	2.6214
3.7061	2.5162
3.6903	2.6061
3.6746	2.64
3.659	2.4094
3.6436	2.4955
3.6283	2.4724
3.6131	2.3751
3.5981	2.5781
3.5832	2.4088
3.5684	2.4652
3.5537	2.4232
3.5391	2.314
3.5247	2.2736
3.5104	2.3332
3.4962	2.2798
3.4821	2.3668
3.4681	2.3373
3.4543	2.375
3.4405	2.1918
3.4269	2.3085
3.4133	2.2452
3.3999	2.3345
3.3866	2.429
3.3733	2.1273
3.3602	2.3159
3.3472	2.2749
3.3343	2.3744
3.3215	2.4022
3.3088	2.3024
3.2961	2.3955
3.2836	2.3071
3.2712	2.4611
3.2588	2.4285
3.2466	2.5747
3.2345	2.393
3.2224	2.4833
3.2104	2.5552
3.1985	2.4441
3.1867	2.4754
3.175	2.3939
3.1634	2.2868
3.1519	2.4052
3.1404	2.2737
3.129	2.2853
3.1178	2.025
3.1065	2.0563
3.0954	2.0349
3.0844	2.0115
3.0734	2.0131
3.0625	2.0297
3.0517	1.6842
3.041	1.5633
3.0303	1.9306
3.0197	1.5706
3.0092	1.6185
2.9987	1.2768
2.9884	1.48
2.9781	1.0988
2.9678	1.3609
2.9577	1.2318
2.9476	1.3245
2.9376	1.1789
2.9276	1.2516
2.9177	1.4999
2.9079	1.3023
2.8982	1.4783
2.8885	1.4606
2.8789	1.3392
2.8693	1.3908
2.8598	1.6599
2.8504	1.5985
2.841	1.6733
2.8317	1.5115
2.8224	1.7404
2.8133	1.644
2.8041	1.7099
2.7951	1.7848
2.786	1.9292
2.7771	1.8325
2.7682	1.4219
2.7594	1.2077
2.7506	1.6215
2.7418	2.1614
2.7332	2.5079
2.7246	2.863
2.716	3.1587
2.7075	3.7517
2.699	4.3783
2.6906	5.3156
2.6823	5.7842
2.674	6.5848
2.6657	7.4087
2.6575	7.557
2.6494	7.8383
2.6413	8.3626
2.6332	8.8352
2.6252	9.1803
2.6173	9.8219
2.6094	9.9693
2.6015	10.0113
2.5937	10.6614
2.5859	10.53
2.5782	10.6131
2.5706	11.0339
2.5629	11.5414
2.5554	11.3694
2.5478	11.7639
2.5403	12.2386
2.5329	13.0405
2.5255	13.7263
2.5181	14.1335
2.5108	14.0309
2.5035	13.8582
2.4963	14.1837
2.4891	14.3486
2.482	14.3227
2.4749	14.2201
2.4678	14.177
2.4608	14.0166
2.4538	14.1689
2.4468	14.4548
2.4399	14.8728
2.4331	15.0906
2.4262	15.4923
2.4194	15.582
2.4127	16.2304
2.4059	16.7935
2.3993	17.8636
2.3926	19.0113
2.386	20.1264
2.3795	21.7367
2.3729	22.5293
2.3664	23.8408
2.36	25.2323
2.3535	26.1942
2.3471	27.0796
2.3408	27.4879
2.3345	28.4022
2.3282	28.7812
2.3219	29.4248
2.3157	29.8982
2.3095	30.1418
2.3034	30.2059
2.2972	30.0147
2.2911	30.1547
2.2851	29.8948
2.279	29.4616
2.2731	29.1558
2.2671	28.6078
2.2612	28.3524
2.2553	27.957
2.2494	26.9726
2.2435	26.2958
2.2377	25.5373
2.232	24.5307
2.2262	23.7429
2.2205	23.2278
2.2148	22.3935
2.2091	21.2019
2.2035	20.8097
2.1979	21.0745
2.1923	21.6889
2.1868	22.1584
2.1812	22.986
2.1758	22.8673
2.1703	23.2292
2.1649	23.7176
2.1595	24.0834
2.1541	25.2527
2.1487	25.9408
2.1434	26.2275
2.1381	25.9501
2.1328	24.9137
2.1275	23.6237
2.1223	21.7511
2.1171	19.7723
2.112	18.6089
2.1068	17.87
2.1017	17.9685
2.0966	20.5046
2.0915	24.3234
2.0865	27.193
2.0814	29.6579
2.0764	30.1548
2.0715	31.0243
2.0665	30.4121
2.0616	31.1438
2.0567	31.572
2.0518	31.6196
2.0469	31.1364
2.0421	31.2002
2.0373	31.1917
2.0325	30.7567
2.0277	30.5804
2.0229	30.4407
2.0182	30.6273
2.0135	30.3318
2.0088	29.7916
2.0042	29.4344
