Name: Malachite Cu_2(CO_3)(OH)_2
Type: Mineral
Class: Carbonate
Subclass: None
Particle Size: Fine
Sample No.: C-7A
Owner: JPL
Wavelength Range: VSWIR
Origin: USA, California, San Bernadino County, Near Valley Wells.
Description: Particle size was 0-45um.Collected by:  Burminco Original ASTER Spectral Library name was jpl.perkin.mineral.carbonate.none.fine.c07a.spectrum.txt
Measurement: Hemispherical reflectance
X Units: Wavelength (micrometers)
Y Units: Reflectance (percent)
wavelength	value
2.5	41.5109
2.494	41.6632
2.488	41.9212
2.482	42.3297
2.476	42.624
2.47	42.8651
2.464	43.2412
2.458	43.3795
2.452	43.4349
2.446	43.6189
2.44	43.7969
2.434	44.0366
2.428	44.1
2.422	44.2209
2.416	44.4556
2.41	44.6472
2.404	44.9189
2.398	45.2924
2.392	45.6495
2.386	46.19
2.38	46.6625
2.374	47.1608
2.368	47.4622
2.362	47.7146
2.356	48.1029
2.35	48.6991
2.344	49.785
2.338	50.9255
2.332	51.9044
2.326	52.6665
2.32	53.0118
2.314	53.1324
2.308	52.9189
2.302	52.3728
2.296	51.6238
2.29	50.7907
2.284	49.8361
2.278	48.9262
2.272	48.3382
2.266	48.2926
2.26	49.0049
2.254	50.1779
2.248	51.5179
2.242	52.8158
2.236	53.891
2.23	54.7317
2.224	55.3067
2.218	55.6514
2.212	56.28
2.206	57.2184
2.2	58.5561
2.194	59.5574
2.188	60.4721
2.182	61.125
2.176	61.7547
2.17	62.2182
2.164	62.5388
2.158	62.8633
2.152	63.1784
2.146	63.3065
2.14	63.3811
2.134	63.1922
2.128	62.8901
2.122	62.4454
2.116	61.9515
2.11	61.4767
2.104	61.0883
2.098	60.722
2.092	60.5202
2.086	60.272
2.08	59.964
2.074	59.6217
2.068	59.2889
2.062	58.9115
2.056	58.5007
2.05	58.0665
2.044	57.5697
2.038	57.0073
2.032	56.3586
2.026	55.7893
2.02	55.1883
2.014	54.5481
2.008	53.9028
2.002	53.1962
1.996	52.4863
1.99	51.7009
1.984	50.8328
1.978	50.0056
1.972	49.2333
1.966	48.568
1.96	47.8317
1.954	47.0691
1.948	46.5049
1.942	45.8643
1.936	45.406
1.93	44.8456
1.924	44.3708
1.918	44.0651
1.912	43.9792
1.906	44.8831
1.9	47.2936
1.894	50.7629
1.888	54.4167
1.882	57.3883
1.876	59.761
1.87	61.7434
1.864	62.8507
1.858	63.3527
1.852	63.5271
1.846	63.5793
1.84	63.5805
1.834	63.5813
1.828	63.5277
1.822	63.336
1.816	63.1641
1.81	62.9641
1.804	62.708
1.798	62.465
1.792	62.2349
1.786	61.9399
1.78	61.7271
1.774	61.4661
1.768	61.2309
1.762	61.0044
1.756	60.8004
1.75	60.6055
1.744	60.3832
1.738	60.1392
1.732	59.8784
1.726	59.6027
1.72	59.2674
1.714	58.9492
1.708	58.5972
1.702	58.2874
1.696	57.9353
1.69	57.6281
1.684	57.1962
1.678	56.7568
1.672	56.4837
1.666	56.0684
1.66	55.69
1.654	55.2849
1.648	54.8561
1.642	54.5325
1.636	54.0145
1.63	53.7031
1.624	53.3155
1.618	52.7881
1.612	52.5047
1.606	52.0077
1.6	51.6634
1.594	51.1081
1.588	50.7756
1.582	50.4151
1.576	50.0033
1.57	49.5456
1.564	49.1682
1.558	48.7372
1.552	48.2393
1.546	47.8834
1.54	47.4372
1.534	46.9918
1.528	46.6597
1.522	46.3147
1.516	45.8489
1.51	45.3885
1.504	45.0279
1.498	44.6006
1.492	44.1543
1.486	43.74
1.48	43.2512
1.474	42.8369
1.468	42.3176
1.462	41.9518
1.456	41.7221
1.45	41.331
1.444	41.0517
1.438	40.6849
1.432	40.3397
1.426	39.8973
1.42	39.4062
1.414	38.9871
1.408	39.1412
1.402	39.5332
1.396	39.8754
1.39	39.9374
1.384	39.837
1.378	39.8377
1.372	39.6508
1.366	39.4708
1.36	39.0941
1.354	38.9083
1.348	38.6936
1.342	38.4486
1.336	38.2395
1.33	38.0646
1.324	37.743
1.318	37.6207
1.312	37.3902
1.306	37.181
1.3	36.9949
1.294	36.806
1.288	36.6189
1.282	36.4028
1.276	36.2888
1.27	36.1468
1.264	35.9518
1.258	35.7898
1.252	35.639
1.246	35.4433
1.24	35.3624
1.234	35.2025
1.228	35.115
1.222	35.0063
1.216	34.9226
1.21	34.7761
1.204	34.6981
1.198	34.649
1.192	34.539
1.186	34.5148
1.18	34.4422
1.174	34.3659
1.168	34.3456
1.162	34.2759
1.156	34.2293
1.15	34.2629
1.144	34.1595
1.138	34.1869
1.132	34.2299
1.126	34.1367
1.12	34.0887
1.114	34.0827
1.108	34.0787
1.102	33.9927
1.096	33.9498
1.09	33.8915
1.084	33.7496
1.078	33.5274
1.072	33.4437
1.066	33.193
1.06	33.0142
1.054	32.7859
1.048	32.4741
1.042	32.1308
1.036	31.7801
1.03	31.4611
1.024	30.9466
1.018	30.563
1.012	30.07
1.006	29.5976
1	29.0796
0.994	28.577
0.988	28.0011
0.982	27.4591
0.976	26.9464
0.97	26.3871
0.964	25.7954
0.958	25.1597
0.952	24.6928
0.946	24.1019
0.94	23.5981
0.934	23.0616
0.928	22.4749
0.922	21.9964
0.916	21.4852
0.91	21.0461
0.904	20.6457
0.898	20.1856
0.892	19.8605
0.886	19.5217
0.88	19.157
0.874	18.9234
0.868	18.6238
0.862	18.4822
0.856	18.4687
0.85	18.3206
0.844	18.18
0.838	18.0674
0.832	17.9729
0.826	17.8956
0.82	17.8274
0.814	17.7678
0.808	17.7151
0.802	17.6998
0.796	17.6612
0.79	17.6508
0.784	17.6648
0.778	17.6691
0.772	17.7093
0.766	17.7593
0.76	17.8212
0.754	17.9309
0.748	18.0567
0.742	18.2211
0.736	18.4088
0.73	18.6207
0.724	18.8374
0.718	19.1295
0.712	19.4564
0.706	19.8201
0.7	20.2356
0.694	20.698
0.688	21.21
0.682	21.767
0.676	22.4107
0.67	23.1126
0.664	23.9041
0.658	24.7986
0.652	25.7871
0.646	26.9144
0.64	28.1698
0.634	29.5617
0.628	31.1186
0.622	32.7871
0.616	34.662
0.61	36.6687
0.604	38.8699
0.598	41.2634
0.592	43.7927
0.586	46.3924
0.58	49.0644
0.574	51.7503
0.568	54.3927
0.562	56.912
0.556	59.2135
0.55	61.2126
0.544	62.8618
0.538	64.1179
0.532	64.9646
0.526	65.4213
0.52	65.4905
0.514	65.235
0.508	64.6873
0.502	63.792
0.496	62.6815
0.49	61.2497
0.484	59.5239
0.478	57.829
0.472	55.9244
0.466	53.9115
0.46	51.8508
0.454	49.8403
0.448	47.8986
0.442	46.0573
0.436	44.2998
0.43	42.4692
0.424	40.4162
0.418	38.0196
0.412	35.1543
0.406	31.85
0.4	28.1822
