Name: Andalusite Al2SiO5
Type: Mineral
Class: Silicate
Subclass: Nesosilicate
Particle Size: solid
Sample No.: andalusite_1
Owner: JHU
Wavelength Range: TIR
Origin: Sample from St. Theresa, Espirito Santo, Brazil via Smithsonian(sample no. NMNH R17898).
Description: Sample was composed of two crystals, one clear and one pale pink. Both appeared pure, both 1 cm x 1 cm x 5 cm. Examination under a petrographic microscope indicated pure and clean samples. Sample grains chosen for microprobe analysis were clear, but with poor polish in part.(Isolated tetrahedra) (Al2SiO5 Group) Original ASTER Spectral Library name was jhu.nicolet.mineral.silicate.nesosilicate.solid.andalu1.spectrum.txt
Measurement: Bidirectional Reflectance
X Units: Wavelength (micrometers)
Y Units: Reflectance (percent)
wavelength	value
25.0442	27.539
24.3388	30.8632
23.6719	35.6757
23.0407	40.2352
22.4422	41.6757
21.8741	62.4998
21.334	40.5995
20.8199	24.5976
20.33	30.1484
19.8627	36.5551
19.4163	28.2284
18.9896	27.9457
18.5812	36.4425
18.19	39.3566
17.815	38.1376
17.4551	36.9359
17.1094	37.1281
16.7772	42.2811
16.4576	46.2147
16.15	49.6239
15.8537	52.4623
15.568	54.1114
15.2925	55.6756
15.0265	55.7523
14.7697	58.7218
14.5214	65.8546
14.2814	67.2813
14.0492	59.2943
13.8244	53.7254
13.6067	50.8441
13.3957	47.1957
13.1912	40.7489
12.9929	35.1361
12.8004	21.7934
12.6135	17.0246
12.432	16.4104
12.2557	19.3596
12.0843	21.5754
11.9176	23.5053
11.7555	25.3769
11.5977	27.3793
11.444	29.2272
11.2944	32.4035
11.1487	37.1107
11.0067	40.568
10.8682	38.6601
10.7332	51.9393
10.6015	66.8031
10.473	69.3951
10.3476	56.9854
10.2251	70.515
10.1056	72.0289
9.9887	71.6756
9.8746	72.1334
9.763	70.6336
9.6539	67.0208
9.5472	61.4007
9.4429	56.5399
9.3408	59.9198
9.2409	58.8148
9.1431	52.6024
9.0474	43.7719
8.9536	34.7157
8.8618	29.4684
8.7718	27.1589
8.6837	23.3701
8.5973	17.5127
8.5126	11.4536
8.4295	7.5095
8.3481	7.6294
8.2682	8.9214
8.1898	10.0307
8.1129	10.9072
8.0374	11.7077
7.9634	12.3725
7.8906	12.9206
7.8192	13.3784
7.7491	13.7563
7.6802	14.1496
7.6126	14.4807
7.5461	14.7893
7.4807	15.008
7.4165	15.2783
7.3534	15.499
7.2914	15.7295
7.2303	15.9607
7.1703	16.0888
7.1113	16.3154
7.0533	16.416
6.9962	16.635
6.94	16.8469
6.8847	16.9892
6.8302	17.0454
6.7767	17.1752
6.7239	17.3002
6.672	17.465
6.6209	17.6079
6.5705	17.5141
6.5209	17.7919
6.4721	17.9563
6.424	18.0034
6.3766	18.0791
6.3299	18.2084
6.2838	18.2966
6.2385	18.3867
6.1937	18.413
6.1496	18.4611
6.1062	18.5493
6.0633	18.6286
6.0211	18.6369
5.9794	18.6528
5.9383	18.435
5.8978	18.5546
5.8578	18.6323
5.8184	18.5754
5.7794	18.6606
5.741	18.6945
5.7031	18.75
5.6657	18.7836
5.6288	18.8667
5.5924	18.9445
5.5564	18.9221
5.5209	19.0063
5.4859	19.0302
5.4513	19.0954
5.4171	19.1137
5.3833	19.1247
5.35	19.1176
5.3171	19.1914
5.2846	19.2404
5.2524	19.2678
5.2207	19.2868
5.1893	19.3273
5.1584	19.3408
5.1277	19.3518
5.0975	19.3586
5.0676	19.3408
5.038	19.3237
5.0088	19.3352
4.98	19.3222
4.9514	19.3281
4.9232	19.2656
4.8953	19.268
4.8678	19.2768
4.8405	19.2844
4.8135	19.2883
4.7868	19.2976
4.7605	19.3239
4.7344	19.3598
4.7086	19.3784
4.6831	19.4033
4.6578	19.4042
4.6328	19.4443
4.6081	19.4731
4.5837	19.5051
4.5595	19.54
4.5356	19.5375
4.5119	19.5576
4.4884	19.5644
4.4652	19.5698
4.4423	19.5761
4.4196	19.5539
4.3971	19.5119
4.3748	19.5185
4.3528	19.2905
4.331	18.8872
4.3094	18.3205
4.288	17.665
4.2668	17.5473
4.2458	17.2597
4.2251	17.2504
4.2045	18.757
4.1841	19.5185
4.164	19.5322
4.144	19.5644
4.1242	19.5654
4.1046	19.5808
4.0852	19.5502
4.066	19.591
4.047	19.5935
4.0281	19.5947
4.0094	19.5942
3.9909	19.5959
3.9725	19.6381
3.9544	19.6206
3.9363	19.6774
3.9185	19.6508
3.9008	19.6425
3.8833	19.6528
3.8659	19.6372
3.8487	19.6459
3.8316	19.6215
3.8147	19.6249
3.7979	19.6352
3.7813	19.6176
3.7648	19.6088
3.7485	19.6196
3.7323	19.56
3.7162	19.5693
3.7003	19.583
3.6845	19.5595
3.6689	19.5605
3.6534	19.541
3.638	19.5439
3.6227	19.5244
3.6076	19.539
3.5926	19.5205
3.5777	19.5249
3.563	19.5239
3.5484	19.5244
3.5338	19.5478
3.5195	19.5581
3.5052	19.5822
3.491	19.5302
3.477	19.5422
3.463	19.5485
3.4492	19.5483
3.4355	19.5744
3.4219	19.6147
3.4084	19.517
3.395	19.4956
3.3817	19.4626
3.3685	19.4433
3.3554	19.4101
3.3425	19.3859
3.3296	19.3874
3.3168	19.35
3.3041	19.3249
3.2915	19.342
3.279	19.3071
3.2666	19.3095
3.2543	19.2875
3.2421	19.2768
3.23	19.2661
3.218	19.2607
3.206	19.225
3.1942	19.2526
3.1824	19.2023
3.1707	19.1958
3.1591	19.2192
3.1476	19.1875
3.1362	19.2128
3.1249	19.2014
3.1136	19.1767
3.1024	19.185
3.0913	19.1518
3.0803	19.1699
3.0694	19.174
3.0585	19.1406
3.0477	19.1411
3.037	19.1186
3.0264	19.1
3.0158	19.0712
3.0053	19.1054
2.9949	19.0581
2.9845	19.0246
2.9743	19.0424
2.9641	18.9609
2.9539	18.9726
2.9439	18.9106
2.9339	18.8994
2.9239	18.8779
2.9141	18.8369
2.9043	18.8498
2.8946	18.8156
2.8849	18.8107
2.8753	18.7563
2.8658	18.7561
2.8563	18.7343
2.8469	18.6923
2.8375	18.6953
2.8282	18.6669
2.819	18.6313
2.8098	18.6269
2.8007	18.6289
2.7917	18.5966
2.7827	18.54
2.7738	18.559
2.7649	18.6435
2.7561	18.4765
2.7473	18.4765
2.7386	18.5429
2.7299	18.4257
2.7213	18.5234
2.7128	18.52
2.7043	18.3872
2.6959	18.33
2.6875	18.2231
2.6791	18.246
2.6709	18.3134
2.6626	18.3012
2.6545	18.3427
2.6463	18.3227
2.6382	18.3481
2.6302	18.3955
2.6222	18.3403
2.6143	18.354
2.6064	18.3994
2.5986	18.2739
2.5908	18.3129
2.583	18.4111
2.5753	18.2324
2.5677	18.2285
2.5601	18.2187
2.5525	18.3066
2.545	18.2504
2.5375	18.2978
2.5301	18.2348
2.5227	18.2412
2.5154	18.2334
2.5081	18.2587
2.5008	18.229
2.4936	18.2758
2.4864	18.2675
2.4793	18.2939
2.4722	18.2275
2.4651	18.2617
2.4581	18.2187
2.4511	18.2251
2.4442	18.1923
2.4373	18.2695
2.4305	18.2441
2.4236	18.2636
2.4169	18.2675
2.4101	18.2402
2.4034	18.1723
2.3967	18.2675
2.3901	18.2524
2.3835	18.1718
2.377	18.2851
2.3704	18.2441
2.364	18.2753
2.3575	18.2773
2.3511	18.248
2.3447	18.2578
2.3384	18.3105
2.3321	18.2539
2.3258	18.2793
2.3195	18.3203
2.3133	18.2265
2.3071	18.2382
2.301	18.3173
2.2949	18.333
2.2888	18.3515
2.2828	18.2421
2.2767	18.3369
2.2708	18.3125
2.2648	18.3046
2.2589	18.3173
2.253	18.3085
2.2471	18.248
2.2413	18.3593
2.2355	18.372
2.2297	18.3173
2.224	18.3798
2.2183	18.2119
2.2126	18.3798
2.207	18.3574
2.2013	18.3593
2.1957	18.2734
2.1902	18.3837
2.1846	18.4042
2.1791	18.3945
2.1736	18.2861
2.1682	18.3339
2.1628	18.3027
2.1574	18.3046
2.152	18.3945
2.1466	18.2773
2.1413	18.2705
2.136	18.3134
2.1308	18.3125
2.1255	18.375
2.1203	18.3691
2.1151	18.2695
2.11	18.4277
2.1048	18.2597
2.0997	18.4306
2.0946	18.3164
2.0895	18.289
2.0845	18.3144
2.0795	18.2871
