Name: Vesuvianite Ca10Mg2Al4(SiO4)5(Si2O7)2(OH)4
Type: Mineral
Class: Silicate
Subclass: Sorosilicate
Particle Size: Fine
Sample No.: vesuvian_1
Owner: JHU
Wavelength Range: TIR
Origin: Quebec, Canada via Norma Vergo
Description: The sample was a massive piece of striated, green, columnar aggregate. It appeared to be pure vesuvianite in hand sample and under the microscope.Particle size was less than 2 Micrometers. Original ASTER Spectral Library name was jhu.nicolet.mineral.silicate.sorosilicate.powder.vesuvi1.spectrum.txt
Measurement: Transmission
X Units: Wavelength (micrometers)
Y Units: Transmittance (percent)
wavelength	value
25.0442	60.7889
24.3388	51.1483
23.6719	51.9178
23.0407	41.83
22.4422	39.6718
21.8741	47.4374
21.334	44.7304
20.8199	39.6679
20.33	35.6562
19.8627	41.3642
19.4163	49.618
18.9896	53.992
18.5812	57.8719
18.19	62.8651
17.815	65.5448
17.4551	57.9706
17.1094	60.9002
16.7772	62.2215
16.4576	59.1688
16.15	63.1483
15.8537	64.9178
15.568	68.4422
15.2925	74.6912
15.0265	78.0418
14.7697	83.1521
14.5214	85.5506
14.2814	86.5882
14.0492	85.8968
13.8244	87.5315
13.6067	87.5818
13.3957	86.6448
13.1912	85.2205
12.9929	82.366
12.8004	75.1468
12.6135	65.867
12.432	61.6522
12.2557	61.4652
12.0843	58.432
11.9176	51.8675
11.7555	45.6376
11.5977	42.3871
11.444	41.2328
11.2944	36.6933
11.1487	34.4496
11.0067	34.2343
10.8682	31.1664
10.7332	35.6806
10.6015	36.7045
10.473	35.5468
10.3476	33.4169
10.2251	33.6991
10.1056	40.0653
9.9887	41.4765
9.8746	31.9926
9.763	30.9638
9.6539	40.9828
9.5472	57.9647
9.4429	68.6258
9.3408	73.6487
9.2409	76.2723
9.1431	78.4441
9.0474	81.325
8.9536	84.0276
8.8618	86.3972
8.7718	88.1502
8.6837	89.7639
8.5973	91.2459
8.5126	92.7246
8.4295	94.199
8.3481	95.4744
8.2682	96.5769
8.1898	97.418
8.1129	98.0176
8.0374	98.4148
7.9634	98.8118
7.8906	99.1433
7.8192	99.4961
7.7491	99.7497
7.6802	99.9621
7.6126	100.109
7.5461	100.324
7.4807	100.434
7.4165	100.501
7.3534	100.414
7.2914	100.33
7.2303	100.282
7.1703	100.065
7.1113	100.1
7.0533	99.9343
6.9962	99.8962
6.94	100.04
6.8847	100.234
6.8302	100.472
6.7767	100.646
6.7239	100.793
6.672	101.011
6.6209	101.155
6.5705	101.076
6.5209	101.241
6.4721	101.126
6.424	100.885
6.3766	100.854
6.3299	100.648
6.2838	100.484
6.2385	100.397
6.1937	100.277
6.1496	100.695
6.1062	100.549
6.0633	100.985
6.0211	101.824
5.9794	101.949
5.9383	101.879
5.8978	102.122
5.8578	102.426
5.8184	102.294
5.7794	102.389
5.741	102.166
5.7031	101.938
5.6657	101.755
5.6288	101.545
5.5924	101.362
5.5564	101.23
5.5209	101.327
5.4859	101.507
5.4513	101.636
5.4171	101.594
5.3833	101.648
5.35	101.58
5.3171	101.613
5.2846	101.627
5.2524	101.687
5.2207	101.716
5.1893	101.775
5.1584	101.77
5.1277	101.771
5.0975	101.747
5.0676	101.744
5.038	101.729
5.0088	101.718
4.98	101.711
4.9514	101.7
4.9232	101.675
4.8953	101.652
4.8678	101.615
4.8405	101.595
4.8135	101.585
4.7868	101.564
4.7605	101.56
4.7344	101.516
4.7086	101.479
4.6831	101.375
4.6578	101.34
4.6328	101.343
4.6081	101.331
4.5837	101.313
4.5595	101.282
4.5356	101.199
4.5119	101.168
4.4884	101.106
4.4652	101.05
4.4423	101.035
4.4196	100.973
4.3971	100.933
4.3748	100.872
4.3528	100.828
4.331	100.795
4.3094	100.757
4.288	100.745
4.2668	100.692
4.2458	100.667
4.2251	100.614
4.2045	100.51
4.1841	100.465
4.164	100.412
4.144	100.357
4.1242	100.32
4.1046	100.276
4.0852	100.222
4.066	100.164
4.047	100.134
4.0281	100.057
4.0094	99.9968
3.9909	99.9553
3.9725	99.9075
3.9544	99.822
3.9363	99.759
3.9185	99.697
3.9008	99.613
3.8833	99.5569
3.8659	99.4104
3.8487	99.3772
3.8316	99.3186
3.8147	99.2405
3.7979	99.1355
3.7813	99.073
3.7648	99.0046
3.7485	98.9045
3.7323	98.8088
3.7162	98.7205
3.7003	98.6765
3.6845	98.5515
3.6689	98.4397
3.6534	98.3757
3.638	98.2927
3.6227	98.1892
3.6076	98.0666
3.5926	97.9499
3.5777	97.8303
3.563	97.7322
3.5484	97.6072
3.5338	97.5095
3.5195	97.3874
3.5052	97.1775
3.491	97.0549
3.477	96.9314
3.463	96.801
3.4492	96.6746
3.4355	96.5408
3.4219	96.3479
3.4084	96.199
3.395	96.1355
3.3817	96.0203
3.3685	95.8484
3.3554	95.6882
3.3425	95.5256
3.3296	95.3025
3.3168	95.0349
3.3041	94.7307
3.2915	94.4885
3.279	94.1824
3.2666	93.9026
3.2543	93.5647
3.2421	93.1721
3.23	92.5916
3.218	91.7712
3.206	90.9002
3.1942	90.1194
3.1824	89.7542
3.1707	89.7986
3.1591	90.1057
3.1476	90.5798
3.1362	91.053
3.1249	91.301
3.1136	91.4158
3.1024	91.3787
3.0913	91.3474
3.0803	91.3455
3.0694	91.4714
3.0585	91.6033
3.0477	91.6697
3.037	91.6882
3.0264	91.5066
3.0158	91.2713
3.0053	90.9744
2.9949	90.6062
2.9845	90.2224
2.9743	89.6814
2.9641	89.0965
2.9539	88.6658
2.9439	88.3797
2.9339	88.2791
2.9239	88.2156
2.9141	88.2156
2.9043	88.2107
2.8946	88.3064
2.8849	88.4656
2.8753	88.6013
2.8658	88.739
2.8563	88.8054
2.8469	88.8328
2.8375	89.0076
2.8282	89.615
2.819	90.2439
2.8098	90.742
2.8007	91.3474
2.7917	92.2507
2.7827	92.6257
2.7738	92.4275
2.7649	90.8435
2.7561	88.2947
2.7473	89.0711
2.7386	93.0349
2.7299	95.1648
2.7213	93.74
2.7128	96.5945
2.7043	97.0603
2.6959	96.8083
2.6875	96.7068
2.6791	96.4421
2.6709	96.1755
2.6626	96.238
2.6545	96.0867
2.6463	95.9773
2.6382	95.9138
2.6302	95.575
2.6222	95.5945
2.6143	95.4617
2.6064	95.282
2.5986	95.3445
2.5908	95.1912
2.583	94.906
2.5753	94.9451
2.5677	94.9031
2.5601	94.7459
2.5525	94.7937
2.545	94.6052
2.5375	94.5779
2.5301	94.449
2.5227	94.4294
2.5154	94.3025
2.5081	94.2341
2.5008	94.074
2.4936	93.9822
2.4864	93.9431
2.4793	93.8513
2.4722	93.8259
2.4651	93.74
2.4581	93.5857
2.4511	93.5896
2.4442	93.4627
2.4373	93.4959
2.4305	93.4275
2.4236	93.2908
2.4169	93.2419
2.4101	93.0935
2.4034	92.9802
2.3967	92.9841
2.3901	93.0037
2.3835	92.9861
2.377	92.8982
2.3704	92.906
2.364	92.8748
2.3575	92.7986
2.3511	92.7107
2.3447	92.6638
2.3384	92.6834
2.3321	92.6287
2.3258	92.6013
2.3195	92.4841
2.3133	92.4548
2.3071	92.4529
2.301	92.533
2.2949	92.5779
2.2888	92.5037
2.2828	92.488
2.2767	92.4939
2.2708	92.2986
2.2648	92.3455
2.2589	92.2107
2.253	92.322
2.2471	92.3298
2.2413	92.2068
2.2355	92.2263
2.2297	92.408
2.224	92.5252
2.2183	92.4236
2.2126	92.2966
2.207	92.3064
2.2013	92.281
2.1957	92.283
2.1902	92.2576
2.1846	92.2517
2.1791	92.1716
2.1736	92.2517
2.1682	92.3064
2.1628	92.3904
2.1574	92.242
2.152	92.0349
2.1466	92.1755
2.1413	92.2459
2.136	92.281
2.1308	92.2732
2.1255	92.0545
2.1203	92.1834
2.1151	92.3982
2.11	92.2302
2.1048	92.1521
2.0997	92.0701
2.0946	92.242
2.0895	92.1716
2.0845	92.0154
2.0795	92.1677
