Name: Scheelite CaWO_4
Type: Mineral
Class: Tungstate
Subclass: None
Particle Size: Medium
Sample No.: T-1A
Owner: JPL
Wavelength Range: VSWIR
Origin: USA, California, Kern County, Atolia
Description: Particle size was 45-125um.Collected by Burminco Original ASTER Spectral Library name was jpl.beckman.mineral.tungstate.none.medium.t01a.spectrum.txt
Measurement: Hemispherical reflectance
X Units: Wavelength (micrometers)
Y Units: Reflectance (percent)
wavelength	value
0.4	36.4
0.403	36.92
0.406	37.25
0.409	37.61
0.412	37.8
0.415	38.07
0.418	38.34
0.421	38.77
0.424	39.21
0.427	39.34
0.43	39.82
0.433	40.15
0.436	40.63
0.439	41.07
0.442	41.28
0.445	41.68
0.448	41.95
0.451	42.18
0.454	42.59
0.457	42.68
0.46	42.94
0.463	43.16
0.466	43.31
0.469	43.5
0.472	43.8
0.475	43.96
0.478	44.17
0.481	44.4
0.484	44.59
0.487	44.84
0.49	45.12
0.493	45.54
0.496	45.81
0.499	46.02
0.502	46.49
0.505	46.9
0.508	47.27
0.511	47.65
0.514	48.03
0.517	48.41
0.52	49.04
0.523	49.45
0.526	49.88
0.529	50.34
0.532	50.7
0.535	51.24
0.538	51.82
0.541	52.19
0.544	52.55
0.547	53.11
0.55	53.55
0.553	54.08
0.556	54.47
0.559	54.72
0.562	55.62
0.565	55.84
0.568	56.25
0.571	56.37
0.574	56.69
0.577	56.87
0.58	57.1
0.583	57.3
0.586	57.56
0.589	57.81
0.592	57.97
0.595	58.14
0.598	58.29
0.601	58.56
0.604	58.64
0.607	58.78
0.61	58.84
0.613	59
0.616	59.11
0.619	59.21
0.622	59.33
0.625	59.28
0.628	59.42
0.631	59.51
0.634	59.73
0.637	59.62
0.64	60.1
0.643	60.04
0.646	60.25
0.649	60.32
0.652	60.57
0.655	60.57
0.658	60.67
0.661	60.72
0.664	60.97
0.667	61.05
0.67	61.21
0.673	61.27
0.676	61.4
0.679	61.48
0.682	61.67
0.685	61.79
0.688	61.86
0.691	62.12
0.694	62.26
0.697	62.16
0.7	62.29
0.703	62.43
0.706	62.65
0.709	62.78
0.712	63.03
0.715	63.09
0.718	63.23
0.721	63.18
0.724	63.4
0.727	63.57
0.73	63.67
0.733	63.69
0.736	63.63
0.739	63.77
0.742	63.76
0.745	63.89
0.748	63.87
0.751	63.91
0.754	63.95
0.757	63.93
0.76	64.12
0.763	64.06
0.766	64.01
0.769	64
0.772	63.96
0.775	63.93
0.778	64.06
0.781	63.96
0.784	64.04
0.787	63.94
0.79	63.98
0.793	63.91
0.796	64.02
0.799	63.86
0.808	64.12
0.82	63.84
0.832	63.66
0.844	63.54
0.856	63.38
0.868	63.3
0.88	63.16
0.892	63.04
0.904	62.9
0.916	62.8
0.928	62.8
0.94	62.78
0.952	62.8
0.964	62.8
0.976	62.82
0.988	62.94
1	62.98
1.012	63.18
1.024	63.38
1.036	63.63
1.048	63.92
1.06	64.25
1.072	64.66
1.084	65.14
1.096	65.66
1.108	66.23
1.12	66.68
1.132	67.26
1.144	67.63
1.156	68.09
1.168	68.47
1.18	68.74
1.192	69.16
1.204	69.57
1.216	69.8
1.228	70.1
1.24	70.4
1.252	70.71
1.264	70.98
1.276	71.27
1.288	71.61
1.3	71.72
1.312	72.09
1.324	72.39
1.336	72.69
1.348	72.94
1.36	73.22
1.372	73.4
1.384	73.2
1.396	72.42
1.408	71.76
1.42	72.5
1.432	73.21
1.444	73.65
1.456	74.03
1.468	74.23
1.48	74.59
1.492	75.05
1.504	75.22
1.516	75.49
1.528	75.7
1.54	75.91
1.552	76.03
1.564	76.16
1.576	76.3
1.588	76.42
1.6	76.56
1.612	76.66
1.624	76.69
1.636	76.73
1.648	76.89
1.66	76.94
1.672	76.96
1.684	77.03
1.696	76.99
1.708	77.09
1.72	77.05
1.732	77.09
1.744	76.94
1.756	76.91
1.768	76.92
1.78	77.01
1.792	77.11
1.804	77.2
1.816	77.14
1.828	77.13
1.84	77.09
1.852	77.02
1.864	76.69
1.876	75.71
1.888	73.81
1.9	71.37
1.912	70.33
1.924	70.64
1.936	71.16
1.948	71.71
1.96	72.23
1.972	72.85
1.984	73.55
1.996	74.13
2.008	74.58
2.02	75.14
2.032	75.42
2.044	75.69
2.056	75.88
2.068	75.99
2.08	76.12
2.092	76.1
2.104	76.2
2.116	76.45
2.128	76.57
2.14	76.6
2.152	76.32
2.164	75.83
2.176	75.19
2.188	74.35
2.2	73.95
2.212	74.17
2.224	74.83
2.236	75.03
2.248	75.03
2.26	75.04
2.272	75
2.284	74.67
2.296	74.29
2.308	73.82
2.32	73.56
2.332	73.16
2.344	72.99
2.356	73.05
2.368	72.96
2.38	72.76
2.392	72.48
2.404	72.29
2.416	71.95
2.428	71.35
2.44	70.86
2.452	70.42
2.464	70.04
2.476	69.8
2.488	69.81
2.5	69.93
