Name: Quartz SiO2
Type: Mineral
Class: Silicate
Subclass: Tectosilicate
Particle Size: Coarse
Sample No.: quartz_1
Owner: JHU
Wavelength Range: TIR
Origin: Brazil, via Bruce Hemingway, USGS
Description: The hand sample appeared entirely pure, being a clear and transparent fragment of a single crystal.  This purity was confirmed under the microscope and by XRD analysis, as well as within the limits of microprobe error. Particle size was 75 - 250  Micrometers.(Silica Group) Original ASTER Spectral Library name was jhu.nicolet.mineral.silicate.tectosilicate.coarse.quartz1.spectrum.txt
Measurement: Bidirectional reflectance
X Units: Wavelength (micrometers)
Y Units: Reflectance (percent)
wavelength	value
25.0442	3.6894
24.3388	1.3223
23.6719	1.9429
23.0407	2.479
22.4422	3.8257
21.8741	6.3481
21.334	7.9404
20.8199	9.2429
20.33	10.0737
19.8627	9.5888
19.4163	4.1821
18.9896	2.1636
18.5812	3.0762
18.19	3.6575
17.815	1.6792
17.4551	0.7378
17.1094	0.9392
16.7772	1.0449
16.4576	1.1228
16.15	1.126
15.8537	1.2373
15.568	1.2068
15.2925	1.2268
15.0265	1.2134
14.7697	1.2612
14.5214	1.3621
14.2814	1.0039
14.0492	1.1836
13.8244	1.3169
13.6067	1.3997
13.3957	1.4893
13.1912	1.6357
12.9929	2.0142
12.8004	3.2248
12.6135	2.3877
12.432	2.9026
12.2557	0.55
12.0843	0.8164
11.9176	1.0063
11.7555	1.1599
11.5977	1.2712
11.444	1.3528
11.2944	1.4294
11.1487	1.4707
11.0067	1.5535
10.8682	1.6279
10.7332	1.6929
10.6015	1.7683
10.473	1.8564
10.3476	1.9575
10.2251	2.0801
10.1056	2.2319
9.9887	2.4048
9.8746	2.6484
9.763	2.9685
9.6539	3.449
9.5472	4.1477
9.4429	5.6543
9.3408	9.2177
9.2409	10.822
9.1431	11.2741
9.0474	11.5449
8.9536	11.7146
8.8618	11.5634
8.7718	10.9934
8.6837	9.9043
8.5973	8.3723
8.5126	10.8476
8.4295	10.792
8.3481	10.4919
8.2682	10.3379
8.1898	9.9883
8.1129	8.6921
8.0374	7.4109
7.9634	6.459
7.8906	5.2358
7.8192	4.3061
7.7491	3.8125
7.6802	3.104
7.6126	2.1182
7.5461	1.2139
7.4807	0.3926
7.4165	0.0513
7.3534	0.0122
7.2914	0.0518
7.2303	0.1074
7.1703	0.1641
7.1113	0.2263
7.0533	0.2698
6.9962	0.3318
6.94	0.3823
6.8847	0.4255
6.8302	0.4182
6.7767	0.4009
6.7239	0.3958
6.672	0.4263
6.6209	0.437
6.5705	0.4324
6.5209	0.4666
6.4721	0.6265
6.424	0.7102
6.3766	0.6304
6.3299	0.5627
6.2838	0.5088
6.2385	0.4949
6.1937	0.4902
6.1496	0.5347
6.1062	0.6255
6.0633	0.6963
6.0211	0.6934
5.9794	0.6279
5.9383	0.5916
5.8978	0.6467
5.8578	0.7693
5.8184	0.9065
5.7794	1.0696
5.741	1.2082
5.7031	1.2539
5.6657	0.9998
5.6288	0.7341
5.5924	0.6863
5.5564	0.6975
5.5209	0.7473
5.4859	0.8545
5.4513	0.9302
5.4171	0.7935
5.3833	0.6797
5.35	0.6519
5.3171	0.6504
5.2846	0.6616
5.2524	0.7004
5.2207	0.8386
5.1893	0.9336
5.1584	0.9021
5.1277	0.8787
5.0975	0.864
5.0676	0.8079
5.038	0.8003
5.0088	0.8013
4.98	0.8354
4.9514	1.0303
4.9232	1.2383
4.8953	1.9568
4.8678	2.9451
4.8405	3.6206
4.8135	4.0813
4.7868	4.4507
4.7605	4.7217
4.7344	4.8862
4.7086	4.7807
4.6831	4.2585
4.6578	4.7432
4.6328	5.2922
4.6081	5.6138
4.5837	5.7324
4.5595	5.6362
4.5356	5.1728
4.5119	4.4167
4.4884	3.8296
4.4652	3.6665
4.4423	3.9722
4.4196	4.2187
4.3971	4.5852
4.3748	5.0493
4.3528	5.4712
4.331	5.6914
4.3094	5.6821
4.288	5.6157
4.2668	5.7729
4.2458	5.8506
4.2251	5.8262
4.2045	5.8342
4.1841	5.8931
4.164	6.0246
4.144	6.1299
4.1242	6.26
4.1046	6.4172
4.0852	6.5649
4.066	6.6682
4.047	6.6951
4.0281	6.6562
4.0094	6.6448
3.9909	6.6714
3.9725	6.7453
3.9544	6.855
3.9363	6.9531
3.9185	6.9919
3.9008	6.9665
3.8833	6.8891
3.8659	6.8169
3.8487	6.8071
3.8316	6.8337
3.8147	6.8789
3.7979	6.8909
3.7813	6.8716
3.7648	6.8088
3.7485	6.7532
3.7323	6.7568
3.7162	6.8347
3.7003	6.9612
3.6845	7.0881
3.6689	7.1977
3.6534	7.2744
3.638	7.3171
3.6227	7.3352
3.6076	7.344
3.5926	7.3713
3.5777	7.396
3.563	7.4333
3.5484	7.4807
3.5338	7.5322
3.5195	7.5757
3.5052	7.5947
3.491	7.6345
3.477	7.6648
3.463	7.6907
3.4492	7.6792
3.4355	7.6587
3.4219	7.644
3.4084	7.626
3.395	7.6382
3.3817	7.635
3.3685	7.6421
3.3554	7.6479
3.3425	7.6614
3.3296	7.6572
3.3168	7.6472
3.3041	7.6304
3.2915	7.612
3.279	7.6042
3.2666	7.5932
3.2543	7.5798
3.2421	7.5793
3.23	7.5613
3.218	7.5469
3.206	7.5376
3.1942	7.5156
3.1824	7.5115
3.1707	7.487
3.1591	7.4648
3.1476	7.4092
3.1362	7.3403
3.1249	7.3056
3.1136	7.3252
3.1024	7.3564
3.0913	7.3647
3.0803	7.3493
3.0694	7.3193
3.0585	7.2627
3.0477	7.1836
3.037	7.1125
3.0264	7.091
3.0158	7.0737
3.0053	7.0867
2.9949	7.1001
2.9845	7.1101
2.9743	7.0332
2.9641	6.8503
2.9539	6.8286
2.9439	6.9355
2.9339	6.9826
2.9239	6.9731
2.9141	6.9638
2.9043	6.989
2.8946	7.0329
2.8849	7.0449
2.8753	6.9472
2.8658	6.9555
2.8563	7.0559
2.8469	7.0722
2.8375	7.0849
2.8282	7.0683
2.819	7.0796
2.8098	7.0884
2.8007	7.0613
2.7917	7.071
2.7827	7.0442
2.7738	7.0549
2.7649	7.0425
2.7561	6.9971
2.7473	7.0495
2.7386	7
2.7299	7.0327
2.7213	7.0085
2.7128	7.061
2.7043	7.071
2.6959	7.0522
2.6875	7.0635
2.6791	7.03
2.6709	7.0134
2.6626	7.0571
2.6545	7.0466
2.6463	7.0334
2.6382	7.0212
2.6302	6.9551
2.6222	6.99
2.6143	6.9602
2.6064	6.9275
2.5986	6.9206
2.5908	6.9138
2.583	6.8694
2.5753	6.8672
2.5677	6.845
2.5601	6.8061
2.5525	6.8127
2.545	6.7912
2.5375	6.7868
2.5301	6.7615
2.5227	6.7522
2.5154	6.7334
2.5081	6.7331
2.5008	6.7021
2.4936	6.6689
2.4864	6.6738
2.4793	6.6477
2.4722	6.6597
2.4651	6.6296
2.4581	6.6191
2.4511	6.6037
2.4442	6.5886
2.4373	6.5889
2.4305	6.5683
2.4236	6.5488
2.4169	6.5627
2.4101	6.5542
2.4034	6.5244
2.3967	6.5498
2.3901	6.5137
2.3835	6.5425
2.377	6.5195
2.3704	6.4858
2.364	6.4829
2.3575	6.4768
2.3511	6.4805
2.3447	6.5005
2.3384	6.488
2.3321	6.4433
2.3258	6.4399
2.3195	6.4731
2.3133	6.4546
2.3071	6.4748
2.301	6.4914
2.2949	6.4844
2.2888	6.4878
2.2828	6.4971
2.2767	6.4958
2.2708	6.4956
2.2648	6.4692
2.2589	6.4761
2.253	6.4634
2.2471	6.5034
2.2413	6.4741
2.2355	6.4966
2.2297	6.478
2.224	6.4722
2.2183	6.4961
2.2126	6.5151
2.207	6.5117
2.2013	6.5161
2.1957	6.5364
2.1902	6.5408
2.1846	6.5493
2.1791	6.5774
2.1736	6.6074
2.1682	6.6108
2.1628	6.6142
2.1574	6.604
2.152	6.6096
2.1466	6.5979
2.1413	6.5871
2.136	6.6409
2.1308	6.6496
2.1255	6.6421
2.1203	6.6811
2.1151	6.6645
2.11	6.7016
2.1048	6.7029
2.0997	6.7309
2.0946	6.7434
2.0895	6.7563
2.0845	6.771
2.0795	6.7812
