Name: Clinochlore (Chlorite) (Mg,Al)_6(Si,Al)_4O_10(OH)_8
Type: Mineral
Class: Silicate
Subclass: Phyllosilicate
Particle Size: Medium
Sample No.: PS-12A
Owner: JPL
Wavelength Range: VSWIR
Origin: USA, California, El Dorado County, Flagstaff Hill
Description: Particle size was 45-125um.Collected by Clay Mineral Society Original ASTER Spectral Library name was jpl.beckman.mineral.silicate.phyllosilicate.medium.ps12a.spectrum.txt
Measurement: Hemispherical reflectance
X Units: Wavelength (micrometers)
Y Units: Reflectance (percent)
wavelength	value
0.4	8.26
0.403	8.21
0.406	8.24
0.409	8.49
0.412	8.49
0.415	8.61
0.418	8.73
0.421	8.85
0.424	9.18
0.427	9.15
0.43	9.36
0.433	9.4
0.436	9.68
0.439	9.78
0.442	9.92
0.445	10
0.448	9.94
0.451	10.02
0.454	10.1
0.457	10.1
0.46	10.29
0.463	10.47
0.466	10.59
0.469	10.7
0.472	11
0.475	11.06
0.478	11.49
0.481	11.52
0.484	11.69
0.487	12
0.49	11.92
0.493	11.81
0.496	11.99
0.499	12.24
0.502	12.31
0.505	12.54
0.508	12.54
0.511	12.68
0.514	12.75
0.517	12.75
0.52	12.86
0.523	12.71
0.526	12.74
0.529	12.76
0.532	12.76
0.535	12.82
0.538	12.66
0.541	12.73
0.544	12.73
0.547	12.81
0.55	12.85
0.553	12.7
0.556	12.7
0.559	12.62
0.562	12.59
0.565	12.43
0.568	12.52
0.571	12.3
0.574	12.18
0.577	12.01
0.58	11.99
0.583	11.91
0.586	11.79
0.589	11.62
0.592	11.53
0.595	11.37
0.598	11.24
0.601	11.29
0.604	11.01
0.607	10.97
0.61	10.87
0.613	10.75
0.616	10.69
0.619	10.42
0.622	10.35
0.625	10.27
0.628	10.15
0.631	10.03
0.634	9.87
0.637	9.78
0.64	9.71
0.643	9.68
0.646	9.52
0.649	9.42
0.652	9.35
0.655	9.39
0.658	9.21
0.661	9.14
0.664	8.97
0.667	8.97
0.67	8.88
0.673	8.85
0.676	8.74
0.679	8.68
0.682	8.65
0.685	8.73
0.688	8.5
0.691	8.51
0.694	8.47
0.697	8.41
0.7	8.4
0.703	8.5
0.706	8.32
0.709	8.43
0.712	8.36
0.715	8.38
0.718	8.39
0.721	8.33
0.724	8.32
0.727	8.32
0.73	8.38
0.733	8.41
0.736	8.42
0.739	8.49
0.742	8.44
0.745	8.54
0.748	8.59
0.751	8.61
0.754	8.71
0.757	8.66
0.76	8.73
0.763	8.82
0.766	8.94
0.769	8.93
0.772	9.03
0.775	9.11
0.778	9.16
0.781	9.15
0.784	9.26
0.787	9.21
0.79	9.42
0.793	9.38
0.796	9.44
0.799	9.48
0.808	9.73
0.82	9.63
0.832	9.52
0.844	9.51
0.856	9.25
0.868	9.15
0.88	9.04
0.892	8.93
0.904	9.03
0.916	9.11
0.928	9.31
0.94	9.4
0.952	9.61
0.964	9.77
0.976	9.95
0.988	10.09
1	10.23
1.012	10.34
1.024	10.39
1.036	10.49
1.048	10.54
1.06	10.49
1.072	10.57
1.084	10.62
1.096	10.73
1.108	10.76
1.12	10.83
1.132	11.05
1.144	11.28
1.156	11.55
1.168	11.73
1.18	12.03
1.192	12.23
1.204	12.59
1.216	12.98
1.228	13.48
1.24	13.82
1.252	14.31
1.264	14.68
1.276	15.24
1.288	15.84
1.3	16.25
1.312	16.74
1.324	17.24
1.336	17.79
1.348	18.42
1.36	18.89
1.372	19.36
1.384	19.62
1.396	19.19
1.408	19.77
1.42	20.98
1.432	21.61
1.444	22.04
1.456	22.57
1.468	23.21
1.48	23.81
1.492	24.35
1.504	24.89
1.516	25.3
1.528	25.71
1.54	26.31
1.552	26.85
1.564	27.37
1.576	27.91
1.588	28.65
1.6	29.34
1.612	30.02
1.624	30.63
1.636	31.3
1.648	31.86
1.66	32.52
1.672	33.2
1.684	33.87
1.696	34.42
1.708	34.97
1.72	35.54
1.732	36.17
1.744	36.69
1.756	37.25
1.768	37.68
1.78	38.15
1.792	38.75
1.804	39.18
1.816	39.62
1.828	39.88
1.84	40.19
1.852	40.49
1.864	40.64
1.876	40.74
1.888	41.04
1.9	41.63
1.912	42.04
1.924	42.41
1.936	42.49
1.948	42.45
1.96	42.59
1.972	42.59
1.984	42.41
1.996	42.57
2.008	43.16
2.02	44.33
2.032	45.44
2.044	46.41
2.056	47.22
2.068	47.93
2.08	48.43
2.092	48.76
2.104	48.9
2.116	49.09
2.128	49.23
2.14	49.43
2.152	49.42
2.164	49.31
2.176	49.07
2.188	48.56
2.2	47.89
2.212	46.81
2.224	44.34
2.236	40.05
2.248	36.49
2.26	36.33
2.272	37.35
2.284	37.11
2.296	35.8
2.308	34.23
2.32	33.14
2.332	31.93
2.344	31.56
2.356	32.94
2.368	35.51
2.38	37.79
2.392	39
2.404	39.73
2.416	40.2
2.428	40.17
2.44	39.83
2.452	38.96
2.464	37.83
2.476	36.82
2.488	36.3
2.5	36.04
