Name: Wollastonite CaSiO3
Type: Mineral
Class: Silicate
Subclass: Inosilicate
Particle Size: Solid
Sample No.: wollasto_1
Owner: JHU
Wavelength Range: TIR
Origin: Santa Fe Mine, Pichucalco, Chiapas, Mexico via theSmithsonian (sample no. NMNH 131913)
Description: The sample consisted of a 2 cm x 1 cm x 0.5 cm well-formed crystal  and one large 4 cm x 1 cm x 0.5 cm piece, both gray in color.  One surface of the large piece was dirty and had sulfide inclusions, which were separated by crushing and hand picking.  Under the microscope, some grains showed a little alteration and inclusions or voids along cleavage directions. Sample had cleavage face. (Chain Silicates); (Pyroxenoid Group) Original ASTER Spectral Library name was jhu.nicolet.mineral.silicate.inosilicate.solid.wollast1.spectrum.txt
Measurement: Bidirectional reflectance
X Units: Wavelength (micrometers)
Y Units: Reflectance (percent)
wavelength	value
25.0442	14.2246
24.3388	14.3164
23.6719	14.5009
23.0407	16.4502
22.4422	20.0117
21.8741	24.4824
21.334	23.7216
20.8199	30.7553
20.33	32.6733
19.8627	24.7333
19.4163	25.9133
18.9896	25.2646
18.5812	26.839
18.19	27.8979
17.815	29.1059
17.4551	24.8447
17.1094	15.6025
16.7772	11.2998
16.4576	12.0512
16.15	12.5351
15.8537	13.0603
15.568	13.6406
15.2925	14.0107
15.0265	11.9814
14.7697	12.5803
14.5214	14.3239
14.2814	13.5376
14.0492	13.4773
13.8244	13.5048
13.6067	13.5893
13.3957	13.53
13.1912	13.6621
12.9929	13.8589
12.8004	13.986
12.6135	14.1953
12.432	14.3318
12.2557	14.6137
12.0843	14.9509
11.9176	15.3332
11.7555	15.7624
11.5977	16.3408
11.444	16.9428
11.2944	17.8217
11.1487	19.9663
11.0067	24.2145
10.8682	23.6608
10.7332	25.2092
10.6015	22.2817
10.473	25.0549
10.3476	25.2612
10.2251	23.6459
10.1056	26.7973
9.9887	27.0788
9.8746	25.7673
9.763	24.7604
9.6539	23.7912
9.5472	18.3625
9.4429	22.3176
9.3408	33.5846
9.2409	35.3852
9.1431	35.6835
9.0474	35.2323
8.9536	32.5885
8.8618	28.6911
8.7718	23.3669
8.6837	19.8969
8.5973	17.0886
8.5126	13.5117
8.4295	8.7353
8.3481	4.9524
8.2682	5.5473
8.1898	6.3169
8.1129	6.9636
8.0374	7.436
7.9634	7.7412
7.8906	7.9704
7.8192	8.2366
7.7491	8.4829
7.6802	8.6919
7.6126	8.9096
7.5461	9.1255
7.4807	9.2837
7.4165	9.531
7.3534	9.7043
7.2914	9.8772
7.2303	10.0295
7.1703	10.1377
7.1113	10.323
7.0533	10.3113
6.9962	10.4709
6.94	10.6023
6.8847	10.6804
6.8302	10.729
6.7767	10.9863
6.7239	10.9175
6.672	11.1352
6.6209	11.1909
6.5705	11.1897
6.5209	11.0427
6.4721	11.1284
6.424	10.8608
6.3766	10.7661
6.3299	10.812
6.2838	10.7151
6.2385	10.698
6.1937	10.5952
6.1496	10.7309
6.1062	10.8684
6.0633	10.7851
6.0211	10.5354
5.9794	10.7307
5.9383	10.5205
5.8978	10.5561
5.8578	10.8264
5.8184	10.9404
5.7794	10.7783
5.741	10.9096
5.7031	11.0132
5.6657	11.0327
5.6288	11.0798
5.5924	11.0793
5.5564	11.1115
5.5209	11.2358
5.4859	11.2553
5.4513	11.3386
5.4171	11.4585
5.3833	11.3469
5.35	11.3962
5.3171	11.3718
5.2846	11.3708
5.2524	11.3191
5.2207	11.2646
5.1893	11.2888
5.1584	11.2981
5.1277	11.3022
5.0975	11.3012
5.0676	11.2812
5.038	11.2563
5.0088	11.2385
4.98	11.2024
4.9514	11.1948
4.9232	11.1294
4.8953	11.1228
4.8678	11.1096
4.8405	11.1071
4.8135	11.1018
4.7868	11.093
4.7605	11.0747
4.7344	11.1074
4.7086	11.133
4.6831	11.1259
4.6578	11.1501
4.6328	11.2199
4.6081	11.2929
4.5837	11.3081
4.5595	11.3335
4.5356	11.4433
4.5119	11.4887
4.4884	11.5009
4.4652	11.5117
4.4423	11.5146
4.4196	11.5051
4.3971	11.5119
4.3748	11.5022
4.3528	11.5039
4.331	11.4392
4.3094	11.4721
4.288	11.5175
4.2668	11.5761
4.2458	11.4482
4.2251	11.6916
4.2045	11.5742
4.1841	11.5285
4.164	11.5207
4.144	11.5334
4.1242	11.5547
4.1046	11.5647
4.0852	11.5717
4.066	11.5713
4.047	11.5676
4.0281	11.5566
4.0094	11.5276
3.9909	11.5144
3.9725	11.4953
3.9544	11.4834
3.9363	11.4785
3.9185	11.459
3.9008	11.4255
3.8833	11.3982
3.8659	11.3696
3.8487	11.3239
3.8316	11.3054
3.8147	11.2588
3.7979	11.2448
3.7813	11.2092
3.7648	11.1484
3.7485	11.1096
3.7323	11.07
3.7162	11.0222
3.7003	10.9814
3.6845	10.945
3.6689	10.9101
3.6534	10.8774
3.638	10.8215
3.6227	10.7876
3.6076	10.7529
3.5926	10.7234
3.5777	10.6819
3.563	10.6606
3.5484	10.6313
3.5338	10.6079
3.5195	10.573
3.5052	10.541
3.491	10.521
3.477	10.5039
3.463	10.4863
3.4492	10.4472
3.4355	10.4275
3.4219	10.4123
3.4084	10.3613
3.395	10.3198
3.3817	10.3088
3.3685	10.268
3.3554	10.2593
3.3425	10.2158
3.3296	10.1821
3.3168	10.156
3.3041	10.1228
3.2915	10.0971
3.279	10.0678
3.2666	10.0149
3.2543	9.9878
3.2421	9.9638
3.23	9.9411
3.218	9.8955
3.206	9.8567
3.1942	9.8178
3.1824	9.7773
3.1707	9.7375
3.1591	9.6987
3.1476	9.6577
3.1362	9.6511
3.1249	9.6164
3.1136	9.5942
3.1024	9.5473
3.0913	9.5088
3.0803	9.477
3.0694	9.4477
3.0585	9.4367
3.0477	9.4155
3.037	9.3882
3.0264	9.3628
3.0158	9.3279
3.0053	9.3115
2.9949	9.2812
2.9845	9.2358
2.9743	9.2226
2.9641	9.1865
2.9539	9.1794
2.9439	9.1347
2.9339	9.1113
2.9239	9.0796
2.9141	9.0639
2.9043	9.0552
2.8946	8.9995
2.8849	8.9858
2.8753	8.9477
2.8658	8.9678
2.8563	8.8891
2.8469	8.8969
2.8375	8.8891
2.8282	8.812
2.819	8.8938
2.8098	8.8149
2.8007	9.0112
2.7917	8.8301
2.7827	8.7734
2.7738	8.8279
2.7649	8.9219
2.7561	8.7092
2.7473	9.0156
2.7386	9.5698
2.7299	9.313
2.7213	9.342
2.7128	9.511
2.7043	9.6706
2.6959	9.594
2.6875	9.7309
2.6791	9.675
2.6709	9.5215
2.6626	9.9143
2.6545	9.8257
2.6463	9.6562
2.6382	9.7617
2.6302	9.7817
2.6222	9.6821
2.6143	9.844
2.6064	9.6721
2.5986	9.6401
2.5908	9.7363
2.583	9.8379
2.5753	9.7617
2.5677	9.7539
2.5601	9.7871
2.5525	9.5288
2.545	9.5559
2.5375	9.4927
2.5301	9.5615
2.5227	9.4941
2.5154	9.4914
2.5081	9.476
2.5008	9.4485
2.4936	9.4739
2.4864	9.4321
2.4793	9.3789
2.4722	9.374
2.4651	9.4116
2.4581	9.3496
2.4511	9.3603
2.4442	9.344
2.4373	9.2932
2.4305	9.3203
2.4236	9.2756
2.4169	9.2834
2.4101	9.2832
2.4034	9.2993
2.3967	9.3183
2.3901	9.2676
2.3835	9.2539
2.377	9.2676
2.3704	9.209
2.364	9.2326
2.3575	9.2365
2.3511	9.2241
2.3447	9.2041
2.3384	9.1877
2.3321	9.1721
2.3258	9.2199
2.3195	9.1875
2.3133	9.143
2.3071	9.166
2.301	9.1172
2.2949	9.1318
2.2888	9.1391
2.2828	9.1328
2.2767	9.1465
2.2708	9.1079
2.2648	9.1162
2.2589	9.1567
2.253	9.1054
2.2471	9.0825
2.2413	9.0957
2.2355	9.0459
2.2297	9.0844
2.224	9.0923
2.2183	9.0283
2.2126	9.0786
2.207	9.0332
2.2013	8.9726
2.1957	9.0234
2.1902	8.9775
2.1846	9.0644
2.1791	9.0078
2.1736	8.9575
2.1682	8.9922
2.1628	9.0024
2.1574	8.9189
2.152	8.9516
2.1466	8.9082
2.1413	8.9795
2.136	8.9067
2.1308	8.915
2.1255	8.9282
2.1203	8.8872
2.1151	8.9043
2.11	8.8813
2.1048	8.8457
2.0997	8.8852
2.0946	8.874
2.0895	8.8252
2.0845	8.8305
2.0795	8.8125
