Name: Barite BaSO_4
Type: Mineral
Class: Sulfate
Subclass: None
Particle Size: Coarse
Sample No.: SO-3A
Owner: JPL
Wavelength Range: TIR
Origin: USA, South Carolina, Cherokee County, Kings Creek
Description: Particle size was 125-500um.Collected by Ward's Original ASTER Spectral Library name was jpl.nicolet.mineral.sulfate.none.coarse.so03a.spectrum.txt
Measurement: Hemispherical reflectance
X Units: Wavelength (micrometers)
Y Units: Reflectance (percent)
wavelength	value
15.3853	3.8657
15.1161	1.0974
14.8563	2.2856
14.6052	4.0123
14.3624	4.4411
14.1276	4.5523
13.9004	6.3964
13.6803	7.1079
13.4671	8.0349
13.2604	8.8334
13.06	8.6209
12.8656	6.9505
12.6769	6.5987
12.4936	6.6434
12.3155	6.7201
12.1425	7.4498
11.9742	9.4217
11.8106	12.594
11.6513	14.2268
11.4963	12.482
11.3454	10.468
11.1983	8.6621
11.0551	7.7434
10.9154	6.992
10.7793	7.2877
10.6465	7.304
10.5169	6.9048
10.3904	5.8112
10.267	5.5913
10.1464	4.9686
10.0287	5.7576
9.9136	6.241
9.8012	6.54
9.6913	7.429
9.5838	8.7436
9.4787	11.1016
9.3758	15.065
9.2752	18.8227
9.1767	23.5211
9.0803	28.4878
8.9858	31.4076
8.8934	32.9716
8.8028	31.6835
8.714	23.6697
8.627	17.1868
8.5417	13.947
8.4581	9.4286
8.3761	8.4396
8.2957	8.708
8.2169	9.8871
8.1395	10.1736
8.0635	4.7472
7.989	1.2929
7.9158	0.3986
7.8439	0.4383
7.7734	0.5635
7.7041	0.6751
7.636	1.2429
7.5691	1.7587
7.5034	2.3708
7.4388	2.8812
7.3753	4.1335
7.3129	6.0383
7.2515	9.8358
7.1912	14.2465
7.1318	15.6288
7.0734	22.4808
7.016	24.7745
6.9595	19.5734
6.9039	26.1423
6.8492	28.5904
6.7953	31.8426
6.7423	32.5732
6.6901	31.7128
6.6387	26.1718
6.5881	14.9705
6.5382	8.3105
6.4892	7.2442
6.4408	7.4585
6.3931	9.7062
6.3462	12.825
6.2999	9.1478
6.2543	7.8768
6.2094	9.3833
6.1651	12.1734
6.1214	17.8877
6.0784	26.7498
6.0359	29.7945
5.994	32.7846
5.9527	34.9932
5.912	35.3707
5.8718	34.926
5.8322	33.9069
5.7931	35.6511
5.7545	37.6272
5.7165	38.4131
5.6789	38.5753
5.6418	39.9865
5.6052	40.4916
5.5691	40.4262
5.5334	40.872
5.4982	41.7169
5.4635	43.2271
5.4291	44.8834
5.3952	48.0425
5.3618	51.4928
5.3287	53.7725
5.2961	54.8075
5.2638	54.4069
5.2319	54.2834
5.2004	52.2069
5.1693	50.4766
5.1386	45.0176
5.1082	29.3475
5.0782	14.7152
5.0485	37.6872
5.0192	36.167
4.9902	31.5403
4.9616	24.3547
4.9332	15.5129
4.9052	7.5267
4.8776	4.5755
4.8502	3.5788
4.8231	3.5516
4.7963	4.0152
4.7699	4.2893
4.7437	4.5992
4.7178	3.9284
4.6922	3.6668
4.6668	3.6772
4.6418	4.8904
4.617	4.8252
4.5924	4.9252
4.5681	4.5135
4.5441	4.7416
4.5203	5.6555
4.4968	6.7241
4.4735	7.4397
4.4505	7.5629
4.4277	8.3528
4.4051	9.1472
4.3828	10.1976
4.3607	10.9847
4.3388	11.8247
4.3171	11.0216
4.2956	9.5552
4.2744	9.0491
4.2534	10.166
4.2325	11.605
4.2119	15.0752
4.1915	19.7218
4.1712	27.129
4.1512	34.1503
4.1313	39.8562
4.1117	44.7252
4.0922	49.0074
4.0729	53.3109
4.0538	56.6801
4.0349	59.4013
4.0161	61.4783
3.9976	62.1513
3.9792	62.3332
3.9609	63.8426
3.9428	66.117
3.9249	68.491
3.9072	69.2605
3.8896	65.2256
3.8722	65.8564
3.8549	68.0372
3.8378	70.6901
3.8208	74.1937
3.804	76.5058
3.7873	76.9506
3.7708	76.6948
3.7544	76.0899
3.7382	76.0577
3.7221	76.3749
3.7061	76.7781
3.6903	77.0321
3.6746	77.0372
3.659	76.6322
3.6436	75.9453
3.6283	75.1511
3.6131	74.3442
3.5981	73.9399
3.5832	73.5256
3.5684	73.2357
3.5537	72.7163
3.5391	72.1406
3.5247	71.3958
3.5104	70.3892
3.4962	69.3172
3.4821	68.8468
3.4681	68.4323
3.4543	68.1947
3.4405	67.3796
3.4269	66.2671
3.4133	64.9602
3.3999	62.7302
3.3866	63.3256
3.3733	63.057
3.3602	62.1132
3.3472	60.9222
3.3343	59.0287
3.3215	55.4407
3.3088	49.7984
3.2961	49.7667
3.2836	49.533
3.2712	50.1369
3.2588	49.7188
3.2466	49.6249
3.2345	48.668
3.2224	46.6448
3.2104	45.0613
3.1985	44.1489
3.1867	43.3883
3.175	42.4635
3.1634	41.7021
3.1519	41.0718
3.1404	40.4543
3.129	39.7496
3.1178	39.071
3.1065	38.4948
3.0954	37.9228
3.0844	37.5884
3.0734	37.4981
3.0625	36.9453
3.0517	36.7674
3.041	36.6136
3.0303	36.4683
3.0197	36.3703
3.0092	36.1461
2.9987	36.1168
2.9884	35.8203
2.9781	35.8003
2.9678	35.6269
2.9577	35.413
2.9476	35.647
2.9376	35.634
2.9276	35.703
2.9177	36.1059
2.9079	36.4572
2.8982	36.6322
2.8885	37.1778
2.8789	37.7872
2.8693	38.2693
2.8598	38.9268
2.8504	39.7477
2.841	40.6289
2.8317	41.6464
2.8224	42.7633
2.8133	43.9388
2.8041	45.3646
2.7951	46.3286
2.786	47.8343
2.7771	48.5507
2.7682	50.7337
2.7594	52.4466
2.7506	55.0965
2.7418	58.5143
2.7332	61.1334
2.7246	65.8768
2.716	68.3838
2.7075	70.3545
2.699	69.5523
2.6906	73.2201
2.6823	77.354
2.674	80.5634
2.6657	83.8302
2.6575	83.3659
2.6494	83.9648
2.6413	84.5955
2.6332	85.445
2.6252	85.709
2.6173	86.8745
2.6094	86.6871
2.6015	86.6719
2.5937	88.0148
2.5859	87.003
2.5782	86.9979
2.5706	87.0923
2.5629	87.5388
2.5554	86.5698
2.5478	86.8366
2.5403	86.6613
2.5329	86.7099
2.5255	86.8835
2.5181	86.7554
2.5108	86.7767
2.5035	86.7164
2.4963	86.9052
2.4891	86.7772
2.482	87.2025
2.4749	87.3492
2.4678	87.6219
2.4608	87.6673
2.4538	87.9895
2.4468	88.0887
2.4399	88.1083
2.4331	88.3489
2.4262	88.3829
2.4194	88.5201
2.4127	88.8619
2.4059	88.7497
2.3993	88.9677
2.3926	88.9819
2.386	89.2161
2.3795	89.298
2.3729	89.3172
2.3664	89.7573
2.36	89.597
2.3535	89.8409
2.3471	89.8446
2.3408	89.8176
2.3345	90.1902
2.3282	90.0145
2.3219	90.2635
2.3157	90.2681
2.3095	90.3788
2.3034	90.5972
2.2972	90.4775
2.2911	90.6275
2.2851	90.6538
2.279	90.6069
2.2731	90.7429
2.2671	90.4913
2.2612	90.8181
2.2553	90.6474
2.2494	90.7439
2.2435	90.8757
2.2377	91.1176
2.232	90.7748
2.2262	90.9631
2.2205	91.0422
2.2148	90.9547
2.2091	91.1054
2.2035	91.0422
2.1979	91.0457
2.1923	91.055
2.1868	90.9109
2.1812	91.1485
2.1758	91.0988
2.1703	90.9749
2.1649	91.028
2.1595	91.0456
2.1541	91.0755
2.1487	91.134
2.1434	91.1191
2.1381	90.9583
2.1328	91.0821
2.1275	91.1544
2.1223	91.0376
2.1171	91.0054
2.112	90.6505
2.1068	90.85
2.1017	90.4933
2.0966	90.9007
2.0915	90.9319
2.0865	90.4585
2.0814	90.9678
2.0764	90.6565
2.0715	90.87
2.0665	90.2065
2.0616	90.6003
2.0567	90.4135
2.0518	90.2785
2.0469	89.983
2.0421	90.4474
2.0373	89.9829
2.0325	89.7859
2.0277	89.9567
2.0229	90.3047
2.0182	89.3401
2.0135	89.2702
2.0088	89.2311
2.0042	88.9581
