Name: Fayalite Fe_2SiO_4
Type: Mineral
Class: Silicate
Subclass: Nesosilicate
Particle Size: Medium
Sample No.: NS-1A
Owner: JPL
Wavelength Range: VSWIR
Origin: None.
Description: Particle size was 45-125um.Collected by:  JPL Original ASTER Spectral Library name was jpl.perkin.mineral.silicate.nesosilicate.medium.ns01a.spectrum.txt
Measurement: Hemispherical reflectance
X Units: Wavelength (micrometers)
Y Units: Reflectance (percent)
wavelength	value
2.5	10.8154
2.494	10.7135
2.488	10.8596
2.482	10.8972
2.476	10.8733
2.47	10.9861
2.464	10.9449
2.458	11.0657
2.452	10.9533
2.446	11.0632
2.44	11.0567
2.434	11.0423
2.428	11.0567
2.422	11.0908
2.416	11.1554
2.41	11.238
2.404	11.2955
2.398	11.3661
2.392	11.4254
2.386	11.4184
2.38	11.568
2.374	11.5838
2.368	11.5927
2.362	11.5347
2.356	11.5182
2.35	11.5119
2.344	11.5128
2.338	11.6154
2.332	11.648
2.326	11.7111
2.32	11.7129
2.314	11.8434
2.308	11.9183
2.302	12.0223
2.296	12.0387
2.29	12.0473
2.284	12.1208
2.278	12.1162
2.272	12.1735
2.266	12.3178
2.26	12.398
2.254	12.479
2.248	12.4827
2.242	12.5054
2.236	12.5564
2.23	12.6007
2.224	12.6435
2.218	12.8021
2.212	12.9036
2.206	12.8358
2.2	12.8757
2.194	12.9192
2.188	12.9408
2.182	13.0013
2.176	12.9856
2.17	13.1068
2.164	13.1543
2.158	13.0837
2.152	13.162
2.146	13.2007
2.14	13.2532
2.134	13.1787
2.128	13.2123
2.122	13.1805
2.116	13.1521
2.11	13.0842
2.104	13.0851
2.098	13.0743
2.092	13.1493
2.086	13.1705
2.08	13.1372
2.074	13.1508
2.068	13.1655
2.062	13.215
2.056	13.2543
2.05	13.2462
2.044	13.2504
2.038	13.2114
2.032	13.2687
2.026	13.2375
2.02	13.3029
2.014	13.2455
2.008	13.28
2.002	13.2402
1.996	13.234
1.99	13.1982
1.984	13.2144
1.978	13.2548
1.972	13.169
1.966	13.1722
1.96	13.1
1.954	13.2133
1.948	13.1539
1.942	13.0864
1.936	13.0794
1.93	13.0773
1.924	13.0905
1.918	13.1618
1.912	13.1527
1.906	13.1343
1.9	13.0881
1.894	13.2294
1.888	13.2588
1.882	13.3039
1.876	13.2377
1.87	13.2019
1.864	13.2512
1.858	13.2288
1.852	13.2085
1.846	13.1584
1.84	13.1687
1.834	13.1168
1.828	13.1117
1.822	13.0948
1.816	13.0788
1.81	13.0566
1.804	12.9906
1.798	12.9808
1.792	12.9503
1.786	12.9075
1.78	12.8325
1.774	12.8324
1.768	12.7868
1.762	12.7401
1.756	12.6504
1.75	12.6414
1.744	12.5416
1.738	12.5783
1.732	12.5131
1.726	12.4815
1.72	12.3593
1.714	12.304
1.708	12.2211
1.702	12.1704
1.696	12.0666
1.69	12.0121
1.684	11.9199
1.678	11.9149
1.672	11.8698
1.666	11.8099
1.66	11.6336
1.654	11.6529
1.648	11.4821
1.642	11.4593
1.636	11.2723
1.63	11.2703
1.624	11.1482
1.618	11.0109
1.612	10.9827
1.606	10.8211
1.6	10.7364
1.594	10.6448
1.588	10.5378
1.582	10.4673
1.576	10.3042
1.57	10.3202
1.564	10.1538
1.558	10.0533
1.552	9.9864
1.546	9.8515
1.54	9.7746
1.534	9.655
1.528	9.584
1.522	9.4699
1.516	9.3726
1.51	9.3434
1.504	9.1535
1.498	9.1535
1.492	9.0551
1.486	8.9017
1.48	8.8331
1.474	8.8121
1.468	8.6688
1.462	8.5432
1.456	8.5135
1.45	8.4712
1.444	8.2789
1.438	8.2849
1.432	8.1262
1.426	8.1644
1.42	7.9368
1.414	7.4909
1.408	7.8817
1.402	7.7927
1.396	7.7338
1.39	7.8104
1.384	7.6723
1.378	7.6377
1.372	7.4189
1.366	7.4931
1.36	7.4445
1.354	7.3985
1.348	7.3806
1.342	7.2524
1.336	7.1632
1.33	7.0994
1.324	7.1587
1.318	7.0903
1.312	6.9921
1.306	6.8932
1.3	6.8314
1.294	6.8549
1.288	6.7103
1.282	6.6529
1.276	6.6126
1.27	6.595
1.264	6.6184
1.258	6.5359
1.252	6.4762
1.246	6.4837
1.24	6.3806
1.234	6.3526
1.228	6.3117
1.222	6.3008
1.216	6.2335
1.21	6.2095
1.204	6.1756
1.198	6.0958
1.192	6.0749
1.186	6.0589
1.18	6.0653
1.174	5.9605
1.168	5.8778
1.162	5.8738
1.156	5.7916
1.15	5.8086
1.144	5.6772
1.138	5.5888
1.132	5.4957
1.126	5.4289
1.12	5.3444
1.114	5.2347
1.108	5.2042
1.102	5.0399
1.096	5.0009
1.09	4.8546
1.084	4.7389
1.078	4.7045
1.072	4.5666
1.066	4.4889
1.06	4.436
1.054	4.3642
1.048	4.3414
1.042	4.3386
1.036	4.2565
1.03	4.247
1.024	4.271
1.018	4.1852
1.012	4.2334
1.006	4.3044
1	4.2301
0.994	4.3113
0.988	4.3308
0.982	4.277
0.976	4.3325
0.97	4.3346
0.964	4.3494
0.958	4.4426
0.952	4.4617
0.946	4.4892
0.94	4.5448
0.934	4.5673
0.928	4.7112
0.922	4.7204
0.916	4.8725
0.91	4.9384
0.904	5.0549
0.898	5.0944
0.892	5.254
0.886	5.3867
0.88	5.53
0.874	5.6533
0.868	5.7276
0.862	5.905
0.856	6.4021
0.85	6.553
0.844	6.6971
0.838	6.8484
0.832	6.9913
0.826	7.1272
0.82	7.2574
0.814	7.3913
0.808	7.5199
0.802	7.6394
0.796	7.7575
0.79	7.8607
0.784	7.9611
0.778	8.0583
0.772	8.1367
0.766	8.2117
0.76	8.2779
0.754	8.3375
0.748	8.3866
0.742	8.4326
0.736	8.4663
0.73	8.4943
0.724	8.5148
0.718	8.5393
0.712	8.5588
0.706	8.57
0.7	8.5929
0.694	8.6003
0.688	8.6107
0.682	8.6175
0.676	8.6231
0.67	8.6265
0.664	8.6254
0.658	8.6279
0.652	8.6228
0.646	8.6104
0.64	8.5903
0.634	8.5695
0.628	8.5519
0.622	8.5439
0.616	8.5416
0.61	8.5479
0.604	8.5591
0.598	8.5619
0.592	8.5542
0.586	8.5308
0.58	8.4856
0.574	8.4216
0.568	8.3072
0.562	8.1101
0.556	7.8395
0.55	7.7906
0.544	7.7575
0.538	7.6167
0.532	7.4031
0.526	7.1779
0.52	6.9266
0.514	6.626
0.508	6.5881
0.502	6.5367
0.496	6.3899
0.49	6.2198
0.484	6.1062
0.478	5.9952
0.472	5.9389
0.466	5.8916
0.46	5.8167
0.454	5.7486
0.448	5.6918
0.442	5.6248
0.436	5.5604
0.43	5.4783
0.424	5.3866
0.418	5.3012
0.412	5.2145
0.406	5.1201
0.4	5.0268
