Name: Actinolite Ca_2(Mg,Fe^2+)_5Si_8O_22(OH)_2
Type: Mineral
Class: Silicate
Subclass: Inosilicate
Particle Size: Medium
Sample No.: IN-4A
Owner: JPL
Wavelength Range: TIR
Origin: USA, California, San Bernadino County, Wrightwood
Description: Particle size was 45-125um.Collected by Burminco Original ASTER Spectral Library name was jpl.nicolet.mineral.silicate.inosilicate.medium.in04a.spectrum.txt
Measurement: Hemispherical reflectance
X Units: Wavelength (micrometers)
Y Units: Reflectance (percent)
wavelength	value
15.3853	2.1493
15.1161	2.154
14.8563	3.1128
14.6052	4.3108
14.3624	3.2494
14.1276	2.2239
13.9004	2.7516
13.6803	2.9055
13.4671	3.6156
13.2604	6.006
13.06	5.9413
12.8656	2.1434
12.6769	2.8589
12.4936	3.5158
12.3155	4.0615
12.1425	4.4264
11.9742	4.774
11.8106	5.0505
11.6513	5.5227
11.4963	5.9215
11.3454	6.5527
11.1983	7.3214
11.0551	8.5864
10.9154	11.3691
10.7793	9.3295
10.6465	12.177
10.5169	18.6685
10.3904	22.2789
10.267	25.5372
10.1464	31.0465
10.0287	33.5472
9.9136	30.0061
9.8012	20.8699
9.6913	16.469
9.5838	16.4536
9.4787	16.8107
9.3758	17.8213
9.2752	20.0635
9.1767	17.7992
9.0803	12.4511
8.9858	8.4344
8.8934	9.1469
8.8028	13.4889
8.714	15.0119
8.627	10.9351
8.5417	3.9726
8.4581	1.4828
8.3761	0.6509
8.2957	0.3362
8.2169	0.4594
8.1395	0.5611
8.0635	0.7223
7.989	0.8486
7.9158	1.3996
7.8439	1.7016
7.7734	2.055
7.7041	2.3934
7.636	2.9724
7.5691	3.3896
7.5034	3.4428
7.4388	3.6051
7.3753	3.9188
7.3129	4.4525
7.2515	5.1647
7.1912	5.9754
7.1318	6.644
7.0734	7.3119
7.016	8.107
6.9595	9.0808
6.9039	9.5938
6.8492	9.8981
6.7953	10.702
6.7423	10.8765
6.6901	11.5678
6.6387	12.8636
6.5881	13.6626
6.5382	13.7605
6.4892	13.7432
6.4408	12.2777
6.3931	11.1964
6.3462	10.0533
6.2999	8.1964
6.2543	7.2145
6.2094	6.7551
6.1651	7.0552
6.1214	7.5949
6.0784	8.395
6.0359	9.5535
5.994	9.6149
5.9527	8.3598
5.912	7.8866
5.8718	8.7011
5.8322	9.4799
5.7931	9.9806
5.7545	10.7081
5.7165	11.3166
5.6789	11.0483
5.6418	11.2275
5.6052	11.5715
5.5691	12.2583
5.5334	12.9936
5.4982	13.1645
5.4635	12.6881
5.4291	13.5926
5.3952	14.1502
5.3618	13.9219
5.3287	13.7359
5.2961	15.0068
5.2638	15.4518
5.2319	16.9223
5.2004	18.3332
5.1693	16.9414
5.1386	15.6468
5.1082	15.8878
5.0782	16.4113
5.0485	17.0709
5.0192	18.2444
4.9902	19.4119
4.9616	20.5687
4.9332	21.6567
4.9052	23.0336
4.8776	23.7675
4.8502	24.1902
4.8231	24.1013
4.7963	24.8027
4.7699	27.0429
4.7437	29.4785
4.7178	31.2325
4.6922	32.7412
4.6668	34.9594
4.6418	37.3921
4.617	40.0354
4.5924	42.129
4.5681	44.3715
4.5441	46.9789
4.5203	48.7141
4.4968	50.2342
4.4735	51.7377
4.4505	52.799
4.4277	53.7799
4.4051	54.3258
4.3828	54.8018
4.3607	55.3649
4.3388	55.3823
4.3171	55.1396
4.2956	54.6871
4.2744	54.5293
4.2534	55.7006
4.2325	54.3528
4.2119	56.012
4.1915	57.2566
4.1712	57.3756
4.1512	57.5775
4.1313	57.8383
4.1117	58.0734
4.0922	58.4783
4.0729	58.7598
4.0538	58.7688
4.0349	58.7632
4.0161	58.7426
3.9976	58.5525
3.9792	58.6903
3.9609	59.0036
3.9428	59.2983
3.9249	59.7231
3.9072	59.9848
3.8896	60.2022
3.8722	60.4514
3.8549	60.4908
3.8378	60.5467
3.8208	60.7215
3.804	61.023
3.7873	61.2835
3.7708	61.3767
3.7544	61.4437
3.7382	61.4088
3.7221	61.3475
3.7061	60.9056
3.6903	60.3996
3.6746	61.082
3.659	60.9416
3.6436	60.7467
3.6283	60.6986
3.6131	60.5441
3.5981	60.3088
3.5832	60.0173
3.5684	59.6974
3.5537	59.4299
3.5391	58.933
3.5247	58.2638
3.5104	57.6483
3.4962	56.9921
3.4821	56.6366
3.4681	56.3195
3.4543	55.8794
3.4405	55.3076
3.4269	54.368
3.4133	52.9977
3.3999	51.911
3.3866	50.6589
3.3733	49.5089
3.3602	48.385
3.3472	47.0293
3.3343	47.8709
3.3215	48.4567
3.3088	48.7554
3.2961	50.0727
3.2836	51.7345
3.2712	52.6424
3.2588	52.6955
3.2466	52.4097
3.2345	52.0584
3.2224	51.5452
3.2104	50.8875
3.1985	49.8689
3.1867	48.6147
3.175	47.6599
3.1634	47.842
3.1519	48.3886
3.1404	48.8284
3.129	48.4834
3.1178	47.955
3.1065	47.5845
3.0954	47.2578
3.0844	46.8277
3.0734	46.2286
3.0625	45.6655
3.0517	44.9846
3.041	44.3562
3.0303	43.8855
3.0197	43.0118
3.0092	42.5248
2.9987	41.5485
2.9884	40.7197
2.9781	40.1288
2.9678	39.9462
2.9577	40.6083
2.9476	41.2521
2.9376	40.9823
2.9276	40.2027
2.9177	39.6954
2.9079	38.9714
2.8982	38.6206
2.8885	39.0401
2.8789	39.2129
2.8693	40.5309
2.8598	41.721
2.8504	42.592
2.841	42.9735
2.8317	43.1613
2.8224	43.0784
2.8133	43.2087
2.8041	43.9346
2.7951	42.6503
2.786	39.1529
2.7771	32.8241
2.7682	26.3783
2.7594	19.6825
2.7506	16.8134
2.7418	13.2697
2.7332	8.8412
2.7246	9.3222
2.716	26.1872
2.7075	33.7484
2.699	34.336
2.6906	36.5029
2.6823	44.8509
2.674	54.246
2.6657	58.4167
2.6575	56.4879
2.6494	55.9064
2.6413	55.2475
2.6332	55.4134
2.6252	55.0168
2.6173	55.5158
2.6094	54.6127
2.6015	53.954
2.5937	54.8541
2.5859	53.3114
2.5782	52.7055
2.5706	51.9739
2.5629	52.2078
2.5554	51.6002
2.5478	52.4343
2.5403	52.3854
2.5329	51.8594
2.5255	51.688
2.5181	50.6098
2.5108	50.267
2.5035	50.0664
2.4963	49.7067
2.4891	49.4824
2.482	49.1074
2.4749	49.0871
2.4678	48.9265
2.4608	48.7296
2.4538	49.6445
2.4468	49.7541
2.4399	49.9391
2.4331	51.1801
2.4262	50.9436
2.4194	49.7396
2.4127	49.6765
2.4059	48.6612
2.3993	45.7838
2.3926	42.2341
2.386	40.4939
2.3795	43.902
2.3729	48.2766
2.3664	50.474
2.36	51.9303
2.3535	52.344
2.3471	52.3039
2.3408	50.9883
2.3345	47.8235
2.3282	42.6916
2.3219	36.9503
2.3157	36.5984
2.3095	38.3624
2.3034	39.0523
2.2972	38.6983
2.2911	44.1156
2.2851	47.345
2.279	49.9313
2.2731	52.6146
2.2671	54.944
2.2612	56.891
2.2553	56.9076
2.2494	56.5659
2.2435	58.0217
2.2377	59.7784
2.232	61.4813
2.2262	62.0431
2.2205	62.42
2.2148	62.8407
2.2091	62.9389
2.2035	63.2563
2.1979	63.5283
2.1923	63.6544
2.1868	63.9735
2.1812	64.2343
2.1758	64.4125
2.1703	64.4645
2.1649	64.5754
2.1595	64.4363
2.1541	64.7139
2.1487	64.4959
2.1434	64.7248
2.1381	64.6807
2.1328	64.1463
2.1275	64.4466
2.1223	64.4667
2.1171	64.4493
2.112	64.8991
2.1068	65.9566
2.1017	67.2668
2.0966	67.4638
2.0915	67.892
2.0865	68.1956
2.0814	68.7805
2.0764	69.295
2.0715	69.0194
2.0665	69.4481
2.0616	69.3997
2.0567	69.6221
2.0518	70.0344
2.0469	70.4032
2.0421	70.8476
2.0373	71.0303
2.0325	71.2572
2.0277	71.1462
2.0229	71.1678
2.0182	71.1569
2.0135	71.2688
2.0088	71.202
2.0042	71.5931
