Name: Olivine (Fo92) (Fe+2,Mg)2SiO4
Type: Mineral
Class: Silicate
Subclass: Nesosilicate
Particle Size: Solid
Sample No.: olivine_11
Owner: JHU
Wavelength Range: TIR
Origin: Chavira olivine-peridot mine, near Camargo, Chihuahua,Mexico via the Smithsonian (sample no. NMNH 137044)
Description: Sample consisted of many 0.5 cm particles, green in color, appearing pure, plus one large fragment.  The large (1.3 cm x 1 cm) fragment seemed to contain much of contamination, probably diopside, and was discarded.  The hand-picked sample seemed quite clean, except for one grain of pyroxene seen under the microscope and a small amount of limonitic staining on some grains. (Isolated tetrahedra); (Olivine Group) Original ASTER Spectral Library name was jhu.nicolet.mineral.silicate.nesosilicate.solid.olivi11.spectrum.txt
Measurement: Bidirectional reflectance
X Units: Wavelength (micrometers)
Y Units: Reflectance (percent)
wavelength	value
25.0442	22.5058
24.3388	29.6586
23.6719	33.5981
23.0407	30.6708
22.4422	28.7255
21.8741	17.1367
21.334	14.0996
20.8199	13.4594
20.33	15.8718
19.8627	25.0048
19.4163	29.8798
18.9896	32.5424
18.5812	27.1376
18.19	24.9243
17.815	21.1022
17.4551	16.9924
17.1094	13.9214
16.7772	13.2915
16.4576	14.8935
16.15	16.3537
15.8537	16.3852
15.568	14.361
15.2925	10.1142
15.0265	7.5625
14.7697	7.3647
14.5214	7.7317
14.2814	8.0859
14.0492	8.4643
13.8244	8.8716
13.6067	9.24
13.3957	9.6411
13.1912	10.0129
12.9929	10.4018
12.8004	10.8091
12.6135	11.2265
12.432	11.7133
12.2557	12.2968
12.0843	13.0283
11.9176	13.9497
11.7555	15.0295
11.5977	16.7041
11.444	21.1645
11.2944	24.0815
11.1487	24.8119
11.0067	25.259
10.8682	25.9086
10.7332	26.8222
10.6015	27.7316
10.473	29.7236
10.3476	23.6352
10.2251	28.6501
10.1056	25.6638
9.9887	23.9604
9.8746	25.0973
9.763	24.2167
9.6539	20.8769
9.5472	19.8625
9.4429	19.2197
9.3408	18.2956
9.2409	15.1508
9.1431	11.6804
9.0474	8.2783
8.9536	4.9983
8.8618	3.915
8.7718	4.2502
8.6837	4.6177
8.5973	4.9758
8.5126	5.2715
8.4295	5.5473
8.3481	5.7749
8.2682	5.9636
8.1898	6.1286
8.1129	6.2551
8.0374	6.4009
7.9634	6.5381
7.8906	6.6492
7.8192	6.7763
7.7491	6.8611
7.6802	6.9277
7.6126	6.9897
7.5461	7.0744
7.4807	7.112
7.4165	7.1943
7.3534	7.2768
7.2914	7.3428
7.2303	7.4128
7.1703	7.3952
7.1113	7.4751
7.0533	7.4844
6.9962	7.5774
6.94	7.6626
6.8847	7.7121
6.8302	7.7456
6.7767	7.7698
6.7239	7.8032
6.672	7.844
6.6209	7.8987
6.5705	7.8535
6.5209	7.9507
6.4721	8.0683
6.424	8.0984
6.3766	8.2048
6.3299	8.3108
6.2838	8.3828
6.2385	8.4023
6.1937	8.4233
6.1496	8.4411
6.1062	8.4233
6.0633	8.458
6.0211	8.4262
5.9794	8.4192
5.9383	8.2185
5.8978	8.2886
5.8578	8.3862
5.8184	8.3078
5.7794	8.3887
5.741	8.448
5.7031	8.4826
5.6657	8.4961
5.6288	8.4458
5.5924	8.4502
5.5564	8.4512
5.5209	8.5078
5.4859	8.5315
5.4513	8.5642
5.4171	8.5349
5.3833	8.5779
5.35	8.5215
5.3171	8.602
5.2846	8.6047
5.2524	8.612
5.2207	8.6186
5.1893	8.6369
5.1584	8.6299
5.1277	8.6306
5.0975	8.6416
5.0676	8.6404
5.038	8.6286
5.0088	8.6347
4.98	8.6106
4.9514	8.6235
4.9232	8.6137
4.8953	8.6201
4.8678	8.6264
4.8405	8.6333
4.8135	8.6316
4.7868	8.6306
4.7605	8.6294
4.7344	8.6504
4.7086	8.6338
4.6831	8.6636
4.6578	8.6657
4.6328	8.6858
4.6081	8.699
4.5837	8.6875
4.5595	8.7058
4.5356	8.7121
4.5119	8.7241
4.4884	8.7339
4.4652	8.7424
4.4423	8.7473
4.4196	8.7536
4.3971	8.7561
4.3748	8.7636
4.3528	8.7563
4.331	8.7268
4.3094	8.7182
4.288	8.7124
4.2668	8.7168
4.2458	8.6633
4.2251	8.6845
4.2045	8.7114
4.1841	8.7341
4.164	8.7231
4.144	8.7229
4.1242	8.7126
4.1046	8.7304
4.0852	8.7302
4.066	8.747
4.047	8.7346
4.0281	8.7307
4.0094	8.7373
3.9909	8.7395
3.9725	8.759
3.9544	8.7622
3.9363	8.7751
3.9185	8.7824
3.9008	8.769
3.8833	8.779
3.8659	8.7595
3.8487	8.7651
3.8316	8.7751
3.8147	8.7705
3.7979	8.7644
3.7813	8.7754
3.7648	8.7571
3.7485	8.7597
3.7323	8.7375
3.7162	8.7243
3.7003	8.7185
3.6845	8.7239
3.6689	8.7204
3.6534	8.7178
3.638	8.7131
3.6227	8.7226
3.6076	8.7026
3.5926	8.706
3.5777	8.7143
3.563	8.6975
3.5484	8.7058
3.5338	8.7126
3.5195	8.7199
3.5052	8.8259
3.491	8.7749
3.477	8.7429
3.463	8.7546
3.4492	8.77
3.4355	8.8135
3.4219	8.9385
3.4084	8.8901
3.395	8.7812
3.3817	8.7744
3.3685	8.7375
3.3554	8.686
3.3425	8.6662
3.3296	8.6672
3.3168	8.6474
3.3041	8.6406
3.2915	8.6491
3.279	8.625
3.2666	8.6223
3.2543	8.6208
3.2421	8.6177
3.23	8.6211
3.218	8.6057
3.206	8.5962
3.1942	8.605
3.1824	8.5981
3.1707	8.5808
3.1591	8.5835
3.1476	8.5791
3.1362	8.5857
3.1249	8.6008
3.1136	8.5906
3.1024	8.5769
3.0913	8.5835
3.0803	8.5801
3.0694	8.593
3.0585	8.5793
3.0477	8.584
3.037	8.5676
3.0264	8.5676
3.0158	8.5532
3.0053	8.5542
2.9949	8.55
2.9845	8.5437
2.9743	8.5327
2.9641	8.5241
2.9539	8.5073
2.9439	8.4858
2.9339	8.4851
2.9239	8.4595
2.9141	8.4409
2.9043	8.438
2.8946	8.425
2.8849	8.4131
2.8753	8.3965
2.8658	8.3708
2.8563	8.3803
2.8469	8.3147
2.8375	8.2973
2.8282	8.2883
2.819	8.2812
2.8098	8.2597
2.8007	8.2319
2.7917	8.2309
2.7827	8.2705
2.7738	8.2295
2.7649	8.2519
2.7561	8.2485
2.7473	8.1216
2.7386	8.0586
2.7299	8.0954
2.7213	8.2229
2.7128	8.0791
2.7043	8.0268
2.6959	8.0461
2.6875	8.0207
2.6791	7.9924
2.6709	8.0063
2.6626	7.9429
2.6545	7.9289
2.6463	7.9846
2.6382	7.9214
2.6302	8.0054
2.6222	7.9255
2.6143	7.9321
2.6064	7.9094
2.5986	7.8498
2.5908	7.8496
2.583	7.7549
2.5753	7.8052
2.5677	7.7358
2.5601	7.7632
2.5525	7.7583
2.545	7.7864
2.5375	7.7612
2.5301	7.7033
2.5227	7.716
2.5154	7.7014
2.5081	7.6889
2.5008	7.6543
2.4936	7.6582
2.4864	7.644
2.4793	7.6479
2.4722	7.646
2.4651	7.5969
2.4581	7.6015
2.4511	7.5703
2.4442	7.5657
2.4373	7.5229
2.4305	7.5471
2.4236	7.5312
2.4169	7.4973
2.4101	7.499
2.4034	7.4614
2.3967	7.4306
2.3901	7.3879
2.3835	7.3896
2.377	7.3955
2.3704	7.3547
2.364	7.3906
2.3575	7.3242
2.3511	7.3157
2.3447	7.3069
2.3384	7.2961
2.3321	7.2846
2.3258	7.3039
2.3195	7.2717
2.3133	7.2131
2.3071	7.2505
2.301	7.1894
2.2949	7.2265
2.2888	7.1709
2.2828	7.1611
2.2767	7.177
2.2708	7.1272
2.2648	7.1167
2.2589	7.1152
2.253	7.0793
2.2471	7.0937
2.2413	7.0693
2.2355	7.0586
2.2297	7.0364
2.224	7.0361
2.2183	7.0073
2.2126	6.9848
2.207	7.0102
2.2013	6.98
2.1957	6.9756
2.1902	6.9502
2.1846	6.9795
2.1791	6.9209
2.1736	6.9062
2.1682	6.9004
2.1628	6.8916
2.1574	6.8364
2.152	6.854
2.1466	6.8857
2.1413	6.8301
2.136	6.8257
2.1308	6.8535
2.1255	6.7959
2.1203	6.7763
2.1151	6.7641
2.11	6.7656
2.1048	6.7324
2.0997	6.7969
2.0946	6.7734
2.0895	6.7597
2.0845	6.7471
2.0795	6.7622
