Name: Mordenite (Ca,Na2,K2)Al2Si10O24.7H2O
Type: Mineral
Class: Silicate
Subclass: Tectosilicate
Particle Size: Coarse
Sample No.: morden_1
Owner: JHU
Wavelength Range: TIR
Origin: Union Pass, Arizona via W. J. Ehmann #10
Description: The sample consisted of small transparent crystals of apparent purity. Particle size was 75-250  Micrometers.(Framework Silicates); (ZeoliteGroup) Original ASTER Spectral Library name was jhu.nicolet.mineral.silicate.phyllosilicate.coarse.morden1.spectrum.txt
Measurement: Bidirectional reflectance
X Units: Wavelength (micrometers)
Y Units: Reflectance (percent)
wavelength	value
25.0442	1.6777
24.3388	1.7607
23.6719	1.8618
23.0407	1.9504
22.4422	2.0019
21.8741	2.0547
21.334	2.146
20.8199	1.8579
20.33	1.2529
19.8627	0.8645
19.4163	0.7971
18.9896	0.8196
18.5812	0.7964
18.19	0.7576
17.815	0.6843
17.4551	0.6414
17.1094	0.5803
16.7772	0.5488
16.4576	0.5393
16.15	0.5115
15.8537	0.4714
15.568	0.4187
15.2925	0.4126
15.0265	0.4429
14.7697	0.4766
14.5214	0.4973
14.2814	0.5256
14.0492	0.5342
13.8244	0.5344
13.6067	0.5249
13.3957	0.5364
13.1912	0.5547
12.9929	0.5776
12.8004	0.5828
12.6135	0.5754
12.432	0.5591
12.2557	0.571
12.0843	0.6418
11.9176	0.7471
11.7555	0.8191
11.5977	0.8535
11.444	0.8708
11.2944	0.9092
11.1487	0.9487
11.0067	0.9841
10.8682	1.0247
10.7332	1.073
10.6015	1.1331
10.473	1.2036
10.3476	1.2891
10.2251	1.3889
10.1056	1.5095
9.9887	1.6475
9.8746	1.7978
9.763	1.9507
9.6539	2.105
9.5472	2.2507
9.4429	2.3677
9.3408	2.4287
9.2409	2.5273
9.1431	2.5747
9.0474	2.4402
8.9536	2.1753
8.8618	1.938
8.7718	1.8162
8.6837	1.7405
8.5973	1.6702
8.5126	1.6064
8.4295	1.5488
8.3481	1.4819
8.2682	1.4297
8.1898	1.4773
8.1129	1.667
8.0374	1.7888
7.9634	1.4631
7.8906	0.8984
7.8192	0.4663
7.7491	0.25
7.6802	0.1748
7.6126	0.1592
7.5461	0.1685
7.4807	0.1934
7.4165	0.2263
7.3534	0.2664
7.2914	0.311
7.2303	0.3574
7.1703	0.4062
7.1113	0.4536
7.0533	0.4985
6.9962	0.5388
6.94	0.5752
6.8847	0.6111
6.8302	0.6511
6.7767	0.6973
6.7239	0.7415
6.672	0.781
6.6209	0.8184
6.5705	0.8508
6.5209	0.8726
6.4721	0.8757
6.424	0.8477
6.3766	0.7891
6.3299	0.6919
6.2838	0.5671
6.2385	0.449
6.1937	0.3672
6.1496	0.3276
6.1062	0.3071
6.0633	0.3074
6.0211	0.3274
5.9794	0.3916
5.9383	0.5395
5.8978	0.7693
5.8578	1.0203
5.8184	1.2165
5.7794	1.3469
5.741	1.4231
5.7031	1.4604
5.6657	1.4709
5.6288	1.4651
5.5924	1.4436
5.5564	1.4189
5.5209	1.4167
5.4859	1.4136
5.4513	1.4253
5.4171	1.4536
5.3833	1.498
5.35	1.5625
5.3171	1.6682
5.2846	1.8
5.2524	1.9258
5.2207	2.0271
5.1893	2.0952
5.1584	2.1504
5.1277	2.2136
5.0975	2.2964
5.0676	2.4058
5.038	2.5425
5.0088	2.7092
4.98	2.8982
4.9514	3.1155
4.9232	3.365
4.8953	3.6172
4.8678	3.8384
4.8405	4.0132
4.8135	4.1352
4.7868	4.2178
4.7605	4.2754
4.7344	4.3171
4.7086	4.3462
4.6831	4.3664
4.6578	4.384
4.6328	4.4038
4.6081	4.4289
4.5837	4.4624
4.5595	4.5112
4.5356	4.5766
4.5119	4.6621
4.4884	4.7693
4.4652	4.8974
4.4423	5.0464
4.4196	5.2153
4.3971	5.406
4.3748	5.6201
4.3528	5.8515
4.331	6.0945
4.3094	6.3435
4.288	6.5947
4.2668	6.8345
4.2458	7.103
4.2251	7.3545
4.2045	7.6008
4.1841	7.8408
4.164	8.0715
4.144	8.2942
4.1242	8.5068
4.1046	8.7082
4.0852	8.9033
4.066	9.0859
4.047	9.2419
4.0281	9.3606
4.0094	9.4345
3.9909	9.4629
3.9725	9.5251
3.9544	9.6147
3.9363	9.6992
3.9185	9.7324
3.9008	9.74
3.8833	9.7302
3.8659	9.7007
3.8487	9.6567
3.8316	9.6013
3.8147	9.5305
3.7979	9.4414
3.7813	9.3318
3.7648	9.2046
3.7485	9.0657
3.7323	8.9179
3.7162	8.7585
3.7003	8.5876
3.6845	8.4033
3.6689	8.2119
3.6534	8.0158
3.638	7.8125
3.6227	7.5984
3.6076	7.3733
3.5926	7.1411
3.5777	6.8962
3.563	6.6433
3.5484	6.3767
3.5338	6.0832
3.5195	5.7617
3.5052	5.4492
3.491	5.2163
3.477	4.9883
3.463	4.7585
3.4492	4.4863
3.4355	4.2009
3.4219	3.9045
3.4084	3.6587
3.395	3.459
3.3817	3.2346
3.3685	3.0337
3.3554	2.8452
3.3425	2.6592
3.3296	2.4739
3.3168	2.2966
3.3041	2.1316
3.2915	1.9775
3.279	1.8374
3.2666	1.7087
3.2543	1.5889
3.2421	1.4807
3.23	1.3806
3.218	1.292
3.206	1.2117
3.1942	1.1379
3.1824	1.0728
3.1707	1.0149
3.1591	0.9622
3.1476	0.9165
3.1362	0.8765
3.1249	0.8425
3.1136	0.812
3.1024	0.7883
3.0913	0.771
3.0803	0.7561
3.0694	0.748
3.0585	0.7444
3.0477	0.7419
3.037	0.7383
3.0264	0.7327
3.0158	0.7246
3.0053	0.7134
2.9949	0.7041
2.9845	0.6934
2.9743	0.6836
2.9641	0.6765
2.9539	0.6685
2.9439	0.6626
2.9339	0.6606
2.9239	0.6553
2.9141	0.655
2.9043	0.6531
2.8946	0.6514
2.8849	0.6494
2.8753	0.6479
2.8658	0.6475
2.8563	0.6445
2.8469	0.6411
2.8375	0.6362
2.8282	0.6306
2.819	0.623
2.8098	0.614
2.8007	0.6038
2.7917	0.5928
2.7827	0.5847
2.7738	0.5791
2.7649	0.5771
2.7561	0.5786
2.7473	0.592
2.7386	0.6196
2.7299	0.6794
2.7213	0.8159
2.7128	1.1301
2.7043	1.6345
2.6959	2.1931
2.6875	2.761
2.6791	3.2532
2.6709	3.8765
2.6626	4.5989
2.6545	5.0073
2.6463	5.3335
2.6382	5.602
2.6302	5.8179
2.6222	5.9895
2.6143	6.126
2.6064	6.2334
2.5986	6.3218
2.5908	6.3916
2.583	6.4534
2.5753	6.509
2.5677	6.5671
2.5601	6.6279
2.5525	6.7073
2.545	6.8061
2.5375	6.9165
2.5301	7.043
2.5227	7.1782
2.5154	7.3154
2.5081	7.4604
2.5008	7.6079
2.4936	7.7549
2.4864	7.8977
2.4793	8.0449
2.4722	8.1931
2.4651	8.3498
2.4581	8.5198
2.4511	8.6975
2.4442	8.8926
2.4373	9.1081
2.4305	9.3559
2.4236	9.624
2.4169	9.9089
2.4101	10.2068
2.4034	10.5046
2.3967	10.8
2.3901	11.0884
2.3835	11.3664
2.377	11.6382
2.3704	11.9101
2.364	12.1689
2.3575	12.4055
2.3511	12.622
2.3447	12.8227
2.3384	13.0224
2.3321	13.2241
2.3258	13.4018
2.3195	13.5529
2.3133	13.6797
2.3071	13.7768
2.301	13.8654
2.2949	13.9394
2.2888	13.9975
2.2828	14.0537
2.2767	14.0771
2.2708	14.0715
2.2648	14.0434
2.2589	14.0212
2.253	14.0014
2.2471	14.0019
2.2413	14.0063
2.2355	14.0036
2.2297	13.9917
2.224	13.9909
2.2183	14.0056
2.2126	14.0334
2.207	14.0874
2.2013	14.1545
2.1957	14.2255
2.1902	14.2876
2.1846	14.3745
2.1791	14.5009
2.1736	14.6445
2.1682	14.7797
2.1628	14.8979
2.1574	14.9768
2.152	15.0339
2.1466	15.0661
2.1413	15.0869
2.136	15.0974
2.1308	15.0886
2.1255	15.0854
2.1203	15.0686
2.1151	15.051
2.11	15.0214
2.1048	15.0004
2.0997	14.977
2.0946	14.957
2.0895	14.9336
2.0845	14.9145
2.0795	14.8938
