Name: Tschermigite (NH_4)Al(SO_4)_2.12H_2O
Type: Mineral
Class: Sulfate
Subclass: None
Particle Size: Medium
Sample No.: SO-6A
Owner: JPL
Wavelength Range: VSWIR
Origin: USA, Nevada, Esmeralda County, Silver Peak
Description: Particle size was 45-125um.Collected by Burminco Original ASTER Spectral Library name was jpl.beckman.mineral.sulfate.none.medium.so06a.spectrum.txt
Measurement: Hemispherical reflectance
X Units: Wavelength (micrometers)
Y Units: Reflectance (percent)
wavelength	value
0.4	86.5
0.403	86.98
0.406	87.29
0.409	87.4
0.412	87.76
0.415	87.83
0.418	88.12
0.421	88.2
0.424	88.45
0.427	88.55
0.43	88.49
0.433	88.73
0.436	88.85
0.439	89.09
0.442	89.05
0.445	89.23
0.448	89.04
0.451	89.1
0.454	89.31
0.457	89.42
0.46	89.49
0.463	89.56
0.466	89.66
0.469	89.5
0.472	89.62
0.475	89.65
0.478	89.88
0.481	90.06
0.484	89.77
0.487	89.78
0.49	89.87
0.493	89.82
0.496	89.73
0.499	89.92
0.502	90
0.505	89.88
0.508	89.94
0.511	89.92
0.514	90.03
0.517	89.91
0.52	90.14
0.523	90.16
0.526	90.17
0.529	90.05
0.532	89.97
0.535	89.84
0.538	90.07
0.541	90.08
0.544	90.04
0.547	90.12
0.55	90.13
0.553	90.2
0.556	90.08
0.559	90.3
0.562	90.68
0.565	90.57
0.568	90.32
0.571	90.1
0.574	90.17
0.577	90.05
0.58	90.08
0.583	89.96
0.586	89.97
0.589	90.03
0.592	90.08
0.595	90.21
0.598	90.29
0.601	90.29
0.604	90.14
0.607	90.28
0.61	90.29
0.613	90.29
0.616	90.24
0.619	90.22
0.622	90.12
0.625	90.06
0.628	90.18
0.631	90.11
0.634	90.18
0.637	90.23
0.64	90.29
0.643	90.11
0.646	90.07
0.649	90.18
0.652	90.12
0.655	90.23
0.658	90.28
0.661	90.12
0.664	90.07
0.667	90.29
0.67	90
0.673	90.01
0.676	90.18
0.679	90.18
0.682	90.17
0.685	90.02
0.688	90.13
0.691	90.19
0.694	90.12
0.697	90.23
0.7	90.03
0.703	90.18
0.706	90.12
0.709	90.19
0.712	90.12
0.715	89.9
0.718	89.83
0.721	90.01
0.724	90.06
0.727	89.96
0.73	90.08
0.733	90.06
0.736	90.01
0.739	89.83
0.742	90.01
0.745	89.96
0.748	89.73
0.751	89.73
0.754	89.66
0.757	89.67
0.76	89.61
0.763	89.61
0.766	89.55
0.769	89.62
0.772	89.56
0.775	89.56
0.778	89.39
0.781	89.61
0.784	89.51
0.787	89.57
0.79	89.51
0.793	89.51
0.796	89.5
0.799	89.47
0.808	89.82
0.82	89.65
0.832	89.64
0.844	89.58
0.856	89.45
0.868	89.39
0.88	89.03
0.892	89.03
0.904	88.85
0.916	88.73
0.928	88.43
0.94	88.25
0.952	87.71
0.964	87.06
0.976	85.98
0.988	85.46
1	85.15
1.012	85.27
1.024	85.72
1.036	85.93
1.048	86.15
1.06	86.2
1.072	86.18
1.084	85.86
1.096	85.41
1.108	85.05
1.12	84.59
1.132	84
1.144	83.01
1.156	81.1
1.168	79.34
1.18	78.06
1.192	77.05
1.204	76.11
1.216	75.63
1.228	75.02
1.24	74.85
1.252	74.64
1.264	74.79
1.276	74.83
1.288	74.7
1.3	74.06
1.312	73.1
1.324	71.46
1.336	69.85
1.348	68.45
1.36	67.24
1.372	66.39
1.384	65.32
1.396	63.06
1.408	58.85
1.42	53.1
1.432	46.9
1.444	41.68
1.456	38.6
1.468	36.96
1.48	36.48
1.492	36.83
1.504	36.54
1.516	35.79
1.528	34.62
1.54	33.68
1.552	33.03
1.564	32.71
1.576	32.53
1.588	32.37
1.6	32.22
1.612	31.95
1.624	31.61
1.636	31.11
1.648	30.51
1.66	29.68
1.672	28.74
1.684	27.77
1.696	26.63
1.708	25.57
1.72	24.63
1.732	23.62
1.744	22.86
1.756	22.02
1.768	21.3
1.78	20.62
1.792	20.2
1.804	19.94
1.816	19.84
1.828	19.78
1.84	19.4
1.852	18.98
1.864	18.31
1.876	17.46
1.888	16.25
1.9	14.57
1.912	12.69
1.924	11.07
1.936	9.77
1.948	9.18
1.96	8.62
1.972	8.51
1.984	8.54
1.996	8.94
2.008	9.87
2.02	10.82
2.032	11.55
2.044	12.01
2.056	12.2
2.068	12.29
2.08	12.25
2.092	12.12
2.104	11.94
2.116	11.74
2.128	11.57
2.14	11.33
2.152	11.29
2.164	11.26
2.176	11.4
2.188	11.48
2.2	11.51
2.212	11.44
2.224	11.65
2.236	11.7
2.248	11.77
2.26	11.72
2.272	11.62
2.284	11.67
2.296	11.63
2.308	11.61
2.32	11.68
2.332	11.74
2.344	11.76
2.356	11.76
2.368	11.4
2.38	11.09
2.392	10.62
2.404	10.1
2.416	9.44
2.428	8.81
2.44	8.16
2.452	7.71
2.464	7.27
2.476	6.89
2.488	6.52
2.5	6.24
