Name: Cummingtonite (Mg,Fe^2+)_7Si_8O_22(OH)_2
Type: Mineral
Class: Silicate
Subclass: Inosilicate
Particle Size: Medium
Sample No.: IN-6A
Owner: JPL
Wavelength Range: TIR
Origin: USA, South Dakota
Description: Particle size was 45-125um.Collected by Ward's Original ASTER Spectral Library name was jpl.nicolet.mineral.silicate.inosilicate.medium.in06a.spectrum.txt
Measurement: Hemispherical reflectance
X Units: Wavelength (micrometers)
Y Units: Reflectance (percent)
wavelength	value
15.3853	2.9552
15.1161	2.8397
14.8563	3.043
14.6052	3.0423
14.3624	3.2973
14.1276	3.0603
13.9004	2.7617
13.6803	2.9345
13.4671	3.4174
13.2604	3.5276
13.06	3.9166
12.8656	4.3246
12.6769	3.2282
12.4936	3.8213
12.3155	3.7774
12.1425	4.2211
11.9742	4.6091
11.8106	5.2458
11.6513	5.6822
11.4963	6.3227
11.3454	6.397
11.1983	6.5429
11.0551	6.5995
10.9154	6.8548
10.7793	7.0176
10.6465	8.4663
10.5169	10.7872
10.3904	13.1496
10.267	13.7728
10.1464	14.1671
10.0287	17.199
9.9136	19.691
9.8012	20.5708
9.6913	20.545
9.5838	19.8744
9.4787	17.9201
9.3758	15.1238
9.2752	11.5319
9.1767	14.6286
9.0803	13.9556
8.9858	10.6956
8.8934	10.045
8.8028	10.1595
8.714	9.6619
8.627	6.9769
8.5417	5.352
8.4581	4.5842
8.3761	4.5517
8.2957	4.6589
8.2169	4.5221
8.1395	4.1491
8.0635	3.6562
7.989	3.1903
7.9158	3.2518
7.8439	3.2743
7.7734	3.2689
7.7041	3.4418
7.636	3.5587
7.5691	3.5811
7.5034	3.6806
7.4388	3.9559
7.3753	4.0667
7.3129	4.1964
7.2515	4.3576
7.1912	4.6278
7.1318	4.8973
7.0734	5.0519
7.016	5.1527
6.9595	5.4535
6.9039	5.7398
6.8492	5.8785
6.7953	6.112
6.7423	6.0004
6.6901	6.0422
6.6387	6.5037
6.5881	6.545
6.5382	6.4306
6.4892	6.8313
6.4408	6.688
6.3931	6.6202
6.3462	6.4068
6.2999	6.0967
6.2543	5.7421
6.2094	5.4277
6.1651	5.3659
6.1214	5.2807
6.0784	5.3281
6.0359	5.2806
5.994	5.6782
5.9527	5.8799
5.912	6.0206
5.8718	6.261
5.8322	6.2236
5.7931	6.1836
5.7545	5.9788
5.7165	6.0665
5.6789	5.9212
5.6418	5.8005
5.6052	5.7279
5.5691	5.7669
5.5334	5.7953
5.4982	6.2155
5.4635	6.4458
5.4291	6.3901
5.3952	6.2897
5.3618	6.2438
5.3287	6.2649
5.2961	6.427
5.2638	6.7539
5.2319	7.1084
5.2004	7.5249
5.1693	7.7135
5.1386	7.9993
5.1082	8.1099
5.0782	8.2023
5.0485	8.3333
5.0192	8.3125
4.9902	8.4238
4.9616	8.5745
4.9332	8.9601
4.9052	9.1943
4.8776	9.6152
4.8502	9.7586
4.8231	9.9769
4.7963	10.0814
4.7699	10.1395
4.7437	10.4838
4.7178	10.5469
4.6922	10.6006
4.6668	10.6891
4.6418	10.7796
4.617	10.86
4.5924	11.005
4.5681	11.0995
4.5441	11.1854
4.5203	11.2386
4.4968	11.0929
4.4735	11.2158
4.4505	11.1993
4.4277	11.3234
4.4051	11.3547
4.3828	11.3425
4.3607	11.4217
4.3388	11.4637
4.3171	11.4162
4.2956	11.5772
4.2744	11.629
4.2534	11.5371
4.2325	11.7659
4.2119	11.6949
4.1915	11.5912
4.1712	11.6047
4.1512	11.664
4.1313	11.7458
4.1117	11.6968
4.0922	11.7806
4.0729	11.7286
4.0538	11.6824
4.0349	11.7685
4.0161	11.6697
3.9976	11.7235
3.9792	11.6894
3.9609	11.6715
3.9428	11.7162
3.9249	11.7781
3.9072	11.7323
3.8896	11.7382
3.8722	11.785
3.8549	11.7737
3.8378	11.7053
3.8208	11.7794
3.804	11.7277
3.7873	11.7644
3.7708	11.5912
3.7544	11.7391
3.7382	11.69
3.7221	11.5758
3.7061	11.7275
3.6903	11.7198
3.6746	11.7225
3.659	11.504
3.6436	11.6447
3.6283	11.5933
3.6131	11.4588
3.5981	11.5581
3.5832	11.4575
3.5684	11.5463
3.5537	11.2769
3.5391	11.3505
3.5247	11.2711
3.5104	11.2767
3.4962	11.189
3.4821	11.1189
3.4681	11.0302
3.4543	11.0124
3.4405	10.939
3.4269	10.8886
3.4133	10.8218
3.3999	10.759
3.3866	10.6033
3.3733	10.5775
3.3602	10.4385
3.3472	10.3568
3.3343	10.3858
3.3215	10.3981
3.3088	10.161
3.2961	10.2055
3.2836	9.9946
3.2712	9.8532
3.2588	9.9381
3.2466	9.7438
3.2345	9.6646
3.2224	9.5112
3.2104	9.2564
3.1985	9.2394
3.1867	9.202
3.175	9.0698
3.1634	8.7289
3.1519	8.7012
3.1404	8.5306
3.129	8.3882
3.1178	8.2242
3.1065	8.1961
3.0954	7.9513
3.0844	7.802
3.0734	7.6815
3.0625	7.7053
3.0517	7.6482
3.041	7.4227
3.0303	7.4079
3.0197	7.1786
3.0092	7.2617
2.9987	7.1565
2.9884	6.8789
2.9781	6.922
2.9678	6.8322
2.9577	6.7605
2.9476	6.7356
2.9376	6.6343
2.9276	6.5137
2.9177	6.6208
2.9079	6.5546
2.8982	6.6865
2.8885	6.7115
2.8789	6.6725
2.8693	6.8627
2.8598	6.5342
2.8504	6.6604
2.841	6.5722
2.8317	6.4601
2.8224	6.2238
2.8133	6.1293
2.8041	6.3399
2.7951	6.4143
2.786	6.4986
2.7771	6.7374
2.7682	6.6704
2.7594	6.7387
2.7506	6.0176
2.7418	7.1915
2.7332	7.5035
2.7246	8.222
2.716	9.0125
2.7075	9.3308
2.699	9.8176
2.6906	10.151
2.6823	10.4892
2.674	10.582
2.6657	10.9079
2.6575	10.667
2.6494	10.6542
2.6413	10.5369
2.6332	10.5327
2.6252	10.6805
2.6173	10.744
2.6094	10.5266
2.6015	10.5121
2.5937	10.745
2.5859	10.408
2.5782	10.4237
2.5706	10.6267
2.5629	10.5569
2.5554	10.4704
2.5478	10.498
2.5403	10.4619
2.5329	10.4434
2.5255	10.3683
2.5181	10.2969
2.5108	10.4305
2.5035	10.3581
2.4963	10.4948
2.4891	10.4612
2.482	10.4741
2.4749	10.5414
2.4678	10.5922
2.4608	10.6936
2.4538	10.7198
2.4468	10.8008
2.4399	10.6724
2.4331	10.7154
2.4262	10.8147
2.4194	10.7149
2.4127	10.8514
2.4059	10.8265
2.3993	10.8745
2.3926	11.0278
2.386	10.6594
2.3795	11.0031
2.3729	11.1209
2.3664	11.1109
2.36	10.9644
2.3535	10.7449
2.3471	10.9342
2.3408	11.0885
2.3345	10.8453
2.3282	11.0723
2.3219	10.8749
2.3157	11.1803
2.3095	11.317
2.3034	11.2644
2.2972	11.36
2.2911	11.4769
2.2851	11.6351
2.279	11.636
2.2731	11.6781
2.2671	11.5071
2.2612	11.679
2.2553	11.7899
2.2494	11.8692
2.2435	12.0811
2.2377	11.8907
2.232	12.2076
2.2262	12.1722
2.2205	12.4101
2.2148	12.2654
2.2091	12.2442
2.2035	12.5497
2.1979	12.4961
2.1923	12.3576
2.1868	12.4791
2.1812	12.3337
2.1758	12.6599
2.1703	12.6995
2.1649	12.4858
2.1595	12.713
2.1541	12.7924
2.1487	12.6343
2.1434	12.943
2.1381	12.8725
2.1328	13.0246
2.1275	12.8501
2.1223	12.8629
2.1171	12.6512
2.112	12.9377
2.1068	13.0692
2.1017	12.9061
2.0966	13.114
2.0915	13.148
2.0865	13.2606
2.0814	12.8302
2.0764	12.8877
2.0715	12.7869
2.0665	13.2422
2.0616	13.0109
2.0567	13.245
2.0518	12.9524
2.0469	13.0512
2.0421	12.9669
2.0373	13.1654
2.0325	13.0539
2.0277	12.9713
2.0229	13.2491
2.0182	13.3738
2.0135	13.1659
2.0088	13.3789
2.0042	13.1259
