Name: Gypsum CaSO_4.2H_2O
Type: Mineral
Class: Sulfate
Subclass: None
Particle Size: Coarse
Sample No.: SO-2B
Owner: JPL
Wavelength Range: TIR
Origin: USA, Utah
Description: Particle size was 125-500um.Collected by Ward's Original ASTER Spectral Library name was jpl.nicolet.mineral.sulfate.none.coarse.so02b.spectrum.txt
Measurement: Hemispherical reflectance
X Units: Wavelength (micrometers)
Y Units: Reflectance (percent)
wavelength	value
15.3853	2.4189
15.1161	4.5228
14.8563	11.0405
14.6052	7.3757
14.3624	2.3612
14.1276	1.6237
13.9004	1.5267
13.6803	1.3695
13.4671	1.6756
13.2604	1.9068
13.06	2.0148
12.8656	2.1218
12.6769	2.282
12.4936	2.3772
12.3155	2.4433
12.1425	2.6074
11.9742	2.7529
11.8106	2.6281
11.6513	2.8836
11.4963	2.8218
11.3454	3.0896
11.1983	3.1004
11.0551	3.2021
10.9154	3.3825
10.7793	3.2911
10.6465	3.5008
10.5169	3.6896
10.3904	3.6292
10.267	3.7255
10.1464	3.8677
10.0287	4.1076
9.9136	4.2535
9.8012	4.5337
9.6913	4.766
9.5838	5.075
9.4787	5.6375
9.3758	6.5242
9.2752	7.5225
9.1767	9.6777
9.0803	13.1927
8.9858	20.1343
8.8934	24.4045
8.8028	28.451
8.714	32.0981
8.627	31.1388
8.5417	27.5063
8.4581	19.9621
8.3761	15.6452
8.2957	10.3964
8.2169	4.1402
8.1395	1.5103
8.0635	0.7894
7.989	0.3061
7.9158	0.3668
7.8439	0.369
7.7734	0.4413
7.7041	0.4345
7.636	0.6727
7.5691	0.7893
7.5034	1.051
7.4388	1.0962
7.3753	1.3129
7.3129	1.5941
7.2515	1.9372
7.1912	2.0276
7.1318	2.2713
7.0734	2.529
7.016	2.8266
6.9595	3.124
6.9039	3.2754
6.8492	3.4358
6.7953	3.4235
6.7423	3.7033
6.6901	3.6697
6.6387	3.7614
6.5881	3.4447
6.5382	3.2853
6.4892	3.3465
6.4408	3.2445
6.3931	3.2793
6.3462	3.2573
6.2999	3.2005
6.2543	3.2832
6.2094	3.7049
6.1651	4.6647
6.1214	1.8395
6.0784	1.9237
6.0359	2.2149
5.994	2.3623
5.9527	2.1756
5.912	2.2964
5.8718	3.0648
5.8322	3.7139
5.7931	4.0002
5.7545	4.4138
5.7165	4.8999
5.6789	5.3936
5.6418	5.9476
5.6052	6.3736
5.5691	6.8315
5.5334	7.5027
5.4982	8.3884
5.4635	9.2141
5.4291	9.5641
5.3952	9.9517
5.3618	10.1057
5.3287	10.3852
5.2961	10.6996
5.2638	10.8986
5.2319	11.1203
5.2004	11.1897
5.1693	10.9222
5.1386	10.6331
5.1082	10.4278
5.0782	10.4038
5.0485	10.2235
5.0192	10.2278
4.9902	9.9778
4.9616	9.8331
4.9332	9.7023
4.9052	9.3415
4.8776	8.8022
4.8502	8.3212
4.8231	7.4467
4.7963	6.5751
4.7699	4.9839
4.7437	3.5865
4.7178	3.3404
4.6922	3.425
4.6668	3.6048
4.6418	3.7466
4.617	3.711
4.5924	3.6472
4.5681	3.1556
4.5441	3.0427
4.5203	2.9928
4.4968	2.9468
4.4735	2.9971
4.4505	3.1146
4.4277	3.2791
4.4051	3.5703
4.3828	3.8419
4.3607	4.0726
4.3388	4.4122
4.3171	5.0864
4.2956	5.9132
4.2744	6.7073
4.2534	7.6892
4.2325	8.7089
4.2119	9.7064
4.1915	10.7059
4.1712	11.5948
4.1512	12.5777
4.1313	13.5586
4.1117	14.5735
4.0922	15.6581
4.0729	16.6881
4.0538	17.7731
4.0349	18.9433
4.0161	19.977
3.9976	20.68
3.9792	20.1551
3.9609	21.6063
3.9428	23.3167
3.9249	24.4768
3.9072	25.0339
3.8896	25.2605
3.8722	24.043
3.8549	26.0058
3.8378	26.6107
3.8208	26.7278
3.804	26.816
3.7873	26.7521
3.7708	26.7578
3.7544	26.6191
3.7382	26.4186
3.7221	26.2549
3.7061	26.2354
3.6903	25.8803
3.6746	25.5053
3.659	24.8557
3.6436	24.1661
3.6283	23.4552
3.6131	22.8371
3.5981	21.8677
3.5832	21.044
3.5684	20.4672
3.5537	19.8185
3.5391	19.4276
3.5247	19.1718
3.5104	18.7623
3.4962	18.1281
3.4821	17.5599
3.4681	16.9157
3.4543	16.386
3.4405	15.7004
3.4269	15.1378
3.4133	14.5795
3.3999	13.9008
3.3866	13.1021
3.3733	12.465
3.3602	11.5376
3.3472	11.0959
3.3343	10.5481
3.3215	9.9368
3.3088	9.3852
3.2961	8.5661
3.2836	8.0683
3.2712	7.6495
3.2588	7.1318
3.2466	6.7772
3.2345	6.6144
3.2224	6.1204
3.2104	6.077
3.1985	5.728
3.1867	5.5545
3.175	5.2397
3.1634	4.9288
3.1519	4.8616
3.1404	4.5117
3.129	4.3379
3.1178	4.1912
3.1065	4.1636
3.0954	3.9074
3.0844	3.7698
3.0734	3.5243
3.0625	3.53
3.0517	3.5754
3.041	3.6807
3.0303	3.6459
3.0197	3.5216
3.0092	3.5678
2.9987	3.6643
2.9884	3.8284
2.9781	3.9156
2.9678	4.3091
2.9577	4.6442
2.9476	5.0607
2.9376	5.8587
2.9276	5.6552
2.9177	4.1147
2.9079	2.7584
2.8982	1.895
2.8885	1.7877
2.8789	1.8419
2.8693	1.7092
2.8598	1.6895
2.8504	1.5956
2.841	1.6315
2.8317	1.9289
2.8224	1.7455
2.8133	1.8525
2.8041	2.0076
2.7951	1.8081
2.786	1.8489
2.7771	1.9721
2.7682	2.0688
2.7594	2.3951
2.7506	2.5967
2.7418	3.3245
2.7332	3.5741
2.7246	4.0736
2.716	4.6259
2.7075	5.3148
2.699	5.956
2.6906	6.4892
2.6823	6.978
2.674	7.4397
2.6657	8.5459
2.6575	8.7637
2.6494	9.5395
2.6413	10.0765
2.6332	10.3756
2.6252	10.6411
2.6173	10.7307
2.6094	11.1573
2.6015	10.9891
2.5937	11.3462
2.5859	11.1554
2.5782	11.2239
2.5706	11.3144
2.5629	11.5143
2.5554	11.5452
2.5478	11.8359
2.5403	11.8878
2.5329	11.8445
2.5255	11.7882
2.5181	11.7104
2.5108	11.2063
2.5035	11.0337
2.4963	10.6033
2.4891	10.5388
2.482	10.5931
2.4749	10.6606
2.4678	11.1865
2.4608	11.7856
2.4538	12.2145
2.4468	12.3968
2.4399	12.6496
2.4331	12.8447
2.4262	13.4823
2.4194	14.2708
2.4127	14.8358
2.4059	16.0826
2.3993	17.7897
2.3926	20.249
2.386	22.2904
2.3795	24.4489
2.3729	26.1572
2.3664	28.0089
2.36	29.4281
2.3535	30.6018
2.3471	31.5721
2.3408	32.5177
2.3345	33.6034
2.3282	34.0437
2.3219	34.1699
2.3157	34.1779
2.3095	34.6274
2.3034	34.3937
2.2972	34.058
2.2911	33.7195
2.2851	33.0393
2.279	31.988
2.2731	30.4682
2.2671	30.0395
2.2612	30.7039
2.2553	31.7662
2.2494	32.0507
2.2435	31.9007
2.2377	31.8466
2.232	30.7754
2.2262	29.4014
2.2205	28.0532
2.2148	28.4723
2.2091	29.2829
2.2035	29.9309
2.1979	30.8944
2.1923	31.4965
2.1868	31.6353
2.1812	31.7898
2.1758	32.1955
2.1703	32.6625
2.1649	33.1337
2.1595	34.2433
2.1541	34.7306
2.1487	35.5175
2.1434	36.3273
2.1381	36.918
2.1328	37.4528
2.1275	37.932
2.1223	38.7258
2.1171	39.5646
2.112	40.24
2.1068	41.4336
2.1017	41.9867
2.0966	42.9738
2.0915	43.2952
2.0865	44.1416
2.0814	44.5074
2.0764	44.9087
2.0715	44.8029
2.0665	44.5682
2.0616	44.9997
2.0567	44.7346
2.0518	44.8571
2.0469	44.6626
2.0421	43.9424
2.0373	43.3119
2.0325	42.1744
2.0277	41.6595
2.0229	40.6564
2.0182	38.5853
2.0135	36.3989
2.0088	34.2552
2.0042	30.9443
