Name: Tourmaline (Elbaite) Na(Li,Al)3Al6(BO3)3Si6018(OH)4
Type: Mineral
Class: Silicate
Subclass: Cyclosilicate
Particle Size: Solid
Sample No.: tourmal_1
Owner: JHU
Wavelength Range: TIR
Origin: Sao Jose De Brejuada, Minas Gerais, Brazil via the Smithsonian(sample no.  NMNH 94217-1)
Description: The sample was a purple, translucent, sudhedral crystal, with some green coloration at one end. The crystal was 5 mm x 2 cm x 2 cm in size.  Microscopic examination indicated that the mineral was pure. Sample measured was prism crystal face.(Ring Silicates) Original ASTER Spectral Library name was jhu.nicolet.mineral.silicate.cyclosilicate.solid.tourma1.spectrum.txt
Measurement: Bidirectional reflectance
X Units: Wavelength (micrometers)
Y Units: Reflectance (percent)
wavelength	value
25.0442	18.7617
24.3388	19.7485
23.6719	20.8911
23.0407	20.5869
22.4422	22.6069
21.8741	22.79
21.334	23.7023
20.8199	25.9789
20.33	29.5021
19.8627	33.8236
19.4163	35.4933
18.9896	36.8468
18.5812	36.7787
18.19	35.1098
17.815	32.3444
17.4551	29.5729
17.1094	28.9189
16.7772	28.7372
16.4576	26.433
16.15	24.5092
15.8537	24.864
15.568	22.8154
15.2925	19.3227
15.0265	18.9897
14.7697	16.0937
14.5214	10.7676
14.2814	13.2173
14.0492	19.132
13.8244	20.9687
13.6067	14.3022
13.3957	12.2102
13.1912	14.509
12.9929	15.0883
12.8004	22.9443
12.6135	27.9863
12.432	26.1091
12.2557	21.1801
12.0843	20.3032
11.9176	20.1318
11.7555	19.6901
11.5977	19.083
11.444	19.375
11.2944	19.8608
11.1487	20.2529
11.0067	20.7751
10.8682	21.2924
10.7332	21.7131
10.6015	22.3903
10.473	23.4846
10.3476	25.2602
10.2251	26.8334
10.1056	27.5185
9.9887	27.0353
9.8746	26.8652
9.763	28.8254
9.6539	30.0238
9.5472	29.631
9.4429	32.726
9.3408	29.7419
9.2409	17.0356
9.1431	24.9343
9.0474	31.9198
8.9536	35.6283
8.8618	34.9118
8.7718	23.041
8.6837	12.1511
8.5973	14.2563
8.5126	15.9411
8.4295	17.0095
8.3481	18.1132
8.2682	19.3786
8.1898	20.8129
8.1129	21.926
8.0374	22.1254
7.9634	22.2128
7.8906	22.602
7.8192	23.4445
7.7491	25.6203
7.6802	26.8395
7.6126	26.5217
7.5461	24.6271
7.4807	23.7968
7.4165	26.3515
7.3534	27.1225
7.2914	24.7255
7.2303	23.4638
7.1703	20.8039
7.1113	16.155
7.0533	14.1447
6.9962	9.0146
6.94	6.0703
6.8847	5.7507
6.8302	6.9414
6.7767	8.2959
6.7239	9.1123
6.672	9.9961
6.6209	10.4936
6.5705	10.8225
6.5209	11.2773
6.4721	11.7663
6.424	11.7661
6.3766	12.197
6.3299	12.5966
6.2838	12.7746
6.2385	12.9624
6.1937	13.0385
6.1496	13.2981
6.1062	13.447
6.0633	13.561
6.0211	13.5735
5.9794	13.758
5.9383	13.5024
5.8978	13.6591
5.8578	13.999
5.8184	14.0966
5.7794	14.0634
5.741	14.2011
5.7031	14.373
5.6657	14.4699
5.6288	14.5603
5.5924	14.6201
5.5564	14.6086
5.5209	14.7097
5.4859	14.7561
5.4513	14.8921
5.4171	14.9633
5.3833	15.0014
5.35	14.9646
5.3171	15.1281
5.2846	15.2065
5.2524	15.2519
5.2207	15.2343
5.1893	15.3271
5.1584	15.3689
5.1277	15.4094
5.0975	15.4321
5.0676	15.446
5.038	15.4455
5.0088	15.4699
4.98	15.5
4.9514	15.5307
4.9232	15.5258
4.8953	15.5407
4.8678	15.5888
4.8405	15.6189
4.8135	15.6474
4.7868	15.656
4.7605	15.6938
4.7344	15.748
4.7086	15.7954
4.6831	15.8188
4.6578	15.8623
4.6328	15.8945
4.6081	15.9472
4.5837	15.9936
4.5595	16.0285
4.5356	16.0417
4.5119	16.0744
4.4884	16.092
4.4652	16.1333
4.4423	16.1377
4.4196	16.133
4.3971	16.1242
4.3748	16.1381
4.3528	16.0612
4.331	15.8984
4.3094	15.7212
4.288	15.6281
4.2668	15.5771
4.2458	15.4331
4.2251	15.5998
4.2045	16.0063
4.1841	16.2146
4.164	16.2434
4.144	16.2805
4.1242	16.309
4.1046	16.3371
4.0852	16.3593
4.066	16.3925
4.047	16.4235
4.0281	16.4416
4.0094	16.4765
3.9909	16.4846
3.9725	16.5236
3.9544	16.5727
3.9363	16.5883
3.9185	16.5876
3.9008	16.6044
3.8833	16.633
3.8659	16.625
3.8487	16.6093
3.8316	16.6364
3.8147	16.6347
3.7979	16.642
3.7813	16.6377
3.7648	16.6342
3.7485	16.6423
3.7323	16.6355
3.7162	16.6496
3.7003	16.6442
3.6845	16.6667
3.6689	16.6789
3.6534	16.674
3.638	16.6987
3.6227	16.7326
3.6076	16.748
3.5926	16.7639
3.5777	16.7912
3.563	16.822
3.5484	16.8444
3.5338	16.8732
3.5195	16.9057
3.5052	16.8952
3.491	16.9167
3.477	16.9384
3.463	16.9614
3.4492	16.9472
3.4355	16.9567
3.4219	17.0048
3.4084	16.9843
3.395	16.9577
3.3817	16.9692
3.3685	16.9467
3.3554	16.9399
3.3425	16.9104
3.3296	16.9206
3.3168	16.9172
3.3041	16.9174
3.2915	16.9362
3.279	16.9277
3.2666	16.9213
3.2543	16.9306
3.2421	16.9252
3.23	16.9555
3.218	16.9497
3.206	16.9314
3.1942	16.9687
3.1824	16.9572
3.1707	16.946
3.1591	16.9697
3.1476	16.9985
3.1362	17.0131
3.1249	17.0424
3.1136	17.0161
3.1024	17.0275
3.0913	17.0075
3.0803	17.0371
3.0694	17.0161
3.0585	16.9882
3.0477	17.019
3.037	16.9875
3.0264	16.977
3.0158	16.936
3.0053	16.9389
2.9949	16.9692
2.9845	16.9267
2.9743	16.9355
2.9641	16.9182
2.9539	16.9223
2.9439	16.8715
2.9339	16.8916
2.9239	16.8325
2.9141	16.7749
2.9043	16.7846
2.8946	16.7749
2.8849	16.7343
2.8753	16.7871
2.8658	16.9287
2.8563	17.009
2.8469	17.1049
2.8375	16.9961
2.8282	16.8691
2.819	16.9377
2.8098	16.9462
2.8007	17.2949
2.7917	16.9921
2.7827	17.0258
2.7738	17.2473
2.7649	17.1533
2.7561	16.809
2.7473	17.094
2.7386	17.4375
2.7299	17.1396
2.7213	16.7109
2.7128	16.9877
2.7043	17.144
2.6959	16.7336
2.6875	16.8837
2.6791	16.7724
2.6709	16.6904
2.6626	17.06
2.6545	17.08
2.6463	16.9748
2.6382	17.1672
2.6302	17.2309
2.6222	17.1005
2.6143	17.2053
2.6064	17.0961
2.5986	17.0986
2.5908	17.2482
2.583	17.456
2.5753	17.4248
2.5677	17.4729
2.5601	17.6074
2.5525	17.4248
2.545	17.3701
2.5375	17.4348
2.5301	17.5371
2.5227	17.5444
2.5154	17.58
2.5081	17.6396
2.5008	17.6506
2.4936	17.6855
2.4864	17.6928
2.4793	17.6897
2.4722	17.76
2.4651	17.8596
2.4581	17.8134
2.4511	17.8447
2.4442	17.8964
2.4373	17.9482
2.4305	17.9934
2.4236	17.996
2.4169	18.0822
2.4101	18.1064
2.4034	18.2153
2.3967	18.1962
2.3901	18.2744
2.3835	18.246
2.377	18.3681
2.3704	18.3525
2.364	18.4775
2.3575	18.5854
2.3511	18.54
2.3447	18.6503
2.3384	18.6972
2.3321	18.6811
2.3258	18.8032
2.3195	18.8901
2.3133	18.8608
2.3071	18.875
2.301	18.955
2.2949	18.998
2.2888	19.124
2.2828	19.1254
2.2767	19.2373
2.2708	19.2407
2.2648	19.2465
2.2589	19.3281
2.253	19.3872
2.2471	19.5029
2.2413	19.5122
2.2355	19.58
2.2297	19.5595
2.224	19.747
2.2183	19.6625
2.2126	19.8266
2.207	19.7973
2.2013	19.8193
2.1957	19.979
2.1902	20.0751
2.1846	20.207
2.1791	20.1523
2.1736	20.1469
2.1682	20.229
2.1628	20.3832
2.1574	20.2485
2.152	20.4208
2.1466	20.3872
2.1413	20.4892
2.136	20.5527
2.1308	20.5761
2.1255	20.6508
2.1203	20.6738
2.1151	20.7875
2.11	20.872
2.1048	20.7387
2.0997	20.9399
2.0946	20.9179
2.0895	20.9257
2.0845	21.0805
2.0795	21.0981
