Name: Smithsonite PbCO_3
Type: Mineral
Class: Carbonate
Subclass: None
Particle Size: Medium
Sample No.: C-11A
Owner: JPL
Wavelength Range: TIR
Origin: N/A
Description: Particle size was 45-125um.Collected by JPL Original ASTER Spectral Library name was jpl.nicolet.mineral.carbonate.none.medium.c11a.spectrum.txt
Measurement: Hemispherical reflectance
X Units: Wavelength (micrometers)
Y Units: Reflectance (percent)
wavelength	value
15.3853	14.7085
15.1161	14.7177
14.8563	14.7374
14.6052	14.3984
14.3624	13.1945
14.1276	11.3874
13.9004	8.5223
13.6803	6.4222
13.4671	7.6478
13.2604	3.5361
13.06	7.8703
12.8656	10.6105
12.6769	11.8238
12.4936	12.6334
12.3155	12.1846
12.1425	10.8615
11.9742	9.7357
11.8106	8.8535
11.6513	10.0234
11.4963	18.0226
11.3454	26.4074
11.1983	7.6146
11.0551	7.5545
10.9154	8.4734
10.7793	8.8208
10.6465	8.7056
10.5169	8.576
10.3904	8.9907
10.267	9.4125
10.1464	10.3374
10.0287	10.4214
9.9136	10.3216
9.8012	9.7642
9.6913	8.4762
9.5838	8.0869
9.4787	8.0078
9.3758	7.8441
9.2752	7.5209
9.1767	7.2338
9.0803	7.4202
8.9858	7.957
8.8934	8.1457
8.8028	8.2112
8.714	8.2716
8.627	7.3748
8.5417	6.8618
8.4581	6.873
8.3761	7.0093
8.2957	7.1884
8.2169	7.1889
8.1395	7.2195
8.0635	7.4427
7.989	7.7581
7.9158	8.0475
7.8439	8.3907
7.7734	8.5137
7.7041	8.9106
7.636	9.1406
7.5691	9.6712
7.5034	10.1673
7.4388	11.0264
7.3753	12.0363
7.3129	13.2278
7.2515	15.5032
7.1912	18.2484
7.1318	25.6597
7.0734	26.5016
7.016	26.8356
6.9595	27.1604
6.9039	27.5762
6.8492	28.8043
6.7953	30.5483
6.7423	32.7699
6.6901	36.5597
6.6387	39.7184
6.5881	40.4171
6.5382	40.5334
6.4892	40.0555
6.4408	32.7368
6.3931	21.2181
6.3462	10.2891
6.2999	3.7119
6.2543	1.3924
6.2094	0.8488
6.1651	0.6867
6.1214	0.5209
6.0784	0.5741
6.0359	0.8191
5.994	0.888
5.9527	1.1394
5.912	1.3293
5.8718	1.702
5.8322	2.171
5.7931	2.6304
5.7545	2.8993
5.7165	3.1414
5.6789	3.1891
5.6418	3.3178
5.6052	3.1649
5.5691	2.5037
5.5334	1.8396
5.4982	1.8305
5.4635	2.1513
5.4291	4.9404
5.3952	10.6544
5.3618	14.93
5.3287	18.1536
5.2961	20.657
5.2638	22.2307
5.2319	23.449
5.2004	24.3507
5.1693	24.7477
5.1386	23.6021
5.1082	19.8395
5.0782	25.444
5.0485	26.7402
5.0192	27.1643
4.9902	27.2955
4.9616	27.5669
4.9332	27.8659
4.9052	28.1082
4.8776	28.4877
4.8502	28.4957
4.8231	28.4454
4.7963	28.1339
4.7699	27.3596
4.7437	25.6976
4.7178	21.2262
4.6922	14.6898
4.6668	13.7266
4.6418	15.6802
4.617	19.1196
4.5924	20.8207
4.5681	22.2512
4.5441	22.9181
4.5203	23.0335
4.4968	22.9198
4.4735	23.1033
4.4505	23.9961
4.4277	25.1223
4.4051	24.6016
4.3828	25.2064
4.3607	25.9428
4.3388	26.1422
4.3171	26.6237
4.2956	27.1586
4.2744	27.4161
4.2534	26.8944
4.2325	26.245
4.2119	25.0962
4.1915	24.2649
4.1712	23.5231
4.1512	22.0437
4.1313	20.2122
4.1117	17.9637
4.0922	15.1546
4.0729	11.175
4.0538	7.0542
4.0349	4.4801
4.0161	3.3525
3.9976	3.259
3.9792	3.4115
3.9609	3.8825
3.9428	4.5773
3.9249	4.7793
3.9072	5.0754
3.8896	5.2677
3.8722	5.3919
3.8549	5.4543
3.8378	5.8253
3.8208	7.0641
3.804	8.7079
3.7873	11.3758
3.7708	15.1698
3.7544	18.8125
3.7382	20.0822
3.7221	20.6097
3.7061	21.3696
3.6903	22.2406
3.6746	22.429
3.659	22.4631
3.6436	21.7681
3.6283	20.5846
3.6131	17.0262
3.5981	16.9796
3.5832	13.1067
3.5684	7.319
3.5537	5.5995
3.5391	4.9172
3.5247	4.5242
3.5104	4.1916
3.4962	4.5769
3.4821	5.2866
3.4681	5.6907
3.4543	5.8233
3.4405	5.8599
3.4269	5.7862
3.4133	5.6445
3.3999	5.4692
3.3866	5.4273
3.3733	5.4996
3.3602	5.3431
3.3472	5.4189
3.3343	5.5817
3.3215	8.375
3.3088	10.3587
3.2961	11.2638
3.2836	11.6811
3.2712	12.1335
3.2588	12.2863
3.2466	12.4454
3.2345	12.497
3.2224	12.4057
3.2104	12.392
3.1985	12.141
3.1867	11.9422
3.175	11.7225
3.1634	11.8805
3.1519	11.7716
3.1404	11.5819
3.129	11.4819
3.1178	11.1477
3.1065	10.9228
3.0954	11.0538
3.0844	10.9722
3.0734	10.8218
3.0625	10.6841
3.0517	10.9396
3.041	10.6449
3.0303	10.7726
3.0197	10.8195
3.0092	10.5368
2.9987	10.6081
2.9884	10.6974
2.9781	10.6876
2.9678	10.8201
2.9577	11.0177
2.9476	11.0556
2.9376	11.3492
2.9276	11.8553
2.9177	12.2435
2.9079	12.5965
2.8982	12.9512
2.8885	13.484
2.8789	14.2056
2.8693	14.8146
2.8598	15.4375
2.8504	16.2378
2.841	16.953
2.8317	17.4681
2.8224	18.6404
2.8133	19.6529
2.8041	20.0165
2.7951	21.2521
2.786	23.6112
2.7771	26.1589
2.7682	29.2276
2.7594	32.1197
2.7506	36.2722
2.7418	40.5301
2.7332	43.6821
2.7246	47.5019
2.716	49.6169
2.7075	52.5947
2.699	55.1257
2.6906	57.3867
2.6823	59.3286
2.674	60.7775
2.6657	62.672
2.6575	62.3912
2.6494	62.8103
2.6413	63.3599
2.6332	64.0315
2.6252	64.223
2.6173	64.6902
2.6094	63.8588
2.6015	62.5798
2.5937	62.3691
2.5859	58.991
2.5782	53.02
2.5706	46.115
2.5629	42.4853
2.5554	40.8485
2.5478	41.663
2.5403	43.5137
2.5329	45.1573
2.5255	46.1778
2.5181	47.0268
2.5108	47.5668
2.5035	48.0543
2.4963	49.1301
2.4891	50.3988
2.482	52.1628
2.4749	54.3358
2.4678	56.3718
2.4608	58.2739
2.4538	59.9006
2.4468	61.0861
2.4399	62.319
2.4331	63.401
2.4262	64.1339
2.4194	65.2287
2.4127	66.0011
2.4059	66.4043
2.3993	66.1736
2.3926	64.6562
2.386	60.9282
2.3795	57.1994
2.3729	55.1941
2.3664	54.6795
2.36	54.7771
2.3535	55.4251
2.3471	56.5372
2.3408	57.2784
2.3345	57.5926
2.3282	57.9895
2.3219	58.853
2.3157	59.4786
2.3095	60.5423
2.3034	61.629
2.2972	62.7949
2.2911	64.2242
2.2851	65.385
2.279	66.7037
2.2731	67.7218
2.2671	68.5784
2.2612	69.8099
2.2553	70.4136
2.2494	71.3471
2.2435	72.2349
2.2377	72.9009
2.232	73.4731
2.2262	74.076
2.2205	74.8278
2.2148	75.1847
2.2091	75.613
2.2035	75.6991
2.1979	76.1595
2.1923	76.0625
2.1868	76.0716
2.1812	76.19
2.1758	75.7874
2.1703	75.7532
2.1649	75.7376
2.1595	75.825
2.1541	75.7674
2.1487	76.1121
2.1434	76.3576
2.1381	76.6196
2.1328	76.7314
2.1275	76.8849
2.1223	76.8769
2.1171	76.7277
2.112	76.6669
2.1068	76.863
2.1017	76.868
2.0966	76.7596
2.0915	76.9571
2.0865	76.8203
2.0814	76.8833
2.0764	76.7538
2.0715	76.684
2.0665	76.7942
2.0616	76.782
2.0567	76.5329
2.0518	76.721
2.0469	76.4654
2.0421	76.5307
2.0373	76.3621
2.0325	76.0887
2.0277	75.8879
2.0229	75.7814
2.0182	75.3343
2.0135	74.8913
2.0088	74.8576
2.0042	74.461
