Name: Topaz Al2SiO4(F,OH)2
Type: Mineral
Class: Silicate
Subclass: Nesosilicate
Particle Size: Coarse
Sample No.: topaz_1
Owner: JHU
Wavelength Range: TIR
Origin: Rhondonia, Brazil via Don Hoover, USGS
Description: The sample was a 1 cm x 1 cm x 1 cm fragment of a single crystal.  It was colorless and appeared free of fluid inclusions under the microscope (however, the presence of a CO2 band at 4.3 micrometers in the infrared reflectance spectra of particulate samples shows that fluid inclusions are present). Particle size was 75 - 250  Micrometers.(Isolated tetrahedra) Original ASTER Spectral Library name was jhu.nicolet.mineral.silicate.nesosilicate.coarse.topaz1.spectrum.txt
Measurement: Bidirectional reflectance
X Units: Wavelength (micrometers)
Y Units: Reflectance (percent)
wavelength	value
25.0442	3.3476
24.3388	2.811
23.6719	3.6606
23.0407	4.8984
22.4422	7.3008
21.8741	10.4114
21.334	7.3681
20.8199	6.4062
20.33	5.831
19.8627	5.3913
19.4163	3.7385
18.9896	4.4311
18.5812	4.2148
18.19	5.0786
17.815	2.1982
17.4551	1.3777
17.1094	1.9475
16.7772	2.4861
16.4576	5.1609
16.15	8.8611
15.8537	9.5849
15.568	9.2922
15.2925	8.6809
15.0265	7.2671
14.7697	3.8559
14.5214	1.5012
14.2814	0.3936
14.0492	0.2944
13.8244	0.3201
13.6067	0.532
13.3957	0.7173
13.1912	0.9006
12.9929	1.0459
12.8004	1.21
12.6135	1.4551
12.432	1.7214
12.2557	2.0688
12.0843	2.572
11.9176	3.4206
11.7555	4.698
11.5977	7.0566
11.444	9.1601
11.2944	9.928
11.1487	9.6858
11.0067	8.8594
10.8682	8.8352
10.7332	8.5564
10.6015	10.2751
10.473	10.5932
10.3476	10.3064
10.2251	7.9565
10.1056	6.2939
9.9887	7.6865
9.8746	8.0915
9.763	6.9333
9.6539	6.1858
9.5472	5.6147
9.4429	4.6321
9.3408	3.4292
9.2409	2.22
9.1431	1.2007
9.0474	0.5457
8.9536	0.2
8.8618	0.0784
8.7718	0.0735
8.6837	0.1353
8.5973	0.3938
8.5126	0.2749
8.4295	0.0881
8.3481	0.1104
8.2682	0.1467
8.1898	0.1951
8.1129	0.2473
8.0374	0.2974
7.9634	0.3594
7.8906	0.4387
7.8192	0.5359
7.7491	0.6316
7.6802	0.6892
7.6126	0.7495
7.5461	0.8186
7.4807	0.8911
7.4165	0.9814
7.3534	1.1133
7.2914	1.2417
7.2303	1.3479
7.1703	1.4497
7.1113	1.5464
7.0533	1.5969
6.9962	1.6602
6.94	1.78
6.8847	1.9199
6.8302	2.0105
6.7767	2.0107
6.7239	2.0354
6.672	2.1616
6.6209	2.3474
6.5705	2.5164
6.5209	2.5984
6.4721	2.6965
6.424	2.8538
6.3766	3.0051
6.3299	3.1724
6.2838	3.2678
6.2385	3.4028
6.1937	3.5593
6.1496	3.7119
6.1062	3.8618
6.0633	4.1213
6.0211	4.4233
5.9794	4.6069
5.9383	4.3704
5.8978	3.9319
5.8578	3.551
5.8184	3.0886
5.7794	2.9216
5.741	3.0483
5.7031	2.948
5.6657	2.5159
5.6288	1.9302
5.5924	1.3853
5.5564	1.0918
5.5209	1.0149
5.4859	1.0427
5.4513	1.1186
5.4171	1.1816
5.3833	1.1663
5.35	1.2146
5.3171	1.3606
5.2846	1.554
5.2524	1.9143
5.2207	2.592
5.1893	3.3486
5.1584	3.978
5.1277	4.4995
5.0975	5.0918
5.0676	5.6714
5.038	6.1001
5.0088	6.3191
4.98	6.1003
4.9514	5.9451
4.9232	6.9031
4.8953	8.4026
4.8678	9.5356
4.8405	10.2751
4.8135	10.7978
4.7868	11.1355
4.7605	11.3291
4.7344	11.4726
4.7086	11.5647
4.6831	11.6455
4.6578	11.6379
4.6328	11.5949
4.6081	11.687
4.5837	11.8369
4.5595	11.9912
4.5356	12.2414
4.5119	12.4785
4.4884	12.6157
4.4652	12.6889
4.4423	12.7173
4.4196	12.6855
4.3971	12.5009
4.3748	11.905
4.3528	10.2751
4.331	7.4118
4.3094	5.9839
4.288	8.7517
4.2668	11.0461
4.2458	12.3239
4.2251	12.9231
4.2045	13.2321
4.1841	13.3986
4.164	13.498
4.144	13.5669
4.1242	13.6252
4.1046	13.6909
4.0852	13.7573
4.066	13.7673
4.047	13.6069
4.0281	13.1706
4.0094	13.519
3.9909	13.8413
3.9725	13.915
3.9544	13.9499
3.9363	13.9607
3.9185	13.917
3.9008	13.7536
3.8833	13.4963
3.8659	13.2649
3.8487	13.1823
3.8316	13.2527
3.8147	13.3679
3.7979	13.4936
3.7813	13.6228
3.7648	13.7382
3.7485	13.8232
3.7323	13.8347
3.7162	13.3176
3.7003	13.8435
3.6845	13.7993
3.6689	13.7226
3.6534	13.6467
3.638	13.603
3.6227	13.5927
3.6076	13.6057
3.5926	13.6154
3.5777	13.6357
3.563	13.6462
3.5484	13.6701
3.5338	13.6931
3.5195	13.7021
3.5052	13.5522
3.491	13.6677
3.477	13.7492
3.463	13.8068
3.4492	13.7866
3.4355	13.7016
3.4219	13.5119
3.4084	13.5622
3.395	13.7321
3.3817	13.7558
3.3685	13.833
3.3554	13.979
3.3425	14.0332
3.3296	14.007
3.3168	13.9863
3.3041	13.9521
3.2915	13.9289
3.279	13.904
3.2666	13.8259
3.2543	13.7492
3.2421	13.6753
3.23	13.6682
3.218	13.6308
3.206	13.542
3.1942	13.4629
3.1824	13.3654
3.1707	13.1909
3.1591	13.1269
3.1476	13.1101
3.1362	13.0583
3.1249	13.0385
3.1136	12.8537
3.1024	12.6281
3.0913	12.3139
3.0803	12.0561
3.0694	11.8842
3.0585	11.5725
3.0477	11.101
3.037	10.5232
3.0264	10.2219
3.0158	9.6811
3.0053	9.0212
2.9949	8.7356
2.9845	8.2202
2.9743	8.2673
2.9641	8.3037
2.9539	8.8708
2.9439	9.352
2.9339	9.6135
2.9239	9.6101
2.9141	9.239
2.9043	8.8872
2.8946	8.5796
2.8849	8.6755
2.8753	8.4736
2.8658	8.8857
2.8563	9.7568
2.8469	10.1828
2.8375	10.2439
2.8282	9.7876
2.819	9.6394
2.8098	9.3073
2.8007	8.6919
2.7917	7.9104
2.7827	7.1584
2.7738	6.0886
2.7649	4.1335
2.7561	1.6606
2.7473	0.823
2.7386	0.6882
2.7299	1.9463
2.7213	4.7197
2.7128	6.9656
2.7043	8.4499
2.6959	9.4985
2.6875	10.1989
2.6791	10.6555
2.6709	10.924
2.6626	11.0102
2.6545	11.0036
2.6463	10.8701
2.6382	10.5967
2.6302	10.0342
2.6222	9.0681
2.6143	9.105
2.6064	8.9199
2.5986	8.8196
2.5908	9.3152
2.583	9.6113
2.5753	8.9416
2.5677	8.1365
2.5601	7.3423
2.5525	6.341
2.545	6.1885
2.5375	6.2334
2.5301	6.2905
2.5227	6.6994
2.5154	7.3327
2.5081	8.0603
2.5008	8.2375
2.4936	9.1797
2.4864	9.687
2.4793	10.1382
2.4722	10.1509
2.4651	10.4712
2.4581	11.0327
2.4511	11.5954
2.4442	11.9629
2.4373	12.0136
2.4305	11.875
2.4236	11.8676
2.4169	11.9509
2.4101	12.3303
2.4034	12.6135
2.3967	12.7182
2.3901	12.874
2.3835	12.9694
2.377	12.9135
2.3704	12.997
2.364	13.1672
2.3575	13.3281
2.3511	13.372
2.3447	13.2658
2.3384	13.3066
2.3321	13.3256
2.3258	13.3579
2.3195	13.6513
2.3133	13.8381
2.3071	13.977
2.301	14.1284
2.2949	14.4294
2.2888	14.7202
2.2828	14.8393
2.2767	14.8252
2.2708	14.6137
2.2648	14.0464
2.2589	14.0131
2.253	14.8501
2.2471	15.0127
2.2413	15.0424
2.2355	15.0258
2.2297	14.9589
2.224	14.7553
2.2183	14.3584
2.2126	14.1206
2.207	14.1572
2.2013	14.1701
2.1957	14.3413
2.1902	14.4526
2.1846	14.3398
2.1791	14.1294
2.1736	13.9331
2.1682	13.9043
2.1628	13.7456
2.1574	13.2473
2.152	13.0324
2.1466	13.3532
2.1413	13.5542
2.136	14.0229
2.1308	14.5522
2.1255	14.7968
2.1203	14.8264
2.1151	14.728
2.11	14.4907
2.1048	14.1003
2.0997	13.4004
2.0946	11.8674
2.0895	8.5266
2.0845	4.5659
2.0795	6.0962
