Name: Cassiterite SnO_2
Type: Mineral
Class: Oxide
Subclass: None
Particle Size: Fine
Sample No.: O-3A
Owner: JPL
Wavelength Range: TIR
Origin: USA, South Dakota, Lawrence County, Tinton
Description: Particle size was 0-45um.Collected by Burminco Original ASTER Spectral Library name was jpl.nicolet.mineral.oxide.none.fine.o03a.spectrum.txt
Measurement: Hemispherical reflectance
X Units: Wavelength (micrometers)
Y Units: Reflectance (percent)
wavelength	value
15.3853	15.3135
15.1161	14.3784
14.8563	14.4722
14.6052	13.7398
14.3624	13.9802
14.1276	13.9074
13.9004	13.273
13.6803	13.0172
13.4671	12.4144
13.2604	11.5082
13.06	11.0785
12.8656	10.8516
12.6769	10.5222
12.4936	10.5043
12.3155	10.0745
12.1425	9.8485
11.9742	9.8588
11.8106	9.7289
11.6513	9.615
11.4963	9.5141
11.3454	9.3518
11.1983	9.2996
11.0551	9.2959
10.9154	9.1358
10.7793	9.2191
10.6465	9.2669
10.5169	9.3309
10.3904	9.3646
10.267	9.2979
10.1464	9.3483
10.0287	9.321
9.9136	9.4892
9.8012	9.4933
9.6913	9.6415
9.5838	10.0632
9.4787	9.9617
9.3758	9.6393
9.2752	10.0309
9.1767	9.8431
9.0803	10.1001
8.9858	9.8402
8.8934	10.0871
8.8028	9.882
8.714	9.7337
8.627	9.4187
8.5417	9.6698
8.4581	9.5658
8.3761	9.643
8.2957	9.5896
8.2169	9.6464
8.1395	9.5473
8.0635	9.2664
7.989	9.3173
7.9158	9.0565
7.8439	9.2053
7.7734	9.1644
7.7041	9.1145
7.636	9.0818
7.5691	9.0601
7.5034	9.0147
7.4388	9.1315
7.3753	9.031
7.3129	9.138
7.2515	9.1191
7.1912	9.0812
7.1318	8.9505
7.0734	8.8919
7.016	8.9659
6.9595	8.9831
6.9039	8.8347
6.8492	8.867
6.7953	8.9109
6.7423	8.7008
6.6901	8.7392
6.6387	8.7607
6.5881	8.6893
6.5382	8.751
6.4892	8.7621
6.4408	8.6196
6.3931	8.5164
6.3462	8.5825
6.2999	8.4411
6.2543	8.5302
6.2094	8.4187
6.1651	8.4233
6.1214	8.4466
6.0784	8.3184
6.0359	8.2545
5.994	8.264
5.9527	8.1463
5.912	8.1141
5.8718	8.0764
5.8322	8.0936
5.7931	8.012
5.7545	8.0712
5.7165	8.0204
5.6789	8.0221
5.6418	8.057
5.6052	7.9765
5.5691	7.9915
5.5334	7.8386
5.4982	7.9333
5.4635	7.9109
5.4291	7.8584
5.3952	7.7835
5.3618	7.6496
5.3287	7.7908
5.2961	7.6047
5.2638	7.7497
5.2319	7.6455
5.2004	7.6277
5.1693	7.6453
5.1386	7.555
5.1082	7.4179
5.0782	7.4028
5.0485	7.4513
5.0192	7.4585
4.9902	7.4467
4.9616	7.3233
4.9332	7.3002
4.9052	7.2165
4.8776	7.2605
4.8502	7.2039
4.8231	7.2769
4.7963	7.094
4.7699	7.1347
4.7437	7.0823
4.7178	7.1396
4.6922	7.0097
4.6668	6.9788
4.6418	6.9727
4.617	6.9309
4.5924	6.9556
4.5681	6.9658
4.5441	6.8985
4.5203	6.745
4.4968	6.7976
4.4735	6.7755
4.4505	6.6955
4.4277	6.6592
4.4051	6.6735
4.3828	6.681
4.3607	6.6128
4.3388	6.6741
4.3171	6.6911
4.2956	6.651
4.2744	6.6294
4.2534	6.4808
4.2325	6.6153
4.2119	6.4079
4.1915	6.4774
4.1712	6.4702
4.1512	6.442
4.1313	6.3522
4.1117	6.3846
4.0922	6.4068
4.0729	6.2772
4.0538	6.3391
4.0349	6.3716
4.0161	6.404
3.9976	6.2809
3.9792	6.2367
3.9609	6.2686
3.9428	6.3239
3.9249	6.2064
3.9072	6.3125
3.8896	6.2194
3.8722	6.169
3.8549	6.304
3.8378	6.1739
3.8208	6.1701
3.804	6.2167
3.7873	6.0663
3.7708	6.1304
3.7544	6.1448
3.7382	6.2397
3.7221	6.1922
3.7061	6.1369
3.6903	6.1425
3.6746	6.1858
3.659	6.216
3.6436	6.16
3.6283	6.2659
3.6131	6.1729
3.5981	6.248
3.5832	6.1141
3.5684	6.1802
3.5537	6.0774
3.5391	6.1832
3.5247	6.186
3.5104	6.0805
3.4962	6.112
3.4821	6.1146
3.4681	6.2122
3.4543	6.2133
3.4405	6.1047
3.4269	6.2203
3.4133	6.167
3.3999	6.0572
3.3866	6.3196
3.3733	6.2781
3.3602	6.0459
3.3472	6.1892
3.3343	6.2132
3.3215	6.295
3.3088	6.2627
3.2961	6.2773
3.2836	6.4073
3.2712	6.1826
3.2588	6.2142
3.2466	6.2869
3.2345	6.41
3.2224	6.3172
3.2104	6.3546
3.1985	6.1754
3.1867	6.2762
3.175	6.339
3.1634	6.2395
3.1519	6.2777
3.1404	6.265
3.129	6.2439
3.1178	6.3115
3.1065	6.2617
3.0954	6.1974
3.0844	6.3555
3.0734	6.369
3.0625	6.1997
3.0517	6.3478
3.041	6.1281
3.0303	6.1931
3.0197	6.2665
3.0092	6.2367
2.9987	6.2355
2.9884	6.1254
2.9781	6.3422
2.9678	6.0049
2.9577	6.2432
2.9476	6.1995
2.9376	6.1078
2.9276	6.2387
2.9177	6.1725
2.9079	6.1736
2.8982	6.0632
2.8885	6.2045
2.8789	6.2588
2.8693	6.4522
2.8598	6.4861
2.8504	6.6434
2.841	6.6706
2.8317	6.9446
2.8224	6.8178
2.8133	7.1397
2.8041	7.2355
2.7951	7.0858
2.786	7.0375
2.7771	7.0462
2.7682	7.0821
2.7594	7.2957
2.7506	6.9451
2.7418	7.2878
2.7332	7.1755
2.7246	7.5767
2.716	7.5554
2.7075	7.6172
2.699	7.8255
2.6906	7.9528
2.6823	7.9535
2.674	8.2197
2.6657	8.1427
2.6575	8.1349
2.6494	8.154
2.6413	8.1852
2.6332	8.2445
2.6252	8.1498
2.6173	8.3848
2.6094	8.3261
2.6015	8.5588
2.5937	8.5241
2.5859	8.3155
2.5782	8.4967
2.5706	8.5134
2.5629	8.6914
2.5554	8.4026
2.5478	8.5384
2.5403	8.6981
2.5329	8.6474
2.5255	8.7066
2.5181	8.6765
2.5108	8.7798
2.5035	8.8617
2.4963	8.9364
2.4891	8.8149
2.482	8.8055
2.4749	9.1091
2.4678	8.9722
2.4608	8.9687
2.4538	9.1147
2.4468	9.0787
2.4399	9.0538
2.4331	9.2056
2.4262	9.1608
2.4194	9.1897
2.4127	9.2068
2.4059	9.1794
2.3993	9.507
2.3926	9.2018
2.386	9.5728
2.3795	9.3994
2.3729	9.4744
2.3664	9.5049
2.36	9.6259
2.3535	9.5373
2.3471	9.7236
2.3408	9.8547
2.3345	9.6301
2.3282	9.908
2.3219	9.8077
2.3157	10.0913
2.3095	9.9062
2.3034	9.9283
2.2972	9.9608
2.2911	9.8734
2.2851	9.7467
2.279	10.0788
2.2731	10.1088
2.2671	10.0189
2.2612	10.1546
2.2553	10.266
2.2494	10.438
2.2435	10.4606
2.2377	10.2231
2.232	10.5359
2.2262	10.4218
2.2205	10.4136
2.2148	10.6126
2.2091	10.5374
2.2035	10.4745
2.1979	10.7548
2.1923	10.6142
2.1868	10.6587
2.1812	10.7929
2.1758	10.65
2.1703	10.6283
2.1649	10.8414
2.1595	10.6856
2.1541	10.5658
2.1487	11.1634
2.1434	10.8805
2.1381	10.9697
2.1328	11.0048
2.1275	11.1224
2.1223	10.9836
2.1171	11.3317
2.112	11.2252
2.1068	11.2033
2.1017	11.4758
2.0966	11.6076
2.0915	11.1669
2.0865	11.1555
2.0814	11.1788
2.0764	11.312
2.0715	11.5397
2.0665	11.3618
2.0616	11.4979
2.0567	11.6992
2.0518	11.5015
2.0469	11.8144
2.0421	11.5687
2.0373	11.4886
2.0325	11.9547
2.0277	11.9822
2.0229	11.7919
2.0182	11.9969
2.0135	11.8199
2.0088	11.6949
2.0042	11.8628
