Name: Quartz SiO_2
Type: Mineral
Class: Silicate
Subclass: Tectosilicate
Particle Size: Fine
Sample No.: TS-1B
Owner: JPL
Wavelength Range: TIR
Origin: Brazil, Minas Gerais
Description: Smoky quartz. Particle size was 0-45um.Collected by Burminco Original ASTER Spectral Library name was jpl.nicolet.mineral.silicate.tectosilicate.fine.ts01b.spectrum.txt
Measurement: Hemispherical reflectance
X Units: Wavelength (micrometers)
Y Units: Reflectance (percent)
wavelength	value
15.3853	19.488
15.1161	18.3967
14.8563	15.6272
14.6052	9.7643
14.3624	3.7227
14.1276	9.0067
13.9004	13.8636
13.6803	15.2326
13.4671	14.2019
13.2604	11.7248
13.06	7.7644
12.8656	7.527
12.6769	5.6885
12.4936	6.322
12.3155	1.4229
12.1425	4.2464
11.9742	9.1147
11.8106	12.6291
11.6513	14.9537
11.4963	15.9182
11.3454	17.2387
11.1983	17.4467
11.0551	18.1872
10.9154	18.3804
10.7793	17.6042
10.6465	16.5975
10.5169	15.7374
10.3904	15.0045
10.267	14.1866
10.1464	12.9175
10.0287	11.722
9.9136	11.6671
9.8012	11.3647
9.6913	10.7033
9.5838	10.2666
9.4787	12.3829
9.3758	19.5452
9.2752	24.8242
9.1767	24.7209
9.0803	24.4995
8.9858	24.2415
8.8934	24.0124
8.8028	22.784
8.714	21.2177
8.627	14.266
8.5417	21.1894
8.4581	21.3619
8.3761	20.8255
8.2957	21.6976
8.2169	24.3563
8.1395	22.8299
8.0635	16.4637
7.989	11.9006
7.9158	7.7849
7.8439	4.8755
7.7734	3.5322
7.7041	2.6276
7.636	1.5899
7.5691	1.0041
7.5034	0.5532
7.4388	0.3264
7.3753	0.3894
7.3129	0.3811
7.2515	1.0295
7.1912	1.4425
7.1318	2.0152
7.0734	2.4712
7.016	3.2786
6.9595	4.3287
6.9039	5.0807
6.8492	5.2758
6.7953	5.1759
6.7423	4.6597
6.6901	4.7294
6.6387	5.7883
6.5881	5.4829
6.5382	5.5036
6.4892	9.7258
6.4408	12.9098
6.3931	12.5011
6.3462	9.8111
6.2999	7.0952
6.2543	5.1938
6.2094	4.5002
6.1651	6.0043
6.1214	10.027
6.0784	13.18
6.0359	13.5501
5.994	12.2214
5.9527	9.6557
5.912	10.2846
5.8718	14.1051
5.8322	17.8314
5.7931	21.1388
5.7545	23.958
5.7165	25.7785
5.6789	23.516
5.6418	16.6682
5.6052	12.5314
5.5691	11.9762
5.5334	13.6083
5.4982	16.9446
5.4635	19.9311
5.4291	18.1851
5.3952	11.2746
5.3618	6.9052
5.3287	6.6192
5.2961	7.4498
5.2638	9.8627
5.2319	15.199
5.2004	20.0698
5.1693	19.7778
5.1386	19.0021
5.1082	18.7397
5.0782	16.6345
5.0485	15.7602
5.0192	15.4737
4.9902	16.2266
4.9616	20.9837
4.9332	24.5077
4.9052	31.6594
4.8776	43.4544
4.8502	50.5317
4.8231	54.6809
4.7963	57.6347
4.7699	59.925
4.7437	61.5163
4.7178	61.8949
4.6922	58.4319
4.6668	59.4088
4.6418	63.6899
4.617	66.6303
4.5924	67.7769
4.5681	67.7301
4.5441	65.5915
4.5203	61.0117
4.4968	55.4253
4.4735	53.4879
4.4505	55.0289
4.4277	56.8652
4.4051	59.3389
4.3828	62.3937
4.3607	65.5054
4.3388	67.3827
4.3171	67.8775
4.2956	67.4084
4.2744	67.9475
4.2534	69.1321
4.2325	68.6587
4.2119	69.013
4.1915	69.1755
4.1712	70.138
4.1512	70.7998
4.1313	71.5438
4.1117	72.5516
4.0922	73.4874
4.0729	74.1675
4.0538	74.3928
4.0349	74.2788
4.0161	74.0584
3.9976	74.2138
3.9792	74.5959
3.9609	75.0588
3.9428	75.6573
3.9249	75.903
3.9072	75.9231
3.8896	75.548
3.8722	75.2027
3.8549	75.0744
3.8378	75.1013
3.8208	75.3089
3.804	75.5045
3.7873	75.3799
3.7708	75.0505
3.7544	74.5611
3.7382	74.6015
3.7221	74.9373
3.7061	75.4331
3.6903	76.1719
3.6746	76.7523
3.659	77.1889
3.6436	77.3803
3.6283	77.353
3.6131	77.4198
3.5981	77.5507
3.5832	77.5848
3.5684	77.7026
3.5537	77.8664
3.5391	77.9924
3.5247	77.9091
3.5104	77.2588
3.4962	76.8263
3.4821	77.5177
3.4681	77.5681
3.4543	77.4966
3.4405	77.0083
3.4269	76.03
3.4133	75.2463
3.3999	76.2847
3.3866	76.7119
3.3733	76.6033
3.3602	77.3543
3.3472	77.6931
3.3343	77.8504
3.3215	78.1278
3.3088	78.0092
3.2961	77.987
3.2836	77.8587
3.2712	77.8335
3.2588	77.7321
3.2466	77.5489
3.2345	77.4893
3.2224	77.4255
3.2104	77.3117
3.1985	77.2246
3.1867	76.9632
3.175	76.8997
3.1634	76.7325
3.1519	76.6605
3.1404	76.2487
3.129	75.9908
3.1178	75.8997
3.1065	75.8707
3.0954	75.8972
3.0844	75.7448
3.0734	75.6202
3.0625	75.4176
3.0517	75.0472
3.041	74.7742
3.0303	74.6141
3.0197	74.5452
3.0092	74.592
2.9987	74.5748
2.9884	74.4185
2.9781	74.5579
2.9678	74.1602
2.9577	73.7408
2.9476	74.238
2.9376	74.2902
2.9276	74.4068
2.9177	74.3288
2.9079	74.6646
2.8982	74.6332
2.8885	75.029
2.8789	75.0364
2.8693	75.2801
2.8598	75.5138
2.8504	75.9315
2.841	76.2303
2.8317	76.2648
2.8224	76.4405
2.8133	76.6744
2.8041	77.1205
2.7951	76.8088
2.786	77.3859
2.7771	77.4056
2.7682	77.9676
2.7594	77.499
2.7506	78.1846
2.7418	79.082
2.7332	79.1463
2.7246	80.5439
2.716	80.5187
2.7075	80.8654
2.699	81.1892
2.6906	81.6295
2.6823	81.7876
2.674	82.2411
2.6657	83.5077
2.6575	82.3532
2.6494	82.2564
2.6413	82.4566
2.6332	82.5922
2.6252	82.6054
2.6173	83.0787
2.6094	82.5956
2.6015	82.6107
2.5937	83.3164
2.5859	82.85
2.5782	82.5011
2.5706	82.7084
2.5629	82.8938
2.5554	82.3989
2.5478	82.4865
2.5403	82.4283
2.5329	82.4866
2.5255	82.3267
2.5181	82.4309
2.5108	82.4264
2.5035	82.4198
2.4963	82.4468
2.4891	82.5224
2.482	82.4346
2.4749	82.435
2.4678	82.5005
2.4608	82.41
2.4538	82.4055
2.4468	82.543
2.4399	82.4003
2.4331	82.5398
2.4262	82.5307
2.4194	82.4207
2.4127	82.401
2.4059	82.5924
2.3993	82.4309
2.3926	82.5461
2.386	82.5346
2.3795	82.5022
2.3729	82.4571
2.3664	82.6394
2.36	82.5396
2.3535	82.5105
2.3471	82.5359
2.3408	82.4674
2.3345	82.5776
2.3282	82.5364
2.3219	82.6484
2.3157	82.459
2.3095	82.4919
2.3034	82.5763
2.2972	82.4377
2.2911	82.5615
2.2851	82.5969
2.279	82.5605
2.2731	82.5294
2.2671	82.4423
2.2612	82.6168
2.2553	82.6265
2.2494	82.3704
2.2435	82.5813
2.2377	82.5439
2.232	82.5634
2.2262	82.5397
2.2205	82.6249
2.2148	82.4212
2.2091	82.4522
2.2035	82.5941
2.1979	82.5576
2.1923	82.6126
2.1868	82.7429
2.1812	82.5559
2.1758	82.5392
2.1703	82.631
2.1649	82.7905
2.1595	82.538
2.1541	82.4904
2.1487	82.8807
2.1434	82.6222
2.1381	82.7248
2.1328	82.7544
2.1275	82.6079
2.1223	82.8588
2.1171	82.6602
2.112	82.6499
2.1068	82.741
2.1017	82.5969
2.0966	82.7731
2.0915	82.7454
2.0865	82.6159
2.0814	82.8776
2.0764	82.8619
2.0715	82.8299
2.0665	83.0167
2.0616	82.6794
2.0567	82.6726
2.0518	82.6819
2.0469	82.7918
2.0421	82.6273
2.0373	82.7077
2.0325	82.4846
2.0277	82.8074
2.0229	82.7289
2.0182	82.6321
2.0135	82.5121
2.0088	82.695
2.0042	83.0044
