Name: Saponite (Ca/2,Na)0.33(Mg,Fe+2)3(Si,Al)4O10(OH)2.H2O
Type: Mineral
Class: Silicate
Subclass: Phyllosilicate
Particle Size: Fine
Sample No.: saponite_1
Owner: JHU
Wavelength Range: TIR
Origin: Ballarat, California, USA via the Hunt and Salisbury Collection#CMS SapCa-1 (purchased from the Clay Mineral Society Repository)
Description: Sample was a cream-colored, earthy clay. The less than 2 micrometers size fraction is saponite with a trace of unknown material with X-ray peaks at 8.6, 3.26 and 3.14 angstroms.  The coarser fraction contains quartz and was discarded.(Sheet silicates); Smectite GroupParticle size was Less than 2  Micrometers. Original ASTER Spectral Library name was jhu.nicolet.mineral.silicate.phyllosilicate.powder.saponi1.spectrum.txt
Measurement: Transmission
X Units: Wavelength (micrometers)
Y Units: Transmittance (percent)
wavelength	value
25.0442	59.1092
24.3388	51.6639
23.6719	47.1844
23.0407	42.5878
22.4422	38.4276
21.8741	40.7694
21.334	42.5907
20.8199	49.4183
20.33	53.9462
19.8627	57.0467
19.4163	58.9832
18.9896	59.0975
18.5812	62.1507
18.19	67.699
17.815	71.681
17.4551	76.0848
17.1094	79.5452
16.7772	81.6922
16.4576	82.3885
16.15	82.459
15.8537	81.5674
15.568	77.7557
15.2925	71.376
15.0265	70.16
14.7697	73.2625
14.5214	73.4285
14.2814	76.5389
14.0492	81.5821
13.8244	85.6096
13.6067	87.5069
13.3957	88.6492
13.1912	89.086
12.9929	89.6985
12.8004	89.0508
12.6135	88.8799
12.432	88.5515
12.2557	88.9221
12.0843	89.6453
11.9176	88.6326
11.7555	86.4226
11.5977	83.8133
11.444	80.833
11.2944	77.263
11.1487	73.0135
11.0067	68.9669
10.8682	65.4381
10.7332	61.7352
10.6015	57.1354
10.473	52.5755
10.3476	48.4252
10.2251	45.1449
10.1056	42.6891
9.9887	41.1112
9.8746	41.4638
9.763	43.8099
9.6539	46.6386
9.5472	49.202
9.4429	50.9794
9.3408	54.4942
9.2409	57.2098
9.1431	59.0169
9.0474	60.3141
8.9536	61.6505
8.8618	63.0062
8.7718	64.7313
8.6837	66.9466
8.5973	69.1138
8.5126	70.5911
8.4295	71.9766
8.3481	73.1663
8.2682	74.3641
8.1898	75.4312
8.1129	76.4432
8.0374	77.2698
7.9634	78.2019
7.8906	78.9163
7.8192	79.4385
7.7491	79.9964
7.6802	80.5787
7.6126	81.2295
7.5461	81.7874
7.4807	82.1924
7.4165	82.5857
7.3534	82.9485
7.2914	83.3831
7.2303	83.7659
7.1703	84.3902
7.1113	84.7957
7.0533	84.968
6.9962	85.3499
6.94	85.8333
6.8847	86.0308
6.8302	86.1514
6.7767	86.4414
6.7239	86.6834
6.672	86.9676
6.6209	87.2146
6.5705	87.6199
6.5209	87.8147
6.4721	88.0398
6.424	88.3914
6.3766	88.4993
6.3299	88.574
6.2838	88.7
6.2385	88.7268
6.1937	88.2368
6.1496	87.2571
6.1062	86.9212
6.0633	87.2705
6.0211	88.2049
5.9794	89.054
5.9383	88.9221
5.8978	88.9068
5.8578	89.0178
5.8184	89.409
5.7794	89.5176
5.741	89.6187
5.7031	89.6145
5.6657	89.6467
5.6288	89.8352
5.5924	89.8928
5.5564	90.0032
5.5209	90.094
5.4859	90.1931
5.4513	90.3479
5.4171	90.5232
5.3833	90.5115
5.35	90.699
5.3171	90.6651
5.2846	90.7561
5.2524	90.8289
5.2207	90.9883
5.1893	91.1079
5.1584	91.2708
5.1277	91.4338
5.0975	91.5696
5.0676	91.595
5.038	91.6939
5.0088	91.7786
4.98	91.8416
4.9514	91.9273
4.9232	91.9065
4.8953	91.8958
4.8678	91.9368
4.8405	92.011
4.8135	92.0613
4.7868	92.1248
4.7605	92.1353
4.7344	92.1572
4.7086	92.2061
4.6831	92.2312
4.6578	92.2952
4.6328	92.333
4.6081	92.5432
4.5837	92.4148
4.5595	92.4241
4.5356	92.4607
4.5119	92.4753
4.4884	92.4788
4.4652	92.5129
4.4423	92.5613
4.4196	92.554
4.3971	92.6062
4.3748	92.676
4.3528	92.6858
4.331	92.7058
4.3094	92.7009
4.288	92.7175
4.2668	92.7322
4.2458	92.7659
4.2251	92.7742
4.2045	92.7488
4.1841	92.8357
4.164	92.863
4.144	92.7732
4.1242	92.8521
4.1046	92.855
4.0852	92.8586
4.066	92.8684
4.047	92.8442
4.0281	92.846
4.0094	92.8804
3.9909	92.9148
3.9725	92.8347
3.9544	92.9043
3.9363	92.9336
3.9185	92.9307
3.9008	92.9128
3.8833	92.9385
3.8659	92.8962
3.8487	92.9548
3.8316	92.9573
3.8147	92.9609
3.7979	92.9451
3.7813	92.9353
3.7648	92.9211
3.7485	92.9099
3.7323	92.8894
3.7162	92.8518
3.7003	92.8413
3.6845	92.8157
3.6689	92.7957
3.6534	92.7664
3.638	92.7571
3.6227	92.6641
3.6076	92.7119
3.5926	92.6423
3.5777	92.6348
3.563	92.575
3.5484	92.5486
3.5338	92.5315
3.5195	92.4375
3.5052	92.4573
3.491	92.325
3.477	92.3176
3.463	92.2783
3.4492	92.2617
3.4355	92.2481
3.4219	92.1924
3.4084	91.989
3.395	92.0037
3.3817	92.0303
3.3685	92.041
3.3554	91.7908
3.3425	91.8059
3.3296	91.8206
3.3168	91.7454
3.3041	91.74
3.2915	91.6416
3.279	91.5059
3.2666	91.407
3.2543	91.3672
3.2421	91.346
3.23	91.168
3.218	91.1553
3.206	90.9998
3.1942	90.8005
3.1824	90.6543
3.1707	90.4824
3.1591	90.2305
3.1476	90.0508
3.1362	89.8416
3.1249	89.6531
3.1136	89.4385
3.1024	89.1091
3.0913	88.822
3.0803	88.6865
3.0694	88.6172
3.0585	88.4629
3.0477	88.1326
3.037	87.9529
3.0264	87.6306
3.0158	87.3643
3.0053	87.125
2.9949	86.8279
2.9845	86.418
2.9743	86.083
2.9641	85.8955
2.9539	85.6687
2.9439	85.6126
2.9339	85.5384
2.9239	85.4778
2.9141	85.4085
2.9043	85.4436
2.8946	85.4456
2.8849	85.4422
2.8753	85.3333
2.8658	85.2508
2.8563	85.2586
2.8469	85.2542
2.8375	85.1443
2.8282	85.1511
2.819	85.2361
2.8098	85.2171
2.8007	85.156
2.7917	85.1121
2.7827	85.157
2.7738	85.1463
2.7649	85.1756
2.7561	85.3045
2.7473	85.6175
2.7386	86.2254
2.7299	85.4793
2.7213	80.7635
2.7128	81.865
2.7043	85.5847
2.6959	86.322
2.6875	86.3455
2.6791	86.8738
2.6709	87.4553
2.6626	87.5271
2.6545	87.5584
2.6463	87.8084
2.6382	87.7542
2.6302	87.9031
2.6222	87.8103
2.6143	87.7459
2.6064	87.822
2.5986	87.6956
2.5908	87.7854
2.583	87.7547
2.5753	87.5984
2.5677	87.6179
2.5601	87.6101
2.5525	87.4705
2.545	87.3123
2.5375	87.4964
2.5301	87.4475
2.5227	87.2244
2.5154	87.2547
2.5081	87.3928
2.5008	87.2151
2.4936	87.0818
2.4864	87.0056
2.4793	87.0139
2.4722	87.012
2.4651	86.9417
2.4581	86.9475
2.4511	86.7674
2.4442	86.7049
2.4373	86.658
2.4305	86.6414
2.4236	86.6179
2.4169	86.6463
2.4101	86.5574
2.4034	86.3689
2.3967	86.4021
2.3901	86.3592
2.3835	86.4519
2.377	86.2361
2.3704	86.3943
2.364	86.3836
2.3575	86.2283
2.3511	86.4031
2.3447	86.3084
2.3384	86.0252
2.3321	86.0955
2.3258	85.8054
2.3195	86.0486
2.3133	86.0125
2.3071	85.7205
2.301	85.8572
2.2949	86.1736
2.2888	86.0603
2.2828	85.9217
2.2767	85.9353
2.2708	85.7732
2.2648	86.0369
2.2589	85.9353
2.253	86.0545
2.2471	85.9578
2.2413	85.9656
2.2355	85.9646
2.2297	86.3015
2.224	85.9138
2.2183	86.0554
2.2126	86.0252
2.207	85.8758
2.2013	86.2517
2.1957	86.2029
2.1902	85.7937
2.1846	86.0193
2.1791	85.8084
2.1736	86.2263
2.1682	86.2498
2.1628	86.282
2.1574	86.1052
2.152	85.9822
2.1466	85.9177
2.1413	85.9373
2.136	86.4187
2.1308	86.3728
2.1255	86.3162
2.1203	86.2937
2.1151	86.2273
2.11	86.2771
2.1048	86.4695
2.0997	86.6297
2.0946	86.8123
2.0895	86.5427
2.0845	85.8679
2.0795	87.0388
