Name: Pyrophyllite Al2Si4010(OH)2
Type: Mineral
Class: Silicate
Subclass: Phyllosilicate
Particle Size: Fine
Sample No.: pyroph_1
Owner: JHU
Wavelength Range: TIR
Origin: Stanley, North Carolina, USA via Bruce Hemingway, USGS
Description: The sample consisted of clusters of white radiating acicular crystals which appeared pure in hand sample and under the petrographic microscope.  Acicular crystals could not be effectively sifted and the coarse fraction was separated from the fine fraction by elutriation in acetone. Sample particle size was less than 2  Micrometers.(Sheet Silicates); Talk/Pyrophyllite Group Original ASTER Spectral Library name was jhu.nicolet.mineral.silicate.phyllosilicate.powder.pyroph1.spectrum.txt
Measurement: Transmission
X Units: Wavelength (micrometers)
Y Units: Transmittance (percent)
wavelength	value
25.0442	47.9608
24.3388	39.3319
23.6719	33.0468
23.0407	36.5253
22.4422	22.4628
21.8741	13.7519
21.334	13.0879
20.8199	3.1035
20.33	18.1152
19.8627	39.746
19.4163	19.6992
18.9896	18.5429
18.5812	7.708
18.19	17.121
17.815	26.8886
17.4551	26.122
17.1094	32.0009
16.7772	47.7518
16.4576	57.9374
16.15	63.9266
15.8537	67.1307
15.568	73.2176
15.2925	76.993
15.0265	79.8064
14.7697	81.5203
14.5214	82.8152
14.2814	83.5642
14.0492	84.5061
13.8244	84.5164
13.6067	82.156
13.3957	84.0139
13.1912	84.8733
12.9929	84.4578
12.8004	83.3421
12.6135	81.1057
12.432	74.723
12.2557	65.8367
12.0843	68.3612
11.9176	61.6932
11.7555	63.0926
11.5977	70.3944
11.444	71.4608
11.2944	67.9769
11.1487	62.2855
11.0067	54.9984
10.8682	47.1884
10.7332	35.5414
10.6015	18.5644
10.473	21.8769
10.3476	34.7792
10.2251	32.0986
10.1056	25.9931
9.9887	19.4145
9.8746	13.3086
9.763	7.8525
9.6539	3.5571
9.5472	1.1289
9.4429	1.9907
9.3408	1.4902
9.2409	5.665
9.1431	12.2539
9.0474	20.1533
8.9536	16.4399
8.8618	16.4848
8.7718	23.4648
8.6837	29.0004
8.5973	33.4775
8.5126	37.5771
8.4295	42.0585
8.3481	46.7296
8.2682	51.4015
8.1898	55.619
8.1129	59.3426
8.0374	62.5206
7.9634	65.2059
7.8906	67.3214
7.8192	69.1453
7.7491	70.795
7.6802	72.2684
7.6126	73.6082
7.5461	74.8846
7.4807	76.2244
7.4165	77.3536
7.3534	78.2781
7.2914	79.1465
7.2303	79.7771
7.1703	80.4573
7.1113	81.1004
7.0533	82.0664
6.9962	82.7383
6.94	83.2508
6.8847	83.7266
6.8302	84.126
6.7767	84.5899
6.7239	85.1453
6.672	85.6199
6.6209	86.0213
6.5705	86.3943
6.5209	86.6074
6.4721	86.8269
6.424	87.1123
6.3766	87.2102
6.3299	87.2932
6.2838	87.5178
6.2385	87.5877
6.1937	87.5315
6.1496	87.3819
6.1062	87.3633
6.0633	87.5447
6.0211	88.1211
5.9794	88.7654
5.9383	89.1834
5.8978	89.4004
5.8578	89.5183
5.8184	89.4109
5.7794	89.1455
5.741	89.2695
5.7031	89.4197
5.6657	89.625
5.6288	89.711
5.5924	89.8025
5.5564	89.8985
5.5209	90.0078
5.4859	90.0007
5.4513	90.0108
5.4171	89.9871
5.3833	89.6892
5.35	88.9746
5.3171	88.1941
5.2846	88.4314
5.2524	89.5076
5.2207	90.0723
5.1893	90.46
5.1584	90.8748
5.1277	91.0886
5.0975	91.0925
5.0676	91.1729
5.038	91.2459
5.0088	91.4617
4.98	91.6963
4.9514	92.1231
4.9232	92.4453
4.8953	92.6677
4.8678	92.9006
4.8405	93.0305
4.8135	93.0828
4.7868	93.2307
4.7605	93.2952
4.7344	93.3494
4.7086	93.3762
4.6831	93.4617
4.6578	93.4832
4.6328	93.5896
4.6081	93.6423
4.5837	93.637
4.5595	93.6399
4.5356	93.6594
4.5119	93.6877
4.4884	93.7634
4.4652	93.7561
4.4423	93.7673
4.4196	93.8508
4.3971	93.8601
4.3748	93.8699
4.3528	93.8909
4.331	93.8923
4.3094	93.9338
4.288	93.8865
4.2668	93.9348
4.2458	93.9656
4.2251	93.9695
4.2045	93.9685
4.1841	93.9553
4.164	93.9534
4.144	93.9514
4.1242	93.9299
4.1046	93.947
4.0852	93.9065
4.066	93.885
4.047	93.8928
4.0281	93.9226
4.0094	93.864
3.9909	93.8909
3.9725	93.9124
3.9544	93.907
3.9363	93.9104
3.9185	93.8943
3.9008	93.967
3.8833	93.9119
3.8659	93.9045
3.8487	93.9255
3.8316	93.9187
3.8147	93.9177
3.7979	93.9294
3.7813	93.8713
3.7648	93.8425
3.7485	93.8533
3.7323	93.8054
3.7162	93.7229
3.7003	93.717
3.6845	93.6355
3.6689	93.5427
3.6534	93.5295
3.638	93.5554
3.6227	93.4631
3.6076	93.406
3.5926	93.3948
3.5777	93.2795
3.563	93.2288
3.5484	93.157
3.5338	93.1663
3.5195	93.0139
3.5052	92.9456
3.491	92.8806
3.477	92.7717
3.463	92.7224
3.4492	92.6038
3.4355	92.5022
3.4219	92.2947
3.4084	92.0315
3.395	92.0764
3.3817	91.9197
3.3685	91.8049
3.3554	91.7698
3.3425	91.698
3.3296	91.553
3.3168	91.4314
3.3041	91.3479
3.2915	91.2991
3.279	91.135
3.2666	91.0628
3.2543	90.9827
3.2421	90.7542
3.23	90.5916
3.218	90.5256
3.206	90.3562
3.1942	90.1746
3.1824	90.0603
3.1707	89.9705
3.1591	89.8025
3.1476	89.7703
3.1362	89.6238
3.1249	89.4783
3.1136	89.4363
3.1024	89.2547
3.0913	89.0447
3.0803	89.0242
3.0694	88.9539
3.0585	88.7966
3.0477	88.7019
3.037	88.6443
3.0264	88.4617
3.0158	88.3025
3.0053	88.1111
2.9949	87.8963
2.9845	87.7498
2.9743	87.4138
2.9641	87.2634
2.9539	87.1795
2.9439	87.0759
2.9339	86.908
2.9239	86.8562
2.9141	86.7634
2.9043	86.8435
2.8946	86.8836
2.8849	86.9295
2.8753	86.9773
2.8658	86.9343
2.8563	87.2312
2.8469	87.2781
2.8375	87.6062
2.8282	87.7576
2.819	88.0174
2.8098	88.1502
2.8007	88.3552
2.7917	88.5857
2.7827	88.4295
2.7738	88.7771
2.7649	88.5623
2.7561	88.406
2.7473	86.4187
2.7386	84.2429
2.7299	71.7274
2.7213	16.3769
2.7128	64.0662
2.7043	80.5516
2.6959	85.8601
2.6875	88.3758
2.6791	89.7195
2.6709	90.3318
2.6626	90.5789
2.6545	91.0388
2.6463	91.2703
2.6382	91.4138
2.6302	91.49
2.6222	91.7185
2.6143	91.4021
2.6064	91.3455
2.5986	91.4685
2.5908	91.6365
2.583	91.7966
2.5753	91.8591
2.5677	91.7752
2.5601	91.9685
2.5525	91.9705
2.545	91.8865
2.5375	92.0623
2.5301	91.9802
2.5227	91.9509
2.5154	91.9431
2.5081	91.8865
2.5008	92.1502
2.4936	92.0564
2.4864	91.988
2.4793	91.9627
2.4722	92.1502
2.4651	92.1443
2.4581	92.158
2.4511	92.1482
2.4442	92.1345
2.4373	92.113
2.4305	92.0017
2.4236	91.9392
2.4169	92.2185
2.4101	92.1677
2.4034	92.1013
2.3967	92.0642
2.3901	92.0095
2.3835	92.0642
2.377	92.2888
2.3704	92.3474
2.364	92.2654
2.3575	92.072
2.3511	92.367
2.3447	92.4177
2.3384	92.1502
2.3321	92.3162
2.3258	92.3377
2.3195	92.1716
2.3133	92.1814
2.3071	92.3064
2.301	92.406
2.2949	92.0232
2.2888	92.2888
2.2828	92.2986
2.2767	92.2986
2.2708	92.2849
2.2648	92.117
2.2589	92.5271
2.253	92.4607
2.2471	92.4255
2.2413	92.0349
2.2355	92.4412
2.2297	92.2693
2.224	92.2459
2.2183	92.2224
2.2126	92.5935
2.207	91.9841
2.2013	92.3826
2.1957	92.1834
2.1902	92.2185
2.1846	92.3513
2.1791	91.8318
2.1736	91.7341
2.1682	91.6209
2.1628	91.5857
2.1574	92.0505
2.152	92.2224
2.1466	91.8435
2.1413	92.0076
2.136	91.9451
2.1308	91.8045
2.1255	92.0701
2.1203	92.113
2.1151	92.1248
2.11	92.2068
2.1048	91.8787
2.0997	92.1716
2.0946	91.867
2.0895	92.1638
2.0845	91.4099
2.0795	92.0623
