Name: Olivine (Fo18) (Fe+2,Mg)2SiO4
Type: Mineral
Class: Silicate
Subclass: Nesosilicate
Particle Size: Fine
Sample No.: olivine_2
Owner: JHU
Wavelength Range: TIR
Origin: Kiglapait Intrusion, Labrador via Trude King #KI3377(obtained from S.A. Morse, Univ. of Mass.)
Description: Initially, the specimen was contaminated with pyroxene, spinel, and ilmenite.  Heavy liquid separation, followed by magnetic separation and hand picking, allowed olivines of different iron content to be obtained.  The sample was ground to <60 micrometers and wet sieved.  Sample preparation by Trude King, USGS, Denver. Particle size was Less than 2  Micrometers.(Isolated tetrahedra); (Olivine Group) Original ASTER Spectral Library name was jhu.nicolet.mineral.silicate.nesosilicate.powder.olivin2.spectrum.txt
Measurement: Transmission
X Units: Wavelength (micrometers)
Y Units: Transmittance (percent)
wavelength	value
25.0442	51.6561
24.3388	48.5936
23.6719	52.4608
23.0407	56.367
22.4422	49.6376
21.8741	39.2831
21.334	22.8642
20.8199	15.957
20.33	19.1816
19.8627	20.5673
19.4163	20.6411
18.9896	29.8271
18.5812	38.3656
18.19	37.4638
17.815	28.2831
17.4551	27.3193
17.1094	36.6781
16.7772	52.5965
16.4576	66.1414
16.15	75.073
15.8537	79.91
15.568	82.3001
15.2925	83.909
15.0265	84.2547
14.7697	83.4295
14.5214	82.5799
14.2814	81.2286
14.0492	79.461
13.8244	76.5662
13.6067	73.377
13.3957	69.3983
13.1912	64.867
12.9929	59.4825
12.8004	53.0782
12.6135	45.6544
12.432	36.7255
12.2557	26.121
12.0843	13.8693
11.9176	20.5471
11.7555	11.4221
11.5977	5.8877
11.444	3.5295
11.2944	4.5723
11.1487	6.3476
11.0067	8.5801
10.8682	9.3535
10.7332	17.9804
10.6015	13.4282
10.473	9.5571
10.3476	11.6391
10.2251	15.5144
10.1056	22.2968
9.9887	30.9228
9.8746	39.6984
9.763	47.6141
9.6539	53.974
9.5472	59.0628
9.4429	63.5916
9.3408	67.3118
9.2409	69.9808
9.1431	72.8643
9.0474	76.4466
8.9536	79.427
8.8618	81.9295
8.7718	83.8855
8.6837	85.6507
8.5973	87.2742
8.5126	88.8494
8.4295	90.4758
8.3481	91.9021
8.2682	93.0862
8.1898	93.9417
8.1129	94.4973
8.0374	94.8157
7.9634	95.0476
7.8906	95.1648
7.8192	95.1101
7.7491	95.116
7.6802	95.1978
7.6126	95.2229
7.5461	95.1946
7.4807	95.1389
7.4165	94.981
7.3534	94.7429
7.2914	94.5291
7.2303	94.0549
7.1703	93.7278
7.1113	93.2922
7.0533	92.8879
6.9962	92.5916
6.94	92.2988
6.8847	92.117
6.8302	92.0628
6.7767	91.8713
6.7239	91.7288
6.672	91.5017
6.6209	91.2986
6.5705	90.9329
6.5209	90.5903
6.4721	90.0779
6.424	89.4812
6.3766	89.0855
6.3299	88.3872
6.2838	87.6931
6.2385	86.6897
6.1937	85.5462
6.1496	84.6682
6.1062	84.0025
6.0633	84.2996
6.0211	84.5994
5.9794	84.6253
5.9383	84.8592
5.8978	84.9597
5.8578	84.7928
5.8184	84.2635
5.7794	83.7459
5.741	83.2039
5.7031	82.9085
5.6657	82.8245
5.6288	82.6863
5.5924	82.3997
5.5564	82.1612
5.5209	81.9527
5.4859	81.7249
5.4513	81.5562
5.4171	81.2146
5.3833	80.9388
5.35	80.7454
5.3171	80.4573
5.2846	80.2771
5.2524	79.9676
5.2207	79.678
5.1893	79.3626
5.1584	79.0911
5.1277	78.8226
5.0975	78.5213
5.0676	78.2801
5.038	77.9974
5.0088	77.7205
4.98	77.4417
4.9514	77.1375
4.9232	76.8504
4.8953	76.5469
4.8678	76.221
4.8405	75.8931
4.8135	75.6119
4.7868	75.3086
4.7605	75.0425
4.7344	74.7076
4.7086	74.378
4.6831	74.106
4.6578	73.8086
4.6328	73.5003
4.6081	73.2215
4.5837	72.9236
4.5595	72.5931
4.5356	72.2784
4.5119	71.9412
4.4884	71.6661
4.4652	71.335
4.4423	71.0526
4.4196	70.7308
4.3971	70.4747
4.3748	70.1541
4.3528	69.8109
4.331	69.5049
4.3094	69.231
4.288	68.8807
4.2668	68.6136
4.2458	68.3721
4.2251	68.014
4.2045	67.7161
4.1841	67.4554
4.164	67.1649
4.144	66.8477
4.1242	66.5528
4.1046	66.2733
4.0852	65.9808
4.066	65.66
4.047	65.3577
4.0281	65.0645
4.0094	64.7796
3.9909	64.4144
3.9725	64.1883
3.9544	63.8421
3.9363	63.5811
3.9185	63.241
3.9008	62.9891
3.8833	62.6702
3.8659	62.3592
3.8487	62.0804
3.8316	61.8048
3.8147	61.536
3.7979	61.2208
3.7813	60.9666
3.7648	60.6214
3.7485	60.2757
3.7323	60.0831
3.7162	59.7484
3.7003	59.5714
3.6845	59.1524
3.6689	58.9581
3.6534	58.5929
3.638	58.3504
3.6227	58.0069
3.6076	57.7328
3.5926	57.4835
3.5777	57.1808
3.563	56.8709
3.5484	56.6183
3.5338	56.3006
3.5195	56.0167
3.5052	55.7071
3.491	55.492
3.477	55.2218
3.463	54.9505
3.4492	54.5773
3.4355	54.2914
3.4219	53.9305
3.4084	53.7081
3.395	53.5301
3.3817	53.2208
3.3685	53.0079
3.3554	52.6981
3.3425	52.5023
3.3296	52.2186
3.3168	51.9833
3.3041	51.6622
3.2915	51.4064
3.279	51.118
3.2666	50.839
3.2543	50.6034
3.2421	50.3085
3.23	49.995
3.218	49.7635
3.206	49.4994
3.1942	49.2191
3.1824	48.8983
3.1707	48.6498
3.1591	48.3724
3.1476	48.1097
3.1362	47.6537
3.1249	47.3177
3.1136	47.0917
3.1024	46.7528
3.0913	46.472
3.0803	46.2953
3.0694	45.9237
3.0585	45.6864
3.0477	45.4139
3.037	45.1386
3.0264	44.7377
3.0158	44.4677
3.0053	43.9813
2.9949	43.6581
2.9845	43.2518
2.9743	42.7304
2.9641	42.3578
2.9539	41.8676
2.9439	41.539
2.9339	41.2772
2.9239	40.9061
2.9141	40.7128
2.9043	40.5976
2.8946	40.5297
2.8849	40.5355
2.8753	40.5121
2.8658	40.6151
2.8563	40.5766
2.8469	40.7167
2.8375	40.7489
2.8282	40.6757
2.819	40.7518
2.8098	40.7518
2.8007	40.8534
2.7917	40.9677
2.7827	41.1132
2.7738	41.3109
2.7649	41.3944
2.7561	41.4188
2.7473	41.7196
2.7386	41.6991
2.7299	41.7724
2.7213	41.7406
2.7128	41.5922
2.7043	41.3934
2.6959	41.1859
2.6875	41.0805
2.6791	41.0023
2.6709	40.8261
2.6626	40.641
2.6545	40.5292
2.6463	40.3026
2.6382	40.2152
2.6302	40.08
2.6222	39.9433
2.6143	39.8075
2.6064	39.58
2.5986	39.4716
2.5908	39.3173
2.583	39.1884
2.5753	39.0233
2.5677	38.8124
2.5601	38.7089
2.5525	38.5546
2.545	38.4345
2.5375	38.2646
2.5301	38.1718
2.5227	38.1259
2.5154	37.9931
2.5081	37.8788
2.5008	37.7196
2.4936	37.5761
2.4864	37.4511
2.4793	37.3144
2.4722	37.1024
2.4651	36.9687
2.4581	36.7655
2.4511	36.6952
2.4442	36.6024
2.4373	36.5312
2.4305	36.4179
2.4236	36.2235
2.4169	36.1132
2.4101	35.9569
2.4034	36.0595
2.3967	35.8456
2.3901	35.7314
2.3835	35.5282
2.377	35.3593
2.3704	35.3212
2.364	35.3671
2.3575	35.1679
2.3511	34.9843
2.3447	34.9267
2.3384	34.6845
2.3321	34.7314
2.3258	34.3515
2.3195	34.4081
2.3133	34.4189
2.3071	34.246
2.301	34.161
2.2949	33.9335
2.2888	33.9179
2.2828	33.8446
2.2767	33.7704
2.2708	33.5819
2.2648	33.5155
2.2589	33.4237
2.253	33.4081
2.2471	33.2226
2.2413	32.8749
2.2355	33.0761
2.2297	32.8944
2.224	32.9901
2.2183	32.662
2.2126	32.7753
2.207	32.3905
2.2013	32.4218
2.1957	32.3241
2.1902	32.371
2.1846	31.9257
2.1791	32.0702
2.1736	31.8671
2.1682	31.7538
2.1628	31.8749
2.1574	31.5273
2.152	31.621
2.1466	31.6327
2.1413	31.1562
2.136	31.1327
2.1308	30.9843
2.1255	30.9843
2.1203	30.9921
2.1151	30.9335
2.11	30.7773
2.1048	31.0566
2.0997	30.4491
2.0946	30.4999
2.0895	30.5077
2.0845	30.4687
2.0795	30.4784
