Name: Lepidolite K(Li,Al)3(Si,Al)_4O_10(F,OH)_2
Type: Mineral
Class: Silicate
Subclass: Phyllosilicate
Particle Size: Medium
Sample No.: PS-13B
Owner: JPL
Wavelength Range: TIR
Origin: South Africa
Description: Lavender lepidolite.Particle size was 45-125um.Collected by Ward's Original ASTER Spectral Library name was jpl.nicolet.mineral.silicate.phyllosilicate.medium.ps13b.spectrum.txt
Measurement: Hemispherical reflectance
X Units: Wavelength (micrometers)
Y Units: Reflectance (percent)
wavelength	value
15.3853	1.0655
15.1161	1.2346
14.8563	1.5324
14.6052	1.4193
14.3624	1.6033
14.1276	1.7151
13.9004	2.3113
13.6803	2.2656
13.4671	2.5427
13.2604	2.2097
13.06	2.0577
12.8656	2.2109
12.6769	2.5265
12.4936	2.4431
12.3155	2.7172
12.1425	3.279
11.9742	3.486
11.8106	3.7475
11.6513	4.1482
11.4963	4.2089
11.3454	4.6795
11.1983	5.0344
11.0551	5.4567
10.9154	5.8277
10.7793	6.1502
10.6465	6.6712
10.5169	7.6661
10.3904	9.669
10.267	10.3709
10.1464	12.1901
10.0287	14.7125
9.9136	15.7811
9.8012	17.4946
9.6913	20.8131
9.5838	23.5403
9.4787	19.5269
9.3758	18.7215
9.2752	18.7979
9.1767	17.413
9.0803	18.1022
8.9858	18.0394
8.8934	15.7217
8.8028	12.577
8.714	8.9533
8.627	5.4722
8.5417	3.6986
8.4581	2.6229
8.3761	1.7704
8.2957	1.1866
8.2169	1.0842
8.1395	0.9518
8.0635	0.6851
7.989	0.7495
7.9158	0.8376
7.8439	1.0285
7.7734	1.3565
7.7041	1.5952
7.636	1.9351
7.5691	2.2289
7.5034	2.7208
7.4388	3.1171
7.3753	3.6023
7.3129	3.9119
7.2515	4.3097
7.1912	4.8399
7.1318	5.196
7.0734	5.6604
7.016	6.228
6.9595	6.8912
6.9039	7.2766
6.8492	7.9732
6.7953	8.5428
6.7423	9.0736
6.6901	9.7327
6.6387	10.3918
6.5881	10.4768
6.5382	10.8092
6.4892	11.543
6.4408	11.5664
6.3931	11.6055
6.3462	12.0162
6.2999	11.995
6.2543	12.0159
6.2094	11.7684
6.1651	11.3856
6.1214	10.8155
6.0784	10.4054
6.0359	9.6406
5.994	9.0086
5.9527	8.7485
5.912	8.695
5.8718	9.0194
5.8322	9.2887
5.7931	9.2361
5.7545	8.9995
5.7165	8.6109
5.6789	8.2587
5.6418	8.3518
5.6052	8.2484
5.5691	8.2767
5.5334	8.2936
5.4982	8.5476
5.4635	8.8716
5.4291	9.0709
5.3952	9.4357
5.3618	9.8176
5.3287	10.4624
5.2961	11.5757
5.2638	13.1215
5.2319	15.0181
5.2004	17.2426
5.1693	19.6829
5.1386	21.9715
5.1082	23.5673
5.0782	24.4155
5.0485	24.5555
5.0192	24.7469
4.9902	24.6484
4.9616	24.5884
4.9332	24.5527
4.9052	24.8832
4.8776	25.265
4.8502	25.9378
4.8231	26.4448
4.7963	26.957
4.7699	27.8657
4.7437	29.1171
4.7178	30.5001
4.6922	31.7868
4.6668	33.7047
4.6418	35.978
4.617	38.2641
4.5924	40.3273
4.5681	42.3509
4.5441	44.2761
4.5203	46.4498
4.4968	48.4565
4.4735	50.7038
4.4505	53.2869
4.4277	56.049
4.4051	58.6145
4.3828	61.0483
4.3607	62.8899
4.3388	64.1264
4.3171	64.8912
4.2956	65.1239
4.2744	65.0849
4.2534	65.5263
4.2325	66.5312
4.2119	67.1859
4.1915	67.571
4.1712	67.7743
4.1512	68.0775
4.1313	68.3436
4.1117	68.5445
4.0922	68.7778
4.0729	68.9812
4.0538	69.1216
4.0349	69.181
4.0161	69.1779
3.9976	69.3138
3.9792	69.5212
3.9609	69.7549
3.9428	70.0073
3.9249	70.2584
3.9072	70.5495
3.8896	70.8801
3.8722	71.2892
3.8549	71.5356
3.8378	71.7131
3.8208	71.9792
3.804	71.984
3.7873	71.8747
3.7708	71.4852
3.7544	70.5185
3.7382	68.7809
3.7221	68.1125
3.7061	67.8491
3.6903	68.316
3.6746	68.4369
3.659	68.4575
3.6436	68.6823
3.6283	68.9619
3.6131	69.4792
3.5981	69.5316
3.5832	69.434
3.5684	69.1021
3.5537	68.8545
3.5391	68.4136
3.5247	68.0515
3.5104	67.5856
3.4962	67.24
3.4821	67.2009
3.4681	67.0774
3.4543	66.8168
3.4405	66.2781
3.4269	65.512
3.4133	64.7611
3.3999	64.3434
3.3866	63.867
3.3733	63.3528
3.3602	63.0563
3.3472	62.4422
3.3343	61.9212
3.3215	61.5713
3.3088	61.0993
3.2961	60.7877
3.2836	60.3818
3.2712	59.9279
3.2588	59.4759
3.2466	58.923
3.2345	58.3905
3.2224	57.5323
3.2104	56.7594
3.1985	55.932
3.1867	55.1782
3.175	54.5102
3.1634	53.9194
3.1519	53.2187
3.1404	52.6203
3.129	51.8316
3.1178	51.1142
3.1065	50.4422
3.0954	49.9113
3.0844	49.4025
3.0734	48.8601
3.0625	48.5415
3.0517	47.9411
3.041	47.6151
3.0303	47.3302
3.0197	47.2286
3.0092	47.2574
2.9987	47.1271
2.9884	46.7964
2.9781	46.2614
2.9678	45.922
2.9577	45.2673
2.9476	44.6057
2.9376	43.4409
2.9276	42.1266
2.9177	40.6782
2.9079	39.1738
2.8982	38.2517
2.8885	37.9953
2.8789	37.9379
2.8693	37.8182
2.8598	37.8117
2.8504	36.7753
2.841	34.5886
2.8317	32.273
2.8224	30.1938
2.8133	27.1724
2.8041	22.469
2.7951	17.3469
2.786	11.7115
2.7771	6.3798
2.7682	3.7406
2.7594	2.9269
2.7506	2.8445
2.7418	2.8888
2.7332	2.9232
2.7246	3.9211
2.716	8.3631
2.7075	14.4982
2.699	20.7378
2.6906	37.0347
2.6823	40.8845
2.674	43.3463
2.6657	46.6255
2.6575	47.864
2.6494	49.3413
2.6413	49.7603
2.6332	50.1053
2.6252	49.772
2.6173	50.1244
2.6094	50.0937
2.6015	50.7816
2.5937	53.1555
2.5859	53.6001
2.5782	53.5984
2.5706	54.1465
2.5629	54.8786
2.5554	55.159
2.5478	55.9827
2.5403	56.3079
2.5329	56.0897
2.5255	55.5172
2.5181	54.4554
2.5108	53.1877
2.5035	52.2314
2.4963	50.9881
2.4891	50.5307
2.482	50.1419
2.4749	49.6771
2.4678	48.8708
2.4608	47.9555
2.4538	46.8951
2.4468	46.0822
2.4399	45.6011
2.4331	45.7107
2.4262	47.1167
2.4194	48.7743
2.4127	50.9192
2.4059	52.7867
2.3993	54.2739
2.3926	54.7558
2.386	54.7197
2.3795	54.8145
2.3729	54.9039
2.3664	54.5834
2.36	53.6611
2.3535	52.31
2.3471	51.7471
2.3408	52.9056
2.3345	54.7688
2.3282	57.1041
2.3219	59.9839
2.3157	62.6332
2.3095	65.0643
2.3034	67.1372
2.2972	68.9941
2.2911	70.2826
2.2851	71.0189
2.279	71.5876
2.2731	71.974
2.2671	72.107
2.2612	72.0139
2.2553	71.6891
2.2494	71.3364
2.2435	71.0682
2.2377	70.532
2.232	69.227
2.2262	67.4621
2.2205	64.0999
2.2148	58.3182
2.2091	50.9813
2.2035	45.3053
2.1979	42.8264
2.1923	43.4267
2.1868	48.0156
2.1812	54.6048
2.1758	61.2203
2.1703	66.8257
2.1649	70.2497
2.1595	72.8421
2.1541	74.7407
2.1487	76.36
2.1434	76.8357
2.1381	77.9077
2.1328	78.1812
2.1275	77.752
2.1223	77.6221
2.1171	77.6782
2.112	78.3453
2.1068	79.0254
2.1017	79.8402
2.0966	80.6597
2.0915	81.7456
2.0865	82.6892
2.0814	83.3746
2.0764	83.8983
2.0715	84.2373
2.0665	84.7297
2.0616	85.0292
2.0567	85.3969
2.0518	85.2382
2.0469	85.2892
2.0421	85.3776
2.0373	85.5919
2.0325	85.6132
2.0277	86.0769
2.0229	85.7918
2.0182	85.9516
2.0135	85.908
2.0088	85.8966
2.0042	86.1242
