Name: Quartz SiO_2
Type: Mineral
Class: Silicate
Subclass: Tectosilicate
Particle Size: Fine
Sample No.: TS-1A
Owner: JPL
Wavelength Range: VSWIR
Origin: USA, Arkansas, Montgomery County, Mount Ida.
Description: Rock crystalParticle size was 0-45um.Collected by:  Burminco Original ASTER Spectral Library name was jpl.perkin.mineral.silicate.tectosilicate.fine.ts01a.spectrum.txt
Measurement: Hemispherical reflectance
X Units: Wavelength (micrometers)
Y Units: Reflectance (percent)
wavelength	value
2.5	77.194
2.494	76.9634
2.488	77.1232
2.482	77.314
2.476	77.3245
2.47	77.4294
2.464	77.5023
2.458	77.5567
2.452	77.5314
2.446	77.6749
2.44	77.7167
2.434	77.8513
2.428	77.7742
2.422	77.9688
2.416	78.0136
2.41	78.0894
2.404	78.1247
2.398	78.2011
2.392	78.2795
2.386	78.4215
2.38	78.4542
2.374	78.5827
2.368	78.6317
2.362	78.7135
2.356	78.8169
2.35	78.8197
2.344	78.9122
2.338	78.8907
2.332	78.8508
2.326	78.8344
2.32	78.8023
2.314	78.8532
2.308	78.8392
2.302	78.8336
2.296	78.849
2.29	78.7217
2.284	78.6927
2.278	78.7499
2.272	78.8163
2.266	78.8146
2.26	78.7005
2.254	78.7877
2.248	78.6979
2.242	78.8073
2.236	78.7679
2.23	78.8186
2.224	78.8767
2.218	78.9785
2.212	79.0379
2.206	79.1159
2.2	79.3441
2.194	79.3704
2.188	79.444
2.182	79.5753
2.176	79.6437
2.17	79.8093
2.164	79.9331
2.158	80.1222
2.152	80.2472
2.146	80.3496
2.14	80.3299
2.134	80.2623
2.128	80.1054
2.122	79.9006
2.116	79.6569
2.11	79.4585
2.104	79.2067
2.098	79.1231
2.092	79.2132
2.086	79.2001
2.08	79.2461
2.074	79.2953
2.068	79.3974
2.062	79.5065
2.056	79.4836
2.05	79.6224
2.044	79.645
2.038	79.6948
2.032	79.7125
2.026	79.7245
2.02	79.7476
2.014	79.7281
2.008	79.7703
2.002	79.7441
1.996	79.735
1.99	79.636
1.984	79.5974
1.978	79.5074
1.972	79.4927
1.966	79.5104
1.96	79.4229
1.954	79.3803
1.948	79.3451
1.942	79.4382
1.936	79.5321
1.93	79.5228
1.924	79.5089
1.918	79.4372
1.912	79.5356
1.906	79.6206
1.9	79.7837
1.894	79.9085
1.888	79.8748
1.882	80.0493
1.876	80.0655
1.87	80.1596
1.864	80.1825
1.858	80.2375
1.852	80.2232
1.846	80.2612
1.84	80.2992
1.834	80.3281
1.828	80.2942
1.822	80.3531
1.816	80.3349
1.81	80.3208
1.804	80.4004
1.798	80.375
1.792	80.405
1.786	80.3378
1.78	80.2967
1.774	80.4066
1.768	80.3493
1.762	80.3113
1.756	80.3354
1.75	80.4218
1.744	80.3591
1.738	80.4048
1.732	80.47
1.726	80.4149
1.72	80.4434
1.714	80.4287
1.708	80.3991
1.702	80.4413
1.696	80.4616
1.69	80.434
1.684	80.4709
1.678	80.4502
1.672	80.4546
1.666	80.427
1.66	80.4007
1.654	80.344
1.648	80.3713
1.642	80.4631
1.636	80.4495
1.63	80.4666
1.624	80.3959
1.618	80.4488
1.612	80.4319
1.606	80.4884
1.6	80.5376
1.594	80.4664
1.588	80.5122
1.582	80.3727
1.576	80.4354
1.57	80.4541
1.564	80.394
1.558	80.4209
1.552	80.4594
1.546	80.4443
1.54	80.455
1.534	80.4194
1.528	80.3353
1.522	80.3529
1.516	80.3613
1.51	80.343
1.504	80.3777
1.498	80.3467
1.492	80.3379
1.486	80.3148
1.48	80.3065
1.474	80.3092
1.468	80.2468
1.462	80.2828
1.456	80.3349
1.45	80.3294
1.444	80.2679
1.438	80.3308
1.432	80.2643
1.426	80.3341
1.42	80.2285
1.414	80.2116
1.408	80.1864
1.402	80.2358
1.396	80.3153
1.39	80.3109
1.384	80.2847
1.378	80.2856
1.372	80.3935
1.366	80.3776
1.36	80.4267
1.354	80.2883
1.348	80.3468
1.342	80.2932
1.336	80.3757
1.33	80.2951
1.324	80.3312
1.318	80.3246
1.312	80.3154
1.306	80.267
1.3	80.2681
1.294	80.2015
1.288	80.2951
1.282	80.1874
1.276	80.2387
1.27	80.2887
1.264	80.2129
1.258	80.2451
1.252	80.2336
1.246	80.186
1.24	80.2043
1.234	80.2079
1.228	80.2404
1.222	80.2122
1.216	80.1774
1.21	80.2321
1.204	80.1896
1.198	80.172
1.192	80.1927
1.186	80.2352
1.18	80.188
1.174	80.235
1.168	80.2
1.162	80.145
1.156	80.2422
1.15	80.2273
1.144	80.2237
1.138	80.2012
1.132	80.2567
1.126	80.154
1.12	80.2181
1.114	80.2277
1.108	80.2816
1.102	80.303
1.096	80.2705
1.09	80.2995
1.084	80.285
1.078	80.1848
1.072	80.2958
1.066	80.2914
1.06	80.2695
1.054	80.3316
1.048	80.3545
1.042	80.3573
1.036	80.3569
1.03	80.3906
1.024	80.2271
1.018	80.3454
1.012	80.378
1.006	80.4184
1	80.3924
0.994	80.3534
0.988	80.4499
0.982	80.3644
0.976	80.3683
0.97	80.3966
0.964	80.4302
0.958	80.3977
0.952	80.4758
0.946	80.4314
0.94	80.4447
0.934	80.4668
0.928	80.4426
0.922	80.4222
0.916	80.4696
0.91	80.494
0.904	80.4533
0.898	80.454
0.892	80.4789
0.886	80.4401
0.88	80.4742
0.874	80.3581
0.868	80.457
0.862	80.4156
0.856	80.3822
0.85	80.4306
0.844	80.436
0.838	80.4877
0.832	80.4794
0.826	80.5098
0.82	80.4329
0.814	80.4561
0.808	80.4984
0.802	80.5046
0.796	80.4471
0.79	80.3919
0.784	80.3746
0.778	80.3709
0.772	80.3294
0.766	80.2871
0.76	80.2886
0.754	80.239
0.748	80.2624
0.742	80.2509
0.736	80.2352
0.73	80.2307
0.724	80.1972
0.718	80.2094
0.712	80.2005
0.706	80.1618
0.7	80.163
0.694	80.1686
0.688	80.1237
0.682	80.1068
0.676	80.1243
0.67	80.0841
0.664	80.0911
0.658	80.0862
0.652	80.103
0.646	80.0631
0.64	80.0476
0.634	80.0569
0.628	80.038
0.622	80.0448
0.616	80.0177
0.61	79.9907
0.604	79.9823
0.598	79.9903
0.592	80.0188
0.586	79.9881
0.58	79.9544
0.574	79.9241
0.568	79.8895
0.562	79.8564
0.556	79.7749
0.55	79.738
0.544	79.6977
0.538	79.6379
0.532	79.5836
0.526	79.5603
0.52	79.5038
0.514	79.4254
0.508	79.335
0.502	79.2694
0.496	79.1231
0.49	79.0106
0.484	78.8435
0.478	78.7654
0.472	78.6978
0.466	78.5755
0.46	78.4174
0.454	78.256
0.448	78.0813
0.442	77.837
0.436	77.6115
0.43	77.3582
0.424	77.1384
0.418	76.9957
0.412	76.9229
0.406	76.8369
0.4	76.7553
