Name: Dolomite CaMg(CO_3)_2
Type: Mineral
Class: Carbonate
Subclass: None
Particle Size: Coarse
Sample No.: C-5A
Owner: JPL
Wavelength Range: TIR
Origin: USA, Colorado
Description: Red banded dolomite.Particle size was 125-500um.Collected by Ward's Original ASTER Spectral Library name was jpl.nicolet.mineral.carbonate.none.coarse.c05a.spectrum.txt
Measurement: Hemispherical reflectance
X Units: Wavelength (micrometers)
Y Units: Reflectance (percent)
wavelength	value
15.3853	1.7553
15.1161	2.0626
14.8563	2.6847
14.6052	2.4242
14.3624	2.4004
14.1276	2.3367
13.9004	2.3228
13.6803	1.7551
13.4671	1.9345
13.2604	3.3562
13.06	3.8931
12.8656	3.0619
12.6769	3.2162
12.4936	2.9525
12.3155	4.3108
12.1425	4.9453
11.9742	5.2772
11.8106	4.6351
11.6513	4.0994
11.4963	4.0395
11.3454	8.0201
11.1983	14.5382
11.0551	9.2891
10.9154	7.1182
10.7793	6.6966
10.6465	6.583
10.5169	6.1721
10.3904	5.824
10.267	4.7928
10.1464	4.248
10.0287	3.7357
9.9136	3.8242
9.8012	3.7917
9.6913	3.7788
9.5838	3.5883
9.4787	3.742
9.3758	4.4856
9.2752	5.3112
9.1767	5.303
9.0803	4.5688
8.9858	4.9243
8.8934	4.8797
8.8028	4.967
8.714	5.1451
8.627	4.931
8.5417	5.484
8.4581	5.4366
8.3761	5.4325
8.2957	6.5288
8.2169	6.3669
8.1395	5.2831
8.0635	5.234
7.989	5.3934
7.9158	5.3055
7.8439	5.5179
7.7734	5.1079
7.7041	4.9969
7.636	5.1555
7.5691	5.1413
7.5034	5.1667
7.4388	5.2933
7.3753	5.5119
7.3129	5.754
7.2515	6.2707
7.1912	6.9206
7.1318	8.2176
7.0734	9.8755
7.016	14.3469
6.9595	14.9129
6.9039	14.808
6.8492	15.515
6.7953	16.3801
6.7423	16.9705
6.6901	18.3866
6.6387	21.506
6.5881	23.1075
6.5382	24.901
6.4892	28.4203
6.4408	28.7207
6.3931	28.2613
6.3462	21.1662
6.2999	9.707
6.2543	4.8662
6.2094	2.9264
6.1651	2.3613
6.1214	1.7129
6.0784	1.3851
6.0359	1.302
5.994	1.2736
5.9527	1.0854
5.912	1.2296
5.8718	1.3672
5.8322	1.4146
5.7931	1.3775
5.7545	1.3963
5.7165	1.5996
5.6789	1.6074
5.6418	1.4487
5.6052	1.2287
5.5691	1.0379
5.5334	0.9298
5.4982	0.7415
5.4635	1.1001
5.4291	2.2666
5.3952	4.1722
5.3618	5.1177
5.3287	6.1947
5.2961	7.1849
5.2638	9.2246
5.2319	12.5239
5.2004	15.4003
5.1693	17.2353
5.1386	18.5196
5.1082	19.2925
5.0782	17.4816
5.0485	16.9341
5.0192	20.5405
4.9902	21.6866
4.9616	24.0097
4.9332	25.6364
4.9052	27.7252
4.8776	29.9542
4.8502	30.6856
4.8231	30.8352
4.7963	30.761
4.7699	30.5811
4.7437	29.9589
4.7178	28.083
4.6922	24.1809
4.6668	16.5998
4.6418	12.3602
4.617	11.7299
4.5924	13.6664
4.5681	17.4232
4.5441	20.2812
4.5203	22.178
4.4968	26.2569
4.4735	26.4987
4.4505	22.5825
4.4277	22.1512
4.4051	25.6523
4.3828	29.3833
4.3607	32.0215
4.3388	28.1758
4.3171	25.0086
4.2956	23.0817
4.2744	20.5638
4.2534	23.0311
4.2325	25.4683
4.2119	26.6719
4.1915	28.6024
4.1712	27.3068
4.1512	24.93
4.1313	24.7377
4.1117	23.965
4.0922	22.2978
4.0729	19.228
4.0538	15.3603
4.0349	10.9395
4.0161	6.5584
3.9976	3.4683
3.9792	2.0571
3.9609	1.7431
3.9428	1.8928
3.9249	1.8637
3.9072	2.0007
3.8896	2.1518
3.8722	2.4362
3.8549	2.9741
3.8378	4.9322
3.8208	3.5746
3.804	2.5158
3.7873	3.3749
3.7708	5.4634
3.7544	9.8612
3.7382	18.1416
3.7221	22.3632
3.7061	24.6851
3.6903	27.3257
3.6746	28.9458
3.659	29.6442
3.6436	29.9488
3.6283	29.9192
3.6131	29.2863
3.5981	28.5948
3.5832	27.6814
3.5684	25.7481
3.5537	19.9864
3.5391	19.1176
3.5247	16.0138
3.5104	9.72
3.4962	4.4773
3.4821	2.9857
3.4681	2.3998
3.4543	2.4344
3.4405	2.477
3.4269	3.1433
3.4133	3.4676
3.3999	3.7286
3.3866	4.0762
3.3733	4.7185
3.3602	3.8463
3.3472	3.3717
3.3343	3.1107
3.3215	3.1218
3.3088	2.7346
3.2961	4.3056
3.2836	9.2275
3.2712	10.837
3.2588	11.4845
3.2466	11.7684
3.2345	11.9302
3.2224	11.933
3.2104	11.6052
3.1985	11.2939
3.1867	11.0337
3.175	10.8118
3.1634	10.2231
3.1519	9.8045
3.1404	9.2662
3.129	8.8208
3.1178	8.5023
3.1065	8.244
3.0954	8.107
3.0844	7.6745
3.0734	7.4696
3.0625	7.5521
3.0517	7.6182
3.041	7.2207
3.0303	7.2465
3.0197	7.0149
3.0092	6.9791
2.9987	6.9262
2.9884	6.622
2.9781	6.5828
2.9678	6.3357
2.9577	6.1039
2.9476	6.131
2.9376	6.2738
2.9276	6.2059
2.9177	6.1371
2.9079	6.2835
2.8982	6.3951
2.8885	6.4674
2.8789	6.9878
2.8693	7.1465
2.8598	7.5365
2.8504	8.1308
2.841	8.2808
2.8317	8.8616
2.8224	9.6208
2.8133	9.9923
2.8041	10.3382
2.7951	10.5082
2.786	10.6679
2.7771	10.313
2.7682	10.2354
2.7594	10.7866
2.7506	12.6421
2.7418	15.0857
2.7332	18.7054
2.7246	24.1578
2.716	29.2578
2.7075	33.6549
2.699	38.4043
2.6906	42.4504
2.6823	46.3103
2.674	49.6067
2.6657	53.3862
2.6575	53.5941
2.6494	54.9035
2.6413	55.7389
2.6332	56.409
2.6252	57.1734
2.6173	58.5385
2.6094	58.0455
2.6015	58.2724
2.5937	59.3025
2.5859	58.0647
2.5782	57.4631
2.5706	56.9283
2.5629	55.9184
2.5554	54.0413
2.5478	51.2326
2.5403	45.7175
2.5329	39.908
2.5255	35.9086
2.5181	34.1599
2.5108	34.2989
2.5035	35.6489
2.4963	36.997
2.4891	39.1347
2.482	41.5211
2.4749	42.7148
2.4678	43.0328
2.4608	43.7803
2.4538	45.1021
2.4468	47.0131
2.4399	49.7336
2.4331	51.836
2.4262	53.9402
2.4194	55.784
2.4127	57.1959
2.4059	57.7538
2.3993	58.7205
2.3926	59.3675
2.386	59.8726
2.3795	60.1865
2.3729	60.9525
2.3664	61.2024
2.36	60.8889
2.3535	59.6589
2.3471	56.67
2.3408	52.9294
2.3345	49.5808
2.3282	46.9063
2.3219	46.0381
2.3157	46.7145
2.3095	47.4657
2.3034	48.4678
2.2972	49.3901
2.2911	50.7355
2.2851	51.5353
2.279	52.0736
2.2731	52.4858
2.2671	53.111
2.2612	54.2748
2.2553	56.0175
2.2494	57.4964
2.2435	58.7968
2.2377	59.6088
2.232	59.9503
2.2262	60.6766
2.2205	60.8258
2.2148	61.0985
2.2091	61.2599
2.2035	62.0538
2.1979	62.4999
2.1923	62.7057
2.1868	63.044
2.1812	63.3131
2.1758	63.6535
2.1703	63.5877
2.1649	63.769
2.1595	63.642
2.1541	63.262
2.1487	63.3161
2.1434	63.1445
2.1381	63.1892
2.1328	63.2106
2.1275	63.5142
2.1223	63.4985
2.1171	63.7065
2.112	63.7571
2.1068	63.9447
2.1017	63.7795
2.0966	64.0324
2.0915	63.796
2.0865	63.8053
2.0814	64.1718
2.0764	64.4528
2.0715	63.8652
2.0665	63.5885
2.0616	63.6902
2.0567	63.5316
2.0518	63.7768
2.0469	63.3427
2.0421	63.3638
2.0373	63.2751
2.0325	62.8877
2.0277	63.1325
2.0229	62.8027
2.0182	62.3561
2.0135	62.3218
2.0088	61.9756
2.0042	61.9489
