Name: Zoisite (var. tanzanite) Ca2Al3(SiO4)3(OH)
Type: Mineral
Class: Silicate
Subclass: none
Particle Size: Fine
Sample No.: zoisite_1
Owner: JHU
Wavelength Range: TIR
Origin: Arusha, Tanzania via the Smithsonian (sample no. NMNH126029)
Description: The sample consisted of five euhedral, violet-blue crystals, with some clay material and mica adhering to a few surfaces.  Each crystal was about 7 mm x 10 mm, with a total weight of 5.9 g.  After removal of the coating material and crushing, microscopic examination showed about 1% brown alteration material, but otherwise the sample appeared pure. Particle size was less than 2 Micrometers.  Original ASTER Spectral Library name was jhu.nicolet.mineral.silicate.sorosilicate.powder.zoisit1.spectrum.txt
Measurement: Transmission
X Units: Wavelength (micrometers)
Y Units: Transmittance (percent)
wavelength	value
25.0442	35.1327
24.3388	41.7968
23.6719	49.953
23.0407	46.2968
22.4422	34.3456
21.8741	39.1112
21.334	29.5898
20.8199	37.1015
20.33	48.7186
19.8627	43.3104
19.4163	34.8593
18.9896	43.2509
18.5812	49.5321
18.19	32.3378
17.815	22.4941
17.4551	18.5078
17.1094	25.205
16.7772	31.3173
16.4576	42.0624
16.15	33.5038
15.8537	47.5858
15.568	49.7538
15.2925	35.2196
15.0265	38.5028
14.7697	50.8046
14.5214	51.8905
14.2814	46.1171
14.0492	52.5311
13.8244	57.0116
13.6067	69.243
13.3957	67.4998
13.1912	62.0975
12.9929	70.4652
12.8004	68.4886
12.6135	76.4295
12.432	79.3807
12.2557	77.1937
12.0843	69.4842
11.9176	60.869
11.7555	51.5101
11.5977	36.4145
11.444	32.6591
11.2944	26.0839
11.1487	21.5468
11.0067	18.8286
10.8682	25.1113
10.7332	23.8232
10.6015	16.8173
10.473	15.1684
10.3476	19.2558
10.2251	22.811
10.1056	30.8154
9.9887	41.4325
9.8746	48.3187
9.763	53.077
9.6539	56.6952
9.5472	58.9657
9.4429	60.201
9.3408	59.6248
9.2409	54.2342
9.1431	39.0653
9.0474	21.9223
8.9536	17.4287
8.8618	18.7856
8.7718	29.1933
8.6837	45.0634
8.5973	52.6449
8.5126	61.8656
8.4295	67.5985
8.3481	72.2176
8.2682	75.8084
8.1898	78.6268
8.1129	81.0411
8.0374	82.9539
7.9634	84.5449
7.8906	86.1494
7.8192	87.3408
7.7491	88.2276
7.6802	89.0159
7.6126	89.9463
7.5461	90.5234
7.4807	91.1355
7.4165	91.5283
7.3534	91.8836
7.2914	92.2717
7.2303	92.3796
7.1703	92.1943
7.1113	92.1328
7.0533	92.1484
6.9962	91.9607
6.94	91.2168
6.8847	91.4299
6.8302	92.0596
6.7767	92.3086
6.7239	92.8555
6.672	93.6375
6.6209	94.2109
6.5705	94.2302
6.5209	94.2302
6.4721	94.1941
6.424	94.124
6.3766	93.9863
6.3299	93.4544
6.2838	92.6484
6.2385	91.573
6.1937	89.8591
6.1496	88.7793
6.1062	89.5584
6.0633	90.2754
6.0211	89.7761
5.9794	90.3906
5.9383	93.2839
5.8978	95.1912
5.8578	96.2363
5.8184	96.4724
5.7794	96.5779
5.741	96.6953
5.7031	96.6868
5.6657	96.6045
5.6288	96.5098
5.5924	96.5977
5.5564	96.7029
5.5209	96.8113
5.4859	96.9475
5.4513	96.9958
5.4171	97.0264
5.3833	97.0742
5.35	97.1016
5.3171	97.1582
5.2846	97.196
5.2524	97.2371
5.2207	97.2283
5.1893	97.2031
5.1584	97.2986
5.1277	97.2898
5.0975	97.2578
5.0676	97.1638
5.038	97.0154
5.0088	96.9441
4.98	96.8748
4.9514	96.9641
4.9232	96.8889
4.8953	96.8074
4.8678	96.7478
4.8405	96.6428
4.8135	96.4788
4.7868	96.4031
4.7605	96.1589
4.7344	95.8889
4.7086	95.5164
4.6831	94.9397
4.6578	94.1316
4.6328	92.4915
4.6081	91.1663
4.5837	93.1907
4.5595	94.7542
4.5356	95.322
4.5119	95.5237
4.4884	95.5999
4.4652	95.7688
4.4423	95.866
4.4196	95.8074
4.3971	95.842
4.3748	95.8503
4.3528	95.8362
4.331	95.8186
4.3094	95.7166
4.288	95.6736
4.2668	95.5842
4.2458	95.5183
4.2251	95.4084
4.2045	95.364
4.1841	95.1956
4.164	95.1995
4.144	95.0706
4.1242	95.0432
4.1046	95.0115
4.0852	94.906
4.066	94.7332
4.047	94.6892
4.0281	94.5525
4.0094	94.4983
3.9909	94.3064
3.9725	94.1765
3.9544	94.1038
3.9363	94.031
3.9185	93.9412
3.9008	93.8142
3.8833	93.5925
3.8659	93.446
3.8487	93.2849
3.8316	93.1804
3.8147	93.0525
3.7979	92.8923
3.7813	92.6951
3.7648	92.4749
3.7485	92.3484
3.7323	92.1736
3.7162	91.9592
3.7003	91.8308
3.6845	91.6795
3.6689	91.4304
3.6534	91.282
3.638	91.1487
3.6227	90.9207
3.6076	90.6746
3.5926	90.4568
3.5777	90.2371
3.563	89.9627
3.5484	89.6199
3.5338	89.3909
3.5195	89.1174
3.5052	88.9851
3.491	88.6638
3.477	88.3323
3.463	88.0525
3.4492	87.6355
3.4355	87.2771
3.4219	86.8225
3.4084	86.323
3.395	85.7342
3.3817	85.1765
3.3685	84.5594
3.3554	83.6346
3.3425	82.8553
3.3296	82.2244
3.3168	81.2659
3.3041	80.325
3.2915	79.2991
3.279	78.264
3.2666	77.4217
3.2543	76.4803
3.2421	75.3416
3.23	73.4847
3.218	71.0526
3.206	67.9051
3.1942	64.0731
3.1824	60.3299
3.1707	57.9041
3.1591	58.8885
3.1476	62.3797
3.1362	66.5076
3.1249	69.7488
3.1136	72.1199
3.1024	73.6893
3.0913	74.3895
3.0803	74.7625
3.0694	75.41
3.0585	76.3084
3.0477	77.5135
3.037	78.4266
3.0264	78.8641
3.0158	79.1072
3.0053	79.0037
2.9949	78.8328
2.9845	78.5799
2.9743	78.0154
2.9641	77.2508
2.9539	76.6492
2.9439	76.2986
2.9339	75.9383
2.9239	75.6307
2.9141	75.5486
2.9043	75.7049
2.8946	76.2
2.8849	76.8982
2.8753	77.3914
2.8658	78.1678
2.8563	78.9891
2.8469	79.7576
2.8375	80.3992
2.8282	80.9187
2.819	81.3133
2.8098	81.8211
2.8007	82.4373
2.7917	83.0984
2.7827	83.7693
2.7738	84.5467
2.7649	84.9588
2.7561	85.6912
2.7473	86.364
2.7386	86.95
2.7299	87.3318
2.7213	87.7322
2.7128	87.7195
2.7043	87.6062
2.6959	88.0506
2.6875	88.2068
2.6791	88.2078
2.6709	88.2888
2.6626	88.114
2.6545	87.95
2.6463	87.8299
2.6382	87.8943
2.6302	87.6648
2.6222	87.5086
2.6143	87.3679
2.6064	87.3006
2.5986	87.2029
2.5908	87.2713
2.583	87.1795
2.5753	87.0115
2.5677	86.5681
2.5601	86.7049
2.5525	86.656
2.545	86.3963
2.5375	86.6033
2.5301	86.3396
2.5227	85.9802
2.5154	86.2888
2.5081	86.2185
2.5008	85.8924
2.4936	85.7713
2.4864	85.6267
2.4793	85.5701
2.4722	85.5271
2.4651	85.6209
2.4581	85.4627
2.4511	85.3455
2.4442	85.2224
2.4373	85.0349
2.4305	85.156
2.4236	85.0799
2.4169	85.1131
2.4101	84.9939
2.4034	84.8767
2.3967	84.7439
2.3901	84.4607
2.3835	84.6678
2.377	84.3826
2.3704	84.283
2.364	84.1795
2.3575	84.2029
2.3511	84.3045
2.3447	84.0232
2.3384	83.8748
2.3321	83.8006
2.3258	83.6267
2.3195	83.4705
2.3133	83.449
2.3071	83.4646
2.301	83.3279
2.2949	83.2654
2.2888	83.2674
2.2828	83.3982
2.2767	82.9314
2.2708	83.0877
2.2648	82.8435
2.2589	82.9373
2.253	83.0096
2.2471	82.6736
2.2413	82.8611
2.2355	82.3377
2.2297	82.8142
2.224	82.4295
2.2183	82.4783
2.2126	82.3826
2.207	82.2986
2.2013	82.1736
2.1957	82.2381
2.1902	82.2185
2.1846	81.9021
2.1791	81.6873
2.1736	81.9529
2.1682	81.7693
2.1628	81.7889
2.1574	81.7537
2.152	81.2889
2.1466	81.5193
2.1413	81.617
2.136	80.9881
2.1308	81.5349
2.1255	81.3943
2.1203	81.2264
2.1151	81.0076
2.11	81.2693
2.1048	81.1717
2.0997	81.0545
2.0946	81.0935
2.0895	80.656
2.0845	81.3787
2.0795	80.6404
