Name: Natron Na2CO3·10H2O
Type: Mineral
Class: Carbonate
Subclass: None
Particle Size: Coarse
Sample No.: Natron
Owner: USGS
Wavelength Range: All
Origin: Produced in lab
Description: SyntheticSample was unsieved powder. Original ASTER Spectral Library name was usgs.perknic.mineral.carbonate.none.coarse.natron.spectrum.txt
Measurement: Directional Hemispherical Reflectance
X Units: Wavelength (micrometers)
Y Units: Reflectance (percent)
wavelength	value
14.051	1.5965
13.826	1.3493
13.609	1.2154
13.398	1.0918
13.193	1.1021
12.995	0.9476
12.802	0.9888
12.616	0.7931
12.434	0.9064
12.258	1.0197
12.086	0.9785
11.92	1.0403
11.757	1.0506
11.6	1.1227
11.446	1.1742
11.297	0.9579
11.151	0.7622
11.009	0.7313
10.87	0.7519
10.735	0.8446
10.604	0.8755
10.475	0.9888
10.35	1.03
10.227	1.133
10.108	1.0918
9.991	1.1742
9.877	1.236
9.765	1.3287
9.656	1.2875
9.549	1.339
9.445	1.3493
9.343	1.339
9.243	1.4317
9.145	1.4626
9.049	1.3287
8.956	1.3493
8.864	1.4729
8.774	1.4317
8.686	1.4626
8.599	1.4729
8.515	1.5038
8.431	1.5553
8.35	1.5553
8.27	1.7201
8.192	1.6171
8.115	1.6686
8.039	1.6892
7.965	1.6686
7.893	1.751
7.821	1.7819
7.751	1.8334
7.682	1.9261
7.614	2.06
7.548	2.0703
7.483	2.2969
7.418	2.3896
7.355	2.6471
7.293	2.9355
7.232	3.2342
7.172	3.5329
7.113	3.6771
7.055	3.3166
6.998	2.8943
6.942	2.5029
6.886	1.9364
6.832	1.6995
6.778	1.4111
6.726	1.4214
6.674	1.4111
6.623	1.4008
6.572	1.2772
6.523	1.0609
6.474	0.8858
6.426	0.7725
6.378	0.8343
6.332	0.7931
6.286	0.824
6.24	0.8034
6.195	0.8755
6.151	0.8549
6.108	0.8549
6.065	0.927
6.023	0.8034
5.981	0.7416
5.94	0.7828
5.899	0.7725
5.859	0.6798
5.82	0.7725
5.781	0.7622
5.743	0.9167
5.705	0.9064
5.667	0.8961
5.63	1.0506
5.594	1.1433
5.558	1.1948
5.523	1.2978
5.487	1.3905
5.453	1.5038
5.419	1.5759
5.385	1.6068
5.352	1.648
5.319	1.7407
5.286	1.8231
5.254	1.7922
5.222	1.8231
5.191	1.9364
5.16	1.8952
5.129	1.9261
5.099	1.957
5.069	2.0085
5.04	1.9673
5.01	2.0085
4.981	1.9364
4.953	1.9879
4.925	1.9673
4.897	1.957
4.869	1.9261
4.842	1.9261
4.815	1.957
4.788	1.8643
4.762	1.8643
4.736	1.7922
4.71	1.8231
4.684	1.751
4.659	1.8231
4.634	1.8128
4.61	1.7613
4.585	1.7304
4.561	1.6583
4.537	1.751
4.513	1.6274
4.49	1.7098
4.467	1.7201
4.444	1.7407
4.421	1.7716
4.398	1.751
4.376	1.8437
4.354	1.7201
4.332	1.8849
4.311	1.9158
4.289	1.957
4.268	1.9879
4.247	2.0188
4.226	2.0188
4.206	2.2145
4.185	2.1321
4.165	2.3175
4.145	2.2351
4.126	2.3587
4.106	2.2454
4.086	2.1218
4.067	1.9879
4.048	1.9364
4.029	2.06
4.011	2.4308
3.992	2.3381
3.974	2.5647
3.956	2.6471
3.938	2.7398
3.92	2.8737
3.902	2.8943
3.884	2.8634
3.867	3.0385
3.85	3.0797
3.833	3.0591
3.816	3.0076
3.799	3.0282
3.782	2.9664
3.766	2.884
3.75	2.8531
3.733	2.7295
3.717	2.7604
3.702	2.678
3.686	2.5235
3.67	2.3484
3.655	2.2763
3.639	2.3896
3.624	2.1836
3.609	2.1115
3.594	2.1424
3.579	1.9364
3.564	2.0806
3.549	1.9673
3.535	1.8746
3.521	1.8437
3.506	1.7819
3.492	1.7716
3.478	1.7613
3.464	1.6377
3.45	1.6686
3.437	1.5965
3.423	1.6583
3.409	1.6068
3.396	1.6583
3.383	1.5141
3.37	1.4729
3.357	1.4111
3.344	1.3699
3.331	1.4214
3.318	1.5553
3.305	1.4111
3.293	1.4317
3.28	1.5141
3.268	1.4111
3.255	1.5862
3.243	1.5244
3.231	1.6274
3.219	1.5141
3.207	1.6171
3.195	1.5347
3.183	1.5141
3.172	1.6274
3.16	1.4935
3.149	1.5141
3.137	1.5656
3.126	1.6377
3.115	1.5965
3.103	1.6995
3.092	1.7098
3.081	1.6068
3.07	1.5244
3.06	1.5038
3.049	1.3802
3.038	1.4832
3.027	1.339
3.017	1.339
3.006	1.442
2.996	1.6377
2.986	1.5038
2.975	1.4832
2.965	1.2772
2.955	1.339
2.945	1.4111
2.935	1.2669
2.925	1.0918
2.915	1.1021
2.905	0.9167
2.896	1.133
2.886	0.9888
2.876	1.1639
2.867	1.0712
2.857	0.9476
2.848	1.1845
2.838	1.236
2.829	1.2875
2.82	1.5759
2.811	1.236
2.802	1.3184
2.793	1.6377
2.784	1.4214
2.775	1.8746
2.766	1.7613
2.757	2.3793
2.748	1.9776
2.74	2.1939
2.731	2.3896
2.722	2.7604
2.714	3.1415
2.705	3.5329
2.697	3.5535
2.688	3.9449
2.68	3.9964
2.672	4.3672
2.664	4.5732
2.655	4.6865
2.647	5.1706
2.639	5.3251
2.631	5.3663
2.623	5.665
2.615	6.1079
2.607	5.9534
2.599	6.386
2.592	6.3551
2.584	6.2933
2.576	6.2933
2.569	6.283
2.561	6.8083
2.553	6.5302
2.546	6.901
2.538	6.7671
2.531	6.7465
2.524	6.9319
2.516	7.1791
2.509	6.4993
2.502	7.2821
2.48	6.9989
2.456	7.605
2.432	8.4339
2.408	8.848
2.384	10.2436
2.36	11.1129
2.336	12.1168
2.312	13.5374
2.288	14.7156
2.264	15.2542
2.24	15.3331
2.216	14.6329
2.192	13.7883
2.168	12.7914
2.144	11.5721
2.12	10.388
2.096	9.3303
2.072	8.6354
2.048	8.1759
2.024	7.7723
2	7.5358
1.976	7.4249
1.952	7.5647
1.928	7.9186
1.904	9.3616
1.88	14.5013
1.856	21.0422
1.832	22.9812
1.808	22.3731
1.784	21.3099
1.76	20.5378
1.736	20.8481
1.712	21.1361
1.688	20.8602
1.664	20.4303
1.64	19.9483
1.616	19.4915
1.592	18.8742
1.568	17.8587
1.544	16.1893
1.52	14.4486
1.496	13.1231
1.472	13.2891
1.448	15.7747
1.424	21.3919
1.4	32.4165
1.376	44.2037
1.352	47.1865
1.328	50.6392
1.304	53.9719
1.28	53.5658
1.256	51.818
1.232	51.588
1.208	53.0967
1.184	56.7888
1.16	62.098
1.136	69.1718
1.112	72.1119
1.088	73.3074
1.064	73.5282
1.04	71.9895
1.016	70.2932
0.992	70.3977
0.968	72.3647
0.944	76.2438
0.92	77.1592
0.896	77.9679
0.872	78.79
0.848	80.2644
0.824	80.577
0.8	80.5545
0.776	80.4355
0.752	80.7216
0.728	80.939
0.704	81.0705
0.68	81.0365
0.656	81.0013
0.632	80.9294
0.608	80.903
0.584	80.8369
0.56	80.3982
0.536	79.8547
0.512	79.3647
0.488	78.7999
0.464	78.2865
0.44	77.5523
0.416	76.535
