Name: Albite (Feldspar) (K,Na)AlSi_3O_8
Type: Mineral
Class: Silicate
Subclass: Tectosilicate
Particle Size: Coarse
Sample No.: TS-6A
Owner: JPL
Wavelength Range: TIR
Description: Particle size was 125-500um.Collected by JPL Original ASTER Spectral Library name was jpl.nicolet.mineral.silicate.tectosilicate.coarse.ts06a.spectrum.txt
Measurement: Hemispherical reflectance
X Units: Wavelength (micrometers)
Y Units: Reflectance (percent)
wavelength	value
15.3853	4.4146
15.1161	1.6948
14.8563	1.603
14.6052	2.0243
14.3624	2.375
14.1276	2.5312
13.9004	3.0623
13.6803	2.8807
13.4671	2.9484
13.2604	3.0447
13.06	2.8152
12.8656	2.6372
12.6769	2.536
12.4936	2.1364
12.3155	2.3771
12.1425	2.7913
11.9742	3.2756
11.8106	3.6543
11.6513	3.9175
11.4963	4.342
11.3454	4.7353
11.1983	5.4041
11.0551	6.0729
10.9154	6.9182
10.7793	7.7855
10.6465	8.4931
10.5169	9.1621
10.3904	10.0312
10.267	11.3394
10.1464	13.0384
10.0287	14.7615
9.9136	15.9735
9.8012	16.1305
9.6913	15.8324
9.5838	14.4578
9.4787	11.4842
9.3758	9.4953
9.2752	9.0017
9.1767	9.4295
9.0803	9.7201
8.9858	10.6009
8.8934	11.5123
8.8028	12.1923
8.714	12.4648
8.627	12.2286
8.5417	12.2631
8.4581	11.8554
8.3761	11.313
8.2957	9.5136
8.2169	5.3624
8.1395	2.2948
8.0635	0.9069
7.989	0.3999
7.9158	0.2286
7.8439	0.0956
7.7734	0.347
7.7041	0.1672
7.636	0.2116
7.5691	0.3321
7.5034	0.3811
7.4388	0.4305
7.3753	0.4289
7.3129	0.5799
7.2515	0.4577
7.1912	0.5693
7.1318	0.7439
7.0734	0.6739
7.016	0.8438
6.9595	0.8498
6.9039	0.9708
6.8492	0.9424
6.7953	1.0222
6.7423	0.9851
6.6901	1.0272
6.6387	1.0942
6.5881	1.1202
6.5382	1.2017
6.4892	1.1936
6.4408	1.1744
6.3931	1.1486
6.3462	1.1278
6.2999	1.1606
6.2543	1.1551
6.2094	1.1372
6.1651	1.1687
6.1214	1.1672
6.0784	1.2769
6.0359	1.2068
5.994	1.2669
5.9527	1.3209
5.912	1.2306
5.8718	1.3874
5.8322	1.3536
5.7931	1.2959
5.7545	1.3311
5.7165	1.5055
5.6789	1.3285
5.6418	1.3585
5.6052	1.4733
5.5691	1.5793
5.5334	1.4921
5.4982	1.6819
5.4635	1.8401
5.4291	1.9481
5.3952	2.0577
5.3618	2.2397
5.3287	2.2107
5.2961	2.3397
5.2638	2.4471
5.2319	2.6003
5.2004	2.9417
5.1693	2.9999
5.1386	3.3555
5.1082	3.7104
5.0782	4.2653
5.0485	4.7552
5.0192	5.3746
4.9902	5.9076
4.9616	6.2943
4.9332	6.5673
4.9052	6.8033
4.8776	7.1307
4.8502	7.3658
4.8231	7.738
4.7963	7.8608
4.7699	8.197
4.7437	8.3396
4.7178	8.7802
4.6922	9.3184
4.6668	10.1282
4.6418	10.9763
4.617	12.0302
4.5924	13.2847
4.5681	14.6259
4.5441	16.0429
4.5203	17.6048
4.4968	19.0534
4.4735	20.8734
4.4505	22.4667
4.4277	24.0056
4.4051	25.6724
4.3828	27.3555
4.3607	29.3761
4.3388	31.2804
4.3171	33.07
4.2956	34.5445
4.2744	36.2611
4.2534	38.7676
4.2325	39.5529
4.2119	42.2268
4.1915	44.2015
4.1712	45.3685
4.1512	46.3218
4.1313	47.0541
4.1117	47.6232
4.0922	47.9364
4.0729	48.2276
4.0538	48.3433
4.0349	47.9038
4.0161	47.3894
3.9976	45.683
3.9792	44.653
3.9609	45.8079
3.9428	48.1313
3.9249	49.1582
3.9072	49.7024
3.8896	50.128
3.8722	50.662
3.8549	51.09
3.8378	51.9644
3.8208	53.0174
3.804	53.9516
3.7873	54.9335
3.7708	55.468
3.7544	55.6239
3.7382	55.8712
3.7221	56.0688
3.7061	56.1537
3.6903	56.3108
3.6746	56.3507
3.659	56.2187
3.6436	56.1094
3.6283	55.9906
3.6131	55.6677
3.5981	55.3525
3.5832	54.8338
3.5684	54.0854
3.5537	53.3799
3.5391	52.5667
3.5247	51.1388
3.5104	49.2548
3.4962	47.9368
3.4821	47.1538
3.4681	47.4278
3.4543	47.525
3.4405	46.8181
3.4269	45.685
3.4133	44.3905
3.3999	43.8519
3.3866	43.2157
3.3733	42.3006
3.3602	41.4412
3.3472	40.7651
3.3343	41.0316
3.3215	40.3791
3.3088	39.5026
3.2961	38.621
3.2836	37.5658
3.2712	36.6268
3.2588	35.609
3.2466	34.6086
3.2345	33.6159
3.2224	32.6538
3.2104	31.7871
3.1985	30.5627
3.1867	29.5418
3.175	28.3943
3.1634	27.391
3.1519	26.517
3.1404	25.4617
3.129	24.6185
3.1178	23.8542
3.1065	23.2639
3.0954	22.5223
3.0844	22.2225
3.0734	21.5801
3.0625	21.4214
3.0517	21.0345
3.041	20.7074
3.0303	20.184
3.0197	20.0387
3.0092	19.6601
2.9987	19.2493
2.9884	18.9259
2.9781	18.714
2.9678	18.3484
2.9577	18.0402
2.9476	18.143
2.9376	17.9996
2.9276	17.7518
2.9177	17.7994
2.9079	17.926
2.8982	18.2285
2.8885	18.2419
2.8789	18.44
2.8693	18.498
2.8598	18.7454
2.8504	18.7981
2.841	19.0386
2.8317	19.0282
2.8224	19.1933
2.8133	19.1799
2.8041	19.2821
2.7951	18.7882
2.786	18.0712
2.7771	16.1966
2.7682	14.9068
2.7594	13.6353
2.7506	14.0251
2.7418	15.2652
2.7332	16.4819
2.7246	19.3695
2.716	25.0156
2.7075	32.6761
2.699	40.5273
2.6906	48.7671
2.6823	54.4764
2.674	57.3229
2.6657	59.9538
2.6575	60.6072
2.6494	61.4706
2.6413	62.2503
2.6332	63.0548
2.6252	63.1054
2.6173	63.5684
2.6094	63.5781
2.6015	63.9575
2.5937	65.1464
2.5859	64.8082
2.5782	65.0858
2.5706	65.2345
2.5629	65.5964
2.5554	65.4403
2.5478	65.48
2.5403	65.5325
2.5329	65.56
2.5255	65.7928
2.5181	65.6362
2.5108	65.606
2.5035	65.6305
2.4963	65.3686
2.4891	65.6603
2.482	65.6428
2.4749	65.6838
2.4678	65.669
2.4608	65.6261
2.4538	65.5792
2.4468	65.3984
2.4399	65.4784
2.4331	65.7174
2.4262	66.3028
2.4194	67.098
2.4127	67.6057
2.4059	68.1577
2.3993	68.5772
2.3926	68.7341
2.386	68.9587
2.3795	69.0753
2.3729	69.104
2.3664	69.1714
2.36	68.8818
2.3535	68.5261
2.3471	68.5266
2.3408	68.8335
2.3345	69.5368
2.3282	70.1755
2.3219	70.6566
2.3157	71.3097
2.3095	72.0672
2.3034	72.4768
2.2972	72.8564
2.2911	73.3621
2.2851	73.4038
2.279	73.7398
2.2731	73.7185
2.2671	73.7145
2.2612	73.5243
2.2553	73.2945
2.2494	73.2383
2.2435	73.2732
2.2377	73.1541
2.232	72.8362
2.2262	72.4111
2.2205	71.4598
2.2148	70.4614
2.2091	69.3661
2.2035	68.2029
2.1979	67.7125
2.1923	68.18
2.1868	69.5626
2.1812	71.0793
2.1758	72.0372
2.1703	73.1812
2.1649	73.8056
2.1595	74.3474
2.1541	74.944
2.1487	75.1288
2.1434	75.1275
2.1381	75.5464
2.1328	75.3193
2.1275	75.0799
2.1223	75.4354
2.1171	75.3137
2.112	75.5103
2.1068	75.5325
2.1017	75.5869
2.0966	75.7046
2.0915	75.6644
2.0865	75.3656
2.0814	75.394
2.0764	75.3095
2.0715	75.4
2.0665	75.4229
2.0616	75.627
2.0567	75.314
2.0518	75.3434
2.0469	75.1546
2.0421	75.1935
2.0373	74.9734
2.0325	75.1427
2.0277	74.8673
2.0229	74.6296
2.0182	74.3654
2.0135	74.5269
2.0088	74.1619
2.0042	73.9877
