Name: Olivine (Fo88) (Fe+2,Mg)2SiO4
Type: Mineral
Class: Silicate
Subclass: Nesosilicate
Particle Size: Fine
Sample No.: olivine_8
Owner: JHU
Wavelength Range: TIR
Origin: Brenham, Kansas (location of meteorite fall) via Trude King#10L (from the Center for Meteorite Studies, Arizona St. University)
Description: Olivine obtained from the Brenham meteorite was optically examined using a petrographic microscope prior to spectral measurements to insure purity of the olivine.  Olivine then hand ground and wet sieved to less than 30 micrometers.  Sample preparation by Trude King, USGS, Denver. Particle size was Less than 2 Micrometers.(Isolated tetrahedra); (Olivine Group) Original ASTER Spectral Library name was jhu.nicolet.mineral.silicate.nesosilicate.powder.olivin8.spectrum.txt
Measurement: Transmission
X Units: Wavelength (micrometers)
Y Units: Transmittance (percent)
wavelength	value
25.0442	39.9999
24.3388	25.8749
23.6719	25.3984
23.0407	37.58
22.4422	50.7987
21.8741	53.7284
21.334	55.4295
20.8199	61.1893
20.33	51.2421
19.8627	33.0194
19.4163	34.372
18.9896	37.828
18.5812	42.9686
18.19	51.2069
17.815	68.7576
17.4551	78.2576
17.1094	79.0467
16.7772	62.619
16.4576	53.3983
16.15	63.4315
15.8537	77.8094
15.568	84.5799
15.2925	88.1541
15.0265	90.1941
14.7697	91.197
14.5214	91.8884
14.2814	92.5115
14.0492	93.2908
13.8244	93.3064
13.6067	93.303
13.3957	92.7068
13.1912	91.6331
12.9929	90.0623
12.8004	87.2088
12.6135	84.5467
12.432	80.7776
12.2557	76.1702
12.0843	64.9398
11.9176	49.0668
11.7555	54.1844
11.5977	40.8183
11.444	24.3442
11.2944	14.4677
11.1487	17.9282
11.0067	22.6586
10.8682	26.4853
10.7332	34.0878
10.6015	40.391
10.473	37.2899
10.3476	46.0072
10.2251	31.3202
10.1056	29.2978
9.9887	32.5878
9.8746	41.6806
9.763	52.7679
9.6539	62.1141
9.5472	68.6527
9.4429	72.6639
9.3408	74.8665
9.2409	75.4559
9.1431	77.3284
9.0474	80.2742
8.9536	82.8015
8.8618	85.072
8.7718	86.5496
8.6837	87.5476
8.5973	88.4492
8.5126	89.2715
8.4295	90.5789
8.3481	92.0691
8.2682	93.3757
8.1898	94.3232
8.1129	94.9539
8.0374	95.3269
7.9634	95.6453
7.8906	95.8428
7.8192	96.0862
7.7491	96.4287
7.6802	96.8025
7.6126	96.9228
7.5461	97.1064
7.4807	97.4492
7.4165	97.6887
7.3534	97.7051
7.2914	97.9141
7.2303	97.8935
7.1703	97.915
7.1113	97.9648
7.0533	98.1387
6.9962	98.2507
6.94	98.3184
6.8847	98.3894
6.8302	98.5461
6.7767	98.6494
6.7239	98.8301
6.672	98.9502
6.6209	99.04
6.5705	99.0237
6.5209	99.0168
6.4721	98.9519
6.424	98.7322
6.3766	98.7136
6.3299	98.4812
6.2838	98.3015
6.2385	98.124
6.1937	98.0789
6.1496	98.1985
6.1062	98.2497
6.0633	98.2502
6.0211	98.0098
5.9794	98.043
5.9383	98.5134
5.8978	98.9785
5.8578	99.1687
5.8184	98.9316
5.7794	98.9011
5.741	99.0273
5.7031	99.1081
5.6657	98.9988
5.6288	98.863
5.5924	98.99
5.5564	99.0847
5.5209	99.2256
5.4859	99.1648
5.4513	99.1975
5.4171	99.1445
5.3833	99.2471
5.35	99.238
5.3171	99.2939
5.2846	99.3262
5.2524	99.3337
5.2207	99.2737
5.1893	99.3516
5.1584	99.3572
5.1277	99.3603
5.0975	99.3445
5.0676	99.3389
5.038	99.3611
5.0088	99.3769
4.98	99.3181
4.9514	99.3132
4.9232	99.3633
4.8953	99.3992
4.8678	99.5051
4.8405	99.4792
4.8135	99.5188
4.7868	99.529
4.7605	99.4841
4.7344	99.4285
4.7086	99.3874
4.6831	99.3801
4.6578	99.2869
4.6328	99.2873
4.6081	99.24
4.5837	99.1672
4.5595	99.1072
4.5356	99.0759
4.5119	99.0452
4.4884	98.9748
4.4652	98.9001
4.4423	98.8708
4.4196	98.8279
4.3971	98.8044
4.3748	98.7327
4.3528	98.6999
4.331	98.6775
4.3094	98.6091
4.288	98.5095
4.2668	98.5452
4.2458	98.5281
4.2251	98.4031
4.2045	98.4436
4.1841	98.385
4.164	98.363
4.144	98.3411
4.1242	98.2991
4.1046	98.2283
4.0852	98.1741
4.066	98.1287
4.047	98.0945
4.0281	97.9978
4.0094	98.0173
3.9909	97.9123
3.9725	97.8484
3.9544	97.8079
3.9363	97.7068
3.9185	97.7209
3.9008	97.676
3.8833	97.6121
3.8659	97.5159
3.8487	97.4011
3.8316	97.3914
3.8147	97.3103
3.7979	97.3113
3.7813	97.1921
3.7648	97.0857
3.7485	97.0281
3.7323	97.0105
3.7162	96.9123
3.7003	96.8669
3.6845	96.7664
3.6689	96.7585
3.6534	96.6785
3.638	96.6819
3.6227	96.5496
3.6076	96.4607
3.5926	96.3928
3.5777	96.3464
3.563	96.3103
3.5484	96.2175
3.5338	96.2112
3.5195	96.2034
3.5052	96.2195
3.491	96.0212
3.477	95.8928
3.463	95.8166
3.4492	95.7791
3.4355	95.7634
3.4219	95.7541
3.4084	95.5056
3.395	95.3728
3.3817	95.197
3.3685	95.1389
3.3554	94.9163
3.3425	94.7459
3.3296	94.7327
3.3168	94.6482
3.3041	94.5916
3.2915	94.4763
3.279	94.3669
3.2666	94.2053
3.2543	94.1404
3.2421	94.0369
3.23	93.887
3.218	93.8088
3.206	93.657
3.1942	93.531
3.1824	93.3572
3.1707	93.3533
3.1591	93.2166
3.1476	93.1218
3.1362	92.8787
3.1249	92.7605
3.1136	92.7439
3.1024	92.656
3.0913	92.5759
3.0803	92.5252
3.0694	92.4343
3.0585	92.364
3.0477	92.2771
3.037	92.2029
3.0264	92.0642
3.0158	91.99
3.0053	91.8826
2.9949	91.9109
2.9845	92.0896
2.9743	92.0086
2.9641	92.0935
2.9539	92.1814
2.9439	92.3318
2.9339	92.2576
2.9239	92.2556
2.9141	92.3005
2.9043	92.2742
2.8946	92.3484
2.8849	92.3836
2.8753	92.4109
2.8658	92.4002
2.8563	92.5369
2.8469	92.5945
2.8375	92.7068
2.8282	92.5388
2.819	92.6482
2.8098	92.7156
2.8007	92.7341
2.7917	92.7185
2.7827	92.8523
2.7738	92.9138
2.7649	92.8552
2.7561	92.8669
2.7473	93.0642
2.7386	93.1775
2.7299	93.2937
2.7213	93.3904
2.7128	93.4373
2.7043	93.3992
2.6959	93.3445
2.6875	93.4353
2.6791	93.4421
2.6709	93.4841
2.6626	93.3406
2.6545	93.2937
2.6463	93.1755
2.6382	93.3289
2.6302	93.1482
2.6222	93.2009
2.6143	93.1287
2.6064	93.1033
2.5986	93.1912
2.5908	93.1052
2.583	93.0466
2.5753	93.0798
2.5677	93.0193
2.5601	92.8904
2.5525	93.0173
2.545	92.9021
2.5375	92.824
2.5301	92.9002
2.5227	92.7849
2.5154	92.658
2.5081	92.7595
2.5008	92.8377
2.4936	92.7517
2.4864	92.781
2.4793	92.7029
2.4722	92.6912
2.4651	92.6736
2.4581	92.5623
2.4511	92.5193
2.4442	92.5935
2.4373	92.4861
2.4305	92.3045
2.4236	92.2576
2.4169	92.3826
2.4101	92.3377
2.4034	92.5095
2.3967	92.2673
2.3901	92.281
2.3835	92.1248
2.377	92.0564
2.3704	92.1404
2.364	92.0545
2.3575	92.1502
2.3511	92.1267
2.3447	92.1033
2.3384	92.0349
2.3321	91.8787
2.3258	91.7498
2.3195	91.9236
2.3133	91.699
2.3071	91.8455
2.301	91.8904
2.2949	91.699
2.2888	91.6345
2.2828	91.617
2.2767	91.3591
2.2708	91.3084
2.2648	91.238
2.2589	91.3591
2.253	91.4295
2.2471	91.4568
2.2413	91.0623
2.2355	91.0076
2.2297	91.031
2.224	90.8748
2.2183	91.031
2.2126	91.031
2.207	90.6638
2.2013	90.6248
2.1957	90.9373
2.1902	90.8943
2.1846	90.6287
2.1791	90.363
2.1736	90.3084
2.1682	90.3201
2.1628	90.5857
2.1574	90.0974
2.152	90.0232
2.1466	89.6599
2.1413	89.742
2.136	89.867
2.1308	89.5193
2.1255	89.6287
2.1203	89.7381
2.1151	89.3123
2.11	89.2185
2.1048	89.3279
2.0997	89.4295
2.0946	89.1756
2.0895	89.2654
2.0845	89.0974
2.0795	88.6404
