Name: Jarosite KFe_3^3+(SO_4)_2(OH)_6
Type: Mineral
Class: Sulfate
Subclass: None
Particle Size: Coarse
Sample No.: SO-7A
Owner: JPL
Wavelength Range: TIR
Origin: Mexico, Chihuahua
Description: Particle size was 125-500um.Collected by Ward's Original ASTER Spectral Library name was jpl.nicolet.mineral.sulfate.none.coarse.so07a.spectrum.txt
Measurement: Hemispherical reflectance
X Units: Wavelength (micrometers)
Y Units: Reflectance (percent)
wavelength	value
15.3853	0.5161
15.1161	0.7773
14.8563	1.1624
14.6052	1.0745
14.3624	1.1311
14.1276	0.9164
13.9004	1.3981
13.6803	1.2846
13.4671	1.5577
13.2604	1.7841
13.06	2.0686
12.8656	2.348
12.6769	2.274
12.4936	2.5532
12.3155	2.3082
12.1425	1.7707
11.9742	1.1189
11.8106	0.9144
11.6513	0.9311
11.4963	0.9424
11.3454	1.1885
11.1983	1.3277
11.0551	1.4293
10.9154	1.8625
10.7793	2.2311
10.6465	2.4238
10.5169	2.6736
10.3904	3.1027
10.267	3.1583
10.1464	3.2979
10.0287	3.2543
9.9136	2.9492
9.8012	2.7408
9.6913	2.2673
9.5838	1.5946
9.4787	2.135
9.3758	2.5455
9.2752	2.6767
9.1767	2.3857
9.0803	2.1285
8.9858	2.0657
8.8934	1.5177
8.8028	1.1513
8.714	1.0349
8.627	1.0043
8.5417	1.026
8.4581	1.1504
8.3761	1.1089
8.2957	1.4817
8.2169	1.366
8.1395	1.6619
8.0635	2.5069
7.989	3.2821
7.9158	4.2487
7.8439	5.0871
7.7734	5.8275
7.7041	6.2002
7.636	6.6636
7.5691	6.8503
7.5034	7.0032
7.4388	7.0766
7.3753	7.2842
7.3129	7.5595
7.2515	7.6869
7.1912	8.0763
7.1318	8.2739
7.0734	8.5405
7.016	8.5595
6.9595	8.8093
6.9039	8.7973
6.8492	8.7581
6.7953	9.103
6.7423	9.3273
6.6901	9.374
6.6387	9.6111
6.5881	9.5311
6.5382	9.3694
6.4892	9.3506
6.4408	9.1471
6.3931	9.1585
6.3462	9.3862
6.2999	9.1911
6.2543	9.1823
6.2094	9.0984
6.1651	8.583
6.1214	8.3974
6.0784	8.6657
6.0359	8.7375
5.994	9.0696
5.9527	9.2609
5.912	9.545
5.8718	9.9832
5.8322	10.3259
5.7931	10.8058
5.7545	11.1155
5.7165	11.462
5.6789	11.533
5.6418	11.8189
5.6052	11.7546
5.5691	11.8223
5.5334	12.1017
5.4982	12.2878
5.4635	12.6264
5.4291	12.7735
5.3952	12.9548
5.3618	13.1665
5.3287	13.2765
5.2961	13.223
5.2638	13.2048
5.2319	12.8664
5.2004	12.286
5.1693	11.5699
5.1386	10.9247
5.1082	10.3066
5.0782	9.8847
5.0485	9.9006
5.0192	9.7958
4.9902	9.6686
4.9616	9.3356
4.9332	9.3499
4.9052	9.4583
4.8776	9.6031
4.8502	9.5029
4.8231	9.4945
4.7963	9.4526
4.7699	9.3741
4.7437	9.0762
4.7178	8.8933
4.6922	8.7833
4.6668	8.7013
4.6418	8.837
4.617	8.9514
4.5924	9.2869
4.5681	9.6003
4.5441	9.9453
4.5203	10.2983
4.4968	10.9419
4.4735	11.6689
4.4505	12.6939
4.4277	13.4904
4.4051	14.2701
4.3828	14.9223
4.3607	15.2095
4.3388	15.5645
4.3171	15.7352
4.2956	15.9311
4.2744	15.999
4.2534	16.1815
4.2325	16.0724
4.2119	16.3953
4.1915	16.3602
4.1712	16.4303
4.1512	16.3907
4.1313	16.535
4.1117	16.4792
4.0922	16.448
4.0729	16.3806
4.0538	16.2491
4.0349	16.1456
4.0161	15.9085
3.9976	15.5212
3.9792	15.2162
3.9609	14.8209
3.9428	14.5798
3.9249	14.1544
3.9072	13.7753
3.8896	13.327
3.8722	13.0348
3.8549	12.436
3.8378	12.126
3.8208	11.6846
3.804	11.3507
3.7873	10.8911
3.7708	10.6348
3.7544	10.2536
3.7382	9.8945
3.7221	9.5365
3.7061	9.0696
3.6903	8.8658
3.6746	8.5576
3.659	8.3969
3.6436	7.837
3.6283	7.7302
3.6131	7.3392
3.5981	7.1668
3.5832	6.9096
3.5684	6.5186
3.5537	6.3984
3.5391	6.0708
3.5247	5.9052
3.5104	5.7024
3.4962	5.5941
3.4821	5.4223
3.4681	5.2791
3.4543	5.1629
3.4405	5.0662
3.4269	4.8637
3.4133	4.7494
3.3999	4.5781
3.3866	4.6911
3.3733	4.6029
3.3602	4.5726
3.3472	4.634
3.3343	4.5903
3.3215	4.5841
3.3088	4.6802
3.2961	4.5478
3.2836	4.6207
3.2712	4.7377
3.2588	4.7957
3.2466	4.798
3.2345	4.8401
3.2224	4.8544
3.2104	4.9274
3.1985	5.1005
3.1867	5.0473
3.175	5.1626
3.1634	5.2369
3.1519	5.3916
3.1404	5.4083
3.129	5.2747
3.1178	5.296
3.1065	5.1214
3.0954	5.1464
3.0844	4.8864
3.0734	4.6988
3.0625	4.4836
3.0517	4.0897
3.041	3.9478
3.0303	3.7012
3.0197	3.362
3.0092	3.0759
2.9987	2.7244
2.9884	2.4848
2.9781	2.2302
2.9678	2.1834
2.9577	2.3458
2.9476	2.5089
2.9376	2.8636
2.9276	3.1482
2.9177	3.4534
2.9079	3.73
2.8982	4.8241
2.8885	5.1724
2.8789	6.0316
2.8693	7.0945
2.8598	8.1988
2.8504	9.5387
2.841	11.0067
2.8317	12.4583
2.8224	14.0733
2.8133	15.6533
2.8041	17.4352
2.7951	19.3855
2.786	21.2962
2.7771	23.0897
2.7682	25.212
2.7594	26.9879
2.7506	28.9707
2.7418	31.4877
2.7332	33.5642
2.7246	36.2326
2.716	37.547
2.7075	38.5995
2.699	39.7017
2.6906	40.2068
2.6823	40.5207
2.674	40.5191
2.6657	40.7673
2.6575	40.2143
2.6494	39.9842
2.6413	40.0782
2.6332	40.2129
2.6252	40.5084
2.6173	41.3476
2.6094	41.8673
2.6015	42.4543
2.5937	44.0574
2.5859	44.5735
2.5782	45.3923
2.5706	46.3912
2.5629	47.2358
2.5554	47.7672
2.5478	48.2297
2.5403	48.3395
2.5329	48.5162
2.5255	48.7323
2.5181	48.8913
2.5108	49.2614
2.5035	49.9526
2.4963	50.4038
2.4891	50.7481
2.482	50.8232
2.4749	50.7682
2.4678	50.8253
2.4608	51.0763
2.4538	51.4181
2.4468	51.766
2.4399	52.2545
2.4331	52.8235
2.4262	53.4887
2.4194	53.6927
2.4127	54.3655
2.4059	54.716
2.3993	55.3309
2.3926	55.904
2.386	56.5033
2.3795	57.1379
2.3729	57.6501
2.3664	58.0754
2.36	58.6941
2.3535	58.9176
2.3471	59.0592
2.3408	58.8116
2.3345	58.3614
2.3282	57.8501
2.3219	57.1642
2.3157	56.3288
2.3095	55.8123
2.3034	55.0675
2.2972	54.594
2.2911	54.221
2.2851	54.0167
2.279	54.1611
2.2731	54.5912
2.2671	55.375
2.2612	56.4805
2.2553	57.3319
2.2494	58.0531
2.2435	58.6213
2.2377	59.4787
2.232	60.3722
2.2262	60.9433
2.2205	61.425
2.2148	61.9559
2.2091	62.2014
2.2035	62.7693
2.1979	63.2736
2.1923	63.5977
2.1868	64.1457
2.1812	64.4602
2.1758	65.0086
2.1703	65.2412
2.1649	65.6632
2.1595	65.8295
2.1541	66.2537
2.1487	66.2169
2.1434	66.5554
2.1381	66.7358
2.1328	66.8513
2.1275	67.1865
2.1223	67.2968
2.1171	67.3219
2.112	67.715
2.1068	68.0822
2.1017	67.8025
2.0966	68.366
2.0915	68.3261
2.0865	68.4426
2.0814	68.5958
2.0764	68.7341
2.0715	69.1119
2.0665	69.1051
2.0616	68.9818
2.0567	69.3066
2.0518	69.2338
2.0469	69.0521
2.0421	69.398
2.0373	69.2487
2.0325	69.4866
2.0277	69.6111
2.0229	69.5135
2.0182	69.9257
2.0135	69.7743
2.0088	69.9999
2.0042	70.0481
