Name: Celestite SrSO_4
Type: Mineral
Class: Sulfate
Subclass: None
Particle Size: Fine
Sample No.: SO-5A
Owner: JPL
Wavelength Range: VSWIR
Origin: USA, Utah, Emery County.
Description: Particle size was 0-45um.Collected by:  Grieger's Inc. Original ASTER Spectral Library name was jpl.perkin.mineral.sulfate.none.fine.so05a.spectrum.txt
Measurement: Hemispherical reflectance
X Units: Wavelength (micrometers)
Y Units: Reflectance (percent)
wavelength	value
2.5	82.3154
2.494	82.3503
2.488	82.3215
2.482	82.3247
2.476	82.4715
2.47	82.4707
2.464	82.6032
2.458	82.4999
2.452	82.5146
2.446	82.6674
2.44	82.8932
2.434	82.9142
2.428	83.003
2.422	83.0411
2.416	82.9583
2.41	83.2036
2.404	83.1722
2.398	83.2411
2.392	83.3362
2.386	83.5129
2.38	83.5769
2.374	83.6843
2.368	83.7813
2.362	83.7997
2.356	83.8975
2.35	83.9481
2.344	84.0253
2.338	84.118
2.332	84.1254
2.326	84.0827
2.32	83.9458
2.314	83.9616
2.308	83.9392
2.302	83.9076
2.296	83.9875
2.29	83.9658
2.284	83.8466
2.278	83.9093
2.272	83.9232
2.266	83.8783
2.26	83.8572
2.254	83.7571
2.248	83.8494
2.242	83.884
2.236	83.9416
2.23	83.9465
2.224	83.988
2.218	84.1034
2.212	84.1743
2.206	84.2628
2.2	84.4328
2.194	84.4465
2.188	84.4999
2.182	84.6682
2.176	84.7595
2.17	84.918
2.164	85.0466
2.158	85.2047
2.152	85.3043
2.146	85.3015
2.14	85.3871
2.134	85.2123
2.128	85.0623
2.122	84.8786
2.116	84.6049
2.11	84.3088
2.104	83.9898
2.098	83.8551
2.092	83.9674
2.086	84.0594
2.08	84.0697
2.074	84.1864
2.068	84.2476
2.062	84.2728
2.056	84.3459
2.05	84.4415
2.044	84.5071
2.038	84.531
2.032	84.5191
2.026	84.6293
2.02	84.5028
2.014	84.522
2.008	84.5827
2.002	84.5135
1.996	84.4607
1.99	84.401
1.984	84.2711
1.978	84.25
1.972	84.2139
1.966	84.0909
1.96	84.0476
1.954	84.0578
1.948	84.1189
1.942	84.097
1.936	84.1224
1.93	84.2137
1.924	84.2256
1.918	84.3523
1.912	84.4024
1.906	84.4944
1.9	84.5879
1.894	84.7919
1.888	84.8385
1.882	84.946
1.876	85.0622
1.87	85.0864
1.864	85.1213
1.858	85.1701
1.852	85.1977
1.846	85.1358
1.84	85.1878
1.834	85.1826
1.828	85.1911
1.822	85.2207
1.816	85.2142
1.81	85.2411
1.804	85.212
1.798	85.2739
1.792	85.2248
1.786	85.2704
1.78	85.2957
1.774	85.2146
1.768	85.2174
1.762	85.227
1.756	85.2343
1.75	85.2637
1.744	85.259
1.738	85.2757
1.732	85.3076
1.726	85.3666
1.72	85.3494
1.714	85.3546
1.708	85.3963
1.702	85.2878
1.696	85.2799
1.69	85.2793
1.684	85.2922
1.678	85.2783
1.672	85.2599
1.666	85.3788
1.66	85.2952
1.654	85.2054
1.648	85.2715
1.642	85.1305
1.636	85.2916
1.63	85.283
1.624	85.3348
1.618	85.3417
1.612	85.2504
1.606	85.2935
1.6	85.2643
1.594	85.2992
1.588	85.3178
1.582	85.2726
1.576	85.2566
1.57	85.2709
1.564	85.2896
1.558	85.2422
1.552	85.2082
1.546	85.2749
1.54	85.2862
1.534	85.218
1.528	85.1874
1.522	85.1908
1.516	85.189
1.51	85.191
1.504	85.1671
1.498	85.1426
1.492	85.1728
1.486	85.1376
1.48	85.1472
1.474	85.0825
1.468	85.0922
1.462	85.1275
1.456	85.0959
1.45	85.0988
1.444	85.0685
1.438	85.1181
1.432	85.0304
1.426	85.1364
1.42	85.0478
1.414	85.0451
1.408	85.0353
1.402	84.9971
1.396	85.2386
1.39	85.2466
1.384	85.1653
1.378	85.3037
1.372	85.0873
1.366	85.2359
1.36	85.2539
1.354	85.2626
1.348	85.1345
1.342	85.1294
1.336	85.1726
1.33	85.2217
1.324	85.0801
1.318	85.0198
1.312	85.1982
1.306	85.1529
1.3	85.2077
1.294	85.1981
1.288	85.0716
1.282	85.1534
1.276	85.1736
1.27	85.1753
1.264	85.169
1.258	85.0267
1.252	85.1222
1.246	85.1069
1.24	85.0191
1.234	85.0847
1.228	85.0846
1.222	85.0661
1.216	85.0191
1.21	85.1008
1.204	85.0404
1.198	85.0342
1.192	85.0267
1.186	84.9605
1.18	84.982
1.174	85.0447
1.168	85.1205
1.162	85.0706
1.156	85.0954
1.15	85.0439
1.144	85.0021
1.138	85.0836
1.132	85.0867
1.126	85.092
1.12	85.1311
1.114	85.0242
1.108	85.0689
1.102	85.1389
1.096	85.0766
1.09	85.0524
1.084	85.0971
1.078	85.1792
1.072	85.138
1.066	85.1563
1.06	85.0896
1.054	85.0709
1.048	85.0369
1.042	85.1865
1.036	85.1492
1.03	85.0331
1.024	85.1666
1.018	85.1323
1.012	85.1828
1.006	85.0896
1	85.1393
0.994	85.1658
0.988	85.1045
0.982	85.2032
0.976	85.1827
0.97	85.2262
0.964	85.1321
0.958	85.1036
0.952	85.1473
0.946	85.1465
0.94	85.1748
0.934	85.147
0.928	85.2318
0.922	85.1929
0.916	85.1898
0.91	85.2377
0.904	85.2437
0.898	85.1534
0.892	85.1054
0.886	85.1295
0.88	85.1939
0.874	85.1461
0.868	85.1725
0.862	85.1621
0.856	85.2878
0.85	85.3319
0.844	85.2662
0.838	85.2689
0.832	85.2603
0.826	85.295
0.82	85.273
0.814	85.256
0.808	85.2831
0.802	85.2509
0.796	85.1568
0.79	85.1791
0.784	85.1217
0.778	85.1086
0.772	85.0547
0.766	84.9663
0.76	84.9916
0.754	84.9477
0.748	84.8856
0.742	84.848
0.736	84.8456
0.73	84.8071
0.724	84.7572
0.718	84.7251
0.712	84.6857
0.706	84.6546
0.7	84.5973
0.694	84.5586
0.688	84.5322
0.682	84.4604
0.676	84.4285
0.67	84.3878
0.664	84.3069
0.658	84.231
0.652	84.186
0.646	84.14
0.64	84.0778
0.634	84.0167
0.628	83.9745
0.622	83.887
0.616	83.8515
0.61	83.7895
0.604	83.7531
0.598	83.721
0.592	83.7301
0.586	83.6715
0.58	83.6036
0.574	83.5417
0.568	83.464
0.562	83.358
0.556	83.2748
0.55	83.1563
0.544	83.0532
0.538	82.9693
0.532	82.855
0.526	82.7497
0.52	82.6569
0.514	82.5256
0.508	82.4099
0.502	82.2978
0.496	82.1399
0.49	82.0141
0.484	81.8853
0.478	81.7451
0.472	81.648
0.466	81.5104
0.46	81.3945
0.454	81.2405
0.448	81.0361
0.442	80.8571
0.436	80.5862
0.43	80.3621
0.424	80.0994
0.418	79.8669
0.412	79.6324
0.406	79.381
0.4	79.1313
