Name: Topaz Al2SiO4(F,OH)2
Type: Mineral
Class: Silicate
Subclass: Nesosilicate
Particle Size: Coarse
Sample No.: topaz_3
Owner: JHU
Wavelength Range: TIR
Origin: Durango, Mexico via Don Hoover, USGS
Description: The sample was composed of several different colorless crystal fragments, each less than a centimeter on a side. Petrographically the sample appeared to be clean and free of obvious fluid inclusions. Particle size was 75 - 250  Micrometers.(Isolated tetrahedra) Original ASTER Spectral Library name was jhu.nicolet.mineral.silicate.nesosilicate.coarse.topaz3.spectrum.txt
Measurement: Bidirectional reflectance
X Units: Wavelength (micrometers)
Y Units: Reflectance (percent)
wavelength	value
25.0442	2.957
24.3388	2.9485
23.6719	3.7502
23.0407	4.8208
22.4422	7.2602
21.8741	11.0134
21.334	7.6211
20.8199	6.8105
20.33	6.6824
19.8627	6.3108
19.4163	3.8039
18.9896	4.3867
18.5812	4.5679
18.19	5.5803
17.815	1.8979
17.4551	1.8501
17.1094	2.4856
16.7772	2.6338
16.4576	5.4111
16.15	9.2595
15.8537	9.9504
15.568	9.8872
15.2925	9.5886
15.0265	8.8362
14.7697	5.2771
14.5214	2.7722
14.2814	0.49
14.0492	0.4683
13.8244	0.3506
13.6067	0.6245
13.3957	0.8628
13.1912	1.0903
12.9929	1.2954
12.8004	1.4824
12.6135	1.7053
12.432	1.9734
12.2557	2.3027
12.0843	2.7488
11.9176	3.4097
11.7555	4.7158
11.5977	7.1821
11.444	9.5105
11.2944	9.989
11.1487	9.4607
11.0067	8.9485
10.8682	8.4936
10.7332	8.3325
10.6015	9.6364
10.473	10.3193
10.3476	10.1648
10.2251	8.8469
10.1056	6.2649
9.9887	7.8469
9.8746	8.9236
9.763	8.1411
9.6539	7.5405
9.5472	6.9888
9.4429	6.0818
9.3408	5.0061
9.2409	3.7463
9.1431	2.4499
9.0474	1.4224
8.9536	0.7302
8.8618	0.3186
8.7718	0.1013
8.6837	0.0627
8.5973	0.0601
8.5126	0.0706
8.4295	0.1138
8.3481	0.1653
8.2682	0.2222
8.1898	0.3049
8.1129	0.3958
8.0374	0.4941
7.9634	0.5837
7.8906	0.7598
7.8192	0.9275
7.7491	1.114
7.6802	1.2153
7.6126	1.2944
7.5461	1.3892
7.4807	1.5071
7.4165	1.6179
7.3534	1.8225
7.2914	2.0266
7.2303	2.1511
7.1703	2.2766
7.1113	2.4148
7.0533	2.46
6.9962	2.4907
6.94	2.6064
6.8847	2.7788
6.8302	2.9182
6.7767	2.9172
6.7239	2.8906
6.672	3.0017
6.6209	3.1992
6.5705	3.3967
6.5209	3.5046
6.4721	3.562
6.424	3.6726
6.3766	3.8125
6.3299	3.9944
6.2838	4.0737
6.2385	4.175
6.1937	4.3354
6.1496	4.4929
6.1062	4.6196
6.0633	4.7883
6.0211	5.0315
5.9794	5.2869
5.9383	5.384
5.8978	5.1985
5.8578	4.6282
5.8184	3.967
5.7794	3.6494
5.741	3.9641
5.7031	4.1103
5.6657	3.8061
5.6288	3.3118
5.5924	2.4871
5.5564	1.749
5.5209	1.512
5.4859	1.552
5.4513	1.6811
5.4171	1.8533
5.3833	1.8198
5.35	1.7969
5.3171	1.9529
5.2846	2.198
5.2524	2.5474
5.2207	3.2834
5.1893	4.0571
5.1584	4.6406
5.1277	5
5.0975	5.3801
5.0676	5.8352
5.038	6.1599
5.0088	6.3657
4.98	6.355
4.9514	5.9858
4.9232	6.3391
4.8953	7.4184
4.8678	8.1889
4.8405	8.6137
4.8135	8.8869
4.7868	9.0583
4.7605	9.1692
4.7344	9.2446
4.7086	9.31
4.6831	9.3716
4.6578	9.4228
4.6328	9.4873
4.6081	9.5366
4.5837	9.5815
4.5595	9.6289
4.5356	9.6777
4.5119	9.6987
4.4884	9.7295
4.4652	9.7798
4.4423	9.8196
4.4196	9.874
4.3971	9.9197
4.3748	9.9524
4.3528	9.9836
4.331	9.9597
4.3094	9.9846
4.288	10.0891
4.2668	10.1362
4.2458	10.1794
4.2251	10.2148
4.2045	10.2326
4.1841	10.227
4.164	10.2141
4.144	10.1833
4.1242	10.1714
4.1046	10.2109
4.0852	10.2512
4.066	10.2856
4.047	10.3313
4.0281	10.3435
4.0094	10.3532
3.9909	10.3564
3.9725	10.3764
3.9544	10.3882
3.9363	10.3923
3.9185	10.3769
3.9008	10.3208
3.8833	10.2146
3.8659	10.0671
3.8487	10.0068
3.8316	10.0498
3.8147	10.126
3.7979	10.1875
3.7813	10.2346
3.7648	10.2844
3.7485	10.3139
3.7323	10.3354
3.7162	10.3325
3.7003	10.3413
3.6845	10.3103
3.6689	10.2783
3.6534	10.2138
3.638	10.1765
3.6227	10.156
3.6076	10.1648
3.5926	10.1662
3.5777	10.1697
3.563	10.1574
3.5484	10.1594
3.5338	10.1718
3.5195	10.1811
3.5052	10.1303
3.491	10.2072
3.477	10.2536
3.463	10.2614
3.4492	10.2602
3.4355	10.2253
3.4219	10.1711
3.4084	10.2185
3.395	10.2746
3.3817	10.3032
3.3685	10.3186
3.3554	10.3286
3.3425	10.3376
3.3296	10.344
3.3168	10.3366
3.3041	10.3401
3.2915	10.3296
3.279	10.3159
3.2666	10.3098
3.2543	10.3135
3.2421	10.2951
3.23	10.2888
3.218	10.2744
3.206	10.2656
3.1942	10.2571
3.1824	10.2546
3.1707	10.2461
3.1591	10.2324
3.1476	10.2156
3.1362	10.208
3.1249	10.1882
3.1136	10.1826
3.1024	10.1611
3.0913	10.1421
3.0803	10.1321
3.0694	10.1281
3.0585	10.1176
3.0477	10.1103
3.037	10.1152
3.0264	10.1072
3.0158	10.0888
3.0053	10.0722
2.9949	10.06
2.9845	10.0488
2.9743	10.0268
2.9641	9.9851
2.9539	9.9397
2.9439	9.7986
2.9339	9.2378
2.9239	5.8542
2.9141	7.2373
2.9043	8.1333
2.8946	9.6094
2.8849	9.904
2.8753	9.9668
2.8658	10.0161
2.8563	10.0586
2.8469	10.0564
2.8375	10.0378
2.8282	9.989
2.819	10.0378
2.8098	10.0837
2.8007	10.0942
2.7917	10.0876
2.7827	10.0661
2.7738	10.0654
2.7649	9.9475
2.7561	9.7165
2.7473	9.6076
2.7386	6.4829
2.7299	9.9011
2.7213	10.1509
2.7128	10.227
2.7043	10.2495
2.6959	10.3525
2.6875	10.4568
2.6791	10.4851
2.6709	10.4895
2.6626	10.5559
2.6545	10.5727
2.6463	10.5681
2.6382	10.5691
2.6302	10.5403
2.6222	10.5415
2.6143	10.5381
2.6064	10.5012
2.5986	10.5539
2.5908	10.5713
2.583	10.5678
2.5753	10.551
2.5677	10.5598
2.5601	10.55
2.5525	10.5554
2.545	10.5517
2.5375	10.5564
2.5301	10.5625
2.5227	10.5442
2.5154	10.5696
2.5081	10.5593
2.5008	10.5691
2.4936	10.602
2.4864	10.5742
2.4793	10.5818
2.4722	10.571
2.4651	10.5678
2.4581	10.5832
2.4511	10.594
2.4442	10.5747
2.4373	10.5786
2.4305	10.5681
2.4236	10.5952
2.4169	10.5947
2.4101	10.6064
2.4034	10.6028
2.3967	10.6108
2.3901	10.613
2.3835	10.6152
2.377	10.6142
2.3704	10.5981
2.364	10.5288
2.3575	10.5468
2.3511	10.4541
2.3447	10.5683
2.3384	10.6225
2.3321	10.6052
2.3258	10.5766
2.3195	10.6162
2.3133	10.6411
2.3071	10.6404
2.301	10.6533
2.2949	10.6513
2.2888	10.6611
2.2828	10.6621
2.2767	10.6572
2.2708	10.6518
2.2648	10.6572
2.2589	10.646
2.253	10.6684
2.2471	10.665
2.2413	10.6616
2.2355	10.6997
2.2297	10.6792
2.224	10.6479
2.2183	10.6465
2.2126	10.6338
2.207	10.5244
2.2013	10.5981
2.1957	10.6601
2.1902	10.6587
2.1846	10.7016
2.1791	10.6672
2.1736	10.6855
2.1682	10.7219
2.1628	10.7251
2.1574	10.7082
2.152	10.707
2.1466	10.6887
2.1413	10.7146
2.136	10.7109
2.1308	10.7478
2.1255	10.7571
2.1203	10.7422
2.1151	10.7597
2.11	10.7043
2.1048	10.7336
2.0997	10.7295
2.0946	10.7324
2.0895	10.7446
2.0845	10.6894
2.0795	10.6572
