Name: Howlite Ca_2B_5SiO_9(OH)_5
Type: Mineral
Class: Borate
Subclass: None
Particle Size: Medium
Sample No.: B-5A
Owner: JPL
Wavelength Range: TIR
Origin: USA, California, San Gabriel Mountains, Tick Canyon
Description: Particle size was 45-125um.Collected by Burminco Original ASTER Spectral Library name was jpl.nicolet.mineral.borate.none.medium.b05a.spectrum.txt
Measurement: Hemispherical reflectance
X Units: Wavelength (micrometers)
Y Units: Reflectance (percent)
wavelength	value
15.3853	3.0432
15.1161	3.2469
14.8563	3.6533
14.6052	4.1533
14.3624	1.8635
14.1276	2.0638
13.9004	2.4006
13.6803	2.9086
13.4671	2.8813
13.2604	3.0841
13.06	3.448
12.8656	3.311
12.6769	3.9386
12.4936	4.4397
12.3155	5.0175
12.1425	5.9311
11.9742	5.59
11.8106	5.1439
11.6513	5.8266
11.4963	5.7141
11.3454	5.2731
11.1983	4.7661
11.0551	6.2004
10.9154	5.651
10.7793	4.819
10.6465	7.4305
10.5169	10.5556
10.3904	12.0624
10.267	9.5984
10.1464	7.1147
10.0287	10.1071
9.9136	11.6403
9.8012	12.7638
9.6913	11.7165
9.5838	11.9168
9.4787	11.3937
9.3758	11.5498
9.2752	10.9299
9.1767	8.894
9.0803	7.4788
8.9858	5.7595
8.8934	4.6243
8.8028	5.0447
8.714	4.565
8.627	3.0965
8.5417	1.8745
8.4581	1.3757
8.3761	1.3269
8.2957	1.3199
8.2169	1.4623
8.1395	1.9775
8.0635	1.4501
7.989	0.824
7.9158	0.5837
7.8439	0.6559
7.7734	0.8134
7.7041	1.256
7.636	1.6015
7.5691	3.1818
7.5034	4.9385
7.4388	5.2349
7.3753	3.9138
7.3129	1.8487
7.2515	1.0818
7.1912	0.8848
7.1318	1.2298
7.0734	1.9808
7.016	1.513
6.9595	1.0121
6.9039	0.6879
6.8492	0.8687
6.7953	0.4143
6.7423	0.2692
6.6901	0.468
6.6387	0.5964
6.5881	0.7247
6.5382	0.9348
6.4892	1.0588
6.4408	1.1104
6.3931	1.0846
6.3462	1.3056
6.2999	1.34
6.2543	1.4621
6.2094	1.5389
6.1651	1.4907
6.1214	1.6346
6.0784	1.8189
6.0359	1.8657
5.994	2.2379
5.9527	2.3655
5.912	2.3778
5.8718	2.6185
5.8322	2.8024
5.7931	2.6626
5.7545	2.5974
5.7165	2.6397
5.6789	2.7752
5.6418	3.0439
5.6052	3.1765
5.5691	3.2648
5.5334	3.2465
5.4982	3.4611
5.4635	3.4702
5.4291	3.5002
5.3952	3.5439
5.3618	3.616
5.3287	3.8159
5.2961	3.8133
5.2638	3.9031
5.2319	3.9263
5.2004	3.9782
5.1693	4.0977
5.1386	4.3259
5.1082	4.5081
5.0782	4.8127
5.0485	4.9109
5.0192	5.1394
4.9902	5.2805
4.9616	5.193
4.9332	5.2271
4.9052	5.3773
4.8776	5.3703
4.8502	5.5204
4.8231	5.6327
4.7963	5.6657
4.7699	5.8578
4.7437	5.8525
4.7178	6.1755
4.6922	6.2848
4.6668	6.4329
4.6418	6.4004
4.617	6.4521
4.5924	6.7428
4.5681	6.8416
4.5441	7.0109
4.5203	6.8615
4.4968	6.7836
4.4735	6.6881
4.4505	6.6577
4.4277	6.6794
4.4051	6.7422
4.3828	6.7751
4.3607	6.7358
4.3388	7.0221
4.3171	7.1141
4.2956	7.5686
4.2744	7.7951
4.2534	8.12
4.2325	8.1203
4.2119	8.0345
4.1915	7.6604
4.1712	7.1898
4.1512	7.0341
4.1313	7.1551
4.1117	7.4858
4.0922	8.1334
4.0729	9.0572
4.0538	10.3499
4.0349	11.6627
4.0161	13.2
3.9976	14.4623
3.9792	15.6858
3.9609	16.271
3.9428	17.133
3.9249	17.5458
3.9072	17.7098
3.8896	17.9176
3.8722	18.3467
3.8549	18.675
3.8378	19.0178
3.8208	19.1857
3.804	18.8413
3.7873	18.6166
3.7708	18.7986
3.7544	18.8229
3.7382	18.4882
3.7221	17.6514
3.7061	16.991
3.6903	15.769
3.6746	14.8042
3.659	13.6636
3.6436	12.9886
3.6283	12.7886
3.6131	12.1806
3.5981	12.2169
3.5832	12.9619
3.5684	12.9719
3.5537	12.3937
3.5391	12.1886
3.5247	12.2289
3.5104	12.2173
3.4962	11.7989
3.4821	11.1593
3.4681	10.484
3.4543	9.4686
3.4405	8.8473
3.4269	8.7156
3.4133	8.1358
3.3999	7.8099
3.3866	7.3616
3.3733	6.8695
3.3602	6.4552
3.3472	5.8705
3.3343	5.6868
3.3215	5.3172
3.3088	4.9308
3.2961	4.7852
3.2836	4.4533
3.2712	4.3546
3.2588	4.0759
3.2466	4.0602
3.2345	3.6611
3.2224	3.478
3.2104	3.4856
3.1985	3.3637
3.1867	3.1524
3.175	2.9071
3.1634	2.6791
3.1519	2.6264
3.1404	2.3386
3.129	2.0698
3.1178	1.8829
3.1065	1.7512
3.0954	1.9364
3.0844	1.6213
3.0734	2.1784
3.0625	2.0369
3.0517	2.1101
3.041	2.155
3.0303	2.1045
3.0197	2.2734
3.0092	2.2074
2.9987	2.2971
2.9884	2.3709
2.9781	2.3123
2.9678	2.2696
2.9577	2.0263
2.9476	1.7969
2.9376	1.7677
2.9276	1.4095
2.9177	1.5386
2.9079	1.705
2.8982	1.9975
2.8885	2.0062
2.8789	1.9607
2.8693	2.002
2.8598	1.9298
2.8504	1.6213
2.841	1.625
2.8317	1.9027
2.8224	2.0914
2.8133	1.9074
2.8041	1.5457
2.7951	1.3631
2.786	1.6746
2.7771	2.044
2.7682	2.7127
2.7594	2.986
2.7506	3.812
2.7418	4.6834
2.7332	5.8057
2.7246	7.0014
2.716	9.0099
2.7075	11.5456
2.699	14.3786
2.6906	17.4891
2.6823	20.4567
2.674	22.8845
2.6657	25.1018
2.6575	25.4371
2.6494	26.4107
2.6413	27.7164
2.6332	28.9146
2.6252	30.0149
2.6173	31.184
2.6094	31.825
2.6015	32.158
2.5937	32.8855
2.5859	32.1374
2.5782	32.6777
2.5706	33.9023
2.5629	34.5896
2.5554	34.0707
2.5478	33.7422
2.5403	33.96
2.5329	33.828
2.5255	32.3598
2.5181	31.6909
2.5108	30.4497
2.5035	28.6591
2.4963	27.3325
2.4891	25.1622
2.482	22.5178
2.4749	19.9647
2.4678	16.9999
2.4608	15.624
2.4538	16.5267
2.4468	18.7261
2.4399	20.7314
2.4331	21.5733
2.4262	23.305
2.4194	25.3315
2.4127	29.1689
2.4059	32.8565
2.3993	35.9974
2.3926	38.6767
2.386	41.1677
2.3795	43.4745
2.3729	44.7831
2.3664	45.3038
2.36	45.3123
2.3535	45.4497
2.3471	47.4069
2.3408	48.4275
2.3345	48.3531
2.3282	46.4064
2.3219	44.9092
2.3157	44.6735
2.3095	43.1988
2.3034	42.4273
2.2972	42.2818
2.2911	43.1899
2.2851	43.4565
2.279	43.3948
2.2731	42.6153
2.2671	41.094
2.2612	39.0164
2.2553	37.3035
2.2494	35.6483
2.2435	35.2945
2.2377	35.5564
2.232	36.4361
2.2262	37.7783
2.2205	38.6176
2.2148	39.4573
2.2091	39.6192
2.2035	39.896
2.1979	39.6566
2.1923	38.4663
2.1868	36.5798
2.1812	34.9756
2.1758	33.0995
2.1703	30.9152
2.1649	29.2193
2.1595	29.3574
2.1541	30.6558
2.1487	32.4769
2.1434	32.6475
2.1381	31.2679
2.1328	28.3502
2.1275	28.0889
2.1223	30.6231
2.1171	34.1377
2.112	37.1641
2.1068	38.9506
2.1017	40.3741
2.0966	42.497
2.0915	45.5476
2.0865	48.4231
2.0814	52.0142
2.0764	56.5769
2.0715	60.3469
2.0665	63.282
2.0616	64.9951
2.0567	66.3104
2.0518	67.0664
2.0469	67.827
2.0421	67.4819
2.0373	67.0679
2.0325	65.466
2.0277	65.8855
2.0229	67.5317
2.0182	69.1259
2.0135	68.7627
2.0088	69.2295
2.0042	69.5611
