Name: Titanite (Sphene) CaTiSiO_5
Type: Mineral
Class: Silicate
Subclass: Nesosilicate
Particle Size: Coarse
Sample No.: NS-7A
Owner: JPL
Wavelength Range: VSWIR
Origin: Brazil, Minas Gerais, Capelinha
Description: Particle size was 125-500um.Collected by JPL Original ASTER Spectral Library name was jpl.beckman.mineral.silicate.nesosilicate.coarse.ns07a.spectrum.txt
Measurement: Hemispherical reflectance
X Units: Wavelength (micrometers)
Y Units: Reflectance (percent)
wavelength	value
0.4	12.2
0.403	13.04
0.406	14.69
0.409	15.86
0.412	16.86
0.415	18.01
0.418	19.32
0.421	20.69
0.424	21.99
0.427	23.34
0.43	24.57
0.433	26.11
0.436	27.51
0.439	28.9
0.442	30.33
0.445	31.74
0.448	32.95
0.451	34.22
0.454	35.48
0.457	36.65
0.46	37.97
0.463	38.89
0.466	40.43
0.469	41.69
0.472	42.78
0.475	43.66
0.478	44.77
0.481	45.9
0.484	46.83
0.487	47.9
0.49	48.9
0.493	49.76
0.496	50.83
0.499	51.69
0.502	52.63
0.505	53.55
0.508	54.49
0.511	55.1
0.514	55.92
0.517	56.53
0.52	57.19
0.523	57.8
0.526	58.13
0.529	58.73
0.532	59.25
0.535	59.56
0.538	59.73
0.541	60.02
0.544	60.29
0.547	60.5
0.55	60.47
0.553	60.68
0.556	60.9
0.559	60.81
0.562	60.88
0.565	60.99
0.568	60.63
0.571	60.48
0.574	60.34
0.577	60
0.58	59.61
0.583	59.35
0.586	59.33
0.589	59.12
0.592	58.97
0.595	58.97
0.598	58.87
0.601	58.89
0.604	58.76
0.607	58.76
0.61	58.93
0.613	58.99
0.616	58.95
0.619	59.15
0.622	59.67
0.625	59.9
0.628	60.36
0.631	60.59
0.634	61.21
0.637	61.82
0.64	62.29
0.643	62.87
0.646	63.68
0.649	64.23
0.652	65
0.655	65.55
0.658	66.11
0.661	67.08
0.664	67.56
0.667	68.04
0.67	68.78
0.673	69.52
0.676	69.95
0.679	70.5
0.682	70.94
0.685	71.44
0.688	72.15
0.691	72.39
0.694	72.63
0.697	73.14
0.7	73.28
0.703	73.43
0.706	73.7
0.709	73.95
0.712	74.14
0.715	74.53
0.718	74.57
0.721	74.82
0.724	75.07
0.727	75.35
0.73	75.29
0.733	75.41
0.736	75.58
0.739	75.8
0.742	75.98
0.745	75.86
0.748	76.03
0.751	76.19
0.754	76.24
0.757	76.37
0.76	76.33
0.763	76.32
0.766	76.33
0.769	76.55
0.772	76.43
0.775	76.65
0.778	76.8
0.781	76.73
0.784	76.76
0.787	76.82
0.79	76.87
0.793	77.09
0.796	76.88
0.799	76.86
0.808	76.7
0.82	76.8
0.832	76.76
0.844	76.74
0.856	76.67
0.868	76.55
0.88	76.37
0.892	76.07
0.904	75.74
0.916	75.39
0.928	75.03
0.94	74.63
0.952	74.18
0.964	73.59
0.976	72.93
0.988	72.35
1	71.82
1.012	71.1
1.024	70.38
1.036	69.87
1.048	69.32
1.06	68.67
1.072	68.14
1.084	67.63
1.096	67.21
1.108	66.68
1.12	66.25
1.132	65.82
1.144	65.34
1.156	64.89
1.168	64.47
1.18	63.98
1.192	63.53
1.204	63.17
1.216	62.58
1.228	62.23
1.24	61.73
1.252	61.35
1.264	60.93
1.276	60.62
1.288	60.26
1.3	59.92
1.312	59.73
1.324	59.35
1.336	59.06
1.348	58.71
1.36	58.56
1.372	58.31
1.384	58.06
1.396	57.91
1.408	57.78
1.42	57.73
1.432	57.64
1.444	57.51
1.456	56.96
1.468	56.12
1.48	56.19
1.492	56.99
1.504	57.38
1.516	57.5
1.528	57.62
1.54	57.69
1.552	57.85
1.564	58
1.576	58.1
1.588	58.12
1.6	58.21
1.612	58.39
1.624	58.56
1.636	58.75
1.648	58.84
1.66	58.98
1.672	59.16
1.684	59.28
1.696	59.62
1.708	59.83
1.72	60.03
1.732	60.02
1.744	60.18
1.756	60.35
1.768	60.49
1.78	60.52
1.792	60.8
1.804	60.91
1.816	61.09
1.828	61.22
1.84	61.51
1.852	61.72
1.864	62.08
1.876	62.27
1.888	62.29
1.9	62.36
1.912	62.45
1.924	62.82
1.936	63.04
1.948	63.29
1.96	63.55
1.972	63.83
1.984	64.26
1.996	64.63
2.008	64.84
2.02	64.91
2.032	64.99
2.044	64.99
2.056	65.08
2.068	65.33
2.08	65.69
2.092	65.94
2.104	66.11
2.116	66.24
2.128	66.06
2.14	65.47
2.152	64.28
2.164	61.73
2.176	55.84
2.188	47.34
2.2	42.93
2.212	44.09
2.224	46.27
2.236	46.71
2.248	45.79
2.26	45.34
2.272	47.25
2.284	49.77
2.296	52.28
2.308	54.7
2.32	57.3
2.332	59.33
2.344	59.98
2.356	58.28
2.368	53.05
2.38	44.97
2.392	38.08
2.404	36.52
2.416	39.99
2.428	45.43
2.44	48.96
2.452	50.16
2.464	49.49
2.476	48.19
2.488	47.35
2.5	46.76
