Name: Pyrophyllite Al_2Si_4O_10(OH)_2
Type: Mineral
Class: Silicate
Subclass: Phyllosilicate
Particle Size: Coarse
Sample No.: PS-7A
Owner: JPL
Wavelength Range: VSWIR
Origin: USA, California
Description: Particle size was 125-500um.Collected by Ward's Original ASTER Spectral Library name was jpl.beckman.mineral.silicate.phyllosilicate.coarse.ps07a.spectrum.txt
Measurement: Hemispherical reflectance
X Units: Wavelength (micrometers)
Y Units: Reflectance (percent)
wavelength	value
0.4	38.15
0.403	38.9
0.406	39.35
0.409	39.58
0.412	40.43
0.415	40.49
0.418	41.29
0.421	41.81
0.424	42.2
0.427	43.06
0.43	43.45
0.433	44.26
0.436	44.99
0.439	45.45
0.442	46.3
0.445	46.53
0.448	47.17
0.451	47.4
0.454	47.57
0.457	48.14
0.46	48.03
0.463	48.49
0.466	48.37
0.469	48.78
0.472	49.06
0.475	49.19
0.478	49.59
0.481	49.59
0.484	50.34
0.487	50.62
0.49	51.14
0.493	51.77
0.496	51.89
0.499	52.86
0.502	53.21
0.505	53.84
0.508	54.58
0.511	54.81
0.514	55.71
0.517	56
0.52	56.81
0.523	57.43
0.526	57.72
0.529	58.58
0.532	59.2
0.535	59.54
0.538	60.29
0.541	60.74
0.544	61.49
0.547	62.06
0.55	62.85
0.553	63.49
0.556	63.88
0.559	64.45
0.562	65.31
0.565	66.11
0.568	66.22
0.571	66.8
0.574	67.13
0.577	67.36
0.58	68.17
0.583	68.17
0.586	68.51
0.589	69.02
0.592	69.02
0.595	69.48
0.598	69.76
0.601	69.65
0.604	70.28
0.607	70.22
0.61	70.17
0.613	70.67
0.616	70.28
0.619	70.5
0.622	70.62
0.625	70.56
0.628	71.02
0.631	70.79
0.634	70.85
0.637	71.08
0.64	70.9
0.643	71.25
0.646	71.19
0.649	71.08
0.652	71.31
0.655	71.31
0.658	71.54
0.661	71.76
0.664	71.48
0.667	71.82
0.67	71.94
0.673	71.94
0.676	72.39
0.679	72.1
0.682	72.56
0.685	72.5
0.688	72.44
0.691	73.13
0.694	72.79
0.697	73.13
0.7	73.08
0.703	73.13
0.706	73.54
0.709	73.31
0.712	73.71
0.715	73.81
0.718	73.93
0.721	74.27
0.724	74.04
0.727	74.33
0.73	74.1
0.733	74.27
0.736	74.85
0.739	74.79
0.742	74.73
0.745	74.96
0.748	74.79
0.751	75.13
0.754	75.19
0.757	75.19
0.76	75.31
0.763	75.08
0.766	75.41
0.769	75.47
0.772	75.31
0.775	75.53
0.778	75.31
0.781	75.53
0.784	75.53
0.787	75.36
0.79	75.58
0.793	75.31
0.796	75.58
0.799	75.53
0.808	75.64
0.82	75.53
0.832	75.58
0.844	75.53
0.856	75.36
0.868	75.47
0.88	75.58
0.892	75.64
0.904	75.81
0.916	75.7
0.928	75.81
0.94	74.39
0.952	73.76
0.964	76.62
0.976	77.3
0.988	77.76
1	78.1
1.012	78.45
1.024	78.67
1.036	79.07
1.048	79.7
1.06	79.93
1.072	80.33
1.084	80.72
1.096	81.18
1.108	81.64
1.12	82.09
1.132	82.44
1.144	82.9
1.156	83.29
1.168	83.43
1.18	83.53
1.192	83.74
1.204	83.72
1.216	83.61
1.228	80.64
1.24	83.95
1.252	84.52
1.264	84.27
1.276	84.03
1.288	83.26
1.3	82.67
1.312	80.83
1.324	78.25
1.336	78.45
1.348	78.72
1.36	75.53
1.372	75.25
1.384	51.33
1.396	52.93
1.408	72.81
1.42	78.12
1.432	80.3
1.444	82.32
1.456	82.61
1.468	84.21
1.48	84.84
1.492	85.35
1.504	85.69
1.516	85.92
1.528	85.92
1.54	85.81
1.552	85.81
1.564	86.04
1.576	86.2
1.588	86.09
1.6	85.92
1.612	85.79
1.624	85.71
1.636	85.52
1.648	85.27
1.66	85.25
1.672	84.94
1.684	84.69
1.696	84.39
1.708	84.21
1.72	83.69
1.732	83.47
1.744	83.36
1.756	83.42
1.768	83.53
1.78	83.36
1.792	82.73
1.804	82.42
1.816	82.85
1.828	82.43
1.84	82.41
1.852	82.05
1.864	81.41
1.876	80.6
1.888	79.45
1.9	78.41
1.912	77.66
1.924	77.41
1.936	76.66
1.948	76.47
1.96	76.42
1.972	76.65
1.984	76.42
1.996	76.25
2.008	75.88
2.02	75.43
2.032	74.87
2.044	72.51
2.056	68.42
2.068	65.49
2.08	66.18
2.092	68.33
2.104	68.13
2.116	64.22
2.128	57.83
2.14	48.39
2.152	37.48
2.164	33.81
2.176	40.91
2.188	49.15
2.2	52.07
2.212	52.98
2.224	54.32
2.236	54.56
2.248	53.08
2.26	49.89
2.272	46.13
2.284	42.2
2.296	38.44
2.308	36.14
2.32	36.05
2.332	37.18
2.344	37.88
2.356	38
2.368	37.67
2.38	36.23
2.392	34.86
2.404	34.14
2.416	33.63
2.428	33.41
2.44	33.07
2.452	32.62
2.464	31.78
2.476	30.67
2.488	29.5
2.5	52.82
