Name: Arsenopyrite FeAsS
Type: Mineral
Class: Sulfide
Subclass: None
Particle Size: Coarse
Sample No.: S-5A
Owner: JPL
Wavelength Range: VSWIR
Origin: USA, Nevada, Lander County, Austin.
Description: Particle size was 125-500um. Collected by:  Burminco Original ASTER Spectral Library name was jpl.perkin.mineral.sulfide.none.coarse.s05a.spectrum.txt
Measurement: Hemispherical reflectance
X Units: Wavelength (micrometers)
Y Units: Reflectance (percent)
wavelength	value
2.5	7.5583
2.494	7.5985
2.488	7.5093
2.482	7.4815
2.476	7.4048
2.47	7.5515
2.464	7.4929
2.458	7.5198
2.452	7.4836
2.446	7.4662
2.44	7.5586
2.434	7.5439
2.428	7.5891
2.422	7.5436
2.416	7.6033
2.41	7.5601
2.404	7.5783
2.398	7.6623
2.392	7.6516
2.386	7.6181
2.38	7.6302
2.374	7.5455
2.368	7.6142
2.362	7.5879
2.356	7.5698
2.35	7.6594
2.344	7.6368
2.338	7.6187
2.332	7.5853
2.326	7.6299
2.32	7.5707
2.314	7.6084
2.308	7.584
2.302	7.58
2.296	7.5475
2.29	7.6211
2.284	7.5444
2.278	7.5906
2.272	7.5639
2.266	7.5328
2.26	7.497
2.254	7.5218
2.248	7.6263
2.242	7.5968
2.236	7.5237
2.23	7.5501
2.224	7.4988
2.218	7.5857
2.212	7.6517
2.206	7.5895
2.2	7.5879
2.194	7.5415
2.188	7.522
2.182	7.5492
2.176	7.5799
2.17	7.6091
2.164	7.5881
2.158	7.5796
2.152	7.6628
2.146	7.6042
2.14	7.6624
2.134	7.5533
2.128	7.5543
2.122	7.5636
2.116	7.5342
2.11	7.492
2.104	7.4501
2.098	7.3807
2.092	7.4507
2.086	7.4061
2.08	7.4957
2.074	7.458
2.068	7.4216
2.062	7.4041
2.056	7.4549
2.05	7.4736
2.044	7.4448
2.038	7.444
2.032	7.4445
2.026	7.4495
2.02	7.4056
2.014	7.3995
2.008	7.4139
2.002	7.4266
1.996	7.3919
1.99	7.3674
1.984	7.3842
1.978	7.3743
1.972	7.3179
1.966	7.2987
1.96	7.3415
1.954	7.2538
1.948	7.3312
1.942	7.2984
1.936	7.2653
1.93	7.2226
1.924	7.2287
1.918	7.2705
1.912	7.3271
1.906	7.2653
1.9	7.3668
1.894	7.3551
1.888	7.3659
1.882	7.4159
1.876	7.3492
1.87	7.3921
1.864	7.3983
1.858	7.4543
1.852	7.4322
1.846	7.5153
1.84	7.4002
1.834	7.409
1.828	7.4747
1.822	7.4119
1.816	7.4149
1.81	7.4042
1.804	7.4401
1.798	7.4441
1.792	7.4052
1.786	7.422
1.78	7.3707
1.774	7.4105
1.768	7.4122
1.762	7.4477
1.756	7.4677
1.75	7.4269
1.744	7.3873
1.738	7.4475
1.732	7.4447
1.726	7.4086
1.72	7.4606
1.714	7.4666
1.708	7.3929
1.702	7.5208
1.696	7.4646
1.69	7.5468
1.684	7.4708
1.678	7.5538
1.672	7.4543
1.666	7.4153
1.66	7.4475
1.654	7.5089
1.648	7.4236
1.642	7.5594
1.636	7.538
1.63	7.4782
1.624	7.4349
1.618	7.5018
1.612	7.4559
1.606	7.5108
1.6	7.4757
1.594	7.4307
1.588	7.4771
1.582	7.4719
1.576	7.4169
1.57	7.4824
1.564	7.4748
1.558	7.4825
1.552	7.4879
1.546	7.4916
1.54	7.4357
1.534	7.4235
1.528	7.4792
1.522	7.4331
1.516	7.457
1.51	7.5038
1.504	7.4327
1.498	7.4102
1.492	7.4118
1.486	7.4233
1.48	7.4601
1.474	7.4207
1.468	7.4311
1.462	7.378
1.456	7.4561
1.45	7.4085
1.444	7.4252
1.438	7.4565
1.432	7.3835
1.426	7.4607
1.42	7.475
1.414	7.3829
1.408	7.4476
1.402	7.4389
1.396	7.4854
1.39	7.5264
1.384	7.4631
1.378	7.4569
1.372	7.4778
1.366	7.5682
1.36	7.453
1.354	7.513
1.348	7.5311
1.342	7.4836
1.336	7.513
1.33	7.5261
1.324	7.4838
1.318	7.5224
1.312	7.4691
1.306	7.5409
1.3	7.5155
1.294	7.5373
1.288	7.5377
1.282	7.6021
1.276	7.6691
1.27	7.6159
1.264	7.554
1.258	7.5864
1.252	7.5957
1.246	7.6617
1.24	7.681
1.234	7.7009
1.228	7.65
1.222	7.7151
1.216	7.7228
1.21	7.7041
1.204	7.7449
1.198	7.741
1.192	7.7884
1.186	7.8503
1.18	7.816
1.174	7.812
1.168	7.8383
1.162	7.8606
1.156	7.8371
1.15	7.8721
1.144	7.8842
1.138	7.9416
1.132	8.0077
1.126	7.9576
1.12	7.9592
1.114	8.0292
1.108	8.0091
1.102	8.0489
1.096	8.0488
1.09	8.0573
1.084	8.1047
1.078	8.1482
1.072	8.1097
1.066	8.1509
1.06	8.2013
1.054	8.1441
1.048	8.2024
1.042	8.1944
1.036	8.1923
1.03	8.2271
1.024	8.277
1.018	8.3312
1.012	8.3651
1.006	8.3128
1	8.3243
0.994	8.3352
0.988	8.4157
0.982	8.3427
0.976	8.3692
0.97	8.4601
0.964	8.3855
0.958	8.4274
0.952	8.394
0.946	8.4727
0.94	8.4269
0.934	8.4619
0.928	8.4919
0.922	8.5057
0.916	8.5119
0.91	8.5318
0.904	8.5593
0.898	8.5649
0.892	8.5558
0.886	8.5807
0.88	8.5946
0.874	8.5759
0.868	8.5992
0.862	8.6118
0.856	8.8875
0.85	8.9294
0.844	8.9481
0.838	8.9725
0.832	8.9858
0.826	8.9932
0.82	9.0096
0.814	9.0205
0.808	9.0442
0.802	9.0633
0.796	9.0673
0.79	9.0842
0.784	9.0883
0.778	9.101
0.772	9.0986
0.766	9.1159
0.76	9.1335
0.754	9.1349
0.748	9.1503
0.742	9.1542
0.736	9.1697
0.73	9.1756
0.724	9.1894
0.718	9.1963
0.712	9.178
0.706	9.1903
0.7	9.191
0.694	9.2003
0.688	9.2055
0.682	9.2095
0.676	9.2154
0.67	9.219
0.664	9.2221
0.658	9.2246
0.652	9.2264
0.646	9.229
0.64	9.2263
0.634	9.2274
0.628	9.2282
0.622	9.228
0.616	9.2229
0.61	9.221
0.604	9.2151
0.598	9.2169
0.592	9.2164
0.586	9.2066
0.58	9.2002
0.574	9.1907
0.568	9.1825
0.562	9.1703
0.556	9.159
0.55	9.144
0.544	9.1304
0.538	9.1162
0.532	9.0958
0.526	9.0762
0.52	9.0596
0.514	9.0354
0.508	9.018
0.502	8.9969
0.496	8.9729
0.49	8.9367
0.484	8.8985
0.478	8.8598
0.472	8.8165
0.466	8.798
0.46	8.7509
0.454	8.7001
0.448	8.6461
0.442	8.5931
0.436	8.5367
0.43	8.4902
0.424	8.4356
0.418	8.3714
0.412	8.2904
0.406	8.1944
0.4	8.0967
