Name: Biotite K(Mg,Fe^2+)_3(Al,Fe^3+)Si_3O_10(OH,F)_2
Type: Mineral
Class: Silicate
Subclass: Phyllosilicate
Particle Size: Medium
Sample No.: PS-23A
Owner: JPL
Wavelength Range: TIR
Description: Particle size was 45-125um.Collected by JPL Original ASTER Spectral Library name was jpl.nicolet.mineral.silicate.phyllosilicate.medium.ps23a.spectrum.txt
Measurement: Hemispherical reflectance
X Units: Wavelength (micrometers)
Y Units: Reflectance (percent)
wavelength	value
15.3853	2.5547
15.1161	3.3333
14.8563	3.6493
14.6052	3.9589
14.3624	4.2423
14.1276	4.1143
13.9004	4.2079
13.6803	3.8614
13.4671	4.7623
13.2604	5.69
13.06	6.6343
12.8656	8.3024
12.6769	9.8734
12.4936	12.5808
12.3155	15.936
12.1425	18.2021
11.9742	19.0109
11.8106	18.5311
11.6513	17.9489
11.4963	17.8684
11.3454	17.8341
11.1983	17.7587
11.0551	17.6678
10.9154	17.776
10.7793	18.1718
10.6465	18.3749
10.5169	17.9363
10.3904	17.3757
10.267	17.2609
10.1464	18.335
10.0287	21.7107
9.9136	26.9589
9.8012	27.8034
9.6913	23.2118
9.5838	18.4725
9.4787	15.7211
9.3758	13.9816
9.2752	12.5419
9.1767	10.7973
9.0803	8.3968
8.9858	6.6499
8.8934	4.5953
8.8028	2.7807
8.714	1.7543
8.627	1.8443
8.5417	3.143
8.4581	4.8874
8.3761	7.0865
8.2957	9.3453
8.2169	11.5335
8.1395	13.2056
8.0635	14.9157
7.989	16.2638
7.9158	17.5587
7.8439	18.8353
7.7734	19.7799
7.7041	20.7554
7.636	21.6853
7.5691	22.9577
7.5034	24.1557
7.4388	25.095
7.3753	26.2588
7.3129	27.5013
7.2515	28.7654
7.1912	29.9964
7.1318	31.2875
7.0734	32.3499
7.016	33.5207
6.9595	35.0234
6.9039	35.5606
6.8492	36.3605
6.7953	37.09
6.7423	37.4643
6.6901	38.0231
6.6387	39.2469
6.5881	38.5483
6.5382	38.0468
6.4892	38.7131
6.4408	37.2639
6.3931	36.4579
6.3462	36.1694
6.2999	34.5703
6.2543	33.5581
6.2094	32.7674
6.1651	32.1389
6.1214	32.1458
6.0784	32.8608
6.0359	33.1449
5.994	33.899
5.9527	33.9675
5.912	34.0721
5.8718	34.2928
5.8322	34.4728
5.7931	34.6658
5.7545	35.327
5.7165	36.0492
5.6789	36.6072
5.6418	37.5769
5.6052	37.819
5.5691	38.5559
5.5334	39.1852
5.4982	40.1279
5.4635	41.5075
5.4291	42.8735
5.3952	44.3854
5.3618	46.0188
5.3287	47.4016
5.2961	48.5804
5.2638	49.2258
5.2319	49.6893
5.2004	49.9372
5.1693	49.8685
5.1386	49.7066
5.1082	49.4461
5.0782	49.0325
5.0485	48.9967
5.0192	49.226
4.9902	49.3557
4.9616	49.5626
4.9332	49.4109
4.9052	49.4994
4.8776	49.6763
4.8502	50.1104
4.8231	50.6644
4.7963	51.5454
4.7699	52.5584
4.7437	53.41
4.7178	54.283
4.6922	55.1015
4.6668	55.8176
4.6418	56.6875
4.617	57.4386
4.5924	58.2
4.5681	58.7704
4.5441	59.2932
4.5203	59.6696
4.4968	59.9809
4.4735	60.1324
4.4505	60.2078
4.4277	60.4385
4.4051	60.5039
4.3828	60.7456
4.3607	60.737
4.3388	60.7878
4.3171	60.9318
4.2956	61.0425
4.2744	61.0673
4.2534	61.2306
4.2325	61.2267
4.2119	61.3602
4.1915	61.4914
4.1712	61.4966
4.1512	61.6827
4.1313	61.7195
4.1117	61.9242
4.0922	61.9501
4.0729	62.0665
4.0538	62.0233
4.0349	62.1758
4.0161	62.4357
3.9976	62.4347
3.9792	62.5217
3.9609	62.8741
3.9428	62.8566
3.9249	63.1074
3.9072	63.3283
3.8896	63.2604
3.8722	63.2492
3.8549	63.3735
3.8378	63.3652
3.8208	63.3692
3.804	63.2973
3.7873	63.397
3.7708	63.3016
3.7544	63.2941
3.7382	63.2301
3.7221	63.274
3.7061	63.1473
3.6903	62.9814
3.6746	63.0825
3.659	62.9107
3.6436	62.8176
3.6283	62.6883
3.6131	62.7016
3.5981	62.6112
3.5832	62.3359
3.5684	62.2771
3.5537	61.8735
3.5391	61.5659
3.5247	60.782
3.5104	55.8698
3.4962	58.8308
3.4821	59.6827
3.4681	59.4914
3.4543	58.7645
3.4405	57.8357
3.4269	53.3782
3.4133	55.7207
3.3999	57.93
3.3866	58.1958
3.3733	58.3793
3.3602	59.036
3.3472	59.1392
3.3343	59.1075
3.3215	58.9758
3.3088	58.68
3.2961	58.3653
3.2836	57.7876
3.2712	57.4478
3.2588	57.0117
3.2466	56.7236
3.2345	56.4484
3.2224	56.1608
3.2104	56.0426
3.1985	55.9921
3.1867	55.7077
3.175	55.5128
3.1634	55.1417
3.1519	54.8665
3.1404	54.3976
3.129	54.034
3.1178	53.5546
3.1065	53.3226
3.0954	53.0799
3.0844	52.9655
3.0734	52.8056
3.0625	52.5878
3.0517	52.3922
3.041	52.0791
3.0303	51.8843
3.0197	51.6851
3.0092	51.5105
2.9987	51.1773
2.9884	50.9992
2.9781	50.6446
2.9678	50.2802
2.9577	49.9738
2.9476	49.6424
2.9376	49.3165
2.9276	49.2283
2.9177	48.8837
2.9079	48.6523
2.8982	48.2574
2.8885	47.8073
2.8789	47.0295
2.8693	45.9929
2.8598	44.368
2.8504	41.8851
2.841	39.2753
2.8317	36.1932
2.8224	32.5523
2.8133	30.2894
2.8041	30.4107
2.7951	30.0461
2.786	29.1533
2.7771	30.4837
2.7682	32.6648
2.7594	34.2319
2.7506	37.22
2.7418	37.7979
2.7332	36.5368
2.7246	36.3423
2.716	35.7943
2.7075	37.4329
2.699	40.4246
2.6906	46.0239
2.6823	56.1017
2.674	58.783
2.6657	60.0458
2.6575	58.6213
2.6494	58.4297
2.6413	58.4416
2.6332	58.7575
2.6252	58.8316
2.6173	59.5169
2.6094	59.5024
2.6015	59.6423
2.5937	60.4631
2.5859	59.3089
2.5782	59.2411
2.5706	59.3735
2.5629	59.5662
2.5554	58.9157
2.5478	58.9615
2.5403	58.5705
2.5329	58.5733
2.5255	58.3875
2.5181	58.0541
2.5108	58.0862
2.5035	57.8052
2.4963	57.7339
2.4891	57.4557
2.482	57.4253
2.4749	57.1415
2.4678	56.965
2.4608	56.8421
2.4538	56.4232
2.4468	56.4155
2.4399	56.1563
2.4331	55.752
2.4262	55.6569
2.4194	54.9327
2.4127	54.722
2.4059	54.3016
2.3993	53.8874
2.3926	53.8547
2.386	53.8874
2.3795	53.8446
2.3729	54.0006
2.3664	53.8833
2.36	53.5588
2.3535	52.9305
2.3471	52.6331
2.3408	52.2134
2.3345	52.1024
2.3282	52.3152
2.3219	52.7153
2.3157	53.2982
2.3095	53.6791
2.3034	53.9134
2.2972	54.2862
2.2911	54.49
2.2851	54.4873
2.279	54.4825
2.2731	54.245
2.2671	53.969
2.2612	53.5412
2.2553	53.209
2.2494	53.4378
2.2435	53.3001
2.2377	53.6991
2.232	53.8587
2.2262	53.7697
2.2205	53.9144
2.2148	53.5047
2.2091	53.5016
2.2035	53.3787
2.1979	53.0897
2.1923	53.0775
2.1868	52.8827
2.1812	52.4865
2.1758	52.4196
2.1703	52.0559
2.1649	52.0624
2.1595	51.9454
2.1541	51.6967
2.1487	51.6377
2.1434	51.3181
2.1381	51.099
2.1328	51.1418
2.1275	50.7874
2.1223	50.8397
2.1171	50.4913
2.112	50.2863
2.1068	50.2047
2.1017	50.2087
2.0966	49.8755
2.0915	49.563
2.0865	49.2878
2.0814	49.4646
2.0764	49.2151
2.0715	49.3771
2.0665	49.1087
2.0616	48.6142
2.0567	48.7014
2.0518	48.1437
2.0469	48.4365
2.0421	48.0784
2.0373	47.8385
2.0325	47.8527
2.0277	47.5995
2.0229	47.4864
2.0182	47.3361
2.0135	47.3334
2.0088	46.9251
2.0042	46.7843
