Name: Tschermigite (NH_4)Al(SO_4)_2.12H_2O
Type: Mineral
Class: Sulfate
Subclass: None
Particle Size: Fine
Sample No.: SO-6A
Owner: JPL
Wavelength Range: VSWIR
Origin: USA, Nevada, Esmeralda County, Silver Peak
Description: Particle size was 0-45um.Collected by Burminco Original ASTER Spectral Library name was jpl.beckman.mineral.sulfate.none.fine.so06a.spectrum.txt
Measurement: Hemispherical reflectance
X Units: Wavelength (micrometers)
Y Units: Reflectance (percent)
wavelength	value
0.4	84.73
0.403	85.18
0.406	85.36
0.409	86.03
0.412	86.56
0.415	86.8
0.418	87.18
0.421	87.39
0.424	87.66
0.427	87.65
0.43	87.91
0.433	88.21
0.436	88.13
0.439	88.44
0.442	88.44
0.445	88.5
0.448	88.63
0.451	88.69
0.454	88.92
0.457	89.03
0.46	89.3
0.463	89.31
0.466	89.55
0.469	89.75
0.472	89.64
0.475	89.7
0.478	89.95
0.481	89.95
0.484	89.96
0.487	90.09
0.49	90.13
0.493	90.11
0.496	90.24
0.499	90.6
0.502	90.38
0.505	90.39
0.508	90.67
0.511	90.6
0.514	90.71
0.517	90.73
0.52	90.9
0.523	90.97
0.526	90.97
0.529	90.97
0.532	90.95
0.535	90.97
0.538	91.2
0.541	90.96
0.544	91.15
0.547	91.4
0.55	91.47
0.553	91.59
0.556	91.47
0.559	91.55
0.562	91.9
0.565	91.9
0.568	91.66
0.571	91.67
0.574	91.62
0.577	91.53
0.58	91.53
0.583	91.47
0.586	91.4
0.589	91.58
0.592	91.76
0.595	91.59
0.598	91.84
0.601	91.82
0.604	91.78
0.607	91.73
0.61	91.73
0.613	91.9
0.616	91.79
0.619	91.73
0.622	91.62
0.625	91.67
0.628	91.79
0.631	91.73
0.634	91.85
0.637	91.78
0.64	91.79
0.643	91.79
0.646	91.68
0.649	91.78
0.652	91.95
0.655	91.73
0.658	91.61
0.661	91.73
0.664	91.85
0.667	91.68
0.67	91.85
0.673	91.8
0.676	91.84
0.679	91.8
0.682	91.8
0.685	91.86
0.688	91.79
0.691	91.91
0.694	91.91
0.697	91.79
0.7	91.76
0.703	91.96
0.706	91.74
0.709	91.8
0.712	91.85
0.715	91.96
0.718	91.95
0.721	91.96
0.724	91.74
0.727	91.8
0.73	91.85
0.733	91.96
0.736	91.85
0.739	91.85
0.742	91.8
0.745	91.68
0.748	91.74
0.751	91.74
0.754	91.74
0.757	91.62
0.76	91.8
0.763	91.75
0.766	91.62
0.769	91.63
0.772	91.69
0.775	91.62
0.778	91.75
0.781	91.81
0.784	91.69
0.787	91.52
0.79	91.58
0.793	91.8
0.796	91.68
0.799	91.82
0.808	91.95
0.82	91.85
0.832	91.91
0.844	91.78
0.856	91.84
0.868	91.77
0.88	91.59
0.892	91.66
0.904	91.48
0.916	91.47
0.928	91.47
0.94	91.24
0.952	91.05
0.964	90.88
0.976	90.29
0.988	90.04
1	90
1.012	90.03
1.024	90.16
1.036	90.33
1.048	90.4
1.06	90.4
1.072	90.44
1.084	90.26
1.096	90.1
1.108	89.75
1.12	89.68
1.132	89.35
1.144	88.71
1.156	87.93
1.168	86.9
1.18	86.26
1.192	85.63
1.204	85.14
1.216	84.74
1.228	84.48
1.24	84.23
1.252	84.28
1.264	84.38
1.276	84.37
1.288	84.33
1.3	83.77
1.312	83.28
1.324	82.37
1.336	81.35
1.348	80.52
1.36	79.78
1.372	79.17
1.384	78.46
1.396	76.94
1.408	74.37
1.42	70.34
1.432	65.86
1.444	61.86
1.456	59.57
1.468	58.14
1.48	57.67
1.492	57.9
1.504	57.74
1.516	57.04
1.528	56.03
1.54	55.32
1.552	54.7
1.564	54.43
1.576	54.12
1.588	54
1.6	53.97
1.612	53.64
1.624	53.26
1.636	52.79
1.648	52.29
1.66	51.48
1.672	50.58
1.684	49.62
1.696	48.55
1.708	47.51
1.72	46.45
1.732	45.54
1.744	44.62
1.756	43.75
1.768	42.86
1.78	42.21
1.792	41.64
1.804	41.47
1.816	41.29
1.828	41.09
1.84	40.75
1.852	40.26
1.864	39.43
1.876	38.28
1.888	36.79
1.9	34.55
1.912	31.96
1.924	29.53
1.936	27.69
1.948	26.41
1.96	25.72
1.972	25.28
1.984	25.5
1.996	26.26
2.008	27.65
2.02	29.12
2.032	30.36
2.044	31.08
2.056	31.31
2.068	31.41
2.08	31.33
2.092	31.19
2.104	30.91
2.116	30.69
2.128	30.31
2.14	30.05
2.152	29.75
2.164	29.91
2.176	29.99
2.188	29.98
2.2	29.96
2.212	30.06
2.224	30.16
2.236	30.27
2.248	30.39
2.26	30.27
2.272	30.26
2.284	30.12
2.296	30.11
2.308	30.07
2.32	30.23
2.332	30.24
2.344	30.28
2.356	30.17
2.368	29.8
2.38	29.26
2.392	28.5
2.404	27.53
2.416	26.56
2.428	25.39
2.44	24.38
2.452	23.43
2.464	22.62
2.476	21.81
2.488	21.18
2.5	20.64
