Name: Labradorite (Feldspar) (NaSi,CaAl)AlSi_2O_8
Type: Mineral
Class: Silicate
Subclass: Tectosilicate
Particle Size: Medium
Sample No.: TS-2A
Owner: JPL
Wavelength Range: TIR
Origin: Mexico, Sonora, Pinacate
Description: Particle size was 45-125um.Collected by Burminco Original ASTER Spectral Library name was jpl.nicolet.mineral.silicate.tectosilicate.medium.ts02a.spectrum.txt
Measurement: Hemispherical reflectance
X Units: Wavelength (micrometers)
Y Units: Reflectance (percent)
wavelength	value
15.3853	3.3928
15.1161	2.3007
14.8563	2.7517
14.6052	2.6266
14.3624	2.5713
14.1276	2.4582
13.9004	2.8937
13.6803	2.9927
13.4671	3.1156
13.2604	2.8434
13.06	3.2456
12.8656	3.0049
12.6769	2.823
12.4936	3.164
12.3155	4.0264
12.1425	4.6382
11.9742	4.9607
11.8106	5.2955
11.6513	5.53
11.4963	5.7443
11.3454	6.7474
11.1983	8.0562
11.0551	9.1889
10.9154	10.4506
10.7793	10.966
10.6465	11.6083
10.5169	11.848
10.3904	11.5406
10.267	11.2702
10.1464	11.4054
10.0287	11.3655
9.9136	10.7331
9.8012	10.0435
9.6913	9.1572
9.5838	8.2995
9.4787	7.6478
9.3758	6.9679
9.2752	6.7452
9.1767	6.8581
9.0803	7.3856
8.9858	8.2099
8.8934	8.6186
8.8028	8.5493
8.714	8.0845
8.627	7.9042
8.5417	7.4739
8.4581	7.0525
8.3761	6.0536
8.2957	3.6941
8.2169	1.662
8.1395	0.3798
8.0635	0.1054
7.989	0.0549
7.9158	0.103
7.8439	0.2988
7.7734	0.3689
7.7041	0.6316
7.636	0.7705
7.5691	1.0708
7.5034	1.2187
7.4388	1.5441
7.3753	1.9276
7.3129	2.1153
7.2515	2.5042
7.1912	2.8163
7.1318	3.0132
7.0734	3.383
7.016	3.5038
6.9595	3.8699
6.9039	3.9939
6.8492	4.1897
6.7953	4.3561
6.7423	4.4502
6.6901	4.5491
6.6387	4.9188
6.5881	4.7317
6.5382	4.7787
6.4892	4.989
6.4408	5.0149
6.3931	5.0602
6.3462	5.1154
6.2999	5.085
6.2543	5.0882
6.2094	5.1144
6.1651	5.2598
6.1214	5.2812
6.0784	5.5343
6.0359	5.58
5.994	5.748
5.9527	5.8275
5.912	6.0722
5.8718	6.4134
5.8322	6.9404
5.7931	7.1186
5.7545	7.5234
5.7165	7.923
5.6789	8.2121
5.6418	8.599
5.6052	8.8492
5.5691	9.2587
5.5334	9.6216
5.4982	9.9928
5.4635	10.5379
5.4291	10.9436
5.3952	11.5355
5.3618	12.095
5.3287	12.814
5.2961	13.4844
5.2638	14.1861
5.2319	15.0218
5.2004	16.1074
5.1693	17.0722
5.1386	18.3321
5.1082	19.4518
5.0782	20.7427
5.0485	21.7588
5.0192	22.9431
4.9902	23.8809
4.9616	24.6409
4.9332	25.4548
4.9052	26.1227
4.8776	26.7242
4.8502	27.3751
4.8231	28.068
4.7963	28.75
4.7699	29.495
4.7437	30.4222
4.7178	31.339
4.6922	32.5425
4.6668	33.8103
4.6418	35.2979
4.617	36.9392
4.5924	38.6311
4.5681	40.3492
4.5441	41.9601
4.5203	43.7258
4.4968	45.3628
4.4735	46.8628
4.4505	48.3804
4.4277	49.66
4.4051	51.1905
4.3828	52.3874
4.3607	53.7601
4.3388	55.1841
4.3171	56.3415
4.2956	57.5309
4.2744	58.8899
4.2534	60.8025
4.2325	61.4084
4.2119	63.3398
4.1915	64.9223
4.1712	65.8068
4.1512	66.6386
4.1313	67.0154
4.1117	67.7427
4.0922	68.2194
4.0729	68.7809
4.0538	69.326
4.0349	69.9676
4.0161	70.5263
3.9976	70.9866
3.9792	71.4857
3.9609	71.8634
3.9428	72.1152
3.9249	72.4468
3.9072	72.8085
3.8896	73.0105
3.8722	73.3473
3.8549	73.5404
3.8378	73.7731
3.8208	73.8654
3.804	73.9365
3.7873	74.0074
3.7708	74.0602
3.7544	73.9496
3.7382	73.7933
3.7221	73.6849
3.7061	73.504
3.6903	73.2156
3.6746	72.9009
3.659	72.6314
3.6436	72.2426
3.6283	72.0727
3.6131	71.7075
3.5981	71.3736
3.5832	70.8601
3.5684	70.5183
3.5537	70.0596
3.5391	69.4853
3.5247	68.9452
3.5104	68.1174
3.4962	67.2813
3.4821	67.0046
3.4681	66.4191
3.4543	66.1452
3.4405	65.4482
3.4269	64.6112
3.4133	63.5781
3.3999	63.5133
3.3866	63.3662
3.3733	62.5794
3.3602	62.747
3.3472	62.5651
3.3343	62.3371
3.3215	61.8144
3.3088	61.5321
3.2961	60.9904
3.2836	60.6286
3.2712	60.1952
3.2588	59.7555
3.2466	59.4628
3.2345	58.9358
3.2224	58.7233
3.2104	58.4445
3.1985	58.1266
3.1867	57.753
3.175	57.5073
3.1634	57.4076
3.1519	57.1253
3.1404	57.0449
3.129	56.9632
3.1178	56.8867
3.1065	56.7498
3.0954	56.9315
3.0844	56.8467
3.0734	56.8033
3.0625	57.1147
3.0517	57.1946
3.041	57.3183
3.0303	57.3332
3.0197	57.4448
3.0092	57.6869
2.9987	57.821
2.9884	58.095
2.9781	58.3109
2.9678	58.5601
2.9577	58.7785
2.9476	59.2992
2.9376	59.6974
2.9276	60.0794
2.9177	60.7651
2.9079	61.3985
2.8982	61.7894
2.8885	62.5531
2.8789	63.247
2.8693	63.9936
2.8598	64.6248
2.8504	65.4003
2.841	65.7832
2.8317	66.7963
2.8224	67.3587
2.8133	68.0512
2.8041	69.0727
2.7951	69.4089
2.786	70.7337
2.7771	71.3064
2.7682	72.7327
2.7594	73.5055
2.7506	75.0846
2.7418	77.1939
2.7332	77.5023
2.7246	79.5146
2.716	79.4252
2.7075	80.3062
2.699	80.9445
2.6906	82.0476
2.6823	82.7186
2.674	83.138
2.6657	84.9391
2.6575	83.073
2.6494	83.1114
2.6413	83.1652
2.6332	83.4736
2.6252	83.6045
2.6173	84.2441
2.6094	83.665
2.6015	83.6045
2.5937	84.9486
2.5859	83.4989
2.5782	83.4115
2.5706	83.5058
2.5629	84.0163
2.5554	82.9328
2.5478	83.1528
2.5403	82.9557
2.5329	83.1405
2.5255	82.9577
2.5181	82.9474
2.5108	82.8687
2.5035	82.7649
2.4963	82.9053
2.4891	82.7927
2.482	82.9583
2.4749	82.9464
2.4678	83.013
2.4608	83.072
2.4538	82.8011
2.4468	82.9327
2.4399	82.8246
2.4331	82.9962
2.4262	82.874
2.4194	82.9718
2.4127	83.0712
2.4059	82.8349
2.3993	82.9393
2.3926	82.9468
2.386	82.9941
2.3795	82.9013
2.3729	83.1156
2.3664	83.0355
2.36	83.0073
2.3535	82.9854
2.3471	82.9825
2.3408	82.8591
2.3345	82.7942
2.3282	82.8722
2.3219	82.9273
2.3157	82.9098
2.3095	82.9152
2.3034	82.8089
2.2972	82.9273
2.2911	82.9532
2.2851	82.8543
2.279	82.7553
2.2731	82.8732
2.2671	82.8073
2.2612	82.8365
2.2553	82.9078
2.2494	82.9411
2.2435	82.6673
2.2377	82.978
2.232	82.8212
2.2262	82.8469
2.2205	82.826
2.2148	82.9345
2.2091	82.8837
2.2035	83.0687
2.1979	82.8236
2.1923	82.9825
2.1868	82.8486
2.1812	82.9117
2.1758	83.0308
2.1703	83.0958
2.1649	82.9442
2.1595	83.0033
2.1541	82.8173
2.1487	82.9471
2.1434	83.0336
2.1381	82.8892
2.1328	83.05
2.1275	82.9606
2.1223	82.9488
2.1171	82.9813
2.112	82.7169
2.1068	82.8233
2.1017	82.8037
2.0966	82.8713
2.0915	82.6791
2.0865	82.8266
2.0814	83.0826
2.0764	82.9734
2.0715	82.9139
2.0665	82.8989
2.0616	82.8165
2.0567	83.0191
2.0518	82.9711
2.0469	82.9987
2.0421	83.0853
2.0373	83.0833
2.0325	83.07
2.0277	83.0152
2.0229	83.2319
2.0182	82.9719
2.0135	83.4569
2.0088	82.8897
2.0042	82.9596
