Name: Chromite Fe+2Cr2O4
Type: Mineral
Class: Oxide
Subclass: None
Particle Size: Coarse
Sample No.: chromite_1
Owner: JHU
Wavelength Range: TIR
Origin: Smithsonian NMNH 117075; Sample from Tiebaghi Mine, NewCaledonia.
Description: The sample was one large (3.5 cm x 2 cm x 2 cm) piece with a few crystal faces showing, weighing 42 g. Minimal contamination (<1%) occurred along a few thin veins containing mostly kaolinte. Microscopic examination confirmed the substantial purity of the sample. Most of the contaminating earthy material was removed by ultrasonic cleaning of the crushed sample. Particle size was 74-250 Micrometers.(Spinel Group) Original ASTER Spectral Library name was jhu.nicolet.mineral.oxide.none.coarse.chromi1.spectrum.txt
Measurement: Bidirectional reflectance
X Units: Wavelength (micrometers)
Y Units: Reflectance (percent)
wavelength	value
25.0442	6.7988
24.3388	7.2375
23.6719	7.8296
23.0407	8.2153
22.4422	8.3471
21.8741	8.437
21.334	9.9209
20.8199	13.3315
20.33	16.2895
19.8627	16.5361
19.4163	15.6801
18.9896	15.7675
18.5812	14.5764
18.19	12.1745
17.815	7.7554
17.4551	2.7917
17.1094	2.8491
16.7772	3.8599
16.4576	5.0415
16.15	7.1789
15.8537	11.9878
15.568	13.3225
15.2925	13.5129
15.0265	13.8005
14.7697	13.6833
14.5214	13.1877
14.2814	12.5534
14.0492	11.7903
13.8244	10.9729
13.6067	10.0544
13.3957	8.7668
13.1912	6.3799
12.9929	3.6675
12.8004	1.1973
12.6135	0.439
12.432	0.6206
12.2557	0.877
12.0843	1.0154
11.9176	1.135
11.7555	1.2612
11.5977	1.3472
11.444	1.4399
11.2944	1.5505
11.1487	1.6233
11.0067	1.7419
10.8682	1.9292
10.7332	2.1189
10.6015	2.145
10.473	2.1606
10.3476	2.2244
10.2251	2.2888
10.1056	2.3464
9.9887	2.3577
9.8746	2.385
9.763	2.3894
9.6539	2.3689
9.5472	2.333
9.4429	2.3142
9.3408	2.3225
9.2409	2.4084
9.1431	2.5366
9.0474	2.6672
8.9536	2.8418
8.8618	2.9277
8.7718	2.956
8.6837	2.9214
8.5973	2.9309
8.5126	3.0193
8.4295	3.2712
8.3481	3.6211
8.2682	3.9726
8.1898	4.1882
8.1129	4.2786
8.0374	4.1518
7.9634	3.9275
7.8906	3.9382
7.8192	4.0522
7.7491	4.1902
7.6802	4.3708
7.6126	4.6416
7.5461	4.9502
7.4807	5.2414
7.4165	5.4905
7.3534	5.697
7.2914	5.9145
7.2303	6.0998
7.1703	6.2771
7.1113	6.4612
7.0533	6.6413
6.9962	6.7876
6.94	6.9358
6.8847	7.042
6.8302	7.164
6.7767	7.2749
6.7239	7.4177
6.672	7.54
6.6209	7.6972
6.5705	7.8086
6.5209	7.9543
6.4721	8.0752
6.424	8.1806
6.3766	8.3193
6.3299	8.4284
6.2838	8.48
6.2385	8.518
6.1937	8.5493
6.1496	8.5862
6.1062	8.666
6.0633	8.8113
6.0211	8.9841
5.9794	9.1367
5.9383	9.3166
5.8978	9.5039
5.8578	9.6401
5.8184	9.7451
5.7794	9.8537
5.741	9.8984
5.7031	9.9551
5.6657	10.0107
5.6288	10.0652
5.5924	10.1167
5.5564	10.1372
5.5209	10.1906
5.4859	10.2322
5.4513	10.31
5.4171	10.3659
5.3833	10.4057
5.35	10.4519
5.3171	10.5317
5.2846	10.5639
5.2524	10.5649
5.2207	10.5332
5.1893	10.5569
5.1584	10.5495
5.1277	10.528
5.0975	10.5259
5.0676	10.5273
5.038	10.4887
5.0088	10.4524
4.98	10.3747
4.9514	10.301
4.9232	10.2241
4.8953	10.1755
4.8678	10.0835
4.8405	9.9773
4.8135	9.8515
4.7868	9.7519
4.7605	9.6494
4.7344	9.5122
4.7086	9.3591
4.6831	9.2021
4.6578	9.0368
4.6328	8.8813
4.6081	8.7146
4.5837	8.5488
4.5595	8.3449
4.5356	8.1584
4.5119	7.9607
4.4884	7.7702
4.4652	7.5664
4.4423	7.3506
4.4196	7.1719
4.3971	6.9726
4.3748	6.7698
4.3528	6.5686
4.331	6.3572
4.3094	6.1516
4.288	5.9646
4.2668	5.7798
4.2458	5.5852
4.2251	5.4057
4.2045	5.2209
4.1841	5.0542
4.164	4.8867
4.144	4.7239
4.1242	4.5701
4.1046	4.3999
4.0852	4.2656
4.066	4.1348
4.047	3.9853
4.0281	3.8669
4.0094	3.7468
3.9909	3.6372
3.9725	3.5334
3.9544	3.4206
3.9363	3.3418
3.9185	3.2414
3.9008	3.1587
3.8833	3.0771
3.8659	3.0017
3.8487	2.9485
3.8316	2.8787
3.8147	2.8315
3.7979	2.7737
3.7813	2.7168
3.7648	2.678
3.7485	2.6304
3.7323	2.5937
3.7162	2.5366
3.7003	2.5232
3.6845	2.4919
3.6689	2.4617
3.6534	2.4451
3.638	2.4233
3.6227	2.3918
3.6076	2.3826
3.5926	2.3564
3.5777	2.3447
3.563	2.3093
3.5484	2.3054
3.5338	2.2754
3.5195	2.2695
3.5052	2.2673
3.491	2.2581
3.477	2.2544
3.463	2.2441
3.4492	2.2322
3.4355	2.2227
3.4219	2.22
3.4084	2.2065
3.395	2.2039
3.3817	2.2017
3.3685	2.2009
3.3554	2.1829
3.3425	2.1877
3.3296	2.1623
3.3168	2.1655
3.3041	2.1499
3.2915	2.155
3.279	2.1506
3.2666	2.1545
3.2543	2.1409
3.2421	2.144
3.23	2.1206
3.218	2.1291
3.206	2.1257
3.1942	2.1191
3.1824	2.1172
3.1707	2.1145
3.1591	2.106
3.1476	2.1084
3.1362	2.1016
3.1249	2.1035
3.1136	2.104
3.1024	2.0613
3.0913	2.0937
3.0803	2.0647
3.0694	2.0718
3.0585	2.082
3.0477	2.0769
3.037	2.0652
3.0264	2.0564
3.0158	2.0522
3.0053	2.0625
2.9949	2.0535
2.9845	2.0361
2.9743	2.041
2.9641	2.0166
2.9539	2.0391
2.9439	2.033
2.9339	2.0173
2.9239	2.0068
2.9141	1.9958
2.9043	2.0015
2.8946	2.0146
2.8849	2.0034
2.8753	1.9897
2.8658	1.9946
2.8563	1.9978
2.8469	1.978
2.8375	1.9941
2.8282	1.9568
2.819	1.9592
2.8098	1.9539
2.8007	1.9641
2.7917	1.9421
2.7827	1.9287
2.7738	1.917
2.7649	1.9309
2.7561	1.9102
2.7473	1.9136
2.7386	1.9353
2.7299	1.937
2.7213	1.9199
2.7128	1.9143
2.7043	1.9094
2.6959	1.906
2.6875	1.9307
2.6791	1.9595
2.6709	1.9956
2.6626	1.9936
2.6545	1.9695
2.6463	1.9722
2.6382	1.9912
2.6302	1.9746
2.6222	1.9807
2.6143	2.0061
2.6064	1.998
2.5986	1.9956
2.5908	1.9922
2.583	1.981
2.5753	2.0049
2.5677	1.9849
2.5601	1.9665
2.5525	1.9695
2.545	1.9673
2.5375	1.977
2.5301	1.978
2.5227	1.9717
2.5154	1.9873
2.5081	1.9644
2.5008	1.9619
2.4936	1.9551
2.4864	1.9668
2.4793	1.9463
2.4722	1.9619
2.4651	1.9424
2.4581	1.9477
2.4511	1.9517
2.4442	1.9526
2.4373	1.9775
2.4305	1.9575
2.4236	1.9387
2.4169	1.958
2.4101	1.9707
2.4034	1.9597
2.3967	1.9509
2.3901	1.9617
2.3835	1.9668
2.377	1.967
2.3704	1.9536
2.364	1.9514
2.3575	1.9416
2.3511	1.9221
2.3447	1.9604
2.3384	1.9365
2.3321	1.9145
2.3258	1.8955
2.3195	1.9004
2.3133	1.8726
2.3071	1.9397
2.301	1.9297
2.2949	1.9485
2.2888	1.9204
2.2828	1.9365
2.2767	1.9436
2.2708	1.9299
2.2648	1.9199
2.2589	1.9346
2.253	1.929
2.2471	1.9199
2.2413	1.9111
2.2355	1.9253
2.2297	1.9268
2.224	1.9404
2.2183	1.925
2.2126	1.937
2.207	1.9521
2.2013	1.9253
2.1957	1.9507
2.1902	1.929
2.1846	1.9556
2.1791	1.9299
2.1736	1.9258
2.1682	1.9163
2.1628	1.9351
2.1574	1.9468
2.152	1.9182
2.1466	1.9531
2.1413	1.8955
2.136	1.9321
2.1308	1.9788
2.1255	1.915
2.1203	1.9912
2.1151	1.9104
2.11	1.958
2.1048	1.9004
2.0997	1.9329
2.0946	1.9016
2.0895	1.8999
2.0845	1.9641
2.0795	1.9424
