Name: Columbite Fe^2+Nb_2O_6
Type: Mineral
Class: Oxide
Subclass: None
Particle Size: Coarse
Sample No.: O-7A
Owner: JPL
Wavelength Range: VSWIR
Origin: USA, South Dakota, Pennington County, Keystone.
Description: Particle size was 125-500um.Collected by:  Burminco Original ASTER Spectral Library name was jpl.perkin.mineral.oxide.none.coarse.o07a.spectrum.txt
Measurement: Hemispherical reflectance
X Units: Wavelength (micrometers)
Y Units: Reflectance (percent)
wavelength	value
2.5	9.1893
2.494	9.2029
2.488	9.189
2.482	9.0449
2.476	8.9378
2.47	9.0718
2.464	9.0516
2.458	9.05
2.452	9.0938
2.446	9.046
2.44	9.0244
2.434	8.9636
2.428	8.959
2.422	8.8784
2.416	8.8615
2.41	8.7812
2.404	8.8367
2.398	8.7983
2.392	8.8017
2.386	8.8276
2.38	8.7423
2.374	8.7685
2.368	8.7674
2.362	8.7703
2.356	8.6419
2.35	8.722
2.344	8.693
2.338	8.6257
2.332	8.5883
2.326	8.5663
2.32	8.5132
2.314	8.4942
2.308	8.4416
2.302	8.475
2.296	8.4213
2.29	8.3877
2.284	8.372
2.278	8.3676
2.272	8.3316
2.266	8.2992
2.26	8.3276
2.254	8.1146
2.248	8.1983
2.242	8.2264
2.236	8.142
2.23	8.1334
2.224	8.0534
2.218	8.1155
2.212	8.2248
2.206	8.0489
2.2	8.0474
2.194	8.0376
2.188	7.9924
2.182	8.0219
2.176	7.9792
2.17	7.9468
2.164	7.9607
2.158	7.8975
2.152	7.873
2.146	7.8366
2.14	7.8119
2.134	7.7381
2.128	7.8115
2.122	7.7045
2.116	7.6124
2.11	7.5629
2.104	7.5534
2.098	7.4363
2.092	7.429
2.086	7.3999
2.08	7.3499
2.074	7.3444
2.068	7.2873
2.062	7.2774
2.056	7.2311
2.05	7.2486
2.044	7.1913
2.038	7.2062
2.032	7.138
2.026	7.081
2.02	7.0254
2.014	7.0364
2.008	6.9779
2.002	6.9927
1.996	6.9422
1.99	6.9116
1.984	6.9092
1.978	6.8768
1.972	6.8606
1.966	6.9411
1.96	6.7921
1.954	6.7784
1.948	6.8084
1.942	6.7641
1.936	6.7221
1.93	6.6763
1.924	6.6941
1.918	6.7419
1.912	6.668
1.906	6.6532
1.9	6.5583
1.894	6.5027
1.888	6.5365
1.882	6.5062
1.876	6.4792
1.87	6.5099
1.864	6.5112
1.858	6.4419
1.852	6.386
1.846	6.3405
1.84	6.3647
1.834	6.3733
1.828	6.2516
1.822	6.2871
1.816	6.269
1.81	6.1828
1.804	6.1793
1.798	6.1717
1.792	6.1474
1.786	6.1648
1.78	6.0999
1.774	6.0823
1.768	6.1115
1.762	6.0643
1.756	6.0463
1.75	6.1169
1.744	6.1079
1.738	6.0132
1.732	5.9997
1.726	5.9797
1.72	6.0141
1.714	5.994
1.708	6.0003
1.702	6.0229
1.696	6.0159
1.69	5.9185
1.684	5.9052
1.678	5.8696
1.672	5.8494
1.666	5.8776
1.66	5.8537
1.654	5.9165
1.648	5.8836
1.642	5.9641
1.636	5.9515
1.63	5.8146
1.624	5.8638
1.618	5.8881
1.612	5.9034
1.606	5.7544
1.6	5.8601
1.594	5.9064
1.588	5.8338
1.582	5.8557
1.576	5.8337
1.57	5.8958
1.564	5.874
1.558	5.8494
1.552	5.8216
1.546	5.8302
1.54	5.8735
1.534	5.8155
1.528	5.8419
1.522	5.8688
1.516	5.7766
1.51	5.8544
1.504	5.837
1.498	5.8435
1.492	5.8069
1.486	5.7901
1.48	5.8568
1.474	5.8759
1.468	5.9275
1.462	5.9026
1.456	5.8623
1.45	5.8323
1.444	5.8334
1.438	5.8632
1.432	5.852
1.426	5.8976
1.42	5.8324
1.414	5.8297
1.408	5.9318
1.402	5.9258
1.396	5.9547
1.39	5.9232
1.384	5.8908
1.378	5.8652
1.372	5.8944
1.366	5.9602
1.36	5.9194
1.354	5.852
1.348	5.8333
1.342	5.8468
1.336	5.8629
1.33	5.8897
1.324	5.9209
1.318	5.8535
1.312	5.8674
1.306	5.8136
1.3	5.8759
1.294	5.8364
1.288	5.8588
1.282	5.882
1.276	5.8206
1.27	5.852
1.264	5.8742
1.258	5.7959
1.252	5.8419
1.246	5.8411
1.24	5.8346
1.234	5.8793
1.228	5.8415
1.222	5.8626
1.216	5.7882
1.21	5.8178
1.204	5.8629
1.198	5.8379
1.192	5.8314
1.186	5.8406
1.18	5.77
1.174	5.8716
1.168	5.8141
1.162	5.8501
1.156	5.8456
1.15	5.8296
1.144	5.789
1.138	5.8153
1.132	5.8347
1.126	5.843
1.12	5.7778
1.114	5.8731
1.108	5.7577
1.102	5.8636
1.096	5.7794
1.09	5.8759
1.084	5.8036
1.078	5.8079
1.072	5.8984
1.066	5.7989
1.06	5.8865
1.054	5.9454
1.048	5.8017
1.042	5.8378
1.036	5.8062
1.03	5.82
1.024	5.8672
1.018	5.8868
1.012	5.8773
1.006	5.8728
1	5.8707
0.994	5.843
0.988	5.8715
0.982	5.8592
0.976	5.8679
0.97	5.8615
0.964	5.8602
0.958	5.8546
0.952	5.9057
0.946	5.844
0.94	5.8563
0.934	5.9169
0.928	5.9112
0.922	5.8408
0.916	5.9348
0.91	5.9149
0.904	5.8849
0.898	5.9024
0.892	5.937
0.886	5.917
0.88	5.9669
0.874	5.8858
0.868	5.8652
0.862	5.9437
0.856	6.139
0.85	6.1446
0.844	6.1193
0.838	6.1238
0.832	6.1079
0.826	6.0899
0.82	6.0944
0.814	6.0818
0.808	6.083
0.802	6.0708
0.796	6.0613
0.79	6.0559
0.784	6.0507
0.778	6.0431
0.772	6.0368
0.766	6.0316
0.76	6.0259
0.754	6.0151
0.748	6.0148
0.742	6.0162
0.736	6.0082
0.73	6.0014
0.724	6.0014
0.718	5.9974
0.712	5.9953
0.706	5.992
0.7	5.9876
0.694	5.9851
0.688	5.9826
0.682	5.984
0.676	5.9793
0.67	5.9816
0.664	5.9835
0.658	5.9808
0.652	5.9832
0.646	5.9838
0.64	5.9845
0.634	5.9856
0.628	5.9869
0.622	5.9896
0.616	5.9939
0.61	5.995
0.604	6.0008
0.598	6.0067
0.592	6.0134
0.586	6.0161
0.58	6.0243
0.574	6.028
0.568	6.034
0.562	6.0389
0.556	6.0531
0.55	6.0615
0.544	6.0682
0.538	6.0805
0.532	6.0881
0.526	6.1052
0.52	6.117
0.514	6.1372
0.508	6.1567
0.502	6.1747
0.496	6.2072
0.49	6.2339
0.484	6.2604
0.478	6.2757
0.472	6.3041
0.466	6.334
0.46	6.3739
0.454	6.4132
0.448	6.4523
0.442	6.4992
0.436	6.5422
0.43	6.5955
0.424	6.6536
0.418	6.7128
0.412	6.7832
0.406	6.858
0.4	6.9403
