Name: Olivine (Fo92) (Fe+2,Mg)2SiO4
Type: Mineral
Class: Silicate
Subclass: Nesosilicate
Particle Size: Fine
Sample No.: olivine_12
Owner: JHU
Wavelength Range: TIR
Origin: Ward's Natural Science Establishment.
Description: The hand sample consisted of small, translucent green beads of green olivine a few millimeters in diameter.  Under the microscope, the sample appeared to be pure forsterite.Particle size was Less than 2  Micrometers.(Isolated tetrahedra); (Olivine Group) Original ASTER Spectral Library name was jhu.nicolet.mineral.silicate.nesosilicate.powder.olivi12.spectrum.txt
Measurement: Transmission
X Units: Wavelength (micrometers)
Y Units: Transmittance (percent)
wavelength	value
25.0442	32.7187
24.3388	18.9843
23.6719	11.4531
23.0407	19.8828
22.4422	33.0546
21.8741	37.9999
21.334	40.1991
20.8199	45.621
20.33	40.9862
19.8627	20.0703
19.4163	18.6728
18.9896	20.7587
18.5812	25.4462
18.19	34.6874
17.815	54.4881
17.4551	66.369
17.1094	69.4158
16.7772	55.1073
16.4576	37.4501
16.15	44.5897
15.8537	61.2948
15.568	72.0477
15.2925	76.8396
15.0265	80.0535
14.7697	82.2713
14.5214	83.365
14.2814	84.1531
14.0492	84.447
13.8244	85.053
13.6067	85.2346
13.3957	85.219
13.1912	84.8279
12.9929	84.1443
12.8004	82.8572
12.6135	80.8006
12.432	77.5159
12.2557	72.3851
12.0843	61.5975
11.9176	41.1835
11.7555	47.9471
11.5977	34.1044
11.444	15.2636
11.2944	4.7012
11.1487	5.1191
11.0067	8.1782
10.8682	11.6513
10.7332	19.999
10.6015	28.7988
10.473	23.7328
10.3476	34.5922
10.2251	17.9985
10.1056	13.1123
9.9887	13.9599
9.8746	22.0024
9.763	34.3105
9.6539	45.2958
9.5472	53.265
9.4429	58.8734
9.3408	63.2635
9.2409	66.4715
9.1431	69.1033
9.0474	71.6795
8.9536	74.1678
8.8618	76.2073
8.7718	77.8743
8.6837	79.6756
8.5973	80.889
8.5126	83.0432
8.4295	85.0799
8.3481	86.8799
8.2682	88.4297
8.1898	89.5652
8.1129	90.3789
8.0374	90.9939
7.9634	91.4251
7.8906	91.8792
7.8192	92.1934
7.7491	92.3535
7.6802	92.4182
7.6126	92.5518
7.5461	92.6941
7.4807	92.8562
7.4165	93.0029
7.3534	92.9395
7.2914	93.0078
7.2303	93.1143
7.1703	93.0042
7.1113	92.7422
7.0533	92.4983
6.9962	92.4714
6.94	92.6892
6.8847	92.8845
6.8302	92.9275
6.7767	93.1602
6.7239	93.5215
6.672	93.8367
6.6209	93.9138
6.5705	94.0889
6.5209	93.9763
6.4721	93.9463
6.424	93.8865
6.3766	93.6423
6.3299	93.3086
6.2838	93.0544
6.2385	92.9675
6.1937	92.9636
6.1496	92.3699
6.1062	92.4382
6.0633	92.4031
6.0211	92.0867
5.9794	92.6279
5.9383	93.3994
5.8978	93.9922
5.8578	94.3594
5.8184	94.719
5.7794	94.8389
5.741	95.0056
5.7031	94.9053
5.6657	94.6741
5.6288	94.5339
5.5924	94.6631
5.5564	94.9001
5.5209	95.0906
5.4859	95.0554
5.4513	95.0662
5.4171	95.1423
5.3833	95.2253
5.35	95.2791
5.3171	95.3298
5.2846	95.4236
5.2524	95.4773
5.2207	95.3789
5.1893	95.5361
5.1584	95.5574
5.1277	95.6611
5.0975	95.6855
5.0676	95.6504
5.038	95.7207
5.0088	95.7439
4.98	95.6609
4.9514	95.6199
4.9232	95.7273
4.8953	95.7512
4.8678	95.8044
4.8405	95.7888
4.8135	95.9148
4.7868	95.8596
4.7605	95.7634
4.7344	95.7869
4.7086	95.6877
4.6831	95.7151
4.6578	95.6707
4.6328	95.7268
4.6081	95.6951
4.5837	95.6804
4.5595	95.6506
4.5356	95.6423
4.5119	95.5515
4.4884	95.5417
4.4652	95.533
4.4423	95.5115
4.4196	95.5037
4.3971	95.4377
4.3748	95.4314
4.3528	95.366
4.331	95.4319
4.3094	95.3274
4.288	95.3118
4.2668	95.301
4.2458	95.301
4.2251	95.2312
4.2045	95.2019
4.1841	95.1804
4.164	95.1584
4.144	95.1838
4.1242	95.1292
4.1046	95.0652
4.0852	95.0686
4.066	95.1292
4.047	95.0378
4.0281	95.0388
4.0094	94.9963
3.9909	94.9109
3.9725	94.8494
3.9544	94.8621
3.9363	94.8621
3.9185	94.8674
3.9008	94.8376
3.8833	94.8303
3.8659	94.7229
3.8487	94.6111
3.8316	94.5418
3.8147	94.5994
3.7979	94.5125
3.7813	94.4924
3.7648	94.3298
3.7485	94.3035
3.7323	94.2527
3.7162	94.1951
3.7003	94.0256
3.6845	93.9265
3.6689	93.8792
3.6534	93.8787
3.638	93.7654
3.6227	93.5237
3.6076	93.4548
3.5926	93.4509
3.5777	93.3884
3.563	93.3367
3.5484	93.2127
3.5338	93.0764
3.5195	92.8572
3.5052	92.5701
3.491	92.5159
3.477	92.4104
3.463	92.3084
3.4492	92.2952
3.4355	91.926
3.4219	91.6658
3.4084	91.471
3.395	91.6038
3.3817	91.637
3.3685	91.7712
3.3554	91.5413
3.3425	91.5842
3.3296	91.3611
3.3168	91.3406
3.3041	91.0994
3.2915	91.1238
3.279	90.9021
3.2666	90.742
3.2543	90.6233
3.2421	90.4607
3.23	90.2815
3.218	90.0452
3.206	89.9295
3.1942	89.6819
3.1824	89.574
3.1707	89.3552
3.1591	89.2185
3.1476	88.8806
3.1362	88.657
3.1249	88.5183
3.1136	88.4461
3.1024	88.1209
3.0913	88.0076
3.0803	87.865
3.0694	87.7263
3.0585	87.5447
3.0477	87.406
3.037	87.0955
3.0264	86.992
3.0158	86.9392
3.0053	86.8025
2.9949	86.8318
2.9845	86.9881
2.9743	87.0994
2.9641	87.4705
2.9539	87.6843
2.9439	87.947
2.9339	88.0095
2.9239	87.9978
2.9141	88.1736
2.9043	88.158
2.8946	88.1287
2.8849	87.8709
2.8753	87.5779
2.8658	87.4383
2.8563	87.49
2.8469	87.5974
2.8375	87.8133
2.8282	87.8826
2.819	88.0359
2.8098	88.3103
2.8007	88.1716
2.7917	88.4226
2.7827	88.4265
2.7738	88.6648
2.7649	88.8201
2.7561	89.2634
2.7473	89.5711
2.7386	89.6804
2.7299	90.4695
2.7213	90.7742
2.7128	90.992
2.7043	91.3054
2.6959	91.4568
2.6875	91.6726
2.6791	91.5945
2.6709	91.699
2.6626	91.4187
2.6545	91.4461
2.6463	91.2693
2.6382	91.367
2.6302	91.2039
2.6222	91.0867
2.6143	90.906
2.6064	90.9998
2.5986	91.0662
2.5908	90.9724
2.583	91.1414
2.5753	90.7937
2.5677	90.4998
2.5601	90.6873
2.5525	90.4646
2.545	90.5232
2.5375	90.4627
2.5301	90.2986
2.5227	90.0798
2.5154	90.0017
2.5081	90.2146
2.5008	90.0427
2.4936	89.9763
2.4864	90.197
2.4793	89.8084
2.4722	89.7908
2.4651	89.5252
2.4581	89.7185
2.4511	89.8181
2.4442	89.6287
2.4373	89.5623
2.4305	89.3513
2.4236	89.408
2.4169	89.1736
2.4101	89.3689
2.4034	89.3513
2.3967	89.2986
2.3901	89.3318
2.3835	89.0174
2.377	88.949
2.3704	88.992
2.364	88.8006
2.3575	88.8924
2.3511	88.7615
2.3447	88.8845
2.3384	88.7439
2.3321	88.4881
2.3258	88.367
2.3195	88.5955
2.3133	88.7888
2.3071	88.3748
2.301	88.5701
2.2949	88.4138
2.2888	88.2517
2.2828	88.4002
2.2767	88.3591
2.2708	88.3162
2.2648	88.3357
2.2589	88.3357
2.253	88.3318
2.2471	88.3552
2.2413	88.3455
2.2355	87.8611
2.2297	88.4216
2.224	87.8357
2.2183	88.0935
2.2126	88.2576
2.207	88.0799
2.2013	87.908
2.1957	87.9392
2.1902	87.9158
2.1846	88.2576
2.1791	87.656
2.1736	88.2595
2.1682	88.1091
2.1628	88.2263
2.1574	88.3513
2.152	87.8592
2.1466	87.5154
2.1413	87.7967
2.136	87.5193
2.1308	88.2771
2.1255	87.9216
2.1203	88.0779
2.1151	87.6521
2.11	88.0076
2.1048	87.7381
2.0997	88.117
2.0946	87.6873
2.0895	87.7263
2.0845	87.9373
2.0795	87.7967
