Name: Lepidolite K(Li,Al)3(Si,Al)_4O_10(F,OH)_2
Type: Mineral
Class: Silicate
Subclass: Phyllosilicate
Particle Size: Medium
Sample No.: PS-13A
Owner: JPL
Wavelength Range: VSWIR
Origin: USA, South Dakota
Description: Yellow lepidolite. Particle size was 45-125um.Collected by Ward's Original ASTER Spectral Library name was jpl.beckman.mineral.silicate.phyllosilicate.medium.ps13a.spectrum.txt
Measurement: Hemispherical reflectance
X Units: Wavelength (micrometers)
Y Units: Reflectance (percent)
wavelength	value
0.4	28.23
0.403	29.88
0.406	30.85
0.409	32.56
0.412	33.7
0.415	35.24
0.418	36.78
0.421	37.92
0.424	39.63
0.427	40.83
0.43	42.72
0.433	44.03
0.436	45.63
0.439	46.99
0.442	48.53
0.445	50.13
0.448	51.16
0.451	52.81
0.454	53.85
0.457	55.33
0.46	55.79
0.463	57.33
0.466	58.58
0.469	59.5
0.472	60.42
0.475	61
0.478	62.38
0.481	62.66
0.484	63.97
0.487	64.38
0.49	65.41
0.493	65.94
0.496	66.44
0.499	67.03
0.502	67.3
0.505	68.22
0.508	68.34
0.511	69.31
0.514	69.48
0.517	70.05
0.52	70.34
0.523	70.56
0.526	71.13
0.529	71.19
0.532	71.71
0.535	71.36
0.538	72.1
0.541	71.99
0.544	72.33
0.547	72.62
0.55	72.62
0.553	73.08
0.556	72.73
0.559	73.13
0.562	73.19
0.565	73.59
0.568	73.36
0.571	73.65
0.574	73.36
0.577	73.48
0.58	73.71
0.583	73.54
0.586	73.81
0.589	73.71
0.592	74.33
0.595	74.1
0.598	74.33
0.601	74.39
0.604	74.39
0.607	74.9
0.61	74.56
0.613	75.02
0.616	74.9
0.619	75.02
0.622	75.47
0.625	75.02
0.628	75.53
0.631	75.47
0.634	75.7
0.637	76.04
0.64	75.58
0.643	76.22
0.646	76.04
0.649	76.27
0.652	76.67
0.655	76.27
0.658	76.85
0.661	76.79
0.664	76.85
0.667	77.24
0.67	76.96
0.673	77.24
0.676	77.18
0.679	77.12
0.682	77.58
0.685	77.35
0.688	77.41
0.691	77.64
0.694	77.35
0.697	77.81
0.7	77.41
0.703	77.93
0.706	77.47
0.709	77.76
0.712	77.87
0.715	77.7
0.718	78.1
0.721	77.7
0.724	77.99
0.727	77.76
0.73	77.81
0.733	77.93
0.736	77.35
0.739	77.7
0.742	77.47
0.745	77.41
0.748	77.7
0.751	77.18
0.754	77.53
0.757	77.24
0.76	77.12
0.763	77.07
0.766	76.5
0.769	76.85
0.772	76.33
0.775	76.39
0.778	76.22
0.781	75.76
0.784	76.04
0.787	75.36
0.79	75.58
0.793	75.08
0.796	74.9
0.799	74.9
0.808	74.5
0.82	73.31
0.832	72.56
0.844	71.59
0.856	70.85
0.868	70.22
0.88	69.65
0.892	69.19
0.904	69.08
0.916	68.96
0.928	69.13
0.94	69.42
0.952	69.13
0.964	68.85
0.976	70.9
0.988	71.94
1	72.5
1.012	73.02
1.024	72.96
1.036	73.08
1.048	73.02
1.06	72.62
1.072	72.39
1.084	72.05
1.096	71.71
1.108	71.31
1.12	70.9
1.132	70.67
1.144	70.44
1.156	70.33
1.168	70.14
1.18	69.95
1.192	70.05
1.204	70.21
1.216	70.32
1.228	70.49
1.24	70.37
1.252	70.66
1.264	71.44
1.276	71.71
1.288	71.91
1.3	72.02
1.312	72.05
1.324	72.32
1.336	73.16
1.348	74.17
1.36	74.11
1.372	73.48
1.384	71.43
1.396	54.07
1.408	41.27
1.42	55.06
1.432	72.78
1.444	77.76
1.456	79.31
1.468	80.39
1.48	80.91
1.492	81.53
1.504	81.93
1.516	82.45
1.528	82.84
1.54	83.24
1.552	83.53
1.564	83.7
1.576	84.21
1.588	84.44
1.6	84.78
1.612	84.65
1.624	84.73
1.636	84.78
1.648	84.87
1.66	85.08
1.672	85.11
1.684	85.04
1.696	85.19
1.708	85.18
1.72	85.12
1.732	85.18
1.744	84.95
1.756	84.5
1.768	84.56
1.78	84.5
1.792	84.78
1.804	84.24
1.816	83.58
1.828	82.43
1.84	82.18
1.852	82.79
1.864	83.1
1.876	82.86
1.888	82.11
1.9	81.12
1.912	80.55
1.924	80.13
1.936	80.16
1.948	79.68
1.96	79.3
1.972	78.85
1.984	78.34
1.996	78.05
2.008	77.85
2.02	77.57
2.032	77.28
2.044	76.71
2.056	76.07
2.068	75.19
2.08	73.59
2.092	70.83
2.104	67.96
2.116	65.88
2.128	65.03
2.14	63.67
2.152	60.05
2.164	52.99
2.176	42.92
2.188	33.97
2.2	32.88
2.212	39.96
2.224	49.32
2.236	55.23
2.248	58.02
2.26	58.91
2.272	58.79
2.284	57.26
2.296	54.19
2.308	50.04
2.32	44.13
2.332	39.95
2.344	37.66
2.356	37.66
2.368	38.44
2.38	38.99
2.392	38.51
2.404	36.9
2.416	34.91
2.428	32.79
2.44	31.9
2.452	32.07
2.464	33.11
2.476	34.31
2.488	35.57
2.5	37.1
