Name: Colemanite Ca_2B_6O_11.5H_2O
Type: Mineral
Class: Borate
Subclass: None
Particle Size: Fine
Sample No.: B-1A
Owner: JPL
Wavelength Range: TIR
Origin: USA, California, Kern County, Boron
Description: Particle size was 0-45um.Collected by Burminco Original ASTER Spectral Library name was jpl.nicolet.mineral.borate.none.fine.b01a.spectrum.txt
Measurement: Hemispherical reflectance
X Units: Wavelength (micrometers)
Y Units: Reflectance (percent)
wavelength	value
15.3853	3.8973
15.1161	4.5378
14.8563	3.7818
14.6052	4.4864
14.3624	3.9228
14.1276	4.2326
13.9004	3.9581
13.6803	3.9507
13.4671	3.976
13.2604	4.9655
13.06	4.3535
12.8656	3.5343
12.6769	3.6669
12.4936	3.8126
12.3155	4.0519
12.1425	3.8235
11.9742	4.4097
11.8106	4.8541
11.6513	5.5241
11.4963	5.5267
11.3454	5.5735
11.1983	6.19
11.0551	7.1075
10.9154	7.5423
10.7793	6.5626
10.6465	6.5249
10.5169	7.017
10.3904	6.4102
10.267	4.8551
10.1464	3.7807
10.0287	3.189
9.9136	2.8405
9.8012	2.5037
9.6913	2.561
9.5838	2.9979
9.4787	3.4003
9.3758	2.15
9.2752	1.6809
9.1767	1.2073
9.0803	1.4265
8.9858	1.5376
8.8934	1.6652
8.8028	1.4612
8.714	1.2982
8.627	1.375
8.5417	1.2748
8.4581	1.1085
8.3761	1.5388
8.2957	1.9422
8.2169	2.0513
8.1395	2.0476
8.0635	1.7513
7.989	2.0412
7.9158	2.4428
7.8439	2.5378
7.7734	2.2468
7.7041	2.2555
7.636	2.8839
7.5691	3.9246
7.5034	4.3762
7.4388	4.5235
7.3753	4.2484
7.3129	5.7021
7.2515	6.3192
7.1912	5.5323
7.1318	4.553
7.0734	3.1343
7.016	1.5697
6.9595	0.9209
6.9039	0.4509
6.8492	0.51
6.7953	0.4283
6.7423	0.3009
6.6901	0.6246
6.6387	0.7547
6.5881	0.9913
6.5382	1.1639
6.4892	1.4508
6.4408	1.4775
6.3931	1.6276
6.3462	1.6
6.2999	1.5926
6.2543	1.6499
6.2094	1.6576
6.1651	1.7862
6.1214	1.9505
6.0784	2.1001
6.0359	2.2121
5.994	2.2776
5.9527	2.2603
5.912	2.4525
5.8718	2.4568
5.8322	2.9061
5.7931	3.395
5.7545	4.1953
5.7165	4.9748
5.6789	5.6359
5.6418	6.3616
5.6052	6.9341
5.5691	7.5481
5.5334	7.8107
5.4982	8.116
5.4635	8.6179
5.4291	8.9677
5.3952	9.3431
5.3618	9.7005
5.3287	10.145
5.2961	10.5062
5.2638	10.8376
5.2319	11.2947
5.2004	11.7268
5.1693	12.0039
5.1386	12.2557
5.1082	12.453
5.0782	12.5552
5.0485	12.636
5.0192	12.6339
4.9902	12.7548
4.9616	13.1698
4.9332	13.3976
4.9052	13.8314
4.8776	14.1203
4.8502	14.25
4.8231	14.316
4.7963	14.2521
4.7699	14.1425
4.7437	13.9039
4.7178	13.5279
4.6922	13.3026
4.6668	13.2009
4.6418	13.0037
4.617	13.0279
4.5924	13.1007
4.5681	13.0653
4.5441	13.2375
4.5203	13.4663
4.4968	13.6505
4.4735	13.9681
4.4505	14.4058
4.4277	14.8469
4.4051	15.28
4.3828	15.5351
4.3607	15.8632
4.3388	15.907
4.3171	15.7983
4.2956	15.7607
4.2744	15.7109
4.2534	15.6504
4.2325	15.299
4.2119	15.109
4.1915	14.8019
4.1712	14.3494
4.1512	13.6997
4.1313	13.1384
4.1117	12.0433
4.0922	10.7696
4.0729	9.704
4.0538	9.0154
4.0349	8.8093
4.0161	8.9768
3.9976	8.8094
3.9792	8.627
3.9609	8.6125
3.9428	8.5291
3.9249	9.0704
3.9072	9.2706
3.8896	9.4922
3.8722	9.6873
3.8549	10.0773
3.8378	10.4395
3.8208	10.4973
3.804	10.6179
3.7873	10.9815
3.7708	11.0806
3.7544	11.1147
3.7382	10.8701
3.7221	10.7735
3.7061	10.5063
3.6903	10.3386
3.6746	9.9259
3.659	9.8113
3.6436	9.7668
3.6283	9.4214
3.6131	9.2385
3.5981	8.8784
3.5832	8.6229
3.5684	8.1899
3.5537	7.6477
3.5391	7.4394
3.5247	7.09
3.5104	6.7558
3.4962	6.4891
3.4821	6.1579
3.4681	5.6996
3.4543	5.4361
3.4405	5.2043
3.4269	4.9821
3.4133	4.5226
3.3999	4.2576
3.3866	3.9784
3.3733	3.8109
3.3602	3.4834
3.3472	3.4484
3.3343	3.1378
3.3215	3.1352
3.3088	2.9127
3.2961	2.7328
3.2836	2.6933
3.2712	2.6175
3.2588	2.4664
3.2466	2.4143
3.2345	2.279
3.2224	2.3073
3.2104	1.9741
3.1985	2.0026
3.1867	1.8269
3.175	1.8479
3.1634	1.5601
3.1519	1.6826
3.1404	1.5706
3.129	1.4658
3.1178	1.5211
3.1065	1.4661
3.0954	1.4072
3.0844	1.5104
3.0734	1.3144
3.0625	1.1313
3.0517	1.1617
3.041	1.2189
3.0303	1.1853
3.0197	1.1366
3.0092	1.1463
2.9987	1.0474
2.9884	1.4159
2.9781	1.2955
2.9678	1.2141
2.9577	1.1501
2.9476	1.2375
2.9376	1.5533
2.9276	1.6081
2.9177	1.9617
2.9079	2.06
2.8982	2.6423
2.8885	2.8801
2.8789	2.7103
2.8693	3.1589
2.8598	3.2572
2.8504	3.1605
2.841	2.902
2.8317	3.0166
2.8224	3.1127
2.8133	3.8139
2.8041	4.2969
2.7951	4.3351
2.786	2.721
2.7771	1.6914
2.7682	1.388
2.7594	3.2374
2.7506	7.728
2.7418	11.0692
2.7332	13.7432
2.7246	15.7455
2.716	16.8015
2.7075	19.1232
2.699	21.5754
2.6906	23.9183
2.6823	25.879
2.674	27.4421
2.6657	29.6658
2.6575	29.3664
2.6494	29.8987
2.6413	30.8585
2.6332	31.9134
2.6252	32.8709
2.6173	34.1669
2.6094	34.103
2.6015	34.4048
2.5937	35.6474
2.5859	35.3277
2.5782	35.4878
2.5706	36.1481
2.5629	36.9924
2.5554	36.6619
2.5478	37.3684
2.5403	38.1736
2.5329	39.5241
2.5255	40.2495
2.5181	40.8989
2.5108	40.8998
2.5035	40.8383
2.4963	41.1921
2.4891	41.5282
2.482	41.3402
2.4749	41.0311
2.4678	40.7796
2.4608	40.8141
2.4538	40.99
2.4468	41.2633
2.4399	41.867
2.4331	42.4744
2.4262	42.7573
2.4194	43.0206
2.4127	43.599
2.4059	44.5195
2.3993	46.0394
2.3926	47.3213
2.386	48.7021
2.3795	50.3748
2.3729	51.4678
2.3664	52.5769
2.36	54.1625
2.3535	55.1654
2.3471	56.0456
2.3408	56.3403
2.3345	57.0913
2.3282	57.6689
2.3219	58.2565
2.3157	58.7552
2.3095	58.9891
2.3034	58.6802
2.2972	58.9014
2.2911	58.8102
2.2851	58.6967
2.279	58.2993
2.2731	58.0118
2.2671	57.4661
2.2612	57.4457
2.2553	56.9225
2.2494	56.2757
2.2435	55.4929
2.2377	54.3393
2.232	53.4796
2.2262	52.7852
2.2205	52.3363
2.2148	51.3345
2.2091	49.9776
2.2035	49.5997
2.1979	50.0927
2.1923	50.7045
2.1868	51.4762
2.1812	51.8639
2.1758	52.0398
2.1703	52.1741
2.1649	52.8155
2.1595	53.3796
2.1541	54.3803
2.1487	54.9559
2.1434	55.2905
2.1381	55.1828
2.1328	54.203
2.1275	52.5163
2.1223	50.4999
2.1171	48.0845
2.112	46.6243
2.1068	45.9158
2.1017	46.7555
2.0966	49.4006
2.0915	53.4039
2.0865	56.5012
2.0814	58.9315
2.0764	59.6958
2.0715	59.0827
2.0665	59.5945
2.0616	60.1285
2.0567	60.178
2.0518	59.9867
2.0469	60.343
2.0421	60.209
2.0373	60.023
2.0325	59.624
2.0277	59.6124
2.0229	59.3694
2.0182	59.4391
2.0135	58.9999
2.0088	58.8186
2.0042	58.4871
