Name: Clinochlore (Chlorite) (Mg,Al)_6(Si,Al)_4O_10(OH)_8
Type: Mineral
Class: Silicate
Subclass: Phyllosilicate
Particle Size: Medium
Sample No.: PS-12A
Owner: JPL
Wavelength Range: TIR
Origin: USA, California, El Dorado County, Flagstaff Hill
Description: Particle size was 45-125um.Collected by Clay Mineral Society Original ASTER Spectral Library name was jpl.nicolet.mineral.silicate.phyllosilicate.medium.ps12a.spectrum.txt
Measurement: Hemispherical reflectance
X Units: Wavelength (micrometers)
Y Units: Reflectance (percent)
wavelength	value
15.3853	4.6096
15.1161	4.7776
14.8563	4.4724
14.6052	3.33
14.3624	2.6977
14.1276	2.6316
13.9004	2.5462
13.6803	2.9317
13.4671	3.6488
13.2604	4.0884
13.06	3.9117
12.8656	3.0096
12.6769	2.2161
12.4936	1.8536
12.3155	2.0802
12.1425	1.8814
11.9742	1.986
11.8106	2.6673
11.6513	3.163
11.4963	3.5667
11.3454	3.8546
11.1983	4.2833
11.0551	4.8272
10.9154	5.5038
10.7793	6.6231
10.6465	8.2092
10.5169	9.7012
10.3904	10.8403
10.267	12.514
10.1464	15.3732
10.0287	18.3487
9.9136	19.35
9.8012	19.6216
9.6913	18.0095
9.5838	15.1236
9.4787	15.0002
9.3758	14.6746
9.2752	9.2666
9.1767	5.8016
9.0803	3.1581
8.9858	1.6164
8.8934	0.9093
8.8028	0.5097
8.714	0.3468
8.627	0.5781
8.5417	0.9953
8.4581	1.3488
8.3761	1.7381
8.2957	2.4527
8.2169	2.7765
8.1395	3.2991
8.0635	3.9249
7.989	4.4111
7.9158	4.7873
7.8439	5.2121
7.7734	5.7224
7.7041	6.0574
7.636	6.3447
7.5691	6.6993
7.5034	7.0826
7.4388	7.5335
7.3753	7.945
7.3129	8.2356
7.2515	8.6939
7.1912	9.058
7.1318	9.3947
7.0734	9.708
7.016	10.0886
6.9595	10.2397
6.9039	10.4307
6.8492	10.578
6.7953	10.701
6.7423	10.4899
6.6901	10.5994
6.6387	10.8147
6.5881	10.3567
6.5382	9.9476
6.4892	10.0165
6.4408	9.4999
6.3931	9.1258
6.3462	8.9329
6.2999	8.5954
6.2543	8.5072
6.2094	8.6768
6.1651	8.9411
6.1214	9.1244
6.0784	9.3585
6.0359	9.5185
5.994	9.7145
5.9527	9.7055
5.912	9.7979
5.8718	9.9017
5.8322	10.3121
5.7931	10.6438
5.7545	11.255
5.7165	11.6733
5.6789	11.8946
5.6418	12.1899
5.6052	12.2066
5.5691	12.5331
5.5334	12.8567
5.4982	13.2367
5.4635	13.7806
5.4291	13.9602
5.3952	14.0377
5.3618	14.0995
5.3287	14.1555
5.2961	14.2987
5.2638	14.4874
5.2319	14.7611
5.2004	15.0857
5.1693	15.1882
5.1386	15.3262
5.1082	15.3695
5.0782	15.4823
5.0485	15.5701
5.0192	15.5517
4.9902	15.628
4.9616	15.9208
4.9332	16.3097
4.9052	17.1053
4.8776	17.6404
4.8502	18.3508
4.8231	19.3541
4.7963	19.9793
4.7699	20.8375
4.7437	21.9571
4.7178	23.4083
4.6922	24.5361
4.6668	25.5851
4.6418	26.3039
4.617	27.1725
4.5924	28.303
4.5681	29.5108
4.5441	30.4609
4.5203	31.0374
4.4968	31.7079
4.4735	32.4266
4.4505	33.0101
4.4277	33.7818
4.4051	34.1816
4.3828	34.6546
4.3607	35.1414
4.3388	35.5602
4.3171	35.9002
4.2956	36.3566
4.2744	36.7711
4.2534	36.922
4.2325	37.3731
4.2119	37.6569
4.1915	37.8536
4.1712	38.0331
4.1512	38.2903
4.1313	38.5556
4.1117	38.7885
4.0922	38.8841
4.0729	39.009
4.0538	39.1266
4.0349	39.2134
4.0161	39.1024
3.9976	39.1194
3.9792	39.0846
3.9609	39.0808
3.9428	39.0987
3.9249	39.0157
3.9072	38.8849
3.8896	38.6919
3.8722	38.4778
3.8549	38.2801
3.8378	38.073
3.8208	37.7572
3.804	37.5876
3.7873	37.4058
3.7708	37.161
3.7544	36.9381
3.7382	36.6536
3.7221	36.2226
3.7061	36.036
3.6903	35.7713
3.6746	35.4401
3.659	35.063
3.6436	34.6235
3.6283	34.1163
3.6131	33.6587
3.5981	32.9681
3.5832	32.3475
3.5684	31.6557
3.5537	31.1193
3.5391	30.5622
3.5247	30.1012
3.5104	29.6843
3.4962	29.1607
3.4821	28.7047
3.4681	28.3465
3.4543	27.8995
3.4405	27.4195
3.4269	27.0356
3.4133	26.5552
3.3999	26.1141
3.3866	25.6453
3.3733	25.0855
3.3602	24.6631
3.3472	24.2387
3.3343	23.6934
3.3215	23.175
3.3088	22.7027
3.2961	22.2537
3.2836	21.7698
3.2712	21.1007
3.2588	20.553
3.2466	19.9956
3.2345	19.1799
3.2224	18.5237
3.2104	17.7857
3.1985	17.1369
3.1867	16.3224
3.175	15.5509
3.1634	14.7769
3.1519	14.1071
3.1404	13.3181
3.129	12.5429
3.1178	11.8628
3.1065	11.1745
3.0954	10.3793
3.0844	9.7619
3.0734	9.2228
3.0625	8.4766
3.0517	7.9268
3.041	7.4432
3.0303	6.943
3.0197	6.3946
3.0092	6.1168
2.9987	5.745
2.9884	5.375
2.9781	5.1276
2.9678	5.0104
2.9577	4.6006
2.9476	4.6206
2.9376	4.4675
2.9276	4.4279
2.9177	4.5798
2.9079	4.9036
2.8982	5.0115
2.8885	5.3011
2.8789	5.5549
2.8693	5.9978
2.8598	5.8862
2.8504	5.4872
2.841	5.4583
2.8317	5.0089
2.8224	5.0207
2.8133	5.0749
2.8041	5.2975
2.7951	5.7737
2.786	6.8817
2.7771	8.9026
2.7682	10.7181
2.7594	11.0152
2.7506	10.8946
2.7418	11.4087
2.7332	11.9395
2.7246	13.6865
2.716	17.7895
2.7075	27.6617
2.699	31.6348
2.6906	34.2306
2.6823	35.8707
2.674	36.9758
2.6657	38.354
2.6575	37.9417
2.6494	38.3691
2.6413	38.8796
2.6332	39.3626
2.6252	39.4341
2.6173	39.84
2.6094	39.6172
2.6015	39.3749
2.5937	40.2534
2.5859	39.6148
2.5782	39.4392
2.5706	39.8023
2.5629	40.2726
2.5554	40.0482
2.5478	40.1822
2.5403	40.4992
2.5329	40.7624
2.5255	40.9953
2.5181	41.4582
2.5108	41.4597
2.5035	41.5366
2.4963	41.9452
2.4891	42.0563
2.482	42.4065
2.4749	43.2016
2.4678	43.946
2.4608	44.5837
2.4538	45.4571
2.4468	45.8451
2.4399	46.158
2.4331	46.2388
2.4262	46.5792
2.4194	46.4003
2.4127	46.1774
2.4059	45.7345
2.3993	45.253
2.3926	44.9166
2.386	44.278
2.3795	43.2301
2.3729	41.5285
2.3664	39.6465
2.36	38.2147
2.3535	37.0369
2.3471	36.6254
2.3408	36.7745
2.3345	37.6532
2.3282	38.6433
2.3219	39.448
2.3157	40.0683
2.3095	40.7624
2.3034	41.387
2.2972	42.0997
2.2911	43.2031
2.2851	44.0393
2.279	44.1561
2.2731	43.9613
2.2671	42.8123
2.2612	41.5888
2.2553	40.7113
2.2494	41.4567
2.2435	44.5855
2.2377	48.279
2.232	50.5536
2.2262	52.1887
2.2205	53.3664
2.2148	53.8033
2.2091	54.4385
2.2035	54.4995
2.1979	55.0586
2.1923	55.3477
2.1868	55.605
2.1812	55.738
2.1758	55.7001
2.1703	56.0676
2.1649	55.8694
2.1595	55.9457
2.1541	56.0292
2.1487	56.1674
2.1434	55.8798
2.1381	55.8498
2.1328	55.7953
2.1275	55.6633
2.1223	55.7837
2.1171	55.5255
2.112	55.6308
2.1068	55.6374
2.1017	55.645
2.0966	55.457
2.0915	55.402
2.0865	55.24
2.0814	55.2699
2.0764	55.1824
2.0715	55.0063
2.0665	54.5537
2.0616	54.3896
2.0567	53.7657
2.0518	53.7846
2.0469	53.2651
2.0421	53.043
2.0373	52.4766
2.0325	51.7346
2.0277	51.2801
2.0229	50.853
2.0182	50.1736
2.0135	50.0381
2.0088	49.6926
2.0042	49.3413
