Name: Tincalconite Na_2B_4O_5(OH)_4.3H_2O
Type: Mineral
Class: Borate
Subclass: None
Particle Size: Coarse
Sample No.: B-4A
Owner: JPL
Wavelength Range: VSWIR
Origin: USA, California, Kern County, Boron.
Description: Particle size was 125-500um. Collected by:  Burminco Original ASTER Spectral Library name was jpl.perkin.mineral.borate.none.coarse.b04a.spectrum.txt
Measurement: Hemispherical reflectance
X Units: Wavelength (micrometers)
Y Units: Reflectance (percent)
wavelength	value
2.5	10.5463
2.494	11.0827
2.488	11.6041
2.482	12.1017
2.476	12.4816
2.47	13.0303
2.464	13.41
2.458	13.7451
2.452	13.8454
2.446	14.1521
2.44	14.2121
2.434	14.5405
2.428	14.8689
2.422	15.2934
2.416	15.8125
2.41	16.3138
2.404	16.8917
2.398	17.523
2.392	18.1782
2.386	18.9506
2.38	19.5831
2.374	20.1962
2.368	20.712
2.362	21.0924
2.356	21.4838
2.35	21.6932
2.344	21.9311
2.338	22.0585
2.332	22.2081
2.326	22.2675
2.32	22.3473
2.314	22.2822
2.308	22.3681
2.302	22.368
2.296	22.3508
2.29	22.3798
2.284	22.374
2.278	22.3438
2.272	22.3698
2.266	22.3753
2.26	22.3596
2.254	22.5031
2.248	22.5122
2.242	22.6196
2.236	22.7375
2.23	22.8769
2.224	23.0291
2.218	23.1611
2.212	23.4536
2.206	23.698
2.2	23.9253
2.194	23.9655
2.188	23.9447
2.182	23.7613
2.176	23.3609
2.17	22.8349
2.164	22.2843
2.158	21.8457
2.152	21.7011
2.146	22.0937
2.14	22.7183
2.134	23.2412
2.128	23.5153
2.122	23.586
2.116	23.3572
2.11	23.1993
2.104	23.0557
2.098	22.9199
2.092	22.9315
2.086	22.9339
2.08	22.962
2.074	22.9098
2.068	22.8016
2.062	22.7205
2.056	22.5531
2.05	22.4202
2.044	22.2598
2.038	22.1232
2.032	21.9663
2.026	21.8425
2.02	21.6147
2.014	21.3779
2.008	21.1788
2.002	21.0173
1.996	20.7448
1.99	20.4964
1.984	20.2864
1.978	20.1559
1.972	19.8653
1.966	19.6271
1.96	19.206
1.954	18.7674
1.948	18.1805
1.942	17.5895
1.936	17.0249
1.93	16.8493
1.924	16.941
1.918	17.3091
1.912	17.8161
1.906	19.2223
1.9	21.9851
1.894	25.1994
1.888	28.096
1.882	30.3502
1.876	31.9913
1.87	33.2911
1.864	34.2907
1.858	34.9757
1.852	35.4184
1.846	35.8214
1.84	36.1337
1.834	36.4087
1.828	36.6956
1.822	36.9276
1.816	37.2265
1.81	37.546
1.804	37.7865
1.798	38.1533
1.792	38.4433
1.786	38.7959
1.78	39.1777
1.774	39.5985
1.768	39.9402
1.762	40.2481
1.756	40.5817
1.75	40.8048
1.744	40.9789
1.738	41.0244
1.732	41.0321
1.726	40.9718
1.72	40.9864
1.714	40.9758
1.708	40.975
1.702	41.1276
1.696	41.0976
1.69	41.3935
1.684	41.5378
1.678	41.8723
1.672	42.1295
1.666	42.4167
1.66	42.8182
1.654	43.2123
1.648	43.5723
1.642	44.0431
1.636	44.3924
1.63	44.7106
1.624	45.1256
1.618	45.4162
1.612	45.8637
1.606	46.1274
1.6	46.2487
1.594	46.4425
1.588	46.5455
1.582	46.4887
1.576	46.4359
1.57	46.3079
1.564	46.2086
1.558	46.1423
1.552	46.2646
1.546	46.6549
1.54	47.1672
1.534	47.7563
1.528	48.2721
1.522	48.6365
1.516	48.7656
1.51	48.611
1.504	48.0024
1.498	46.8624
1.492	45.6156
1.486	44.6104
1.48	44.3519
1.474	44.6621
1.468	45.3221
1.462	46.2889
1.456	47.6665
1.45	48.5861
1.444	49.4463
1.438	50.076
1.432	49.4693
1.426	48.5207
1.42	50.4539
1.414	54.7499
1.408	58.9457
1.402	62.3964
1.396	65.1312
1.39	67.5366
1.384	69.2236
1.378	70.4632
1.372	71.3574
1.366	72.1568
1.36	73.0121
1.354	74.0565
1.348	75.1015
1.342	76.1055
1.336	77.1622
1.33	77.9801
1.324	78.7425
1.318	79.2883
1.312	79.6802
1.306	79.7486
1.3	79.7124
1.294	79.3864
1.288	78.9656
1.282	78.8608
1.276	79.0712
1.27	79.354
1.264	79.4835
1.258	79.607
1.252	79.6872
1.246	79.796
1.24	79.9761
1.234	80.1724
1.228	80.2726
1.222	80.3858
1.216	80.634
1.21	80.7644
1.204	80.8511
1.198	80.8146
1.192	80.8363
1.186	80.9583
1.18	81.0368
1.174	81.075
1.168	80.8829
1.162	80.4456
1.156	81.3381
1.15	83.605
1.144	85.175
1.138	86.084
1.132	86.4785
1.126	86.7226
1.12	87.0046
1.114	87.2052
1.108	87.5276
1.102	87.7349
1.096	88.0842
1.09	88.1594
1.084	88.373
1.078	88.3661
1.072	88.4726
1.066	88.4184
1.06	88.3356
1.054	88.2721
1.048	88.1699
1.042	88.0461
1.036	87.9067
1.03	87.6722
1.024	87.468
1.018	87.3548
1.012	87.2656
1.006	87.1099
1	86.9166
0.994	86.7751
0.988	86.6636
0.982	86.5473
0.976	86.4625
0.97	86.7286
0.964	87.67
0.958	88.4966
0.952	89.0122
0.946	89.2631
0.94	89.4661
0.934	89.7559
0.928	90.0024
0.922	90.0887
0.916	90.112
0.91	90.1761
0.904	90.2284
0.898	90.2178
0.892	90.3048
0.886	90.3012
0.88	90.4435
0.874	90.4181
0.868	90.4677
0.862	90.3805
0.856	90.1733
0.85	90.2652
0.844	90.2687
0.838	90.3233
0.832	90.4791
0.826	90.4989
0.82	90.5821
0.814	90.6398
0.808	90.6672
0.802	90.6942
0.796	90.5533
0.79	90.533
0.784	90.5498
0.778	90.5422
0.772	90.5392
0.766	90.5011
0.76	90.4361
0.754	90.4486
0.748	90.4113
0.742	90.4502
0.736	90.5252
0.73	90.5364
0.724	90.5342
0.718	90.5237
0.712	90.5318
0.706	90.5267
0.7	90.5046
0.694	90.4808
0.688	90.4574
0.682	90.4325
0.676	90.4267
0.67	90.3657
0.664	90.3555
0.658	90.3229
0.652	90.2815
0.646	90.2986
0.64	90.266
0.634	90.2125
0.628	90.1713
0.622	90.121
0.616	90.0584
0.61	89.9834
0.604	89.963
0.598	89.9243
0.592	89.9055
0.586	89.8212
0.58	89.7311
0.574	89.6501
0.568	89.5425
0.562	89.4485
0.556	89.2926
0.55	89.1657
0.544	89.0075
0.538	88.8719
0.532	88.7052
0.526	88.5314
0.52	88.3108
0.514	88.0835
0.508	87.8065
0.502	87.5805
0.496	87.1855
0.49	86.9707
0.484	86.5095
0.478	86.2872
0.472	85.9929
0.466	85.5948
0.46	85.2613
0.454	84.9258
0.448	84.5734
0.442	84.1389
0.436	83.8367
0.43	83.4983
0.424	83.1901
0.418	82.8836
0.412	82.5581
0.406	82.2704
0.4	81.9129
