Name: Epidote Ca_2(Al,Fe^3+)_3O.SiO_4.Si_2O_7.OH
Type: Mineral
Class: Silicate
Subclass: Sorosilicate
Particle Size: Fine
Sample No.: SS-1C
Owner: JPL
Wavelength Range: VSWIR
Origin: USA, Colorado
Description: Particle size was 0-45um.Collected by Ward's Original ASTER Spectral Library name was jpl.beckman.mineral.silicate.sorosilicate.fine.ss01c.spectrum.txt
Measurement: Hemispherical reflectance
X Units: Wavelength (micrometers)
Y Units: Reflectance (percent)
wavelength	value
0.4	22.65
0.403	23.12
0.406	23.38
0.409	23.87
0.412	24.41
0.415	25.17
0.418	25.83
0.421	26.46
0.424	27.19
0.427	28.02
0.43	28.87
0.433	29.54
0.436	30.32
0.439	30.75
0.442	31.19
0.445	31.47
0.448	31.67
0.451	31.71
0.454	31.61
0.457	32.06
0.46	32.37
0.463	32.59
0.466	32.65
0.469	32.73
0.472	32.79
0.475	33.22
0.478	33.74
0.481	34.45
0.484	35.11
0.487	35.65
0.49	36.3
0.493	36.71
0.496	37.43
0.499	38.05
0.502	38.46
0.505	38.8
0.508	39.35
0.511	40.01
0.514	40.46
0.517	40.93
0.52	41.36
0.523	41.87
0.526	42.33
0.529	42.84
0.532	43.35
0.535	43.65
0.538	44.29
0.541	44.53
0.544	45.01
0.547	45.31
0.55	45.6
0.553	45.93
0.556	46.05
0.559	46.36
0.562	46.84
0.565	47.1
0.568	47.04
0.571	47.26
0.574	47.36
0.577	47.42
0.58	47.6
0.583	47.39
0.586	47.54
0.589	47.64
0.592	47.64
0.595	47.84
0.598	47.66
0.601	47.86
0.604	47.79
0.607	47.87
0.61	48.02
0.613	47.76
0.616	47.87
0.619	47.96
0.622	48.1
0.625	48.22
0.628	48.04
0.631	48.16
0.634	48.28
0.637	48.43
0.64	48.5
0.643	48.51
0.646	48.59
0.649	48.69
0.652	48.8
0.655	49.02
0.658	48.99
0.661	48.96
0.664	49.22
0.667	49.33
0.67	49.34
0.673	49.48
0.676	49.46
0.679	49.63
0.682	49.76
0.685	49.82
0.688	49.98
0.691	49.91
0.694	50.08
0.697	50.12
0.7	50.18
0.703	50.19
0.706	50.49
0.709	50.37
0.712	50.54
0.715	50.59
0.718	50.57
0.721	50.68
0.724	50.88
0.727	50.86
0.73	50.88
0.733	51
0.736	50.99
0.739	51.18
0.742	51.29
0.745	51.39
0.748	51.32
0.751	51.4
0.754	51.48
0.757	51.7
0.76	51.67
0.763	51.74
0.766	51.83
0.769	51.84
0.772	51.97
0.775	52.09
0.778	52.17
0.781	52.07
0.784	52.21
0.787	52.26
0.79	52.4
0.793	52.42
0.796	52.55
0.799	52.64
0.808	52.92
0.82	53.04
0.832	53.17
0.844	53.12
0.856	53.15
0.868	53.18
0.88	53.12
0.892	53.09
0.904	53.1
0.916	53.07
0.928	53.19
0.94	53.47
0.952	53.43
0.964	53.57
0.976	53.68
0.988	53.87
1	54.03
1.012	54.14
1.024	54.13
1.036	54.4
1.048	54.63
1.06	54.85
1.072	55.12
1.084	55.37
1.096	55.66
1.108	55.96
1.12	56.35
1.132	56.68
1.144	57.01
1.156	57.24
1.168	57.43
1.18	57.7
1.192	58.12
1.204	58.49
1.216	58.69
1.228	58.86
1.24	59.08
1.252	59.4
1.264	59.57
1.276	59.74
1.288	59.97
1.3	60.12
1.312	60.1
1.324	60.17
1.336	60.31
1.348	60.52
1.36	60.52
1.372	60.58
1.384	59.98
1.396	59.9
1.408	60.19
1.42	60.19
1.432	60.36
1.444	60.6
1.456	60.64
1.468	60.83
1.48	60.96
1.492	61.09
1.504	61.11
1.516	61.16
1.528	61.08
1.54	61.1
1.552	61.14
1.564	61.14
1.576	61.23
1.588	61.37
1.6	61.42
1.612	61.6
1.624	61.56
1.636	61.54
1.648	61.67
1.66	61.7
1.672	61.76
1.684	61.74
1.696	61.69
1.708	61.78
1.72	61.88
1.732	61.8
1.744	61.59
1.756	61.63
1.768	61.72
1.78	61.7
1.792	61.69
1.804	61.76
1.816	61.68
1.828	61.76
1.84	61.65
1.852	61.66
1.864	61.4
1.876	61.08
1.888	60.33
1.9	59.42
1.912	59.28
1.924	59.73
1.936	59.95
1.948	60.22
1.96	60.42
1.972	60.62
1.984	60.88
1.996	61.02
2.008	61.15
2.02	61.49
2.032	61.53
2.044	61.62
2.056	61.56
2.068	61.67
2.08	61.82
2.092	61.8
2.104	61.78
2.116	61.97
2.128	62.02
2.14	61.9
2.152	61.62
2.164	61.6
2.176	61.51
2.188	61.38
2.2	61.29
2.212	60.99
2.224	60.79
2.236	60.37
2.248	59.79
2.26	59.55
2.272	59.12
2.284	58.04
2.296	56.69
2.308	55.47
2.32	54.65
2.332	54.53
2.344	55.68
2.356	57.57
2.368	58.49
2.38	58.65
2.392	58.74
2.404	59.17
2.416	59.4
2.428	59.32
2.44	59.19
2.452	58.89
2.464	58.67
2.476	58.51
2.488	58.42
2.5	58.52
