Name: Gahnite ZnAl_2O_4
Type: Mineral
Class: Oxide
Subclass: None
Particle Size: Medium
Sample No.: O-11A
Owner: JPL
Wavelength Range: VSWIR
Origin: Nigeria, Kaduna, Jemaa, Godogodo Mine
Description: Particle size was 45-125um.Collected by New, David Original ASTER Spectral Library name was jpl.beckman.mineral.oxide.none.medium.o11a.spectrum.txt
Measurement: Hemispherical reflectance
X Units: Wavelength (micrometers)
Y Units: Reflectance (percent)
wavelength	value
0.4	31.96
0.403	33.28
0.406	34.25
0.409	35.56
0.412	36.75
0.415	38.17
0.418	39.63
0.421	41.02
0.424	42.23
0.427	43.49
0.43	44.21
0.433	45.19
0.436	46.14
0.439	46.89
0.442	47.25
0.445	47.34
0.448	47.25
0.451	46.74
0.454	45.73
0.457	45.04
0.46	45.13
0.463	45.95
0.466	46.87
0.469	47.44
0.472	47.89
0.475	48.55
0.478	49.88
0.481	50.8
0.484	51.52
0.487	52.01
0.49	52.09
0.493	52.25
0.496	52.25
0.499	52.13
0.502	51.77
0.505	51.21
0.508	50.91
0.511	50.44
0.514	49.75
0.517	48.87
0.52	48.1
0.523	47.2
0.526	46.01
0.529	45.18
0.532	44.18
0.535	43.44
0.538	42.58
0.541	41.94
0.544	41.4
0.547	40.95
0.55	40.74
0.553	40.32
0.556	40.29
0.559	40.09
0.562	40.07
0.565	39.82
0.568	39.62
0.571	39.31
0.574	39.22
0.577	39.05
0.58	39.02
0.583	38.99
0.586	38.98
0.589	39.29
0.592	39.62
0.595	40.02
0.598	40.54
0.601	40.87
0.604	41.27
0.607	41.32
0.61	41.2
0.613	40.77
0.616	40.58
0.619	40.38
0.622	40.32
0.625	40.6
0.628	40.86
0.631	41.59
0.634	42.04
0.637	42.81
0.64	43.55
0.643	44.2
0.646	44.66
0.649	45.06
0.652	45.33
0.655	45.36
0.658	45.56
0.661	45.56
0.664	45.75
0.667	45.61
0.67	45.84
0.673	45.89
0.676	45.93
0.679	46.33
0.682	46.3
0.685	46.56
0.688	46.74
0.691	47
0.694	47.34
0.697	47.48
0.7	47.75
0.703	48.09
0.706	48.41
0.709	48.46
0.712	48.84
0.715	48.94
0.718	49.35
0.721	49.55
0.724	49.55
0.727	49.96
0.73	50.09
0.733	50.38
0.736	50.85
0.739	50.92
0.742	51.25
0.745	51.41
0.748	51.68
0.751	51.79
0.754	51.96
0.757	52.11
0.76	52.33
0.763	52.41
0.766	52.72
0.769	52.67
0.772	52.72
0.775	52.95
0.778	53.02
0.781	53.17
0.784	53.27
0.787	53.37
0.79	53.57
0.793	53.61
0.796	53.84
0.799	53.89
0.808	54.17
0.82	54.61
0.832	55.01
0.844	55.23
0.856	55.4
0.868	55.62
0.88	55.62
0.892	55.67
0.904	55.52
0.916	55.5
0.928	55.65
0.94	56.1
0.952	56.85
0.964	57.8
0.976	58.88
0.988	60.41
1	61.64
1.012	63.44
1.024	64.79
1.036	65.85
1.048	66.81
1.06	67.7
1.072	68.31
1.084	68.84
1.096	69.14
1.108	69.18
1.12	69.04
1.132	68.81
1.144	68.43
1.156	68
1.168	67.23
1.18	66.44
1.192	65.34
1.204	64.34
1.216	63.25
1.228	62.6
1.24	61.88
1.252	61.23
1.264	60.61
1.276	59.53
1.288	58.55
1.3	57.63
1.312	57.05
1.324	56.1
1.336	54.87
1.348	53.23
1.36	51.39
1.372	49.43
1.384	47.23
1.396	45.3
1.408	43.15
1.42	40.94
1.432	38.71
1.444	36.75
1.456	34.65
1.468	32.57
1.48	30.48
1.492	28.24
1.504	26.24
1.516	24.57
1.528	23.04
1.54	21.46
1.552	19.91
1.564	18.42
1.576	17.01
1.588	15.76
1.6	14.5
1.612	13.45
1.624	12.47
1.636	11.63
1.648	10.76
1.66	10.14
1.672	9.41
1.684	8.81
1.696	8.26
1.708	7.79
1.72	7.45
1.732	7.12
1.744	6.66
1.756	6.41
1.768	6.14
1.78	5.85
1.792	5.72
1.804	5.56
1.816	5.42
1.828	5.29
1.84	5.13
1.852	5.09
1.864	5.02
1.876	5
1.888	4.89
1.9	4.77
1.912	4.68
1.924	4.63
1.936	4.67
1.948	4.63
1.96	4.56
1.972	4.63
1.984	4.61
1.996	4.57
2.008	4.52
2.02	4.5
2.032	4.56
2.044	4.49
2.056	4.48
2.068	4.5
2.08	4.53
2.092	4.52
2.104	4.54
2.116	4.61
2.128	4.56
2.14	4.63
2.152	4.65
2.164	4.65
2.176	4.7
2.188	4.72
2.2	4.83
2.212	4.83
2.224	4.9
2.236	4.91
2.248	4.93
2.26	5.09
2.272	5.11
2.284	5.2
2.296	5.13
2.308	5.07
2.32	5.19
2.332	5.22
2.344	5.26
2.356	5.26
2.368	5.2
2.38	5.27
2.392	5.19
2.404	5.24
2.416	5.23
2.428	5.28
2.44	5.28
2.452	5.23
2.464	5.23
2.476	5.23
2.488	5.21
2.5	5.22
