Name: Graphite C
Type: Mineral
Class: Element
Subclass: None
Particle Size: Fine
Sample No.: E-1A
Owner: JPL
Wavelength Range: TIR
Origin: Mexico, Sonora, Morelos, San Jose Mine
Description: Particle size was 0-45um.Collected by Burminco Original ASTER Spectral Library name was jpl.nicolet.mineral.element.none.fine.e01a.spectrum.txt
Measurement: Hemispherical reflectance
X Units: Wavelength (micrometers)
Y Units: Reflectance (percent)
wavelength	value
15.3853	10.7987
15.1161	10.718
14.8563	10.6963
14.6052	10.7398
14.3624	10.3151
14.1276	10.5141
13.9004	10.4553
13.6803	10.291
13.4671	10.283
13.2604	10.1223
13.06	10.108
12.8656	10.2451
12.6769	9.902
12.4936	10.3234
12.3155	9.8579
12.1425	10.0693
11.9742	9.9319
11.8106	9.9508
11.6513	9.9876
11.4963	9.7593
11.3454	9.7333
11.1983	9.8569
11.0551	9.9734
10.9154	9.8784
10.7793	9.8367
10.6465	9.8098
10.5169	9.706
10.3904	9.7206
10.267	9.7397
10.1464	9.8695
10.0287	9.7173
9.9136	9.8105
9.8012	9.5548
9.6913	9.7588
9.5838	9.7837
9.4787	9.836
9.3758	9.472
9.2752	9.886
9.1767	9.6545
9.0803	9.7457
8.9858	9.6782
8.8934	9.5672
8.8028	9.5009
8.714	9.6502
8.627	9.3266
8.5417	9.3051
8.4581	9.338
8.3761	9.3894
8.2957	9.4011
8.2169	9.3293
8.1395	9.2805
8.0635	9.1783
7.989	9.0222
7.9158	9.0176
7.8439	9.0831
7.7734	8.8892
7.7041	8.9977
7.636	8.9318
7.5691	8.8377
7.5034	8.806
7.4388	8.8656
7.3753	8.8019
7.3129	8.8433
7.2515	8.7905
7.1912	8.8357
7.1318	8.7941
7.0734	8.7763
7.016	8.7948
6.9595	8.8403
6.9039	8.7997
6.8492	8.7883
6.7953	8.7223
6.7423	8.6343
6.6901	8.6927
6.6387	8.8693
6.5881	8.6825
6.5382	8.7063
6.4892	8.9454
6.4408	8.6474
6.3931	8.6066
6.3462	8.7239
6.2999	8.6613
6.2543	8.4402
6.2094	8.4944
6.1651	8.3699
6.1214	8.6476
6.0784	8.5271
6.0359	8.4413
5.994	8.4643
5.9527	8.3307
5.912	8.3796
5.8718	8.4988
5.8322	8.4262
5.7931	8.4106
5.7545	8.3268
5.7165	8.2574
5.6789	8.2836
5.6418	8.2161
5.6052	8.2368
5.5691	8.1919
5.5334	8.0992
5.4982	8.0268
5.4635	8.145
5.4291	8.0578
5.3952	8.143
5.3618	8.1592
5.3287	8.1209
5.2961	8.0535
5.2638	8.0946
5.2319	8.0151
5.2004	8.1468
5.1693	7.9975
5.1386	8.0296
5.1082	7.912
5.0782	7.9079
5.0485	8.0439
5.0192	8.0319
4.9902	7.9709
4.9616	8.0279
4.9332	7.8812
4.9052	7.9106
4.8776	7.9681
4.8502	7.8233
4.8231	7.8245
4.7963	7.9069
4.7699	7.8448
4.7437	7.8505
4.7178	7.8756
4.6922	7.923
4.6668	7.8453
4.6418	7.7776
4.617	7.8257
4.5924	7.8435
4.5681	7.8148
4.5441	7.7994
4.5203	7.77
4.4968	7.7899
4.4735	7.7111
4.4505	7.7773
4.4277	7.6818
4.4051	7.6515
4.3828	7.6941
4.3607	7.675
4.3388	7.6389
4.3171	7.772
4.2956	7.632
4.2744	7.6708
4.2534	7.662
4.2325	7.5576
4.2119	7.6407
4.1915	7.6372
4.1712	7.5077
4.1512	7.5692
4.1313	7.5881
4.1117	7.5832
4.0922	7.4449
4.0729	7.5647
4.0538	7.6059
4.0349	7.5101
4.0161	7.5291
3.9976	7.5899
3.9792	7.4708
3.9609	7.5011
3.9428	7.5612
3.9249	7.3808
3.9072	7.4278
3.8896	7.4905
3.8722	7.3998
3.8549	7.3068
3.8378	7.3841
3.8208	7.4519
3.804	7.4507
3.7873	7.3191
3.7708	7.4279
3.7544	7.3535
3.7382	7.3842
3.7221	7.2753
3.7061	7.3632
3.6903	7.3941
3.6746	7.3082
3.659	7.3274
3.6436	7.2414
3.6283	7.3797
3.6131	7.1286
3.5981	7.2382
3.5832	7.2912
3.5684	7.2789
3.5537	7.2348
3.5391	7.3056
3.5247	7.1742
3.5104	7.1409
3.4962	7.2433
3.4821	7.2678
3.4681	7.2772
3.4543	7.2778
3.4405	7.261
3.4269	7.209
3.4133	7.1733
3.3999	7.3675
3.3866	7.079
3.3733	7.1786
3.3602	7.1599
3.3472	7.2278
3.3343	7.1816
3.3215	7.13
3.3088	7.053
3.2961	7.1899
3.2836	7.076
3.2712	7.1485
3.2588	7.0206
3.2466	7.1128
3.2345	7.007
3.2224	7.1236
3.2104	6.9939
3.1985	7.1549
3.1867	7.1217
3.175	7.1669
3.1634	7.1369
3.1519	7.006
3.1404	7.023
3.129	7.1412
3.1178	7.1045
3.1065	7.0963
3.0954	7.1314
3.0844	6.867
3.0734	6.9608
3.0625	6.9057
3.0517	7.062
3.041	6.9029
3.0303	6.8844
3.0197	6.9059
3.0092	6.9013
2.9987	7.0095
2.9884	7.1384
2.9781	7.0194
2.9678	6.9205
2.9577	6.9536
2.9476	6.9549
2.9376	6.9179
2.9276	6.8897
2.9177	6.7332
2.9079	6.8793
2.8982	6.9327
2.8885	6.8374
2.8789	6.9484
2.8693	6.7039
2.8598	6.9114
2.8504	6.869
2.841	6.8621
2.8317	6.9448
2.8224	6.8314
2.8133	6.7486
2.8041	6.827
2.7951	6.687
2.786	6.8242
2.7771	6.743
2.7682	6.739
2.7594	6.6522
2.7506	6.3988
2.7418	6.5713
2.7332	6.7773
2.7246	6.6773
2.716	6.616
2.7075	6.5418
2.699	6.616
2.6906	6.6678
2.6823	6.6513
2.674	6.6777
2.6657	6.6303
2.6575	6.6327
2.6494	6.5609
2.6413	6.6104
2.6332	6.6699
2.6252	6.6502
2.6173	6.7583
2.6094	6.6676
2.6015	6.5708
2.5937	6.7923
2.5859	6.6791
2.5782	6.4829
2.5706	6.5159
2.5629	6.7035
2.5554	6.545
2.5478	6.4634
2.5403	6.5233
2.5329	6.3781
2.5255	6.4935
2.5181	6.3735
2.5108	6.5395
2.5035	6.2904
2.4963	6.5278
2.4891	6.4562
2.482	6.5594
2.4749	6.5095
2.4678	6.5919
2.4608	6.4654
2.4538	6.646
2.4468	6.5292
2.4399	6.436
2.4331	6.4993
2.4262	6.4189
2.4194	6.454
2.4127	6.5087
2.4059	6.2317
2.3993	6.4239
2.3926	6.3784
2.386	6.3818
2.3795	6.4316
2.3729	6.3497
2.3664	6.4457
2.36	6.2115
2.3535	6.6277
2.3471	6.2447
2.3408	6.3826
2.3345	6.2602
2.3282	6.3677
2.3219	6.5069
2.3157	6.3822
2.3095	6.5832
2.3034	6.3987
2.2972	6.4543
2.2911	6.3067
2.2851	6.3757
2.279	6.2474
2.2731	6.1901
2.2671	6.3141
2.2612	6.2743
2.2553	6.4613
2.2494	6.2826
2.2435	6.21
2.2377	6.4919
2.232	6.0648
2.2262	6.4524
2.2205	6.3742
2.2148	6.2627
2.2091	6.4492
2.2035	6.3839
2.1979	6.1733
2.1923	6.3025
2.1868	6.3193
2.1812	6.2401
2.1758	6.2421
2.1703	6.3341
2.1649	6.1871
2.1595	6.454
2.1541	6.3766
2.1487	6.3605
2.1434	6.2385
2.1381	6.293
2.1328	6.1954
2.1275	6.2931
2.1223	6.3561
2.1171	6.1651
2.112	5.9419
2.1068	6.0116
2.1017	5.7287
2.0966	6.1888
2.0915	6.1745
2.0865	6.3518
2.0814	5.8865
2.0764	6.1862
2.0715	6.2652
2.0665	6.1009
2.0616	6.3102
2.0567	6.3891
2.0518	6.3575
2.0469	6.1339
2.0421	6.2578
2.0373	6.4012
2.0325	6.4898
2.0277	6.3074
2.0229	6.1834
2.0182	6.0089
2.0135	6.1153
2.0088	6.2034
2.0042	6.1695
