Name: Brucite Mg(OH)_2
Type: Mineral
Class: Hydroxide
Subclass: None
Particle Size: Coarse
Sample No.: OH-1A
Owner: JPL
Wavelength Range: VSWIR
Origin: USA, Nevada, Nye County, Gabbs
Description: Particle size was 125-500um.Collected by JPL Original ASTER Spectral Library name was jpl.beckman.mineral.hydroxide.none.coarse.oh01a.spectrum.txt
Measurement: Hemispherical reflectance
X Units: Wavelength (micrometers)
Y Units: Reflectance (percent)
wavelength	value
0.4	32.06
0.403	34.25
0.406	36.31
0.409	37.69
0.412	39.53
0.415	41.31
0.418	42
0.421	43.84
0.424	44.59
0.427	45.97
0.43	47.47
0.433	48.21
0.436	50.45
0.439	51.6
0.442	53.32
0.445	55.04
0.448	56.08
0.451	58.44
0.454	59.54
0.457	61.25
0.46	62.08
0.463	63.86
0.466	64.15
0.469	64.73
0.472	65.42
0.475	65.25
0.478	66.46
0.481	66.35
0.484	66.88
0.487	67.04
0.49	67.34
0.493	68.04
0.496	67.47
0.499	68.79
0.502	68.22
0.505	68.62
0.508	69.02
0.511	68.51
0.514	69.19
0.517	68.9
0.52	69.89
0.523	70.06
0.526	70.46
0.529	71.09
0.532	70.75
0.535	71.96
0.538	71.32
0.541	72.36
0.544	72.12
0.547	72.47
0.55	72.82
0.553	72.82
0.556	73.85
0.559	73.73
0.562	74.31
0.565	74.89
0.568	74.55
0.571	75.63
0.574	75.18
0.577	75.92
0.58	75.92
0.583	76.16
0.586	76.79
0.589	76.79
0.592	77.77
0.595	77.24
0.598	78
0.601	77.88
0.604	78.29
0.607	79.2
0.61	78.69
0.613	79.84
0.616	79.2
0.619	79.84
0.622	79.67
0.625	79.84
0.628	80.19
0.631	80.19
0.634	80.87
0.637	80.24
0.64	80.58
0.643	80.87
0.646	80.7
0.649	81.57
0.652	80.87
0.655	81.85
0.658	81.39
0.661	81.45
0.664	81.85
0.667	81.62
0.67	82.48
0.673	81.74
0.676	82.25
0.679	82.02
0.682	82.25
0.685	82.42
0.688	82.37
0.691	83
0.694	82.13
0.697	83.12
0.7	82.37
0.703	82.65
0.706	82.02
0.709	82.94
0.712	82.13
0.715	82.42
0.718	82.37
0.721	81.68
0.724	81.68
0.727	80.01
0.73	79.43
0.733	78
0.736	80.19
0.739	80.24
0.742	80.41
0.745	80.19
0.748	79.84
0.751	80.07
0.754	78.97
0.757	79.38
0.76	78.63
0.763	78.86
0.766	78
0.769	77.82
0.772	77.77
0.775	77.02
0.778	77.36
0.781	76.16
0.784	76.33
0.787	75.98
0.79	75.46
0.793	75.69
0.796	74.66
0.799	75.07
0.808	74.31
0.82	72.93
0.832	72.02
0.844	70.86
0.856	70.41
0.868	69.83
0.88	69.6
0.892	69.54
0.904	69.66
0.916	68.9
0.928	69.37
0.94	67.07
0.952	58.67
0.964	68.57
0.976	70.23
0.988	70.41
1	70.51
1.012	70.35
1.024	70.35
1.036	70.41
1.048	70.69
1.06	70.86
1.072	70.98
1.084	71.79
1.096	72.18
1.108	72.76
1.12	73.63
1.132	74.26
1.144	74.72
1.156	75.23
1.168	75.37
1.18	75.94
1.192	76.56
1.204	76.77
1.216	76.71
1.228	75.96
1.24	75.1
1.252	75.56
1.264	76.58
1.276	75.29
1.288	69.93
1.3	67.57
1.312	69.9
1.324	69.77
1.336	67.8
1.348	67.38
1.36	46.8
1.372	54.7
1.384	39.45
1.396	20.01
1.408	51.73
1.42	63.97
1.432	67.25
1.444	71.17
1.456	74.05
1.468	75.02
1.48	75.14
1.492	76.57
1.504	78.18
1.516	78.65
1.528	78.3
1.54	78.24
1.552	78.13
1.564	78.13
1.576	77.55
1.588	76.81
1.6	76.46
1.612	75.36
1.624	74.59
1.636	73.59
1.648	72.77
1.66	71.84
1.672	70.68
1.684	69.63
1.696	68.18
1.708	66.85
1.72	65.77
1.732	64.33
1.744	63.3
1.756	62.04
1.768	60.95
1.78	59.7
1.792	58.84
1.804	57.38
1.816	55.56
1.828	53.68
1.84	52.19
1.852	50.1
1.864	48.25
1.876	46.36
1.888	44.75
1.9	42.63
1.912	40.63
1.924	39.82
1.936	39.07
1.948	38.83
1.96	38.07
1.972	37.08
1.984	35.06
1.996	32.7
2.008	30.55
2.02	28.92
2.032	27.84
2.044	26.83
2.056	26.11
2.068	25.51
2.08	25.26
2.092	25
2.104	24.64
2.116	24.27
2.128	24.38
2.14	24.54
2.152	24.46
2.164	22.91
2.176	20.3
2.188	17.31
2.2	15.54
2.212	14.07
2.224	12.78
2.236	11.88
2.248	11.02
2.26	10.78
2.272	10.22
2.284	9.47
2.296	8.27
2.308	7.08
2.32	7.18
2.332	8.45
2.344	10.78
2.356	12.66
2.368	13.76
2.38	13.87
2.392	12.53
2.404	10.23
2.416	7.29
2.428	5
2.44	3.39
2.452	2.78
2.464	2.5
2.476	2.22
2.488	2.44
2.5	2.6
