Name: Columbite Fe^2+Nb_2O_6
Type: Mineral
Class: Oxide
Subclass: None
Particle Size: Medium
Sample No.: O-7A
Owner: JPL
Wavelength Range: VSWIR
Origin: USA, South Dakota, Pennington County, Keystone
Description: Particle size was 45-125um.Collected by Burminco Original ASTER Spectral Library name was jpl.beckman.mineral.oxide.none.medium.o07a.spectrum.txt
Measurement: Hemispherical reflectance
X Units: Wavelength (micrometers)
Y Units: Reflectance (percent)
wavelength	value
0.4	6.6
0.403	6.52
0.406	6.57
0.409	6.51
0.412	6.52
0.415	6.4
0.418	6.45
0.421	6.39
0.424	6.4
0.427	6.38
0.43	6.28
0.433	6.26
0.436	6.29
0.439	6.23
0.442	6.28
0.445	6.15
0.448	6.15
0.451	6.1
0.454	6.2
0.457	6.21
0.46	6.19
0.463	6.09
0.466	6.02
0.469	6.09
0.472	6.14
0.475	6.13
0.478	6.13
0.481	6
0.484	6.02
0.487	5.99
0.49	6.04
0.493	6.08
0.496	5.99
0.499	6.03
0.502	5.95
0.505	5.95
0.508	5.95
0.511	6
0.514	5.92
0.517	5.93
0.52	5.98
0.523	6.04
0.526	6.03
0.529	5.93
0.532	5.89
0.535	5.88
0.538	6
0.541	5.94
0.544	5.99
0.547	5.84
0.55	5.92
0.553	5.91
0.556	5.84
0.559	5.86
0.562	5.95
0.565	5.89
0.568	5.9
0.571	5.91
0.574	5.94
0.577	5.85
0.58	5.93
0.583	5.87
0.586	5.85
0.589	5.88
0.592	5.81
0.595	5.86
0.598	5.88
0.601	5.88
0.604	5.9
0.607	5.8
0.61	5.89
0.613	5.91
0.616	5.94
0.619	5.83
0.622	5.83
0.625	5.83
0.628	5.94
0.631	5.94
0.634	5.83
0.637	5.85
0.64	5.83
0.643	5.83
0.646	5.82
0.649	5.96
0.652	5.83
0.655	5.83
0.658	5.89
0.661	5.91
0.664	5.99
0.667	5.88
0.67	5.89
0.673	5.84
0.676	5.89
0.679	5.89
0.682	5.89
0.685	5.89
0.688	5.89
0.691	5.89
0.694	6
0.697	5.86
0.7	5.92
0.703	5.94
0.706	5.96
0.709	5.82
0.712	5.94
0.715	5.89
0.718	5.95
0.721	5.95
0.724	5.93
0.727	5.84
0.73	5.93
0.733	5.93
0.736	5.95
0.739	6.05
0.742	5.82
0.745	5.93
0.748	5.98
0.751	5.93
0.754	5.98
0.757	5.99
0.76	5.94
0.763	5.92
0.766	5.98
0.769	5.97
0.772	6.03
0.775	6.03
0.778	5.92
0.781	6.03
0.784	6.02
0.787	6.03
0.79	5.96
0.793	5.97
0.796	6.04
0.799	6.15
0.808	6.38
0.82	6.4
0.832	6.25
0.844	6.34
0.856	6.35
0.868	6.43
0.88	6.43
0.892	6.38
0.904	6.43
0.916	6.41
0.928	6.49
0.94	6.5
0.952	6.43
0.964	6.48
0.976	6.48
0.988	6.55
1	6.48
1.012	6.43
1.024	6.47
1.036	6.47
1.048	6.49
1.06	6.47
1.072	6.64
1.084	6.51
1.096	6.53
1.108	6.5
1.12	6.59
1.132	6.49
1.144	6.53
1.156	6.52
1.168	6.51
1.18	6.44
1.192	6.45
1.204	6.57
1.216	6.52
1.228	6.47
1.24	6.53
1.252	6.56
1.264	6.49
1.276	6.54
1.288	6.56
1.3	6.6
1.312	6.67
1.324	6.62
1.336	6.62
1.348	6.66
1.36	6.62
1.372	6.68
1.384	6.71
1.396	6.77
1.408	6.81
1.42	6.78
1.432	6.81
1.444	6.78
1.456	6.82
1.468	6.78
1.48	6.86
1.492	6.88
1.504	6.84
1.516	6.92
1.528	6.97
1.54	6.94
1.552	6.93
1.564	6.96
1.576	7.02
1.588	7.09
1.6	7.04
1.612	7.03
1.624	7.09
1.636	7.21
1.648	7.31
1.66	7.29
1.672	7.43
1.684	7.41
1.696	7.47
1.708	7.57
1.72	7.69
1.732	7.87
1.744	7.84
1.756	8.05
1.768	8.13
1.78	8.26
1.792	8.37
1.804	8.5
1.816	8.63
1.828	8.8
1.84	9.01
1.852	9.21
1.864	9.3
1.876	9.51
1.888	9.72
1.9	9.9
1.912	10.17
1.924	10.31
1.936	10.59
1.948	10.72
1.96	11
1.972	11.22
1.984	11.56
1.996	11.72
2.008	12.05
2.02	12.21
2.032	12.53
2.044	12.73
2.056	12.97
2.068	13.27
2.08	13.56
2.092	13.78
2.104	14.03
2.116	14.25
2.128	14.4
2.14	14.68
2.152	14.9
2.164	15.04
2.176	15.21
2.188	15.38
2.2	15.6
2.212	15.81
2.224	15.97
2.236	16.15
2.248	16.34
2.26	16.45
2.272	16.73
2.284	16.87
2.296	17
2.308	17.26
2.32	17.44
2.332	17.67
2.344	17.81
2.356	17.9
2.368	18.08
2.38	18.2
2.392	18.3
2.404	18.47
2.416	18.6
2.428	18.78
2.44	18.89
2.452	18.94
2.464	19.05
2.476	19.2
2.488	19.41
2.5	19.68
