Name: Actinolite Ca_2(Mg,Fe^2+)_5Si_8O_22(OH)_2
Type: Mineral
Class: Silicate
Subclass: Inosilicate
Particle Size: Fine
Sample No.: IN-4A
Owner: JPL
Wavelength Range: TIR
Origin: USA, California, San Bernadino County, Wrightwood
Description: Particle size was 0-45um.Collected by Burminco Original ASTER Spectral Library name was jpl.nicolet.mineral.silicate.inosilicate.fine.in04a.spectrum.txt
Measurement: Hemispherical reflectance
X Units: Wavelength (micrometers)
Y Units: Reflectance (percent)
wavelength	value
15.3853	2.1536
15.1161	2.1296
14.8563	2.8543
14.6052	3.6117
14.3624	3.261
14.1276	3.6569
13.9004	4.2524
13.6803	4.4012
13.4671	4.1232
13.2604	4.4478
13.06	4.2347
12.8656	3.2353
12.6769	5.0187
12.4936	7.0249
12.3155	8.2857
12.1425	8.4234
11.9742	8.3672
11.8106	7.984
11.6513	8.1264
11.4963	8.0203
11.3454	7.0748
11.1983	6.3116
11.0551	6.0379
10.9154	6.2535
10.7793	5.1031
10.6465	6.6762
10.5169	9.5406
10.3904	10.9908
10.267	12.115
10.1464	13.9536
10.0287	14.3335
9.9136	12.2595
9.8012	8.8986
9.6913	7.3318
9.5838	7.3899
9.4787	7.5762
9.3758	8.5325
9.2752	10.1315
9.1767	9.9877
9.0803	7.8441
8.9858	6.3632
8.8934	6.8823
8.8028	9.6969
8.714	11.467
8.627	10.3727
8.5417	5.7654
8.4581	3.1693
8.3761	1.8565
8.2957	1.6259
8.2169	1.7321
8.1395	1.9994
8.0635	2.7511
7.989	3.7317
7.9158	4.9054
7.8439	6.0249
7.7734	6.9588
7.7041	8.1378
7.636	9.3752
7.5691	10.4219
7.5034	10.9714
7.4388	11.4529
7.3753	12.0743
7.3129	13.3331
7.2515	14.6668
7.1912	15.9645
7.1318	17.1388
7.0734	18.1813
7.016	19.1635
6.9595	20.5496
6.9039	21.2991
6.8492	22.0524
6.7953	23.2522
6.7423	23.9171
6.6901	25.1007
6.6387	27.5866
6.5881	28.6307
6.5382	29.26
6.4892	29.8097
6.4408	27.7292
6.3931	25.8837
6.3462	23.9199
6.2999	20.8931
6.2543	19.3638
6.2094	18.7067
6.1651	19.6374
6.1214	20.8639
6.0784	22.7597
6.0359	24.6768
5.994	25.1948
5.9527	23.2414
5.912	22.5594
5.8718	24.3373
5.8322	25.918
5.7931	26.763
5.7545	28.2067
5.7165	29.1902
5.6789	29.0222
5.6418	29.6781
5.6052	30.0666
5.5691	30.8033
5.5334	32.6093
5.4982	32.8482
5.4635	32.2792
5.4291	33.6016
5.3952	33.9886
5.3618	33.4865
5.3287	32.9333
5.2961	34.9201
5.2638	35.4293
5.2319	37.7354
5.2004	39.4082
5.1693	37.5189
5.1386	35.6284
5.1082	36.1471
5.0782	37.2686
5.0485	38.1827
5.0192	39.7431
4.9902	41.2461
4.9616	42.6604
4.9332	44.0901
4.9052	45.5208
4.8776	46.371
4.8502	46.6701
4.8231	46.6777
4.7963	47.3978
4.7699	49.3238
4.7437	51.5729
4.7178	53.0262
4.6922	54.1634
4.6668	55.8055
4.6418	57.2349
4.617	58.9987
4.5924	60.0404
4.5681	61.2721
4.5441	62.5166
4.5203	63.242
4.4968	63.9722
4.4735	64.5941
4.4505	65.1816
4.4277	65.4761
4.4051	65.7807
4.3828	65.9809
4.3607	66.1353
4.3388	66.0681
4.3171	65.5273
4.2956	64.2867
4.2744	63.8347
4.2534	65.4265
4.2325	62.998
4.2119	65.4481
4.1915	66.876
4.1712	66.9273
4.1512	67.0253
4.1313	67.1434
4.1117	67.1399
4.0922	67.3542
4.0729	67.4707
4.0538	67.4149
4.0349	67.1929
4.0161	66.8423
3.9976	65.7678
3.9792	65.1275
3.9609	65.4696
3.9428	66.2537
3.9249	66.5466
3.9072	66.5623
3.8896	66.6098
3.8722	66.6013
3.8549	66.3777
3.8378	66.3051
3.8208	66.3479
3.804	66.442
3.7873	66.3519
3.7708	66.1049
3.7544	65.8599
3.7382	65.6373
3.7221	65.2459
3.7061	64.8856
3.6903	64.4134
3.6746	64.2395
3.659	63.9551
3.6436	63.5706
3.6283	63.2384
3.6131	62.8105
3.5981	62.4812
3.5832	62.088
3.5684	61.4641
3.5537	61.005
3.5391	60.4718
3.5247	59.5576
3.5104	58.5139
3.4962	57.7219
3.4821	57.0419
3.4681	56.7565
3.4543	56.2794
3.4405	55.4314
3.4269	54.3112
3.4133	53.2856
3.3999	52.766
3.3866	52.1932
3.3733	51.3237
3.3602	50.8521
3.3472	50.3375
3.3343	50.6737
3.3215	50.8487
3.3088	50.8501
3.2961	51.2715
3.2836	51.7767
3.2712	52.0857
3.2588	52.4816
3.2466	52.5004
3.2345	52.5554
3.2224	52.5779
3.2104	52.4065
3.1985	51.8774
3.1867	51.5997
3.175	51.0758
3.1634	51.21
3.1519	51.3732
3.1404	51.7605
3.129	51.7316
3.1178	51.845
3.1065	52.0608
3.0954	52.1687
3.0844	52.3354
3.0734	52.1535
3.0625	52.1286
3.0517	52.1586
3.041	52.1157
3.0303	51.9578
3.0197	51.6946
3.0092	51.5939
2.9987	51.2951
2.9884	50.8654
2.9781	50.5425
2.9678	50.463
2.9577	50.4551
2.9476	50.3718
2.9376	49.8078
2.9276	48.6336
2.9177	48.1018
2.9079	48.0996
2.8982	48.6205
2.8885	49.5526
2.8789	50.7311
2.8693	51.8742
2.8598	53.019
2.8504	53.8721
2.841	54.438
2.8317	54.8963
2.8224	55.1602
2.8133	55.2241
2.8041	55.99
2.7951	55.7284
2.786	54.7909
2.7771	51.6144
2.7682	46.924
2.7594	39.5668
2.7506	35.702
2.7418	28.1404
2.7332	14.9222
2.7246	15.8613
2.716	48.7752
2.7075	57.4337
2.699	58.4867
2.6906	60.9301
2.6823	67.7351
2.674	74.2301
2.6657	77.5146
2.6575	75.5549
2.6494	75.3422
2.6413	75.0094
2.6332	75.3185
2.6252	75.1047
2.6173	75.8271
2.6094	75.0563
2.6015	74.671
2.5937	75.8851
2.5859	74.5226
2.5782	74.0142
2.5706	73.5006
2.5629	74.0546
2.5554	73.1839
2.5478	73.8251
2.5403	73.5613
2.5329	73.4437
2.5255	73.2512
2.5181	72.543
2.5108	72.3658
2.5035	72.1713
2.4963	71.9021
2.4891	71.8677
2.482	71.7157
2.4749	71.3807
2.4678	71.5638
2.4608	71.4838
2.4538	71.7627
2.4468	72.1361
2.4399	72.2735
2.4331	73.0349
2.4262	73.0224
2.4194	72.036
2.4127	72.2796
2.4059	71.4277
2.3993	69.6672
2.3926	67.0005
2.386	65.7745
2.3795	68.3787
2.3729	71.3367
2.3664	72.9403
2.36	74.0327
2.3535	74.1609
2.3471	74.1817
2.3408	73.3648
2.3345	71.4612
2.3282	67.5004
2.3219	63.2455
2.3157	62.8681
2.3095	64.1946
2.3034	64.9077
2.2972	64.3197
2.2911	68.6627
2.2851	71.0166
2.279	72.4632
2.2731	74.4785
2.2671	75.9058
2.2612	77.0012
2.2553	77.164
2.2494	76.9867
2.2435	77.8326
2.2377	78.5944
2.232	79.4625
2.2262	79.8022
2.2205	79.8742
2.2148	80.2069
2.2091	80.2412
2.2035	80.2798
2.1979	80.5471
2.1923	80.4576
2.1868	80.5704
2.1812	80.6779
2.1758	80.7973
2.1703	80.9456
2.1649	80.9934
2.1595	80.727
2.1541	81.1401
2.1487	81.0341
2.1434	80.8817
2.1381	81.0415
2.1328	80.953
2.1275	80.7392
2.1223	80.9034
2.1171	80.9392
2.112	81.0705
2.1068	81.698
2.1017	82.221
2.0966	82.2542
2.0915	82.4586
2.0865	82.8067
2.0814	82.6498
2.0764	83.1065
2.0715	83.2552
2.0665	83.219
2.0616	83.2297
2.0567	83.1572
2.0518	83.6285
2.0469	83.5726
2.0421	84.0024
2.0373	83.948
2.0325	83.733
2.0277	84.1049
2.0229	84.2624
2.0182	83.949
2.0135	84.3095
2.0088	84.1806
2.0042	84.2623
