Name: Corundum Al_2O_3
Type: Mineral
Class: Oxide
Subclass: None
Particle Size: Coarse
Sample No.: O-15A
Owner: JPL
Wavelength Range: TIR
Description: Synthetic corundum.Particle size was 125-500um.Collected by JPL Original ASTER Spectral Library name was jpl.nicolet.mineral.oxide.none.coarse.o15a.spectrum.txt
Measurement: Hemispherical reflectance
X Units: Wavelength (micrometers)
Y Units: Reflectance (percent)
wavelength	value
15.3853	10.5534
15.1161	10.1403
14.8563	9.948
14.6052	9.3103
14.3624	8.5893
14.1276	8.6395
13.9004	8.1956
13.6803	8.191
13.4671	8.0555
13.2604	8.2571
13.06	8.2879
12.8656	8.4334
12.6769	8.6965
12.4936	8.7873
12.3155	8.749
12.1425	8.9212
11.9742	8.7587
11.8106	8.6364
11.6513	8.4402
11.4963	8.3922
11.3454	8.1639
11.1983	6.9813
11.0551	5.4803
10.9154	3.6975
10.7793	2.1996
10.6465	1.4122
10.5169	0.7737
10.3904	0.3513
10.267	0.3285
10.1464	0.2026
10.0287	0.1586
9.9136	0.1975
9.8012	0
9.6913	0.1711
9.5838	0
9.4787	0.0527
9.3758	0.1316
9.2752	0.014
9.1767	0.04
9.0803	0
8.9858	0.0967
8.8934	0.2443
8.8028	0.0494
8.714	0.31
8.627	0.3684
8.5417	0.27
8.4581	0.4141
8.3761	0.5962
8.2957	0.8681
8.2169	1.0403
8.1395	1.2286
8.0635	1.4263
7.989	1.6173
7.9158	1.5399
7.8439	1.7609
7.7734	1.7796
7.7041	1.9463
7.636	2.1151
7.5691	2.162
7.5034	2.2879
7.4388	2.4427
7.3753	2.7485
7.3129	2.548
7.2515	2.0232
7.1912	0.9689
7.1318	1.1812
7.0734	1.6296
7.016	2.2311
6.9595	3.2
6.9039	4.3453
6.8492	5.5065
6.7953	5.8882
6.7423	5.7481
6.6901	5.7229
6.6387	5.7611
6.5881	5.7117
6.5382	5.2934
6.4892	4.4764
6.4408	3.6794
6.3931	2.9126
6.3462	2.5334
6.2999	2.3795
6.2543	2.925
6.2094	4.0023
6.1651	5.8911
6.1214	7.6324
6.0784	9.1434
6.0359	10.4933
5.994	11.8125
5.9527	13.2753
5.912	15.0303
5.8718	16.696
5.8322	18.0981
5.7931	19.4062
5.7545	20.6287
5.7165	21.7706
5.6789	22.4406
5.6418	22.7757
5.6052	23.3599
5.5691	23.7971
5.5334	23.5992
5.4982	22.8957
5.4635	23.5274
5.4291	24.6269
5.3952	25.4867
5.3618	26.0122
5.3287	26.2347
5.2961	26.3761
5.2638	26.7673
5.2319	27.0369
5.2004	27.1002
5.1693	27.1726
5.1386	27.052
5.1082	26.7144
5.0782	26.308
5.0485	26.1537
5.0192	26.1989
4.9902	26.2905
4.9616	26.286
4.9332	26.1909
4.9052	25.9968
4.8776	25.7051
4.8502	25.4067
4.8231	25.163
4.7963	24.8181
4.7699	24.5081
4.7437	24.5504
4.7178	24.6152
4.6922	24.7054
4.6668	25.05
4.6418	25.3532
4.617	25.9941
4.5924	26.8137
4.5681	27.5012
4.5441	28.3222
4.5203	28.7367
4.4968	29.2052
4.4735	29.3238
4.4505	29.5205
4.4277	29.585
4.4051	29.608
4.3828	29.5539
4.3607	29.3967
4.3388	29.219
4.3171	29.0351
4.2956	28.8619
4.2744	28.7417
4.2534	28.7374
4.2325	28.6534
4.2119	28.5395
4.1915	28.4433
4.1712	28.1901
4.1512	27.777
4.1313	27.3288
4.1117	26.7605
4.0922	26.1588
4.0729	25.1692
4.0538	24.4978
4.0349	24.0723
4.0161	23.7205
3.9976	23.2137
3.9792	22.6678
3.9609	22.1694
3.9428	22.1481
3.9249	22.3933
3.9072	23.213
3.8896	24.118
3.8722	24.8771
3.8549	25.4664
3.8378	25.8713
3.8208	26.284
3.804	26.1891
3.7873	25.9644
3.7708	25.5415
3.7544	25.1497
3.7382	24.6868
3.7221	24.3355
3.7061	24.0453
3.6903	23.7629
3.6746	23.5875
3.659	23.1959
3.6436	22.9245
3.6283	22.3743
3.6131	22.101
3.5981	21.7083
3.5832	21.172
3.5684	20.5877
3.5537	19.8606
3.5391	19.2406
3.5247	18.6956
3.5104	17.9856
3.4962	17.544
3.4821	16.9951
3.4681	16.6095
3.4543	16.1965
3.4405	15.7646
3.4269	15.2586
3.4133	14.791
3.3999	14.4717
3.3866	14.2532
3.3733	13.8887
3.3602	13.781
3.3472	13.4563
3.3343	13.2827
3.3215	12.9632
3.3088	12.7508
3.2961	12.2906
3.2836	12.022
3.2712	11.686
3.2588	11.2366
3.2466	10.7327
3.2345	10.7066
3.2224	10.4045
3.2104	10.0553
3.1985	9.73
3.1867	9.3127
3.175	8.9355
3.1634	8.6458
3.1519	8.305
3.1404	8.0299
3.129	7.5908
3.1178	7.5567
3.1065	6.941
3.0954	6.6698
3.0844	6.3231
3.0734	5.8376
3.0625	5.504
3.0517	5.0418
3.041	4.7983
3.0303	4.5154
3.0197	4.8685
3.0092	5.1594
2.9987	5.3057
2.9884	5.5665
2.9781	5.6992
2.9678	5.798
2.9577	5.937
2.9476	6.1273
2.9376	6.3249
2.9276	6.5413
2.9177	6.6751
2.9079	6.6754
2.8982	7.001
2.8885	7.0214
2.8789	7.0289
2.8693	7.2111
2.8598	7.5595
2.8504	7.8018
2.841	8.2725
2.8317	8.6287
2.8224	9.1714
2.8133	9.612
2.8041	10.4423
2.7951	11.9978
2.786	13.3615
2.7771	14.8005
2.7682	15.878
2.7594	17.1935
2.7506	19.4307
2.7418	21.1653
2.7332	22.8383
2.7246	26.116
2.716	27.9086
2.7075	28.5097
2.699	32.4107
2.6906	40.2429
2.6823	45.7281
2.674	50.4639
2.6657	53.7345
2.6575	57.1179
2.6494	59.0598
2.6413	60.6063
2.6332	61.5135
2.6252	62.5381
2.6173	62.968
2.6094	63.8076
2.6015	64.4542
2.5937	64.5657
2.5859	65.3798
2.5782	65.9172
2.5706	66.1114
2.5629	66.3497
2.5554	66.7735
2.5478	66.9806
2.5403	67.351
2.5329	67.6239
2.5255	67.8928
2.5181	68.2493
2.5108	68.7241
2.5035	69.0302
2.4963	69.3824
2.4891	69.6733
2.482	70.0119
2.4749	70.4769
2.4678	70.5782
2.4608	70.8578
2.4538	71.1401
2.4468	71.4374
2.4399	71.8851
2.4331	71.9368
2.4262	72.4293
2.4194	72.6106
2.4127	72.8716
2.4059	73.1288
2.3993	73.4794
2.3926	73.4739
2.386	73.8495
2.3795	73.8991
2.3729	73.8771
2.3664	73.6158
2.36	73.3953
2.3535	73.3039
2.3471	73.9681
2.3408	74.602
2.3345	75.0263
2.3282	75.1962
2.3219	75.3374
2.3157	75.6942
2.3095	75.8382
2.3034	76.1614
2.2972	76.3587
2.2911	76.5799
2.2851	76.5425
2.279	76.7887
2.2731	76.7014
2.2671	76.811
2.2612	77.0693
2.2553	77.016
2.2494	77.2768
2.2435	77.3572
2.2377	77.7175
2.232	78.0439
2.2262	78.277
2.2205	78.4677
2.2148	78.6812
2.2091	79.0713
2.2035	79.2932
2.1979	79.622
2.1923	79.7947
2.1868	80.279
2.1812	80.2761
2.1758	80.2828
2.1703	80.5954
2.1649	80.7504
2.1595	80.7293
2.1541	80.7476
2.1487	80.9763
2.1434	80.9311
2.1381	81.0738
2.1328	80.9587
2.1275	81.2112
2.1223	81.0647
2.1171	81.3642
2.112	81.1209
2.1068	81.1349
2.1017	81.2074
2.0966	80.8971
2.0915	81.1195
2.0865	81.276
2.0814	80.4326
2.0764	80.7733
2.0715	80.5539
2.0665	80.5373
2.0616	80.2578
2.0567	80.3519
2.0518	80.3668
2.0469	80.0793
2.0421	80.1376
2.0373	80.119
2.0325	80.0205
2.0277	80.4043
2.0229	80.0419
2.0182	79.9965
2.0135	80.0614
2.0088	79.9171
2.0042	80.0492
