Name: Anthophyllite (Mg,Fe^2+)_7Si_8O_22(OH)_2
Type: Mineral
Class: Silicate
Subclass: Inosilicate
Particle Size: Medium
Sample No.: IN-8A
Owner: JPL
Wavelength Range: VSWIR
Origin: USA, North Carolina.
Description: Particle size was 45-125um.Collected by:  Ward's Original ASTER Spectral Library name was jpl.perkin.mineral.silicate.inosilicate.medium.in08a.spectrum.txt
Measurement: Hemispherical reflectance
X Units: Wavelength (micrometers)
Y Units: Reflectance (percent)
wavelength	value
2.5	45.7822
2.494	45.7542
2.488	45.9306
2.482	45.9563
2.476	45.4778
2.47	44.6133
2.464	44.3163
2.458	44.3737
2.452	44.8777
2.446	45.1704
2.44	45.4678
2.434	45.4285
2.428	45.5854
2.422	45.9607
2.416	46.3541
2.41	46.4342
2.404	45.6188
2.398	43.9645
2.392	42.4191
2.386	41.8085
2.38	42.4924
2.374	43.7904
2.368	45.2238
2.362	46.3742
2.356	47.0456
2.35	47.2806
2.344	47.1888
2.338	46.6058
2.332	44.945
2.326	42.1418
2.32	38.4271
2.314	35.3592
2.308	34.6476
2.302	36.6101
2.296	38.7937
2.29	39.7764
2.284	41.3319
2.278	44.2242
2.272	46.899
2.266	48.4696
2.26	49.7211
2.254	50.5198
2.248	51.0663
2.242	51.2689
2.236	51.4359
2.23	51.5851
2.224	52.2069
2.218	52.8382
2.212	53.2094
2.206	53.4484
2.2	53.6858
2.194	53.8206
2.188	53.972
2.182	54.0483
2.176	54.1134
2.17	54.3015
2.164	54.5321
2.158	54.931
2.152	54.9915
2.146	55.0224
2.14	54.9523
2.134	54.8639
2.128	54.9089
2.122	54.9938
2.116	55.0429
2.11	55.0577
2.104	55.1052
2.098	55.1308
2.092	55.2169
2.086	55.3336
2.08	55.3524
2.074	55.6063
2.068	56.1621
2.062	56.4039
2.056	56.5584
2.05	56.7889
2.044	56.8461
2.038	57.0115
2.032	57.0572
2.026	57.0606
2.02	57.0536
2.014	57.0191
2.008	57.1419
2.002	57.2461
1.996	57.2428
1.99	57.2564
1.984	57.3962
1.978	57.3684
1.972	57.5312
1.966	57.5393
1.96	57.672
1.954	57.6868
1.948	57.8308
1.942	57.9382
1.936	58.0205
1.93	58.1375
1.924	58.2991
1.918	58.3577
1.912	58.5684
1.906	58.8214
1.9	59.0961
1.894	59.2265
1.888	59.4154
1.882	59.5437
1.876	59.5797
1.87	59.7281
1.864	59.9335
1.858	59.909
1.852	59.9925
1.846	60.077
1.84	60.105
1.834	60.2019
1.828	60.3014
1.822	60.3154
1.816	60.3472
1.81	60.4205
1.804	60.4856
1.798	60.5959
1.792	60.6321
1.786	60.6294
1.78	60.6048
1.774	60.5912
1.768	60.684
1.762	60.6674
1.756	60.6786
1.75	60.8049
1.744	60.8092
1.738	60.8336
1.732	60.8956
1.726	60.9067
1.72	60.9084
1.714	61.0023
1.708	60.9233
1.702	60.9936
1.696	60.9942
1.69	60.9168
1.684	60.92
1.678	60.9232
1.672	60.9178
1.666	60.9757
1.66	60.9012
1.654	60.8925
1.648	60.9733
1.642	60.8744
1.636	60.8615
1.63	60.7955
1.624	60.8201
1.618	60.7414
1.612	60.7068
1.606	60.731
1.6	60.6026
1.594	60.551
1.588	60.4729
1.582	60.3791
1.576	60.3636
1.57	60.2246
1.564	60.21
1.558	60.01
1.552	59.9765
1.546	59.801
1.54	59.7217
1.534	59.5677
1.528	59.4517
1.522	59.3591
1.516	59.245
1.51	59.065
1.504	58.9371
1.498	58.7777
1.492	58.6387
1.486	58.4507
1.48	58.2944
1.474	58.0811
1.468	57.8866
1.462	57.7121
1.456	57.5052
1.45	57.2278
1.444	56.9613
1.438	56.7794
1.432	56.4814
1.426	56.2934
1.42	56.0538
1.414	55.7175
1.408	55.5455
1.402	54.6512
1.396	50.2558
1.39	48.3963
1.384	54.1448
1.378	54.7845
1.372	54.7365
1.366	54.4971
1.36	54.1832
1.354	54.1032
1.348	53.9211
1.342	53.7195
1.336	53.4507
1.33	53.2848
1.324	53.0532
1.318	52.9114
1.312	52.6572
1.306	52.543
1.3	52.3009
1.294	52.169
1.288	51.9934
1.282	51.7745
1.276	51.5685
1.27	51.429
1.264	51.3643
1.258	51.2472
1.252	51.1248
1.246	50.9728
1.24	50.8786
1.234	50.7572
1.228	50.622
1.222	50.4748
1.216	50.3333
1.21	50.2246
1.204	50.1184
1.198	49.9934
1.192	49.9007
1.186	49.7702
1.18	49.6538
1.174	49.4801
1.168	49.3508
1.162	49.2294
1.156	49.1546
1.15	48.8815
1.144	48.7015
1.138	48.5263
1.132	48.2723
1.126	48.0769
1.12	47.8262
1.114	47.5884
1.108	47.3219
1.102	46.9826
1.096	46.8188
1.09	46.6129
1.084	46.3646
1.078	46.2044
1.072	45.9778
1.066	45.8098
1.06	45.5811
1.054	45.5468
1.048	45.3918
1.042	45.3013
1.036	45.2158
1.03	45.1662
1.024	45.0312
1.018	44.8435
1.012	44.754
1.006	44.6069
1	44.4552
0.994	44.2592
0.988	44.022
0.982	43.89
0.976	43.6907
0.97	43.634
0.964	43.5326
0.958	43.5963
0.952	43.5489
0.946	43.6293
0.94	43.8358
0.934	44.0283
0.928	44.3501
0.922	44.579
0.916	44.8856
0.91	45.2741
0.904	45.6145
0.898	46.0505
0.892	46.4996
0.886	46.9112
0.88	47.329
0.874	47.8327
0.868	48.3873
0.862	48.8603
0.856	49.8587
0.85	50.4889
0.844	51.0006
0.838	51.5979
0.832	52.1597
0.826	52.6924
0.82	53.2768
0.814	53.7998
0.808	54.2863
0.802	54.8096
0.796	55.1962
0.79	55.5532
0.784	55.944
0.778	56.3058
0.772	56.6341
0.766	56.8945
0.76	57.1571
0.754	57.399
0.748	57.575
0.742	57.8061
0.736	57.9793
0.73	58.1225
0.724	58.2996
0.718	58.428
0.712	58.5791
0.706	58.6919
0.7	58.7929
0.694	58.8756
0.688	58.9802
0.682	59.0693
0.676	59.126
0.67	59.1532
0.664	59.1844
0.658	59.196
0.652	59.2133
0.646	59.2008
0.64	59.1722
0.634	59.216
0.628	59.2735
0.622	59.3284
0.616	59.3853
0.61	59.4425
0.604	59.4785
0.598	59.5234
0.592	59.5792
0.586	59.5639
0.58	59.5534
0.574	59.5543
0.568	59.5088
0.562	59.4524
0.556	59.3636
0.55	59.2235
0.544	59.0882
0.538	59.0339
0.532	58.9617
0.526	58.8618
0.52	58.7737
0.514	58.6709
0.508	58.3568
0.502	58.0283
0.496	57.5776
0.49	57.2681
0.484	57.0154
0.478	56.6023
0.472	55.9837
0.466	55.4583
0.46	54.9281
0.454	54.3849
0.448	53.9395
0.442	53.5121
0.436	52.8946
0.43	52.2876
0.424	51.6995
0.418	51.021
0.412	50.3468
0.406	49.6466
0.4	48.9787
