Name: Vermiculite (Mg,Fe^2+,Al)_3(Al,Si)_4O_10(OH)_2.4H_2O
Type: Mineral
Class: Silicate
Subclass: Phyllosilicate
Particle Size: Medium
Sample No.: PS-18B
Owner: JPL
Wavelength Range: TIR
Origin: USA, Montana, Lincoln County, Libby
Description: Particle size was 45-125um.Collected by Ward's Original ASTER Spectral Library name was jpl.nicolet.mineral.silicate.phyllosilicate.medium.ps18b.spectrum.txt
Measurement: Hemispherical reflectance
X Units: Wavelength (micrometers)
Y Units: Reflectance (percent)
wavelength	value
15.3853	1.044
15.1161	1.1468
14.8563	1.2894
14.6052	1.202
14.3624	1.1359
14.1276	1.1318
13.9004	1.1218
13.6803	1.1319
13.4671	1.0719
13.2604	1.2609
13.06	1.3423
12.8656	1.2638
12.6769	1.6188
12.4936	1.9046
12.3155	1.8755
12.1425	2.4341
11.9742	2.8173
11.8106	3.0635
11.6513	3.361
11.4963	3.5633
11.3454	3.6955
11.1983	3.8449
11.0551	4.0457
10.9154	4.2154
10.7793	4.3246
10.6465	4.6482
10.5169	5.0808
10.3904	5.3035
10.267	5.5918
10.1464	6.5734
10.0287	7.4486
9.9136	8.9237
9.8012	10.0083
9.6913	10.2
9.5838	9.3338
9.4787	7.8624
9.3758	6.687
9.2752	5.6389
9.1767	4.6517
9.0803	4.3212
8.9858	3.6509
8.8934	2.8581
8.8028	1.9318
8.714	1.1644
8.627	0.9754
8.5417	0.619
8.4581	0.6194
8.3761	0.7849
8.2957	0.8733
8.2169	1.1332
8.1395	1.1484
8.0635	1.3047
7.989	1.5384
7.9158	1.7919
7.8439	1.9977
7.7734	2.2682
7.7041	2.6768
7.636	2.8316
7.5691	3.2075
7.5034	3.4264
7.4388	3.8402
7.3753	4.0667
7.3129	4.3418
7.2515	4.6354
7.1912	4.973
7.1318	5.3672
7.0734	5.5525
7.016	5.9774
6.9595	6.2592
6.9039	6.4069
6.8492	6.5898
6.7953	6.6667
6.7423	6.8009
6.6901	6.6982
6.6387	6.6861
6.5881	6.7522
6.5382	6.45
6.4892	6.2875
6.4408	6.2481
6.3931	5.9752
6.3462	5.6998
6.2999	5.1938
6.2543	4.3462
6.2094	3.4983
6.1651	2.7721
6.1214	2.5062
6.0784	2.4353
6.0359	2.4024
5.994	2.6597
5.9527	3.2538
5.912	4.1326
5.8718	5.3531
5.8322	6.6418
5.7931	8.1386
5.7545	9.3922
5.7165	10.4847
5.6789	11.3349
5.6418	12.1624
5.6052	12.9133
5.5691	13.5747
5.5334	14.2891
5.4982	14.8965
5.4635	15.396
5.4291	15.9306
5.3952	16.3173
5.3618	16.7568
5.3287	17.2052
5.2961	17.442
5.2638	17.9415
5.2319	18.3562
5.2004	18.5455
5.1693	18.6256
5.1386	18.4886
5.1082	18.1743
5.0782	17.8625
5.0485	17.6538
5.0192	17.6642
4.9902	17.9503
4.9616	18.0447
4.9332	18.136
4.9052	18.2772
4.8776	18.3094
4.8502	18.5641
4.8231	18.6641
4.7963	19.1313
4.7699	19.4839
4.7437	19.9296
4.7178	20.3025
4.6922	20.7969
4.6668	21.138
4.6418	21.5042
4.617	21.8145
4.5924	22.514
4.5681	22.7283
4.5441	23.247
4.5203	23.5553
4.4968	23.8764
4.4735	24.1995
4.4505	24.4377
4.4277	24.7293
4.4051	25.1524
4.3828	25.2951
4.3607	25.7266
4.3388	26.1937
4.3171	26.6964
4.2956	27.34
4.2744	27.9007
4.2534	28.3311
4.2325	29.1204
4.2119	29.6584
4.1915	29.9417
4.1712	30.6743
4.1512	31.3404
4.1313	31.8457
4.1117	32.5208
4.0922	33.1978
4.0729	33.9148
4.0538	34.5117
4.0349	35.3104
4.0161	35.9656
3.9976	36.6695
3.9792	37.2004
3.9609	37.8594
3.9428	38.3898
3.9249	38.8903
3.9072	39.3571
3.8896	39.5578
3.8722	39.8296
3.8549	39.8597
3.8378	39.9935
3.8208	39.8791
3.804	39.7895
3.7873	39.4643
3.7708	39.1494
3.7544	38.7422
3.7382	38.4037
3.7221	37.7052
3.7061	37.1457
3.6903	36.5103
3.6746	35.7227
3.659	34.9016
3.6436	34.1547
3.6283	33.4043
3.6131	32.4484
3.5981	31.5401
3.5832	30.6107
3.5684	29.5246
3.5537	28.4166
3.5391	27.4851
3.5247	26.4028
3.5104	25.35
3.4962	24.1482
3.4821	22.9988
3.4681	22.0796
3.4543	20.942
3.4405	19.7977
3.4269	18.932
3.4133	17.8156
3.3999	16.7737
3.3866	15.9071
3.3733	15.031
3.3602	14.1785
3.3472	13.2895
3.3343	12.6242
3.3215	11.8796
3.3088	11.0469
3.2961	10.4464
3.2836	9.9029
3.2712	9.3082
3.2588	8.6296
3.2466	8.165
3.2345	7.7116
3.2224	7.3257
3.2104	6.8174
3.1985	6.4693
3.1867	6.1407
3.175	5.7185
3.1634	5.5682
3.1519	5.125
3.1404	4.9448
3.129	4.7219
3.1178	4.4438
3.1065	4.2979
3.0954	4.2823
3.0844	4.0849
3.0734	3.9915
3.0625	3.9009
3.0517	3.8088
3.041	3.735
3.0303	3.7288
3.0197	3.728
3.0092	3.6628
2.9987	3.6798
2.9884	3.4513
2.9781	3.4016
2.9678	3.3842
2.9577	3.3634
2.9476	3.4202
2.9376	3.2579
2.9276	3.3015
2.9177	3.3885
2.9079	3.295
2.8982	3.6299
2.8885	3.417
2.8789	3.3442
2.8693	3.4273
2.8598	3.7904
2.8504	3.4204
2.841	3.5836
2.8317	3.4335
2.8224	3.2853
2.8133	3.5672
2.8041	3.8003
2.7951	3.524
2.786	3.7125
2.7771	3.9763
2.7682	4.0543
2.7594	4.3771
2.7506	4.8778
2.7418	6.178
2.7332	7.0434
2.7246	7.7212
2.716	10.0785
2.7075	13.6781
2.699	14.5927
2.6906	15.0645
2.6823	20.946
2.674	28.7059
2.6657	31.0519
2.6575	32.3559
2.6494	33.5785
2.6413	34.5651
2.6332	35.2807
2.6252	36.2584
2.6173	36.8749
2.6094	37.289
2.6015	37.6596
2.5937	38.056
2.5859	38.1894
2.5782	38.4179
2.5706	38.6957
2.5629	38.7515
2.5554	38.9244
2.5478	39.1329
2.5403	39.1023
2.5329	39.3563
2.5255	39.6381
2.5181	39.8718
2.5108	40.0694
2.5035	40.4038
2.4963	40.8059
2.4891	41.3382
2.482	41.5511
2.4749	42.0408
2.4678	42.4064
2.4608	42.8755
2.4538	43.3296
2.4468	43.695
2.4399	43.7507
2.4331	44.2305
2.4262	44.8603
2.4194	44.8147
2.4127	45.0245
2.4059	45.2918
2.3993	45.3005
2.3926	45.3614
2.386	45.688
2.3795	46.1698
2.3729	47.3334
2.3664	48.2285
2.36	48.6186
2.3535	49.3447
2.3471	49.6432
2.3408	48.8938
2.3345	47.9495
2.3282	46.8487
2.3219	46.7768
2.3157	46.7448
2.3095	47.1858
2.3034	47.5645
2.2972	47.9021
2.2911	49.273
2.2851	51.8101
2.279	54.8612
2.2731	57.0687
2.2671	58.4031
2.2612	59.6535
2.2553	60.4524
2.2494	60.9758
2.2435	61.3995
2.2377	61.7784
2.232	62.0216
2.2262	62.4412
2.2205	62.5489
2.2148	62.5088
2.2091	62.6264
2.2035	62.5609
2.1979	62.5805
2.1923	62.8082
2.1868	62.634
2.1812	62.6705
2.1758	62.6853
2.1703	62.4281
2.1649	62.5366
2.1595	62.4745
2.1541	62.2796
2.1487	62.0553
2.1434	61.9961
2.1381	61.9901
2.1328	61.8125
2.1275	61.6516
2.1223	61.576
2.1171	61.2263
2.112	61.0907
2.1068	60.9857
2.1017	60.8777
2.0966	60.4854
2.0915	60.2657
2.0865	60.2671
2.0814	59.6901
2.0764	59.8709
2.0715	59.448
2.0665	59.2668
2.0616	58.76
2.0567	58.4723
2.0518	58.4656
2.0469	57.898
2.0421	57.4889
2.0373	57.3184
2.0325	56.9639
2.0277	56.4122
2.0229	55.847
2.0182	55.5338
2.0135	54.8133
2.0088	54.1718
2.0042	53.7211
