Name: Tincalconite Na_2B_4O_5(OH)_4.3H_2O
Type: Mineral
Class: Borate
Subclass: None
Particle Size: Medium
Sample No.: B-4A
Owner: JPL
Wavelength Range: VSWIR
Origin: USA, California, Kern County, Boron.
Description: Particle size was 45-125um.Collected by:  Burminco Original ASTER Spectral Library name was jpl.perkin.mineral.borate.none.medium.b04a.spectrum.txt
Measurement: Hemispherical reflectance
X Units: Wavelength (micrometers)
Y Units: Reflectance (percent)
wavelength	value
2.5	17.0858
2.494	17.5414
2.488	18.3477
2.482	18.8864
2.476	19.6331
2.47	20.2365
2.464	20.8835
2.458	21.3467
2.452	21.5874
2.446	21.817
2.44	22.0582
2.434	22.3059
2.428	22.712
2.422	23.3177
2.416	23.9478
2.41	24.6188
2.404	25.4129
2.398	26.2593
2.392	27.1075
2.386	27.9324
2.38	28.7526
2.374	29.5253
2.368	30.0994
2.362	30.4988
2.356	30.9379
2.35	31.2465
2.344	31.5193
2.338	31.6966
2.332	31.8123
2.326	31.854
2.32	31.9394
2.314	31.9153
2.308	31.9941
2.302	31.9996
2.296	31.9439
2.29	31.9331
2.284	31.9551
2.278	31.9519
2.272	31.9521
2.266	32.0392
2.26	31.9855
2.254	32.0115
2.248	32.0931
2.242	32.1442
2.236	32.3476
2.23	32.4999
2.224	32.586
2.218	32.7792
2.212	33.2471
2.206	33.491
2.2	33.6761
2.194	33.7914
2.188	33.6977
2.182	33.4912
2.176	33.1291
2.17	32.4712
2.164	31.8304
2.158	31.2667
2.152	31.1727
2.146	31.5716
2.14	32.3127
2.134	33.0031
2.128	33.3195
2.122	33.4101
2.116	33.0732
2.11	32.8313
2.104	32.6098
2.098	32.5163
2.092	32.5151
2.086	32.4976
2.08	32.5415
2.074	32.4369
2.068	32.3489
2.062	32.2116
2.056	32.0153
2.05	31.8476
2.044	31.6137
2.038	31.4713
2.032	31.3405
2.026	31.1733
2.02	30.844
2.014	30.5302
2.008	30.2825
2.002	30.0263
1.996	29.7717
1.99	29.5037
1.984	29.2601
1.978	29.0115
1.972	28.7678
1.966	28.4402
1.96	27.9003
1.954	27.3354
1.948	26.6987
1.942	25.9251
1.936	25.1978
1.93	25.0187
1.924	25.159
1.918	25.4775
1.912	26.1865
1.906	27.9113
1.9	31.4232
1.894	35.109
1.888	38.3795
1.882	40.7944
1.876	42.5067
1.87	43.8973
1.864	44.9288
1.858	45.5783
1.852	46.0894
1.846	46.4104
1.84	46.7521
1.834	46.9974
1.828	47.255
1.822	47.5066
1.816	47.7671
1.81	48.0541
1.804	48.3202
1.798	48.6779
1.792	48.9961
1.786	49.2725
1.78	49.6663
1.774	50.0276
1.768	50.4258
1.762	50.7635
1.756	51.0278
1.75	51.2797
1.744	51.4027
1.738	51.4946
1.732	51.5176
1.726	51.4324
1.72	51.4146
1.714	51.4327
1.708	51.328
1.702	51.5156
1.696	51.5508
1.69	51.771
1.684	51.9257
1.678	52.1437
1.672	52.4191
1.666	52.705
1.66	53.036
1.654	53.4387
1.648	53.7224
1.642	54.2369
1.636	54.538
1.63	54.9297
1.624	55.2216
1.618	55.5206
1.612	55.8819
1.606	56.1153
1.6	56.2849
1.594	56.4687
1.588	56.5283
1.582	56.5275
1.576	56.4022
1.57	56.2649
1.564	56.2266
1.558	56.2051
1.552	56.3104
1.546	56.6005
1.54	57.148
1.534	57.6167
1.528	58.1506
1.522	58.4792
1.516	58.6076
1.51	58.4641
1.504	57.8788
1.498	56.814
1.492	55.6918
1.486	54.7648
1.48	54.476
1.474	54.7839
1.468	55.4236
1.462	56.2573
1.456	57.5423
1.45	58.4436
1.444	59.2141
1.438	59.7831
1.432	59.2744
1.426	58.4163
1.42	60.1237
1.414	63.9727
1.408	67.6088
1.402	70.4723
1.396	72.6671
1.39	74.5625
1.384	75.9675
1.378	76.9149
1.372	77.5675
1.366	78.3189
1.36	78.878
1.354	79.7714
1.348	80.5187
1.342	81.2888
1.336	82.0635
1.33	82.6726
1.324	83.2622
1.318	83.6818
1.312	83.9372
1.306	83.9204
1.3	83.942
1.294	83.7154
1.288	83.3977
1.282	83.2455
1.276	83.4897
1.27	83.6739
1.264	83.766
1.258	83.8501
1.252	83.9057
1.246	83.9823
1.24	84.13
1.234	84.2766
1.228	84.2876
1.222	84.4171
1.216	84.5822
1.21	84.682
1.204	84.7596
1.198	84.6434
1.192	84.6935
1.186	84.7994
1.18	84.8729
1.174	84.9461
1.168	84.5076
1.162	84.4273
1.156	85.1054
1.15	86.6259
1.144	87.6263
1.138	88.2049
1.132	88.5054
1.126	88.6502
1.12	88.8547
1.114	88.9661
1.108	89.2469
1.102	89.3262
1.096	89.4929
1.09	89.5562
1.084	89.6771
1.078	89.6388
1.072	89.7488
1.066	89.6556
1.06	89.779
1.054	89.6763
1.048	89.5565
1.042	89.5068
1.036	89.4206
1.03	89.2817
1.024	89.1495
1.018	89.0675
1.012	88.9604
1.006	88.9783
1	88.8611
0.994	88.6804
0.988	88.7075
0.982	88.6088
0.976	88.523
0.97	88.6814
0.964	89.3204
0.958	89.8194
0.952	90.0915
0.946	90.2878
0.94	90.3921
0.934	90.5203
0.928	90.7476
0.922	90.7436
0.916	90.7753
0.91	90.8185
0.904	90.8693
0.898	90.8787
0.892	90.8919
0.886	90.9522
0.88	90.9813
0.874	91.0356
0.868	91.0351
0.862	90.9417
0.856	91.108
0.85	91.1795
0.844	91.1609
0.838	91.1596
0.832	91.2133
0.826	91.2687
0.82	91.2876
0.814	91.3543
0.808	91.3645
0.802	91.4105
0.796	91.226
0.79	91.2052
0.784	91.2174
0.778	91.2541
0.772	91.1742
0.766	91.1481
0.76	91.1039
0.754	91.0932
0.748	91.0837
0.742	91.1034
0.736	91.1352
0.73	91.1633
0.724	91.1355
0.718	91.121
0.712	91.1012
0.706	91.1013
0.7	91.0673
0.694	91.0677
0.688	91.0458
0.682	91.0302
0.676	90.9944
0.67	90.9715
0.664	91.0295
0.658	90.9974
0.652	90.9858
0.646	90.9486
0.64	90.9384
0.634	90.8904
0.628	90.8706
0.622	90.8337
0.616	90.8098
0.61	90.7393
0.604	90.7343
0.598	90.7356
0.592	90.7494
0.586	90.6884
0.58	90.6315
0.574	90.5768
0.568	90.497
0.562	90.4286
0.556	90.3536
0.55	90.2836
0.544	90.172
0.538	90.0616
0.532	89.9295
0.526	89.8027
0.52	89.648
0.514	89.4822
0.508	89.2728
0.502	89.1736
0.496	88.8661
0.49	88.7841
0.484	88.4832
0.478	88.2849
0.472	88.0307
0.466	87.7327
0.46	87.5183
0.454	87.2925
0.448	87.0366
0.442	86.7353
0.436	86.5057
0.43	86.3062
0.424	86.0702
0.418	85.8765
0.412	85.6504
0.406	85.4737
0.4	85.2435
