Name: Scorodite Fe^3+AsO_4.2H_2O
Type: Mineral
Class: Arsenate
Subclass: None
Particle Size: Coarse
Sample No.: A-2A
Owner: JPL
Wavelength Range: VSWIR
Origin: USA, Utah, Tooele County, Gold Hill
Description: Particle size was 125-500um.Collected by Ward's Original ASTER Spectral Library name was jpl.beckman.mineral.arsenate.none.coarse.a02.spectrum.txt
Measurement: Hemispherical reflectance
X Units: Wavelength (micrometers)
Y Units: Reflectance (percent)
wavelength	value
0.4	7.37
0.403	7.48
0.406	7.7
0.409	7.78
0.412	7.6
0.415	7.65
0.418	7.59
0.421	7.53
0.424	7.32
0.427	7.22
0.43	7.41
0.433	7.09
0.436	7.34
0.439	8.47
0.442	9.33
0.445	9.92
0.448	10.28
0.451	10.66
0.454	10.83
0.457	11.04
0.46	11.1
0.463	11.22
0.466	11.43
0.469	11.69
0.472	11.94
0.475	12.31
0.478	12.57
0.481	12.91
0.484	13.43
0.487	13.9
0.49	14.5
0.493	14.95
0.496	15.42
0.499	15.94
0.502	16.3
0.505	16.71
0.508	17.08
0.511	17.35
0.514	17.56
0.517	17.75
0.52	17.96
0.523	18.18
0.526	18.03
0.529	18.12
0.532	18.16
0.535	18.18
0.538	18.26
0.541	18.3
0.544	18.22
0.547	18.18
0.55	18.25
0.553	18.22
0.556	18.3
0.559	18.34
0.562	18.35
0.565	18.54
0.568	18.66
0.571	18.63
0.574	18.58
0.577	18.64
0.58	18.74
0.583	18.82
0.586	19.13
0.589	19.11
0.592	19.22
0.595	19.46
0.598	19.67
0.601	19.77
0.604	20.2
0.607	20.37
0.61	20.62
0.613	20.91
0.616	21.14
0.619	21.6
0.622	21.72
0.625	22.26
0.628	22.56
0.631	23
0.634	23.37
0.637	23.76
0.64	24.13
0.643	24.64
0.646	25.1
0.649	25.56
0.652	26.05
0.655	26.54
0.658	26.96
0.661	27.25
0.664	27.91
0.667	28.37
0.67	28.75
0.673	29.08
0.676	29.4
0.679	29.77
0.682	30.01
0.685	30.42
0.688	30.72
0.691	30.82
0.694	31.1
0.697	31.22
0.7	31.26
0.703	31.47
0.706	31.59
0.709	31.59
0.712	31.63
0.715	31.68
0.718	31.84
0.721	31.78
0.724	31.64
0.727	31.55
0.73	31.47
0.733	31.47
0.736	31.18
0.739	31.18
0.742	31.14
0.745	30.91
0.748	30.88
0.751	30.72
0.754	30.58
0.757	30.46
0.76	30.58
0.763	30.62
0.766	30.54
0.769	30.37
0.772	30.19
0.775	29.81
0.778	29.7
0.781	29.54
0.784	29.56
0.787	29.49
0.79	29.3
0.793	29.37
0.796	29.29
0.799	29.3
0.808	29.94
0.82	30.08
0.832	30.28
0.844	30.72
0.856	31.1
0.868	31.84
0.88	32.35
0.892	33.02
0.904	33.87
0.916	34.56
0.928	35.44
0.94	36.29
0.952	37.06
0.964	37.81
0.976	38.17
0.988	38.44
1	39.03
1.012	40.09
1.024	40.72
1.036	41.4
1.048	41.76
1.06	42.17
1.072	42.59
1.084	42.93
1.096	43.27
1.108	43.66
1.12	44.09
1.132	44.39
1.144	44.64
1.156	44.9
1.168	44.85
1.18	44.63
1.192	44.86
1.204	45.57
1.216	46.19
1.228	46.73
1.24	47.08
1.252	47.34
1.264	47.56
1.276	47.54
1.288	47.51
1.3	47.14
1.312	46.99
1.324	46.95
1.336	46.77
1.348	46.32
1.36	45.31
1.372	44.62
1.384	44.05
1.396	42.47
1.408	39.67
1.42	35.51
1.432	29.83
1.444	23.25
1.456	21.4
1.468	25.49
1.48	27.96
1.492	29.06
1.504	28.82
1.516	27.76
1.528	26.7
1.54	27.38
1.552	27.36
1.564	26.21
1.576	24.8
1.588	23.34
1.6	21.93
1.612	20.54
1.624	19.27
1.636	18.15
1.648	17.08
1.66	15.97
1.672	15.1
1.684	14.44
1.696	13.75
1.708	13.31
1.72	12.96
1.732	12.56
1.744	12.36
1.756	12.09
1.768	11.89
1.78	11.71
1.792	11.42
1.804	11.4
1.816	11.27
1.828	11.13
1.84	11.12
1.852	11.13
1.864	11.02
1.876	10.83
1.888	10.51
1.9	9.95
1.912	9.26
1.924	8.19
1.936	6.98
1.948	5.85
1.96	5.4
1.972	5.51
1.984	5.6
1.996	5.72
2.008	6.15
2.02	6.51
2.032	6.57
2.044	6.63
2.056	6.52
2.068	6.44
2.08	6.44
2.092	6.54
2.104	6.48
2.116	6.69
2.128	6.86
2.14	6.96
2.152	7.11
2.164	7.4
2.176	7.48
2.188	7.79
2.2	8.02
2.212	8.28
2.224	8.58
2.236	8.81
2.248	8.91
2.26	8.97
2.272	8.91
2.284	8.63
2.296	8.27
2.308	7.54
2.32	7.27
2.332	7.15
2.344	7.11
2.356	7.21
2.368	7.06
2.38	6.78
2.392	6.61
2.404	6.19
2.416	5.89
2.428	5.57
2.44	5.16
2.452	4.83
2.464	4.46
2.476	4.01
2.488	3.57
2.5	3.36
