Name: Nontronite Na0.33Fe2+3(Si,Al)4O10.3H2O
Type: Mineral
Class: Silicate
Subclass: Phyllosilicate
Particle Size: Coarse
Sample No.: nontron_1
Owner: JHU
Wavelength Range: TIR
Origin: Holen Hagen, Germany via the Hunt and Salisbury Collection#CMS Ng-1 (purchased from the Clay Mineral Society Repository)
Description: Brown, earthy clay. Less than 2 µm fraction is nontronite, plus a faint trace of quartz.  Larger size fraction has abundant quartz.  (Note: Quartz features do not show up in spectra of the <2 µm size fraction, either sifted or packed.)Particle size was 0-2 micrometers and Packed powder simulates coarse.(Sheet Silicates); (Smectite Group) Original ASTER Spectral Library name was jhu.nicolet.mineral.silicate.phyllosilicate.packed.nontro1.spectrum.txt
Measurement: Bidirectional reflectance
X Units: Wavelength (micrometers)
Y Units: Reflectance (percent)
wavelength	value
25.0442	16.5878
24.3388	17.4433
23.6719	18.2534
23.0407	18.8525
22.4422	18.7783
21.8741	18.728
21.334	18.0556
20.8199	17.6743
20.33	20.2617
19.8627	20.7487
19.4163	20.3701
18.9896	20.4848
18.5812	20.0881
18.19	18.7236
17.815	15.7072
17.4551	12.3855
17.1094	10.0493
16.7772	8.8198
16.4576	7.9665
16.15	7.6018
15.8537	7.6301
15.568	7.9258
15.2925	8.2439
15.0265	8.5185
14.7697	8.6452
14.5214	8.3811
14.2814	8.302
14.0492	8.458
13.8244	8.6565
13.6067	8.8252
13.3957	9.0136
13.1912	9.2156
12.9929	9.3994
12.8004	9.5471
12.6135	9.6638
12.432	9.8017
12.2557	9.9995
12.0843	9.7456
11.9176	9.9477
11.7555	9.9963
11.5977	10.1472
11.444	10.1819
11.2944	10.2507
11.1487	10.6364
11.0067	10.9958
10.8682	11.3467
10.7332	11.6799
10.6015	12.0188
10.473	12.3906
10.3476	12.7702
10.2251	13.1789
10.1056	13.6787
9.9887	14.3772
9.8746	15.2038
9.763	16.1066
9.6539	17.0197
9.5472	17.5371
9.4429	17.8076
9.3408	17.5449
9.2409	16.7841
9.1431	15.8779
9.0474	15.1418
8.9536	14.7912
8.8618	14.7111
8.7718	14.4538
8.6837	13.0544
8.5973	10.4511
8.5126	7.6855
8.4295	4.9741
8.3481	3.2507
8.2682	2.8386
8.1898	2.9448
8.1129	3.2339
8.0374	3.6218
7.9634	4.0271
7.8906	4.4309
7.8192	4.8154
7.7491	5.1819
7.6802	5.4931
7.6126	5.7224
7.5461	5.9109
7.4807	6.0837
7.4165	6.2261
7.3534	6.3576
7.2914	6.4658
7.2303	6.5674
7.1703	6.6755
7.1113	6.7629
7.0533	6.8252
6.9962	6.8965
6.94	6.9555
6.8847	7.0256
6.8302	7.0871
6.7767	7.1262
6.7239	7.2051
6.672	7.2588
6.6209	7.3037
6.5705	7.2871
6.5209	7.3108
6.4721	7.2954
6.424	7.2256
6.3766	7.1596
6.3299	7
6.2838	6.7639
6.2385	6.4809
6.1937	6.2937
6.1496	6.1843
6.1062	6.1274
6.0633	6.1567
6.0211	6.1992
5.9794	6.3074
5.9383	6.5044
5.8978	6.7866
5.8578	7.074
5.8184	7.2549
5.7794	7.5139
5.741	7.7409
5.7031	7.863
5.6657	7.9365
5.6288	7.9536
5.5924	7.9585
5.5564	7.9463
5.5209	7.9536
5.4859	7.9883
5.4513	8.0295
5.4171	8.0776
5.3833	8.1452
5.35	8.2065
5.3171	8.3061
5.2846	8.3782
5.2524	8.4475
5.2207	8.511
5.1893	8.5605
5.1584	8.6284
5.1277	8.7163
5.0975	8.8122
5.0676	8.9184
5.038	9.0383
5.0088	9.1577
4.98	9.2571
4.9514	9.3545
4.9232	9.4616
4.8953	9.5639
4.8678	9.6714
4.8405	9.771
4.8135	9.8701
4.7868	9.9504
4.7605	10.0271
4.7344	10.0786
4.7086	10.1474
4.6831	10.1811
4.6578	10.2204
4.6328	10.2649
4.6081	10.303
4.5837	10.3325
4.5595	10.3574
4.5356	10.3723
4.5119	10.3901
4.4884	10.4326
4.4652	10.4651
4.4423	10.4988
4.4196	10.5373
4.3971	10.5896
4.3748	10.6384
4.3528	10.6931
4.331	10.7451
4.3094	10.801
4.288	10.855
4.2668	10.905
4.2458	10.9763
4.2251	11.0398
4.2045	11.0993
4.1841	11.165
4.164	11.2236
4.144	11.2663
4.1242	11.3132
4.1046	11.3779
4.0852	11.4301
4.066	11.4631
4.047	11.5036
4.0281	11.5327
4.0094	11.5527
3.9909	11.5454
3.9725	11.5495
3.9544	11.5327
3.9363	11.5185
3.9185	11.4953
3.9008	11.4599
3.8833	11.4157
3.8659	11.3481
3.8487	11.2842
3.8316	11.2209
3.8147	11.1467
3.7979	11.0556
3.7813	10.9714
3.7648	10.875
3.7485	10.7939
3.7323	10.6855
3.7162	10.5757
3.7003	10.4448
3.6845	10.3139
3.6689	10.1799
3.6534	10.05
3.638	9.9218
3.6227	9.8047
3.6076	9.6877
3.5926	9.5735
3.5777	9.4392
3.563	9.3215
3.5484	9.1867
3.5338	9.0339
3.5195	8.8652
3.5052	8.6733
3.491	8.5954
3.477	8.5305
3.463	8.4018
3.4492	8.2651
3.4355	8.124
3.4219	7.948
3.4084	7.8264
3.395	7.7856
3.3817	7.6897
3.3685	7.6418
3.3554	7.5105
3.3425	7.3872
3.3296	7.2612
3.3168	7.1291
3.3041	7.0266
3.2915	6.8943
3.279	6.7922
3.2666	6.6662
3.2543	6.5764
3.2421	6.49
3.23	6.3823
3.218	6.289
3.206	6.2258
3.1942	6.1411
3.1824	6.0688
3.1707	6.0249
3.1591	5.9704
3.1476	5.9216
3.1362	5.8564
3.1249	5.8274
3.1136	5.8071
3.1024	5.7732
3.0913	5.7402
3.0803	5.7456
3.0694	5.7197
3.0585	5.7077
3.0477	5.7036
3.037	5.6963
3.0264	5.6628
3.0158	5.6411
3.0053	5.5998
2.9949	5.6108
2.9845	5.5911
2.9743	5.5564
2.9641	5.5476
2.9539	5.5361
2.9439	5.5151
2.9339	5.4895
2.9239	5.4822
2.9141	5.4678
2.9043	5.4453
2.8946	5.4429
2.8849	5.4277
2.8753	5.4072
2.8658	5.4204
2.8563	5.4123
2.8469	5.4001
2.8375	5.3413
2.8282	5.2844
2.819	5.2178
2.8098	5.133
2.8007	5.0027
2.7917	4.8789
2.7827	4.8054
2.7738	4.801
2.7649	4.7849
2.7561	4.7788
2.7473	4.7844
2.7386	4.822
2.7299	4.8967
2.7213	5.0852
2.7128	5.4143
2.7043	5.9656
2.6959	6.5535
2.6875	7.2502
2.6791	7.7854
2.6709	8.2104
2.6626	8.7302
2.6545	9.0097
2.6463	9.249
2.6382	9.4602
2.6302	9.6079
2.6222	9.7844
2.6143	9.9089
2.6064	9.9656
2.5986	10.1274
2.5908	10.197
2.583	10.2478
2.5753	10.3169
2.5677	10.3977
2.5601	10.4304
2.5525	10.4675
2.545	10.5073
2.5375	10.5735
2.5301	10.5847
2.5227	10.6123
2.5154	10.6352
2.5081	10.6592
2.5008	10.7036
2.4936	10.7654
2.4864	10.9311
2.4793	11.1181
2.4722	11.2275
2.4651	11.2619
2.4581	11.4074
2.4511	11.4824
2.4442	11.5122
2.4373	11.5688
2.4305	11.6201
2.4236	11.624
2.4169	11.582
2.4101	11.5317
2.4034	11.5058
2.3967	11.5385
2.3901	11.7368
2.3835	11.9951
2.377	12.2553
2.3704	12.4477
2.364	12.6054
2.3575	12.7505
2.3511	12.9575
2.3447	13.0866
2.3384	13.2055
2.3321	13.2143
2.3258	13.2702
2.3195	13.1967
2.3133	13.0263
2.3071	12.6653
2.301	12.1853
2.2949	11.6633
2.2888	11.3386
2.2828	11.5122
2.2767	11.9885
2.2708	12.6142
2.2648	13.1513
2.2589	13.5918
2.253	13.7285
2.2471	13.812
2.2413	13.7795
2.2355	13.792
2.2297	13.7619
2.224	13.853
2.2183	14.063
2.2126	14.219
2.207	14.3645
2.2013	14.5019
2.1957	14.5669
2.1902	14.593
2.1846	14.6733
2.1791	14.7378
2.1736	14.9211
2.1682	14.9907
2.1628	15.06
2.1574	15.1582
2.152	15.1106
2.1466	15.1311
2.1413	15.1809
2.136	15.1965
2.1308	15.1508
2.1255	15.1692
2.1203	15.2375
2.1151	15.1972
2.11	15.2483
2.1048	15.2666
2.0997	15.2473
2.0946	15.2834
2.0895	15.3618
2.0845	15.3359
2.0795	15.3322
