Name: Aphthitalite (K,Na)_3Na(SO_4)_2
Type: Mineral
Class: Sulfate
Subclass: None
Particle Size: Fine
Sample No.: SO-9A
Owner: JPL
Wavelength Range: TIR
Origin: USA, California, San Bernadino County, Searles Lake
Description: Particle size was 0-45um.Collected by Burminco Original ASTER Spectral Library name was jpl.nicolet.mineral.sulfate.none.fine.so09a.spectrum.txt
Measurement: Hemispherical reflectance
X Units: Wavelength (micrometers)
Y Units: Reflectance (percent)
wavelength	value
15.3853	15.8846
15.1161	20.8661
14.8563	22.2059
14.6052	23.3741
14.3624	27.2392
14.1276	29.2272
13.9004	30.0573
13.6803	29.8231
13.4671	31.7799
13.2604	32.8019
13.06	29.8835
12.8656	32.2619
12.6769	33.2021
12.4936	37.2193
12.3155	38.9706
12.1425	38.4113
11.9742	37.6819
11.8106	36.732
11.6513	39.1963
11.4963	36.7668
11.3454	34.1041
11.1983	36.9877
11.0551	36.5862
10.9154	34.6897
10.7793	32.2315
10.6465	30.8887
10.5169	28.1623
10.3904	24.6553
10.267	18.1249
10.1464	10.7786
10.0287	10.6508
9.9136	14.4646
9.8012	13.6642
9.6913	12.1614
9.5838	10.2689
9.4787	8.5722
9.3758	6.4641
9.2752	5.2393
9.1767	6.5356
9.0803	9.5021
8.9858	9.7368
8.8934	10.3259
8.8028	10.8202
8.714	11.3836
8.627	10.9183
8.5417	7.974
8.4581	6.6599
8.3761	6.9173
8.2957	8.2393
8.2169	10.3043
8.1395	12.6409
8.0635	11.0159
7.989	11.7689
7.9158	14.0539
7.8439	16.8822
7.7734	19.3707
7.7041	22.0722
7.636	24.5518
7.5691	26.3767
7.5034	27.6597
7.4388	27.7135
7.3753	27.1664
7.3129	26.3038
7.2515	29.2684
7.1912	30.0328
7.1318	28.7791
7.0734	26.0506
7.016	24.6265
6.9595	24.6241
6.9039	26.0276
6.8492	28.1289
6.7953	31.082
6.7423	34.5783
6.6901	39.2958
6.6387	43.9191
6.5881	42.8041
6.5382	35.1258
6.4892	33.4579
6.4408	33.9052
6.3931	29.6997
6.3462	25.2149
6.2999	21.4187
6.2543	21.2719
6.2094	20.7211
6.1651	24.4984
6.1214	28.7787
6.0784	33.2011
6.0359	39.0808
5.994	44.2203
5.9527	45.0115
5.912	45.8626
5.8718	46.9973
5.8322	48.0469
5.7931	48.9513
5.7545	50.7748
5.7165	52.0162
5.6789	50.0763
5.6418	52.4405
5.6052	53.8094
5.5691	54.2581
5.5334	54.2198
5.4982	54.9995
5.4635	56.8371
5.4291	57.8407
5.3952	58.3781
5.3618	59.1488
5.3287	59.8236
5.2961	60.346
5.2638	60.652
5.2319	60.9194
5.2004	61.1756
5.1693	61.0674
5.1386	60.9475
5.1082	60.8443
5.0782	58.9526
5.0485	53.2235
5.0192	59.4927
4.9902	59.6652
4.9616	59.0989
4.9332	57.2845
4.9052	53.5251
4.8776	46.1409
4.8502	29.859
4.8231	19.1323
4.7963	22.4926
4.7699	29.5022
4.7437	38.1866
4.7178	39.5177
4.6922	36.7883
4.6668	35.3016
4.6418	33.1187
4.617	26.4877
4.5924	24.3647
4.5681	29.8559
4.5441	37.4619
4.5203	42.9598
4.4968	43.9741
4.4735	43.6002
4.4505	43.1912
4.4277	44.7947
4.4051	46.8517
4.3828	46.826
4.3607	48.2623
4.3388	50.6968
4.3171	49.3052
4.2956	47.0916
4.2744	46.8918
4.2534	43.9745
4.2325	43.0454
4.2119	46.3877
4.1915	50.8051
4.1712	53.615
4.1512	55.1956
4.1313	56.1591
4.1117	57.0075
4.0922	59.1435
4.0729	60.0611
4.0538	59.5226
4.0349	60.3111
4.0161	60.623
3.9976	61.0074
3.9792	60.966
3.9609	61.1628
3.9428	61.8017
3.9249	62.0964
3.9072	62.7173
3.8896	62.9223
3.8722	62.8137
3.8549	62.3373
3.8378	62.4114
3.8208	62.7256
3.804	62.7591
3.7873	62.9331
3.7708	63.0576
3.7544	62.8886
3.7382	62.7014
3.7221	61.6924
3.7061	58.6074
3.6903	59.4546
3.6746	60.1283
3.659	60.1282
3.6436	60.0127
3.6283	59.7668
3.6131	58.8509
3.5981	55.6114
3.5832	53.4305
3.5684	54.3338
3.5537	55.1749
3.5391	55.6627
3.5247	55.9169
3.5104	55.7958
3.4962	55.6201
3.4821	55.4034
3.4681	54.8664
3.4543	54.4111
3.4405	53.867
3.4269	53.1303
3.4133	52.1587
3.3999	51.8232
3.3866	51.8219
3.3733	51.1079
3.3602	50.9933
3.3472	50.7894
3.3343	50.6018
3.3215	50.439
3.3088	50.2923
3.2961	50.1321
3.2836	49.8237
3.2712	49.6697
3.2588	49.7644
3.2466	50.0383
3.2345	50.0774
3.2224	50.2316
3.2104	50.0114
3.1985	49.9022
3.1867	49.6377
3.175	49.3749
3.1634	49.41
3.1519	49.3466
3.1404	49.4001
3.129	49.3465
3.1178	49.2988
3.1065	49.1448
3.0954	49.0398
3.0844	49.0823
3.0734	48.8663
3.0625	48.9912
3.0517	48.9588
3.041	49.0695
3.0303	48.983
3.0197	48.8217
3.0092	48.8452
2.9987	48.7713
2.9884	48.4289
2.9781	48.3592
2.9678	48.4445
2.9577	48.2888
2.9476	48.4463
2.9376	48.2787
2.9276	47.9315
2.9177	47.5686
2.9079	47.1926
2.8982	47.3736
2.8885	47.8129
2.8789	48.3162
2.8693	48.987
2.8598	49.614
2.8504	50.1661
2.841	51.1183
2.8317	52.2454
2.8224	53.5884
2.8133	55.2022
2.8041	56.9674
2.7951	58.3641
2.786	60.3763
2.7771	61.8365
2.7682	63.8388
2.7594	65.5933
2.7506	67.9144
2.7418	71.2868
2.7332	73.266
2.7246	76.3507
2.716	77.2649
2.7075	78.9428
2.699	80.2828
2.6906	80.9782
2.6823	81.7068
2.674	82.5063
2.6657	84.0167
2.6575	83.0125
2.6494	83.2285
2.6413	83.5897
2.6332	84.0133
2.6252	84.1953
2.6173	85.1625
2.6094	84.8253
2.6015	84.6119
2.5937	86.009
2.5859	84.7976
2.5782	84.9952
2.5706	85.0093
2.5629	85.3271
2.5554	84.6989
2.5478	84.8385
2.5403	84.6245
2.5329	84.8719
2.5255	84.8338
2.5181	84.9008
2.5108	85.067
2.5035	85.2497
2.4963	85.3
2.4891	85.5964
2.482	85.5775
2.4749	85.7203
2.4678	85.6877
2.4608	85.7654
2.4538	85.8825
2.4468	86.0177
2.4399	86.0433
2.4331	86.1566
2.4262	86.2472
2.4194	85.9518
2.4127	86.1125
2.4059	86.1338
2.3993	86.2649
2.3926	86.4904
2.386	86.6322
2.3795	86.9774
2.3729	87.0643
2.3664	87.1878
2.36	87.2877
2.3535	87.5797
2.3471	87.4562
2.3408	87.5577
2.3345	87.5083
2.3282	87.4553
2.3219	87.7251
2.3157	87.6116
2.3095	87.5872
2.3034	87.491
2.2972	87.8495
2.2911	87.9229
2.2851	87.8823
2.279	87.8743
2.2731	87.9207
2.2671	87.9119
2.2612	88.0879
2.2553	88.1604
2.2494	88.2664
2.2435	88.1047
2.2377	88.4994
2.232	88.3418
2.2262	88.3437
2.2205	88.1644
2.2148	88.3671
2.2091	88.2333
2.2035	88.3585
2.1979	88.3279
2.1923	88.3218
2.1868	88.4786
2.1812	88.3311
2.1758	88.3571
2.1703	88.2062
2.1649	88.2986
2.1595	88.4593
2.1541	88.3826
2.1487	88.2574
2.1434	88.3467
2.1381	88.3136
2.1328	88.5492
2.1275	88.4478
2.1223	88.2666
2.1171	88.2414
2.112	88.2081
2.1068	88.5179
2.1017	88.0307
2.0966	88.217
2.0915	88.1506
2.0865	88.0274
2.0814	88.0946
2.0764	88.0137
2.0715	87.8793
2.0665	88.0827
2.0616	87.8061
2.0567	88.0356
2.0518	87.7595
2.0469	87.6868
2.0421	87.8766
2.0373	87.6356
2.0325	87.5429
2.0277	87.7615
2.0229	87.7023
2.0182	88.1625
2.0135	88.1142
2.0088	88.1399
2.0042	88.2229
