Name: Clinochlore (Chlorite) (Mg,Al)_6(Si,Al)_4O_10(OH)_8
Type: Mineral
Class: Silicate
Subclass: Phyllosilicate
Particle Size: Fine
Sample No.: PS-12A
Owner: JPL
Wavelength Range: VSWIR
Origin: USA, California, El Dorado County, Flagstaff Hill
Description: Particle size was 0-45um.Collected by Clay Mineral Society Original ASTER Spectral Library name was jpl.beckman.mineral.silicate.phyllosilicate.fine.ps12a.spectrum.txt
Measurement: Hemispherical reflectance
X Units: Wavelength (micrometers)
Y Units: Reflectance (percent)
wavelength	value
0.4	15.99
0.403	16.2
0.406	16.59
0.409	16.58
0.412	17.01
0.415	17.34
0.418	17.62
0.421	18.11
0.424	18.58
0.427	18.92
0.43	19.28
0.433	19.88
0.436	20.16
0.439	20.54
0.442	20.87
0.445	21.2
0.448	21.32
0.451	21.33
0.454	21.58
0.457	21.89
0.46	21.95
0.463	22.28
0.466	22.69
0.469	22.88
0.472	23.33
0.475	23.71
0.478	24.07
0.481	24.58
0.484	24.85
0.487	25.09
0.49	25.3
0.493	25.28
0.496	25.56
0.499	26.16
0.502	26.34
0.505	26.61
0.508	27.06
0.511	27.23
0.514	27.42
0.517	27.41
0.52	27.54
0.523	27.72
0.526	27.72
0.529	27.78
0.532	27.84
0.535	27.74
0.538	27.99
0.541	27.9
0.544	27.92
0.547	28.02
0.55	27.92
0.553	27.97
0.556	28.18
0.559	27.91
0.562	27.87
0.565	27.94
0.568	27.88
0.571	27.6
0.574	27.39
0.577	27.4
0.58	27.14
0.583	26.96
0.586	26.74
0.589	26.59
0.592	26.34
0.595	26.18
0.598	26.12
0.601	25.9
0.604	25.75
0.607	25.4
0.61	25.32
0.613	25.08
0.616	24.89
0.619	24.67
0.622	24.44
0.625	24.26
0.628	24.19
0.631	23.96
0.634	23.67
0.637	23.35
0.64	23.27
0.643	23.13
0.646	22.87
0.649	22.77
0.652	22.58
0.655	22.43
0.658	22.36
0.661	22.09
0.664	21.94
0.667	21.86
0.67	21.82
0.673	21.63
0.676	21.4
0.679	21.16
0.682	21.24
0.685	21.14
0.688	21
0.691	20.84
0.694	20.75
0.697	20.75
0.7	20.79
0.703	20.64
0.706	20.52
0.709	20.63
0.712	20.65
0.715	20.65
0.718	20.59
0.721	20.67
0.724	20.64
0.727	20.71
0.73	20.69
0.733	20.69
0.736	20.8
0.739	20.91
0.742	21.09
0.745	20.99
0.748	21.11
0.751	21.3
0.754	21.24
0.757	21.54
0.76	21.52
0.763	21.66
0.766	21.99
0.769	21.84
0.772	22.15
0.775	22.2
0.778	22.34
0.781	22.67
0.784	22.8
0.787	22.93
0.79	23.03
0.793	23.19
0.796	23.25
0.799	23.33
0.808	23.48
0.82	23.42
0.832	23.21
0.844	22.82
0.856	22.57
0.868	22.4
0.88	22.2
0.892	22.23
0.904	22.29
0.916	22.41
0.928	22.58
0.94	22.89
0.952	23.3
0.964	23.78
0.976	24.16
0.988	24.51
1	24.72
1.012	24.8
1.024	24.91
1.036	25.04
1.048	25.2
1.06	25.31
1.072	25.46
1.084	25.39
1.096	25.54
1.108	25.65
1.12	25.91
1.132	26.32
1.144	26.51
1.156	26.88
1.168	27.28
1.18	27.69
1.192	28.23
1.204	28.78
1.216	29.39
1.228	30.21
1.24	30.9
1.252	31.47
1.264	32.2
1.276	32.81
1.288	33.54
1.3	34.14
1.312	34.93
1.324	35.63
1.336	36.51
1.348	37.21
1.36	37.83
1.372	38.45
1.384	38.79
1.396	38.39
1.408	39.08
1.42	40.51
1.432	41.29
1.444	41.87
1.456	42.49
1.468	43.2
1.48	43.74
1.492	44.39
1.504	44.81
1.516	45.28
1.528	45.77
1.54	46.35
1.552	47
1.564	47.53
1.576	48.04
1.588	48.71
1.6	49.31
1.612	49.92
1.624	50.41
1.636	51.05
1.648	51.78
1.66	52.35
1.672	52.67
1.684	53.26
1.696	53.9
1.708	54.44
1.72	54.75
1.732	55.17
1.744	55.65
1.756	56.15
1.768	56.39
1.78	56.72
1.792	57.21
1.804	57.61
1.816	57.94
1.828	58.27
1.84	58.53
1.852	58.56
1.864	58.63
1.876	58.67
1.888	58.93
1.9	59.32
1.912	59.62
1.924	59.85
1.936	59.94
1.948	59.88
1.96	59.97
1.972	60.03
1.984	59.96
1.996	60.15
2.008	60.65
2.02	61.53
2.032	62.34
2.044	62.99
2.056	63.44
2.068	63.88
2.08	64.13
2.092	64.5
2.104	64.79
2.116	64.93
2.128	65.04
2.14	65.07
2.152	64.86
2.164	64.71
2.176	64.56
2.188	64.17
2.2	63.62
2.212	62.87
2.224	61.26
2.236	58.46
2.248	55.91
2.26	55.62
2.272	56.3
2.284	56.08
2.296	55.06
2.308	53.73
2.32	52.9
2.332	52.03
2.344	51.85
2.356	52.91
2.368	54.77
2.38	56.44
2.392	57.33
2.404	57.87
2.416	58.22
2.428	58.32
2.44	58.1
2.452	57.54
2.464	56.72
2.476	55.94
2.488	55.57
2.5	55.37
