Name: Anglesite PbSO_4
Type: Mineral
Class: Sulfate
Subclass: None
Particle Size: Medium
Sample No.: SO-10A
Owner: JPL
Wavelength Range: TIR
Origin: USA, Arizona, Santa Cruz County, Glove Mine
Description: Particle size was 45-125um.Collected by JPL Original ASTER Spectral Library name was jpl.nicolet.mineral.sulfate.none.medium.so10a.spectrum.txt
Measurement: Hemispherical reflectance
X Units: Wavelength (micrometers)
Y Units: Reflectance (percent)
wavelength	value
15.3853	3.2581
15.1161	3.8468
14.8563	4.8682
14.6052	7.0297
14.3624	8.9476
14.1276	10.778
13.9004	11.5196
13.6803	10.7428
13.4671	11.4004
13.2604	11.8267
13.06	12.0196
12.8656	12.248
12.6769	12.5529
12.4936	12.9269
12.3155	12.878
12.1425	12.3629
11.9742	12.2959
11.8106	11.4269
11.6513	10.8993
11.4963	9.6457
11.3454	8.6323
11.1983	7.2041
11.0551	6.9119
10.9154	6.4795
10.7793	6.4706
10.6465	6.5551
10.5169	6.5143
10.3904	6.9368
10.267	6.2171
10.1464	7.1628
10.0287	7.8781
9.9136	8.8945
9.8012	10.2435
9.6913	11.9614
9.5838	13.8115
9.4787	14.9594
9.3758	15.9381
9.2752	15.3546
9.1767	14.6382
9.0803	13.7172
8.9858	12.9414
8.8934	12.1074
8.8028	10.052
8.714	7.4605
8.627	5.6995
8.5417	6.003
8.4581	6.529
8.3761	6.6471
8.2957	6.3449
8.2169	5.194
8.1395	3.3324
8.0635	2.1304
7.989	1.948
7.9158	2.234
7.8439	2.6932
7.7734	3.6183
7.7041	4.9211
7.636	6.3741
7.5691	7.8473
7.5034	9.3988
7.4388	11.0417
7.3753	13.14
7.3129	15.9012
7.2515	19.107
7.1912	21.257
7.1318	22.0395
7.0734	22.3636
7.016	22.3849
6.9595	22.2297
6.9039	20.8855
6.8492	18.47
6.7953	15.6676
6.7423	13.7838
6.6901	13.5525
6.6387	15.0539
6.5881	16.4533
6.5382	17.9696
6.4892	19.7136
6.4408	18.9649
6.3931	16.2141
6.3462	15.6654
6.2999	17.5301
6.2543	20.0405
6.2094	23.1021
6.1651	26.662
6.1214	29.1421
6.0784	30.9876
6.0359	32.2703
5.994	34.1019
5.9527	35.641
5.912	37.4421
5.8718	39.0869
5.8322	39.3168
5.7931	33.1638
5.7545	33.8649
5.7165	39.1601
5.6789	43.9052
5.6418	43.7548
5.6052	43.0339
5.5691	43.6298
5.5334	44.1846
5.4982	44.4533
5.4635	44.986
5.4291	44.4123
5.3952	42.5972
5.3618	40.3448
5.3287	38.0642
5.2961	35.3559
5.2638	33.2388
5.2319	30.5037
5.2004	24.5809
5.1693	17.9225
5.1386	18.8662
5.1082	16.8407
5.0782	13.7419
5.0485	11.8186
5.0192	9.8917
4.9902	8.7878
4.9616	8.5401
4.9332	8.8556
4.9052	9.2164
4.8776	9.902
4.8502	10.8403
4.8231	11.4095
4.7963	11.3728
4.7699	11.1412
4.7437	10.7496
4.7178	10.6651
4.6922	11.3786
4.6668	12.082
4.6418	12.8746
4.617	14.2639
4.5924	15.8624
4.5681	17.8116
4.5441	19.4398
4.5203	20.5994
4.4968	21.5989
4.4735	22.6153
4.4505	23.6076
4.4277	24.3347
4.4051	24.9428
4.3828	25.3667
4.3607	25.494
4.3388	25.4401
4.3171	25.334
4.2956	25.2117
4.2744	25.4229
4.2534	26.5049
4.2325	28.251
4.2119	30.8405
4.1915	32.7631
4.1712	33.5905
4.1512	34.31
4.1313	35.9031
4.1117	38.0263
4.0922	39.7872
4.0729	40.9625
4.0538	41.5433
4.0349	42.2768
4.0161	43.2602
3.9976	44.0206
3.9792	44.448
3.9609	45.0343
3.9428	46.2743
3.9249	48.4067
3.9072	50.5208
3.8896	51.719
3.8722	52.425
3.8549	52.6978
3.8378	52.745
3.8208	52.4599
3.804	52.0502
3.7873	51.5076
3.7708	50.8186
3.7544	49.8217
3.7382	48.9385
3.7221	48.1442
3.7061	47.0492
3.6903	45.4149
3.6746	43.5984
3.659	42.229
3.6436	41.9137
3.6283	42.1707
3.6131	42.2899
3.5981	42.0458
3.5832	41.847
3.5684	41.9665
3.5537	42.0863
3.5391	42.2623
3.5247	42.8869
3.5104	43.6349
3.4962	44.6082
3.4821	45.7106
3.4681	46.4119
3.4543	46.8939
3.4405	47.0993
3.4269	47.2837
3.4133	47.0294
3.3999	47.2663
3.3866	47.3987
3.3733	47.2401
3.3602	47.3387
3.3472	47.6237
3.3343	47.9793
3.3215	48.0126
3.3088	47.8888
3.2961	47.5128
3.2836	47.3406
3.2712	46.7976
3.2588	46.2964
3.2466	45.8587
3.2345	45.613
3.2224	45.6455
3.2104	45.5052
3.1985	45.3615
3.1867	45.2841
3.175	44.8337
3.1634	44.6103
3.1519	44.2594
3.1404	43.9214
3.129	43.5122
3.1178	43.2635
3.1065	43.0683
3.0954	42.8082
3.0844	42.486
3.0734	42.3149
3.0625	42.1024
3.0517	41.9735
3.041	41.7505
3.0303	41.5153
3.0197	41.1921
3.0092	41.1204
2.9987	40.6308
2.9884	40.5305
2.9781	40.0317
2.9678	39.9025
2.9577	39.8826
2.9476	39.6473
2.9376	39.6458
2.9276	39.6812
2.9177	39.545
2.9079	39.6359
2.8982	39.692
2.8885	40.1343
2.8789	40.5281
2.8693	40.9673
2.8598	41.2289
2.8504	41.4613
2.841	41.8481
2.8317	42.7549
2.8224	43.4467
2.8133	44.0414
2.8041	44.6942
2.7951	45.1704
2.786	45.9558
2.7771	46.5789
2.7682	47.4175
2.7594	48.0023
2.7506	48.7689
2.7418	49.9304
2.7332	50.287
2.7246	51.4329
2.716	51.386
2.7075	51.6711
2.699	51.7898
2.6906	52.026
2.6823	51.9862
2.674	51.9629
2.6657	52.3831
2.6575	51.2
2.6494	51.1041
2.6413	51.2299
2.6332	51.4604
2.6252	51.5568
2.6173	51.9887
2.6094	51.724
2.6015	51.634
2.5937	52.4501
2.5859	51.8263
2.5782	51.8218
2.5706	51.8881
2.5629	52.1547
2.5554	51.8547
2.5478	51.9826
2.5403	51.8347
2.5329	51.9689
2.5255	52.021
2.5181	51.7479
2.5108	51.7399
2.5035	51.7228
2.4963	51.3449
2.4891	51.5677
2.482	51.4901
2.4749	51.2096
2.4678	51.2518
2.4608	51.2295
2.4538	51.2285
2.4468	51.3678
2.4399	51.2791
2.4331	51.2567
2.4262	51.3898
2.4194	51.3605
2.4127	51.3615
2.4059	51.3238
2.3993	51.2783
2.3926	51.3244
2.386	51.2976
2.3795	51.4072
2.3729	51.3065
2.3664	51.3839
2.36	51.2986
2.3535	51.4304
2.3471	51.4053
2.3408	51.4218
2.3345	51.4438
2.3282	51.3377
2.3219	51.3137
2.3157	51.2444
2.3095	51.1607
2.3034	51.0786
2.2972	51.4033
2.2911	51.3115
2.2851	51.3534
2.279	51.1278
2.2731	51.1497
2.2671	51.1361
2.2612	51.1185
2.2553	51.0981
2.2494	51.2963
2.2435	51.001
2.2377	51.3243
2.232	51.2556
2.2262	50.9235
2.2205	51.2542
2.2148	51.0604
2.2091	51.1865
2.2035	51.0975
2.1979	50.9638
2.1923	51.1797
2.1868	50.9646
2.1812	51.0464
2.1758	50.9099
2.1703	51.0979
2.1649	50.7068
2.1595	50.8579
2.1541	50.9391
2.1487	50.8426
2.1434	50.8172
2.1381	51.0178
2.1328	51.2227
2.1275	50.7309
2.1223	51.0281
2.1171	51.1333
2.112	50.7324
2.1068	50.863
2.1017	50.8034
2.0966	50.7256
2.0915	50.6627
2.0865	50.7046
2.0814	50.7356
2.0764	50.4379
2.0715	50.7788
2.0665	50.7603
2.0616	50.7101
2.0567	50.741
2.0518	50.7584
2.0469	51.0418
2.0421	50.6066
2.0373	50.6848
2.0325	50.615
2.0277	50.6893
2.0229	50.7409
2.0182	50.23
2.0135	50.743
2.0088	50.7493
2.0042	50.7654
