Name: Sulphur S
Type: Mineral
Class: Element
Subclass: None
Particle Size: Fine
Sample No.: E-2A
Owner: JPL
Wavelength Range: VSWIR
Origin: None.
Description: Particle size was 0-45um.Collected by:  JPL Original ASTER Spectral Library name was jpl.perkin.mineral.element.none.fine.e02a.spectrum.txt
Measurement: Hemispherical reflectance
X Units: Wavelength (micrometers)
Y Units: Reflectance (percent)
wavelength	value
2.5	83.3237
2.494	83.3434
2.488	83.0421
2.482	83.43
2.476	83.4048
2.47	83.2231
2.464	83.5992
2.458	83.3582
2.452	83.3903
2.446	83.3685
2.44	83.644
2.434	83.7358
2.428	83.7221
2.422	83.7483
2.416	83.9469
2.41	83.9775
2.404	84.051
2.398	84.1649
2.392	84.0699
2.386	84.1906
2.38	84.2586
2.374	84.3637
2.368	84.4796
2.362	84.4835
2.356	84.5664
2.35	84.6638
2.344	84.6337
2.338	84.643
2.332	84.6342
2.326	84.6046
2.32	84.5832
2.314	84.5253
2.308	84.4293
2.302	84.5249
2.296	84.4889
2.29	84.4681
2.284	84.5133
2.278	84.4233
2.272	84.4519
2.266	84.4076
2.26	84.4367
2.254	84.4035
2.248	84.4733
2.242	84.4578
2.236	84.4856
2.23	84.4584
2.224	84.4894
2.218	84.649
2.212	84.6548
2.206	84.7492
2.2	84.9111
2.194	84.9486
2.188	85.1113
2.182	85.1537
2.176	85.2606
2.17	85.3992
2.164	85.5548
2.158	85.7543
2.152	85.8366
2.146	85.7807
2.14	85.7705
2.134	85.7928
2.128	85.5607
2.122	85.3756
2.116	85.0269
2.11	84.8178
2.104	84.5387
2.098	84.3617
2.092	84.3813
2.086	84.5166
2.08	84.5648
2.074	84.5576
2.068	84.7156
2.062	84.7597
2.056	84.799
2.05	84.8591
2.044	84.9704
2.038	85.0693
2.032	85.0825
2.026	85.0057
2.02	84.9208
2.014	85.0671
2.008	85.0136
2.002	85.0776
1.996	84.9081
1.99	84.8882
1.984	84.8071
1.978	84.7701
1.972	84.8026
1.966	84.8608
1.96	84.6695
1.954	84.7264
1.948	84.8175
1.942	84.8735
1.936	84.8274
1.93	85.002
1.924	84.8717
1.918	84.9701
1.912	85.0524
1.906	85.1595
1.9	85.1832
1.894	85.1369
1.888	85.2143
1.882	85.3906
1.876	85.4538
1.87	85.3352
1.864	85.3645
1.858	85.4079
1.852	85.4482
1.846	85.44
1.84	85.4288
1.834	85.4968
1.828	85.4234
1.822	85.461
1.816	85.4398
1.81	85.4421
1.804	85.3802
1.798	85.4707
1.792	85.5084
1.786	85.3657
1.78	85.3914
1.774	85.4425
1.768	85.4247
1.762	85.3908
1.756	85.3276
1.75	85.4332
1.744	85.4515
1.738	85.4228
1.732	85.4722
1.726	85.4261
1.72	85.514
1.714	85.4937
1.708	85.4577
1.702	85.4033
1.696	85.4564
1.69	85.437
1.684	85.3468
1.678	85.3137
1.672	85.352
1.666	85.3581
1.66	85.3
1.654	85.4018
1.648	85.3474
1.642	85.3809
1.636	85.3295
1.63	85.2502
1.624	85.2282
1.618	85.2627
1.612	85.323
1.606	85.391
1.6	85.3737
1.594	85.3372
1.588	85.2962
1.582	85.3045
1.576	85.3606
1.57	85.3085
1.564	85.2725
1.558	85.2949
1.552	85.2973
1.546	85.1939
1.54	85.2135
1.534	85.212
1.528	85.2359
1.522	85.2218
1.516	85.2135
1.51	85.1055
1.504	85.0957
1.498	85.0827
1.492	85.1544
1.486	85.1474
1.48	85.0412
1.474	85.1183
1.468	85.0658
1.462	85.0893
1.456	85.0695
1.45	85.1036
1.444	85.1067
1.438	85.04
1.432	85.046
1.426	85.0214
1.42	85.0804
1.414	85.0041
1.408	85.0078
1.402	84.978
1.396	85.0683
1.39	85.0834
1.384	85.2492
1.378	85.091
1.372	85.0539
1.366	85.1565
1.36	84.9475
1.354	84.9982
1.348	85.0553
1.342	84.995
1.336	84.9517
1.33	85.0046
1.324	84.9962
1.318	84.8981
1.312	84.9112
1.306	84.9485
1.3	84.9123
1.294	84.9384
1.288	84.862
1.282	84.9357
1.276	84.8818
1.27	84.8581
1.264	84.9166
1.258	84.8964
1.252	84.809
1.246	84.7954
1.24	84.7622
1.234	84.8254
1.228	84.8733
1.222	84.7938
1.216	84.7298
1.21	84.8445
1.204	84.7851
1.198	84.7444
1.192	84.7324
1.186	84.766
1.18	84.664
1.174	84.7124
1.168	84.7309
1.162	84.7276
1.156	84.6876
1.15	84.7569
1.144	84.8196
1.138	84.6672
1.132	84.7245
1.126	84.6451
1.12	84.6863
1.114	84.7268
1.108	84.7037
1.102	84.6424
1.096	84.6907
1.09	84.642
1.084	84.7089
1.078	84.6051
1.072	84.6879
1.066	84.6131
1.06	84.6456
1.054	84.6136
1.048	84.6438
1.042	84.6797
1.036	84.6499
1.03	84.7743
1.024	84.6382
1.018	84.5891
1.012	84.5876
1.006	84.6782
1	84.4848
0.994	84.6586
0.988	84.5954
0.982	84.6093
0.976	84.5968
0.97	84.5724
0.964	84.5685
0.958	84.6044
0.952	84.5865
0.946	84.5679
0.94	84.611
0.934	84.5474
0.928	84.53
0.922	84.578
0.916	84.4858
0.91	84.5292
0.904	84.4939
0.898	84.4631
0.892	84.5417
0.886	84.5551
0.88	84.4892
0.874	84.6486
0.868	84.5703
0.862	84.5682
0.856	84.173
0.85	84.13
0.844	84.1356
0.838	84.2433
0.832	84.1638
0.826	84.2197
0.82	84.2735
0.814	84.2269
0.808	84.293
0.802	84.2623
0.796	84.2131
0.79	84.1673
0.784	84.1947
0.778	84.2164
0.772	84.143
0.766	84.1729
0.76	84.1631
0.754	84.1437
0.748	84.1703
0.742	84.1925
0.736	84.1651
0.73	84.1502
0.724	84.1562
0.718	84.1302
0.712	84.1763
0.706	84.1587
0.7	84.1479
0.694	84.141
0.688	84.1436
0.682	84.1281
0.676	84.1256
0.67	84.1447
0.664	84.1415
0.658	84.1194
0.652	84.1261
0.646	84.143
0.64	84.1294
0.634	84.1199
0.628	84.0941
0.622	84.1026
0.616	84.0967
0.61	84.0937
0.604	84.1102
0.598	84.1107
0.592	84.1554
0.586	84.1455
0.58	84.1269
0.574	84.1221
0.568	84.117
0.562	84.127
0.556	84.0451
0.55	84.0185
0.544	84.0335
0.538	83.9853
0.532	83.9599
0.526	83.9411
0.52	83.8392
0.514	83.7031
0.508	83.4723
0.502	83.079
0.496	82.4429
0.49	81.4077
0.484	79.7484
0.478	77.5619
0.472	74.17
0.466	69.2948
0.46	62.8893
0.454	55.0437
0.448	46.1797
0.442	36.8815
0.436	28.2057
0.43	20.4724
0.424	14.3722
0.418	9.9171
0.412	6.9757
0.406	5.2133
0.4	4.2785
