Name: Brucite Mg(OH)_2
Type: Mineral
Class: Hydroxide
Subclass: None
Particle Size: Medium
Sample No.: OH-1A
Owner: JPL
Wavelength Range: TIR
Origin: USA, Nevada, Nye County, Gabbs
Description: Particle size was 45-125um.Collected by JPL Original ASTER Spectral Library name was jpl.nicolet.mineral.hydroxide.none.medium.oh01a.spectrum.txt
Measurement: Hemispherical reflectance
X Units: Wavelength (micrometers)
Y Units: Reflectance (percent)
wavelength	value
15.3853	16.6811
15.1161	16.3258
14.8563	15.1517
14.6052	14.5924
14.3624	14.3764
14.1276	13.1034
13.9004	12.4892
13.6803	11.4601
13.4671	9.402
13.2604	7.4017
13.06	5.4065
12.8656	4.0561
12.6769	2.8791
12.4936	2.3717
12.3155	1.9562
12.1425	1.3869
11.9742	1.3377
11.8106	1.1607
11.6513	0.9954
11.4963	1.1919
11.3454	1.3262
11.1983	1.4698
11.0551	1.7964
10.9154	1.8149
10.7793	1.9913
10.6465	2.0448
10.5169	2.2839
10.3904	2.4812
10.267	2.4145
10.1464	2.7432
10.0287	2.7184
9.9136	2.7108
9.8012	2.8062
9.6913	2.5778
9.5838	2.708
9.4787	2.8108
9.3758	2.8106
9.2752	3.0981
9.1767	3.3411
9.0803	3.5311
8.9858	3.8694
8.8934	4.0228
8.8028	4.0897
8.714	3.9199
8.627	3.966
8.5417	4.1353
8.4581	4.0608
8.3761	4.0988
8.2957	4.0271
8.2169	4.4519
8.1395	4.5733
8.0635	4.7803
7.989	4.9109
7.9158	4.8736
7.8439	4.9283
7.7734	4.9575
7.7041	4.869
7.636	4.9934
7.5691	5.1582
7.5034	5.093
7.4388	5.0841
7.3753	4.9647
7.3129	4.9129
7.2515	4.4225
7.1912	4.2701
7.1318	4.1209
7.0734	3.9025
7.016	3.829
6.9595	3.7415
6.9039	4.0282
6.8492	4.3807
6.7953	4.5508
6.7423	4.6504
6.6901	4.9887
6.6387	5.2431
6.5881	5.4999
6.5382	5.4129
6.4892	6.2277
6.4408	6.771
6.3931	7.6693
6.3462	8.3077
6.2999	8.6234
6.2543	9.0872
6.2094	9.2523
6.1651	9.5119
6.1214	9.8046
6.0784	10.3996
6.0359	11.4398
5.994	12.7937
5.9527	13.6413
5.912	16.0182
5.8718	17.9744
5.8322	19.7124
5.7931	21.5164
5.7545	23.2399
5.7165	24.5518
5.6789	25.6278
5.6418	26.8786
5.6052	27.5345
5.5691	28.2452
5.5334	28.782
5.4982	29.2763
5.4635	29.9869
5.4291	30.5851
5.3952	30.9956
5.3618	31.4427
5.3287	32.0089
5.2961	32.3962
5.2638	32.5867
5.2319	32.9728
5.2004	33.1878
5.1693	33.3518
5.1386	33.4359
5.1082	33.596
5.0782	33.6974
5.0485	33.9028
5.0192	34.0259
4.9902	34.2468
4.9616	34.405
4.9332	34.725
4.9052	34.8829
4.8776	35.0799
4.8502	35.4018
4.8231	35.4602
4.7963	35.6578
4.7699	35.9562
4.7437	36.2666
4.7178	36.4914
4.6922	36.8605
4.6668	36.9683
4.6418	37.2303
4.617	37.4766
4.5924	37.771
4.5681	37.955
4.5441	38.2673
4.5203	38.5414
4.4968	38.8397
4.4735	39.1309
4.4505	39.4448
4.4277	39.8278
4.4051	40.1928
4.3828	40.5521
4.3607	40.7683
4.3388	41.0233
4.3171	41.2877
4.2956	41.5026
4.2744	41.816
4.2534	41.9155
4.2325	42.1111
4.2119	42.2298
4.1915	42.3355
4.1712	42.5332
4.1512	42.5393
4.1313	42.621
4.1117	42.5839
4.0922	42.637
4.0729	42.6687
4.0538	42.605
4.0349	42.5093
4.0161	42.3201
3.9976	42.0981
3.9792	41.9034
3.9609	41.4876
3.9428	41.2793
3.9249	41.1608
3.9072	41.0357
3.8896	40.8188
3.8722	40.7107
3.8549	40.5688
3.8378	40.3816
3.8208	40.1612
3.804	39.6338
3.7873	39.2675
3.7708	38.9824
3.7544	38.6975
3.7382	38.2814
3.7221	37.6558
3.7061	36.1202
3.6903	36.5922
3.6746	36.0035
3.659	35.5708
3.6436	34.7172
3.6283	34.1067
3.6131	33.2632
3.5981	32.6416
3.5832	32.4521
3.5684	31.9621
3.5537	31.26
3.5391	30.4118
3.5247	29.5952
3.5104	28.5171
3.4962	28.0327
3.4821	27.6426
3.4681	27.2433
3.4543	26.7487
3.4405	26.2434
3.4269	25.7851
3.4133	25.1063
3.3999	24.9359
3.3866	24.5735
3.3733	23.8161
3.3602	23.4311
3.3472	22.937
3.3343	22.3499
3.3215	21.6178
3.3088	21.2524
3.2961	20.9487
3.2836	20.988
3.2712	21.0415
3.2588	20.958
3.2466	20.9788
3.2345	20.5508
3.2224	20.3415
3.2104	19.9673
3.1985	19.6497
3.1867	19.1907
3.175	18.543
3.1634	18.1105
3.1519	17.6037
3.1404	16.4377
3.129	15.0303
3.1178	13.5724
3.1065	12.6468
3.0954	11.4011
3.0844	10.473
3.0734	9.2956
3.0625	8.6646
3.0517	8.6868
3.041	9.4121
3.0303	10.5311
3.0197	11.5702
3.0092	11.5254
2.9987	12.34
2.9884	12.4717
2.9781	11.6445
2.9678	11.1912
2.9577	11.6976
2.9476	12.026
2.9376	12.264
2.9276	12.4309
2.9177	12.1558
2.9079	11.7169
2.8982	10.8656
2.8885	9.3657
2.8789	7.9344
2.8693	8.3299
2.8598	8.9569
2.8504	8.8883
2.841	8.4115
2.8317	8.2634
2.8224	7.8582
2.8133	7.0941
2.8041	7.5695
2.7951	5.8943
2.786	8.1971
2.7771	8.6184
2.7682	9.2296
2.7594	8.8771
2.7506	6.8402
2.7418	6.6303
2.7332	6.6652
2.7246	5.4718
2.716	3.8065
2.7075	3.2103
2.699	4.7053
2.6906	8.0626
2.6823	13.6791
2.674	17.0179
2.6657	17.6316
2.6575	16.323
2.6494	14.5184
2.6413	12.8723
2.6332	12.9205
2.6252	14.7547
2.6173	16.617
2.6094	18.6114
2.6015	20.5406
2.5937	23.2502
2.5859	26.6059
2.5782	27.2775
2.5706	25.8047
2.5629	23.6563
2.5554	20.3882
2.5478	17.4751
2.5403	14.794
2.5329	11.7744
2.5255	11.2923
2.5181	13.3873
2.5108	13.3472
2.5035	10.0771
2.4963	7.7195
2.4891	7.1063
2.482	5.5653
2.4749	5.984
2.4678	7.566
2.4608	8.5374
2.4538	9.7472
2.4468	11.1644
2.4399	13.2205
2.4331	15.0206
2.4262	16.8017
2.4194	23.1089
2.4127	30.8838
2.4059	36.5085
2.3993	39.3391
2.3926	40.5537
2.386	41.16
2.3795	41.4981
2.3729	41.2673
2.3664	40.9051
2.36	39.8034
2.3535	38.0945
2.3471	35.3778
2.3408	31.2426
2.3345	27.5615
2.3282	24.8544
2.3219	23.78
2.3157	24.2694
2.3095	25.5898
2.3034	27.7132
2.2972	29.8553
2.2911	32.0313
2.2851	33.5298
2.279	34.3862
2.2731	34.7154
2.2671	34.8952
2.2612	35.1563
2.2553	35.5183
2.2494	35.7093
2.2435	36.305
2.2377	37.025
2.232	38.2039
2.2262	39.149
2.2205	40.3142
2.2148	41.4211
2.2091	42.3333
2.2035	43.0593
2.1979	43.7533
2.1923	44.8623
2.1868	46.9603
2.1812	49.2131
2.1758	51.3062
2.1703	53.0663
2.1649	54.2007
2.1595	55.0289
2.1541	55.0447
2.1487	54.6237
2.1434	54.3671
2.1381	54.0993
2.1328	53.7975
2.1275	53.6598
2.1223	53.7901
2.1171	53.8795
2.112	54.1942
2.1068	54.4377
2.1017	54.7899
2.0966	54.8557
2.0915	54.9788
2.0865	55.2867
2.0814	55.2867
2.0764	55.8498
2.0715	55.1751
2.0665	55.5627
2.0616	55.2726
2.0567	55.8931
2.0518	56.377
2.0469	56.5244
2.0421	57.063
2.0373	57.6273
2.0325	58.0414
2.0277	58.1541
2.0229	58.5152
2.0182	58.7524
2.0135	59.5256
2.0088	60.3113
2.0042	61.4698
