Name: Montmorillonite (Na,Ca)0.33(Al,Mg)2Si4O10(OH)2.nH2O
Type: Mineral
Class: Silicate
Subclass: Phyllosilicate
Particle Size: Fine
Sample No.: montmor_3
Owner: JHU
Wavelength Range: TIR
Origin: Apache Co., Arizona via Roger Clark, USGS #SAZ-1 (CMS),purchased from the Clay Mineral Society Repository
Description: The sample is a light brown, earthy clay. Both bulk sample and <2 micrometers particle-size separate are pure montmorillonite.Particle size was Less than 2  Micrometers.(Sheet Silicates); (SmectiteGroup) Original ASTER Spectral Library name was jhu.nicolet.mineral.silicate.phyllosilicate.powder.montmo3.spectrum.txt
Measurement: Transmission
X Units: Wavelength (micrometers)
Y Units: Transmittance (percent)
wavelength	value
25.0442	70.9373
24.3388	63.9881
23.6719	55.0741
23.0407	49.0018
22.4422	44.3593
21.8741	39.789
21.334	38.1347
20.8199	49.0565
20.33	59.9139
19.8627	57.4022
19.4163	47.0936
18.9896	48.16
18.5812	54.1913
18.19	58.5233
17.815	62.4256
17.4551	65.1571
17.1094	66.7313
16.7772	68.5633
16.4576	70.4373
16.15	70.3514
15.8537	73.2928
15.568	79.9842
15.2925	82.6219
15.0265	84.0125
14.7697	85.2898
14.5214	86.0662
14.2814	87.0203
14.0492	88.3884
13.8244	89.6487
13.6067	90.4548
13.3957	91.2463
13.1912	91.4592
12.9929	90.9729
12.8004	89.4334
12.6135	88.9397
12.432	88.5877
12.2557	87.3538
12.0843	84.0174
11.9176	80.8147
11.7555	81.4847
11.5977	82.9783
11.444	81.8265
11.2944	79.4549
11.1487	76.5589
11.0067	71.6917
10.8682	71.3655
10.7332	73.4559
10.6015	70.4979
10.473	64.4847
10.3476	56.0975
10.2251	46.6942
10.1056	38.956
9.9887	33.6855
9.8746	30.3486
9.763	28.5024
9.6539	28.8739
9.5472	31.8808
9.4429	36.4926
9.3408	40.7543
9.2409	43.41
9.1431	45.1766
9.0474	46.8602
8.9536	49.3671
8.8618	53.4593
8.7718	57.3221
8.6837	60.6805
8.5973	63.7581
8.5126	66.6458
8.4295	69.7054
8.3481	73.1102
8.2682	75.9148
8.1898	78.2283
8.1129	80.0711
8.0374	81.5528
7.9634	82.8055
7.8906	83.8753
7.8192	84.7908
7.7491	85.6155
7.6802	86.3406
7.6126	86.9903
7.5461	87.6387
7.4807	88.2415
7.4165	88.7976
7.3534	89.3174
7.2914	89.8181
7.2303	90.2595
7.1703	90.3096
7.1113	90.6834
7.0533	91.116
6.9962	91.2754
6.94	91.5408
6.8847	91.8103
6.8302	91.9158
6.7767	92.1016
6.7239	92.5369
6.672	92.9522
6.6209	93.209
6.5705	93.4805
6.5209	93.5615
6.4721	93.6912
6.424	93.8213
6.3766	93.7376
6.3299	93.4031
6.2838	92.8203
6.2385	91.8533
6.1937	89.2793
6.1496	86.8447
6.1062	87.5567
6.0633	89.2149
6.0211	90.3547
5.9794	91.1687
5.9383	92.4336
5.8978	93.3914
5.8578	94.03
5.8184	94.4353
5.7794	94.6707
5.741	94.9773
5.7031	95.1785
5.6657	95.2986
5.6288	95.46
5.5924	95.5276
5.5564	95.5544
5.5209	95.5095
5.4859	95.5388
5.4513	95.6221
5.4171	95.7051
5.3833	95.791
5.35	95.9434
5.3171	96.1426
5.2846	96.2607
5.2524	96.3789
5.2207	96.5029
5.1893	96.5937
5.1584	96.708
5.1277	96.8193
5.0975	96.8699
5.0676	96.9744
5.038	97.0681
5.0088	97.1536
4.98	97.283
4.9514	97.4075
4.9232	97.4553
4.8953	97.5178
4.8678	97.6067
4.8405	97.6462
4.8135	97.7009
4.7868	97.7371
4.7605	97.78
4.7344	97.7888
4.7086	97.842
4.6831	97.9065
4.6578	97.9353
4.6328	97.9841
4.6081	98.0417
4.5837	98.1257
4.5595	98.1672
4.5356	98.2034
4.5119	98.2117
4.4884	98.3005
4.4652	98.3513
4.4423	98.4104
4.4196	98.5085
4.3971	98.5998
4.3748	98.6785
4.3528	98.6404
4.331	98.7161
4.3094	98.6995
4.288	98.6033
4.2668	98.7126
4.2458	98.8201
4.2251	98.8235
4.2045	98.9675
4.1841	99.0764
4.164	99.1531
4.144	99.1453
4.1242	99.1755
4.1046	99.26
4.0852	99.2859
4.066	99.28
4.047	99.3103
4.0281	99.3132
4.0094	99.363
3.9909	99.3323
3.9725	99.3967
3.9544	99.4475
3.9363	99.4807
3.9185	99.5837
3.9008	99.553
3.8833	99.5525
3.8659	99.5554
3.8487	99.6716
3.8316	99.7156
3.8147	99.7126
3.7979	99.7751
3.7813	99.7771
3.7648	99.7302
3.7485	99.7829
3.7323	99.7756
3.7162	99.7878
3.7003	99.7507
3.6845	99.7756
3.6689	99.7776
3.6534	99.8083
3.638	99.8284
3.6227	99.8318
3.6076	99.8191
3.5926	99.8166
3.5777	99.7869
3.563	99.8069
3.5484	99.7869
3.5338	99.8635
3.5195	99.9377
3.5052	100.109
3.491	99.9768
3.477	99.8967
3.463	99.8772
3.4492	99.9949
3.4355	100.08
3.4219	100.299
3.4084	100.046
3.395	99.8454
3.3817	99.6741
3.3685	99.5408
3.3554	99.322
3.3425	99.1682
3.3296	99.0061
3.3168	98.9587
3.3041	98.8708
3.2915	98.7341
3.279	98.6287
3.2666	98.4792
3.2543	98.1814
3.2421	98.0388
3.23	97.7742
3.218	97.5242
3.206	97.2498
3.1942	96.9158
3.1824	96.4734
3.1707	96.1707
3.1591	95.7214
3.1476	95.2107
3.1362	94.6902
3.1249	94.1345
3.1136	93.6912
3.1024	93.156
3.0913	92.8962
3.0803	92.572
3.0694	92.3396
3.0585	91.989
3.0477	91.4841
3.037	90.8406
3.0264	90.1502
3.0158	89.3826
3.0053	88.5642
2.9949	87.8279
2.9845	87.3631
2.9743	86.656
2.9641	85.9138
2.9539	85.5945
2.9439	85.3435
2.9339	85.2068
2.9239	85.1658
2.9141	85.1648
2.9043	85.4158
2.8946	85.6052
2.8849	85.8631
2.8753	86.1883
2.8658	86.4265
2.8563	86.7234
2.8469	87.2849
2.8375	87.782
2.8282	88.0642
2.819	88.0008
2.8098	87.6414
2.8007	87.0125
2.7917	85.6609
2.7827	83.6961
2.7738	81.6365
2.7649	80.0057
2.7561	80.2234
2.7473	82.7791
2.7386	85.825
2.7299	88.2693
2.7213	90.7156
2.7128	92.863
2.7043	94.6248
2.6959	96.2048
2.6875	97.1365
2.6791	97.6804
2.6709	97.9783
2.6626	98.1414
2.6545	98.2615
2.6463	98.3562
2.6382	98.5974
2.6302	98.6599
2.6222	98.8318
2.6143	98.8943
2.6064	99.0037
2.5986	99.0095
2.5908	99.1892
2.583	99.3474
2.5753	99.3943
2.5677	99.4431
2.5601	99.4021
2.5525	99.3806
2.545	99.5564
2.5375	99.6091
2.5301	99.4861
2.5227	99.4412
2.5154	99.6892
2.5081	99.8279
2.5008	99.8142
2.4936	99.7947
2.4864	99.8611
2.4793	100.066
2.4722	99.9997
2.4651	100.152
2.4581	100.056
2.4511	100.101
2.4442	100.163
2.4373	100.236
2.4305	100.204
2.4236	100.195
2.4169	100.019
2.4101	100.581
2.4034	100.406
2.3967	100.212
2.3901	100.282
2.3835	100.652
2.377	100.648
2.3704	100.812
2.364	100.722
2.3575	100.515
2.3511	100.616
2.3447	101.031
2.3384	100.9
2.3321	100.784
2.3258	100.866
2.3195	100.907
2.3133	101.085
2.3071	101.093
2.301	101.054
2.2949	101.228
2.2888	101.243
2.2828	101.212
2.2767	101.407
2.2708	101.452
2.2648	101.351
2.2589	101.284
2.253	101.433
2.2471	101.566
2.2413	101.449
2.2355	102.007
2.2297	101.484
2.224	101.304
2.2183	101.546
2.2126	101.757
2.207	101.741
2.2013	101.937
2.1957	101.855
2.1902	102.116
2.1846	102.031
2.1791	101.968
2.1736	102.085
2.1682	102.421
2.1628	102.484
2.1574	102.179
2.152	102.585
2.1466	102.452
2.1413	102.437
2.136	102.046
2.1308	102.57
2.1255	102.331
2.1203	102.714
2.1151	102.882
2.11	102.816
2.1048	102.671
2.0997	103.156
2.0946	102.851
2.0895	103.191
2.0845	103.202
2.0795	102.546
