Name: Atacamite Cu_2Cl(OH)_3
Type: Mineral
Class: Halide
Subclass: None
Particle Size: Medium
Sample No.: H-4A
Owner: JPL
Wavelength Range: VSWIR
Origin: Chile, Atacama, Copiapo.
Description: Particle size was 45-125um.Collected by:  Grieger's Inc. Original ASTER Spectral Library name was jpl.perkin.mineral.halide.none.medium.h04a.spectrum.txt
Measurement: Hemispherical reflectance
X Units: Wavelength (micrometers)
Y Units: Reflectance (percent)
wavelength	value
2.5	17.1035
2.494	17.1219
2.488	17.0661
2.482	16.787
2.476	16.0431
2.47	15.501
2.464	15.6306
2.458	16.7408
2.452	18.3179
2.446	19.6106
2.44	20.6246
2.434	21.2642
2.428	21.8553
2.422	22.2993
2.416	22.4495
2.41	22.3979
2.404	22.4078
2.398	22.5262
2.392	22.7985
2.386	23.2001
2.38	23.4188
2.374	23.7803
2.368	24.3029
2.362	24.9532
2.356	25.4423
2.35	25.6441
2.344	25.637
2.338	25.7296
2.332	26.2942
2.326	27.0755
2.32	27.7946
2.314	28.2645
2.308	28.5131
2.302	28.7212
2.296	28.8291
2.29	28.5126
2.284	27.9449
2.278	27.3792
2.272	27.0371
2.266	26.9307
2.26	26.797
2.254	26.8731
2.248	27.5182
2.242	29.0923
2.236	31.1809
2.23	33.039
2.224	34.2807
2.218	34.7816
2.212	34.9013
2.206	35.1239
2.2	35.7853
2.194	36.3759
2.188	36.7652
2.182	37.3038
2.176	37.164
2.17	36.3777
2.164	35.1624
2.158	34.5119
2.152	35.7383
2.146	37.8951
2.14	39.7752
2.134	40.812
2.128	41.1964
2.122	41.3503
2.116	41.1441
2.11	40.804
2.104	40.5587
2.098	40.3092
2.092	40.3154
2.086	40.2894
2.08	40.1654
2.074	39.9143
2.068	39.5433
2.062	39.2523
2.056	38.6948
2.05	38.0833
2.044	37.329
2.038	36.4832
2.032	35.4541
2.026	34.4361
2.02	33.5814
2.014	32.4872
2.008	30.8525
2.002	28.8327
1.996	26.7034
1.99	25.3379
1.984	25.1238
1.978	25.0818
1.972	24.8194
1.966	24.2003
1.96	23.6652
1.954	23.0015
1.948	22.4969
1.942	21.9989
1.936	21.6086
1.93	21.0741
1.924	20.4825
1.918	20.0531
1.912	19.5983
1.906	19.9766
1.9	22.1356
1.894	25.7383
1.888	29.991
1.882	34.2326
1.876	38.3273
1.87	42.4724
1.864	44.3826
1.858	43.9013
1.852	44.8106
1.846	47.1307
1.84	48.4116
1.834	48.9599
1.828	49.1835
1.822	49.2052
1.816	49.0985
1.81	49.0443
1.804	49.0074
1.798	48.9122
1.792	48.8169
1.786	48.7599
1.78	48.6921
1.774	48.743
1.768	48.7084
1.762	48.7339
1.756	48.7364
1.75	48.799
1.744	48.7683
1.738	48.7485
1.732	48.6273
1.726	48.5086
1.72	48.4369
1.714	48.2006
1.708	48.1216
1.702	47.8794
1.696	47.6718
1.69	47.4999
1.684	47.3329
1.678	47.0648
1.672	46.8848
1.666	46.5764
1.66	46.3162
1.654	46.0874
1.648	45.8332
1.642	45.4807
1.636	45.1601
1.63	44.7554
1.624	44.4996
1.618	44.1053
1.612	43.7552
1.606	43.2759
1.6	42.8228
1.594	42.2388
1.588	42.0135
1.582	41.8372
1.576	41.3355
1.57	40.846
1.564	39.7069
1.558	38.4831
1.552	39.0633
1.546	39.0035
1.54	38.5291
1.534	37.9718
1.528	37.3249
1.522	36.8812
1.516	36.2487
1.51	35.2438
1.504	34.932
1.498	33.9654
1.492	32.885
1.486	32.9851
1.48	32.4073
1.474	30.8843
1.468	29.2602
1.462	30.539
1.456	30.3154
1.45	30.1444
1.444	29.9563
1.438	29.4895
1.432	28.8561
1.426	27.9374
1.42	26.6327
1.414	25.0575
1.408	26.5761
1.402	28.5385
1.396	29.9087
1.39	30.7821
1.384	31.2757
1.378	31.6963
1.372	31.806
1.366	31.853
1.36	31.7322
1.354	31.5197
1.348	31.2077
1.342	30.8821
1.336	30.7519
1.33	30.4855
1.324	30.116
1.318	29.8378
1.312	29.4668
1.306	29.1786
1.3	28.8943
1.294	28.4938
1.288	28.1772
1.282	27.8267
1.276	27.4061
1.27	27.0628
1.264	26.6776
1.258	26.3721
1.252	26.0132
1.246	25.6854
1.24	25.2745
1.234	24.8972
1.228	24.5467
1.222	24.1909
1.216	23.8068
1.21	23.4447
1.204	23.0831
1.198	22.6852
1.192	22.3161
1.186	22.0098
1.18	21.6285
1.174	21.2215
1.168	20.8751
1.162	20.4916
1.156	20.1307
1.15	19.802
1.144	19.4592
1.138	19.163
1.132	18.7705
1.126	18.4157
1.12	18.0546
1.114	17.7225
1.108	17.2985
1.102	16.931
1.096	16.6046
1.09	16.2373
1.084	15.8419
1.078	15.5219
1.072	15.0646
1.066	14.7929
1.06	14.3676
1.054	14.0173
1.048	13.7065
1.042	13.2698
1.036	12.9751
1.03	12.5551
1.024	12.2243
1.018	11.821
1.012	11.4942
1.006	11.0726
1	10.7964
0.994	10.4376
0.988	10.1091
0.982	9.7886
0.976	9.3733
0.97	9.039
0.964	8.7232
0.958	8.4267
0.952	8.1932
0.946	7.904
0.94	7.6232
0.934	7.3629
0.928	7.1241
0.922	6.8945
0.916	6.6472
0.91	6.4486
0.904	6.2923
0.898	6.0977
0.892	5.9136
0.886	5.8023
0.88	5.6374
0.874	5.4348
0.868	5.3225
0.862	5.2382
0.856	5.3238
0.85	5.1848
0.844	5.07
0.838	4.9514
0.832	4.8529
0.826	4.7571
0.82	4.6555
0.814	4.5652
0.808	4.4638
0.802	4.3735
0.796	4.288
0.79	4.2004
0.784	4.1307
0.778	4.0545
0.772	3.9843
0.766	3.9226
0.76	3.8665
0.754	3.8201
0.748	3.7822
0.742	3.7492
0.736	3.7299
0.73	3.7203
0.724	3.7251
0.718	3.741
0.712	3.7725
0.706	3.8185
0.7	3.881
0.694	3.9633
0.688	4.0669
0.682	4.1957
0.676	4.3514
0.67	4.5355
0.664	4.7621
0.658	5.0262
0.652	5.336
0.646	5.6986
0.64	6.1206
0.634	6.6037
0.628	7.1597
0.622	7.797
0.616	8.5104
0.61	9.285
0.604	10.1709
0.598	11.1376
0.592	12.1734
0.586	13.2587
0.58	14.376
0.574	15.5016
0.568	16.6096
0.562	17.6235
0.556	18.6108
0.55	19.4562
0.544	20.1767
0.538	20.7361
0.532	21.1409
0.526	21.3806
0.52	21.4771
0.514	21.4339
0.508	21.2871
0.502	21.0639
0.496	20.7475
0.49	20.3651
0.484	19.9109
0.478	19.389
0.472	18.7532
0.466	18.0451
0.46	17.3401
0.454	16.7407
0.448	16.1932
0.442	15.5714
0.436	14.9144
0.43	14.2626
0.424	13.5836
0.418	12.851
0.412	12.1413
0.406	11.4297
0.4	10.6401
