Name: Dolomite CaMg(CO_3)_2
Type: Mineral
Class: Carbonate
Subclass: None
Particle Size: Fine
Sample No.: C-5C
Owner: JPL
Wavelength Range: VSWIR
Origin: USA, California, Los Angeles County, Palos Verdes.
Description: Particle size was 0-45um.Collected by:  Burminco Original ASTER Spectral Library name was jpl.perkin.mineral.carbonate.none.fine.c05c.spectrum.txt
Measurement: Hemispherical reflectance
X Units: Wavelength (micrometers)
Y Units: Reflectance (percent)
wavelength	value
2.5	67.2424
2.494	68.0704
2.488	69.3607
2.482	70.402
2.476	71.2134
2.47	71.7543
2.464	72.5183
2.458	73.0579
2.452	73.9126
2.446	75.0287
2.44	76.2081
2.434	77.4912
2.428	78.7933
2.422	79.8343
2.416	80.9136
2.41	81.7176
2.404	82.2086
2.398	82.7566
2.392	83.2167
2.386	83.6052
2.38	84.002
2.374	84.403
2.368	84.545
2.362	84.4575
2.356	83.9904
2.35	82.881
2.344	81.1373
2.338	79.2207
2.332	77.3649
2.326	76.0503
2.32	75.4359
2.314	75.4755
2.308	75.7849
2.302	76.3828
2.296	76.9994
2.29	77.5088
2.284	78.015
2.278	78.4198
2.272	78.753
2.266	79.2567
2.26	80.0389
2.254	80.9516
2.248	81.9345
2.242	82.7593
2.236	83.5866
2.23	84.0774
2.224	84.6056
2.218	85
2.212	85.4218
2.206	85.9341
2.2	86.3399
2.194	86.6728
2.188	87.1023
2.182	87.3328
2.176	87.4593
2.17	87.6234
2.164	87.8009
2.158	87.944
2.152	87.955
2.146	87.7819
2.14	87.6439
2.134	87.7203
2.128	87.5853
2.122	87.572
2.116	87.5541
2.11	87.3122
2.104	87.1767
2.098	87.0058
2.092	87.2096
2.086	87.2967
2.08	87.4731
2.074	87.5852
2.068	87.654
2.062	87.774
2.056	87.9046
2.05	87.952
2.044	88.0899
2.038	88.105
2.032	88.1496
2.026	88.0379
2.02	88.084
2.014	87.9482
2.008	87.8995
2.002	87.7484
1.996	87.4475
1.99	87.0371
1.984	86.808
1.978	86.8307
1.972	86.8966
1.966	86.8624
1.96	87.1603
1.954	87.1628
1.948	87.2154
1.942	87.1614
1.936	87.3314
1.93	87.579
1.924	87.7613
1.918	87.9998
1.912	88.2877
1.906	88.382
1.9	88.6789
1.894	88.7808
1.888	88.896
1.882	89.1011
1.876	89.0402
1.87	88.6865
1.864	88.3763
1.858	88.4763
1.852	88.6409
1.846	88.841
1.84	88.9718
1.834	89.118
1.828	89.3329
1.822	89.3775
1.816	89.4649
1.81	89.5607
1.804	89.6533
1.798	89.7456
1.792	89.7748
1.786	89.7786
1.78	89.7747
1.774	89.8133
1.768	89.8089
1.762	89.8891
1.756	89.7916
1.75	89.8184
1.744	89.7465
1.738	89.771
1.732	89.8336
1.726	89.8226
1.72	89.8997
1.714	89.8635
1.708	89.9492
1.702	89.9081
1.696	89.9171
1.69	89.9495
1.684	89.9053
1.678	90.0376
1.672	90.0327
1.666	90.1211
1.66	90.1293
1.654	90.0997
1.648	90.0783
1.642	90.1203
1.636	90.1255
1.63	90.0061
1.624	90.0871
1.618	90.2218
1.612	90.1262
1.606	90.2269
1.6	90.2531
1.594	90.2067
1.588	90.1261
1.582	90.2295
1.576	90.2419
1.57	90.207
1.564	90.1553
1.558	90.1113
1.552	90.0843
1.546	90.1339
1.54	90.1553
1.534	90.1618
1.528	90.1257
1.522	90.1722
1.516	90.068
1.51	90.059
1.504	90.0586
1.498	90.0507
1.492	90.0375
1.486	90.0643
1.48	90.0423
1.474	90.0744
1.468	90.0371
1.462	89.9434
1.456	90.0764
1.45	90.0225
1.444	90.0182
1.438	89.9975
1.432	90.0404
1.426	90.0456
1.42	90.0683
1.414	90.1357
1.408	90.0238
1.402	90.1129
1.396	90.2045
1.39	90.285
1.384	90.339
1.378	90.2718
1.372	90.2984
1.366	90.4172
1.36	90.1957
1.354	90.2526
1.348	90.3223
1.342	90.3119
1.336	90.249
1.33	90.2944
1.324	90.224
1.318	90.2274
1.312	90.213
1.306	90.2722
1.3	90.2597
1.294	90.2049
1.288	90.2709
1.282	90.2337
1.276	90.203
1.27	90.262
1.264	90.1816
1.258	90.2896
1.252	90.2507
1.246	90.2389
1.24	90.2158
1.234	90.2008
1.228	90.1939
1.222	90.1561
1.216	90.2214
1.21	90.1385
1.204	90.2314
1.198	90.1798
1.192	90.1719
1.186	90.1596
1.18	90.2031
1.174	90.2389
1.168	90.2545
1.162	90.2543
1.156	90.1882
1.15	90.2127
1.144	90.2087
1.138	90.2456
1.132	90.252
1.126	90.1593
1.12	90.1632
1.114	90.2246
1.108	90.1459
1.102	90.2739
1.096	90.2315
1.09	90.207
1.084	90.2697
1.078	90.2341
1.072	90.3019
1.066	90.2214
1.06	90.1843
1.054	90.2221
1.048	90.2987
1.042	90.2035
1.036	90.2814
1.03	90.2584
1.024	90.2262
1.018	90.2428
1.012	90.2463
1.006	90.2858
1	90.1884
0.994	90.2819
0.988	90.2596
0.982	90.2767
0.976	90.3022
0.97	90.2406
0.964	90.2957
0.958	90.2077
0.952	90.2536
0.946	90.2178
0.94	90.2615
0.934	90.2708
0.928	90.2634
0.922	90.3282
0.916	90.2572
0.91	90.2756
0.904	90.2671
0.898	90.3098
0.892	90.2567
0.886	90.2412
0.88	90.1958
0.874	90.3007
0.868	90.2177
0.862	90.1814
0.856	90.405
0.85	90.3584
0.844	90.3289
0.838	90.3312
0.832	90.4185
0.826	90.3297
0.82	90.3506
0.814	90.3461
0.808	90.3383
0.802	90.318
0.796	90.2521
0.79	90.1876
0.784	90.1759
0.778	90.1422
0.772	90.0895
0.766	90.1185
0.76	90.086
0.754	90.1035
0.748	90.0408
0.742	90.0009
0.736	89.9827
0.73	89.9744
0.724	89.9377
0.718	89.89
0.712	89.8337
0.706	89.8102
0.7	89.7879
0.694	89.7629
0.688	89.7098
0.682	89.6785
0.676	89.6451
0.67	89.591
0.664	89.5618
0.658	89.5252
0.652	89.4714
0.646	89.4302
0.64	89.3917
0.634	89.3245
0.628	89.271
0.622	89.1988
0.616	89.2013
0.61	89.1552
0.604	89.0934
0.598	89.0445
0.592	89.0325
0.586	88.9539
0.58	88.8718
0.574	88.7872
0.568	88.7048
0.562	88.5872
0.556	88.4696
0.55	88.3597
0.544	88.2517
0.538	88.1235
0.532	87.9952
0.526	87.8367
0.52	87.6613
0.514	87.4992
0.508	87.3467
0.502	87.1684
0.496	86.989
0.49	86.8142
0.484	86.6233
0.478	86.3815
0.472	86.1759
0.466	86.0161
0.46	85.7744
0.454	85.5192
0.448	85.3364
0.442	85.077
0.436	84.7884
0.43	84.503
0.424	84.1865
0.418	83.8587
0.412	83.5225
0.406	83.1607
0.4	82.7652
