Name: Ferroaxinite Ca_2Fe^2+Al_2BSi_4O_15(OH)
Type: Mineral
Class: Silicate
Subclass: Cyclosilicate
Particle Size: Coarse
Sample No.: CS-4A
Owner: JPL
Wavelength Range: VSWIR
Origin: Mexico, Baja California Norte, Los Gavelontos.
Description: Particle size was 125-500um.Collected by:  Ward's Original ASTER Spectral Library name was jpl.perkin.mineral.silicate.cyclosilicate.coarse.cs04a.spectrum.txt
Measurement: Hemispherical reflectance
X Units: Wavelength (micrometers)
Y Units: Reflectance (percent)
wavelength	value
2.5	15.5445
2.494	15.1496
2.488	15.1755
2.482	15.1185
2.476	15.0542
2.47	14.8806
2.464	14.7022
2.458	14.3725
2.452	14.0589
2.446	13.6462
2.44	13.3998
2.434	12.8888
2.428	12.5774
2.422	12.1788
2.416	11.8068
2.41	11.3712
2.404	10.9894
2.398	10.4681
2.392	9.9515
2.386	9.2561
2.38	8.4464
2.374	7.722
2.368	7.2661
2.362	7.1385
2.356	7.0998
2.35	7.0849
2.344	6.8114
2.338	6.3284
2.332	5.819
2.326	5.3264
2.32	5.0427
2.314	4.9942
2.308	5.0972
2.302	5.1773
2.296	5.2157
2.29	5.4798
2.284	5.6259
2.278	5.7482
2.272	5.8488
2.266	5.8396
2.26	6.0782
2.254	6.1754
2.248	6.2803
2.242	6.2552
2.236	6.2862
2.23	6.2648
2.224	6.1866
2.218	6.2153
2.212	6.2451
2.206	6.1138
2.2	6.1694
2.194	6.0458
2.188	5.9999
2.182	6.0057
2.176	5.8733
2.17	5.9266
2.164	5.9538
2.158	5.923
2.152	5.8127
2.146	5.8056
2.14	5.7752
2.134	5.7395
2.128	5.7216
2.122	5.6871
2.116	5.6458
2.11	5.6397
2.104	5.6011
2.098	5.5633
2.092	5.5748
2.086	5.5815
2.08	5.5538
2.074	5.5615
2.068	5.6288
2.062	5.6155
2.056	5.6161
2.05	5.6653
2.044	5.5872
2.038	5.6079
2.032	5.6818
2.026	5.7187
2.02	5.7063
2.014	5.7396
2.008	5.6897
2.002	5.7629
1.996	5.741
1.99	5.7888
1.984	5.734
1.978	5.7913
1.972	5.8542
1.966	5.8661
1.96	5.9198
1.954	5.9609
1.948	5.9506
1.942	5.964
1.936	6.0187
1.93	5.9698
1.924	6.0433
1.918	6.0874
1.912	6.2297
1.906	6.3338
1.9	6.3595
1.894	6.4785
1.888	6.586
1.882	6.7764
1.876	6.7749
1.87	6.8436
1.864	7.0599
1.858	7.1921
1.852	7.2415
1.846	7.386
1.84	7.5224
1.834	7.6764
1.828	7.7899
1.822	8.0001
1.816	8.1072
1.81	8.3
1.804	8.421
1.798	8.6463
1.792	8.7821
1.786	9.0008
1.78	9.1363
1.774	9.3043
1.768	9.523
1.762	9.7779
1.756	9.9615
1.75	10.2103
1.744	10.5007
1.738	10.6754
1.732	11.0247
1.726	11.2858
1.72	11.5907
1.714	11.877
1.708	12.1651
1.702	12.5433
1.696	12.8593
1.69	13.1823
1.684	13.5236
1.678	13.8884
1.672	14.2201
1.666	14.6684
1.66	15.0848
1.654	15.5271
1.648	15.8757
1.642	16.4547
1.636	16.7677
1.63	17.2134
1.624	17.5993
1.618	18.0952
1.612	18.5311
1.606	19.0139
1.6	19.4046
1.594	19.8867
1.588	20.2495
1.582	20.691
1.576	21.0707
1.57	21.3162
1.564	21.5396
1.558	21.6808
1.552	21.8043
1.546	21.9863
1.54	22.2722
1.534	22.5557
1.528	22.887
1.522	23.1331
1.516	23.4043
1.51	23.6167
1.504	23.6794
1.498	23.5865
1.492	23.4406
1.486	23.0651
1.48	22.6477
1.474	22.0756
1.468	21.3965
1.462	20.531
1.456	19.726
1.45	18.7899
1.444	17.8281
1.438	16.9011
1.432	15.8884
1.426	14.9448
1.42	14.0104
1.414	13.0952
1.408	12.199
1.402	11.4386
1.396	10.6603
1.39	9.9896
1.384	9.2752
1.378	8.7318
1.372	8.2301
1.366	7.6882
1.36	7.1986
1.354	6.9659
1.348	6.5304
1.342	6.2721
1.336	5.9795
1.33	5.7569
1.324	5.5493
1.318	5.3886
1.312	5.207
1.306	5.0755
1.3	4.9227
1.294	4.9053
1.288	4.8238
1.282	4.6825
1.276	4.5773
1.27	4.4752
1.264	4.4742
1.258	4.3742
1.252	4.3607
1.246	4.3484
1.24	4.2833
1.234	4.2076
1.228	4.1737
1.222	4.1279
1.216	4.0909
1.21	4.1376
1.204	4.0722
1.198	4.0335
1.192	4.0856
1.186	4.1525
1.18	4.0542
1.174	4.0889
1.168	4.1093
1.162	4.0369
1.156	4.0824
1.15	4.1133
1.144	4.1107
1.138	4.1682
1.132	4.2432
1.126	4.2018
1.12	4.2167
1.114	4.2549
1.108	4.2715
1.102	4.3298
1.096	4.3773
1.09	4.4755
1.084	4.5468
1.078	4.5613
1.072	4.6616
1.066	4.7676
1.06	4.8387
1.054	4.9114
1.048	4.9388
1.042	5.0909
1.036	5.2194
1.03	5.3836
1.024	5.4882
1.018	5.7092
1.012	5.95
1.006	6.102
1	6.4643
0.994	6.6572
0.988	6.9835
0.982	7.3814
0.976	7.7516
0.97	8.155
0.964	8.6849
0.958	9.2783
0.952	9.9274
0.946	10.6025
0.94	11.5195
0.934	12.4069
0.928	13.4174
0.922	14.5929
0.916	15.7835
0.91	17.1199
0.904	18.5997
0.898	20.1971
0.892	21.8607
0.886	23.5881
0.88	25.384
0.874	27.1645
0.868	28.9996
0.862	30.805
0.856	33.694
0.85	35.4612
0.844	37.101
0.838	38.5555
0.832	39.8638
0.826	40.8486
0.82	41.7367
0.814	42.3772
0.808	42.7575
0.802	42.9475
0.796	42.9366
0.79	42.7643
0.784	42.4183
0.778	41.9137
0.772	41.3235
0.766	40.6564
0.76	39.9469
0.754	39.1566
0.748	38.3409
0.742	37.4744
0.736	36.5921
0.73	35.7064
0.724	34.7982
0.718	33.9391
0.712	33.0262
0.706	32.1114
0.7	31.202
0.694	30.3048
0.688	29.3999
0.682	28.5368
0.676	27.6919
0.67	26.8644
0.664	26.0751
0.658	25.3158
0.652	24.5822
0.646	23.8874
0.64	23.2271
0.634	22.5767
0.628	21.9614
0.622	21.3717
0.616	20.7853
0.61	20.2181
0.604	19.664
0.598	19.1332
0.592	18.6377
0.586	18.1628
0.58	17.7308
0.574	17.3778
0.568	17.0199
0.562	16.6956
0.556	16.3792
0.55	16.1385
0.544	15.9641
0.538	15.8418
0.532	15.7736
0.526	15.7495
0.52	15.7219
0.514	15.6203
0.508	15.7189
0.502	15.7773
0.496	15.7683
0.49	15.8707
0.484	16.0854
0.478	16.2245
0.472	15.9841
0.466	15.7808
0.46	15.6441
0.454	15.246
0.448	14.6247
0.442	13.6935
0.436	13.2682
0.43	13.4142
0.424	13.4532
0.418	12.8123
0.412	13.2198
0.406	15.0455
0.4	13.8545
