Name: Clinozoisite Ca_2Al_3(SiO_4)_3(OH)
Type: Mineral
Class: Silicate
Subclass: Sorosilicate
Particle Size: Medium
Sample No.: SS-4A
Owner: JPL
Wavelength Range: VSWIR
Origin: Mexico, Sonora
Description: Particle size was 45-125um.Collected by Ward's Original ASTER Spectral Library name was jpl.beckman.mineral.silicate.sorosilicate.medium.ss04a.spectrum.txt
Measurement: Hemispherical reflectance
X Units: Wavelength (micrometers)
Y Units: Reflectance (percent)
wavelength	value
0.4	15.34
0.403	15.85
0.406	16.37
0.409	17.21
0.412	17.81
0.415	18.42
0.418	18.81
0.421	19.23
0.424	19.56
0.427	19.83
0.43	20.42
0.433	20.89
0.436	21.36
0.439	21.57
0.442	21.62
0.445	21.27
0.448	21.06
0.451	20.38
0.454	20.67
0.457	21.76
0.46	22.32
0.463	22.95
0.466	22.86
0.469	22.84
0.472	23.38
0.475	23.82
0.478	24.52
0.481	25.47
0.484	26.32
0.487	27.12
0.49	28.05
0.493	28.88
0.496	29.26
0.499	29.4
0.502	29.43
0.505	29.27
0.508	28.95
0.511	28.81
0.514	28.31
0.517	28.03
0.52	27.52
0.523	27.21
0.526	26.71
0.529	26.52
0.532	26.42
0.535	26.16
0.538	26.11
0.541	26.23
0.544	26.26
0.547	26.59
0.55	27.04
0.553	27.45
0.556	27.91
0.559	28.33
0.562	29.27
0.565	29.92
0.568	30.61
0.571	31.51
0.574	32.38
0.577	33.15
0.58	34.2
0.583	35.19
0.586	36.33
0.589	37.16
0.592	38.29
0.595	39.37
0.598	40.15
0.601	41.16
0.604	42.1
0.607	42.83
0.61	43.43
0.613	44.21
0.616	44.73
0.619	45.29
0.622	45.71
0.625	46.12
0.628	46.47
0.631	46.79
0.634	47.13
0.637	47.41
0.64	47.7
0.643	47.85
0.646	48.2
0.649	48.25
0.652	48.69
0.655	48.97
0.658	49.03
0.661	49.29
0.664	49.46
0.667	49.69
0.67	49.81
0.673	50.11
0.676	50.22
0.679	50.48
0.682	50.5
0.685	50.76
0.688	50.72
0.691	50.96
0.694	51.1
0.697	50.91
0.7	51.05
0.703	51.19
0.706	51.27
0.709	51.29
0.712	51.27
0.715	51.13
0.718	51.09
0.721	51.12
0.724	51.07
0.727	51.01
0.73	50.92
0.733	50.86
0.736	50.61
0.739	50.54
0.742	50.46
0.745	50.44
0.748	50.29
0.751	50.27
0.754	49.89
0.757	49.77
0.76	49.77
0.763	49.69
0.766	49.65
0.769	49.51
0.772	49.34
0.775	49.16
0.778	49.16
0.781	49.08
0.784	48.98
0.787	48.96
0.79	48.87
0.793	48.76
0.796	48.8
0.799	48.66
0.808	48.99
0.82	48.93
0.832	48.99
0.844	49.18
0.856	49.42
0.868	49.78
0.88	50.23
0.892	50.55
0.904	51.09
0.916	51.4
0.928	51.88
0.94	52.19
0.952	52.47
0.964	52.66
0.976	52.83
0.988	52.92
1	52.95
1.012	53.05
1.024	53.05
1.036	53.23
1.048	53.36
1.06	53.79
1.072	54.12
1.084	54.7
1.096	55.37
1.108	56.32
1.12	57.39
1.132	58.42
1.144	59.66
1.156	60.84
1.168	62.23
1.18	63.6
1.192	65.16
1.204	66.84
1.216	68.21
1.228	69.52
1.24	70.59
1.252	71.49
1.264	72.27
1.276	72.91
1.288	73.32
1.3	73.37
1.312	73.5
1.324	73.53
1.336	73.71
1.348	73.82
1.36	74.08
1.372	73.93
1.384	72.54
1.396	69.61
1.408	67.44
1.42	70.21
1.432	72.06
1.444	72.71
1.456	73.16
1.468	73.03
1.48	72.92
1.492	72.38
1.504	71.3
1.516	69.69
1.528	67.76
1.54	66.13
1.552	65.47
1.564	66.52
1.576	68.45
1.588	70.12
1.6	71.59
1.612	72.69
1.624	73.47
1.636	74.14
1.648	74.81
1.66	75.27
1.672	75.56
1.684	75.95
1.696	76.26
1.708	76.59
1.72	76.88
1.732	77.01
1.744	77.12
1.756	76.97
1.768	77.11
1.78	77.17
1.792	77.04
1.804	76.75
1.816	74.82
1.828	73.59
1.84	74.89
1.852	75.92
1.864	75.13
1.876	73.16
1.888	70.46
1.9	66.99
1.912	65.73
1.924	66.65
1.936	67.52
1.948	67.94
1.96	68.79
1.972	70.1
1.984	71.32
1.996	72.2
2.008	72.89
2.02	73.5
2.032	73.99
2.044	74.55
2.056	74.74
2.068	75.02
2.08	74.99
2.092	74.88
2.104	74.6
2.116	74.51
2.128	73.99
2.14	73.19
2.152	71.64
2.164	69.91
2.176	67.57
2.188	64.67
2.2	63.3
2.212	63.11
2.224	61.98
2.236	57.26
2.248	52.05
2.26	51.55
2.272	53.16
2.284	51.84
2.296	47.09
2.308	40.08
2.32	33.87
2.332	29.34
2.344	28.63
2.356	34.07
2.368	43.31
2.38	51.51
2.392	55.99
2.404	58.07
2.416	58.77
2.428	58.63
2.44	58.17
2.452	57.54
2.464	56.77
2.476	55.86
2.488	55.2
2.5	54.7
