Name: Hydroxyapophyllite KCa_4Si_8O_20(OH,F).8H_2O
Type: Mineral
Class: Silicate
Subclass: Phyllosilicate
Particle Size: Medium
Sample No.: PS-22A
Owner: JPL
Wavelength Range: VSWIR
Origin: India, Maharashtra, Poona.
Description: Particle size was 45-125um. Collected by:  Burminco Original ASTER Spectral Library name was jpl.perkin.mineral.silicate.phyllosilicate.medium.ps22a.spectrum.txt
Measurement: Hemispherical reflectance
X Units: Wavelength (micrometers)
Y Units: Reflectance (percent)
wavelength	value
2.5	18.0193
2.494	17.5375
2.488	16.7472
2.482	15.6143
2.476	14.5333
2.47	13.6661
2.464	13.2731
2.458	13.3784
2.452	13.657
2.446	14.5278
2.44	15.5426
2.434	16.2575
2.428	15.9998
2.422	14.8867
2.416	13.3994
2.41	12.3925
2.404	11.9862
2.398	11.9463
2.392	12.0726
2.386	12.778
2.38	14.1235
2.374	16.3604
2.368	19.556
2.362	23.3624
2.356	27.3732
2.35	30.6601
2.344	33.1423
2.338	34.6687
2.332	35.5161
2.326	35.8708
2.32	35.8629
2.314	35.3998
2.308	35.0919
2.302	35.2846
2.296	36.0409
2.29	36.9069
2.284	37.383
2.278	37.8313
2.272	38.1168
2.266	38.3135
2.26	38.4851
2.254	38.3834
2.248	38.2097
2.242	37.963
2.236	37.657
2.23	37.3608
2.224	36.9912
2.218	36.4813
2.212	36.0154
2.206	35.3494
2.2	34.7219
2.194	34.1584
2.188	33.6905
2.182	33.3733
2.176	33.0662
2.17	32.6726
2.164	32.0516
2.158	31.5376
2.152	31.0767
2.146	30.4162
2.14	30.1329
2.134	30.2536
2.128	30.5888
2.122	31.0341
2.116	31.6572
2.11	32.1681
2.104	32.7497
2.098	33.2235
2.092	33.405
2.086	33.3731
2.08	33.1516
2.074	32.841
2.068	32.7065
2.062	32.6781
2.056	32.709
2.05	32.8099
2.044	32.763
2.038	32.7559
2.032	32.7416
2.026	32.6743
2.02	32.4853
2.014	32.3401
2.008	32.195
2.002	32.0508
1.996	31.9539
1.99	31.9212
1.984	31.9951
1.978	32.1292
1.972	32.1874
1.966	32.1526
1.96	32.1427
1.954	31.8445
1.948	31.3194
1.942	30.0942
1.936	27.8912
1.93	24.215
1.924	18.7774
1.918	12.8081
1.912	11.1002
1.906	15.3053
1.9	23.2902
1.894	30.3995
1.888	34.7832
1.882	36.9666
1.876	38.2271
1.87	39.4003
1.864	40.4815
1.858	41.3325
1.852	41.7949
1.846	42.009
1.84	42.0662
1.834	42.0406
1.828	42.0711
1.822	41.9836
1.816	41.874
1.81	41.8694
1.804	41.8087
1.798	41.8171
1.792	41.8354
1.786	41.9188
1.78	41.9787
1.774	42.0868
1.768	42.235
1.762	42.4244
1.756	42.6177
1.75	42.8515
1.744	43.1402
1.738	43.5415
1.732	43.9342
1.726	44.2174
1.72	44.3745
1.714	44.9307
1.708	45.864
1.702	46.8101
1.696	47.9473
1.69	49.0624
1.684	50.0936
1.678	50.9534
1.672	51.7433
1.666	52.4984
1.66	53.4139
1.654	54.2054
1.648	55.1282
1.642	56.1218
1.636	57.1225
1.63	58.0523
1.624	58.9667
1.618	59.8612
1.612	60.7329
1.606	61.4388
1.6	62.258
1.594	63.091
1.588	63.6558
1.582	64.1546
1.576	64.6169
1.57	64.8128
1.564	65.007
1.558	64.8192
1.552	64.4053
1.546	63.9332
1.54	63.2045
1.534	61.9576
1.528	59.9963
1.522	58.2139
1.516	58.3619
1.51	58.9382
1.504	59.482
1.498	59.7504
1.492	60.0945
1.486	60.3889
1.48	60.4553
1.474	59.856
1.468	58.9361
1.462	56.6369
1.456	52.078
1.45	44.3293
1.444	36.5533
1.438	45.4018
1.432	51.8273
1.426	57.1885
1.42	62.3491
1.414	67.3176
1.408	68.5651
1.402	73.2984
1.396	75.8702
1.39	77.0306
1.384	77.5036
1.378	77.5473
1.372	77.7464
1.366	77.9166
1.36	77.6868
1.354	77.2815
1.348	76.4763
1.342	76.3912
1.336	77.6986
1.33	77.8422
1.324	77.9338
1.318	78.9717
1.312	80.1481
1.306	80.5961
1.3	80.8049
1.294	81.1468
1.288	81.5941
1.282	82.0453
1.276	82.3239
1.27	82.5535
1.264	82.7078
1.258	82.8282
1.252	83.093
1.246	83.2251
1.24	83.4701
1.234	83.4959
1.228	83.4617
1.222	83.1839
1.216	83.0993
1.21	83.1684
1.204	83.2241
1.198	83.199
1.192	82.9944
1.186	82.6396
1.18	81.7266
1.174	79.7404
1.168	75.2014
1.162	76.7326
1.156	81.2752
1.15	83.5001
1.144	84.7362
1.138	85.3076
1.132	85.6604
1.126	85.7257
1.12	85.8623
1.114	85.861
1.108	85.8222
1.102	85.763
1.096	85.7555
1.09	85.6997
1.084	85.7757
1.078	85.9584
1.072	86.1077
1.066	86.0476
1.06	86.1316
1.054	86.1754
1.048	86.2828
1.042	86.2679
1.036	86.2687
1.03	86.2471
1.024	86.2179
1.018	85.96
1.012	85.7155
1.006	85.2125
1	84.3015
0.994	82.7825
0.988	80.9173
0.982	81.263
0.976	83.3236
0.97	85.1944
0.964	86.1987
0.958	86.5609
0.952	86.6286
0.946	86.6905
0.94	86.7498
0.934	86.8572
0.928	86.9012
0.922	87.0101
0.916	86.9857
0.91	87.1168
0.904	87.1418
0.898	87.2226
0.892	87.3269
0.886	87.3573
0.88	87.2917
0.874	87.3384
0.868	87.3535
0.862	87.3568
0.856	87.7244
0.85	87.5387
0.844	87.6495
0.838	87.8508
0.832	87.919
0.826	88.025
0.82	87.9954
0.814	88.0596
0.808	88.0866
0.802	88.1841
0.796	88.1438
0.79	88.1156
0.784	88.1565
0.778	88.0891
0.772	88.046
0.766	87.9594
0.76	87.7827
0.754	87.8021
0.748	88.0583
0.742	88.1875
0.736	88.1802
0.73	88.2354
0.724	88.2441
0.718	88.2265
0.712	88.2222
0.706	88.1826
0.7	88.1809
0.694	88.1078
0.688	88.099
0.682	88.0415
0.676	88.0339
0.67	87.9666
0.664	87.9392
0.658	87.9292
0.652	87.918
0.646	87.8866
0.64	87.898
0.634	87.8836
0.628	87.887
0.622	87.8902
0.616	87.9164
0.61	87.9763
0.604	87.9902
0.598	88.0595
0.592	88.1326
0.586	88.1793
0.58	88.2006
0.574	88.1919
0.568	88.2157
0.562	88.2212
0.556	88.2819
0.55	88.2144
0.544	88.1722
0.538	88.0962
0.532	88.0124
0.526	87.9106
0.52	87.7646
0.514	87.6216
0.508	87.4073
0.502	87.2116
0.496	87.0184
0.49	86.747
0.484	86.529
0.478	86.2895
0.472	85.9809
0.466	85.7385
0.46	85.4538
0.454	85.1989
0.448	84.9459
0.442	84.7342
0.436	84.5279
0.43	84.3178
0.424	84.1585
0.418	83.9794
0.412	83.8448
0.406	83.6736
0.4	83.4838
