Name: Montebrasite LiAlPO_4(OH)
Type: Mineral
Class: Phosphate
Subclass: None
Particle Size: Fine
Sample No.: P-2A
Owner: JPL
Wavelength Range: TIR
Origin: USA, Couth Dakota, Custer County, Custer
Description: Particle size was 0-45um.Collected by Burminco Original ASTER Spectral Library name was jpl.nicolet.mineral.phosphate.none.fine.p02a.spectrum.txt
Measurement: Hemispherical reflectance
X Units: Wavelength (micrometers)
Y Units: Reflectance (percent)
wavelength	value
15.3853	4.4853
15.1161	4.5789
14.8563	4.6484
14.6052	3.279
14.3624	2.122
14.1276	2.2515
13.9004	2.7962
13.6803	3.3078
13.4671	4.3217
13.2604	4.8459
13.06	5.3268
12.8656	5.0818
12.6769	4.8545
12.4936	4.7907
12.3155	5.0474
12.1425	5.5965
11.9742	6.2354
11.8106	5.9023
11.6513	6.8968
11.4963	8.3153
11.3454	9.4289
11.1983	10.0663
11.0551	10.5717
10.9154	10.9485
10.7793	11.2112
10.6465	10.8618
10.5169	10.5496
10.3904	10.0153
10.267	9.1669
10.1464	8.0839
10.0287	7.2045
9.9136	7.0118
9.8012	7.3138
9.6913	5.9547
9.5838	5.3391
9.4787	6.8325
9.3758	9.522
9.2752	11.7514
9.1767	13.5521
9.0803	13.9135
8.9858	13.4215
8.8934	12.8521
8.8028	11.9173
8.714	10.4478
8.627	10.9229
8.5417	11.2904
8.4581	10.5281
8.3761	9.1154
8.2957	9.4945
8.2169	10.331
8.1395	8.7384
8.0635	5.3577
7.989	3.4804
7.9158	2.5941
7.8439	2.2293
7.7734	2.2714
7.7041	2.4612
7.636	2.8592
7.5691	3.442
7.5034	4.1445
7.4388	4.7918
7.3753	5.6869
7.3129	6.6688
7.2515	7.5379
7.1912	8.293
7.1318	8.8192
7.0734	9.3207
7.016	9.7322
6.9595	10.6061
6.9039	11.1954
6.8492	11.776
6.7953	12.9132
6.7423	13.3121
6.6901	14.2159
6.6387	15.836
6.5881	16.0441
6.5382	16.462
6.4892	17.8286
6.4408	16.9424
6.3931	15.5691
6.3462	13.6308
6.2999	11.4586
6.2543	11.4084
6.2094	12.6351
6.1651	14.6727
6.1214	16.9378
6.0784	19.0549
6.0359	20.3992
5.994	21.7689
5.9527	22.6864
5.912	23.6701
5.8718	24.906
5.8322	25.8498
5.7931	26.5102
5.7545	27.8241
5.7165	29.3201
5.6789	30.4754
5.6418	32.3435
5.6052	32.7081
5.5691	33.7559
5.5334	34.2778
5.4982	34.6947
5.4635	35.1286
5.4291	34.7486
5.3952	34.1279
5.3618	33.9978
5.3287	34.3028
5.2961	35.1881
5.2638	35.8344
5.2319	36.5172
5.2004	37.3647
5.1693	37.8885
5.1386	38.2859
5.1082	37.8351
5.0782	36.7174
5.0485	34.9885
5.0192	32.4061
4.9902	30.2214
4.9616	29.0832
4.9332	28.9817
4.9052	28.2451
4.8776	26.4546
4.8502	25.4657
4.8231	25.1948
4.7963	25.391
4.7699	24.7176
4.7437	23.8742
4.7178	24.1194
4.6922	24.7245
4.6668	25.6085
4.6418	25.658
4.617	25.9093
4.5924	26.4086
4.5681	26.3383
4.5441	26.1539
4.5203	26.121
4.4968	26.8058
4.4735	27.5632
4.4505	27.4311
4.4277	26.6868
4.4051	26.2734
4.3828	26.6118
4.3607	27.4625
4.3388	27.7747
4.3171	27.2717
4.2956	25.7155
4.2744	24.5781
4.2534	24.7561
4.2325	24.8887
4.2119	23.8112
4.1915	23.0394
4.1712	24.5232
4.1512	27.8288
4.1313	32.2728
4.1117	35.7461
4.0922	38.2398
4.0729	39.7303
4.0538	40.7096
4.0349	41.3583
4.0161	41.6862
3.9976	41.6454
3.9792	41.739
3.9609	42.4002
3.9428	42.4405
3.9249	42.6049
3.9072	42.5846
3.8896	42.5155
3.8722	42.4284
3.8549	42.5334
3.8378	42.8092
3.8208	43.0097
3.804	43.4649
3.7873	43.5118
3.7708	43.5948
3.7544	43.5396
3.7382	43.3898
3.7221	43.2078
3.7061	43.1477
3.6903	42.8634
3.6746	42.6274
3.659	42.1752
3.6436	41.8455
3.6283	41.2813
3.6131	40.7972
3.5981	40.2946
3.5832	39.8843
3.5684	39.7013
3.5537	39.1874
3.5391	38.6783
3.5247	38.0638
3.5104	37.3875
3.4962	36.7508
3.4821	36.2144
3.4681	35.8132
3.4543	35.1528
3.4405	34.947
3.4269	34.5958
3.4133	34.14
3.3999	33.5973
3.3866	33.1306
3.3733	32.5729
3.3602	32.1703
3.3472	31.6393
3.3343	30.8151
3.3215	30.2827
3.3088	29.2612
3.2961	28.2021
3.2836	27.082
3.2712	26.1513
3.2588	25.2953
3.2466	24.8058
3.2345	24.3473
3.2224	23.9466
3.2104	23.9636
3.1985	23.5376
3.1867	23.1741
3.175	22.4288
3.1634	21.6574
3.1519	20.8085
3.1404	19.9659
3.129	19.1281
3.1178	18.2152
3.1065	17.0746
3.0954	16.1468
3.0844	15.5729
3.0734	15.2464
3.0625	15.3061
3.0517	15.4464
3.041	15.8606
3.0303	15.173
3.0197	13.5622
3.0092	11.235
2.9987	8.8088
2.9884	7.1904
2.9781	6.1241
2.9678	5.2243
2.9577	4.9024
2.9476	5.0576
2.9376	5.1661
2.9276	5.8108
2.9177	7.7655
2.9079	11.5369
2.8982	14.483
2.8885	15.9692
2.8789	16.6085
2.8693	16.9066
2.8598	16.899
2.8504	16.9797
2.841	17.3996
2.8317	18.7917
2.8224	19.6387
2.8133	23.2578
2.8041	27.4831
2.7951	30.2073
2.786	32.5147
2.7771	33.4046
2.7682	33.6328
2.7594	36.4743
2.7506	39.8749
2.7418	42.5334
2.7332	43.4566
2.7246	46.0132
2.716	46.4716
2.7075	48.0336
2.699	48.8935
2.6906	49.7693
2.6823	50.4421
2.674	50.6735
2.6657	52.1276
2.6575	50.2379
2.6494	50.0097
2.6413	49.9398
2.6332	49.8495
2.6252	49.3404
2.6173	49.5368
2.6094	48.8167
2.6015	48.965
2.5937	50.856
2.5859	50.302
2.5782	50.6409
2.5706	51.1645
2.5629	51.7654
2.5554	51.3659
2.5478	52.2178
2.5403	52.6643
2.5329	53.3531
2.5255	53.6544
2.5181	53.9226
2.5108	54.2465
2.5035	54.5747
2.4963	54.6826
2.4891	55.2323
2.482	55.9173
2.4749	56.6822
2.4678	57.2993
2.4608	58.0841
2.4538	58.8786
2.4468	59.4565
2.4399	60.022
2.4331	60.1198
2.4262	60.3857
2.4194	60.6183
2.4127	60.0674
2.4059	59.7493
2.3993	58.6681
2.3926	56.3488
2.386	52.5742
2.3795	47.6256
2.3729	45.7347
2.3664	51.1053
2.36	55.8427
2.3535	59.6793
2.3471	61.4497
2.3408	62.0674
2.3345	62.2493
2.3282	62.3328
2.3219	62.5695
2.3157	62.5013
2.3095	62.285
2.3034	62.1467
2.2972	61.9291
2.2911	61.5121
2.2851	61.0177
2.279	60.4562
2.2731	60.5404
2.2671	60.3906
2.2612	60.3158
2.2553	59.9548
2.2494	59.3882
2.2435	58.9584
2.2377	58.4395
2.232	57.7669
2.2262	57.3346
2.2205	56.4222
2.2148	55.7377
2.2091	54.5084
2.2035	53.0739
2.1979	50.8943
2.1923	49.2038
2.1868	47.7331
2.1812	46.3069
2.1758	45.2662
2.1703	44.9503
2.1649	49.7571
2.1595	55.94
2.1541	59.4354
2.1487	61.0001
2.1434	61.6823
2.1381	62.0574
2.1328	62.3307
2.1275	62.4785
2.1223	62.4306
2.1171	62.7775
2.112	62.6453
2.1068	62.8761
2.1017	62.6124
2.0966	62.9231
2.0915	63.0388
2.0865	63.0801
2.0814	63.2107
2.0764	62.8631
2.0715	62.4099
2.0665	62.7015
2.0616	62.9721
2.0567	63.0726
2.0518	62.9876
2.0469	63.285
2.0421	63.4241
2.0373	63.3399
2.0325	63.7857
2.0277	63.3446
2.0229	63.3897
2.0182	63.4828
2.0135	63.2939
2.0088	62.5467
2.0042	61.6066
