Name: Grossular Garnet Ca_3Al_2(SiO_4)_3
Type: Mineral
Class: Silicate
Subclass: Nesosilicate
Particle Size: Medium
Sample No.: NS-3B
Owner: JPL
Wavelength Range: VSWIR
Origin: Mexico, Lake Jaco
Description: Particle size was 45-125um.Collected by New, David Original ASTER Spectral Library name was jpl.beckman.mineral.silicate.nesosilicate.medium.ns03b.spectrum.txt
Measurement: Hemispherical reflectance
X Units: Wavelength (micrometers)
Y Units: Reflectance (percent)
wavelength	value
0.4	63.09
0.403	63.92
0.406	64.24
0.409	64.55
0.412	65.23
0.415	65.56
0.418	65.41
0.421	65.01
0.424	64.31
0.427	63.47
0.43	63.15
0.433	63.43
0.436	64.09
0.439	65.66
0.442	67.74
0.445	69.19
0.448	70.23
0.451	70.68
0.454	71.18
0.457	71.74
0.46	72.12
0.463	72.64
0.466	73.1
0.469	73.39
0.472	73.73
0.475	73.98
0.478	74.13
0.481	74.33
0.484	74.56
0.487	74.47
0.49	74.72
0.493	74.68
0.496	74.73
0.499	74.85
0.502	75.07
0.505	75.2
0.508	75.21
0.511	75.26
0.514	75.29
0.517	75.47
0.52	75.4
0.523	75.61
0.526	75.84
0.529	75.79
0.532	75.91
0.535	75.91
0.538	76.1
0.541	75.98
0.544	76.23
0.547	76.33
0.55	76.25
0.553	76.41
0.556	76.46
0.559	76.53
0.562	76.92
0.565	76.82
0.568	76.86
0.571	76.84
0.574	76.94
0.577	76.99
0.58	76.9
0.583	77
0.586	77.06
0.589	77.32
0.592	77.32
0.595	77.53
0.598	77.93
0.601	78.06
0.604	78.27
0.607	78.55
0.61	78.72
0.613	78.85
0.616	78.78
0.619	79.02
0.622	79.32
0.625	79.49
0.628	79.46
0.631	79.71
0.634	79.81
0.637	79.93
0.64	79.89
0.643	80.08
0.646	80.42
0.649	80.64
0.652	80.53
0.655	80.86
0.658	81.06
0.661	81.04
0.664	81.12
0.667	81.31
0.67	81.63
0.673	81.74
0.676	81.87
0.679	81.94
0.682	82.2
0.685	82.2
0.688	82.25
0.691	82.52
0.694	82.64
0.697	82.69
0.7	82.56
0.703	82.84
0.706	83.14
0.709	82.98
0.712	82.87
0.715	83.13
0.718	83.24
0.721	83.23
0.724	83.36
0.727	83.14
0.73	83.26
0.733	83.2
0.736	83.12
0.739	83.17
0.742	83.29
0.745	83.18
0.748	83.13
0.751	83.19
0.754	83.41
0.757	83.18
0.76	83.13
0.763	83.18
0.766	83.2
0.769	83.14
0.772	83.07
0.775	82.98
0.778	83.02
0.781	82.75
0.784	82.64
0.787	82.76
0.79	82.58
0.793	82.47
0.796	82.48
0.799	82.5
0.808	81.94
0.82	81.37
0.832	80.97
0.844	80.4
0.856	80.11
0.868	79.94
0.88	79.87
0.892	79.92
0.904	80.24
0.916	80.56
0.928	81.01
0.94	81.46
0.952	81.89
0.964	82.64
0.976	83.08
0.988	83.46
1	83.92
1.012	84.33
1.024	84.56
1.036	84.77
1.048	84.91
1.06	85
1.072	85.17
1.084	85.17
1.096	85.22
1.108	85.23
1.12	85.33
1.132	85.33
1.144	85.2
1.156	85.32
1.168	85.3
1.18	85.1
1.192	85.2
1.204	85.16
1.216	85.11
1.228	85.12
1.24	85.18
1.252	85.17
1.264	85.04
1.276	85.1
1.288	85.07
1.3	85.07
1.312	84.94
1.324	84.95
1.336	84.93
1.348	84.87
1.36	84.79
1.372	84.73
1.384	84.61
1.396	84.47
1.408	84.34
1.42	84.33
1.432	84.56
1.444	84.67
1.456	84.54
1.468	84.65
1.48	84.6
1.492	84.59
1.504	84.68
1.516	84.65
1.528	84.67
1.54	84.72
1.552	84.67
1.564	84.67
1.576	84.58
1.588	84.58
1.6	84.54
1.612	84.61
1.624	84.53
1.636	84.47
1.648	84.53
1.66	84.54
1.672	84.47
1.684	84.37
1.696	84.45
1.708	84.23
1.72	84.25
1.732	84.05
1.744	83.92
1.756	83.79
1.768	83.7
1.78	83.6
1.792	83.59
1.804	83.49
1.816	83.42
1.828	83.21
1.84	83.07
1.852	82.97
1.864	82.74
1.876	82.47
1.888	82.08
1.9	81.62
1.912	81.23
1.924	81.29
1.936	81.38
1.948	81.19
1.96	81.28
1.972	81.29
1.984	81.33
1.996	81.4
2.008	81.39
2.02	81.47
2.032	81.36
2.044	81.37
2.056	81.21
2.068	81.15
2.08	81.11
2.092	80.94
2.104	80.97
2.116	80.95
2.128	80.66
2.14	80.36
2.152	80.07
2.164	79.61
2.176	79.26
2.188	78.85
2.2	78.58
2.212	78.41
2.224	78.21
2.236	78.15
2.248	77.91
2.26	77.75
2.272	77.59
2.284	77.51
2.296	77.29
2.308	77.06
2.32	76.99
2.332	76.79
2.344	76.56
2.356	76.53
2.368	76.28
2.38	76.21
2.392	76.08
2.404	76
2.416	75.86
2.428	75.71
2.44	75.55
2.452	75.36
2.464	75.01
2.476	74.82
2.488	74.89
2.5	75.12
