Name: Hydroxyapophyllite KCa_4Si_8O_20(OH,F).8H_2O
Type: Mineral
Class: Silicate
Subclass: Phyllosilicate
Particle Size: Fine
Sample No.: PS-22A
Owner: JPL
Wavelength Range: TIR
Origin: India, Maharashtra, Poona
Description: Particle size was 0-45um.Collected by Burminco Original ASTER Spectral Library name was jpl.nicolet.mineral.silicate.phyllosilicate.fine.ps22a.spectrum.txt
Measurement: Hemispherical reflectance
X Units: Wavelength (micrometers)
Y Units: Reflectance (percent)
wavelength	value
15.3853	1.5038
15.1161	1.6902
14.8563	2.8079
14.6052	3.8617
14.3624	4.8558
14.1276	4.7789
13.9004	5.568
13.6803	5.8241
13.4671	5.4364
13.2604	4.7141
13.06	3.6103
12.8656	2.8596
12.6769	3.1114
12.4936	2.1067
12.3155	1.4803
12.1425	2.6718
11.9742	3.9893
11.8106	5.4037
11.6513	6.7034
11.4963	7.8021
11.3454	8.4198
11.1983	9.2227
11.0551	9.84
10.9154	10.5401
10.7793	10.7111
10.6465	10.6893
10.5169	9.8369
10.3904	9.3142
10.267	8.4322
10.1464	7.9281
10.0287	9.8027
9.9136	15.2735
9.8012	19.9747
9.6913	19.6407
9.5838	18.746
9.4787	16.4603
9.3758	10.8204
9.2752	1.9473
9.1767	3.0571
9.0803	8.0863
8.9858	4.1276
8.8934	4.976
8.8028	3.7822
8.714	1.7933
8.627	0.5756
8.5417	0.2426
8.4581	0.2532
8.3761	0.3107
8.2957	0.6625
8.2169	1.1146
8.1395	1.3006
8.0635	1.7563
7.989	2.2435
7.9158	2.9158
7.8439	3.4969
7.7734	4.0632
7.7041	4.7876
7.636	5.2989
7.5691	5.5395
7.5034	5.8553
7.4388	6.2327
7.3753	6.316
7.3129	6.8735
7.2515	7.2791
7.1912	7.3496
7.1318	7.2093
7.0734	7.0433
7.016	6.7834
6.9595	6.6049
6.9039	6.4145
6.8492	6.2479
6.7953	6.0614
6.7423	5.6138
6.6901	5.2732
6.6387	4.9631
6.5881	4.2308
6.5382	3.8772
6.4892	3.9601
6.4408	3.8963
6.3931	4.1464
6.3462	4.5176
6.2999	4.4898
6.2543	4.2383
6.2094	4.1312
6.1651	3.8636
6.1214	3.6099
6.0784	3.3007
6.0359	2.9366
5.994	2.5632
5.9527	2.0746
5.912	1.7165
5.8718	1.4644
5.8322	3.7844
5.7931	7.2322
5.7545	9.794
5.7165	11.3474
5.6789	12.1659
5.6418	12.5202
5.6052	12.9154
5.5691	14.2487
5.5334	15.591
5.4982	16.5505
5.4635	16.9183
5.4291	16.5481
5.3952	15.9732
5.3618	15.9238
5.3287	15.6974
5.2961	15.1401
5.2638	15.4023
5.2319	16.6961
5.2004	18.1118
5.1693	18.5956
5.1386	17.762
5.1082	17.7395
5.0782	18.4085
5.0485	18.1499
5.0192	17.2922
4.9902	16.6858
4.9616	18.0767
4.9332	19.1184
4.9052	19.5334
4.8776	19.2779
4.8502	19.315
4.8231	19.1722
4.7963	18.7267
4.7699	18.2526
4.7437	17.5256
4.7178	16.8433
4.6922	16.1623
4.6668	15.233
4.6418	14.0376
4.617	13.0171
4.5924	12.3145
4.5681	11.8971
4.5441	11.8832
4.5203	11.5643
4.4968	11.4355
4.4735	11.48
4.4505	11.4781
4.4277	11.4354
4.4051	10.721
4.3828	10.4875
4.3607	10.374
4.3388	10.468
4.3171	10.4265
4.2956	10.2742
4.2744	10.5315
4.2534	11.1538
4.2325	12.3382
4.2119	13.827
4.1915	15.4603
4.1712	16.8073
4.1512	17.5553
4.1313	18.0593
4.1117	18.1623
4.0922	18.2384
4.0729	17.9851
4.0538	17.8039
4.0349	17.5623
4.0161	17.1142
3.9976	16.7009
3.9792	16.5353
3.9609	16.1473
3.9428	15.6676
3.9249	15.2273
3.9072	14.9339
3.8896	14.4241
3.8722	13.9361
3.8549	13.3627
3.8378	12.808
3.8208	11.9222
3.804	11.5439
3.7873	10.9038
3.7708	10.3803
3.7544	9.838
3.7382	9.3653
3.7221	8.7806
3.7061	8.2625
3.6903	7.9313
3.6746	7.3814
3.659	6.9254
3.6436	6.6628
3.6283	6.2286
3.6131	5.8436
3.5981	5.5017
3.5832	5.4358
3.5684	4.8804
3.5537	4.7341
3.5391	4.4383
3.5247	4.2089
3.5104	4.0918
3.4962	3.818
3.4821	3.8159
3.4681	3.4789
3.4543	3.3926
3.4405	3.2831
3.4269	3.0968
3.4133	3.178
3.3999	2.9642
3.3866	2.8198
3.3733	2.6253
3.3602	2.6847
3.3472	2.5119
3.3343	2.4778
3.3215	2.3595
3.3088	2.146
3.2961	2.0253
3.2836	2.131
3.2712	2.0261
3.2588	1.9664
3.2466	1.7645
3.2345	1.8694
3.2224	1.8243
3.2104	1.65
3.1985	1.7453
3.1867	1.7673
3.175	1.7973
3.1634	1.6617
3.1519	1.6475
3.1404	1.4942
3.129	1.7296
3.1178	1.7289
3.1065	1.8101
3.0954	1.9166
3.0844	1.7853
3.0734	2.1075
3.0625	2.2172
3.0517	2.3642
3.041	2.4195
3.0303	2.7328
3.0197	2.7604
3.0092	2.9703
2.9987	2.9745
2.9884	3.1751
2.9781	3.0282
2.9678	3.3306
2.9577	3.3819
2.9476	3.5902
2.9376	3.771
2.9276	4.119
2.9177	4.6608
2.9079	5.2242
2.8982	6.0759
2.8885	7.1015
2.8789	7.2967
2.8693	7.2804
2.8598	7.4814
2.8504	8.6106
2.841	8.128
2.8317	6.0897
2.8224	3.619
2.8133	1.763
2.8041	2.6081
2.7951	6.4058
2.786	10.5052
2.7771	13.3547
2.7682	15.9851
2.7594	19.349
2.7506	23.8631
2.7418	26.5998
2.7332	28.7559
2.7246	30.5644
2.716	31.0996
2.7075	34.0102
2.699	35.7499
2.6906	37.2348
2.6823	39.942
2.674	41.2192
2.6657	41.5652
2.6575	40.6576
2.6494	41.5394
2.6413	42.2679
2.6332	44.2898
2.6252	45.44
2.6173	45.3165
2.6094	44.5023
2.6015	44.9052
2.5937	47.4662
2.5859	48.1885
2.5782	48.848
2.5706	49.5993
2.5629	49.92
2.5554	49.9009
2.5478	50.5047
2.5403	50.3664
2.5329	49.4994
2.5255	47.8466
2.5181	45.264
2.5108	45.0002
2.5035	45.9447
2.4963	45.7754
2.4891	43.8468
2.482	41.2435
2.4749	39.5033
2.4678	38.2504
2.4608	38.1813
2.4538	38.7956
2.4468	40.3748
2.4399	43.1606
2.4331	44.7063
2.4262	42.3998
2.4194	38.5001
2.4127	36.1478
2.4059	35.6432
2.3993	36.0067
2.3926	35.7864
2.386	37.3794
2.3795	39.8762
2.3729	44.1778
2.3664	49.978
2.36	55.2434
2.3535	59.604
2.3471	61.9301
2.3408	63.1728
2.3345	63.9924
2.3282	64.0333
2.3219	64.3398
2.3157	63.587
2.3095	63.0127
2.3034	63.2275
2.2972	64.5806
2.2911	65.0407
2.2851	65.6328
2.279	65.5732
2.2731	65.9935
2.2671	66.3869
2.2612	66.2507
2.2553	66.1702
2.2494	65.9949
2.2435	65.8481
2.2377	65.7448
2.232	65.3301
2.2262	65.2064
2.2205	64.9802
2.2148	64.4535
2.2091	63.8009
2.2035	63.3559
2.1979	62.9802
2.1923	62.4484
2.1868	62.1233
2.1812	62.132
2.1758	61.5295
2.1703	61.4229
2.1649	60.7114
2.1595	60.2284
2.1541	59.9751
2.1487	59.5999
2.1434	58.6812
2.1381	58.9494
2.1328	59.273
2.1275	59.4753
2.1223	60.1193
2.1171	60.4854
2.112	61.1649
2.1068	61.4985
2.1017	61.914
2.0966	62.2839
2.0915	62.4007
2.0865	62.2041
2.0814	62.4552
2.0764	61.5501
2.0715	61.5817
2.0665	61.8261
2.0616	62.0305
2.0567	61.7352
2.0518	61.8464
2.0469	61.835
2.0421	61.9381
2.0373	61.6604
2.0325	61.6026
2.0277	61.9015
2.0229	61.5273
2.0182	61.756
2.0135	61.5431
2.0088	61.2409
2.0042	61.3895
