Name: Grossular Garnet Ca_3Al_2(SiO_4)_3
Type: Mineral
Class: Silicate
Subclass: Nesosilicate
Particle Size: Medium
Sample No.: NS-3B
Owner: JPL
Wavelength Range: TIR
Origin: Mexico, Lake Jaco
Description: Particle size was 45-125um.Collected by New, David Original ASTER Spectral Library name was jpl.nicolet.mineral.silicate.nesosilicate.medium.ns03b.spectrum.txt
Measurement: Hemispherical reflectance
X Units: Wavelength (micrometers)
Y Units: Reflectance (percent)
wavelength	value
15.3853	2.362
15.1161	2.9672
14.8563	3.8783
14.6052	4.2204
14.3624	5.1028
14.1276	5.5002
13.9004	5.7288
13.6803	5.8203
13.4671	6.2226
13.2604	6.5681
13.06	6.5886
12.8656	7.833
12.6769	9.0733
12.4936	11.0212
12.3155	13.7834
12.1425	18.2889
11.9742	25.0776
11.8106	23.2972
11.6513	28.0229
11.4963	24.7406
11.3454	9.8873
11.1983	8.5313
11.0551	23.2313
10.9154	32.4136
10.7793	32.1251
10.6465	35.3358
10.5169	36.3663
10.3904	41.6387
10.267	41.9387
10.1464	37.9294
10.0287	29.177
9.9136	16.4537
9.8012	8.4703
9.6913	3.5236
9.5838	1.1127
9.4787	0.5864
9.3758	0.0565
9.2752	0.1717
9.1767	0.2066
9.0803	0.1847
8.9858	0.613
8.8934	0.9499
8.8028	0.925
8.714	1.3366
8.627	1.8091
8.5417	1.9989
8.4581	2.548
8.3761	2.8891
8.2957	3.3512
8.2169	3.8464
8.1395	4.1878
8.0635	4.7294
7.989	5.0171
7.9158	5.0759
7.8439	5.1369
7.7734	5.4349
7.7041	5.8172
7.636	6.1558
7.5691	6.3922
7.5034	6.4887
7.4388	6.9348
7.3753	7.3136
7.3129	7.5343
7.2515	7.58
7.1912	7.919
7.1318	8.3193
7.0734	8.8889
7.016	9.5887
6.9595	10.3241
6.9039	11.085
6.8492	12.7087
6.7953	14.6996
6.7423	15.3922
6.6901	16.1501
6.6387	18.0316
6.5881	18.1307
6.5382	18.9863
6.4892	21.2582
6.4408	20.5241
6.3931	20.1457
6.3462	20.7587
6.2999	19.8131
6.2543	19.4829
6.2094	18.1869
6.1651	16.1413
6.1214	13.4471
6.0784	10.5467
6.0359	8.2285
5.994	6.9919
5.9527	5.8107
5.912	5.4627
5.8718	5.6771
5.8322	6.0972
5.7931	6.4448
5.7545	7.2946
5.7165	8.3603
5.6789	9.2057
5.6418	10.5858
5.6052	10.7777
5.5691	11.1768
5.5334	11.3613
5.4982	11.2571
5.4635	11.5665
5.4291	12.2993
5.3952	13.1819
5.3618	14.5329
5.3287	16.1134
5.2961	18.9362
5.2638	22.0297
5.2319	23.967
5.2004	25.1294
5.1693	25.7879
5.1386	26.7147
5.1082	27.5811
5.0782	28.2923
5.0485	28.713
5.0192	29.5834
4.9902	30.1711
4.9616	31.0482
4.9332	31.5954
4.9052	32.0725
4.8776	32.5332
4.8502	32.9315
4.8231	33.4626
4.7963	33.9676
4.7699	34.5003
4.7437	35.0283
4.7178	35.3187
4.6922	35.652
4.6668	35.9736
4.6418	36.3114
4.617	36.4174
4.5924	36.7168
4.5681	36.7219
4.5441	36.9635
4.5203	36.9049
4.4968	36.9941
4.4735	37.001
4.4505	36.9194
4.4277	36.87
4.4051	36.8357
4.3828	36.7902
4.3607	36.6722
4.3388	36.6674
4.3171	36.4737
4.2956	36.2935
4.2744	36.0401
4.2534	35.8674
4.2325	35.4804
4.2119	35.3212
4.1915	35.1046
4.1712	34.7299
4.1512	34.5595
4.1313	34.2918
4.1117	33.9665
4.0922	33.4556
4.0729	33.0141
4.0538	32.6663
4.0349	32.4244
4.0161	32.5621
3.9976	32.8815
3.9792	33.3514
3.9609	33.8189
3.9428	34.2854
3.9249	34.5392
3.9072	34.8185
3.8896	34.9857
3.8722	35.0265
3.8549	35.2826
3.8378	35.3978
3.8208	35.7013
3.804	36.0711
3.7873	36.3715
3.7708	36.8803
3.7544	37.3511
3.7382	37.9801
3.7221	38.7312
3.7061	39.3239
3.6903	39.8142
3.6746	40.2581
3.659	40.3838
3.6436	40.5185
3.6283	40.4973
3.6131	40.1871
3.5981	40.0064
3.5832	39.8558
3.5684	39.6489
3.5537	39.6166
3.5391	39.5803
3.5247	39.6332
3.5104	39.6833
3.4962	40.0283
3.4821	40.2395
3.4681	40.462
3.4543	40.8108
3.4405	41.2193
3.4269	41.6305
3.4133	42.0741
3.3999	42.7765
3.3866	43.2082
3.3733	43.8528
3.3602	44.5381
3.3472	45.3312
3.3343	46.041
3.3215	46.7035
3.3088	47.4157
3.2961	48.0133
3.2836	48.6702
3.2712	49.3486
3.2588	49.8931
3.2466	50.3399
3.2345	50.9569
3.2224	51.5489
3.2104	52.0464
3.1985	52.5705
3.1867	53.121
3.175	53.5466
3.1634	53.9819
3.1519	54.6196
3.1404	55.0091
3.129	55.4291
3.1178	55.8628
3.1065	56.254
3.0954	56.4456
3.0844	56.9292
3.0734	57.3039
3.0625	57.6403
3.0517	57.8521
3.041	58.2067
3.0303	58.2443
3.0197	58.4716
3.0092	58.4265
2.9987	58.7213
2.9884	58.9842
2.9781	59.0231
2.9678	59.3796
2.9577	59.6102
2.9476	59.8287
2.9376	59.8345
2.9276	59.9816
2.9177	60.0054
2.9079	60.1656
2.8982	60.1537
2.8885	60.3944
2.8789	60.5723
2.8693	60.7304
2.8598	60.706
2.8504	60.989
2.841	61.166
2.8317	60.8522
2.8224	60.5472
2.8133	60.2531
2.8041	60.5921
2.7951	59.4938
2.786	58.9436
2.7771	55.3799
2.7682	53.3769
2.7594	47.2997
2.7506	48.6431
2.7418	55.7136
2.7332	50.7169
2.7246	58.6631
2.716	63.052
2.7075	67.8637
2.699	70.0878
2.6906	72.035
2.6823	73.115
2.674	73.7426
2.6657	76.4743
2.6575	74.0258
2.6494	73.9842
2.6413	74.4282
2.6332	75.0786
2.6252	75.3203
2.6173	76.6033
2.6094	75.9005
2.6015	75.9565
2.5937	78.4464
2.5859	76.5509
2.5782	76.221
2.5706	76.7093
2.5629	77.5198
2.5554	76.2162
2.5478	76.5984
2.5403	76.392
2.5329	76.7679
2.5255	76.824
2.5181	76.879
2.5108	76.9067
2.5035	77.13
2.4963	77.0612
2.4891	77.2059
2.482	77.3744
2.4749	77.5901
2.4678	77.6185
2.4608	77.8232
2.4538	77.8593
2.4468	77.9793
2.4399	78.2361
2.4331	78.1587
2.4262	78.3542
2.4194	78.3973
2.4127	78.3715
2.4059	78.5055
2.3993	78.6006
2.3926	78.69
2.386	78.6138
2.3795	78.7535
2.3729	78.7798
2.3664	78.6885
2.36	78.9178
2.3535	78.8574
2.3471	79.0488
2.3408	79.1797
2.3345	79.2226
2.3282	79.4129
2.3219	79.5814
2.3157	79.6668
2.3095	79.707
2.3034	79.8843
2.2972	79.9872
2.2911	80.0581
2.2851	80.1891
2.279	80.0941
2.2731	80.0422
2.2671	80.2616
2.2612	80.2737
2.2553	80.487
2.2494	80.507
2.2435	80.6916
2.2377	80.5821
2.232	80.8151
2.2262	80.6015
2.2205	80.8017
2.2148	81.0221
2.2091	81.2397
2.2035	81.0296
2.1979	81.1036
2.1923	81.1517
2.1868	81.3401
2.1812	81.5709
2.1758	81.8147
2.1703	81.6797
2.1649	81.7218
2.1595	82.0153
2.1541	82.127
2.1487	81.9785
2.1434	82.2467
2.1381	82.4127
2.1328	82.5564
2.1275	82.4913
2.1223	82.8743
2.1171	82.6111
2.112	82.9162
2.1068	82.8218
2.1017	82.9278
2.0966	82.9672
2.0915	82.9086
2.0865	83.1899
2.0814	83.1986
2.0764	83.2828
2.0715	83.5602
2.0665	83.5983
2.0616	82.9711
2.0567	83.2372
2.0518	83.2245
2.0469	83.237
2.0421	83.4889
2.0373	83.351
2.0325	83.3982
2.0277	83.1815
2.0229	83.6192
2.0182	83.7591
2.0135	83.6346
2.0088	84.0832
2.0042	83.7334
