Name: Anhydrite CaSO_4
Type: Mineral
Class: Sulfate
Subclass: None
Particle Size: Fine
Sample No.: SO-1A
Owner: JPL
Wavelength Range: TIR
Origin: Canada, Nova Scotia
Description: Particle size was 0-45um.Collected by Ward's Original ASTER Spectral Library name was jpl.nicolet.mineral.sulfate.none.fine.so01a.spectrum.txt
Measurement: Hemispherical reflectance
X Units: Wavelength (micrometers)
Y Units: Reflectance (percent)
wavelength	value
15.3853	16.7265
15.1161	11.8741
14.8563	8.1918
14.6052	9.7478
14.3624	14.8505
14.1276	10.716
13.9004	12.6595
13.6803	15.4148
13.4671	17.2403
13.2604	19.9653
13.06	23.1472
12.8656	25.7984
12.6769	28.066
12.4936	29.9818
12.3155	31.0334
12.1425	30.0669
11.9742	29.8774
11.8106	28.5553
11.6513	30.5107
11.4963	29.2676
11.3454	26.7444
11.1983	26.3675
11.0551	27.4762
10.9154	28.0912
10.7793	29.3613
10.6465	28.083
10.5169	27.6144
10.3904	26.7289
10.267	25.1879
10.1464	24.0639
10.0287	22.1988
9.9136	19.8006
9.8012	19.7688
9.6913	20.6825
9.5838	20.2824
9.4787	20.0559
9.3758	18.1408
9.2752	14.1469
9.1767	10.3232
9.0803	10.0851
8.9858	10.6925
8.8934	12.4736
8.8028	13.9981
8.714	15.8128
8.627	15.6787
8.5417	15.0624
8.4581	14.6379
8.3761	14.9005
8.2957	17.0916
8.2169	15.4389
8.1395	14.4946
8.0635	11.6677
7.989	6.2812
7.9158	3.5448
7.8439	1.8182
7.7734	1.1482
7.7041	1.3999
7.636	2.2948
7.5691	2.9736
7.5034	3.9421
7.4388	5.3042
7.3753	7.2391
7.3129	9.0743
7.2515	11.2638
7.1912	13.2267
7.1318	14.0676
7.0734	16.2143
7.016	17.2744
6.9595	17.8543
6.9039	12.6223
6.8492	19.8969
6.7953	24.2836
6.7423	26.6693
6.6901	30.1525
6.6387	37.4589
6.5881	38.5839
6.5382	36.7404
6.4892	35.1887
6.4408	35.2532
6.3931	39.4086
6.3462	39.7053
6.2999	37.7204
6.2543	33.4574
6.2094	26.1895
6.1651	17.3171
6.1214	23.9203
6.0784	32.8099
6.0359	36.0754
5.994	37.1193
5.9527	34.1837
5.912	35.2857
5.8718	44.9741
5.8322	52.0581
5.7931	51.6399
5.7545	55.1708
5.7165	57.5414
5.6789	60.164
5.6418	63.9376
5.6052	62.3616
5.5691	58.9918
5.5334	61.6685
5.4982	63.6153
5.4635	66.3585
5.4291	68.4411
5.3952	70.0285
5.3618	70.9103
5.3287	71.4579
5.2961	72.0186
5.2638	72.404
5.2319	73.1284
5.2004	73.9066
5.1693	73.9665
5.1386	73.7359
5.1082	73.048
5.0782	72.3593
5.0485	72.0731
5.0192	71.5847
4.9902	70.9887
4.9616	70.1435
4.9332	66.2264
4.9052	68.5236
4.8776	68.7624
4.8502	67.5925
4.8231	65.9269
4.7963	62.9583
4.7699	57.233
4.7437	48.2757
4.7178	29.7491
4.6922	14.8301
4.6668	16.0318
4.6418	22.7095
4.617	27.5935
4.5924	31.5161
4.5681	35.0651
4.5441	33.0493
4.5203	30.953
4.4968	28.4
4.4735	25.1137
4.4505	26.3735
4.4277	31.7689
4.4051	36.4684
4.3828	36.7049
4.3607	35.8879
4.3388	36.5505
4.3171	40.361
4.2956	41.4271
4.2744	42.4092
4.2534	47.507
4.2325	54.254
4.2119	54.5416
4.1915	55.1417
4.1712	61.2417
4.1512	68.4925
4.1313	71.0611
4.1117	72.7515
4.0922	73.9377
4.0729	74.926
4.0538	75.8269
4.0349	76.1265
4.0161	76.1594
3.9976	74.5311
3.9792	72.3258
3.9609	73.4874
3.9428	75.6142
3.9249	76.6589
3.9072	77.9361
3.8896	78.9093
3.8722	79.3713
3.8549	80.4597
3.8378	80.9893
3.8208	81.242
3.804	80.5889
3.7873	81.1376
3.7708	82.3206
3.7544	83.0564
3.7382	83.3259
3.7221	83.3731
3.7061	83.2824
3.6903	82.8959
3.6746	82.9056
3.659	82.5266
3.6436	82.1606
3.6283	81.9521
3.6131	81.7375
3.5981	81.2997
3.5832	80.8712
3.5684	80.3297
3.5537	79.7152
3.5391	78.9539
3.5247	77.7639
3.5104	76.1833
3.4962	74.7889
3.4821	73.7672
3.4681	73.4934
3.4543	73.2631
3.4405	72.9498
3.4269	72.4102
3.4133	71.5769
3.3999	71.306
3.3866	70.6081
3.3733	69.8078
3.3602	69.0096
3.3472	68.1411
3.3343	67.761
3.3215	67.0427
3.3088	65.8358
3.2961	64.7772
3.2836	63.695
3.2712	62.4882
3.2588	61.1204
3.2466	59.8577
3.2345	58.3695
3.2224	56.9561
3.2104	55.5181
3.1985	53.9254
3.1867	51.9022
3.175	50.1858
3.1634	48.6605
3.1519	46.8342
3.1404	44.9133
3.129	43.339
3.1178	42.0962
3.1065	40.7429
3.0954	39.0923
3.0844	37.3653
3.0734	37.1487
3.0625	36.7685
3.0517	36.0738
3.041	35.3548
3.0303	34.4016
3.0197	33.4901
3.0092	32.6887
2.9987	31.9002
2.9884	31.1228
2.9781	30.3694
2.9678	29.0988
2.9577	28.0651
2.9476	27.0172
2.9376	26.6078
2.9276	26.9508
2.9177	27.2941
2.9079	27.6491
2.8982	26.9565
2.8885	26.6498
2.8789	26.401
2.8693	25.5648
2.8598	26.2874
2.8504	27.9488
2.841	28.5636
2.8317	29.1621
2.8224	30.5456
2.8133	31.7531
2.8041	33.4612
2.7951	34.0514
2.786	37.1639
2.7771	39.3101
2.7682	41.7892
2.7594	44.467
2.7506	48.9607
2.7418	54.4328
2.7332	57.5967
2.7246	62.5752
2.716	65.2237
2.7075	68.6819
2.699	71.4558
2.6906	73.6188
2.6823	75.2167
2.674	76.5115
2.6657	79.3307
2.6575	78.2998
2.6494	79.0805
2.6413	79.7872
2.6332	80.6704
2.6252	80.7214
2.6173	81.8328
2.6094	81.3525
2.6015	81.2607
2.5937	82.9684
2.5859	81.4963
2.5782	81.3702
2.5706	81.5457
2.5629	81.9716
2.5554	81.3407
2.5478	81.7459
2.5403	81.5132
2.5329	81.5497
2.5255	81.7437
2.5181	81.4607
2.5108	81.2391
2.5035	81.2402
2.4963	81.0708
2.4891	81.0564
2.482	81.1352
2.4749	81.198
2.4678	81.4126
2.4608	81.5868
2.4538	81.9319
2.4468	82.081
2.4399	82.2598
2.4331	82.3675
2.4262	82.7669
2.4194	83.1203
2.4127	83.6669
2.4059	84.4003
2.3993	85.0565
2.3926	86.0283
2.386	86.7435
2.3795	87.3744
2.3729	87.8822
2.3664	88.0671
2.36	88.4755
2.3535	88.7901
2.3471	88.9052
2.3408	89.3567
2.3345	89.4563
2.3282	89.5295
2.3219	89.821
2.3157	89.837
2.3095	89.8968
2.3034	90.0482
2.2972	89.9814
2.2911	89.9413
2.2851	89.8063
2.279	89.7915
2.2731	89.6207
2.2671	89.6355
2.2612	89.5038
2.2553	89.7349
2.2494	89.7716
2.2435	89.6527
2.2377	89.8358
2.232	89.5588
2.2262	89.2882
2.2205	88.7831
2.2148	88.8893
2.2091	89.1352
2.2035	89.2317
2.1979	89.639
2.1923	89.3999
2.1868	89.6324
2.1812	89.6931
2.1758	89.7357
2.1703	89.8524
2.1649	89.7821
2.1595	89.9281
2.1541	90.1707
2.1487	90.1125
2.1434	90.1083
2.1381	90.4587
2.1328	90.3415
2.1275	90.6121
2.1223	90.7111
2.1171	90.6379
2.112	90.6556
2.1068	90.7212
2.1017	90.9898
2.0966	91.1988
2.0915	90.9832
2.0865	90.9031
2.0814	91.1245
2.0764	91.0236
2.0715	91.2089
2.0665	90.9888
2.0616	91.1935
2.0567	91.0958
2.0518	90.904
2.0469	91.129
2.0421	90.7521
2.0373	90.7569
2.0325	90.3647
2.0277	90.3086
2.0229	90.2674
2.0182	89.9801
2.0135	89.4131
2.0088	88.9718
2.0042	88.5917
