Name: Andesine (Feldspar) (NaSi,CaAl)AlSi_2O_8
Type: Mineral
Class: Silicate
Subclass: Tectosilicate
Particle Size: Coarse
Sample No.: TS-4A
Owner: JPL
Wavelength Range: TIR
Description: Particle size was 125-500um.Collected by JPL Original ASTER Spectral Library name was jpl.nicolet.mineral.silicate.tectosilicate.coarse.ts04a.spectrum.txt
Measurement: Hemispherical reflectance
X Units: Wavelength (micrometers)
Y Units: Reflectance (percent)
wavelength	value
15.3853	4.8286
15.1161	2.2813
14.8563	1.8445
14.6052	2.1864
14.3624	2.4111
14.1276	3.1014
13.9004	3.0574
13.6803	3.095
13.4671	3.5958
13.2604	3.2781
13.06	2.9935
12.8656	2.9621
12.6769	2.9404
12.4936	2.5492
12.3155	2.7786
12.1425	3.0431
11.9742	3.7285
11.8106	3.8075
11.6513	4.3662
11.4963	4.8729
11.3454	5.295
11.1983	5.9277
11.0551	6.7832
10.9154	7.5565
10.7793	8.6398
10.6465	9.3796
10.5169	10.0944
10.3904	10.9256
10.267	12.3401
10.1464	14.273
10.0287	15.9404
9.9136	17.4829
9.8012	17.6887
9.6913	17.1537
9.5838	15.7768
9.4787	12.6936
9.3758	10.3867
9.2752	9.8728
9.1767	10.1891
9.0803	10.6774
8.9858	11.235
8.8934	12.2626
8.8028	13.063
8.714	13.5554
8.627	13.3427
8.5417	13.2545
8.4581	12.8504
8.3761	12.0873
8.2957	9.9697
8.2169	5.615
8.1395	2.3672
8.0635	0.9125
7.989	0.3886
7.9158	0.2428
7.8439	0.1786
7.7734	0.0506
7.7041	0.0167
7.636	0.1641
7.5691	0.3567
7.5034	0.3601
7.4388	0.4175
7.3753	0.3814
7.3129	0.6333
7.2515	0.6458
7.1912	0.7115
7.1318	0.7233
7.0734	0.8977
7.016	0.9277
6.9595	0.9422
6.9039	0.9435
6.8492	1.0166
6.7953	1.1013
6.7423	1.2013
6.6901	1.1053
6.6387	1.1785
6.5881	1.3329
6.5382	1.2188
6.4892	1.3721
6.4408	1.3455
6.3931	1.4083
6.3462	1.4773
6.2999	1.2839
6.2543	1.3387
6.2094	1.2773
6.1651	1.4609
6.1214	1.5015
6.0784	1.427
6.0359	1.6055
5.994	1.548
5.9527	1.6644
5.912	1.6688
5.8718	1.5798
5.8322	1.6926
5.7931	1.6885
5.7545	1.6672
5.7165	1.7125
5.6789	1.7539
5.6418	1.7741
5.6052	1.7466
5.5691	1.8603
5.5334	1.8621
5.4982	2.0197
5.4635	2.2078
5.4291	2.2625
5.3952	2.4884
5.3618	2.6872
5.3287	2.7982
5.2961	2.969
5.2638	3.0991
5.2319	3.2548
5.2004	3.4449
5.1693	3.8319
5.1386	4.1983
5.1082	4.6893
5.0782	5.1472
5.0485	5.8627
5.0192	6.5047
4.9902	6.9489
4.9616	7.3886
4.9332	7.8076
4.9052	8.1511
4.8776	8.4804
4.8502	8.6642
4.8231	9.0604
4.7963	9.2298
4.7699	9.5108
4.7437	9.8204
4.7178	10.366
4.6922	10.9262
4.6668	11.5564
4.6418	12.598
4.617	13.8913
4.5924	15.1931
4.5681	16.58
4.5441	18.0574
4.5203	19.7743
4.4968	21.4509
4.4735	23.3778
4.4505	25.2419
4.4277	26.942
4.4051	28.7991
4.3828	30.9189
4.3607	32.9588
4.3388	35.2991
4.3171	37.7018
4.2956	40.0906
4.2744	42.3735
4.2534	44.6472
4.2325	46.8969
4.2119	49.0101
4.1915	50.7321
4.1712	52.2125
4.1512	53.2748
4.1313	54.0302
4.1117	54.8355
4.0922	55.2525
4.0729	55.5912
4.0538	55.8308
4.0349	55.7051
4.0161	55.4718
3.9976	54.5267
3.9792	54.1258
3.9609	55.0051
3.9428	56.7338
3.9249	57.5211
3.9072	58.1975
3.8896	58.7064
3.8722	59.2876
3.8549	59.7677
3.8378	60.4274
3.8208	61.3236
3.804	62.3598
3.7873	63.0513
3.7708	63.707
3.7544	64.1411
3.7382	64.4023
3.7221	64.708
3.7061	64.8839
3.6903	65.0198
3.6746	65.217
3.659	65.2883
3.6436	65.3231
3.6283	65.1695
3.6131	65.0038
3.5981	64.6468
3.5832	64.1957
3.5684	63.6698
3.5537	63.1734
3.5391	62.4026
3.5247	61.2754
3.5104	59.3898
3.4962	58.0971
3.4821	57.4888
3.4681	57.674
3.4543	57.59
3.4405	56.6538
3.4269	55.3753
3.4133	53.7504
3.3999	53.4489
3.3866	52.8448
3.3733	51.7602
3.3602	51.6607
3.3472	51.1953
3.3343	51.2464
3.3215	50.4222
3.3088	49.6925
3.2961	48.8219
3.2836	47.7332
3.2712	46.7274
3.2588	45.7118
3.2466	44.6672
3.2345	43.5693
3.2224	42.6693
3.2104	41.5426
3.1985	40.5241
3.1867	39.3308
3.175	38.188
3.1634	37.0651
3.1519	35.9559
3.1404	34.9282
3.129	33.9286
3.1178	33.0166
3.1065	32.1197
3.0954	31.2774
3.0844	30.7892
3.0734	30.1659
3.0625	29.7187
3.0517	29.0739
3.041	28.7596
3.0303	28.3891
3.0197	27.8597
3.0092	27.4199
2.9987	26.9958
2.9884	26.559
2.9781	26.135
2.9678	25.7024
2.9577	25.4401
2.9476	25.15
2.9376	24.9837
2.9276	25.0083
2.9177	24.8525
2.9079	25.1045
2.8982	25.2059
2.8885	25.2123
2.8789	25.5311
2.8693	25.7789
2.8598	25.9184
2.8504	26.1577
2.841	25.9818
2.8317	26.3992
2.8224	26.3727
2.8133	26.1457
2.8041	25.9774
2.7951	25.3188
2.786	23.9289
2.7771	22.1752
2.7682	19.8964
2.7594	18.4952
2.7506	19.1745
2.7418	20.5391
2.7332	22.3562
2.7246	26.0028
2.716	32.4775
2.7075	40.9791
2.699	49.2817
2.6906	58.6444
2.6823	65.0458
2.674	67.8791
2.6657	70.165
2.6575	70.5755
2.6494	71.5883
2.6413	72.0538
2.6332	72.3832
2.6252	72.5337
2.6173	73.027
2.6094	73.0733
2.6015	73.3356
2.5937	74.0632
2.5859	73.9685
2.5782	73.8814
2.5706	74.1575
2.5629	74.4874
2.5554	74.1521
2.5478	74.288
2.5403	74.3415
2.5329	74.5071
2.5255	74.5078
2.5181	74.3438
2.5108	74.3283
2.5035	74.2647
2.4963	74.2588
2.4891	74.1132
2.482	74.2129
2.4749	74.2297
2.4678	74.261
2.4608	74.0926
2.4538	74.2614
2.4468	73.9552
2.4399	74.0029
2.4331	74.0916
2.4262	74.6953
2.4194	74.9765
2.4127	75.4609
2.4059	75.7689
2.3993	76.0815
2.3926	76.1016
2.386	76.4477
2.3795	76.1799
2.3729	76.3779
2.3664	76.4931
2.36	76.2625
2.3535	75.9428
2.3471	75.8525
2.3408	76.0981
2.3345	76.3724
2.3282	76.8961
2.3219	77.3431
2.3157	77.699
2.3095	77.9879
2.3034	78.4144
2.2972	78.7195
2.2911	78.6199
2.2851	78.8864
2.279	78.9125
2.2731	78.9733
2.2671	78.9465
2.2612	78.8496
2.2553	78.6002
2.2494	78.5244
2.2435	78.3696
2.2377	78.4095
2.232	78.3189
2.2262	77.9398
2.2205	77.4448
2.2148	76.8374
2.2091	76.044
2.2035	75.3381
2.1979	75.119
2.1923	75.3082
2.1868	76.3521
2.1812	77.1409
2.1758	78.085
2.1703	78.6842
2.1649	78.873
2.1595	79.1127
2.1541	79.3473
2.1487	79.4007
2.1434	79.6107
2.1381	79.7637
2.1328	79.5694
2.1275	79.7781
2.1223	79.7584
2.1171	79.7302
2.112	79.6011
2.1068	79.8047
2.1017	79.8592
2.0966	80.1096
2.0915	79.704
2.0865	79.691
2.0814	79.5053
2.0764	79.6977
2.0715	79.8698
2.0665	79.6548
2.0616	79.5093
2.0567	79.5389
2.0518	79.1203
2.0469	79.4664
2.0421	79.1493
2.0373	79.1602
2.0325	79.3329
2.0277	79.0014
2.0229	79.3103
2.0182	79.0054
2.0135	78.6335
2.0088	78.6917
2.0042	78.6082
