Name: Tremolite Ca_2(Mg,Fe^2+)_5Si_8O_22(OH)_2
Type: Mineral
Class: Silicate
Subclass: Inosilicate
Particle Size: Coarse
Sample No.: IN-5A
Owner: JPL
Wavelength Range: TIR
Origin: N/A
Description: Particle size was 125-500um.Collected by JPL Original ASTER Spectral Library name was jpl.nicolet.mineral.silicate.inosilicate.coarse.in05a.spectrum.txt
Measurement: Hemispherical reflectance
X Units: Wavelength (micrometers)
Y Units: Reflectance (percent)
wavelength	value
15.3853	1.554
15.1161	2.7361
14.8563	3.5599
14.6052	6.0544
14.3624	3.4354
14.1276	2.0802
13.9004	2.4447
13.6803	2.7929
13.4671	4.032
13.2604	7.1313
13.06	8.4777
12.8656	1.9447
12.6769	2.58
12.4936	3.1345
12.3155	3.8756
12.1425	4.322
11.9742	4.6738
11.8106	5.264
11.6513	6.1133
11.4963	6.6359
11.3454	7.6697
11.1983	8.5852
11.0551	10.2968
10.9154	14.244
10.7793	11.8833
10.6465	12.2851
10.5169	21.5057
10.3904	25.8898
10.267	28.411
10.1464	33.7273
10.0287	35.7961
9.9136	32.3277
9.8012	23.7497
9.6913	18.1739
9.5838	20.2453
9.4787	21.6974
9.3758	22.1538
9.2752	22.6737
9.1767	21.0227
9.0803	16.9519
8.9858	11.9651
8.8934	11.1658
8.8028	14.6989
8.714	15.8137
8.627	12.0651
8.5417	4.5884
8.4581	2.1412
8.3761	0.9822
8.2957	1.0215
8.2169	0.9733
8.1395	0.8068
8.0635	0.7761
7.989	0.9327
7.9158	0.9217
7.8439	1.1328
7.7734	1.0978
7.7041	1.4454
7.636	1.4747
7.5691	1.6708
7.5034	1.6118
7.4388	1.8146
7.3753	1.9716
7.3129	2.1591
7.2515	2.2041
7.1912	2.5602
7.1318	3.0313
7.0734	3.7091
7.016	4.0005
6.9595	4.491
6.9039	4.7533
6.8492	4.8698
6.7953	5.1102
6.7423	5.3107
6.6901	5.5431
6.6387	6.1442
6.5881	6.6384
6.5382	6.8956
6.4892	6.7354
6.4408	6.0082
6.3931	5.2449
6.3462	4.6054
6.2999	3.7432
6.2543	3.3476
6.2094	3.0643
6.1651	2.999
6.1214	2.9988
6.0784	3.3084
6.0359	3.7189
5.994	3.9216
5.9527	3.5184
5.912	3.4005
5.8718	3.7324
5.8322	4.138
5.7931	4.4698
5.7545	4.7182
5.7165	5.1497
5.6789	5.0706
5.6418	5.129
5.6052	5.2379
5.5691	5.1558
5.5334	5.713
5.4982	5.9007
5.4635	5.6589
5.4291	6.0946
5.3952	6.8119
5.3618	7.0064
5.3287	6.8251
5.2961	7.3163
5.2638	7.7556
5.2319	8.4146
5.2004	9.4758
5.1693	8.6694
5.1386	7.5196
5.1082	7.4009
5.0782	7.5439
5.0485	7.7626
5.0192	8.4666
4.9902	9.3025
4.9616	9.8087
4.9332	10.7919
4.9052	11.7225
4.8776	12.1777
4.8502	12.6661
4.8231	12.8677
4.7963	13.0575
4.7699	14.7651
4.7437	16.9547
4.7178	18.478
4.6922	19.3533
4.6668	21.2372
4.6418	23.5541
4.617	26.8169
4.5924	29.3123
4.5681	31.7763
4.5441	35.4526
4.5203	38.5119
4.4968	41.8387
4.4735	44.8086
4.4505	47.1127
4.4277	48.8452
4.4051	49.9164
4.3828	50.916
4.3607	51.5728
4.3388	51.7503
4.3171	52.0966
4.2956	52.5862
4.2744	52.9819
4.2534	53.2644
4.2325	53.8862
4.2119	53.9722
4.1915	54.0848
4.1712	54.147
4.1512	54.1668
4.1313	54.1635
4.1117	54.0435
4.0922	53.8898
4.0729	53.5102
4.0538	52.3622
4.0349	49.3346
4.0161	46.5417
3.9976	42.5969
3.9792	40.7969
3.9609	41.9036
3.9428	45.2051
3.9249	47.0335
3.9072	48.0478
3.8896	48.7037
3.8722	49.0459
3.8549	49.5128
3.8378	50.4287
3.8208	52.7955
3.804	55.8994
3.7873	60.1928
3.7708	61.8366
3.7544	62.6683
3.7382	63.6822
3.7221	64.3164
3.7061	64.3871
3.6903	60.1818
3.6746	64.0571
3.659	63.855
3.6436	63.6744
3.6283	63.805
3.6131	63.6883
3.5981	63.2629
3.5832	61.8139
3.5684	60.2358
3.5537	59.3917
3.5391	57.0139
3.5247	52.5063
3.5104	48.1125
3.4962	46.484
3.4821	45.153
3.4681	46.4694
3.4543	48.075
3.4405	47.973
3.4269	46.7531
3.4133	45.0837
3.3999	43.6579
3.3866	42.1565
3.3733	40.1991
3.3602	38.9875
3.3472	35.4908
3.3343	40.4173
3.3215	42.5362
3.3088	41.7033
3.2961	44.8996
3.2836	50.9325
3.2712	54.3883
3.2588	54.7676
3.2466	54.4219
3.2345	53.3477
3.2224	52.931
3.2104	52.2264
3.1985	50.4557
3.1867	47.0539
3.175	44.036
3.1634	44.708
3.1519	46.4859
3.1404	48.4914
3.129	48.155
3.1178	46.8962
3.1065	46.788
3.0954	46.5814
3.0844	46.1339
3.0734	45.4705
3.0625	45.381
3.0517	44.296
3.041	43.8031
3.0303	43.5132
3.0197	43.3017
3.0092	42.4864
2.9987	41.9234
2.9884	41.6752
2.9781	41.1068
2.9678	40.6481
2.9577	41.2173
2.9476	41.3293
2.9376	40.8471
2.9276	40.741
2.9177	40.3206
2.9079	40.0503
2.8982	39.883
2.8885	39.9138
2.8789	40.3589
2.8693	40.0402
2.8598	40.3581
2.8504	40.4082
2.841	41.3942
2.8317	41.2176
2.8224	41.4817
2.8133	40.8005
2.8041	40.7272
2.7951	39.8838
2.786	39.4758
2.7771	37.9906
2.7682	34.0493
2.7594	36.3877
2.7506	38.434
2.7418	32.5662
2.7332	18.1317
2.7246	8.6723
2.716	19.2767
2.7075	36.0568
2.699	31.7769
2.6906	29.7393
2.6823	47.6866
2.674	51.0553
2.6657	65.963
2.6575	64.3449
2.6494	65.1857
2.6413	62.3289
2.6332	60.9783
2.6252	60.325
2.6173	60.196
2.6094	58.5742
2.6015	56.9455
2.5937	57.9975
2.5859	55.9229
2.5782	55.8776
2.5706	51.754
2.5629	51.113
2.5554	50.7464
2.5478	53.9799
2.5403	54.1554
2.5329	53.5311
2.5255	54.7865
2.5181	51.0938
2.5108	50.8613
2.5035	50.8956
2.4963	49.0407
2.4891	48.8369
2.482	47.5195
2.4749	47.4836
2.4678	46.903
2.4608	45.1844
2.4538	48.4079
2.4468	48.8938
2.4399	47.4762
2.4331	54.8256
2.4262	54.6225
2.4194	49.4253
2.4127	50.9746
2.4059	53.3654
2.3993	48.1387
2.3926	36.0448
2.386	30.2904
2.3795	34.4647
2.3729	43.1723
2.3664	49.169
2.36	55.4468
2.3535	55.2636
2.3471	59.2028
2.3408	61.7005
2.3345	59.0742
2.3282	49.6804
2.3219	28.8973
2.3157	24.7793
2.3095	27.5072
2.3034	30.1675
2.2972	26.931
2.2911	33.9003
2.2851	39.7819
2.279	43.4667
2.2731	48.838
2.2671	54.514
2.2612	62.4719
2.2553	66.6501
2.2494	68.4992
2.2435	69.0818
2.2377	70.3955
2.232	71.7473
2.2262	71.8569
2.2205	71.7869
2.2148	72.0972
2.2091	72.1938
2.2035	71.9186
2.1979	72.0902
2.1923	71.8329
2.1868	71.677
2.1812	70.9381
2.1758	70.8897
2.1703	71.4284
2.1649	71.3699
2.1595	70.2559
2.1541	69.9654
2.1487	68.5857
2.1434	68.4278
2.1381	69.6868
2.1328	65.953
2.1275	65.7566
2.1223	65.7327
2.1171	65.8292
2.112	63.0442
2.1068	65.7955
2.1017	71.548
2.0966	71.9067
2.0915	71.5098
2.0865	71.2117
2.0814	71.5894
2.0764	72.4094
2.0715	72.6454
2.0665	73.1177
2.0616	73.2616
2.0567	72.9321
2.0518	73.4459
2.0469	74.2713
2.0421	75.2336
2.0373	76.0867
2.0325	76.5379
2.0277	76.722
2.0229	76.2573
2.0182	75.3129
2.0135	75.0472
2.0088	74.8957
2.0042	75.0721
