Name: Staurolite (Fe+2,Mg,Zn)2Al9(Si,Al)4O22(OH)2
Type: Mineral
Class: Silicate
Subclass: Nesosilicate
Particle Size: Fine
Sample No.: staurol_1
Owner: JHU
Wavelength Range: TIR
Origin: Rubellita, Minas Gerais, Brazil via the Smithsonian (sample no.NMNH 143312)
Description: Sample was a large, dark brown, prismatic crystal with good faces, weighing 50.6 g. Some (10%) surface contamination with muscovite and possible quartz was removed by scraping. Small (<0.5 mm) inclusions were scattered throughout the interior of the crystal, some opaque and some not. Such inclusions are typical of this metamorphic mineral and a purer sample could not be found. Particle size was less than 2 Micrometers.(Framework silicates) Original ASTER Spectral Library name was jhu.nicolet.mineral.silicate.nesosilicate.powder.stauro1.spectrum.txt
Measurement: Transmission
X Units: Wavelength (micrometers)
Y Units: Transmittance (percent)
wavelength	value
25.0442	54.3358
24.3388	49.9999
23.6719	40.5976
23.0407	36.9628
22.4422	46.6249
21.8741	44.9081
21.334	38.2538
20.8199	32.1034
20.33	30.3202
19.8627	32.9355
19.4163	33.4657
18.9896	32.6679
18.5812	31.7109
18.19	31.5907
17.815	32.4355
17.4551	30.4745
17.1094	26.5644
16.7772	25.4296
16.4576	26.2587
16.15	26.6308
15.8537	26.747
15.568	26.8017
15.2925	28.4833
15.0265	30.454
14.7697	32.412
14.5214	33.7489
14.2814	35.8427
14.0492	38.7382
13.8244	45.5643
13.6067	53.2093
13.3957	59.0648
13.1912	63.5037
12.9929	68.4241
12.8004	70.9666
12.6135	71.6937
12.432	70.1741
12.2557	62.9754
12.0843	54.5135
11.9176	49.5585
11.7555	47.6508
11.5977	49.0258
11.444	48.0863
11.2944	45.4579
11.1487	42.5858
11.0067	41.2118
10.8682	38.3637
10.7332	35.6132
10.6015	34.3793
10.473	33.37
10.3476	32.2426
10.2251	32.7626
10.1056	33.788
9.9887	34.8319
9.8746	35.0785
9.763	35.0434
9.6539	38.4984
9.5472	45.2557
9.4429	51.6644
9.3408	56.2894
9.2409	59.9784
9.1431	62.9334
9.0474	66.0824
8.9536	69.3245
8.8618	71.7693
8.7718	73.8851
8.6837	75.5003
8.5973	76.889
8.5126	78.5682
8.4295	80.4212
8.3481	82.0867
8.2682	83.7295
8.1898	85.1797
8.1129	86.3455
8.0374	87.3753
7.9634	88.2178
7.8906	89.0078
7.8192	89.8008
7.7491	90.5449
7.6802	91.158
7.6126	91.6621
7.5461	92.1765
7.4807	92.6589
7.4165	93.0706
7.3534	93.4512
7.2914	93.781
7.2303	94.0996
7.1703	94.1829
7.1113	94.5293
7.0533	94.9883
6.9962	95.3096
6.94	95.4417
6.8847	95.8115
6.8302	96.2148
6.7767	96.5544
6.7239	96.8887
6.672	97.1072
6.6209	97.2627
6.5705	97.4802
6.5209	97.5537
6.4721	97.6445
6.424	97.6445
6.3766	97.6609
6.3299	97.6824
6.2838	97.6501
6.2385	97.5828
6.1937	97.7195
6.1496	97.9834
6.1062	98.0293
6.0633	97.9412
6.0211	97.4014
5.9794	97.2187
5.9383	97.8125
5.8978	98.1357
5.8578	98.1804
5.8184	98.081
5.7794	98.0188
5.741	98.0085
5.7031	97.8769
5.6657	97.7178
5.6288	97.5857
5.5924	97.4365
5.5564	97.2932
5.5209	97.1328
5.4859	96.9919
5.4513	96.9099
5.4171	96.875
5.3833	96.697
5.35	96.6257
5.3171	96.5642
5.2846	96.49
5.2524	96.5088
5.2207	96.418
5.1893	96.3679
5.1584	96.3633
5.1277	96.2976
5.0975	96.2637
5.0676	96.2048
5.038	96.1248
5.0088	96.0557
4.98	95.9822
4.9514	95.9768
4.9232	95.8826
4.8953	95.801
4.8678	95.7283
4.8405	95.5886
4.8135	95.5085
4.7868	95.3982
4.7605	95.2664
4.7344	95.0901
4.7086	94.9441
4.6831	94.8015
4.6578	94.6663
4.6328	94.5671
4.6081	94.4031
4.5837	94.2854
4.5595	94.1565
4.5356	93.9993
4.5119	93.8494
4.4884	93.6755
4.4652	93.5525
4.4423	93.4124
4.4196	93.2488
4.3971	93.0974
4.3748	93.0159
4.3528	92.8743
4.331	92.6902
4.3094	92.5569
4.288	92.428
4.2668	92.2835
4.2458	92.1838
4.2251	92.0369
4.2045	91.8679
4.1841	91.7156
4.164	91.5994
4.144	91.4607
4.1242	91.2781
4.1046	91.1633
4.0852	90.9988
4.066	90.8953
4.047	90.7796
4.0281	90.6121
4.0094	90.5252
3.9909	90.3206
3.9725	90.1541
3.9544	90.0408
3.9363	89.8718
3.9185	89.8225
3.9008	89.6638
3.8833	89.5466
3.8659	89.3132
3.8487	89.2424
3.8316	89.0584
3.8147	88.908
3.7979	88.7581
3.7813	88.531
3.7648	88.4319
3.7485	88.3465
3.7323	88.159
3.7162	88.0183
3.7003	87.7957
3.6845	87.6521
3.6689	87.4807
3.6534	87.4182
3.638	87.2625
3.6227	87.0886
3.6076	86.9119
3.5926	86.7488
3.5777	86.676
3.563	86.4768
3.5484	86.2732
3.5338	86.1233
3.5195	85.9397
3.5052	85.7361
3.491	85.6013
3.477	85.4514
3.463	85.2366
3.4492	85.0652
3.4355	84.9363
3.4219	84.7371
3.4084	84.6038
3.395	84.4207
3.3817	84.2151
3.3685	84.0408
3.3554	83.8357
3.3425	83.6917
3.3296	83.5506
3.3168	83.3929
3.3041	83.2249
3.2915	83.0584
3.279	82.7898
3.2666	82.6678
3.2543	82.4163
3.2421	82.1585
3.23	81.9275
3.218	81.6858
3.206	81.4881
3.1942	81.282
3.1824	81.1023
3.1707	80.8523
3.1591	80.6375
3.1476	80.4627
3.1362	80.1892
3.1249	80.0183
3.1136	79.8719
3.1024	79.6092
3.0913	79.5076
3.0803	79.2381
3.0694	79.1062
3.0585	78.7752
3.0477	78.535
3.037	78.1541
3.0264	77.7205
3.0158	77.2869
3.0053	76.7654
2.9949	76.4119
2.9845	76.0721
2.9743	75.6609
2.9641	75.2039
2.9539	74.4002
2.9439	73.0936
2.9339	71.7635
2.9239	71.3299
2.9141	71.7264
2.9043	72.5584
2.8946	73.3377
2.8849	74.0193
2.8753	75.2977
2.8658	77.325
2.8563	78.8758
2.8469	79.5135
2.8375	79.5125
2.8282	79.3055
2.819	79.2322
2.8098	78.8523
2.8007	78.2664
2.7917	78.2869
2.7827	78.5525
2.7738	78.6092
2.7649	78.3758
2.7561	77.8338
2.7473	77.4783
2.7386	76.8084
2.7299	76.367
2.7213	76.0281
2.7128	76.5867
2.7043	78.0115
2.6959	78.157
2.6875	78.0877
2.6791	77.9539
2.6709	77.533
2.6626	77.2977
2.6545	77.1639
2.6463	77.035
2.6382	76.9842
2.6302	76.783
2.6222	76.7264
2.6143	76.6307
2.6064	76.5477
2.5986	76.3943
2.5908	76.4119
2.583	76.3123
2.5753	76.2322
2.5677	75.9705
2.5601	75.9217
2.5525	75.9021
2.545	75.8533
2.5375	75.7674
2.5301	75.6756
2.5227	75.4432
2.5154	75.4842
2.5081	75.4275
2.5008	75.2518
2.4936	75.2303
2.4864	75.2342
2.4793	75.2244
2.4722	75.0252
2.4651	74.8143
2.4581	74.8377
2.4511	74.7889
2.4442	74.7342
2.4373	74.6834
2.4305	74.5272
2.4236	74.4061
2.4169	74.4764
2.4101	74.4158
2.4034	74.4315
2.3967	74.0701
2.3901	73.9705
2.3835	74.0115
2.377	73.9002
2.3704	73.8065
2.364	73.6639
2.3575	73.5193
2.3511	73.7049
2.3447	73.6717
2.3384	73.367
2.3321	73.2674
2.3258	73.1268
2.3195	73.4217
2.3133	73.6033
2.3071	73.4002
2.301	72.9608
2.2949	73.0018
2.2888	73.0643
2.2828	72.9764
2.2767	72.7068
2.2708	72.6111
2.2648	72.6033
2.2589	72.5936
2.253	72.5174
2.2471	72.533
2.2413	72.4529
2.2355	72.1795
2.2297	72.3201
2.224	72.0799
2.2183	72.1014
2.2126	72.0389
2.207	71.6326
2.2013	71.8045
2.1957	71.9764
2.1902	71.6248
2.1846	71.4217
2.1791	71.4764
2.1736	71.5936
2.1682	71.449
2.1628	71.7733
2.1574	71.3826
2.152	71.0389
2.1466	70.9334
2.1413	70.8436
2.136	70.7225
2.1308	70.9256
2.1255	70.7889
2.1203	70.8553
2.1151	70.867
2.11	70.6131
2.1048	70.492
2.0997	70.6444
2.0946	70.5233
2.0895	70.5858
2.0845	70.4569
2.0795	70.1483
