Name: Sepiolite Mg_4Si_6O_15(OH)_2.6H_2O
Type: Mineral
Class: Silicate
Subclass: Phyllosilicate
Particle Size: Coarse
Sample No.: PS-5A
Owner: JPL
Wavelength Range: TIR
Origin: USA, Nevada, Two Crows
Description: Particle size was 125-500um.Collected by Clay Mineral Society Original ASTER Spectral Library name was jpl.nicolet.mineral.silicate.phyllosilicate.coarse.ps05a.spectrum.txt
Measurement: Hemispherical reflectance
X Units: Wavelength (micrometers)
Y Units: Reflectance (percent)
wavelength	value
15.3853	0.5821
15.1161	0.4176
14.8563	0.3869
14.6052	0.0505
14.3624	0.2539
14.1276	0.3097
13.9004	0.1555
13.6803	0.4771
13.4671	0.5365
13.2604	0.6548
13.06	0.5123
12.8656	0.6401
12.6769	0.5525
12.4936	0.7041
12.3155	0.6092
12.1425	0.6478
11.9742	1.1261
11.8106	1.1584
11.6513	1.0261
11.4963	1.1863
11.3454	1.1971
11.1983	1.4126
11.0551	1.7351
10.9154	1.9945
10.7793	2.2273
10.6465	2.479
10.5169	2.9079
10.3904	3.5841
10.267	5.1481
10.1464	4.7165
10.0287	3.6761
9.9136	5.9494
9.8012	7.7435
9.6913	9.2361
9.5838	7.8064
9.4787	6.6974
9.3758	4.4922
9.2752	2.0465
9.1767	2.1693
9.0803	2.1596
8.9858	1.2924
8.8934	1.1584
8.8028	0.6751
8.714	0.4466
8.627	0.3694
8.5417	0.1544
8.4581	0.1931
8.3761	0.197
8.2957	0.2074
8.2169	0.245
8.1395	0.2384
8.0635	0.1472
7.989	0.1688
7.9158	0.0591
7.8439	0.1826
7.7734	0.2223
7.7041	0.2328
7.636	0.1635
7.5691	0.2832
7.5034	0.3297
7.4388	0.4824
7.3753	0.4835
7.3129	0.4963
7.2515	0.5121
7.1912	0.5761
7.1318	0.6915
7.0734	0.8192
7.016	0.6967
6.9595	0.7784
6.9039	0.9838
6.8492	1.0838
6.7953	1.0229
6.7423	1.132
6.6901	1.2399
6.6387	1.2407
6.5881	1.235
6.5382	1.2028
6.4892	1.4002
6.4408	1.2595
6.3931	1.1794
6.3462	1.0434
6.2999	0.9205
6.2543	0.6293
6.2094	0.5125
6.1651	0.3457
6.1214	0.4459
6.0784	0.3869
6.0359	0.4479
5.994	0.3348
5.9527	0.419
5.912	0.4945
5.8718	0.8172
5.8322	1.093
5.7931	1.5089
5.7545	1.7756
5.7165	1.9192
5.6789	2.1404
5.6418	2.2113
5.6052	2.3525
5.5691	2.5096
5.5334	2.7668
5.4982	2.8886
5.4635	3.1652
5.4291	3.5362
5.3952	3.7975
5.3618	3.8106
5.3287	3.8279
5.2961	3.634
5.2638	3.5944
5.2319	3.5378
5.2004	3.8438
5.1693	4.1594
5.1386	4.4444
5.1082	4.4776
5.0782	4.5512
5.0485	4.3654
5.0192	4.4693
4.9902	4.5283
4.9616	4.7266
4.9332	4.8358
4.9052	4.7999
4.8776	4.8457
4.8502	4.7764
4.8231	4.9309
4.7963	4.9174
4.7699	5.1291
4.7437	5.2071
4.7178	5.3227
4.6922	5.4327
4.6668	5.7108
4.6418	6.0735
4.617	6.1306
4.5924	6.4177
4.5681	6.6681
4.5441	6.6224
4.5203	6.7252
4.4968	6.6471
4.4735	6.7342
4.4505	6.8745
4.4277	7.1459
4.4051	7.6315
4.3828	8.2305
4.3607	8.7947
4.3388	9.4578
4.3171	10.1071
4.2956	10.8442
4.2744	11.5529
4.2534	12.3399
4.2325	13.1474
4.2119	13.9602
4.1915	14.6663
4.1712	15.4316
4.1512	16.0674
4.1313	16.7268
4.1117	17.1988
4.0922	17.7118
4.0729	18.4084
4.0538	19.203
4.0349	20.0543
4.0161	20.9111
3.9976	21.6926
3.9792	22.2061
3.9609	22.7548
3.9428	23.2873
3.9249	23.6191
3.9072	23.9766
3.8896	24.1203
3.8722	24.1147
3.8549	24.2195
3.8378	24.1019
3.8208	23.6194
3.804	23.5497
3.7873	23.2415
3.7708	22.8845
3.7544	22.3206
3.7382	21.8141
3.7221	21.3872
3.7061	20.4739
3.6903	19.7328
3.6746	18.7955
3.659	18.0094
3.6436	17.1238
3.6283	16.2851
3.6131	15.4974
3.5981	14.5844
3.5832	13.7465
3.5684	12.7414
3.5537	11.7757
3.5391	11.1382
3.5247	10.1037
3.5104	9.2083
3.4962	8.3249
3.4821	7.7589
3.4681	7.0827
3.4543	6.1971
3.4405	5.671
3.4269	5.1299
3.4133	4.5725
3.3999	4.1393
3.3866	3.7158
3.3733	3.3899
3.3602	2.9961
3.3472	2.8506
3.3343	2.4741
3.3215	2.277
3.3088	2.0827
3.2961	1.8836
3.2836	1.6132
3.2712	1.4454
3.2588	1.3764
3.2466	1.1846
3.2345	1.1324
3.2224	0.9626
3.2104	0.9618
3.1985	1.0003
3.1867	0.9748
3.175	0.9283
3.1634	0.9351
3.1519	0.8098
3.1404	0.8004
3.129	0.764
3.1178	0.6825
3.1065	0.7443
3.0954	0.6623
3.0844	0.6112
3.0734	0.7779
3.0625	0.6629
3.0517	0.7936
3.041	0.7283
3.0303	0.7794
3.0197	0.6695
3.0092	0.5781
2.9987	0.609
2.9884	0.6144
2.9781	0.6077
2.9678	0.4312
2.9577	0.4504
2.9476	0.633
2.9376	0.4056
2.9276	0.7257
2.9177	0.6184
2.9079	0.586
2.8982	0.4396
2.8885	0.6612
2.8789	0.5986
2.8693	0.5928
2.8598	0.7112
2.8504	0.6491
2.841	0.8164
2.8317	0.4856
2.8224	0.6756
2.8133	0.5806
2.8041	0.5257
2.7951	0.3934
2.786	0.8234
2.7771	0.4873
2.7682	0.6889
2.7594	0.5742
2.7506	0.5942
2.7418	0.4305
2.7332	0.9241
2.7246	1.1062
2.716	1.1188
2.7075	1.2137
2.699	3.0793
2.6906	4.0979
2.6823	6.8343
2.674	8.6428
2.6657	10.1863
2.6575	11.745
2.6494	13.0137
2.6413	14.3799
2.6332	14.8705
2.6252	15.9865
2.6173	16.8089
2.6094	17.497
2.6015	17.9945
2.5937	18.301
2.5859	18.3736
2.5782	18.6027
2.5706	18.4462
2.5629	18.4211
2.5554	18.3838
2.5478	18.3825
2.5403	18.1359
2.5329	18.2063
2.5255	18.2552
2.5181	18.5296
2.5108	19.3478
2.5035	19.8771
2.4963	20.7309
2.4891	21.7689
2.482	22.5014
2.4749	23.3861
2.4678	24.2752
2.4608	24.7999
2.4538	25.1806
2.4468	25.7865
2.4399	25.6278
2.4331	26.1801
2.4262	26.566
2.4194	27.1381
2.4127	27.2444
2.4059	28.1465
2.3993	28.6004
2.3926	28.0193
2.386	28.8478
2.3795	30.8207
2.3729	33.5646
2.3664	35.135
2.36	36.6695
2.3535	38.1544
2.3471	39.4703
2.3408	40.9119
2.3345	41.3865
2.3282	39.8165
2.3219	36.3875
2.3157	33.3684
2.3095	34.0846
2.3034	38.8269
2.2972	39.7987
2.2911	40.6107
2.2851	43.4798
2.279	47.1007
2.2731	49.1149
2.2671	50.1715
2.2612	51.1874
2.2553	52.0533
2.2494	52.6086
2.2435	52.8296
2.2377	53.2784
2.232	53.1311
2.2262	53.2718
2.2205	53.5668
2.2148	53.9697
2.2091	54.6568
2.2035	55.0907
2.1979	55.1063
2.1923	54.8982
2.1868	54.3463
2.1812	55.0453
2.1758	55.4579
2.1703	55.8987
2.1649	56.0863
2.1595	56.1431
2.1541	56.3935
2.1487	56.2558
2.1434	56.2359
2.1381	56.7004
2.1328	56.6585
2.1275	56.4108
2.1223	56.2115
2.1171	55.8551
2.112	55.9422
2.1068	55.3913
2.1017	55.3846
2.0966	54.9338
2.0915	54.4948
2.0865	54.5349
2.0814	54.2259
2.0764	54.0102
2.0715	53.5849
2.0665	53.0296
2.0616	53.2003
2.0567	52.5854
2.0518	52.5481
2.0469	52.1955
2.0421	51.484
2.0373	50.9478
2.0325	50.0361
2.0277	49.6871
2.0229	48.6623
2.0182	47.3898
2.0135	46.2046
2.0088	44.8893
2.0042	43.8197
