Name: Labradorite (Feldspar) (NaSi,CaAl)AlSi_2O_8
Type: Mineral
Class: Silicate
Subclass: Tectosilicate
Particle Size: Coarse
Sample No.: TS-2B
Owner: JPL
Wavelength Range: VSWIR
Origin: Canada, Quebec, Lake St. John
Description: Particle size was 125-500um.Collected by Ward's Original ASTER Spectral Library name was jpl.beckman.mineral.silicate.tectosilicate.coarse.ts02b.spectrum.txt
Measurement: Hemispherical reflectance
X Units: Wavelength (micrometers)
Y Units: Reflectance (percent)
wavelength	value
0.4	9.65
0.403	9.6
0.406	9.54
0.409	9.6
0.412	9.68
0.415	9.72
0.418	9.58
0.421	9.56
0.424	9.64
0.427	9.65
0.43	9.51
0.433	9.51
0.436	9.64
0.439	9.6
0.442	9.51
0.445	9.45
0.448	9.59
0.451	9.46
0.454	9.49
0.457	9.62
0.46	9.56
0.463	9.56
0.466	9.39
0.469	9.32
0.472	9.49
0.475	9.54
0.478	9.53
0.481	9.38
0.484	9.49
0.487	9.52
0.49	9.37
0.493	9.33
0.496	9.57
0.499	9.53
0.502	9.39
0.505	9.39
0.508	9.57
0.511	9.51
0.514	9.45
0.517	9.44
0.52	9.52
0.523	9.54
0.526	9.37
0.529	9.55
0.532	9.53
0.535	9.45
0.538	9.43
0.541	9.57
0.544	9.58
0.547	9.58
0.55	9.59
0.553	9.63
0.556	9.73
0.559	9.81
0.562	9.97
0.565	9.88
0.568	9.83
0.571	10.09
0.574	9.95
0.577	9.89
0.58	9.95
0.583	10.19
0.586	10.13
0.589	10.15
0.592	10.15
0.595	10.24
0.598	10.26
0.601	10.36
0.604	10.45
0.607	10.52
0.61	10.66
0.613	10.63
0.616	10.63
0.619	10.67
0.622	10.92
0.625	10.91
0.628	10.9
0.631	10.95
0.634	11.04
0.637	11.11
0.64	11.14
0.643	11.11
0.646	11.28
0.649	11.31
0.652	11.26
0.655	11.35
0.658	11.47
0.661	11.51
0.664	11.43
0.667	11.68
0.67	11.74
0.673	11.84
0.676	11.79
0.679	11.97
0.682	12.13
0.685	12.23
0.688	12.29
0.691	12.4
0.694	12.48
0.697	12.61
0.7	12.61
0.703	12.76
0.706	12.8
0.709	12.79
0.712	13.04
0.715	13.21
0.718	13.25
0.721	13.29
0.724	13.5
0.727	13.72
0.73	13.71
0.733	13.83
0.736	13.96
0.739	14.09
0.742	14.23
0.745	14.28
0.748	14.42
0.751	14.56
0.754	14.6
0.757	14.75
0.76	14.84
0.763	15.11
0.766	15.13
0.769	15.15
0.772	15.29
0.775	15.52
0.778	15.55
0.781	15.5
0.784	15.67
0.787	15.81
0.79	15.75
0.793	15.84
0.796	16.03
0.799	16.2
0.808	16.94
0.82	17.25
0.832	17.39
0.844	17.55
0.856	17.81
0.868	17.93
0.88	18.07
0.892	18.07
0.904	18.08
0.916	18.2
0.928	18.33
0.94	18.32
0.952	18.3
0.964	18.38
0.976	18.32
0.988	18.21
1	18.05
1.012	17.88
1.024	17.82
1.036	17.59
1.048	17.4
1.06	17.23
1.072	17.06
1.084	16.9
1.096	16.79
1.108	16.64
1.12	16.38
1.132	16.3
1.144	16.18
1.156	16.08
1.168	15.88
1.18	15.81
1.192	15.63
1.204	15.64
1.216	15.49
1.228	15.44
1.24	15.39
1.252	15.25
1.264	15.24
1.276	15.14
1.288	15.11
1.3	15.01
1.312	15.01
1.324	14.91
1.336	14.94
1.348	14.9
1.36	14.93
1.372	14.91
1.384	14.76
1.396	14.61
1.408	14.6
1.42	14.62
1.432	14.72
1.444	14.69
1.456	14.76
1.468	14.72
1.48	14.71
1.492	14.75
1.504	14.72
1.516	14.75
1.528	14.76
1.54	14.78
1.552	14.76
1.564	14.79
1.576	14.77
1.588	14.8
1.6	14.8
1.612	14.86
1.624	14.93
1.636	14.93
1.648	14.98
1.66	15.04
1.672	15.01
1.684	15.05
1.696	15.17
1.708	15.15
1.72	15.25
1.732	15.29
1.744	15.26
1.756	15.26
1.768	15.35
1.78	15.35
1.792	15.4
1.804	15.53
1.816	15.52
1.828	15.64
1.84	15.67
1.852	15.74
1.864	15.82
1.876	15.8
1.888	15.78
1.9	15.72
1.912	15.72
1.924	15.79
1.936	15.91
1.948	15.99
1.96	16.08
1.972	16.19
1.984	16.26
1.996	16.37
2.008	16.51
2.02	16.56
2.032	16.69
2.044	16.78
2.056	16.89
2.068	17
2.08	17.1
2.092	17.13
2.104	17.28
2.116	17.38
2.128	17.42
2.14	17.49
2.152	17.45
2.164	17.47
2.176	17.42
2.188	17.39
2.2	17.44
2.212	17.56
2.224	17.69
2.236	17.79
2.248	17.95
2.26	18.02
2.272	18.06
2.284	18.22
2.296	18.24
2.308	18.29
2.32	18.29
2.332	18.31
2.344	18.35
2.356	18.44
2.368	18.53
2.38	18.59
2.392	18.66
2.404	18.7
2.416	18.82
2.428	18.9
2.44	18.99
2.452	19
2.464	19.11
2.476	19.21
2.488	19.41
2.5	19.53
