Name: Oligoclase (Feldspar) (NaSi,CaAl)AlSi_2O_8
Type: Mineral
Class: Silicate
Subclass: Tectosilicate
Particle Size: Coarse
Sample No.: TS-3A
Owner: JPL
Wavelength Range: VSWIR
Origin: Unknown.
Description: Particle size was 125-500um. Collected by:  JPL Original ASTER Spectral Library name was jpl.perkin.mineral.silicate.tectosilicate.coarse.ts03a.spectrum.txt
Measurement: Hemispherical reflectance
X Units: Wavelength (micrometers)
Y Units: Reflectance (percent)
wavelength	value
2.5	57.7084
2.494	57.5407
2.488	57.6464
2.482	57.8224
2.476	57.9772
2.47	58.1033
2.464	58.4644
2.458	58.8466
2.452	58.9202
2.446	59.2983
2.44	59.4323
2.434	59.7794
2.428	60.0382
2.422	60.4428
2.416	60.835
2.41	61.2766
2.404	61.5633
2.398	61.8416
2.392	62.0624
2.386	62.211
2.38	62.1579
2.374	61.8603
2.368	61.4615
2.362	60.9166
2.356	60.7048
2.35	60.7328
2.344	61.2785
2.338	61.8518
2.332	62.5119
2.326	63.2582
2.32	64.1113
2.314	64.8762
2.308	65.3241
2.302	65.8615
2.296	66.1441
2.29	66.42
2.284	66.6524
2.278	66.7858
2.272	66.8186
2.266	66.7153
2.26	66.6752
2.254	66.8419
2.248	66.9773
2.242	67.1191
2.236	67.2267
2.23	67.2788
2.224	67.2025
2.218	66.7456
2.212	66.1497
2.206	65.2455
2.2	64.7604
2.194	64.6728
2.188	65.2396
2.182	66.2632
2.176	67.3372
2.17	68.0614
2.164	68.6365
2.158	69.0712
2.152	69.2688
2.146	69.4146
2.14	69.3496
2.134	69.3114
2.128	69.0671
2.122	68.7993
2.116	68.5822
2.11	68.287
2.104	68.008
2.098	67.8607
2.092	67.8239
2.086	67.7457
2.08	67.7409
2.074	67.6469
2.068	67.543
2.062	67.4178
2.056	67.3079
2.05	67.0882
2.044	66.8829
2.038	66.6853
2.032	66.3308
2.026	66.0535
2.02	65.5772
2.014	65.1593
2.008	64.7226
2.002	64.2542
1.996	63.7312
1.99	63.0333
1.984	62.5528
1.978	61.9738
1.972	61.5965
1.966	61.1072
1.96	60.6262
1.954	60.3249
1.948	60.1178
1.942	59.8943
1.936	59.7631
1.93	59.8017
1.924	60.0877
1.918	60.5175
1.912	61.2562
1.906	62.2473
1.9	64.0163
1.894	65.6715
1.888	67.2202
1.882	68.2635
1.876	69.0328
1.87	69.6475
1.864	69.9638
1.858	70.0569
1.852	70.1281
1.846	70.2319
1.84	70.1899
1.834	70.2167
1.828	70.1981
1.822	70.1963
1.816	70.2653
1.81	70.3014
1.804	70.2929
1.798	70.2386
1.792	70.2507
1.786	70.2057
1.78	70.2389
1.774	70.1989
1.768	70.2566
1.762	70.2379
1.756	70.183
1.75	70.2611
1.744	70.3922
1.738	70.3019
1.732	70.378
1.726	70.411
1.72	70.3321
1.714	70.3623
1.708	70.2899
1.702	70.2996
1.696	70.2499
1.69	70.192
1.684	70.1566
1.678	70.2265
1.672	70.1463
1.666	70.0453
1.66	70.0785
1.654	69.9623
1.648	70.0626
1.642	70.0192
1.636	69.907
1.63	69.9382
1.624	69.863
1.618	69.9036
1.612	69.8168
1.606	69.857
1.6	69.8003
1.594	69.7171
1.588	69.605
1.582	69.5148
1.576	69.4325
1.57	69.3654
1.564	69.2625
1.558	69.2266
1.552	69.1349
1.546	69.0774
1.54	68.9443
1.534	68.8588
1.528	68.7134
1.522	68.6448
1.516	68.4806
1.51	68.3794
1.504	68.1075
1.498	67.9688
1.492	67.7428
1.486	67.4993
1.48	67.2382
1.474	67.0464
1.468	66.8743
1.462	66.7956
1.456	66.7037
1.45	66.64
1.444	66.5458
1.438	66.5491
1.432	66.4396
1.426	66.2996
1.42	65.8813
1.414	64.9142
1.408	65.29
1.402	65.808
1.396	66.8803
1.39	67.8415
1.384	68.1419
1.378	68.2097
1.372	68.2642
1.366	68.3347
1.36	68.2194
1.354	68.3113
1.348	68.1982
1.342	68.1297
1.336	68.3174
1.33	68.0476
1.324	68.05
1.318	68.1166
1.312	68.0558
1.306	68.0955
1.3	68.002
1.294	68.0121
1.288	67.9321
1.282	67.9544
1.276	67.966
1.27	67.9515
1.264	67.8693
1.258	67.943
1.252	67.8968
1.246	67.8506
1.24	67.8573
1.234	67.8235
1.228	67.8513
1.222	67.8447
1.216	67.836
1.21	67.8151
1.204	67.767
1.198	67.8254
1.192	67.8532
1.186	67.8551
1.18	67.9089
1.174	67.9274
1.168	67.9451
1.162	68.048
1.156	68.0238
1.15	68.1125
1.144	68.1426
1.138	68.2469
1.132	68.3037
1.126	68.3575
1.12	68.3023
1.114	68.4801
1.108	68.5314
1.102	68.5845
1.096	68.652
1.09	68.6496
1.084	68.7407
1.078	68.8255
1.072	68.8955
1.066	68.8952
1.06	68.9829
1.054	69.1023
1.048	69.1549
1.042	69.2709
1.036	69.3036
1.03	69.3353
1.024	69.3558
1.018	69.5078
1.012	69.6108
1.006	69.5989
1	69.6606
0.994	69.6831
0.988	69.7402
0.982	69.8209
0.976	69.7912
0.97	69.8114
0.964	69.9476
0.958	69.8871
0.952	69.9704
0.946	69.9989
0.94	70.1397
0.934	70.1093
0.928	70.1447
0.922	70.2097
0.916	70.2429
0.91	70.1779
0.904	70.2617
0.898	70.2534
0.892	70.2806
0.886	70.3349
0.88	70.3393
0.874	70.3295
0.868	70.336
0.862	70.391
0.856	70.5093
0.85	70.4972
0.844	70.4746
0.838	70.431
0.832	70.3927
0.826	70.3992
0.82	70.4711
0.814	70.4801
0.808	70.4813
0.802	70.4275
0.796	70.3526
0.79	70.3675
0.784	70.3888
0.778	70.3431
0.772	70.2764
0.766	70.3105
0.76	70.3229
0.754	70.2885
0.748	70.2988
0.742	70.2745
0.736	70.2658
0.73	70.2546
0.724	70.2582
0.718	70.248
0.712	70.2528
0.706	70.2454
0.7	70.2418
0.694	70.244
0.688	70.2146
0.682	70.1967
0.676	70.2068
0.67	70.1815
0.664	70.1872
0.658	70.1729
0.652	70.1556
0.646	70.1505
0.64	70.1276
0.634	70.0886
0.628	70.0744
0.622	70.0273
0.616	69.9861
0.61	69.9174
0.604	69.8124
0.598	69.7411
0.592	69.6375
0.586	69.4879
0.58	69.3041
0.574	69.1044
0.568	68.9097
0.562	68.6741
0.556	68.482
0.55	68.2863
0.544	68.142
0.538	68.0333
0.532	67.9976
0.526	68.0294
0.52	68.0711
0.514	68.1234
0.508	68.1458
0.502	68.1425
0.496	68.0499
0.49	67.8702
0.484	67.6389
0.478	67.4476
0.472	67.2372
0.466	67
0.46	66.6724
0.454	66.2673
0.448	65.9623
0.442	65.6633
0.436	65.4179
0.43	65.1372
0.424	64.8949
0.418	64.677
0.412	64.4371
0.406	64.0931
0.4	63.6282
