Name: Muscovite KAl_2(Si_3Al)O_10(OH,F)_2
Type: Mineral
Class: Silicate
Subclass: Phyllosilicate
Particle Size: Fine
Sample No.: PS-16A
Owner: JPL
Wavelength Range: TIR
Origin: USA, Connecticut
Description: Particle size was 0-45um.Collected by Ward's Original ASTER Spectral Library name was jpl.nicolet.mineral.silicate.phyllosilicate.fine.ps16a.spectrum.txt
Measurement: Hemispherical reflectance
X Units: Wavelength (micrometers)
Y Units: Reflectance (percent)
wavelength	value
15.3853	1.922
15.1161	2.0828
14.8563	2.1513
14.6052	1.8811
14.3624	2.1724
14.1276	2.2443
13.9004	2.3471
13.6803	2.4922
13.4671	2.2546
13.2604	1.8979
13.06	2.128
12.8656	2.6378
12.6769	2.9235
12.4936	3.1828
12.3155	3.069
12.1425	3.5864
11.9742	3.6747
11.8106	5.5325
11.6513	5.7519
11.4963	5.4572
11.3454	4.9113
11.1983	4.5334
11.0551	4.0832
10.9154	3.4282
10.7793	3.1215
10.6465	3.058
10.5169	3.3341
10.3904	3.8361
10.267	3.7023
10.1464	3.7363
10.0287	3.6039
9.9136	3.7355
9.8012	3.8958
9.6913	4.2124
9.5838	4.2799
9.4787	3.3789
9.3758	3.7882
9.2752	4.2659
9.1767	4.3489
9.0803	4.3193
8.9858	4.1382
8.8934	4.0944
8.8028	3.6744
8.714	3.5147
8.627	2.8825
8.5417	3.0081
8.4581	2.7524
8.3761	2.852
8.2957	2.889
8.2169	2.8839
8.1395	2.7998
8.0635	2.3723
7.989	2.5103
7.9158	2.564
7.8439	2.9884
7.7734	3.4741
7.7041	4.1038
7.636	4.7669
7.5691	5.4515
7.5034	6.1394
7.4388	6.8181
7.3753	7.4475
7.3129	8.1392
7.2515	8.8952
7.1912	9.61
7.1318	10.3975
7.0734	10.9301
7.016	11.6132
6.9595	12.4732
6.9039	13.3022
6.8492	13.8357
6.7953	14.7346
6.7423	15.5784
6.6901	16.1411
6.6387	16.9029
6.5881	17.0355
6.5382	17.3247
6.4892	17.872
6.4408	17.7308
6.3931	17.3589
6.3462	16.7451
6.2999	16.2453
6.2543	15.9222
6.2094	15.5213
6.1651	14.7598
6.1214	14.2012
6.0784	14.1911
6.0359	14.8295
5.994	15.9113
5.9527	17.0029
5.912	18.0499
5.8718	19.2001
5.8322	20.2274
5.7931	20.6732
5.7545	21.1488
5.7165	21.2069
5.6789	21.3702
5.6418	21.4519
5.6052	21.3773
5.5691	21.3557
5.5334	21.8234
5.4982	22.2972
5.4635	22.9887
5.4291	23.4112
5.3952	23.8215
5.3618	24.1924
5.3287	25.0215
5.2961	26.1262
5.2638	27.5042
5.2319	28.761
5.2004	30.0096
5.1693	30.9927
5.1386	31.7491
5.1082	32.6092
5.0782	33.0544
5.0485	33.3694
5.0192	33.577
4.9902	33.8412
4.9616	34.3437
4.9332	34.6077
4.9052	34.9053
4.8776	35.4202
4.8502	35.7661
4.8231	36.059
4.7963	36.2613
4.7699	36.4237
4.7437	36.8266
4.7178	37.229
4.6922	37.4819
4.6668	37.8164
4.6418	38.1893
4.617	38.6742
4.5924	38.9255
4.5681	39.2583
4.5441	39.4528
4.5203	39.6044
4.4968	39.8526
4.4735	39.9679
4.4505	40.1452
4.4277	40.1926
4.4051	40.3488
4.3828	40.3434
4.3607	40.3761
4.3388	40.2769
4.3171	40.2023
4.2956	40.1429
4.2744	40.0357
4.2534	39.923
4.2325	39.8316
4.2119	39.8173
4.1915	39.7436
4.1712	39.6621
4.1512	39.5847
4.1313	39.63
4.1117	39.5397
4.0922	39.6171
4.0729	39.6681
4.0538	39.6495
4.0349	39.9468
4.0161	40.0006
3.9976	40.0821
3.9792	40.2415
3.9609	40.4025
3.9428	40.6242
3.9249	40.8011
3.9072	40.9392
3.8896	41.0435
3.8722	41.067
3.8549	41.083
3.8378	40.9828
3.8208	40.8159
3.804	40.6552
3.7873	40.3738
3.7708	40.1492
3.7544	39.8973
3.7382	39.3818
3.7221	38.9994
3.7061	38.5429
3.6903	38.2187
3.6746	37.7574
3.659	37.2659
3.6436	36.9168
3.6283	36.4773
3.6131	35.9926
3.5981	35.4905
3.5832	34.9316
3.5684	34.3867
3.5537	33.9926
3.5391	33.5774
3.5247	32.833
3.5104	32.1635
3.4962	31.602
3.4821	31.22
3.4681	30.8548
3.4543	30.3536
3.4405	29.7226
3.4269	29.0147
3.4133	28.5234
3.3999	28.1738
3.3866	27.8445
3.3733	27.4671
3.3602	27.0261
3.3472	26.8256
3.3343	26.4918
3.3215	26.0286
3.3088	25.6443
3.2961	25.1768
3.2836	24.7889
3.2712	24.4436
3.2588	23.9291
3.2466	23.6597
3.2345	23.3404
3.2224	22.872
3.2104	22.5457
3.1985	22.1479
3.1867	21.7824
3.175	21.2716
3.1634	21.1413
3.1519	20.7077
3.1404	20.2656
3.129	20.0753
3.1178	19.6623
3.1065	19.3614
3.0954	19.0915
3.0844	18.801
3.0734	18.6866
3.0625	18.5585
3.0517	18.2859
3.041	18.1351
3.0303	17.9931
3.0197	17.8714
3.0092	17.9116
2.9987	17.5418
2.9884	17.5525
2.9781	17.2517
2.9678	17.2497
2.9577	16.9043
2.9476	16.9289
2.9376	17.0215
2.9276	16.8769
2.9177	16.9434
2.9079	16.9619
2.8982	16.9649
2.8885	17.1764
2.8789	17.4569
2.8693	17.5862
2.8598	17.7618
2.8504	18.0029
2.841	18.1806
2.8317	18.4669
2.8224	18.5493
2.8133	18.8159
2.8041	18.437
2.7951	17.2107
2.786	14.7586
2.7771	10.9227
2.7682	7.2879
2.7594	5.1906
2.7506	4.973
2.7418	5.8295
2.7332	7.1395
2.7246	12.61
2.716	23.9823
2.7075	35.4033
2.699	42.938
2.6906	47.2362
2.6823	50.2785
2.674	52.2563
2.6657	54.1127
2.6575	54.853
2.6494	55.5774
2.6413	56.0826
2.6332	56.189
2.6252	56.3595
2.6173	56.5236
2.6094	56.7533
2.6015	56.8815
2.5937	57.5051
2.5859	57.4883
2.5782	57.6382
2.5706	57.8311
2.5629	58.2289
2.5554	58.0748
2.5478	58.2529
2.5403	58.3626
2.5329	58.4378
2.5255	58.3863
2.5181	58.2824
2.5108	58.0733
2.5035	57.9608
2.4963	57.9713
2.4891	57.9105
2.482	58.0272
2.4749	57.7506
2.4678	57.7654
2.4608	57.8697
2.4538	57.6442
2.4468	57.8099
2.4399	57.7161
2.4331	57.6575
2.4262	58.1825
2.4194	58.5523
2.4127	59.0228
2.4059	59.4037
2.3993	59.4848
2.3926	59.5537
2.386	59.7101
2.3795	59.7921
2.3729	60.1522
2.3664	59.8975
2.36	60.0785
2.3535	59.6586
2.3471	59.6911
2.3408	59.8822
2.3345	60.2879
2.3282	60.7026
2.3219	61.0036
2.3157	61.3455
2.3095	61.5959
2.3034	61.8227
2.2972	61.8705
2.2911	62.2
2.2851	62.1966
2.279	62.1291
2.2731	62.2102
2.2671	62.2224
2.2612	62.2936
2.2553	61.9794
2.2494	62.0391
2.2435	62.0626
2.2377	61.8505
2.232	61.5528
2.2262	61.3731
2.2205	61.2001
2.2148	60.3704
2.2091	59.4299
2.2035	58.5432
2.1979	58.1375
2.1923	58.6788
2.1868	59.6716
2.1812	60.8048
2.1758	61.639
2.1703	62.4923
2.1649	62.986
2.1595	62.8804
2.1541	63.4523
2.1487	63.6457
2.1434	63.3425
2.1381	63.9161
2.1328	63.6332
2.1275	63.9896
2.1223	63.87
2.1171	63.8438
2.112	63.9673
2.1068	64.0411
2.1017	63.9066
2.0966	64.2416
2.0915	63.9302
2.0865	64.141
2.0814	64.3803
2.0764	64.354
2.0715	64.3317
2.0665	64.463
2.0616	64.4317
2.0567	64.4214
2.0518	64.4247
2.0469	64.3551
2.0421	64.4676
2.0373	64.5806
2.0325	64.4378
2.0277	64.7854
2.0229	64.4806
2.0182	64.7109
2.0135	64.4837
2.0088	64.5551
2.0042	64.6515
