Name: Muscovite KAl_2(Si_3Al)O_10(OH,F)_2
Type: Mineral
Class: Silicate
Subclass: Phyllosilicate
Particle Size: Coarse
Sample No.: PS-16A
Owner: JPL
Wavelength Range: VSWIR
Origin: USA, Connecticut
Description: Particle size was 125-500um.Collected by Ward's Original ASTER Spectral Library name was jpl.beckman.mineral.silicate.phyllosilicate.coarse.ps16a.spectrum.txt
Measurement: Hemispherical reflectance
X Units: Wavelength (micrometers)
Y Units: Reflectance (percent)
wavelength	value
0.4	27.88
0.403	28.57
0.406	29.08
0.409	29.77
0.412	30.17
0.415	31.14
0.418	31.54
0.421	31.99
0.424	32.62
0.427	33.02
0.43	33.87
0.433	34.51
0.436	34.95
0.439	35.64
0.442	35.87
0.445	36.73
0.448	36.78
0.451	37.24
0.454	37.76
0.457	37.99
0.46	38.39
0.463	38.74
0.466	38.91
0.469	39.31
0.472	39.37
0.475	39.83
0.478	40.11
0.481	40.29
0.484	40.98
0.487	41.09
0.49	41.55
0.493	41.95
0.496	41.89
0.499	42.41
0.502	42.7
0.505	42.87
0.508	43.39
0.511	43.5
0.514	44.07
0.517	44.53
0.52	44.76
0.523	45.39
0.526	45.45
0.529	45.95
0.532	46.47
0.535	46.7
0.538	47.1
0.541	47.26
0.544	47.72
0.547	48.24
0.55	48.36
0.553	48.87
0.556	48.92
0.559	49.26
0.562	49.61
0.565	49.72
0.568	49.95
0.571	50.18
0.574	50.07
0.577	50.47
0.58	50.63
0.583	50.81
0.586	51.21
0.589	51.09
0.592	51.49
0.595	51.9
0.598	51.84
0.601	52.35
0.604	52.29
0.607	52.58
0.61	52.81
0.613	52.75
0.616	53.21
0.619	53.26
0.622	53.26
0.625	53.78
0.628	53.55
0.631	53.84
0.634	54.23
0.637	54
0.64	54.35
0.643	54.46
0.646	54.69
0.649	54.92
0.652	54.69
0.655	54.98
0.658	55.15
0.661	54.98
0.664	55.44
0.667	55.49
0.67	55.49
0.673	55.77
0.676	55.71
0.679	56.06
0.682	56.17
0.685	56.29
0.688	56.92
0.691	56.69
0.694	56.98
0.697	57.15
0.7	56.86
0.703	56.81
0.706	57.26
0.709	57.15
0.712	57.37
0.715	57.31
0.718	57.6
0.721	58
0.724	57.66
0.727	57.94
0.73	57.83
0.733	57.49
0.736	57.94
0.739	57.54
0.742	57.66
0.745	57.83
0.748	57.66
0.751	57.83
0.754	57.77
0.757	57.89
0.76	58.06
0.763	57.72
0.766	58
0.769	57.89
0.772	57.77
0.775	57.94
0.778	57.6
0.781	57.77
0.784	57.72
0.787	57.43
0.79	57.72
0.793	57.43
0.796	57.49
0.799	57.94
0.808	57.83
0.82	57.31
0.832	56.98
0.844	56.52
0.856	56.23
0.868	56.06
0.88	55.83
0.892	55.77
0.904	55.71
0.916	56
0.928	56.29
0.94	56.63
0.952	56.29
0.964	56.81
0.976	57.54
0.988	57.83
1	58
1.012	58
1.024	58.29
1.036	58.4
1.048	58.46
1.06	58.46
1.072	58.52
1.084	58.63
1.096	58.69
1.108	58.91
1.12	59.26
1.132	59.26
1.144	59.6
1.156	59.94
1.168	60.09
1.18	60.54
1.192	60.75
1.204	61.31
1.216	61.43
1.228	61.76
1.24	61.82
1.252	62.22
1.264	62.72
1.276	62.87
1.288	62.86
1.3	63.01
1.312	63
1.324	63.21
1.336	63.71
1.348	64.21
1.36	63.98
1.372	63.4
1.384	59.77
1.396	45.87
1.408	41.33
1.42	55.23
1.432	63.9
1.444	65.74
1.456	66.54
1.468	66.94
1.48	67.23
1.492	67.4
1.504	67.52
1.516	67.85
1.528	67.85
1.54	67.91
1.552	68.08
1.564	68.08
1.576	68.14
1.588	68.2
1.6	68.14
1.612	68.19
1.624	68.11
1.636	68.21
1.648	68.3
1.66	68.23
1.672	68.1
1.684	68.14
1.696	68.07
1.708	68.23
1.72	68.17
1.732	68.23
1.744	68.12
1.756	68
1.768	68
1.78	67.94
1.792	68.12
1.804	67.98
1.816	67.52
1.828	67.23
1.84	67.16
1.852	67.44
1.864	67.25
1.876	67.01
1.888	66.6
1.9	66.02
1.912	65.61
1.924	65.76
1.936	65.69
1.948	65.61
1.96	65.41
1.972	65.42
1.984	65.6
1.996	65.59
2.008	65.42
2.02	65.5
2.032	65.29
2.044	65.02
2.056	64.84
2.068	64.15
2.08	63.18
2.092	61.21
2.104	59.46
2.116	58.39
2.128	57.72
2.14	56.37
2.152	53.4
2.164	47.76
2.176	40.08
2.188	33.92
2.2	33.95
2.212	38.67
2.224	44.21
2.236	47.94
2.248	50.38
2.26	51.74
2.272	51.89
2.284	50.71
2.296	48.05
2.308	44.23
2.32	40.84
2.332	37.96
2.344	36.93
2.356	36.72
2.368	37.23
2.38	37.5
2.392	37.02
2.404	35.85
2.416	34.52
2.428	33.51
2.44	33.23
2.452	33.78
2.464	34.48
2.476	35.47
2.488	36.45
2.5	45.93
