Name: Topaz Al_2SiO_4(F,OH)_2
Type: Mineral
Class: Silicate
Subclass: Nesosilicate
Particle Size: Coarse
Sample No.: NS-6A
Owner: JPL
Wavelength Range: VSWIR
Origin: Australia, Western Australia, Grossmont
Description: Particle size was 125-500um.Collected by Ward's Original ASTER Spectral Library name was jpl.beckman.mineral.silicate.nesosilicate.coarse.ns06a.spectrum.txt
Measurement: Hemispherical reflectance
X Units: Wavelength (micrometers)
Y Units: Reflectance (percent)
wavelength	value
0.4	49.52
0.403	49.56
0.406	49.55
0.409	49.73
0.412	49.79
0.415	49.67
0.418	49.73
0.421	49.82
0.424	49.61
0.427	49.69
0.43	49.78
0.433	49.73
0.436	49.82
0.439	49.87
0.442	49.91
0.445	49.76
0.448	49.9
0.451	49.89
0.454	49.86
0.457	49.95
0.46	50.05
0.463	50.09
0.466	50.11
0.469	49.93
0.472	50.03
0.475	50.01
0.478	49.9
0.481	50.02
0.484	50.21
0.487	50.04
0.49	50.12
0.493	50.09
0.496	50.08
0.499	50.02
0.502	49.98
0.505	50.1
0.508	49.92
0.511	50.09
0.514	50.17
0.517	50.15
0.52	50
0.523	50.04
0.526	50.03
0.529	49.96
0.532	49.92
0.535	49.93
0.538	49.91
0.541	49.8
0.544	49.85
0.547	49.95
0.55	49.78
0.553	49.81
0.556	49.77
0.559	49.76
0.562	50.1
0.565	50.12
0.568	49.85
0.571	49.91
0.574	49.79
0.577	49.62
0.58	49.5
0.583	49.53
0.586	49.54
0.589	49.41
0.592	49.44
0.595	49.54
0.598	49.46
0.601	49.59
0.604	49.62
0.607	49.59
0.61	49.38
0.613	49.52
0.616	49.59
0.619	49.35
0.622	49.44
0.625	49.49
0.628	49.42
0.631	49.32
0.634	49.44
0.637	49.32
0.64	49.36
0.643	49.41
0.646	49.29
0.649	49.26
0.652	49.39
0.655	49.3
0.658	49.24
0.661	49.35
0.664	49.3
0.667	49.33
0.67	49.32
0.673	49.44
0.676	49.41
0.679	49.36
0.682	49.47
0.685	49.4
0.688	49.29
0.691	49.38
0.694	49.49
0.697	49.35
0.7	49.39
0.703	49.35
0.706	49.4
0.709	49.59
0.712	49.46
0.715	49.35
0.718	49.4
0.721	49.5
0.724	49.43
0.727	49.54
0.73	49.58
0.733	49.48
0.736	49.46
0.739	49.63
0.742	49.57
0.745	49.57
0.748	49.68
0.751	49.63
0.754	49.55
0.757	49.65
0.76	49.69
0.763	49.6
0.766	49.68
0.769	49.71
0.772	49.77
0.775	50.03
0.778	50
0.781	50.03
0.784	49.96
0.787	49.94
0.79	50.02
0.793	50.25
0.796	50.06
0.799	50.14
0.808	50.48
0.82	50.45
0.832	50.57
0.844	50.69
0.856	50.79
0.868	50.88
0.88	50.77
0.892	50.83
0.904	50.74
0.916	50.88
0.928	50.89
0.94	50.87
0.952	50.66
0.964	50.8
0.976	50.77
0.988	50.85
1	50.88
1.012	50.95
1.024	50.96
1.036	50.88
1.048	50.96
1.06	51.06
1.072	50.98
1.084	51.01
1.096	51.17
1.108	51.1
1.12	51.02
1.132	51
1.144	50.98
1.156	51.13
1.168	51.04
1.18	50.97
1.192	50.94
1.204	50.93
1.216	51.01
1.228	51.01
1.24	50.96
1.252	51.08
1.264	51.13
1.276	51.09
1.288	50.93
1.3	50.98
1.312	51
1.324	50.85
1.336	50.49
1.348	50.2
1.36	50.53
1.372	50.47
1.384	50.34
1.396	42.72
1.408	45.14
1.42	50.67
1.432	50.92
1.444	50.92
1.456	50.86
1.468	51.03
1.48	51.16
1.492	51.09
1.504	51.16
1.516	51.31
1.528	51.35
1.54	51.26
1.552	51.19
1.564	51.33
1.576	51.3
1.588	51.13
1.6	51.16
1.612	51.25
1.624	51.37
1.636	51.34
1.648	51.29
1.66	51.34
1.672	50.78
1.684	50.53
1.696	51.44
1.708	51.37
1.72	51.19
1.732	51.34
1.744	51.47
1.756	51.41
1.768	51.35
1.78	51.46
1.792	51.56
1.804	51.51
1.816	51.33
1.828	51.36
1.84	51.37
1.852	51.38
1.864	51.13
1.876	51.05
1.888	50.83
1.9	50.44
1.912	50.21
1.924	50.33
1.936	50.21
1.948	50.15
1.96	50.23
1.972	50.5
1.984	50.59
1.996	50.54
2.008	50.47
2.02	50.58
2.032	50.28
2.044	49.06
2.056	43.49
2.068	31.12
2.08	24.16
2.092	31.54
2.104	42.25
2.116	46
2.128	44.77
2.14	42.12
2.152	41.46
2.164	42.97
2.176	44.38
2.188	44.79
2.2	44.87
2.212	45.59
2.224	47.36
2.236	48.01
2.248	47.17
2.26	46.48
2.272	46.81
2.284	46.63
2.296	45.31
2.308	43.26
2.32	41.88
2.332	41.13
2.344	40.89
2.356	40.32
2.368	39.6
2.38	38.89
2.392	37.93
2.404	36.68
2.416	35.37
2.428	34.48
2.44	33.2
2.452	31.36
2.464	28.79
2.476	25.98
2.488	23.18
2.5	20.46
