Name: Pyrrhotite Fe_1-xS
Type: Mineral
Class: Sulfide
Subclass: None
Particle Size: Fine
Sample No.: S-12A
Owner: JPL
Wavelength Range: VSWIR
Origin: Mexico, Chihuahua, Santa Eulalia
Description: Particle size was 0-45um.Collected by JPL Original ASTER Spectral Library name was jpl.beckman.mineral.sulfide.none.fine.s12a.spectrum.txt
Measurement: Hemispherical reflectance
X Units: Wavelength (micrometers)
Y Units: Reflectance (percent)
wavelength	value
0.4	3.83
0.403	3.82
0.406	3.87
0.409	3.87
0.412	3.8
0.415	3.87
0.418	3.93
0.421	3.92
0.424	4.04
0.427	3.99
0.43	4.03
0.433	3.98
0.436	4.09
0.439	4.08
0.442	4.15
0.445	4.1
0.448	4.16
0.451	4.2
0.454	4.27
0.457	4.24
0.46	4.34
0.463	4.27
0.466	4.32
0.469	4.32
0.472	4.43
0.475	4.37
0.478	4.55
0.481	4.56
0.484	4.59
0.487	4.64
0.49	4.67
0.493	4.64
0.496	4.8
0.499	4.85
0.502	4.84
0.505	4.89
0.508	4.9
0.511	4.96
0.514	4.85
0.517	5.08
0.52	5.15
0.523	5.19
0.526	5.18
0.529	5.22
0.532	5.18
0.535	5.26
0.538	5.38
0.541	5.37
0.544	5.35
0.547	5.44
0.55	5.42
0.553	5.47
0.556	5.48
0.559	5.58
0.562	5.63
0.565	5.68
0.568	5.64
0.571	5.7
0.574	5.7
0.577	5.67
0.58	5.8
0.583	5.8
0.586	5.86
0.589	5.8
0.592	5.87
0.595	5.85
0.598	5.91
0.601	5.99
0.604	5.93
0.607	6.02
0.61	6.06
0.613	6.07
0.616	6.1
0.619	6.13
0.622	6.17
0.625	6.16
0.628	6.22
0.631	6.18
0.634	6.21
0.637	6.29
0.64	6.28
0.643	6.29
0.646	6.33
0.649	6.39
0.652	6.38
0.655	6.41
0.658	6.41
0.661	6.44
0.664	6.44
0.667	6.57
0.67	6.51
0.673	6.55
0.676	6.62
0.679	6.62
0.682	6.63
0.685	6.67
0.688	6.61
0.691	6.67
0.694	6.69
0.697	6.75
0.7	6.76
0.703	6.73
0.706	6.78
0.709	6.84
0.712	6.86
0.715	6.84
0.718	6.9
0.721	6.9
0.724	6.9
0.727	6.96
0.73	6.94
0.733	7.02
0.736	6.95
0.739	7.05
0.742	7.02
0.745	7.11
0.748	7.11
0.751	7.13
0.754	7.1
0.757	7.11
0.76	7.17
0.763	7.21
0.766	7.27
0.769	7.22
0.772	7.26
0.775	7.21
0.778	7.17
0.781	7.25
0.784	7.31
0.787	7.32
0.79	7.43
0.793	7.38
0.796	7.45
0.799	7.35
0.808	7.88
0.82	7.88
0.832	7.99
0.844	8.05
0.856	8.14
0.868	8.09
0.88	8.16
0.892	8.15
0.904	8.27
0.916	8.33
0.928	8.32
0.94	8.35
0.952	8.41
0.964	8.46
0.976	8.52
0.988	8.56
1	8.61
1.012	8.61
1.024	8.72
1.036	8.73
1.048	8.8
1.06	8.83
1.072	8.85
1.084	8.97
1.096	9
1.108	9.04
1.12	9.14
1.132	9.12
1.144	9.22
1.156	9.23
1.168	9.27
1.18	9.29
1.192	9.3
1.204	9.39
1.216	9.38
1.228	9.51
1.24	9.59
1.252	9.59
1.264	9.67
1.276	9.69
1.288	9.83
1.3	9.8
1.312	9.84
1.324	9.91
1.336	9.95
1.348	10.01
1.36	9.96
1.372	10.12
1.384	10.1
1.396	10.23
1.408	10.14
1.42	10.28
1.432	10.24
1.444	10.42
1.456	10.34
1.468	10.42
1.48	10.4
1.492	10.57
1.504	10.52
1.516	10.68
1.528	10.55
1.54	10.66
1.552	10.66
1.564	10.7
1.576	10.68
1.588	10.81
1.6	10.84
1.612	10.85
1.624	10.91
1.636	10.97
1.648	10.89
1.66	11
1.672	10.97
1.684	11.04
1.696	11.02
1.708	11.11
1.72	11.05
1.732	11.18
1.744	11.15
1.756	11.18
1.768	11.21
1.78	11.23
1.792	11.18
1.804	11.22
1.816	11.25
1.828	11.26
1.84	11.29
1.852	11.32
1.864	11.38
1.876	11.38
1.888	11.31
1.9	11.43
1.912	11.4
1.924	11.37
1.936	11.39
1.948	11.43
1.96	11.43
1.972	11.54
1.984	11.53
1.996	11.61
2.008	11.61
2.02	11.63
2.032	11.69
2.044	11.65
2.056	11.74
2.068	11.73
2.08	11.76
2.092	11.8
2.104	11.84
2.116	11.84
2.128	11.84
2.14	11.89
2.152	11.86
2.164	11.88
2.176	11.9
2.188	11.94
2.2	11.9
2.212	11.89
2.224	11.99
2.236	11.95
2.248	11.98
2.26	11.98
2.272	12.03
2.284	12.03
2.296	12.11
2.308	12.08
2.32	12.07
2.332	12.13
2.344	12.19
2.356	12.11
2.368	12.2
2.38	12.19
2.392	12.29
2.404	12.19
2.416	12.26
2.428	12.3
2.44	12.34
2.452	12.4
2.464	12.37
2.476	12.42
2.488	12.45
2.5	12.55
