Name: Calcite CaCO_3
Type: Mineral
Class: Carbonate
Subclass: None
Particle Size: Coarse
Sample No.: C-3A
Owner: JPL
Wavelength Range: VSWIR
Origin: Italy
Description: Travertine. Particle size was 125-500um.Collected by Ward's Original ASTER Spectral Library name was jpl.beckman.mineral.carbonate.none.coarse.c03.spectrum.txt
Measurement: Hemispherical reflectance
X Units: Wavelength (micrometers)
Y Units: Reflectance (percent)
wavelength	value
0.4	46.5
0.403	47.13
0.406	47.75
0.409	48.56
0.412	49.07
0.415	49.82
0.418	50.28
0.421	50.9
0.424	51.36
0.427	52.04
0.43	52.62
0.433	52.97
0.436	53.88
0.439	54.05
0.442	54.67
0.445	55.13
0.448	55.54
0.451	56.1
0.454	56.46
0.457	57.14
0.46	57.38
0.463	58.02
0.466	58.48
0.469	58.76
0.472	59.45
0.475	59.63
0.478	60.2
0.481	60.61
0.484	60.95
0.487	61.47
0.49	61.6
0.493	62.29
0.496	62.52
0.499	62.98
0.502	63.38
0.505	63.73
0.508	64.29
0.511	64.52
0.514	65.1
0.517	65.22
0.52	65.9
0.523	66.07
0.526	66.36
0.529	66.76
0.532	67.1
0.535	67.38
0.538	67.61
0.541	68.19
0.544	68.13
0.547	68.71
0.55	68.87
0.553	69.33
0.556	69.68
0.559	69.62
0.562	70.2
0.565	70.65
0.568	70.65
0.571	71.11
0.574	71.17
0.577	71.4
0.58	71.74
0.583	71.86
0.586	72.25
0.589	72.19
0.592	72.83
0.595	72.88
0.598	73.11
0.601	73.35
0.604	73.58
0.607	74.08
0.61	74.08
0.613	74.43
0.616	74.49
0.619	74.6
0.622	74.89
0.625	74.95
0.628	75.4
0.631	75.4
0.634	75.74
0.637	75.8
0.64	76.15
0.643	76.32
0.646	76.26
0.649	76.78
0.652	76.67
0.655	77.17
0.658	77.01
0.661	77.29
0.664	77.52
0.667	77.64
0.67	77.98
0.673	77.87
0.676	78.33
0.679	78.33
0.682	78.61
0.685	78.72
0.688	78.72
0.691	79.12
0.694	79.01
0.697	79.47
0.7	79.3
0.703	79.41
0.706	79.7
0.709	79.76
0.712	79.99
0.715	80.33
0.718	80.28
0.721	80.55
0.724	80.5
0.727	80.5
0.73	80.9
0.733	80.9
0.736	81.3
0.739	81.19
0.742	81.3
0.745	81.53
0.748	81.42
0.751	81.76
0.754	81.65
0.757	81.94
0.76	82.04
0.763	82.21
0.766	82.39
0.769	82.16
0.772	82.62
0.775	82.39
0.778	82.67
0.781	82.62
0.784	82.79
0.787	82.96
0.79	83.02
0.793	83.25
0.796	82.91
0.799	83.37
0.808	83.37
0.82	83.48
0.832	83.82
0.844	83.93
0.856	84.1
0.868	84.16
0.88	84.22
0.892	84.22
0.904	84.51
0.916	84.57
0.928	84.57
0.94	84.74
0.952	84.74
0.964	84.68
0.976	84.62
0.988	84.8
1	84.85
1.012	84.85
1.024	84.85
1.036	84.68
1.048	84.91
1.06	84.97
1.072	84.85
1.084	84.97
1.096	84.85
1.108	84.91
1.12	84.91
1.132	85.03
1.144	84.97
1.156	84.84
1.168	84.76
1.18	84.75
1.192	84.84
1.204	84.76
1.216	84.76
1.228	84.99
1.24	84.99
1.252	84.88
1.264	84.74
1.276	84.9
1.288	84.81
1.3	84.96
1.312	84.72
1.324	84.63
1.336	84.51
1.348	84.42
1.36	84.25
1.372	83.91
1.384	83.34
1.396	82.48
1.408	81.48
1.42	80.86
1.432	80.71
1.444	80.5
1.456	80.45
1.468	80.8
1.48	81.03
1.492	81.36
1.504	81.88
1.516	82.05
1.528	82.23
1.54	82.34
1.552	82.34
1.564	82.5
1.576	82.79
1.588	82.79
1.6	82.85
1.612	82.89
1.624	82.81
1.636	82.51
1.648	82.48
1.66	82.52
1.672	82.45
1.684	82.25
1.696	82.01
1.708	81.43
1.72	81.15
1.732	80.97
1.744	80.86
1.756	80.97
1.768	81.32
1.78	81.38
1.792	81.15
1.804	80.84
1.816	80.24
1.828	79.37
1.84	78.38
1.852	76.9
1.864	74.83
1.876	74.19
1.888	73.77
1.9	72.17
1.912	70.39
1.924	69.35
1.936	69
1.948	68.92
1.96	69
1.972	69.11
1.984	69.12
1.996	70.2
2.008	71.87
2.02	73.35
2.032	74.13
2.044	74.69
2.056	74.94
2.068	75.24
2.08	75.37
2.092	75.11
2.104	74.85
2.116	74.76
2.128	73.88
2.14	72.57
2.152	72.23
2.164	72.78
2.176	73.5
2.188	73.65
2.2	72.99
2.212	71.71
2.224	70.02
2.236	67.78
2.248	64.88
2.26	61.39
2.272	57.67
2.284	54.34
2.296	50.94
2.308	47.83
2.32	45.43
2.332	45.2
2.344	49.05
2.356	55.77
2.368	61.69
2.38	64.62
2.392	64.89
2.404	64
2.416	61.98
2.428	59.03
2.44	55.31
2.452	50.82
2.464	46.32
2.476	42.21
2.488	38.66
2.5	37.05
