Name: Arsenopyrite FeAsS
Type: Mineral
Class: Sulfide
Subclass: None
Particle Size: Fine
Sample No.: S-5A
Owner: JPL
Wavelength Range: VSWIR
Origin: USA, Nevada, Lander County, Austin.
Description: Particle size was 0-45um.Collected by:  Burminco Original ASTER Spectral Library name was jpl.perkin.mineral.sulfide.none.fine.s05a.spectrum.txt
Measurement: Hemispherical reflectance
X Units: Wavelength (micrometers)
Y Units: Reflectance (percent)
wavelength	value
2.5	6.195
2.494	6.2259
2.488	6.274
2.482	6.1814
2.476	6.2394
2.47	6.259
2.464	6.3346
2.458	6.1289
2.452	6.2535
2.446	6.14
2.44	6.2179
2.434	6.0637
2.428	6.1039
2.422	6.1096
2.416	6.1272
2.41	6.1245
2.404	6.101
2.398	6.0655
2.392	6.0569
2.386	6.1051
2.38	6.0768
2.374	6.1234
2.368	6.072
2.362	6.0448
2.356	6.0832
2.35	6.0529
2.344	6.0784
2.338	6.0697
2.332	6.0683
2.326	6.0161
2.32	6.0347
2.314	6.0152
2.308	5.9882
2.302	5.9795
2.296	6.014
2.29	5.9866
2.284	5.9501
2.278	6.0072
2.272	5.9577
2.266	5.9206
2.26	5.9681
2.254	6.0057
2.248	5.9105
2.242	5.9496
2.236	5.8968
2.23	5.9152
2.224	5.9349
2.218	5.888
2.212	6.0388
2.206	5.9162
2.2	5.8705
2.194	5.7925
2.188	5.862
2.182	5.883
2.176	5.9634
2.17	5.9704
2.164	5.9861
2.158	5.8838
2.152	5.9666
2.146	5.9469
2.14	5.9408
2.134	5.905
2.128	5.9063
2.122	5.8083
2.116	5.8191
2.11	5.7657
2.104	5.7976
2.098	5.7817
2.092	5.7773
2.086	5.7234
2.08	5.7497
2.074	5.7314
2.068	5.772
2.062	5.774
2.056	5.773
2.05	5.7892
2.044	5.7505
2.038	5.7736
2.032	5.777
2.026	5.7555
2.02	5.6795
2.014	5.6984
2.008	5.742
2.002	5.741
1.996	5.7419
1.99	5.7051
1.984	5.6814
1.978	5.6723
1.972	5.704
1.966	5.7024
1.96	5.6391
1.954	5.6635
1.948	5.6805
1.942	5.6982
1.936	5.6639
1.93	5.6293
1.924	5.6109
1.918	5.6312
1.912	5.6302
1.906	5.6586
1.9	5.585
1.894	5.6621
1.888	5.6327
1.882	5.6539
1.876	5.5879
1.87	5.4891
1.864	5.5588
1.858	5.5844
1.852	5.6216
1.846	5.5028
1.84	5.5688
1.834	5.5723
1.828	5.5288
1.822	5.5188
1.816	5.4789
1.81	5.5567
1.804	5.4813
1.798	5.5098
1.792	5.5275
1.786	5.4753
1.78	5.4743
1.774	5.4514
1.768	5.4946
1.762	5.4633
1.756	5.4019
1.75	5.4465
1.744	5.4087
1.738	5.4275
1.732	5.4012
1.726	5.3727
1.72	5.398
1.714	5.3433
1.708	5.3554
1.702	5.3502
1.696	5.37
1.69	5.2869
1.684	5.3397
1.678	5.2948
1.672	5.3517
1.666	5.3565
1.66	5.2828
1.654	5.3218
1.648	5.2675
1.642	5.3688
1.636	5.243
1.63	5.2571
1.624	5.2306
1.618	5.2568
1.612	5.2409
1.606	5.257
1.6	5.2396
1.594	5.2429
1.588	5.1987
1.582	5.1594
1.576	5.179
1.57	5.2375
1.564	5.1821
1.558	5.1935
1.552	5.1511
1.546	5.1624
1.54	5.1114
1.534	5.1226
1.528	5.1583
1.522	5.1855
1.516	5.1482
1.51	5.0847
1.504	5.1037
1.498	5.0477
1.492	5.1078
1.486	5.1827
1.48	5.1155
1.474	5.1842
1.468	5.0251
1.462	5.0591
1.456	5.0569
1.45	5.0491
1.444	5.0901
1.438	5.0641
1.432	5.0392
1.426	5.0752
1.42	4.9759
1.414	5.0181
1.408	5.0913
1.402	5.0963
1.396	5.0849
1.39	5.0493
1.384	5.0413
1.378	5.0735
1.372	4.9695
1.366	5.0393
1.36	5.0098
1.354	5.086
1.348	5.0172
1.342	4.9556
1.336	4.9857
1.33	4.9981
1.324	4.918
1.318	5.0089
1.312	4.9715
1.306	4.92
1.3	5.0184
1.294	4.9733
1.288	4.9515
1.282	4.949
1.276	4.9309
1.27	4.8818
1.264	4.9193
1.258	4.9235
1.252	4.8825
1.246	4.8325
1.24	4.8879
1.234	4.8912
1.228	4.8442
1.222	4.8742
1.216	4.842
1.21	4.9116
1.204	4.8634
1.198	4.8534
1.192	4.8445
1.186	4.9094
1.18	4.813
1.174	4.8321
1.168	4.8406
1.162	4.863
1.156	4.82
1.15	4.8067
1.144	4.8603
1.138	4.8429
1.132	4.8139
1.126	4.8223
1.12	4.8189
1.114	4.8475
1.108	4.8471
1.102	4.8509
1.096	4.8516
1.09	4.8814
1.084	4.775
1.078	4.885
1.072	4.8282
1.066	4.815
1.06	4.87
1.054	4.7922
1.048	4.8086
1.042	4.8664
1.036	4.9161
1.03	4.9114
1.024	4.8586
1.018	4.8164
1.012	4.8789
1.006	4.8419
1	4.9058
0.994	4.839
0.988	4.8767
0.982	4.8749
0.976	4.8822
0.97	4.8714
0.964	4.8981
0.958	4.8929
0.952	4.8963
0.946	4.9158
0.94	4.9584
0.934	4.9265
0.928	4.9854
0.922	4.9529
0.916	4.9097
0.91	4.9643
0.904	4.9329
0.898	4.9596
0.892	5.0084
0.886	4.9729
0.88	5.0887
0.874	4.9765
0.868	5.039
0.862	5.0725
0.856	5.2916
0.85	5.3029
0.844	5.3133
0.838	5.3199
0.832	5.3345
0.826	5.3364
0.82	5.3477
0.814	5.3521
0.808	5.3623
0.802	5.3685
0.796	5.3786
0.79	5.3783
0.784	5.3842
0.778	5.3844
0.772	5.3989
0.766	5.4026
0.76	5.4074
0.754	5.4184
0.748	5.4247
0.742	5.4315
0.736	5.4375
0.73	5.4486
0.724	5.4574
0.718	5.4693
0.712	5.4756
0.706	5.4873
0.7	5.4955
0.694	5.507
0.688	5.5194
0.682	5.5261
0.676	5.5358
0.67	5.5471
0.664	5.5609
0.658	5.5707
0.652	5.5804
0.646	5.592
0.64	5.6035
0.634	5.6148
0.628	5.6243
0.622	5.6367
0.616	5.648
0.61	5.6607
0.604	5.672
0.598	5.6839
0.592	5.696
0.586	5.7054
0.58	5.718
0.574	5.7273
0.568	5.7381
0.562	5.7447
0.556	5.7546
0.55	5.7626
0.544	5.7698
0.538	5.777
0.532	5.7818
0.526	5.7882
0.52	5.7938
0.514	5.7991
0.508	5.8051
0.502	5.808
0.496	5.8091
0.49	5.8027
0.484	5.7993
0.478	5.7897
0.472	5.7834
0.466	5.7734
0.46	5.7684
0.454	5.7557
0.448	5.7472
0.442	5.7314
0.436	5.7196
0.43	5.7029
0.424	5.6897
0.418	5.665
0.412	5.6438
0.406	5.6149
0.4	5.5821
