Name: Quartz SiO_2
Type: Mineral
Class: Silicate
Subclass: Tectosilicate
Particle Size: Fine
Sample No.: TS-1A
Owner: JPL
Wavelength Range: TIR
Origin: USA, Arkansas, Montgomery County, Mount Ida
Description: Rock crystal. Particle size was 0-45um.Collected by Burminco Original ASTER Spectral Library name was jpl.nicolet.mineral.silicate.tectosilicate.fine.ts01a.spectrum.txt
Measurement: Hemispherical reflectance
X Units: Wavelength (micrometers)
Y Units: Reflectance (percent)
wavelength	value
15.3853	19.2051
15.1161	18.041
14.8563	15.446
14.6052	9.8966
14.3624	3.1364
14.1276	8.9075
13.9004	13.728
13.6803	14.8137
13.4671	13.7316
13.2604	11.3455
13.06	7.5234
12.8656	7.1781
12.6769	5.4224
12.4936	6.0449
12.3155	1.5138
12.1425	4.1246
11.9742	8.9649
11.8106	12.0115
11.6513	14.5002
11.4963	15.2133
11.3454	16.4954
11.1983	16.898
11.0551	17.6923
10.9154	17.7274
10.7793	16.9919
10.6465	15.9078
10.5169	15.0438
10.3904	14.1243
10.267	13.2506
10.1464	11.9213
10.0287	10.7514
9.9136	10.877
9.8012	10.329
9.6913	10.0048
9.5838	9.8291
9.4787	12.0626
9.3758	19.1262
9.2752	24.5774
9.1767	24.3865
9.0803	24.3346
8.9858	24.1217
8.8934	23.7033
8.8028	22.6804
8.714	20.5814
8.627	14.0539
8.5417	20.8215
8.4581	20.8626
8.3761	20.3853
8.2957	21.5821
8.2169	23.9007
8.1395	22.446
8.0635	16.2737
7.989	11.9304
7.9158	7.789
7.8439	4.8455
7.7734	3.7445
7.7041	2.8188
7.636	1.7162
7.5691	0.9836
7.5034	0.616
7.4388	0.3726
7.3753	0.35
7.3129	0.409
7.2515	0.7133
7.1912	1.2988
7.1318	1.7112
7.0734	2.501
7.016	3.3505
6.9595	4.5387
6.9039	5.5569
6.8492	5.6276
6.7953	5.593
6.7423	5.0237
6.6901	4.9284
6.6387	6.2382
6.5881	5.8301
6.5382	5.9685
6.4892	10.3144
6.4408	13.7249
6.3931	13.2607
6.3462	10.4197
6.2999	7.5726
6.2543	5.4891
6.2094	4.6917
6.1651	6.397
6.1214	10.4584
6.0784	13.7356
6.0359	14.015
5.994	13.0316
5.9527	10.0894
5.912	10.8846
5.8718	14.8699
5.8322	18.6709
5.7931	22.0795
5.7545	24.9995
5.7165	26.8123
5.6789	24.4822
5.6418	17.2503
5.6052	13.1857
5.5691	12.4895
5.5334	14.2146
5.4982	17.7181
5.4635	20.6418
5.4291	19.0167
5.3952	11.7509
5.3618	7.1652
5.3287	6.8327
5.2961	7.7084
5.2638	10.2424
5.2319	15.8695
5.2004	20.9266
5.1693	20.5946
5.1386	19.849
5.1082	19.5486
5.0782	17.3579
5.0485	16.4102
5.0192	16.0555
4.9902	16.9183
4.9616	21.8925
4.9332	25.4654
4.9052	32.8053
4.8776	44.874
4.8502	51.9535
4.8231	55.9282
4.7963	59.0185
4.7699	61.3735
4.7437	62.8532
4.7178	63.2248
4.6922	59.8949
4.6668	60.7125
4.6418	64.9122
4.617	67.8568
4.5924	68.9212
4.5681	68.854
4.5441	66.941
4.5203	62.4101
4.4968	57.0173
4.4735	55.113
4.4505	56.4994
4.4277	58.2813
4.4051	60.7636
4.3828	63.831
4.3607	67.0049
4.3388	68.8763
4.3171	69.2745
4.2956	68.9075
4.2744	69.4399
4.2534	70.5178
4.2325	70.195
4.2119	70.3879
4.1915	70.623
4.1712	71.5399
4.1512	72.2708
4.1313	73.0127
4.1117	73.9487
4.0922	74.9895
4.0729	75.6226
4.0538	75.8094
4.0349	75.6927
4.0161	75.5176
3.9976	75.6625
3.9792	76.0563
3.9609	76.6417
3.9428	77.1974
3.9249	77.5228
3.9072	77.5092
3.8896	77.1776
3.8722	76.7776
3.8549	76.5987
3.8378	76.5393
3.8208	76.919
3.804	77.0125
3.7873	76.9603
3.7708	76.6344
3.7544	76.2322
3.7382	76.1766
3.7221	76.4944
3.7061	76.9872
3.6903	77.7159
3.6746	78.3603
3.659	78.8219
3.6436	79.0175
3.6283	78.9375
3.6131	78.9319
3.5981	79.0574
3.5832	79.1048
3.5684	79.2228
3.5537	79.4062
3.5391	79.3247
3.5247	79.4569
3.5104	78.8481
3.4962	78.5163
3.4821	78.9269
3.4681	78.9315
3.4543	78.8914
3.4405	78.4704
3.4269	77.7578
3.4133	77.0651
3.3999	77.6342
3.3866	78.0113
3.3733	77.6615
3.3602	78.2686
3.3472	78.4153
3.3343	78.5984
3.3215	78.7882
3.3088	78.5578
3.2961	78.5876
3.2836	78.323
3.2712	78.1623
3.2588	77.9995
3.2466	77.8517
3.2345	77.593
3.2224	77.5277
3.2104	77.3922
3.1985	77.1945
3.1867	76.88
3.175	76.7331
3.1634	76.5887
3.1519	76.3487
3.1404	75.8319
3.129	75.6355
3.1178	75.4017
3.1065	75.2717
3.0954	75.126
3.0844	74.9269
3.0734	74.7524
3.0625	74.3691
3.0517	74.0789
3.041	73.676
3.0303	73.1923
3.0197	73.0086
3.0092	72.977
2.9987	73.0223
2.9884	72.9153
2.9781	72.4602
2.9678	71.3111
2.9577	70.2757
2.9476	71.5965
2.9376	71.9373
2.9276	72.1061
2.9177	71.9451
2.9079	72.1728
2.8982	72.4343
2.8885	72.8404
2.8789	72.7491
2.8693	72.6893
2.8598	73.212
2.8504	73.5523
2.841	73.8542
2.8317	73.8915
2.8224	74.1496
2.8133	74.3288
2.8041	74.6577
2.7951	74.6066
2.786	75.1248
2.7771	75.0786
2.7682	75.7284
2.7594	75.2247
2.7506	75.806
2.7418	76.8627
2.7332	77.2082
2.7246	79.2069
2.716	80.1701
2.7075	81.0786
2.699	81.9508
2.6906	82.9843
2.6823	83.3871
2.674	83.9264
2.6657	85.3976
2.6575	84.3745
2.6494	84.4193
2.6413	84.5086
2.6332	84.7938
2.6252	84.7062
2.6173	85.3234
2.6094	84.8639
2.6015	84.8319
2.5937	85.4428
2.5859	85.036
2.5782	84.6987
2.5706	84.8672
2.5629	85.2197
2.5554	84.676
2.5478	84.8302
2.5403	84.6741
2.5329	84.8282
2.5255	84.7546
2.5181	84.8541
2.5108	84.8532
2.5035	84.7539
2.4963	84.8096
2.4891	84.8286
2.482	84.8009
2.4749	84.8675
2.4678	84.7841
2.4608	84.793
2.4538	84.8428
2.4468	85.0557
2.4399	84.8542
2.4331	85.1379
2.4262	84.9783
2.4194	85.0825
2.4127	85.0087
2.4059	84.8727
2.3993	84.9275
2.3926	85.0516
2.386	84.9363
2.3795	85.1324
2.3729	85.1402
2.3664	85.1316
2.36	85.224
2.3535	85.1374
2.3471	85.1317
2.3408	85.1512
2.3345	85.1524
2.3282	85.3195
2.3219	85.23
2.3157	85.2437
2.3095	85.104
2.3034	85.266
2.2972	85.0761
2.2911	85.1038
2.2851	85.1442
2.279	85.1584
2.2731	85.1539
2.2671	85.2282
2.2612	85.2431
2.2553	85.1084
2.2494	85.0951
2.2435	85.1236
2.2377	85.1287
2.232	85.1115
2.2262	85.1911
2.2205	85.2042
2.2148	85.1081
2.2091	85.0574
2.2035	85.1888
2.1979	85.2509
2.1923	85.0116
2.1868	85.3008
2.1812	85.2646
2.1758	85.2237
2.1703	85.2147
2.1649	85.3696
2.1595	85.1499
2.1541	85.2645
2.1487	85.4402
2.1434	85.203
2.1381	85.3281
2.1328	85.3961
2.1275	85.3125
2.1223	85.6451
2.1171	85.378
2.112	85.1771
2.1068	85.427
2.1017	85.2176
2.0966	85.2763
2.0915	85.5473
2.0865	85.4992
2.0814	85.5049
2.0764	85.5888
2.0715	85.7344
2.0665	85.5933
2.0616	85.3281
2.0567	85.4714
2.0518	85.5421
2.0469	85.3521
2.0421	85.4052
2.0373	85.475
2.0325	85.2758
2.0277	85.5433
2.0229	85.5179
2.0182	85.3448
2.0135	85.0735
2.0088	85.6376
2.0042	85.5383
