Name: Hypersthene (Mg,Fe+2)2Si2O6
Type: Mineral
Class: Silicate
Subclass: Inosilicate
Particle Size: Solid
Sample No.: hypersth_1
Owner: JHU
Wavelength Range: TIR
Origin: Western Greenland, via the Smithsonian (sample no. NMNHC2368).
Description: Black in color; a small amount of surface contamination was removed; some mineral inclusions were separated from the remainder of the sample after crushing.  Under the microscope, the sample was green-brown pleochroic, with a high index of refraction.  It appeared mildly altered with some (2%) iron-stained opaque material present. Sample had cleavage face. (Pyroxene Group) Original ASTER Spectral Library name was jhu.nicolet.mineral.silicate.inosilicate.solid.hypers1.spectrum.txt
Measurement: Bidirectional reflectance
X Units: Wavelength (micrometers)
Y Units: Reflectance (percent)
wavelength	value
25.0442	33.4589
24.3388	32.4775
23.6719	32.703
23.0407	35.6894
22.4422	37.6669
21.8741	39.2328
21.334	38.1059
20.8199	40.2621
20.33	44.6908
19.8627	48.7521
19.4163	46.8185
18.9896	39.3771
18.5812	38.1271
18.19	37.0978
17.815	34.7841
17.4551	37.9423
17.1094	34.2831
16.7772	31.0119
16.4576	25.7824
16.15	20.329
15.8537	21.3901
15.568	20.0629
15.2925	19.7243
15.0265	18.8063
14.7697	19.5214
14.5214	20.4499
14.2814	17.0229
14.0492	16.0883
13.8244	16.6359
13.6067	15.8847
13.3957	16.2133
13.1912	16.04
12.9929	16.7724
12.8004	17.8999
12.6135	18.874
12.432	19.9719
12.2557	21.2768
12.0843	22.716
11.9176	24.2089
11.7555	26.2197
11.5977	28.2997
11.444	30.3468
11.2944	31.0705
11.1487	27.6713
11.0067	25.9113
10.8682	29.2153
10.7332	31.9599
10.6015	32.8954
10.473	33.8625
10.3476	33.2057
10.2251	36.4506
10.1056	36.2621
9.9887	36.0348
9.8746	34.9757
9.763	36.0763
9.6539	36.1757
9.5472	36.5038
9.4429	39.9992
9.3408	42.4948
9.2409	40.8173
9.1431	38.5065
9.0474	36.5849
8.9536	33.6581
8.8618	30.1308
8.7718	24.2646
8.6837	16.6962
8.5973	10.4548
8.5126	7.7849
8.4295	8.4726
8.3481	10.7458
8.2682	12.2229
8.1898	12.5041
8.1129	12.1093
8.0374	11.5029
7.9634	10.9953
7.8906	10.7314
7.8192	10.802
7.7491	11.0737
7.6802	11.4563
7.6126	11.8144
7.5461	12.1257
7.4807	12.3952
7.4165	12.6189
7.3534	12.8061
7.2914	12.9753
7.2303	13.1313
7.1703	13.2558
7.1113	13.3943
7.0533	13.4753
6.9962	13.5681
6.94	13.5771
6.8847	13.6303
6.8302	13.6735
6.7767	13.6562
6.7239	13.6604
6.672	13.7287
6.6209	13.809
6.5705	13.8154
6.5209	13.8784
6.4721	13.8713
6.424	13.8259
6.3766	13.8728
6.3299	13.9233
6.2838	13.9904
6.2385	13.9765
6.1937	13.9511
6.1496	14.0185
6.1062	14.0808
6.0633	14.143
6.0211	14.1506
5.9794	14.0671
5.9383	13.5305
5.8978	13.6172
5.8578	13.8413
5.8184	13.9184
5.7794	14.1225
5.741	14.3149
5.7031	14.3498
5.6657	14.3637
5.6288	14.3908
5.5924	14.4604
5.5564	14.5346
5.5209	14.6064
5.4859	14.6643
5.4513	14.7104
5.4171	14.6921
5.3833	14.7209
5.35	14.7202
5.3171	14.7275
5.2846	14.6994
5.2524	14.6523
5.2207	14.6054
5.1893	14.5561
5.1584	14.5105
5.1277	14.5127
5.0975	14.5127
5.0676	14.5244
5.038	14.55
5.0088	14.5371
4.98	14.5263
4.9514	14.5407
4.9232	14.5608
4.8953	14.582
4.8678	14.6101
4.8405	14.6316
4.8135	14.6789
4.7868	14.748
4.7605	14.8169
4.7344	14.8623
4.7086	14.8969
4.6831	14.9233
4.6578	15.0085
4.6328	15.1093
4.6081	15.1972
4.5837	15.2456
4.5595	15.2812
4.5356	15.3012
4.5119	15.3164
4.4884	15.292
4.4652	15.268
4.4423	15.2255
4.4196	15.1928
4.3971	15.1772
4.3748	15.1836
4.3528	15.1733
4.331	15.1833
4.3094	15.2109
4.288	15.2299
4.2668	15.2509
4.2458	15.259
4.2251	15.2688
4.2045	15.2778
4.1841	15.29
4.164	15.3227
4.144	15.3254
4.1242	15.3371
4.1046	15.3547
4.0852	15.3845
4.066	15.396
4.047	15.3881
4.0281	15.395
4.0094	15.4062
3.9909	15.4184
3.9725	15.434
3.9544	15.4641
3.9363	15.4677
3.9185	15.4795
3.9008	15.4914
3.8833	15.4956
3.8659	15.4924
3.8487	15.5024
3.8316	15.5073
3.8147	15.5014
3.7979	15.5202
3.7813	15.5158
3.7648	15.4809
3.7485	15.4868
3.7323	15.4721
3.7162	15.457
3.7003	15.4458
3.6845	15.4226
3.6689	15.3989
3.6534	15.375
3.638	15.3674
3.6227	15.3139
3.6076	15.2973
3.5926	15.2724
3.5777	15.2504
3.563	15.2392
3.5484	15.2104
3.5338	15.1767
3.5195	15.1601
3.5052	15.1474
3.491	15.1421
3.477	15.1076
3.463	15.0551
3.4492	15.0092
3.4355	14.9824
3.4219	14.9902
3.4084	14.9546
3.395	14.8867
3.3817	14.8291
3.3685	14.8247
3.3554	14.7026
3.3425	14.5966
3.3296	14.5019
3.3168	14.4282
3.3041	14.3479
3.2915	14.2631
3.279	14.1843
3.2666	14.0832
3.2543	13.9729
3.2421	13.8911
3.23	13.792
3.218	13.6838
3.206	13.6079
3.1942	13.5083
3.1824	13.4362
3.1707	13.3552
3.1591	13.2595
3.1476	13.1867
3.1362	13.1399
3.1249	13.0588
3.1136	12.9543
3.1024	12.9016
3.0913	12.8296
3.0803	12.7544
3.0694	12.6809
3.0585	12.6069
3.0477	12.5529
3.037	12.4956
3.0264	12.4609
3.0158	12.4182
3.0053	12.3703
2.9949	12.3349
2.9845	12.2739
2.9743	12.1826
2.9641	12.0822
2.9539	11.997
2.9439	11.9389
2.9339	11.8427
2.9239	11.7932
2.9141	11.7256
2.9043	11.6904
2.8946	11.6572
2.8849	11.591
2.8753	11.5334
2.8658	11.4785
2.8563	11.4494
2.8469	11.4233
2.8375	11.3711
2.8282	11.3244
2.819	11.2834
2.8098	11.289
2.8007	11.2932
2.7917	11.2871
2.7827	11.3076
2.7738	11.3818
2.7649	11.4653
2.7561	11.5488
2.7473	11.7317
2.7386	11.9016
2.7299	12.0771
2.7213	12.2695
2.7128	12.469
2.7043	12.6242
2.6959	12.7102
2.6875	12.7724
2.6791	12.7639
2.6709	12.7451
2.6626	12.7236
2.6545	12.6953
2.6463	12.6494
2.6382	12.6167
2.6302	12.5952
2.6222	12.5727
2.6143	12.5239
2.6064	12.4463
2.5986	12.4394
2.5908	12.4028
2.583	12.3501
2.5753	12.3257
2.5677	12.3139
2.5601	12.2656
2.5525	12.2441
2.545	12.2309
2.5375	12.1938
2.5301	12.1748
2.5227	12.1172
2.5154	12.1098
2.5081	12.0927
2.5008	12.0781
2.4936	12.0351
2.4864	11.9736
2.4793	11.9594
2.4722	11.9394
2.4651	11.8579
2.4581	11.854
2.4511	11.8423
2.4442	11.7837
2.4373	11.7236
2.4305	11.7666
2.4236	11.7002
2.4169	11.7192
2.4101	11.7129
2.4034	11.7119
2.3967	11.664
2.3901	11.6455
2.3835	11.6626
2.377	11.6543
2.3704	11.6606
2.364	11.6035
2.3575	11.6465
2.3511	11.6445
2.3447	11.6216
2.3384	11.6274
2.3321	11.5967
2.3258	11.6391
2.3195	11.6157
2.3133	11.6406
2.3071	11.6113
2.301	11.6465
2.2949	11.6035
2.2888	11.6465
2.2828	11.6465
2.2767	11.6601
2.2708	11.6093
2.2648	11.6338
2.2589	11.6513
2.253	11.6347
2.2471	11.5898
2.2413	11.5595
2.2355	11.5586
2.2297	11.5908
2.224	11.5713
2.2183	11.5674
2.2126	11.5332
2.207	11.5429
2.2013	11.5537
2.1957	11.542
2.1902	11.5517
2.1846	11.582
2.1791	11.5195
2.1736	11.5556
2.1682	11.54
2.1628	11.4736
2.1574	11.5205
2.152	11.4756
2.1466	11.4785
2.1413	11.5009
2.136	11.5117
2.1308	11.4941
2.1255	11.4902
2.1203	11.5322
2.1151	11.5488
2.11	11.4941
2.1048	11.4863
2.0997	11.414
2.0946	11.4648
2.0895	11.4658
2.0845	11.4531
2.0795	11.4238
