Name: Nontronite Na_0.33Fe_2^3+(Si,Al)_4O_10(OH)_2.H_2O
Type: Mineral
Class: Silicate
Subclass: Phyllosilicate
Particle Size: Fine
Sample No.: PS-6A
Owner: JPL
Wavelength Range: VSWIR
Origin: USA, Pennsylvania
Description: Particle size was 0-45um.Collected by Ward's Original ASTER Spectral Library name was jpl.beckman.mineral.silicate.phyllosilicate.fine.ps06a.spectrum.txt
Measurement: Hemispherical reflectance
X Units: Wavelength (micrometers)
Y Units: Reflectance (percent)
wavelength	value
0.4	17.53
0.403	18.85
0.406	20.15
0.409	21.08
0.412	22.17
0.415	22.87
0.418	23.41
0.421	23.63
0.424	23.82
0.427	23.84
0.43	23.75
0.433	23.91
0.436	23.7
0.439	23.37
0.442	22.89
0.445	22.78
0.448	22.95
0.451	24.36
0.454	26.52
0.457	28.54
0.46	29.76
0.463	31.64
0.466	32.75
0.469	33.33
0.472	34.06
0.475	34.49
0.478	34.83
0.481	35.43
0.484	35.89
0.487	36.45
0.49	36.95
0.493	37.68
0.496	38.14
0.499	38.61
0.502	39.38
0.505	39.95
0.508	40.65
0.511	41.21
0.514	42.04
0.517	42.59
0.52	43.16
0.523	44.06
0.526	44.71
0.529	45.48
0.532	46.26
0.535	47.14
0.538	47.9
0.541	48.44
0.544	49.23
0.547	49.99
0.55	50.85
0.553	51.57
0.556	52.47
0.559	52.86
0.562	53.92
0.565	54.48
0.568	55.06
0.571	55.35
0.574	55.74
0.577	56.34
0.58	56.78
0.583	57.08
0.586	57.6
0.589	57.9
0.592	58.33
0.595	58.46
0.598	58.81
0.601	59.11
0.604	59.3
0.607	59.39
0.61	59.45
0.613	59.71
0.616	59.72
0.619	59.94
0.622	60
0.625	60.25
0.628	60.3
0.631	60.3
0.634	60.33
0.637	60.62
0.64	60.8
0.643	60.82
0.646	61.09
0.649	61.23
0.652	61.31
0.655	61.36
0.658	61.73
0.661	61.81
0.664	62.12
0.667	62.26
0.67	62.61
0.673	62.88
0.676	62.86
0.679	63.23
0.682	63.46
0.685	63.78
0.688	63.95
0.691	64.39
0.694	64.77
0.697	64.84
0.7	65.15
0.703	65.85
0.706	66.04
0.709	66.46
0.712	66.66
0.715	67.11
0.718	67.26
0.721	67.6
0.724	67.96
0.727	68.22
0.73	68.14
0.733	68.37
0.736	68.5
0.739	68.32
0.742	68.67
0.745	69.12
0.748	69.52
0.751	69.64
0.754	69.91
0.757	69.85
0.76	70.07
0.763	69.97
0.766	69.97
0.769	70.08
0.772	70.1
0.775	69.91
0.778	69.72
0.781	69.71
0.784	69.62
0.787	69.22
0.79	68.44
0.793	68.37
0.796	68.51
0.799	68.34
0.808	68.05
0.82	67.2
0.832	66.45
0.844	65.56
0.856	64.77
0.868	64.07
0.88	63.54
0.892	63.14
0.904	62.86
0.916	62.78
0.928	62.68
0.94	62.72
0.952	62.96
0.964	63.14
0.976	63.5
0.988	64.07
1	64.63
1.012	65.49
1.024	66.16
1.036	67.06
1.048	67.79
1.06	68.77
1.072	69.63
1.084	70.78
1.096	71.86
1.108	72.99
1.12	74.04
1.132	75.17
1.144	75.81
1.156	76.79
1.168	77.66
1.18	78.61
1.192	79.3
1.204	80.06
1.216	80.5
1.228	81.05
1.24	81.36
1.252	81.84
1.264	82.15
1.276	82.34
1.288	82.46
1.3	82.43
1.312	82.12
1.324	81.74
1.336	81.29
1.348	80.88
1.36	80.23
1.372	78.83
1.384	75.19
1.396	71.52
1.408	67.12
1.42	66.42
1.432	64.41
1.444	69.42
1.456	71.22
1.468	71.95
1.48	73.19
1.492	74.27
1.504	75.1
1.516	75.99
1.528	76.39
1.54	77.05
1.552	77.45
1.564	77.77
1.576	78.09
1.588	78.26
1.6	78.45
1.612	78.7
1.624	78.79
1.636	78.83
1.648	78.79
1.66	78.88
1.672	78.8
1.684	78.74
1.696	78.6
1.708	78.42
1.72	78.25
1.732	77.92
1.744	77.62
1.756	77.24
1.768	76.92
1.78	76.65
1.792	76.41
1.804	76.42
1.816	76.3
1.828	76.13
1.84	75.69
1.852	74.82
1.864	72.61
1.876	67.62
1.888	59.44
1.9	50.9
1.912	49.08
1.924	51.17
1.936	53.1
1.948	54.45
1.96	55.58
1.972	57.01
1.984	58.42
1.996	60.2
2.008	61.57
2.02	63.2
2.032	64.3
2.044	65.51
2.056	66.26
2.068	66.93
2.08	67.53
2.092	68.11
2.104	68.51
2.116	68.99
2.128	68.98
2.14	68.76
2.152	68.11
2.164	67.88
2.176	67.46
2.188	66.36
2.2	65.46
2.212	66.03
2.224	66.85
2.236	66.46
2.248	65.14
2.26	61.25
2.272	55.85
2.284	53.49
2.296	55.58
2.308	59.15
2.32	60.44
2.332	60.19
2.344	59.04
2.356	57.64
2.368	55.65
2.38	53.44
2.392	51.39
2.404	50.46
2.416	50.23
2.428	49.71
2.44	48.96
2.452	47.82
2.464	46.43
2.476	45.05
2.488	43.71
2.5	42.93
