Name: Sepiolite Mg_4Si_6O_15(OH)_2.6H_2O
Type: Mineral
Class: Silicate
Subclass: Phyllosilicate
Particle Size: Fine
Sample No.: PS-5A
Owner: JPL
Wavelength Range: VSWIR
Origin: USA, Nevada, Two Crows
Description: Particle size was 0-45um.Collected by Clay Mineral Society Original ASTER Spectral Library name was jpl.beckman.mineral.silicate.phyllosilicate.fine.ps05a.spectrum.txt
Measurement: Hemispherical reflectance
X Units: Wavelength (micrometers)
Y Units: Reflectance (percent)
wavelength	value
0.4	74.78
0.403	75.07
0.406	75.07
0.409	75.15
0.412	75.11
0.415	75.27
0.418	75.24
0.421	75.4
0.424	75.69
0.427	75.66
0.43	75.84
0.433	76.03
0.436	76
0.439	75.99
0.442	76.24
0.445	76.41
0.448	76.26
0.451	76.35
0.454	76.57
0.457	76.58
0.46	76.57
0.463	76.62
0.466	76.8
0.469	77.02
0.472	76.89
0.475	76.9
0.478	77.07
0.481	77.15
0.484	77.17
0.487	77.28
0.49	77.44
0.493	77.48
0.496	77.29
0.499	77.61
0.502	77.54
0.505	77.84
0.508	77.8
0.511	77.94
0.514	78.12
0.517	77.98
0.52	78.18
0.523	78.07
0.526	78.27
0.529	78.22
0.532	78.35
0.535	78.36
0.538	78.36
0.541	78.52
0.544	78.47
0.547	78.67
0.55	78.57
0.553	78.88
0.556	78.97
0.559	78.91
0.562	79.38
0.565	79.31
0.568	79.44
0.571	79.33
0.574	79.19
0.577	79.47
0.58	79.44
0.583	79.23
0.586	79.31
0.589	79.54
0.592	79.33
0.595	79.41
0.598	79.62
0.601	79.67
0.604	79.65
0.607	79.58
0.61	79.73
0.613	79.55
0.616	79.73
0.619	79.8
0.622	79.67
0.625	79.59
0.628	79.78
0.631	79.59
0.634	79.63
0.637	79.81
0.64	79.75
0.643	79.73
0.646	79.65
0.649	79.71
0.652	79.61
0.655	79.82
0.658	79.86
0.661	79.81
0.664	79.69
0.667	79.89
0.67	79.65
0.673	79.7
0.676	79.89
0.679	79.71
0.682	79.81
0.685	79.73
0.688	79.84
0.691	79.73
0.694	79.85
0.697	79.88
0.7	79.75
0.703	79.68
0.706	79.62
0.709	79.71
0.712	79.9
0.715	79.82
0.718	79.73
0.721	79.69
0.724	79.68
0.727	79.63
0.73	79.7
0.733	79.78
0.736	79.61
0.739	79.62
0.742	79.62
0.745	79.5
0.748	79.48
0.751	79.72
0.754	79.79
0.757	79.75
0.76	79.59
0.763	79.57
0.766	79.48
0.769	79.44
0.772	79.76
0.775	79.53
0.778	79.55
0.781	79.52
0.784	79.57
0.787	79.35
0.79	79.59
0.793	79.45
0.796	79.49
0.799	79.53
0.808	79.73
0.82	79.61
0.832	79.66
0.844	79.56
0.856	79.68
0.868	79.61
0.88	79.51
0.892	79.52
0.904	79.45
0.916	79.3
0.928	79.3
0.94	79.08
0.952	79
0.964	78.86
0.976	78.84
0.988	78.84
1	78.97
1.012	79.02
1.024	79.05
1.036	79.05
1.048	78.97
1.06	79.03
1.072	78.97
1.084	78.95
1.096	78.87
1.108	78.83
1.12	78.8
1.132	78.6
1.144	77.94
1.156	77.57
1.168	77.69
1.18	77.84
1.192	77.78
1.204	77.84
1.216	77.89
1.228	77.85
1.24	77.75
1.252	77.87
1.264	77.76
1.276	77.58
1.288	77.6
1.3	77.31
1.312	76.94
1.324	76.46
1.336	75.73
1.348	75.14
1.36	74.56
1.372	72.87
1.384	65.46
1.396	65.88
1.408	61.11
1.42	61.2
1.432	61.62
1.444	61.93
1.456	63.15
1.468	63.83
1.48	65.64
1.492	67.1
1.504	68.31
1.516	69.21
1.528	69.69
1.54	70.31
1.552	70.96
1.564	71.3
1.576	71.72
1.588	71.91
1.6	72.25
1.612	72.34
1.624	72.5
1.636	72.51
1.648	72.69
1.66	72.69
1.672	72.67
1.684	72.69
1.696	72.54
1.708	72.21
1.72	71.82
1.732	71.43
1.744	70.92
1.756	70.46
1.768	70.08
1.78	69.57
1.792	69.5
1.804	69.44
1.816	69.42
1.828	69.14
1.84	68.53
1.852	67.27
1.864	64.11
1.876	56.99
1.888	46.93
1.9	37.35
1.912	34.67
1.924	38.08
1.936	42.4
1.948	44.57
1.96	45.8
1.972	46.85
1.984	48.54
1.996	50.98
2.008	53.37
2.02	55.42
2.032	57.05
2.044	58
2.056	58.68
2.068	59.28
2.08	59.83
2.092	60.35
2.104	61.02
2.116	61.4
2.128	61.69
2.14	61.66
2.152	61.5
2.164	61.29
2.176	61.03
2.188	60.68
2.2	60.32
2.212	59.66
2.224	59.4
2.236	59.02
2.248	58.57
2.26	57.4
2.272	55.56
2.284	53.01
2.296	50.13
2.308	48.77
2.32	49.51
2.332	50.74
2.344	49.88
2.356	48.07
2.368	45.5
2.38	43.08
2.392	41.57
2.404	40.74
2.416	39.96
2.428	39.21
2.44	38.39
2.452	37.62
2.464	36.52
2.476	35.3
2.488	34.13
2.5	33.33
