Name: Calcite CaCO_3
Type: Mineral
Class: Carbonate
Subclass: None
Particle Size: Medium
Sample No.: C-3E
Owner: JPL
Wavelength Range: TIR
Origin: N/A
Description: Particle size was 45-125um.Collected by JPL Original ASTER Spectral Library name was jpl.nicolet.mineral.carbonate.none.medium.c03e.spectrum.txt
Measurement: Hemispherical reflectance
X Units: Wavelength (micrometers)
Y Units: Reflectance (percent)
wavelength	value
15.3853	20.4282
15.1161	23.3167
14.8563	26.0308
14.6052	25.4745
14.3624	16.9754
14.1276	4.068
13.9004	3.5828
13.6803	21.6378
13.4671	31.2049
13.2604	31.3526
13.06	24.6278
12.8656	20.512
12.6769	21.1308
12.4936	23.1733
12.3155	23.8508
12.1425	26.0545
11.9742	24.0602
11.8106	9.5808
11.6513	11.1103
11.4963	8.0763
11.3454	18.6429
11.1983	15.8937
11.0551	20.0242
10.9154	22.8387
10.7793	18.9809
10.6465	16.1945
10.5169	16.5501
10.3904	19.6777
10.267	18.6478
10.1464	17.1054
10.0287	14.587
9.9136	13.3228
9.8012	13.4967
9.6913	16.241
9.5838	18.6764
9.4787	19.8532
9.3758	17.2502
9.2752	18.5178
9.1767	17.9861
9.0803	19.2501
8.9858	18.4228
8.8934	16.8235
8.8028	14.7746
8.714	10.9398
8.627	7.7005
8.5417	6.8132
8.4581	6.6716
8.3761	7.5219
8.2957	8.5647
8.2169	8.7695
8.1395	8.4699
8.0635	7.8328
7.989	8.3498
7.9158	7.6159
7.8439	7.6606
7.7734	7.464
7.7041	7.1979
7.636	6.8263
7.5691	6.8044
7.5034	7.1234
7.4388	7.4578
7.3753	8.1803
7.3129	8.9866
7.2515	10.2127
7.1912	12.613
7.1318	15.9825
7.0734	21.2482
7.016	22.1058
6.9595	22.7521
6.9039	23.3045
6.8492	24.9715
6.7953	27.1187
6.7423	29.9143
6.6901	34.7708
6.6387	38.5733
6.5881	40.0937
6.5382	41.0753
6.4892	40.7331
6.4408	27.0653
6.3931	12.1457
6.3462	5.4862
6.2999	2.0396
6.2543	1.0861
6.2094	0.5732
6.1651	0.3908
6.1214	0.564
6.0784	0.7246
6.0359	0.8991
5.994	1.5059
5.9527	1.6993
5.912	2.185
5.8718	2.5097
5.8322	2.5335
5.7931	2.3384
5.7545	2.4525
5.7165	2.8613
5.6789	3.9343
5.6418	5.3525
5.6052	2.9193
5.5691	0.9941
5.5334	2.8731
5.4982	9.6183
5.4635	15.3795
5.4291	21.4254
5.3952	27.3914
5.3618	32.8322
5.3287	37.8447
5.2961	42.8262
5.2638	46.135
5.2319	49.3155
5.2004	51.9841
5.1693	53.8561
5.1386	55.6668
5.1082	45.5988
5.0782	57.1263
5.0485	60.0718
5.0192	59.9471
4.9902	59.3467
4.9616	58.5081
4.9332	57.9696
4.9052	58.3251
4.8776	58.7829
4.8502	59.149
4.8231	59.5522
4.7963	59.4291
4.7699	57.6066
4.7437	51.7709
4.7178	39.5915
4.6922	25.4595
4.6668	22.74
4.6418	29.7794
4.617	39.7723
4.5924	43.0984
4.5681	43.8863
4.5441	44.1488
4.5203	44.3483
4.4968	45.6773
4.4735	50.0245
4.4505	53.609
4.4277	57.8151
4.4051	59.8319
4.3828	61.0478
4.3607	58.7673
4.3388	55.7934
4.3171	55.3129
4.2956	56.694
4.2744	56.6447
4.2534	55.1597
4.2325	53.4377
4.2119	52.26
4.1915	50.2849
4.1712	47.8089
4.1512	44.6186
4.1313	40.2787
4.1117	35.3306
4.0922	30.5925
4.0729	25.072
4.0538	18.867
4.0349	9.2837
4.0161	4.8558
3.9976	2.5714
3.9792	1.8555
3.9609	2.2203
3.9428	3.3395
3.9249	4.4176
3.9072	5.0103
3.8896	5.3136
3.8722	5.4965
3.8549	5.7838
3.8378	6.711
3.8208	10.7911
3.804	18.4207
3.7873	34.3278
3.7708	42.3758
3.7544	45.9708
3.7382	49.0133
3.7221	51.9054
3.7061	53.4163
3.6903	54.0917
3.6746	54.0087
3.659	53.3562
3.6436	52.047
3.6283	50.4421
3.6131	48.1241
3.5981	44.0623
3.5832	36.8306
3.5684	30.7084
3.5537	29.1351
3.5391	21.994
3.5247	10.9991
3.5104	5.6085
3.4962	4.2873
3.4821	3.3828
3.4681	4.3011
3.4543	6.8253
3.4405	7.263
3.4269	7.4398
3.4133	7.2221
3.3999	6.8784
3.3866	6.5976
3.3733	6.3108
3.3602	5.35
3.3472	5.1124
3.3343	17.1482
3.3215	27.5942
3.3088	33.5126
3.2961	37.7901
3.2836	41.4639
3.2712	44.9764
3.2588	47.5548
3.2466	49.8866
3.2345	51.8353
3.2224	53.8831
3.2104	55.7514
3.1985	57.2007
3.1867	58.0033
3.175	57.3027
3.1634	53.289
3.1519	49.3413
3.1404	51.1526
3.129	53.0574
3.1178	50.2032
3.1065	48.2193
3.0954	52.003
3.0844	56.5926
3.0734	59.8688
3.0625	61.6503
3.0517	64.0939
3.041	66.286
3.0303	68.112
3.0197	69.7841
3.0092	71.4327
2.9987	72.6403
2.9884	73.5524
2.9781	74.23
2.9678	74.254
2.9577	74.3695
2.9476	74.469
2.9376	75.0347
2.9276	75.3295
2.9177	75.5242
2.9079	75.7464
2.8982	75.8654
2.8885	75.984
2.8789	75.9568
2.8693	75.7772
2.8598	75.4407
2.8504	74.9532
2.841	73.5402
2.8317	71.1022
2.8224	67.5884
2.8133	63.5473
2.8041	58.7619
2.7951	51.0909
2.786	47.4079
2.7771	54.5722
2.7682	62.8128
2.7594	68.275
2.7506	69.706
2.7418	71.7423
2.7332	72.5919
2.7246	75.088
2.716	76.3557
2.7075	79.4351
2.699	82.488
2.6906	85.0285
2.6823	86.3667
2.674	87.3594
2.6657	89.1428
2.6575	87.9507
2.6494	88.1846
2.6413	88.1319
2.6332	88.2353
2.6252	88.0368
2.6173	88.1156
2.6094	86.968
2.6015	85.7367
2.5937	85.2526
2.5859	81.6953
2.5782	79.7309
2.5706	77.4914
2.5629	72.5838
2.5554	63.4181
2.5478	53.9475
2.5403	47.157
2.5329	47.2216
2.5255	51.2557
2.5181	55.2311
2.5108	57.3472
2.5035	58.2748
2.4963	59.149
2.4891	60.1378
2.482	62.461
2.4749	65.66
2.4678	69.669
2.4608	73.4929
2.4538	76.5171
2.4468	78.5128
2.4399	80.612
2.4331	82.2437
2.4262	83.8939
2.4194	85.0239
2.4127	85.8887
2.4059	85.7287
2.3993	85.7393
2.3926	86.2238
2.386	85.9615
2.3795	84.8324
2.3729	83.0404
2.3664	79.6891
2.36	74.0307
2.3535	67.7504
2.3471	63.4109
2.3408	61.5796
2.3345	62.13
2.3282	64.9679
2.3219	67.5862
2.3157	69.3999
2.3095	70.4184
2.3034	71.1284
2.2972	72.2447
2.2911	73.2807
2.2851	75.2411
2.279	77.4097
2.2731	79.5729
2.2671	81.2974
2.2612	82.6515
2.2553	84.0369
2.2494	84.9091
2.2435	85.8982
2.2377	86.5725
2.232	87.3428
2.2262	87.7897
2.2205	88.3689
2.2148	88.7297
2.2091	89.1917
2.2035	89.4706
2.1979	89.5999
2.1923	89.6972
2.1868	89.722
2.1812	89.5365
2.1758	89.2586
2.1703	88.7357
2.1649	88.2299
2.1595	88.3023
2.1541	88.3124
2.1487	88.5367
2.1434	89.1137
2.1381	89.7529
2.1328	90.0649
2.1275	90.1401
2.1223	90.4156
2.1171	90.4648
2.112	90.7462
2.1068	90.8447
2.1017	91.0679
2.0966	91.006
2.0915	91.3729
2.0865	90.9484
2.0814	91.1794
2.0764	91.3875
2.0715	91.3647
2.0665	91.4814
2.0616	91.3447
2.0567	91.4463
2.0518	91.2936
2.0469	91.139
2.0421	91.3081
2.0373	91.2169
2.0325	90.9975
2.0277	90.9398
2.0229	90.75
2.0182	90.5075
2.0135	90.1981
2.0088	89.8316
2.0042	88.9802
