Name: Olivine (Fo51) (Fe+2,Mg)2SiO4
Type: Mineral
Class: Silicate
Subclass: Nesosilicate
Particle Size: Fine
Sample No.: olivine_5
Owner: JHU
Wavelength Range: TIR
Origin: Kiglapait Intrusion, Labrador via Trude King #KI3188(obtained from S.A. Morse, Univ. of Mass.)
Description: Initially, the specimen was contaminated with pyroxene, spinel, and ilmenite.  Heavy liquid separation, followed by magnetic separation and hand picking, allowed olivines of different iron content to be obtained.  Sample ground to <60 micrometers and wet sieved.  Sample preparation by Trude King, USGS, Denver. Particle size was Less than 2 Micrometers.(Isolated tetrahedra); (Olivine Group) Original ASTER Spectral Library name was jhu.nicolet.mineral.silicate.nesosilicate.powder.olivin5.spectrum.txt
Measurement: Transmission
X Units: Wavelength (micrometers)
Y Units: Transmittance (percent)
wavelength	value
25.0442	22.8437
24.3388	31.1405
23.6719	35.9257
23.0407	41.4999
22.4422	44.5018
21.8741	44.7069
21.334	37.5585
20.8199	22.6288
20.33	19.9355
19.8627	21.6992
19.4163	21.5078
18.9896	23.746
18.5812	33.7987
18.19	46.9061
17.815	51.7772
17.4551	40.7128
17.1094	33.8847
16.7772	40.6962
16.4576	54.6219
16.15	69.2156
15.8537	78.2342
15.568	82.6599
15.2925	85.4773
15.0265	87.2547
14.7697	87.8396
14.5214	87.948
14.2814	87.5896
14.0492	86.9021
13.8244	85.3787
13.6067	83.6682
13.3957	80.9788
13.1912	77.555
12.9929	73.3318
12.8004	67.8748
12.6135	60.9803
12.432	51.8675
12.2557	39.7597
12.0843	24.4286
11.9176	24.039
11.7555	18.75
11.5977	10.957
11.444	5.3389
11.2944	4.8403
11.1487	6.9731
11.0067	9.3838
10.8682	12.5464
10.7332	13.8359
10.6015	21.8305
10.473	16.3925
10.3476	12.895
10.2251	14.5097
10.1056	17.854
9.9887	24.6918
9.8746	34.3095
9.763	44.1395
9.6539	52.5658
9.5472	59.492
9.4429	64.659
9.3408	68.6014
9.2409	71.8631
9.1431	74.7586
9.0474	77.658
8.9536	79.8909
8.8618	82.076
8.7718	83.864
8.6837	85.3928
8.5973	86.8975
8.5126	88.5498
8.4295	89.9441
8.3481	91.2109
8.2682	92.374
8.1898	93.335
8.1129	94.1211
8.0374	94.6648
7.9634	95.0994
7.8906	95.3044
7.8192	95.5554
7.7491	95.8171
7.6802	95.9924
7.6126	96.2043
7.5461	96.4939
7.4807	96.8523
7.4165	97.0798
7.3534	97.1689
7.2914	97.3616
7.2303	97.4861
7.1703	97.1921
7.1113	97.3164
7.0533	97.3889
6.9962	97.4785
6.94	97.595
6.8847	97.5469
6.8302	97.5762
6.7767	97.4004
6.7239	97.4746
6.672	97.3142
6.6209	97.2019
6.5705	97.0037
6.5209	96.9968
6.4721	96.7004
6.424	96.3308
6.3766	96.3018
6.3299	95.915
6.2838	95.6826
6.2385	95.3894
6.1937	95.0447
6.1496	94.6221
6.1062	94.2432
6.0633	93.9519
6.0211	94.1465
5.9794	94.2444
5.9383	94.1104
5.8978	94.238
5.8578	94.3445
5.8184	93.9482
5.7794	93.8213
5.741	93.4236
5.7031	93.0442
5.6657	93.0068
5.6288	92.9834
5.5924	93.1514
5.5564	92.8567
5.5209	92.8049
5.4859	92.7051
5.4513	92.6795
5.4171	92.5027
5.3833	92.4949
5.35	92.2976
5.3171	92.2127
5.2846	92.167
5.2524	92.0234
5.2207	91.9492
5.1893	91.822
5.1584	91.6716
5.1277	91.4902
5.0975	91.2813
5.0676	91.1365
5.038	90.9871
5.0088	90.918
4.98	90.8045
4.9514	90.7146
4.9232	90.5762
4.8953	90.3816
4.8678	90.2976
4.8405	90.0315
4.8135	89.8445
4.7868	89.7029
4.7605	89.4983
4.7344	89.3069
4.7086	89.0911
4.6831	88.9588
4.6578	88.7263
4.6328	88.5696
4.6081	88.3035
4.5837	88.1057
4.5595	87.9646
4.5356	87.7215
4.5119	87.5315
4.4884	87.3548
4.4652	87.0882
4.4423	86.9138
4.4196	86.7176
4.3971	86.5701
4.3748	86.2913
4.3528	86.0828
4.331	85.9168
4.3094	85.7185
4.288	85.5115
4.2668	85.3465
4.2458	85.1492
4.2251	84.9441
4.2045	84.7488
4.1841	84.5413
4.164	84.3416
4.144	84.1346
4.1242	83.9549
4.1046	83.7351
4.0852	83.5808
4.066	83.2986
4.047	83.114
4.0281	82.8826
4.0094	82.7097
3.9909	82.471
3.9725	82.2112
3.9544	82.0877
3.9363	81.8269
3.9185	81.6053
3.9008	81.3875
3.8833	81.1761
3.8659	80.9422
3.8487	80.7273
3.8316	80.531
3.8147	80.3553
3.7979	80.0418
3.7813	79.8592
3.7648	79.6805
3.7485	79.4129
3.7323	79.2303
3.7162	78.8948
3.7003	78.8113
3.6845	78.4939
3.6689	78.4163
3.6534	78.0101
3.638	77.9764
3.6227	77.5633
3.6076	77.4441
3.5926	77.2015
3.5777	76.9578
3.563	76.7366
3.5484	76.5062
3.5338	76.285
3.5195	76.1565
3.5052	76.1629
3.491	75.7889
3.477	75.5418
3.463	75.3377
3.4492	75.1214
3.4355	75.0848
3.4219	74.9881
3.4084	74.6522
3.395	74.2796
3.3817	73.9354
3.3685	73.5916
3.3554	73.3577
3.3425	73.0569
3.3296	72.6619
3.3168	72.5818
3.3041	72.3304
3.2915	72.1331
3.279	71.8323
3.2666	71.639
3.2543	71.4476
3.2421	71.158
3.23	70.8289
3.218	70.6092
3.206	70.3475
3.1942	70.1317
3.1824	69.8504
3.1707	69.6942
3.1591	69.3338
3.1476	69.2449
3.1362	68.9881
3.1249	68.7049
3.1136	68.4637
3.1024	68.3162
3.0913	68.0155
3.0803	67.908
3.0694	67.6893
3.0585	67.408
3.0477	67.1971
3.037	67.0506
3.0264	66.7625
3.0158	66.5496
3.0053	66.411
2.9949	66.0877
2.9845	65.9071
2.9743	65.6805
2.9641	65.3944
2.9539	65.2323
2.9439	65.1092
2.9339	64.8416
2.9239	64.6698
2.9141	64.5057
2.9043	64.3807
2.8946	64.283
2.8849	64.1883
2.8753	64.0018
2.8658	63.9061
2.8563	63.8866
2.8469	63.7049
2.8375	63.6366
2.8282	63.4569
2.819	63.5623
2.8098	63.3241
2.8007	63.1053
2.7917	63.2
2.7827	63.118
2.7738	62.9735
2.7649	62.9647
2.7561	62.7791
2.7473	62.9803
2.7386	62.6453
2.7299	62.7547
2.7213	62.5428
2.7128	62.6385
2.7043	62.45
2.6959	62.5399
2.6875	62.1336
2.6791	62.1717
2.6709	61.825
2.6626	61.6219
2.6545	61.5047
2.6463	61.5077
2.6382	61.3368
2.6302	60.912
2.6222	61.1229
2.6143	60.6717
2.6064	60.5194
2.5986	60.535
2.5908	60.3163
2.583	60.0741
2.5753	59.9627
2.5677	59.9803
2.5601	59.7264
2.5525	59.5584
2.545	59.4178
2.5375	59.1483
2.5301	59.119
2.5227	58.9413
2.5154	58.7362
2.5081	58.6561
2.5008	58.492
2.4936	58.5584
2.4864	58.2108
2.4793	58.0155
2.4722	57.9256
2.4651	57.7596
2.4581	57.6131
2.4511	57.2752
2.4442	57.3436
2.4373	57.1112
2.4305	56.9237
2.4236	56.9178
2.4169	56.6327
2.4101	56.6112
2.4034	56.5624
2.3967	56.1581
2.3901	56.078
2.3835	56.0721
2.377	55.8983
2.3704	55.6483
2.364	55.6874
2.3575	55.6659
2.3511	55.2186
2.3447	55.1581
2.3384	54.9374
2.3321	54.7264
2.3258	54.8592
2.3195	54.4452
2.3133	54.6249
2.3071	54.3983
2.301	54.0018
2.2949	53.8143
2.2888	53.9315
2.2828	53.742
2.2767	53.5721
2.2708	53.5467
2.2648	53.0467
2.2589	53.121
2.253	53.1796
2.2471	53.0155
2.2413	52.6796
2.2355	52.8006
2.2297	52.578
2.224	52.2577
2.2183	52.41
2.2126	52.1092
2.207	51.9608
2.2013	51.9686
2.1957	51.953
2.1902	51.4686
2.1846	51.4335
2.1791	51.1991
2.1736	51.2382
2.1682	51.3475
2.1628	50.5975
2.1574	50.6796
2.152	50.4921
2.1466	50.2655
2.1413	50.3319
2.136	50.2499
2.1308	50.121
2.1255	49.6405
2.1203	49.8671
2.1151	49.8632
2.11	49.8827
2.1048	49.2421
2.0997	49.6327
2.0946	49.2108
2.0895	48.8436
2.0845	48.9374
2.0795	49.1405
