Name: Tourmaline Na(Mg_3,Fe_3^2+)Al_6(BO_3)_3Si_6O_18(OH)_4
Type: Mineral
Class: Silicate
Subclass: Cyclosilicate
Particle Size: Coarse
Sample No.: CS-1A
Owner: JPL
Wavelength Range: VSWIR
Origin: USA, New York, Overlook.
Description: Particle size was 125-500um.Collected by:  Ward's Original ASTER Spectral Library name was jpl.perkin.mineral.silicate.cyclosilicate.coarse.cs01a.spectrum.txt
Measurement: Hemispherical reflectance
X Units: Wavelength (micrometers)
Y Units: Reflectance (percent)
wavelength	value
2.5	8.3877
2.494	8.049
2.488	8.108
2.482	8.2735
2.476	8.271
2.47	8.2237
2.464	8.3712
2.458	8.3815
2.452	8.4758
2.446	8.6252
2.44	8.6817
2.434	8.804
2.428	8.7996
2.422	8.8781
2.416	8.8658
2.41	8.7846
2.404	8.6452
2.398	8.5763
2.392	8.2853
2.386	7.8904
2.38	7.4446
2.374	6.9213
2.368	6.6107
2.362	6.4712
2.356	6.5949
2.35	6.8125
2.344	7.1273
2.338	7.3859
2.332	7.6023
2.326	7.697
2.32	7.8102
2.314	7.8583
2.308	7.9079
2.302	7.8818
2.296	7.8421
2.29	7.8766
2.284	8.0767
2.278	8.1425
2.272	8.1478
2.266	8.0361
2.26	7.7627
2.254	7.3625
2.248	6.9305
2.242	6.8021
2.236	6.8917
2.23	7.0399
2.224	6.9906
2.218	6.7364
2.212	6.4083
2.206	6.2049
2.2	6.3335
2.194	6.7876
2.188	6.8754
2.182	6.9012
2.176	6.9559
2.17	6.8578
2.164	6.9095
2.158	6.8047
2.152	6.7567
2.146	6.6934
2.14	6.6627
2.134	6.6209
2.128	6.5278
2.122	6.4058
2.116	6.2672
2.11	6.222
2.104	6.0977
2.098	5.9932
2.092	5.9175
2.086	5.8749
2.08	5.7757
2.074	5.6831
2.068	5.6097
2.062	5.5702
2.056	5.4501
2.05	5.3763
2.044	5.2938
2.038	5.2214
2.032	5.1261
2.026	5.1145
2.02	5.049
2.014	4.982
2.008	4.8991
2.002	4.9145
1.996	4.7167
1.99	4.6471
1.984	4.6764
1.978	4.5771
1.972	4.391
1.966	4.3814
1.96	4.3285
1.954	4.2611
1.948	4.213
1.942	4.236
1.936	4.108
1.93	4.1098
1.924	4.0509
1.918	3.8673
1.912	3.9332
1.906	3.8855
1.9	3.7665
1.894	3.7943
1.888	3.7405
1.882	3.6563
1.876	3.6897
1.87	3.5434
1.864	3.5889
1.858	3.503
1.852	3.4647
1.846	3.4513
1.84	3.4567
1.834	3.3926
1.828	3.3973
1.822	3.2879
1.816	3.3621
1.81	3.2989
1.804	3.2618
1.798	3.2578
1.792	3.22
1.786	3.1554
1.78	3.1481
1.774	3.0776
1.768	3.0781
1.762	3.0583
1.756	3.0504
1.75	3.056
1.744	2.9974
1.738	2.9524
1.732	2.9511
1.726	2.9742
1.72	2.9537
1.714	2.9071
1.708	2.9252
1.702	2.8772
1.696	2.8951
1.69	2.8317
1.684	2.7928
1.678	2.9094
1.672	2.827
1.666	2.8298
1.66	2.8655
1.654	2.8116
1.648	2.8296
1.642	2.8448
1.636	2.8097
1.63	2.816
1.624	2.698
1.618	2.8215
1.612	2.7455
1.606	2.7001
1.6	2.6761
1.594	2.6944
1.588	2.686
1.582	2.6603
1.576	2.6365
1.57	2.6222
1.564	2.6638
1.558	2.6692
1.552	2.6387
1.546	2.6385
1.54	2.5315
1.534	2.614
1.528	2.6038
1.522	2.6601
1.516	2.5647
1.51	2.5787
1.504	2.5503
1.498	2.5469
1.492	2.5699
1.486	2.5797
1.48	2.5798
1.474	2.5636
1.468	2.5503
1.462	2.5155
1.456	2.5722
1.45	2.5368
1.444	2.4755
1.438	2.4386
1.432	2.4728
1.426	2.5181
1.42	2.5029
1.414	2.4601
1.408	2.3986
1.402	2.4871
1.396	2.5164
1.39	2.4996
1.384	2.5677
1.378	2.4784
1.372	2.4581
1.366	2.439
1.36	2.3856
1.354	2.4078
1.348	2.4223
1.342	2.4156
1.336	2.4377
1.33	2.4555
1.324	2.4758
1.318	2.4247
1.312	2.4309
1.306	2.4766
1.3	2.4197
1.294	2.4444
1.288	2.4568
1.282	2.4998
1.276	2.502
1.27	2.4769
1.264	2.5187
1.258	2.4888
1.252	2.4627
1.246	2.5057
1.24	2.4639
1.234	2.4843
1.228	2.4919
1.222	2.4797
1.216	2.455
1.21	2.4613
1.204	2.5424
1.198	2.4542
1.192	2.4745
1.186	2.5298
1.18	2.5455
1.174	2.476
1.168	2.4703
1.162	2.5432
1.156	2.5258
1.15	2.4981
1.144	2.4942
1.138	2.4853
1.132	2.5946
1.126	2.5213
1.12	2.476
1.114	2.5243
1.108	2.5174
1.102	2.5304
1.096	2.4848
1.09	2.5642
1.084	2.505
1.078	2.5003
1.072	2.5696
1.066	2.557
1.06	2.5216
1.054	2.5215
1.048	2.5785
1.042	2.5412
1.036	2.5741
1.03	2.5471
1.024	2.5497
1.018	2.4979
1.012	2.5158
1.006	2.5358
1	2.5293
0.994	2.5207
0.988	2.5383
0.982	2.4977
0.976	2.4821
0.97	2.4855
0.964	2.5443
0.958	2.5037
0.952	2.5357
0.946	2.4908
0.94	2.4383
0.934	2.4861
0.928	2.4583
0.922	2.4757
0.916	2.5016
0.91	2.4436
0.904	2.5097
0.898	2.4124
0.892	2.4419
0.886	2.4043
0.88	2.4466
0.874	2.4329
0.868	2.4904
0.862	2.4742
0.856	2.77
0.85	2.7735
0.844	2.7772
0.838	2.7632
0.832	2.7599
0.826	2.7552
0.82	2.7486
0.814	2.7439
0.808	2.7337
0.802	2.7346
0.796	2.7177
0.79	2.7144
0.784	2.7043
0.778	2.7038
0.772	2.6957
0.766	2.6895
0.76	2.6854
0.754	2.6791
0.748	2.6759
0.742	2.6749
0.736	2.6678
0.73	2.6706
0.724	2.6647
0.718	2.663
0.712	2.6615
0.706	2.6614
0.7	2.6618
0.694	2.661
0.688	2.6616
0.682	2.6624
0.676	2.6662
0.67	2.6692
0.664	2.6749
0.658	2.6781
0.652	2.6837
0.646	2.6933
0.64	2.7008
0.634	2.7092
0.628	2.7182
0.622	2.7276
0.616	2.7373
0.61	2.7484
0.604	2.7573
0.598	2.7679
0.592	2.7797
0.586	2.7888
0.58	2.7988
0.574	2.8074
0.568	2.8179
0.562	2.8254
0.556	2.8357
0.55	2.8438
0.544	2.8544
0.538	2.8664
0.532	2.8772
0.526	2.8898
0.52	2.9015
0.514	2.9127
0.508	2.9275
0.502	2.943
0.496	2.9568
0.49	2.972
0.484	2.9895
0.478	3.0111
0.472	3.0289
0.466	3.047
0.46	3.0752
0.454	3.097
0.448	3.1191
0.442	3.148
0.436	3.1773
0.43	3.2069
0.424	3.2409
0.418	3.2799
0.412	3.3206
0.406	3.3691
0.4	3.4219
