Name: Epsomite MgSO4·7H2O
Type: Mineral
Class: Sulfate
Subclass: None
Particle Size: Coarse
Sample No.: Epsomite
Owner: USGS
Wavelength Range: All
Origin: Produced in lab
Description: Synthetic. Sample was unsieved powder. Original ASTER Spectral Library name was usgs.perknic.mineral.sulfate.none.coarse.epsomite.spectrum.txt
Measurement: Directional Hemispherical Reflectance
X Units: Wavelength (micrometers)
Y Units: Reflectance (percent)
wavelength	value
14.051	2.4205
13.826	2.1218
13.609	2.0806
13.398	2.0291
13.193	1.9364
12.995	1.7304
12.802	1.5759
12.616	1.4317
12.434	1.5244
12.258	1.3287
12.086	1.1742
11.92	1.0609
11.757	1.2669
11.6	1.3287
11.446	1.442
11.297	1.6789
11.151	1.8437
11.009	2.0806
10.87	2.2454
10.735	2.369
10.604	2.575
10.475	2.6883
10.35	2.9664
10.227	3.0591
10.108	2.4514
9.991	3.1312
9.877	3.4093
9.765	3.6668
9.656	4.2539
9.549	4.8307
9.445	5.5929
9.343	6.0152
9.243	6.9834
9.145	7.2306
9.049	7.1379
8.956	6.9216
8.864	5.1088
8.774	4.326
8.686	5.7474
8.599	4.3775
8.515	1.442
8.431	0.6489
8.35	0.3914
8.27	0.4841
8.192	0.4635
8.115	0.5459
8.039	0.7313
7.965	0.7416
7.893	0.8137
7.821	0.9888
7.751	0.9167
7.682	0.9888
7.614	1.1227
7.548	1.1536
7.483	1.2154
7.418	1.3081
7.355	1.2978
7.293	1.3905
7.232	1.5347
7.172	1.5759
7.113	1.5038
7.055	1.6068
6.998	1.6171
6.942	1.6583
6.886	1.6789
6.832	1.6995
6.778	1.6892
6.726	1.8952
6.674	1.8025
6.623	1.7716
6.572	1.8025
6.523	1.9261
6.474	1.751
6.426	1.9158
6.378	1.8437
6.332	1.8643
6.286	1.9261
6.24	1.9364
6.195	1.9261
6.151	1.7716
6.108	1.7922
6.065	1.6995
6.023	1.6995
5.981	1.4729
5.94	1.2257
5.899	1.0094
5.859	1.1433
5.82	1.2669
5.781	1.5038
5.743	1.6377
5.705	1.8746
5.667	2.1115
5.63	2.2866
5.594	2.5853
5.558	2.7604
5.523	2.987
5.487	3.1312
5.453	3.2857
5.419	3.399
5.385	3.5432
5.352	3.6256
5.319	3.7492
5.286	3.7492
5.254	3.8625
5.222	3.914
5.191	3.9449
5.16	4.0273
5.129	4.0994
5.099	4.0788
5.069	4.2127
5.04	4.1715
5.01	4.1097
4.981	4.0582
4.953	4.0067
4.925	3.7492
4.897	3.5638
4.869	3.3681
4.842	3.3887
4.815	3.3578
4.788	3.2548
4.762	3.2445
4.736	3.1518
4.71	3.0694
4.684	3.1415
4.659	3.2136
4.634	3.2445
4.61	3.1415
4.585	3.1312
4.561	2.9767
4.537	2.9355
4.513	2.9149
4.49	2.8119
4.467	2.8325
4.444	2.7501
4.421	2.6883
4.398	2.7707
4.376	2.7604
4.354	2.7398
4.332	2.8119
4.311	2.7501
4.289	2.8016
4.268	2.7501
4.247	2.8943
4.226	2.9561
4.206	2.9664
4.185	3.0694
4.165	2.9046
4.145	2.9664
4.126	3.2857
4.106	3.2136
4.086	3.3063
4.067	3.399
4.048	3.4814
4.029	3.5741
4.011	3.6565
3.992	3.914
3.974	4.1612
3.956	4.1818
3.938	4.4599
3.92	4.4805
3.902	4.9028
3.884	4.9749
3.867	5.2736
3.85	5.4178
3.833	5.5414
3.816	5.6547
3.799	5.6444
3.782	5.8916
3.766	5.8504
3.75	5.7783
3.733	5.8195
3.717	5.7062
3.702	5.6032
3.686	5.7371
3.67	5.5311
3.655	5.3766
3.639	5.3869
3.624	5.1912
3.609	5.1603
3.594	5.0985
3.579	4.8719
3.564	4.7586
3.549	4.5526
3.535	4.6247
3.521	4.532
3.506	4.2848
3.492	4.2333
3.478	4.1509
3.464	3.9552
3.45	3.8728
3.437	3.5226
3.423	3.7286
3.409	3.5947
3.396	3.5432
3.383	3.2754
3.37	3.3475
3.357	3.2445
3.344	3.1415
3.331	3.1518
3.318	3.1827
3.305	3.193
3.293	2.9561
3.28	2.9355
3.268	3.193
3.255	2.9458
3.243	3.1724
3.231	3.0385
3.219	3.1415
3.207	3.0076
3.195	3.1312
3.183	3.1312
3.172	2.9973
3.16	3.2651
3.149	3.1106
3.137	3.2754
3.126	3.2136
3.115	2.9767
3.103	3.0488
3.092	2.8531
3.081	2.8737
3.07	2.884
3.06	2.884
3.049	2.6059
3.038	3.0591
3.027	2.678
3.017	2.7089
3.006	2.7604
2.996	2.5235
2.986	2.2351
2.975	1.9261
2.965	1.9364
2.955	1.7922
2.945	1.8437
2.935	1.5347
2.925	1.5862
2.915	1.5141
2.905	1.3699
2.896	1.0197
2.886	0.9991
2.876	1.2669
2.867	1.1124
2.857	0.8034
2.848	0.8755
2.838	0.8961
2.829	0.5356
2.82	0.7313
2.811	0.1339
2.802	0.5665
2.793	0.3708
2.784	1.03
2.775	0.6386
2.766	0.5665
2.757	0.7725
2.748	0.9167
2.74	1.0609
2.731	1.1536
2.722	1.4832
2.714	1.5244
2.705	2.1836
2.697	2.1321
2.688	2.7192
2.68	3.1724
2.672	3.6462
2.664	3.6256
2.655	3.9964
2.647	3.9655
2.639	4.0273
2.631	4.5526
2.623	4.4908
2.615	4.6659
2.607	4.7895
2.599	5.0573
2.592	5.0161
2.584	5.0676
2.576	4.944
2.569	5.3354
2.561	5.047
2.553	5.2221
2.546	5.2118
2.538	5.1294
2.531	5.0573
2.524	5.356
2.516	5.2118
2.509	5.1191
2.502	5.4178
2.48	6.1056
2.456	6.2918
2.432	6.4156
2.408	6.9252
2.384	8.0316
2.36	9.1349
2.336	10.7467
2.312	13.1183
2.288	15.4565
2.264	17.2925
2.24	17.7878
2.216	17.717
2.192	17.1062
2.168	16.431
2.144	15.5218
2.12	13.9359
2.096	12.0792
2.072	10.6165
2.048	9.7274
2.024	8.9859
2	8.2735
1.976	8.0356
1.952	8.0249
1.928	8.8499
1.904	13.5413
1.88	22.0846
1.856	28.7822
1.832	30.6336
1.808	29.3948
1.784	27.2703
1.76	25.822
1.736	24.6188
1.712	23.4531
1.688	22.5214
1.664	21.6857
1.64	21.0075
1.616	20.9009
1.592	21.6172
1.568	22.3067
1.544	21.9176
1.52	20.3799
1.496	18.6231
1.472	18.6176
1.448	20.8379
1.424	28.512
1.4	41.3276
1.376	48.5953
1.352	52.1405
1.328	57.469
1.304	60.4751
1.28	61.2736
1.256	61.4023
1.232	61.8099
1.208	63.1016
1.184	65.5148
1.16	69.8865
1.136	76.9026
1.112	79.0642
1.088	80.276
1.064	80.0946
1.04	78.4226
1.016	76.6901
0.992	76.0836
0.968	78.3
0.944	81.6231
0.92	83.1055
0.896	84.1888
0.872	84.8436
0.848	85.3978
0.824	86.0342
0.8	85.8494
0.776	85.631
0.752	85.7035
0.728	85.8693
0.704	85.7193
0.68	85.3958
0.656	85.0876
0.632	84.6597
0.608	84.2525
0.584	83.4494
0.56	81.5624
0.536	79.2401
0.512	77.66
0.488	76.176
0.464	74.845
0.44	73.1124
0.416	71.2033
