Name: Burkeite Na6(CO3)(SO4)2
Type: Mineral
Class: Carbonate
Subclass: None
Particle Size: Coarse
Sample No.: NMNH105598
Owner: Smithsonian Institute, National Museum of Nat. History
Wavelength Range: All
Origin: Searles Lake, California
Description: Burkeite from Searles Lake, CASample was Unsieved coarse powder. Original ASTER Spectral Library name was usgs.perknic.mineral.carbonate.none.coarse.burkeic.spectrum.txt
Measurement: Directional Hemispherical Reflectance
X Units: Wavelength (micrometers)
Y Units: Reflectance (percent)
wavelength	value
13.9	6.747
13.644	7.941
13.398	8.93
13.16	9.589
12.93	10.331
12.708	11.588
12.494	12.432
12.287	13.081
12.086	13.287
11.892	13.06
11.704	9.507
11.522	8.446
11.346	2.523
11.175	7.952
11.009	11.062
10.848	11.958
10.691	12.309
10.539	12.216
10.391	11.845
10.247	10.3
10.108	6.86
9.972	6.87
9.839	7.457
9.71	7.303
9.585	6.376
9.462	5.603
9.343	4.903
9.226	4.697
9.113	4.347
9.002	5.511
8.894	6.458
8.789	6.098
8.686	6.098
8.585	7.622
8.487	7.478
8.391	5.871
8.297	5.366
8.205	1.669
8.115	0.927
8.027	0.814
7.941	1.03
7.857	1.349
7.774	1.885
7.694	2.544
7.614	3.244
7.537	3.78
7.461	4.192
7.387	4.522
7.314	4.522
7.242	3.945
7.172	3.554
7.103	2.544
7.036	2.369
6.97	2.596
6.905	2.997
6.841	3.327
6.778	4.614
6.717	3.492
6.657	2.451
6.597	1.514
6.539	1.524
6.482	1.638
6.426	1.926
6.37	2.039
6.316	2.245
6.263	2.554
6.21	2.637
6.159	2.997
6.108	3.636
6.058	4.645
6.009	5.747
5.96	6.674
5.913	7.869
5.866	9.043
5.82	10.3
5.775	11.412
5.73	11.515
5.686	4.573
5.643	4.429
5.6	14.698
5.558	17.623
5.517	18.808
5.476	19.961
5.436	21.537
5.396	22.794
5.357	23.402
5.319	24.04
5.281	24.535
5.243	25.019
5.206	25.307
5.17	25.678
5.134	25.812
5.099	26.069
5.064	25.565
5.03	24.741
4.996	25.688
4.962	25.369
4.929	24.669
4.897	23.566
4.865	21.476
4.833	18.458
4.802	12.679
4.771	7.261
4.74	5.48
4.71	5.83
4.68	6.571
4.651	7.498
4.622	8.415
4.593	9.692
4.565	11.114
4.537	14.111
4.509	14.173
4.482	12.236
4.455	10.805
4.428	10.362
4.402	10.3
4.376	10.753
4.35	11.217
4.325	12.329
4.3	13.977
4.275	15.996
4.251	17.974
4.226	20.075
4.202	21.681
4.179	23.154
4.155	23.659
4.132	23.412
4.109	21.774
4.086	17.901
4.064	9.991
4.042	7.972
4.02	8.219
3.998	8.837
3.977	9.002
3.956	9.311
3.935	11.268
3.914	15.79
3.893	23.412
3.873	25.41
3.853	26.141
3.833	26.687
3.813	27.244
3.794	27.841
3.774	28.304
3.755	28.758
3.736	29.252
3.717	29.108
3.699	28.14
3.68	28.562
3.662	28.428
3.644	28.171
3.626	27.965
3.609	27.11
3.591	24.988
3.574	23.639
3.557	20.755
3.54	17.16
3.523	15.45
3.506	14.502
3.49	12.968
3.473	11.124
3.457	10.722
3.441	11.083
3.425	12.298
3.409	13.637
3.394	16.006
3.378	17.716
3.363	19.446
3.348	20.765
3.333	21.125
3.318	21.424
3.303	21.578
3.288	21.62
3.274	21.589
3.259	21.3
3.245	21.311
3.231	21.125
3.217	21.002
3.203	21.053
3.189	20.858
3.176	20.569
3.162	20.106
3.149	19.807
3.135	19.797
3.122	19.488
3.109	19.385
3.096	19.416
3.083	19.333
3.07	19.354
3.058	19.271
3.045	18.921
3.033	19.024
3.02	18.983
3.008	18.87
2.996	18.777
2.984	18.674
2.972	18.519
2.96	18.427
2.948	18.581
2.937	18.468
2.925	18.375
2.913	18.282
2.902	18.468
2.891	18.911
2.879	19.354
2.868	19.93
2.857	20.25
2.846	20.569
2.835	21.218
2.825	22.166
2.814	23.309
2.803	23.958
2.793	25.606
2.782	27.13
2.772	29.005
2.761	30.653
2.751	33.197
2.741	34.968
2.731	38.697
2.721	40.016
2.711	42.498
2.701	45.176
2.691	46.69
2.681	47.617
2.672	47.658
2.662	48.822
2.653	49.162
2.643	50.357
2.634	50.295
2.624	50.583
2.615	49.842
2.606	49.306
2.597	49.419
2.588	48.554
2.579	49.059
2.57	47.885
2.561	45.578
2.552	45.578
2.543	45.547
2.535	46.494
2.526	47.421
2.517	48.781
2.509	50.614
2.5	51.428
2.486	51.747
2.472	52.396
2.458	52.613
2.444	53.33
2.43	54.004
2.416	54.175
2.402	54.372
2.388	54.238
2.374	53.856
2.36	54.447
2.346	54.818
2.332	55.271
2.318	55.866
2.304	56.441
2.29	57.127
2.276	57.508
2.262	57.913
2.248	58.562
2.234	58.392
2.22	58.387
2.206	58.59
2.192	58.746
2.178	59.212
2.164	59.493
2.15	59.65
2.136	59.625
2.122	59.139
2.108	58.483
2.094	57.701
2.08	57.039
2.066	56.383
2.052	55.691
2.038	55.438
2.024	55.115
2.01	54.746
1.996	54.114
1.982	52.989
1.968	51.894
1.954	50.63
1.94	50.718
1.926	52.89
1.912	55.348
1.898	58.467
1.884	61.746
1.87	63.566
1.856	64.486
1.842	65.147
1.828	64.695
1.814	64.739
1.8	64.812
1.786	64.731
1.772	64.967
1.758	64.918
1.744	65.258
1.73	65.594
1.716	65.819
1.702	66.221
1.688	66.431
1.674	66.707
1.66	67.241
1.646	67.42
1.632	67.666
1.618	67.536
1.604	67.838
1.59	67.646
1.576	67.576
1.562	67.243
1.548	66.761
1.534	66.151
1.52	66
1.506	65.661
1.492	65.731
1.478	65.566
1.464	65.976
1.45	66.432
1.436	67.279
1.422	68.579
1.408	69.698
1.394	71.015
1.38	71.718
1.366	71.968
1.352	71.922
1.338	72.213
1.324	72.355
1.31	72.22
1.296	72.457
1.282	72.271
1.268	72.594
1.254	72.355
1.24	72.463
1.226	72.246
1.212	72.231
1.198	72.184
1.184	72.207
1.17	72.352
1.156	72.303
1.142	72.368
1.128	72.547
1.114	72.564
1.1	72.41
1.086	72.488
1.072	72.3
1.058	72.287
1.044	72.229
1.03	72.058
1.016	72.066
1.002	72.084
0.988	71.852
0.974	71.945
0.96	71.961
0.946	71.935
0.932	72.045
0.918	71.853
0.904	71.883
0.89	71.9
0.876	71.755
0.862	71.721
0.848	71.746
0.834	71.604
0.82	71.505
0.806	71.487
0.792	71.404
0.778	71.297
0.764	71.179
0.75	71.085
0.736	70.962
0.722	70.776
0.708	70.591
0.694	70.379
0.68	70.147
0.666	69.987
0.652	69.66
0.638	69.488
0.624	69.154
0.61	68.817
0.596	68.43
0.582	67.895
0.568	67.324
0.554	66.666
0.54	65.969
0.526	65.205
0.512	64.432
0.498	63.683
0.484	62.855
0.47	62.051
0.456	61.256
0.442	60.291
0.428	59.263
0.414	58.198
0.4	57.247
