Name: Apatite Ca_5(PO_4)_3F
Type: Mineral
Class: Phosphate
Subclass: None
Particle Size: Medium
Sample No.: P-1A
Owner: JPL
Wavelength Range: TIR
Origin: Canada, Ontario, Lanark County, Perth
Description: Particle size was 45-125um.Collected by Ward's Original ASTER Spectral Library name was jpl.nicolet.mineral.phosphate.none.medium.p01a.spectrum.txt
Measurement: Hemispherical reflectance
X Units: Wavelength (micrometers)
Y Units: Reflectance (percent)
wavelength	value
15.3853	1.5269
15.1161	2.3966
14.8563	2.6493
14.6052	2.7508
14.3624	3.5296
14.1276	3.3518
13.9004	3.1998
13.6803	3.2502
13.4671	3.0518
13.2604	3.1864
13.06	4.9367
12.8656	6.4604
12.6769	6.8529
12.4936	7.252
12.3155	7.3827
12.1425	7.5196
11.9742	7.6811
11.8106	6.8428
11.6513	6.1902
11.4963	5.9558
11.3454	6.423
11.1983	6.2508
11.0551	6.3384
10.9154	6.221
10.7793	5.9257
10.6465	6.1015
10.5169	6.1069
10.3904	6.6384
10.267	6.746
10.1464	7.9158
10.0287	9.2224
9.9136	11.4453
9.8012	15.8216
9.6913	26.2337
9.5838	36.266
9.4787	36.9066
9.3758	37.4925
9.2752	32.2874
9.1767	23.4472
9.0803	37.5602
8.9858	38.2649
8.8934	27.2404
8.8028	13.7278
8.714	4.7162
8.627	2.3239
8.5417	1.7914
8.4581	1.5517
8.3761	1.6166
8.2957	1.8025
8.2169	1.8204
8.1395	2.0116
8.0635	2.1441
7.989	2.4441
7.9158	2.7503
7.8439	3.4363
7.7734	4.2105
7.7041	5.0435
7.636	6.068
7.5691	7.0746
7.5034	8.1445
7.4388	9.2721
7.3753	10.4749
7.3129	11.4424
7.2515	12.1287
7.1912	11.058
7.1318	8.8477
7.0734	6.5344
7.016	4.7632
6.9595	7.9936
6.9039	5.6862
6.8492	5.3565
6.7953	7.6788
6.7423	9.5633
6.6901	11.611
6.6387	14.1928
6.5881	16.4961
6.5382	17.1031
6.4892	18.0472
6.4408	17.6648
6.3931	19.4933
6.3462	19.8509
6.2999	23.8472
6.2543	26.0397
6.2094	25.3531
6.1651	25.7046
6.1214	25.8544
6.0784	25.4697
6.0359	26.7048
5.994	29.6131
5.9527	31.7876
5.912	32.954
5.8718	34.73
5.8322	37.424
5.7931	36.638
5.7545	38.234
5.7165	40.0606
5.6789	39.7406
5.6418	41.605
5.6052	37.1847
5.5691	32.8898
5.5334	38.718
5.4982	42.7745
5.4635	45.2074
5.4291	45.8225
5.3952	44.8337
5.3618	43.9028
5.3287	43.8232
5.2961	43.6556
5.2638	43.3914
5.2319	42.7099
5.2004	38.5997
5.1693	38.6993
5.1386	39.8985
5.1082	35.9086
5.0782	29.0024
5.0485	15.9388
5.0192	5.1033
4.9902	5.4347
4.9616	6.8424
4.9332	9.6583
4.9052	11.4133
4.8776	9.6833
4.8502	10.7701
4.8231	8.2281
4.7963	7.3057
4.7699	9.7977
4.7437	12.9173
4.7178	13.7776
4.6922	13.1429
4.6668	12.7401
4.6418	12.7716
4.617	14.8146
4.5924	21.4081
4.5681	23.2132
4.5441	27.6899
4.5203	35.4702
4.4968	42.1742
4.4735	45.7336
4.4505	48.412
4.4277	50.814
4.4051	52.5797
4.3828	52.5485
4.3607	52.7927
4.3388	54.3951
4.3171	56.8852
4.2956	58.8571
4.2744	60.4671
4.2534	61.7692
4.2325	63.7716
4.2119	64.2878
4.1915	64.6222
4.1712	65.0729
4.1512	65.168
4.1313	64.5849
4.1117	63.479
4.0922	62.1635
4.0729	60.0726
4.0538	57.1508
4.0349	51.7993
4.0161	47.8591
3.9976	44.4185
3.9792	42.0275
3.9609	43.9094
3.9428	47.2576
3.9249	49.3485
3.9072	50.2634
3.8896	50.724
3.8722	50.8604
3.8549	50.9961
3.8378	51.6765
3.8208	54.5326
3.804	58.1242
3.7873	62.0606
3.7708	62.9811
3.7544	62.9577
3.7382	62.8571
3.7221	62.8873
3.7061	62.8591
3.6903	62.7743
3.6746	62.5654
3.659	62.4093
3.6436	62.2384
3.6283	61.9618
3.6131	61.5669
3.5981	60.9196
3.5832	59.508
3.5684	58.2241
3.5537	57.8296
3.5391	55.7816
3.5247	51.1521
3.5104	47.1756
3.4962	45.2366
3.4821	43.4732
3.4681	44.7157
3.4543	46.8341
3.4405	47.311
3.4269	47.2258
3.4133	46.4805
3.3999	46.0932
3.3866	44.9094
3.3733	44.6695
3.3602	44.5598
3.3472	44.7672
3.3343	50.576
3.3215	52.0904
3.3088	52.2777
3.2961	52.1341
3.2836	52.2327
3.2712	52.6608
3.2588	52.5816
3.2466	52.3498
3.2345	51.758
3.2224	51.5502
3.2104	51.137
3.1985	50.8073
3.1867	50.4291
3.175	50.042
3.1634	49.4147
3.1519	48.9327
3.1404	48.4232
3.129	48.2918
3.1178	47.7661
3.1065	47.4213
3.0954	47.3419
3.0844	47.186
3.0734	47.1191
3.0625	46.7933
3.0517	46.2707
3.041	46.1198
3.0303	45.4946
3.0197	44.7972
3.0092	44.0556
2.9987	43.4717
2.9884	42.1083
2.9781	40.8713
2.9678	39.7019
2.9577	38.8766
2.9476	39.1101
2.9376	39.6538
2.9276	39.9745
2.9177	39.5307
2.9079	38.4523
2.8982	37.2225
2.8885	35.1237
2.8789	32.6339
2.8693	29.5479
2.8598	27.4581
2.8504	24.4499
2.841	14.9749
2.8317	10.045
2.8224	9.2788
2.8133	12.4507
2.8041	18.0159
2.7951	22.9515
2.786	32.707
2.7771	38.7559
2.7682	42.2383
2.7594	43.2403
2.7506	44.9875
2.7418	47.1724
2.7332	47.0537
2.7246	45.4628
2.716	44.6884
2.7075	58.1374
2.699	61.6712
2.6906	61.7183
2.6823	61.5896
2.674	61.4978
2.6657	63.4968
2.6575	60.9504
2.6494	61.2726
2.6413	63.4611
2.6332	65.5703
2.6252	66.8536
2.6173	68.4625
2.6094	66.2618
2.6015	65.0057
2.5937	68.1732
2.5859	69.9789
2.5782	72.3054
2.5706	74.5007
2.5629	76.9041
2.5554	76.4454
2.5478	76.0493
2.5403	75.3737
2.5329	75.8703
2.5255	76.6797
2.5181	77.5159
2.5108	77.9668
2.5035	78.2793
2.4963	78.7097
2.4891	79.1403
2.482	79.5865
2.4749	79.9081
2.4678	80.1304
2.4608	80.8095
2.4538	81.3611
2.4468	81.7096
2.4399	81.7744
2.4331	81.9289
2.4262	82.1589
2.4194	82.6133
2.4127	82.7663
2.4059	82.859
2.3993	82.4003
2.3926	81.9665
2.386	82.2697
2.3795	82.5614
2.3729	82.8654
2.3664	82.9739
2.36	82.6608
2.3535	82.0199
2.3471	81.8198
2.3408	81.3573
2.3345	81.2192
2.3282	81.0873
2.3219	80.3743
2.3157	79.1415
2.3095	79.813
2.3034	81.1224
2.2972	81.3945
2.2911	81.2899
2.2851	82.52
2.279	83.3517
2.2731	83.8147
2.2671	84.29
2.2612	84.742
2.2553	84.7711
2.2494	84.8845
2.2435	84.9017
2.2377	85.0191
2.232	84.9746
2.2262	85.2627
2.2205	85.1577
2.2148	85.3308
2.2091	85.2721
2.2035	85.5013
2.1979	85.4691
2.1923	85.2408
2.1868	85.2282
2.1812	85.0234
2.1758	84.8906
2.1703	84.7194
2.1649	84.6917
2.1595	84.5357
2.1541	84.4704
2.1487	84.7806
2.1434	84.7755
2.1381	85.2939
2.1328	85.2637
2.1275	85.4397
2.1223	85.422
2.1171	85.7449
2.112	85.5871
2.1068	85.5186
2.1017	85.5983
2.0966	85.5068
2.0915	85.643
2.0865	85.5585
2.0814	85.6362
2.0764	85.3677
2.0715	85.1704
2.0665	85.7361
2.0616	85.4768
2.0567	85.4165
2.0518	85.2637
2.0469	85.2755
2.0421	85.0126
2.0373	84.9337
2.0325	84.9677
2.0277	84.4218
2.0229	84.1224
2.0182	83.8281
2.0135	83.5959
2.0088	82.9166
2.0042	82.0834
