Name: Anorthite (Feldspar) (NaSi,CaAl)AlSi_2O_8
Type: Mineral
Class: Silicate
Subclass: Tectosilicate
Particle Size: Medium
Sample No.: TS-5A
Owner: JPL
Wavelength Range: VSWIR
Origin: Unknown.
Description: Particle size was 45-125um. Collected by:  JPL Original ASTER Spectral Library name was jpl.perkin.mineral.silicate.tectosilicate.medium.ts05a.spectrum.txt
Measurement: Hemispherical reflectance
X Units: Wavelength (micrometers)
Y Units: Reflectance (percent)
wavelength	value
2.5	54.6341
2.494	54.1794
2.488	54.2894
2.482	53.9616
2.476	53.7285
2.47	53.457
2.464	53.622
2.458	53.9508
2.452	54.4952
2.446	55.0887
2.44	55.5561
2.434	56.04
2.428	56.3673
2.422	56.7538
2.416	56.953
2.41	57.0485
2.404	56.9771
2.398	56.782
2.392	56.3856
2.386	55.9943
2.38	55.4405
2.374	54.5875
2.368	53.4113
2.362	52.3954
2.356	51.7763
2.35	51.778
2.344	52.3091
2.338	52.8113
2.332	53.4985
2.326	54.3962
2.32	55.682
2.314	56.8419
2.308	57.7909
2.302	58.3705
2.296	58.7213
2.29	59.1324
2.284	59.5814
2.278	60.1724
2.272	60.343
2.266	60.2914
2.26	60.2233
2.254	60.4774
2.248	60.9886
2.242	61.6394
2.236	62.4512
2.23	63.2444
2.224	63.9038
2.218	64.4244
2.212	64.6731
2.206	64.579
2.2	64.7165
2.194	64.6292
2.188	64.9998
2.182	65.5
2.176	66.0213
2.17	66.5689
2.164	67.2132
2.158	67.6245
2.152	68.0213
2.146	68.1602
2.14	68.3265
2.134	68.3038
2.128	68.2238
2.122	68.0876
2.116	67.9572
2.11	67.8182
2.104	67.6584
2.098	67.5356
2.092	67.6025
2.086	67.6936
2.08	67.7088
2.074	67.7257
2.068	67.6938
2.062	67.7285
2.056	67.7249
2.05	67.6947
2.044	67.6109
2.038	67.5147
2.032	67.3681
2.026	67.1491
2.02	67.028
2.014	66.822
2.008	66.6872
2.002	66.5454
1.996	66.3081
1.99	66.0127
1.984	65.8624
1.978	65.7073
1.972	65.4956
1.966	65.328
1.96	65.2408
1.954	65.1197
1.948	64.8607
1.942	64.6812
1.936	64.4304
1.93	64.3005
1.924	63.9683
1.918	63.7557
1.912	63.8598
1.906	64.3335
1.9	65.3277
1.894	66.4805
1.888	67.3872
1.882	67.8383
1.876	68.1702
1.87	68.4164
1.864	68.6758
1.858	68.7761
1.852	68.7717
1.846	68.8087
1.84	68.8637
1.834	68.9611
1.828	69.1054
1.822	69.157
1.816	69.2296
1.81	69.0812
1.804	69.1651
1.798	69.1388
1.792	69.0753
1.786	69.0699
1.78	69.0385
1.774	68.9661
1.768	68.9579
1.762	68.9632
1.756	68.8725
1.75	68.8943
1.744	68.8459
1.738	68.8084
1.732	68.7788
1.726	68.7315
1.72	68.7002
1.714	68.6368
1.708	68.5359
1.702	68.4727
1.696	68.3812
1.69	68.3749
1.684	68.3476
1.678	68.264
1.672	68.2268
1.666	68.2156
1.66	68.1668
1.654	68.1375
1.648	68.1173
1.642	68.2172
1.636	68.1001
1.63	68.1849
1.624	68.2656
1.618	68.275
1.612	68.1539
1.606	68.1429
1.6	68.1336
1.594	68.1032
1.588	67.992
1.582	67.9312
1.576	67.8766
1.57	67.8449
1.564	67.8775
1.558	67.8833
1.552	67.8298
1.546	67.8002
1.54	67.7308
1.534	67.6659
1.528	67.6896
1.522	67.467
1.516	67.3863
1.51	67.2635
1.504	67.1059
1.498	66.9767
1.492	66.8071
1.486	66.395
1.48	65.9287
1.474	65.8486
1.468	65.9238
1.462	65.7923
1.456	65.7479
1.45	65.5042
1.444	65.3312
1.438	65.1113
1.432	64.8015
1.426	64.6123
1.42	64.0149
1.414	63.1872
1.408	62.5914
1.402	62.7425
1.396	63.255
1.39	63.9309
1.384	64.7622
1.378	64.91
1.372	64.8319
1.366	64.8097
1.36	64.6489
1.354	64.4817
1.348	64.3306
1.342	64.2421
1.336	64.0584
1.33	63.9088
1.324	63.7542
1.318	63.6356
1.312	63.5371
1.306	63.4633
1.3	63.2402
1.294	63.1617
1.288	62.9647
1.282	62.8869
1.276	62.8334
1.27	62.6546
1.264	62.5998
1.258	62.4566
1.252	62.3953
1.246	62.2321
1.24	62.1318
1.234	62.0833
1.228	61.9795
1.222	61.8499
1.216	61.7731
1.21	61.6446
1.204	61.6037
1.198	61.4675
1.192	61.4675
1.186	61.4316
1.18	61.3393
1.174	61.3296
1.168	61.3234
1.162	61.2607
1.156	61.1885
1.15	61.1856
1.144	61.2195
1.138	61.2397
1.132	61.1665
1.126	61.2735
1.12	61.141
1.114	61.273
1.108	61.1779
1.102	61.4088
1.096	61.3807
1.09	61.477
1.084	61.488
1.078	61.5175
1.072	61.6494
1.066	61.6066
1.06	61.7639
1.054	61.9048
1.048	61.9257
1.042	62.0787
1.036	62.2425
1.03	62.2699
1.024	62.4041
1.018	62.4857
1.012	62.6041
1.006	62.6779
1	62.8781
0.994	62.8858
0.988	62.9856
0.982	63.0573
0.976	63.063
0.97	63.1572
0.964	63.1275
0.958	63.1636
0.952	63.1923
0.946	63.2701
0.94	63.1839
0.934	63.1649
0.928	63.066
0.922	63.0539
0.916	62.9993
0.91	62.8851
0.904	62.8258
0.898	62.7725
0.892	62.7341
0.886	62.6827
0.88	62.6503
0.874	62.5348
0.868	62.6027
0.862	62.4985
0.856	62.5617
0.85	62.5437
0.844	62.6231
0.838	62.7677
0.832	62.8503
0.826	62.9829
0.82	63.1283
0.814	63.2335
0.808	63.3854
0.802	63.5442
0.796	63.5698
0.79	63.6916
0.784	63.8215
0.778	63.9419
0.772	63.9596
0.766	64.0252
0.76	64.125
0.754	64.1518
0.748	64.1846
0.742	64.2044
0.736	64.2488
0.73	64.2887
0.724	64.2872
0.718	64.2965
0.712	64.3076
0.706	64.3022
0.7	64.2991
0.694	64.3241
0.688	64.3034
0.682	64.2883
0.676	64.2637
0.67	64.2501
0.664	64.2166
0.658	64.183
0.652	64.1448
0.646	64.1065
0.64	64.0681
0.634	64.0346
0.628	63.9954
0.622	63.937
0.616	63.9158
0.61	63.8636
0.604	63.8149
0.598	63.7916
0.592	63.7808
0.586	63.731
0.58	63.6618
0.574	63.5776
0.568	63.5073
0.562	63.4199
0.556	63.2886
0.55	63.1411
0.544	62.9616
0.538	62.7571
0.532	62.5072
0.526	62.2237
0.52	61.8962
0.514	61.4927
0.508	61.0266
0.502	60.5094
0.496	59.9856
0.49	59.4213
0.484	58.8966
0.478	58.39
0.472	57.874
0.466	57.348
0.46	56.6816
0.454	55.9016
0.448	55.1896
0.442	54.499
0.436	53.6262
0.43	52.4487
0.424	51.2419
0.418	50.3822
0.412	49.853
0.406	49.1781
0.4	48.167
