Name: Quartz SiO_2
Type: Mineral
Class: Silicate
Subclass: Tectosilicate
Particle Size: Medium
Sample No.: TS-1A
Owner: JPL
Wavelength Range: VSWIR
Origin: USA, Arkansas, Montgomery County, Mount Ida.
Description: Rock crystalParticle size was 45-125um.Collected by:  Burminco Original ASTER Spectral Library name was jpl.perkin.mineral.silicate.tectosilicate.medium.ts01a.spectrum.txt
Measurement: Hemispherical reflectance
X Units: Wavelength (micrometers)
Y Units: Reflectance (percent)
wavelength	value
2.5	83.1696
2.494	82.7929
2.488	83.0013
2.482	83.2201
2.476	83.0795
2.47	83.1562
2.464	83.2447
2.458	83.34
2.452	83.3992
2.446	83.5738
2.44	83.734
2.434	83.7069
2.428	83.9451
2.422	83.8384
2.416	84.1303
2.41	84.1589
2.404	84.2036
2.398	84.3251
2.392	84.3475
2.386	84.4333
2.38	84.5279
2.374	84.7089
2.368	84.7271
2.362	84.849
2.356	84.914
2.35	85.069
2.344	85.0417
2.338	85.0564
2.332	85.0737
2.326	85.0842
2.32	85.0613
2.314	85.0193
2.308	84.9519
2.302	85.0241
2.296	85.0065
2.29	84.9792
2.284	84.9743
2.278	84.9542
2.272	84.8661
2.266	84.8236
2.26	84.9422
2.254	84.8587
2.248	84.9034
2.242	84.9134
2.236	84.9234
2.23	84.9246
2.224	85.0696
2.218	84.9746
2.212	85.1179
2.206	85.1696
2.2	85.2732
2.194	85.4432
2.188	85.583
2.182	85.636
2.176	85.8105
2.17	85.9491
2.164	86.1023
2.158	86.1796
2.152	86.3886
2.146	86.4816
2.14	86.4308
2.134	86.372
2.128	86.24
2.122	85.9885
2.116	85.7269
2.11	85.3998
2.104	85.2078
2.098	85.0879
2.092	85.1094
2.086	85.1519
2.08	85.3134
2.074	85.3617
2.068	85.4232
2.062	85.4822
2.056	85.6024
2.05	85.6746
2.044	85.733
2.038	85.7981
2.032	85.7445
2.026	85.7785
2.02	85.8161
2.014	85.7807
2.008	85.7611
2.002	85.8326
1.996	85.6431
1.99	85.5518
1.984	85.407
1.978	85.4087
1.972	85.3504
1.966	85.3191
1.96	85.2908
1.954	85.2807
1.948	85.198
1.942	85.2626
1.936	85.1728
1.93	85.2925
1.924	85.3134
1.918	85.4448
1.912	85.5142
1.906	85.5432
1.9	85.589
1.894	85.7982
1.888	85.9507
1.882	86.035
1.876	86.0664
1.87	86.1642
1.864	86.1938
1.858	86.2666
1.852	86.3218
1.846	86.2424
1.84	86.2269
1.834	86.2759
1.828	86.235
1.822	86.3488
1.816	86.2703
1.81	86.3232
1.804	86.3596
1.798	86.3204
1.792	86.298
1.786	86.2911
1.78	86.2963
1.774	86.2362
1.768	86.2564
1.762	86.2101
1.756	86.2521
1.75	86.2339
1.744	86.306
1.738	86.3093
1.732	86.2775
1.726	86.294
1.72	86.3359
1.714	86.3684
1.708	86.3348
1.702	86.2933
1.696	86.3002
1.69	86.2854
1.684	86.2335
1.678	86.2906
1.672	86.2299
1.666	86.2707
1.66	86.298
1.654	86.2955
1.648	86.2468
1.642	86.2501
1.636	86.2759
1.63	86.2748
1.624	86.2634
1.618	86.1467
1.612	86.2083
1.606	86.2493
1.6	86.287
1.594	86.2924
1.588	86.212
1.582	86.2386
1.576	86.2565
1.57	86.1535
1.564	86.2045
1.558	86.1075
1.552	86.1497
1.546	86.1017
1.54	86.0775
1.534	86.139
1.528	86.0611
1.522	86.0682
1.516	86.0397
1.51	86.0464
1.504	86.0943
1.498	85.9873
1.492	86.0191
1.486	85.9191
1.48	85.9149
1.474	85.8813
1.468	85.9083
1.462	85.9326
1.456	85.8802
1.45	85.92
1.444	85.8799
1.438	85.8667
1.432	85.851
1.426	85.8213
1.42	85.8548
1.414	85.8175
1.408	85.8498
1.402	85.9227
1.396	85.9791
1.39	85.9924
1.384	86.0619
1.378	85.9338
1.372	86.0851
1.366	86.0589
1.36	85.987
1.354	85.9922
1.348	85.9543
1.342	85.9051
1.336	85.9163
1.33	85.9493
1.324	85.9533
1.318	85.9446
1.312	85.8975
1.306	85.9475
1.3	85.9165
1.294	85.7968
1.288	85.8765
1.282	85.8743
1.276	85.8288
1.27	85.8402
1.264	85.8531
1.258	85.8031
1.252	85.806
1.246	85.8138
1.24	85.7865
1.234	85.8235
1.228	85.802
1.222	85.7962
1.216	85.7344
1.21	85.7851
1.204	85.7502
1.198	85.8139
1.192	85.8111
1.186	85.7619
1.18	85.7732
1.174	85.7262
1.168	85.8253
1.162	85.7478
1.156	85.7414
1.15	85.8125
1.144	85.7518
1.138	85.7659
1.132	85.8043
1.126	85.8136
1.12	85.7827
1.114	85.8133
1.108	85.8337
1.102	85.8046
1.096	85.9048
1.09	85.8638
1.084	85.7697
1.078	85.8176
1.072	85.8334
1.066	85.8437
1.06	85.9136
1.054	85.8305
1.048	85.7789
1.042	85.7606
1.036	85.8928
1.03	85.9015
1.024	85.8543
1.018	85.8149
1.012	85.8148
1.006	85.8845
1	85.8557
0.994	85.856
0.988	85.8954
0.982	85.8952
0.976	85.9088
0.97	85.8018
0.964	85.8965
0.958	85.8652
0.952	85.8015
0.946	85.8247
0.94	85.8445
0.934	85.827
0.928	85.8094
0.922	85.812
0.916	85.7811
0.91	85.8303
0.904	85.8601
0.898	85.7433
0.892	85.7983
0.886	85.765
0.88	85.735
0.874	85.7631
0.868	85.6587
0.862	85.694
0.856	85.7612
0.85	85.8388
0.844	85.7515
0.838	85.7653
0.832	85.74
0.826	85.6818
0.82	85.719
0.814	85.7486
0.808	85.7719
0.802	85.7178
0.796	85.6612
0.79	85.6314
0.784	85.5949
0.778	85.6044
0.772	85.5125
0.766	85.5662
0.76	85.5278
0.754	85.4342
0.748	85.4755
0.742	85.4705
0.736	85.4398
0.73	85.4307
0.724	85.4025
0.718	85.367
0.712	85.3582
0.706	85.3465
0.7	85.3292
0.694	85.3209
0.688	85.2555
0.682	85.2423
0.676	85.2517
0.67	85.2136
0.664	85.208
0.658	85.1776
0.652	85.1615
0.646	85.1598
0.64	85.1326
0.634	85.1151
0.628	85.1001
0.622	85.0801
0.616	85.077
0.61	85.0593
0.604	85.0487
0.598	85.0573
0.592	85.0835
0.586	85.0606
0.58	85.0276
0.574	85.0083
0.568	84.9588
0.562	84.9306
0.556	84.8672
0.55	84.8312
0.544	84.7943
0.538	84.7399
0.532	84.685
0.526	84.6193
0.52	84.5383
0.514	84.4776
0.508	84.3845
0.502	84.2778
0.496	84.1293
0.49	83.9688
0.484	83.784
0.478	83.651
0.472	83.4963
0.466	83.3707
0.46	83.2119
0.454	82.9946
0.448	82.8373
0.442	82.663
0.436	82.5165
0.43	82.3775
0.424	82.2619
0.418	82.1576
0.412	82.0966
0.406	82.022
0.4	82.0036
