Name: Buddingtonite (Feldspar) (NH_4)AlSi_3O_8.0.5H_2O
Type: Mineral
Class: Silicate
Subclass: Tectosilicate
Particle Size: Coarse
Sample No.: TS-11A
Owner: JPL
Wavelength Range: VSWIR
Origin: USA, California, Lake County, Sulfur Bank
Description: Particle size was 125-500um.Collected by Krohn, Dennis Original ASTER Spectral Library name was jpl.beckman.mineral.silicate.tectosilicate.coarse.ts11a.spectrum.txt
Measurement: Hemispherical reflectance
X Units: Wavelength (micrometers)
Y Units: Reflectance (percent)
wavelength	value
0.4	20.53
0.403	20.78
0.406	21.11
0.409	21.46
0.412	21.8
0.415	22.05
0.418	22.26
0.421	22.56
0.424	22.77
0.427	22.98
0.43	23.32
0.433	23.61
0.436	23.72
0.439	24.11
0.442	24.38
0.445	24.66
0.448	24.81
0.451	25.21
0.454	25.64
0.457	25.82
0.46	26.04
0.463	26.36
0.466	26.7
0.469	26.92
0.472	27.06
0.475	27.44
0.478	27.8
0.481	27.9
0.484	28.16
0.487	28.62
0.49	28.71
0.493	28.93
0.496	29.17
0.499	29.54
0.502	29.74
0.505	30.13
0.508	30.4
0.511	30.68
0.514	30.78
0.517	31.13
0.52	31.42
0.523	31.57
0.526	31.9
0.529	32.37
0.532	32.44
0.535	32.73
0.538	32.99
0.541	33.25
0.544	33.52
0.547	33.78
0.55	34.08
0.553	34.33
0.556	34.59
0.559	34.81
0.562	35.22
0.565	35.54
0.568	35.9
0.571	35.89
0.574	35.94
0.577	36.29
0.58	36.47
0.583	36.65
0.586	36.97
0.589	37.21
0.592	37.35
0.595	37.52
0.598	37.93
0.601	38
0.604	38.29
0.607	38.69
0.61	38.76
0.613	38.84
0.616	39.09
0.619	39.41
0.622	39.53
0.625	39.77
0.628	40.07
0.631	40.05
0.634	40.31
0.637	40.68
0.64	40.66
0.643	40.93
0.646	41.28
0.649	41.45
0.652	41.52
0.655	41.8
0.658	42.06
0.661	42.23
0.664	42.38
0.667	42.55
0.67	42.8
0.673	43.12
0.676	43.34
0.679	43.26
0.682	43.55
0.685	43.82
0.688	43.89
0.691	44.17
0.694	44.2
0.697	44.35
0.7	44.48
0.703	44.75
0.706	44.78
0.709	45.21
0.712	45.36
0.715	45.3
0.718	45.53
0.721	45.81
0.724	45.87
0.727	46.01
0.73	46.33
0.733	46.33
0.736	46.64
0.739	46.64
0.742	46.7
0.745	46.93
0.748	47.13
0.751	47.27
0.754	47.13
0.757	47.41
0.76	47.52
0.763	47.7
0.766	47.95
0.769	47.98
0.772	48.04
0.775	48.44
0.778	48.44
0.781	48.47
0.784	48.7
0.787	49.06
0.79	49.06
0.793	49.06
0.796	49.4
0.799	49.44
0.808	50.21
0.82	50.57
0.832	51.05
0.844	51.29
0.856	51.59
0.868	51.88
0.88	52.06
0.892	52.2
0.904	52.39
0.916	52.53
0.928	52.76
0.94	53.01
0.952	53.27
0.964	53.45
0.976	53.65
0.988	53.84
1	53.92
1.012	54.07
1.024	54.18
1.036	54.3
1.048	54.27
1.06	54.5
1.072	54.64
1.084	54.87
1.096	55.01
1.108	55.09
1.12	55.33
1.132	55.4
1.144	55.54
1.156	55.67
1.168	55.78
1.18	55.92
1.192	56.12
1.204	56.2
1.216	56.19
1.228	56.33
1.24	56.54
1.252	56.61
1.264	56.65
1.276	56.72
1.288	56.95
1.3	57.06
1.312	57.25
1.324	57.4
1.336	57.46
1.348	57.61
1.36	57.72
1.372	57.53
1.384	56.82
1.396	55.26
1.408	53.77
1.42	55.3
1.432	56.66
1.444	57.07
1.456	57.03
1.468	56.97
1.48	56.91
1.492	56.66
1.504	56.11
1.516	55.32
1.528	54.32
1.54	53.24
1.552	52.47
1.564	52.51
1.576	53.39
1.588	54.32
1.6	54.99
1.612	55.4
1.624	55.47
1.636	55.64
1.648	55.9
1.66	56.31
1.672	56.72
1.684	56.74
1.696	56.67
1.708	56.66
1.72	56.51
1.732	56.78
1.744	56.87
1.756	56.82
1.768	56.84
1.78	56.89
1.792	56.83
1.804	56.9
1.816	56.75
1.828	56.56
1.84	56.31
1.852	55.99
1.864	55.41
1.876	54.19
1.888	52.13
1.9	50.21
1.912	49.39
1.924	49.1
1.936	48.7
1.948	47.86
1.96	46.51
1.972	44.22
1.984	40.98
1.996	37.61
2.008	35.21
2.02	34.39
2.032	34.26
2.044	34.12
2.056	33.67
2.068	32.71
2.08	31.4
2.092	29.39
2.104	27.81
2.116	26.97
2.128	27.09
2.14	28
2.152	29.15
2.164	30.49
2.176	31.78
2.188	33.02
2.2	34.04
2.212	35.08
2.224	36.47
2.236	37.86
2.248	39.31
2.26	40.67
2.272	41.91
2.284	42.75
2.296	43.23
2.308	43.5
2.32	43.7
2.332	43.74
2.344	43.87
2.356	44.24
2.368	44.76
2.38	45.18
2.392	45.31
2.404	45.22
2.416	45.13
2.428	44.87
2.44	44.53
2.452	44.41
2.464	44.2
2.476	44.03
2.488	44.02
2.5	43.87
