Name: Aphthitalite (K,Na)_3Na(SO_4)_2
Type: Mineral
Class: Sulfate
Subclass: None
Particle Size: Medium
Sample No.: SO-9A
Owner: JPL
Wavelength Range: VSWIR
Origin: USA, California, San Bernadino County, Searles Lake
Description: Particle size was 45-125um.Collected by Burminco Original ASTER Spectral Library name was jpl.beckman.mineral.sulfate.none.medium.so09a.spectrum.txt
Measurement: Hemispherical reflectance
X Units: Wavelength (micrometers)
Y Units: Reflectance (percent)
wavelength	value
0.4	81.27
0.403	81.67
0.406	81.81
0.409	82.2
0.412	82.33
0.415	82.59
0.418	82.73
0.421	82.99
0.424	83.17
0.427	83.34
0.43	83.7
0.433	83.95
0.436	84.14
0.439	84.35
0.442	84.28
0.445	84.65
0.448	84.72
0.451	85.05
0.454	85.14
0.457	85.23
0.46	85.45
0.463	85.65
0.466	85.68
0.469	85.91
0.472	86.16
0.475	86.34
0.478	86.59
0.481	86.59
0.484	86.74
0.487	86.77
0.49	86.89
0.493	87.04
0.496	87.17
0.499	87.32
0.502	87.46
0.505	87.64
0.508	87.71
0.511	87.88
0.514	87.98
0.517	88.11
0.52	88.15
0.523	88.33
0.526	88.4
0.529	88.45
0.532	88.35
0.535	88.6
0.538	88.75
0.541	88.7
0.544	88.85
0.547	88.87
0.55	88.9
0.553	89.03
0.556	89.08
0.559	89.17
0.562	89.51
0.565	89.58
0.568	89.51
0.571	89.55
0.574	89.37
0.577	89.42
0.58	89.43
0.583	89.42
0.586	89.54
0.589	89.54
0.592	89.71
0.595	89.72
0.598	89.81
0.601	89.83
0.604	89.86
0.607	89.92
0.61	90.09
0.613	89.99
0.616	89.94
0.619	89.93
0.622	89.93
0.625	90
0.628	90.11
0.631	90
0.634	90.04
0.637	90.16
0.64	90.11
0.643	90.34
0.646	90.27
0.649	90.34
0.652	90.33
0.655	90.5
0.658	90.37
0.661	90.45
0.664	90.39
0.667	90.51
0.67	90.38
0.673	90.44
0.676	90.5
0.679	90.57
0.682	90.62
0.685	90.5
0.688	90.62
0.691	90.51
0.694	90.73
0.697	90.67
0.7	90.57
0.703	90.79
0.706	90.74
0.709	90.86
0.712	90.8
0.715	90.79
0.718	90.8
0.721	90.86
0.724	90.97
0.727	90.86
0.73	90.81
0.733	90.8
0.736	90.91
0.739	90.69
0.742	90.87
0.745	90.8
0.748	90.87
0.751	90.86
0.754	91.03
0.757	90.86
0.76	90.87
0.763	90.97
0.766	90.92
0.769	90.87
0.772	90.97
0.775	90.93
0.778	90.98
0.781	90.98
0.784	90.87
0.787	91.05
0.79	91.04
0.793	90.99
0.796	91.05
0.799	91.03
0.808	91.05
0.82	91.18
0.832	91.23
0.844	91.29
0.856	91.35
0.868	91.41
0.88	91.34
0.892	91.34
0.904	91.4
0.916	91.28
0.928	91.4
0.94	91.46
0.952	91.46
0.964	91.52
0.976	91.51
0.988	91.58
1	91.49
1.012	91.46
1.024	91.46
1.036	91.52
1.048	91.52
1.06	91.53
1.072	91.54
1.084	91.68
1.096	91.69
1.108	91.7
1.12	91.81
1.132	91.8
1.144	91.71
1.156	91.64
1.168	91.55
1.18	91.6
1.192	91.51
1.204	91.5
1.216	91.44
1.228	91.41
1.24	91.43
1.252	91.5
1.264	91.47
1.276	91.52
1.288	91.48
1.3	91.41
1.312	91.39
1.324	91.42
1.336	91.24
1.348	91.27
1.36	91.24
1.372	91.15
1.384	91.1
1.396	90.97
1.408	90.8
1.42	90.61
1.432	90.45
1.444	90.48
1.456	90.32
1.468	90.25
1.48	90.25
1.492	90.36
1.504	90.5
1.516	90.43
1.528	90.48
1.54	90.49
1.552	90.61
1.564	90.61
1.576	90.6
1.588	90.61
1.6	90.67
1.612	90.58
1.624	90.62
1.636	90.66
1.648	90.64
1.66	90.54
1.672	90.54
1.684	90.45
1.696	90.45
1.708	90.32
1.72	90.38
1.732	90.19
1.744	90.14
1.756	90.01
1.768	90.02
1.78	89.91
1.792	89.92
1.804	90
1.816	89.85
1.828	89.84
1.84	89.67
1.852	89.61
1.864	89.4
1.876	88.97
1.888	88.2
1.9	87.03
1.912	85.85
1.924	85.05
1.936	84.55
1.948	84.64
1.96	85.08
1.972	85.55
1.984	85.97
1.996	86.27
2.008	86.38
2.02	86.61
2.032	86.56
2.044	86.67
2.056	86.88
2.068	87.1
2.08	87.3
2.092	87.47
2.104	87.69
2.116	88.02
2.128	88.03
2.14	88.09
2.152	87.87
2.164	87.8
2.176	87.83
2.188	87.74
2.2	87.67
2.212	87.54
2.224	87.66
2.236	87.59
2.248	87.73
2.26	87.71
2.272	87.64
2.284	87.47
2.296	87.45
2.308	87.3
2.32	87.46
2.332	87.37
2.344	87.24
2.356	87.05
2.368	86.78
2.38	86.54
2.392	86.28
2.404	86.06
2.416	85.93
2.428	85.75
2.44	85.55
2.452	85.43
2.464	85.23
2.476	85.11
2.488	85.2
2.5	85.51
