Name: Malachite Cu_2(CO_3)(OH)_2
Type: Mineral
Class: Carbonate
Subclass: None
Particle Size: Coarse
Sample No.: C-7A
Owner: JPL
Wavelength Range: TIR
Origin: USA, California, San Bernadino County, Near Valley Wells
Description: Particle size was 125-500um.Collected by Burminco Original ASTER Spectral Library name was jpl.nicolet.mineral.carbonate.none.coarse.c07a.spectrum.txt
Measurement: Hemispherical reflectance
X Units: Wavelength (micrometers)
Y Units: Reflectance (percent)
wavelength	value
15.3853	1.5035
15.1161	1.2299
14.8563	1.498
14.6052	1.3366
14.3624	1.6314
14.1276	1.5849
13.9004	1.7283
13.6803	1.3395
13.4671	1.651
13.2604	1.4791
13.06	1.4276
12.8656	1.3513
12.6769	1.2334
12.4936	1.548
12.3155	1.9461
12.1425	2.421
11.9742	1.6418
11.8106	1.7426
11.6513	1.8469
11.4963	1.9945
11.3454	1.8177
11.1983	1.7062
11.0551	1.4248
10.9154	1.6129
10.7793	1.7312
10.6465	1.982
10.5169	2.1128
10.3904	2.3812
10.267	3.0428
10.1464	3.6052
10.0287	4.4006
9.9136	5.3369
9.8012	5.7675
9.6913	5.9819
9.5838	5.7934
9.4787	4.4784
9.3758	2.5986
9.2752	1.5746
9.1767	1.2155
9.0803	0.8636
8.9858	0.803
8.8934	0.7582
8.8028	0.9173
8.714	0.6451
8.627	0.8102
8.5417	0.8665
8.4581	1.1539
8.3761	1.2833
8.2957	1.2933
8.2169	1.3382
8.1395	1.6655
8.0635	1.6842
7.989	1.7821
7.9158	1.8951
7.8439	1.9344
7.7734	2.1187
7.7041	1.9211
7.636	1.949
7.5691	1.8853
7.5034	1.8517
7.4388	2.0138
7.3753	2.063
7.3129	2.0002
7.2515	2.2378
7.1912	2.8713
7.1318	2.6416
7.0734	2.2705
7.016	1.5247
6.9595	1.0075
6.9039	0.8898
6.8492	1.0047
6.7953	1.0639
6.7423	1.3985
6.6901	1.4972
6.6387	1.54
6.5881	1.6658
6.5382	1.4564
6.4892	1.3007
6.4408	0.8771
6.3931	0.7674
6.3462	0.8025
6.2999	0.7785
6.2543	0.8788
6.2094	0.7576
6.1651	0.8165
6.1214	0.7476
6.0784	0.7694
6.0359	0.8
5.994	0.8057
5.9527	0.8564
5.912	0.9248
5.8718	1.0615
5.8322	1.1761
5.7931	1.252
5.7545	1.449
5.7165	1.4566
5.6789	1.65
5.6418	1.6181
5.6052	1.6647
5.5691	1.7206
5.5334	1.6885
5.4982	1.886
5.4635	2.0228
5.4291	2.0339
5.3952	2.2507
5.3618	2.4281
5.3287	2.4654
5.2961	2.6401
5.2638	2.6332
5.2319	2.5175
5.2004	2.6502
5.1693	2.7193
5.1386	2.7783
5.1082	2.8848
5.0782	2.9549
5.0485	2.9516
5.0192	2.9386
4.9902	3.0347
4.9616	2.9703
4.9332	2.9494
4.9052	2.9864
4.8776	2.8097
4.8502	2.5961
4.8231	2.495
4.7963	2.5682
4.7699	2.6435
4.7437	2.6794
4.7178	2.726
4.6922	2.8024
4.6668	2.8149
4.6418	2.8251
4.617	2.8507
4.5924	2.8739
4.5681	2.9362
4.5441	3.0461
4.5203	3.1361
4.4968	3.1904
4.4735	3.2757
4.4505	3.412
4.4277	3.4307
4.4051	3.481
4.3828	3.6204
4.3607	3.6737
4.3388	3.8026
4.3171	3.8479
4.2956	3.9125
4.2744	4.1274
4.2534	4.0179
4.2325	4.0602
4.2119	3.895
4.1915	3.5848
4.1712	3.5056
4.1512	3.4954
4.1313	3.3953
4.1117	3.443
4.0922	3.5577
4.0729	3.8843
4.0538	3.8617
4.0349	4.0852
4.0161	4.118
3.9976	4.0949
3.9792	3.8842
3.9609	3.7251
3.9428	3.7035
3.9249	3.6913
3.9072	3.8
3.8896	4.0172
3.8722	4.0268
3.8549	4.2538
3.8378	4.2004
3.8208	4.2903
3.804	4.3238
3.7873	4.26
3.7708	4.2715
3.7544	3.9565
3.7382	3.9844
3.7221	3.8164
3.7061	3.7938
3.6903	3.6171
3.6746	3.5501
3.659	3.4587
3.6436	3.309
3.6283	3.135
3.6131	3.1192
3.5981	3.0315
3.5832	2.7385
3.5684	2.6349
3.5537	2.4442
3.5391	2.4001
3.5247	2.4212
3.5104	2.377
3.4962	2.2708
3.4821	2.0378
3.4681	2.0811
3.4543	1.946
3.4405	1.9291
3.4269	2.061
3.4133	1.8798
3.3999	1.9764
3.3866	1.8414
3.3733	1.9255
3.3602	1.7593
3.3472	1.6688
3.3343	1.851
3.3215	1.607
3.3088	1.6984
3.2961	1.6212
3.2836	1.6464
3.2712	1.5534
3.2588	1.5721
3.2466	1.5087
3.2345	1.5222
3.2224	1.3033
3.2104	1.5123
3.1985	1.4365
3.1867	1.4431
3.175	1.3829
3.1634	1.4983
3.1519	1.4497
3.1404	1.5584
3.129	1.444
3.1178	1.428
3.1065	1.3084
3.0954	1.386
3.0844	1.323
3.0734	1.4198
3.0625	1.6356
3.0517	1.2269
3.041	1.2161
3.0303	1.2684
3.0197	1.2142
3.0092	1.2886
2.9987	1.1669
2.9884	1.0613
2.9781	1.1672
2.9678	0.9561
2.9577	1.097
2.9476	1.0601
2.9376	1.0595
2.9276	1.0597
2.9177	1.0268
2.9079	0.9642
2.8982	0.9263
2.8885	1.2855
2.8789	1.14
2.8693	1.1237
2.8598	1.0416
2.8504	1.1205
2.841	0.9828
2.8317	1.063
2.8224	1.0019
2.8133	0.9562
2.8041	0.9882
2.7951	1.0164
2.786	1.1251
2.7771	1.3133
2.7682	1.0797
2.7594	1.2905
2.7506	1.3809
2.7418	1.6818
2.7332	1.6877
2.7246	2.2262
2.716	2.737
2.7075	3.2545
2.699	3.7778
2.6906	4.8566
2.6823	5.9842
2.674	7.1779
2.6657	8.0901
2.6575	9.0763
2.6494	9.8169
2.6413	10.3587
2.6332	10.8266
2.6252	11.3179
2.6173	11.6355
2.6094	12.1529
2.6015	12.3551
2.5937	12.5551
2.5859	12.7095
2.5782	12.9298
2.5706	13.0189
2.5629	13.1642
2.5554	13.3738
2.5478	13.7422
2.5403	13.7983
2.5329	14.0085
2.5255	14.1181
2.5181	14.2973
2.5108	14.5255
2.5035	14.7397
2.4963	14.9715
2.4891	15.0649
2.482	15.3869
2.4749	15.4223
2.4678	15.3881
2.4608	15.4736
2.4538	15.518
2.4468	15.5185
2.4399	15.3681
2.4331	15.608
2.4262	15.6345
2.4194	15.7916
2.4127	15.7697
2.4059	16.015
2.3993	16.3428
2.3926	16.6306
2.386	17.2767
2.3795	17.3956
2.3729	17.6849
2.3664	18.0309
2.36	17.9907
2.3535	18.4714
2.3471	19.4172
2.3408	20.7112
2.3345	21.8662
2.3282	22.764
2.3219	22.9281
2.3157	22.7404
2.3095	22.4729
2.3034	21.8174
2.2972	21.108
2.2911	20.4169
2.2851	19.5987
2.279	18.5486
2.2731	18.0815
2.2671	18.0306
2.2612	18.606
2.2553	19.9004
2.2494	21.3608
2.2435	22.631
2.2377	23.9599
2.232	24.9218
2.2262	25.4769
2.2205	25.6274
2.2148	25.9358
2.2091	27.0194
2.2035	28.0128
2.1979	29.6184
2.1923	30.592
2.1868	31.5652
2.1812	32.2356
2.1758	32.9041
2.1703	33.2772
2.1649	33.5466
2.1595	33.9146
2.1541	34.1439
2.1487	34.5767
2.1434	34.1786
2.1381	34.5088
2.1328	34.5824
2.1275	34.0849
2.1223	33.8668
2.1171	33.6825
2.112	33.201
2.1068	32.8978
2.1017	32.7727
2.0966	32.5947
2.0915	32.5839
2.0865	32.0546
2.0814	31.9634
2.0764	31.3612
2.0715	31.2456
2.0665	30.7583
2.0616	30.6602
2.0567	30.0961
2.0518	30.1555
2.0469	29.4751
2.0421	28.9871
2.0373	28.6
2.0325	28.1403
2.0277	27.6486
2.0229	27.2685
2.0182	26.7522
2.0135	26.2012
2.0088	25.6487
2.0042	25.4403
