Name: Riebeckite Na_2(Fe^2+,Mg)_3,Fe_2^3+Si_8O_22(OH)_2
Type: Mineral
Class: Silicate
Subclass: Inosilicate
Particle Size: Medium
Sample No.: IN-7A
Owner: JPL
Wavelength Range: TIR
Origin: Canada, Ontario
Description: Particle size was 45-125um.Collected by Ward's Original ASTER Spectral Library name was jpl.nicolet.mineral.silicate.inosilicate.medium.in07a.spectrum.txt
Measurement: Hemispherical reflectance
X Units: Wavelength (micrometers)
Y Units: Reflectance (percent)
wavelength	value
15.3853	2.2017
15.1161	2.2046
14.8563	2.2184
14.6052	2.3005
14.3624	2.6688
14.1276	2.6507
13.9004	2.8475
13.6803	2.7214
13.4671	3.1638
13.2604	3.063
13.06	3.1578
12.8656	3.7407
12.6769	4.0976
12.4936	4.3824
12.3155	4.5389
12.1425	5.0093
11.9742	5.484
11.8106	6.0881
11.6513	6.4229
11.4963	7.0568
11.3454	7.5346
11.1983	8.2569
11.0551	9.3097
10.9154	10.1598
10.7793	10.7513
10.6465	11.8039
10.5169	14.0635
10.3904	17.078
10.267	19.6638
10.1464	20.4758
10.0287	19.7205
9.9136	17.3032
9.8012	14.4973
9.6913	13.4587
9.5838	14.9707
9.4787	15.8881
9.3758	15.7498
9.2752	12.9789
9.1767	8.7429
9.0803	5.4061
8.9858	3.8074
8.8934	4.9601
8.8028	6.3477
8.714	4.1077
8.627	1.3703
8.5417	0.6213
8.4581	0.3708
8.3761	0.6051
8.2957	0.6709
8.2169	0.9325
8.1395	1.2496
8.0635	1.4503
7.989	1.8478
7.9158	2.108
7.8439	2.5764
7.7734	2.9371
7.7041	3.2357
7.636	3.685
7.5691	4.0295
7.5034	4.3607
7.4388	4.9318
7.3753	5.3392
7.3129	5.7127
7.2515	6.122
7.1912	6.7372
7.1318	7.2827
7.0734	7.7838
7.016	8.3271
6.9595	9.1366
6.9039	9.3455
6.8492	9.7989
6.7953	10.0907
6.7423	10.3119
6.6901	10.7538
6.6387	11.7859
6.5881	11.1888
6.5382	10.5749
6.4892	10.7124
6.4408	9.3996
6.3931	8.6666
6.3462	8.3132
6.2999	7.7256
6.2543	7.5306
6.2094	7.4895
6.1651	7.7013
6.1214	8.1782
6.0784	8.4906
6.0359	8.5663
5.994	8.8373
5.9527	8.7175
5.912	8.7815
5.8718	9.1479
5.8322	9.2736
5.7931	9.2289
5.7545	9.422
5.7165	9.6879
5.6789	9.8972
5.6418	10.4805
5.6052	10.5005
5.5691	10.917
5.5334	11.4466
5.4982	12.3337
5.4635	13.4206
5.4291	14.3318
5.3952	15.161
5.3618	15.788
5.3287	16.0844
5.2961	16.3584
5.2638	16.4739
5.2319	16.7442
5.2004	16.9456
5.1693	16.8006
5.1386	16.8295
5.1082	16.8427
5.0782	16.9762
5.0485	17.3305
5.0192	17.7902
4.9902	18.2494
4.9616	18.8526
4.9332	19.638
4.9052	20.6157
4.8776	21.7464
4.8502	22.9013
4.8231	24.0479
4.7963	25.1867
4.7699	26.3824
4.7437	27.5962
4.7178	28.7953
4.6922	30.1545
4.6668	31.5511
4.6418	33.2184
4.617	35.0833
4.5924	37.0359
4.5681	38.7937
4.5441	40.3495
4.5203	41.6765
4.4968	42.8663
4.4735	43.623
4.4505	44.3327
4.4277	44.7702
4.4051	45.2564
4.3828	45.6318
4.3607	45.9365
4.3388	46.2415
4.3171	46.4864
4.2956	46.9295
4.2744	47.3004
4.2534	47.3392
4.2325	47.9898
4.2119	47.9756
4.1915	48.1884
4.1712	48.4728
4.1512	48.7312
4.1313	48.9461
4.1117	49.2407
4.0922	49.6147
4.0729	49.8453
4.0538	50.047
4.0349	50.2302
4.0161	50.2821
3.9976	50.4039
3.9792	50.4354
3.9609	50.7313
3.9428	51.3603
3.9249	51.7381
3.9072	52.0436
3.8896	52.3647
3.8722	52.6494
3.8549	52.8155
3.8378	53.0547
3.8208	53.2601
3.804	53.5307
3.7873	53.826
3.7708	53.9653
3.7544	54.2781
3.7382	54.4163
3.7221	54.3536
3.7061	54.4858
3.6903	54.6323
3.6746	54.7588
3.659	54.8342
3.6436	54.9389
3.6283	54.9592
3.6131	55.1
3.5981	55.1427
3.5832	55.1637
3.5684	55.2111
3.5537	55.1875
3.5391	54.9332
3.5247	54.8652
3.5104	54.4191
3.4962	54.1932
3.4821	54.0396
3.4681	54.0525
3.4543	54.0947
3.4405	54.0368
3.4269	53.7506
3.4133	53.3033
3.3999	53.3839
3.3866	53.2867
3.3733	52.925
3.3602	52.7151
3.3472	52.6601
3.3343	52.7447
3.3215	52.461
3.3088	52.3342
3.2961	51.9478
3.2836	51.6291
3.2712	51.6043
3.2588	51.6133
3.2466	51.7745
3.2345	51.6835
3.2224	51.6702
3.2104	51.4795
3.1985	51.1193
3.1867	50.7292
3.175	50.3635
3.1634	49.7415
3.1519	49.4381
3.1404	49.0963
3.129	48.8609
3.1178	48.7448
3.1065	48.6215
3.0954	48.2444
3.0844	48.0404
3.0734	47.7228
3.0625	47.535
3.0517	47.1763
3.041	46.7575
3.0303	46.4091
3.0197	45.9174
3.0092	45.3583
2.9987	45.0221
2.9884	44.5329
2.9781	43.8704
2.9678	43.5494
2.9577	43.1488
2.9476	42.6634
2.9376	42.3721
2.9276	41.9925
2.9177	41.4173
2.9079	41.3045
2.8982	40.8829
2.8885	40.6542
2.8789	40.3805
2.8693	40.0233
2.8598	39.4795
2.8504	39.0515
2.841	38.824
2.8317	38.2177
2.8224	37.994
2.8133	37.5312
2.8041	37.8399
2.7951	36.6576
2.786	35.9952
2.7771	33.151
2.7682	28.4842
2.7594	23.2372
2.7506	16.2262
2.7418	14.1058
2.7332	12.0087
2.7246	12.1753
2.716	13.2347
2.7075	16.7417
2.699	25.0049
2.6906	39.735
2.6823	51.7321
2.674	56.7779
2.6657	60.3922
2.6575	58.1138
2.6494	58.2313
2.6413	58.3182
2.6332	58.5426
2.6252	58.8623
2.6173	60.4735
2.6094	59.8964
2.6015	60.0666
2.5937	62.0446
2.5859	59.9438
2.5782	59.4383
2.5706	59.8107
2.5629	60.323
2.5554	59.1698
2.5478	59.4264
2.5403	59.0897
2.5329	59.2155
2.5255	58.8291
2.5181	58.487
2.5108	58.1847
2.5035	58.0335
2.4963	57.7655
2.4891	57.8071
2.482	58.0204
2.4749	58.1174
2.4678	58.0264
2.4608	57.9273
2.4538	58.0287
2.4468	57.9826
2.4399	57.9785
2.4331	57.7164
2.4262	57.1816
2.4194	56.0594
2.4127	54.818
2.4059	53.3687
2.3993	52.2198
2.3926	51.6873
2.386	52.1405
2.3795	53.1439
2.3729	54.4614
2.3664	55.2576
2.36	54.8064
2.3535	53.7659
2.3471	52.4583
2.3408	51.26
2.3345	50.4166
2.3282	49.8818
2.3219	50.1211
2.3157	51.3483
2.3095	53.5514
2.3034	55.563
2.2972	56.9864
2.2911	58.1014
2.2851	58.9539
2.279	59.2759
2.2731	59.7623
2.2671	59.7983
2.2612	59.8634
2.2553	60.0355
2.2494	60.3008
2.2435	60.1718
2.2377	60.341
2.232	60.4247
2.2262	60.3952
2.2205	60.2264
2.2148	60.1158
2.2091	60.13
2.2035	60.0789
2.1979	59.9566
2.1923	59.861
2.1868	59.6606
2.1812	59.6212
2.1758	59.4951
2.1703	59.4553
2.1649	59.1698
2.1595	59.1998
2.1541	58.9877
2.1487	58.8403
2.1434	58.5907
2.1381	58.576
2.1328	58.2268
2.1275	58.388
2.1223	58.235
2.1171	58.1846
2.112	58.0756
2.1068	58.0265
2.1017	57.7341
2.0966	58.1254
2.0915	57.7761
2.0865	57.9258
2.0814	57.9169
2.0764	57.6351
2.0715	57.7734
2.0665	57.707
2.0616	57.4266
2.0567	57.6846
2.0518	57.3533
2.0469	57.6159
2.0421	57.3314
2.0373	56.9883
2.0325	57.3346
2.0277	56.8165
2.0229	56.7517
2.0182	56.625
2.0135	56.8586
2.0088	56.3186
2.0042	56.3264
