Name: Scheelite CaWO_4
Type: Mineral
Class: Tungstate
Subclass: None
Particle Size: Fine
Sample No.: T-1A
Owner: JPL
Wavelength Range: TIR
Origin: USA, California, Kern County, Atolia
Description: Particle size was 0-45um.Collected by Burminco Original ASTER Spectral Library name was jpl.nicolet.mineral.tungstate.none.fine.t01a.spectrum.txt
Measurement: Hemispherical reflectance
X Units: Wavelength (micrometers)
Y Units: Reflectance (percent)
wavelength	value
15.3853	15.2268
15.1161	15.385
14.8563	14.871
14.6052	14.5118
14.3624	13.3117
14.1276	13.0494
13.9004	11.9131
13.6803	10.9099
13.4671	10.7688
13.2604	9.8983
13.06	9.1572
12.8656	9.81
12.6769	14.1325
12.4936	14.6181
12.3155	13.2288
12.1425	12.5398
11.9742	12.2761
11.8106	12.351
11.6513	12.785
11.4963	12.4106
11.3454	13.9545
11.1983	20.7126
11.0551	14.8952
10.9154	8.4554
10.7793	6.5497
10.6465	5.955
10.5169	6.1742
10.3904	6.1627
10.267	6.2287
10.1464	6.379
10.0287	6.6828
9.9136	7.3171
9.8012	7.5516
9.6913	8.1839
9.5838	9.2191
9.4787	10.3801
9.3758	12.9082
9.2752	14.9713
9.1767	15.1714
9.0803	15.2477
8.9858	15.2573
8.8934	16.0488
8.8028	16.8678
8.714	17.93
8.627	18.0236
8.5417	20.526
8.4581	22.3144
8.3761	24.0276
8.2957	26.269
8.2169	29.7943
8.1395	32.9097
8.0635	34.4863
7.989	36.5874
7.9158	37.4471
7.8439	38.2043
7.7734	39.5814
7.7041	40.5023
7.636	40.8905
7.5691	39.9815
7.5034	40.9765
7.4388	41.3209
7.3753	41.0031
7.3129	39.941
7.2515	38.6398
7.1912	37.4711
7.1318	35.76
7.0734	33.9767
7.016	32.0757
6.9595	31.5993
6.9039	30.7243
6.8492	30.8131
6.7953	32.2805
6.7423	33.4802
6.6901	35.2258
6.6387	38.1614
6.5881	38.9763
6.5382	39.9528
6.4892	42.2446
6.4408	40.1576
6.3931	36.0936
6.3462	32.1961
6.2999	28.4529
6.2543	27.7748
6.2094	27.553
6.1651	28.0108
6.1214	30.3278
6.0784	31.8671
6.0359	30.7954
5.994	30.0052
5.9527	29.2206
5.912	27.7088
5.8718	26.0949
5.8322	27.6034
5.7931	31.7145
5.7545	40.4644
5.7165	41.0752
5.6789	43.6499
5.6418	46.485
5.6052	43.5249
5.5691	35.8463
5.5334	41.2727
5.4982	55.1225
5.4635	59.5481
5.4291	60.2672
5.3952	58.0635
5.3618	55.5039
5.3287	55.7019
5.2961	56.9464
5.2638	59.1072
5.2319	62.2894
5.2004	64.2401
5.1693	64.3139
5.1386	64.2704
5.1082	64.2233
5.0782	63.5217
5.0485	63.2153
5.0192	63.4091
4.9902	63.9502
4.9616	65.8305
4.9332	66.9528
4.9052	68.8073
4.8776	70.885
4.8502	71.9495
4.8231	72.359
4.7963	72.7524
4.7699	72.8757
4.7437	72.9016
4.7178	72.9997
4.6922	72.7184
4.6668	72.8381
4.6418	73.4427
4.617	73.8375
4.5924	73.9607
4.5681	74.0853
4.5441	73.9461
4.5203	73.8281
4.4968	73.4991
4.4735	73.446
4.4505	73.794
4.4277	74.013
4.4051	74.3717
4.3828	74.7236
4.3607	75.0282
4.3388	75.24
4.3171	75.1371
4.2956	74.887
4.2744	73.4679
4.2534	74.207
4.2325	74.8209
4.2119	75.0896
4.1915	75.2986
4.1712	75.4193
4.1512	75.5211
4.1313	75.5357
4.1117	75.585
4.0922	75.4377
4.0729	75.0989
4.0538	74.6476
4.0349	73.5893
4.0161	72.2442
3.9976	70.0524
3.9792	68.6949
3.9609	69.5022
3.9428	71.6866
3.9249	72.6412
3.9072	72.9386
3.8896	73.0142
3.8722	72.976
3.8549	72.9694
3.8378	72.9108
3.8208	73.4382
3.804	73.9093
3.7873	74.2558
3.7708	74.3222
3.7544	74.0068
3.7382	73.8175
3.7221	73.643
3.7061	73.5141
3.6903	73.1536
3.6746	72.895
3.659	72.5828
3.6436	72.2715
3.6283	71.9403
3.6131	71.5527
3.5981	71.0716
3.5832	70.5078
3.5684	69.7385
3.5537	68.982
3.5391	67.9271
3.5247	65.3044
3.5104	59.6017
3.4962	58.5992
3.4821	59.4438
3.4681	60.4908
3.4543	59.1843
3.4405	56.9802
3.4269	53.0622
3.4133	51.8203
3.3999	55.4401
3.3866	55.5576
3.3733	56.7255
3.3602	59.6488
3.3472	60.872
3.3343	61.7355
3.3215	61.7507
3.3088	61.4224
3.2961	60.9605
3.2836	60.3483
3.2712	59.9083
3.2588	59.2452
3.2466	58.7293
3.2345	58.0657
3.2224	57.4803
3.2104	56.7693
3.1985	56.0588
3.1867	55.5206
3.175	54.854
3.1634	54.1862
3.1519	53.629
3.1404	52.9405
3.129	52.3641
3.1178	51.8338
3.1065	51.5576
3.0954	51.0404
3.0844	50.6626
3.0734	50.3282
3.0625	50.2905
3.0517	49.9395
3.041	49.7101
3.0303	49.3937
3.0197	49.1713
3.0092	48.9843
2.9987	48.6652
2.9884	48.4515
2.9781	48.1405
2.9678	48.0515
2.9577	47.5093
2.9476	47.2156
2.9376	47.0456
2.9276	47.406
2.9177	47.9241
2.9079	48.5967
2.8982	49.0143
2.8885	49.3719
2.8789	49.7999
2.8693	49.9861
2.8598	50.488
2.8504	50.7385
2.841	50.9311
2.8317	51.0813
2.8224	51.3602
2.8133	52.1353
2.8041	53.3372
2.7951	53.6365
2.786	54.2784
2.7771	54.108
2.7682	53.5565
2.7594	52.8666
2.7506	54.5856
2.7418	57.3358
2.7332	59.1533
2.7246	63.6312
2.716	67.0449
2.7075	70.0541
2.699	73.0586
2.6906	77.1879
2.6823	79.2809
2.674	80.1798
2.6657	81.8459
2.6575	80.7971
2.6494	81.0913
2.6413	81.2757
2.6332	81.5915
2.6252	81.7559
2.6173	82.4207
2.6094	81.9393
2.6015	82.0802
2.5937	83.0631
2.5859	82.1579
2.5782	82.0181
2.5706	82.2048
2.5629	82.4473
2.5554	81.8938
2.5478	82.0053
2.5403	81.8589
2.5329	81.7512
2.5255	81.8053
2.5181	81.7692
2.5108	81.8293
2.5035	81.7766
2.4963	81.7604
2.4891	81.891
2.482	81.7774
2.4749	81.943
2.4678	81.9209
2.4608	82
2.4538	81.9708
2.4468	82.0373
2.4399	82.1178
2.4331	82.2963
2.4262	82.3037
2.4194	82.4432
2.4127	82.5786
2.4059	82.5335
2.3993	82.6071
2.3926	82.7674
2.386	82.7469
2.3795	82.7901
2.3729	82.924
2.3664	82.8161
2.36	82.9125
2.3535	82.8902
2.3471	82.7327
2.3408	82.7688
2.3345	83.1365
2.3282	83.103
2.3219	83.1236
2.3157	83.1554
2.3095	82.92
2.3034	83.0405
2.2972	83.4193
2.2911	83.2846
2.2851	83.4292
2.279	83.4427
2.2731	83.443
2.2671	83.764
2.2612	83.8108
2.2553	83.7608
2.2494	83.8034
2.2435	83.7895
2.2377	84.0254
2.232	83.8709
2.2262	83.7172
2.2205	83.8979
2.2148	83.6787
2.2091	83.6181
2.2035	83.503
2.1979	83.7632
2.1923	83.6664
2.1868	83.97
2.1812	83.7483
2.1758	84.0543
2.1703	84.2171
2.1649	84.2152
2.1595	84.259
2.1541	84.2191
2.1487	84.1584
2.1434	84.2593
2.1381	84.2158
2.1328	84.1369
2.1275	84.333
2.1223	84.3767
2.1171	84.0387
2.112	84.5502
2.1068	84.2512
2.1017	84.313
2.0966	84.302
2.0915	84.5552
2.0865	84.34
2.0814	84.0518
2.0764	84.3839
2.0715	84.4524
2.0665	84.0485
2.0616	84.1972
2.0567	84.0859
2.0518	84.4869
2.0469	84.2911
2.0421	84.1908
2.0373	84.0663
2.0325	84.0696
2.0277	84.3296
2.0229	84.2271
2.0182	84.2782
2.0135	84.0887
2.0088	84.0364
2.0042	84.0806
