Name: Wollastonite CaSiO_3
Type: Mineral
Class: Silicate
Subclass: Inosilicate
Particle Size: Medium
Sample No.: IN-2A
Owner: JPL
Wavelength Range: VSWIR
Origin: USA, California, Inyo County, Panamint Mountains
Description: Particle size was 45-125um.Collected by Burminco Original ASTER Spectral Library name was jpl.beckman.mineral.silicate.inosilicate.medium.in02a.spectrum.txt
Measurement: Hemispherical reflectance
X Units: Wavelength (micrometers)
Y Units: Reflectance (percent)
wavelength	value
0.4	76.17
0.403	76.28
0.406	76.6
0.409	76.66
0.412	76.8
0.415	76.96
0.418	77.08
0.421	77.09
0.424	77.13
0.427	77.34
0.43	77.29
0.433	77.23
0.436	77.55
0.439	77.46
0.442	77.53
0.445	77.64
0.448	77.9
0.451	77.86
0.454	77.94
0.457	78.07
0.46	78.24
0.463	78.27
0.466	78.45
0.469	78.41
0.472	78.61
0.475	78.63
0.478	78.89
0.481	78.88
0.484	79.01
0.487	79.13
0.49	79.1
0.493	79.13
0.496	79.38
0.499	79.61
0.502	79.37
0.505	79.66
0.508	79.88
0.511	79.87
0.514	79.93
0.517	80.06
0.52	80.07
0.523	80.03
0.526	80.25
0.529	80.31
0.532	80.21
0.535	80.29
0.538	80.44
0.541	80.41
0.544	80.3
0.547	80.59
0.55	80.72
0.553	80.63
0.556	80.76
0.559	80.66
0.562	81
0.565	81.14
0.568	81
0.571	80.81
0.574	80.63
0.577	80.78
0.58	80.57
0.583	80.51
0.586	80.53
0.589	80.47
0.592	80.51
0.595	80.68
0.598	80.48
0.601	80.53
0.604	80.73
0.607	80.64
0.61	80.46
0.613	80.39
0.616	80.52
0.619	80.16
0.622	80.33
0.625	80.27
0.628	80.29
0.631	80.18
0.634	80.24
0.637	80.32
0.64	80.16
0.643	80.35
0.646	80.36
0.649	80.2
0.652	80.04
0.655	80.3
0.658	80.24
0.661	80.14
0.664	80.14
0.667	80.33
0.67	80.19
0.673	80.31
0.676	80.31
0.679	80.48
0.682	80.36
0.685	80.38
0.688	80.4
0.691	80.5
0.694	80.29
0.697	80.46
0.7	80.46
0.703	80.53
0.706	80.48
0.709	80.39
0.712	80.36
0.715	80.6
0.718	80.58
0.721	80.61
0.724	80.69
0.727	80.69
0.73	80.58
0.733	80.72
0.736	80.79
0.739	80.69
0.742	80.76
0.745	80.69
0.748	80.71
0.751	80.52
0.754	80.67
0.757	80.56
0.76	80.46
0.763	80.41
0.766	80.64
0.769	80.55
0.772	80.39
0.775	80.57
0.778	80.34
0.781	80.33
0.784	80.36
0.787	80.4
0.79	80.34
0.793	80.32
0.796	80.34
0.799	80.28
0.808	80.02
0.82	79.7
0.832	79.4
0.844	79.1
0.856	78.69
0.868	78.48
0.88	78
0.892	77.63
0.904	77.12
0.916	76.88
0.928	76.68
0.94	76.6
0.952	76.4
0.964	76.2
0.976	76.23
0.988	76.23
1	76.24
1.012	76.19
1.024	76.17
1.036	76.13
1.048	76.04
1.06	75.95
1.072	75.88
1.084	75.85
1.096	75.77
1.108	75.78
1.12	75.74
1.132	75.77
1.144	75.81
1.156	75.76
1.168	75.95
1.18	75.99
1.192	76.14
1.204	76.34
1.216	76.44
1.228	76.57
1.24	76.71
1.252	76.87
1.264	77.11
1.276	77.27
1.288	77.46
1.3	77.62
1.312	77.71
1.324	77.76
1.336	77.71
1.348	77.82
1.36	77.93
1.372	77.89
1.384	77.99
1.396	77.77
1.408	77.72
1.42	77.65
1.432	77.77
1.444	77.83
1.456	77.76
1.468	77.26
1.48	77.37
1.492	77.84
1.504	77.94
1.516	78.14
1.528	78.14
1.54	78.19
1.552	78.23
1.564	78.34
1.576	78.24
1.588	78.24
1.6	78.35
1.612	78.4
1.624	78.55
1.636	78.66
1.648	78.75
1.66	78.79
1.672	78.91
1.684	78.92
1.696	79
1.708	78.96
1.72	79.03
1.732	79.08
1.744	79.03
1.756	79.14
1.768	79.06
1.78	79.24
1.792	79.31
1.804	79.35
1.816	79.29
1.828	79.22
1.84	79.14
1.852	79.08
1.864	78.92
1.876	78.61
1.888	78.19
1.9	77.47
1.912	77.04
1.924	77.04
1.936	77.1
1.948	77.38
1.96	77.55
1.972	77.93
1.984	78.15
1.996	78.45
2.008	78.63
2.02	78.86
2.032	78.91
2.044	79.08
2.056	79.15
2.068	79.31
2.08	79.43
2.092	79.47
2.104	79.7
2.116	79.62
2.128	79.65
2.14	79.62
2.152	79.53
2.164	79.42
2.176	79.22
2.188	79
2.2	78.78
2.212	78.47
2.224	78.25
2.236	78.19
2.248	78.28
2.26	78.28
2.272	78.18
2.284	78.21
2.296	78.06
2.308	77.43
2.32	76.61
2.332	75.52
2.344	75.15
2.356	75.15
2.368	75.43
2.38	75.86
2.392	76.17
2.404	76.52
2.416	76.87
2.428	77.14
2.44	77.07
2.452	76.83
2.464	76.45
2.476	76.09
2.488	76.18
2.5	76.1
