Name: Rhodonite (Mn,Ca)SiO_3
Type: Mineral
Class: Silicate
Subclass: Inosilicate
Particle Size: Coarse
Sample No.: IN-1A
Owner: JPL
Wavelength Range: TIR
Origin: USA, California, Fresno County
Description: Particle size was 125-500um.Collected by Burminco Original ASTER Spectral Library name was jpl.nicolet.mineral.silicate.inosilicate.coarse.in01a.spectrum.txt
Measurement: Hemispherical reflectance
X Units: Wavelength (micrometers)
Y Units: Reflectance (percent)
wavelength	value
15.3853	2.508
15.1161	3.5851
14.8563	2.1191
14.6052	2.0819
14.3624	2.2989
14.1276	2.8634
13.9004	3.5134
13.6803	2.5875
13.4671	3.051
13.2604	3.1973
13.06	3.6937
12.8656	3.8965
12.6769	4.3356
12.4936	4.5972
12.3155	5.0378
12.1425	5.6548
11.9742	6.0743
11.8106	7.0322
11.6513	8.3445
11.4963	9.6398
11.3454	10.8235
11.1983	13.5133
11.0551	12.6058
10.9154	10.2394
10.7793	10.3034
10.6465	10.7632
10.5169	15.7558
10.3904	15.4666
10.267	12.4449
10.1464	14.6344
10.0287	16.1055
9.9136	15.8191
9.8012	14.128
9.6913	10.8253
9.5838	7.613
9.4787	10.782
9.3758	11.8973
9.2752	12.5721
9.1767	10.8894
9.0803	9.1737
8.9858	8.7889
8.8934	7.5158
8.8028	3.4945
8.714	1.2277
8.627	0.8104
8.5417	0.7795
8.4581	0.8831
8.3761	0.9953
8.2957	1.1459
8.2169	1.1684
8.1395	1.2359
8.0635	1.3448
7.989	1.3208
7.9158	1.5219
7.8439	1.4749
7.7734	1.7032
7.7041	1.7963
7.636	2.0319
7.5691	2.1902
7.5034	2.4493
7.4388	2.5995
7.3753	2.8762
7.3129	3.0524
7.2515	3.33
7.1912	3.5802
7.1318	4.0597
7.0734	4.3103
7.016	4.3774
6.9595	4.5403
6.9039	4.5979
6.8492	4.7873
6.7953	5.3266
6.7423	5.5299
6.6901	5.9447
6.6387	6.4357
6.5881	6.5219
6.5382	6.4411
6.4892	6.4341
6.4408	5.9529
6.3931	5.3084
6.3462	4.8928
6.2999	4.5656
6.2543	4.4364
6.2094	4.3496
6.1651	4.3412
6.1214	4.1635
6.0784	4.3012
6.0359	4.1979
5.994	4.111
5.9527	3.9518
5.912	3.7026
5.8718	3.7713
5.8322	3.9879
5.7931	4.1426
5.7545	4.1448
5.7165	3.9721
5.6789	3.9128
5.6418	4.0712
5.6052	4.0781
5.5691	4.2862
5.5334	4.8109
5.4982	5.497
5.4635	6.1668
5.4291	6.3515
5.3952	6.0375
5.3618	5.6352
5.3287	5.4218
5.2961	5.3393
5.2638	5.534
5.2319	5.6048
5.2004	5.907
5.1693	6.336
5.1386	6.6997
5.1082	6.9189
5.0782	7.3564
5.0485	7.7193
5.0192	8.1354
4.9902	8.8161
4.9616	9.6824
4.9332	10.6403
4.9052	11.3234
4.8776	11.9512
4.8502	12.8393
4.8231	13.6366
4.7963	14.3652
4.7699	15.4952
4.7437	16.9488
4.7178	18.8426
4.6922	20.8761
4.6668	22.7877
4.6418	25.0914
4.617	27.0819
4.5924	29.1842
4.5681	31.0442
4.5441	32.8054
4.5203	34.2894
4.4968	35.174
4.4735	36.0341
4.4505	36.8201
4.4277	37.3874
4.4051	37.7798
4.3828	37.9825
4.3607	38.2513
4.3388	38.5095
4.3171	38.7628
4.2956	39.3784
4.2744	39.7059
4.2534	39.9887
4.2325	40.5574
4.2119	40.5162
4.1915	40.5972
4.1712	40.8405
4.1512	41.0635
4.1313	41.2082
4.1117	41.2231
4.0922	41.0126
4.0729	40.1623
4.0538	38.0467
4.0349	35.6939
4.0161	34.0338
3.9976	33.3036
3.9792	32.2783
3.9609	32.7561
3.9428	34.8888
3.9249	36.6511
3.9072	37.2461
3.8896	37.5157
3.8722	37.7564
3.8549	37.9351
3.8378	38.6488
3.8208	39.8748
3.804	41.321
3.7873	42.7391
3.7708	43.314
3.7544	43.2397
3.7382	43.1342
3.7221	43.0196
3.7061	43.0082
3.6903	42.7102
3.6746	42.4984
3.659	42.1579
3.6436	41.8931
3.6283	41.4849
3.6131	40.9757
3.5981	40.2761
3.5832	39.5434
3.5684	38.6437
3.5537	37.4916
3.5391	36.3874
3.5247	35.1359
3.5104	33.9661
3.4962	32.8332
3.4821	32.085
3.4681	32.0905
3.4543	32.6876
3.4405	32.4517
3.4269	32.1576
3.4133	31.4287
3.3999	31.2405
3.3866	30.8281
3.3733	30.4232
3.3602	29.9668
3.3472	29.4699
3.3343	30.391
3.3215	30.8426
3.3088	30.4039
3.2961	30.0401
3.2836	29.557
3.2712	28.7798
3.2588	28.2662
3.2466	27.5324
3.2345	26.8618
3.2224	26.1034
3.2104	25.4659
3.1985	24.6857
3.1867	24.0568
3.175	23.2115
3.1634	22.5367
3.1519	21.8823
3.1404	21.0958
3.129	20.4761
3.1178	19.9806
3.1065	19.6706
3.0954	19.0615
3.0844	18.757
3.0734	18.4993
3.0625	18.1924
3.0517	17.8528
3.041	17.775
3.0303	17.5171
3.0197	17.2498
3.0092	16.737
2.9987	16.6736
2.9884	16.4354
2.9781	16.0552
2.9678	15.7911
2.9577	15.6839
2.9476	15.5061
2.9376	15.5788
2.9276	15.4532
2.9177	15.5785
2.9079	15.2529
2.8982	15.4413
2.8885	15.5327
2.8789	15.4608
2.8693	15.6672
2.8598	15.6906
2.8504	16.0849
2.841	16.227
2.8317	16.515
2.8224	16.7877
2.8133	16.7946
2.8041	17.2026
2.7951	17.5639
2.786	17.9802
2.7771	18.3035
2.7682	18.7316
2.7594	18.6741
2.7506	19.4704
2.7418	23.7563
2.7332	29.4167
2.7246	35.0732
2.716	38.2434
2.7075	41.4903
2.699	43.2744
2.6906	44.5486
2.6823	45.5959
2.674	46.3721
2.6657	49.4812
2.6575	48.6961
2.6494	48.6132
2.6413	48.6741
2.6332	48.7246
2.6252	48.7112
2.6173	48.8962
2.6094	48.1744
2.6015	47.9444
2.5937	48.4671
2.5859	47.5074
2.5782	47.1114
2.5706	46.9371
2.5629	46.7833
2.5554	46.0159
2.5478	45.694
2.5403	45.3907
2.5329	45.1774
2.5255	45.055
2.5181	44.6861
2.5108	44.7046
2.5035	44.3834
2.4963	44.4794
2.4891	44.0713
2.482	44.0239
2.4749	43.9938
2.4678	43.936
2.4608	43.9827
2.4538	43.7162
2.4468	43.5971
2.4399	43.7073
2.4331	43.6165
2.4262	43.3521
2.4194	43.4238
2.4127	43.1395
2.4059	43.0042
2.3993	43.0912
2.3926	42.9891
2.386	42.6538
2.3795	42.4631
2.3729	42.5605
2.3664	42.2515
2.36	42.1662
2.3535	42.0447
2.3471	41.9914
2.3408	41.8622
2.3345	41.9672
2.3282	42.0092
2.3219	41.9837
2.3157	41.7738
2.3095	41.9783
2.3034	42.0824
2.2972	41.9668
2.2911	41.8878
2.2851	42.0034
2.279	41.9249
2.2731	41.821
2.2671	41.8613
2.2612	41.9491
2.2553	41.8665
2.2494	41.8983
2.2435	41.9779
2.2377	42.1141
2.232	42.1562
2.2262	42.2146
2.2205	42.0776
2.2148	42.0713
2.2091	42.0853
2.2035	42.183
2.1979	42.1941
2.1923	42.2763
2.1868	42.3399
2.1812	42.3547
2.1758	42.5796
2.1703	42.5541
2.1649	42.7668
2.1595	42.5584
2.1541	42.936
2.1487	42.75
2.1434	42.9733
2.1381	43.0058
2.1328	43.2147
2.1275	43.3813
2.1223	43.3808
2.1171	43.3218
2.112	43.4626
2.1068	43.5836
2.1017	43.8867
2.0966	43.7425
2.0915	43.8754
2.0865	44.0186
2.0814	44.2572
2.0764	44.2996
2.0715	44.4353
2.0665	44.1801
2.0616	44.6008
2.0567	44.2091
2.0518	44.6281
2.0469	45.0616
2.0421	44.8707
2.0373	45.1107
2.0325	45.448
2.0277	45.3175
2.0229	45.6771
2.0182	45.8589
2.0135	45.7522
2.0088	45.5108
2.0042	45.8866
