Name: Magnesite MgCO_3
Type: Mineral
Class: Carbonate
Subclass: None
Particle Size: Fine
Sample No.: C-6A
Owner: JPL
Wavelength Range: VSWIR
Origin: USA, California, Riverside County.
Description: Particle size was 0-45um.Collected by:  Ward's Original ASTER Spectral Library name was jpl.perkin.mineral.carbonate.none.fine.c06a.spectrum.txt
Measurement: Hemispherical reflectance
X Units: Wavelength (micrometers)
Y Units: Reflectance (percent)
wavelength	value
2.5	64.5438
2.494	64.3547
2.488	64.8356
2.482	65.1232
2.476	65.6256
2.47	66.0343
2.464	66.4796
2.458	66.9036
2.452	67.5038
2.446	68.1293
2.44	68.677
2.434	69.4322
2.428	70.094
2.422	70.7406
2.416	71.3617
2.41	71.8481
2.404	72.3453
2.398	72.8152
2.392	73.2712
2.386	73.7053
2.38	74.3232
2.374	75.0232
2.368	75.6151
2.362	76.0035
2.356	76.3506
2.35	76.6757
2.344	76.7808
2.338	76.768
2.332	76.4568
2.326	75.8232
2.32	75.1167
2.314	74.4183
2.308	74.1953
2.302	74.1952
2.296	74.5912
2.29	74.8571
2.284	75.3527
2.278	75.7229
2.272	76.1638
2.266	76.4989
2.26	76.7851
2.254	77.263
2.248	77.7131
2.242	78.1263
2.236	78.7948
2.23	79.252
2.224	79.7223
2.218	80.0718
2.212	80.3395
2.206	80.6828
2.2	80.9938
2.194	81.0472
2.188	81.1854
2.182	81.305
2.176	81.3228
2.17	81.4059
2.164	81.5156
2.158	81.6172
2.152	81.4509
2.146	81.2614
2.14	80.9773
2.134	80.7742
2.128	80.4092
2.122	80.0041
2.116	79.6312
2.11	79.1751
2.104	78.8589
2.098	78.4992
2.092	78.4179
2.086	78.3488
2.08	78.2938
2.074	78.2261
2.068	78.1547
2.062	78.0673
2.056	78.0606
2.05	77.9916
2.044	77.9578
2.038	77.9236
2.032	77.8916
2.026	77.8795
2.02	77.7661
2.014	77.7241
2.008	77.6079
2.002	77.6662
1.996	77.5204
1.99	77.3643
1.984	77.3685
1.978	77.3166
1.972	77.46
1.966	77.5686
1.96	77.7395
1.954	77.8232
1.948	77.9379
1.942	78.0104
1.936	77.9479
1.93	77.8993
1.924	77.6912
1.918	77.6826
1.912	77.8285
1.906	78.584
1.9	79.8687
1.894	81.4936
1.888	82.8953
1.882	83.8044
1.876	84.6169
1.87	85.2229
1.864	85.3745
1.858	85.4584
1.852	85.5489
1.846	85.6712
1.84	85.7818
1.834	85.8746
1.828	85.905
1.822	86.0323
1.816	86.1138
1.81	86.206
1.804	86.2842
1.798	86.3387
1.792	86.2931
1.786	86.2848
1.78	86.3104
1.774	86.2817
1.768	86.3572
1.762	86.3791
1.756	86.4197
1.75	86.454
1.744	86.4773
1.738	86.5219
1.732	86.5308
1.726	86.4957
1.72	86.5867
1.714	86.5677
1.708	86.6188
1.702	86.6515
1.696	86.5992
1.69	86.6276
1.684	86.6345
1.678	86.7282
1.672	86.7094
1.666	86.7638
1.66	86.8548
1.654	86.7697
1.648	86.7701
1.642	86.6731
1.636	86.6645
1.63	86.7442
1.624	86.6701
1.618	86.7519
1.612	86.8038
1.606	86.8022
1.6	86.7583
1.594	86.7879
1.588	86.7804
1.582	86.8125
1.576	86.7513
1.57	86.6545
1.564	86.6531
1.558	86.584
1.552	86.5897
1.546	86.527
1.54	86.5594
1.534	86.5672
1.528	86.5398
1.522	86.5623
1.516	86.5512
1.51	86.6388
1.504	86.6592
1.498	86.6466
1.492	86.5884
1.486	86.6858
1.48	86.6957
1.474	86.6995
1.468	86.6907
1.462	86.8062
1.456	86.7727
1.45	86.807
1.444	86.7623
1.438	86.7871
1.432	86.7864
1.426	86.8636
1.42	86.8755
1.414	87.0417
1.408	87.3034
1.402	87.8152
1.396	88.034
1.39	87.3126
1.384	88.3785
1.378	89.0502
1.372	89.2962
1.366	89.4022
1.36	89.4992
1.354	89.4533
1.348	89.481
1.342	89.5013
1.336	89.5439
1.33	89.6242
1.324	89.6303
1.318	89.6431
1.312	89.7019
1.306	89.7141
1.3	89.6749
1.294	89.7148
1.288	89.7117
1.282	89.7483
1.276	89.6994
1.27	89.6637
1.264	89.7144
1.258	89.6816
1.252	89.6706
1.246	89.6534
1.24	89.6871
1.234	89.6871
1.228	89.673
1.222	89.7038
1.216	89.6535
1.21	89.6489
1.204	89.6804
1.198	89.5956
1.192	89.6779
1.186	89.7398
1.18	89.7476
1.174	89.744
1.168	89.778
1.162	89.8076
1.156	89.7598
1.15	89.7955
1.144	89.864
1.138	89.9112
1.132	89.8977
1.126	89.9543
1.12	89.9449
1.114	89.9858
1.108	89.9495
1.102	90.0407
1.096	89.8963
1.09	90.007
1.084	90.0419
1.078	89.9677
1.072	90.0796
1.066	90.036
1.06	89.9949
1.054	90.0307
1.048	90.0547
1.042	90.0659
1.036	90.066
1.03	90.0975
1.024	90.0891
1.018	90.1674
1.012	90.1111
1.006	90.1398
1	90.1998
0.994	90.1909
0.988	90.1565
0.982	90.1047
0.976	90.1559
0.97	90.1555
0.964	90.2104
0.958	90.1919
0.952	90.2411
0.946	90.2642
0.94	90.2478
0.934	90.2402
0.928	90.3271
0.922	90.2708
0.916	90.3862
0.91	90.3632
0.904	90.3756
0.898	90.3442
0.892	90.3792
0.886	90.4371
0.88	90.3055
0.874	90.3991
0.868	90.3571
0.862	90.4728
0.856	90.1999
0.85	90.2569
0.844	90.3149
0.838	90.2674
0.832	90.2423
0.826	90.2706
0.82	90.2487
0.814	90.2499
0.808	90.221
0.802	90.162
0.796	90.1203
0.79	90.0491
0.784	89.9679
0.778	89.9662
0.772	89.9397
0.766	89.944
0.76	89.9042
0.754	89.8536
0.748	89.8414
0.742	89.8078
0.736	89.7645
0.73	89.7823
0.724	89.733
0.718	89.7102
0.712	89.679
0.706	89.6416
0.7	89.6468
0.694	89.5607
0.688	89.5326
0.682	89.4989
0.676	89.4235
0.67	89.3914
0.664	89.3757
0.658	89.3339
0.652	89.2805
0.646	89.231
0.64	89.1699
0.634	89.1253
0.628	89.0701
0.622	88.9774
0.616	88.9249
0.61	88.8433
0.604	88.7531
0.598	88.6633
0.592	88.6052
0.586	88.4539
0.58	88.3107
0.574	88.1601
0.568	87.9849
0.562	87.809
0.556	87.5775
0.55	87.3397
0.544	87.0833
0.538	86.8226
0.532	86.5234
0.526	86.2137
0.52	85.8383
0.514	85.4175
0.508	84.9087
0.502	84.3428
0.496	83.8611
0.49	83.5011
0.484	83.0918
0.478	82.7417
0.472	82.3663
0.466	82.0463
0.46	81.6743
0.454	81.29
0.448	80.869
0.442	80.3654
0.436	79.8542
0.43	79.4038
0.424	78.9627
0.418	78.4981
0.412	78.0668
0.406	77.5516
0.4	76.9612
