Name: Nontronite Na_0.33Fe_2^3+(Si,Al)_4O_10(OH)_2.H_2O
Type: Mineral
Class: Silicate
Subclass: Phyllosilicate
Particle Size: Coarse
Sample No.: PS-6B
Owner: JPL
Wavelength Range: VSWIR
Origin: Germany, Westphalia, Hohen Hagen.
Description: Particle size was 125-500um.Collected by:  Clay Mineral Society Original ASTER Spectral Library name was jpl.perkin.mineral.silicate.phyllosilicate.coarse.ps06c.spectrum.txt
Measurement: Hemispherical reflectance
X Units: Wavelength (micrometers)
Y Units: Reflectance (percent)
wavelength	value
2.5	37.6535
2.494	37.9086
2.488	38.5081
2.482	38.84
2.476	39.2515
2.47	39.6768
2.464	40.1838
2.458	40.5571
2.452	40.9783
2.446	41.4841
2.44	41.7974
2.434	42.112
2.428	42.4355
2.422	42.7007
2.416	42.9556
2.41	43.1402
2.404	43.3535
2.398	43.6154
2.392	44.0226
2.386	44.5298
2.38	45.0706
2.374	45.6967
2.368	46.2239
2.362	46.4756
2.356	46.8229
2.35	47.0617
2.344	47.2448
2.338	47.526
2.332	47.5742
2.326	47.5701
2.32	47.4981
2.314	47.2956
2.308	46.9287
2.302	46.2221
2.296	45.472
2.29	44.8258
2.284	44.829
2.278	45.2846
2.272	46.0136
2.266	46.8022
2.26	47.3837
2.254	47.8903
2.248	48.074
2.242	48.2836
2.236	48.4158
2.23	48.4978
2.224	48.4983
2.218	48.5757
2.212	48.7443
2.206	48.8628
2.2	49.291
2.194	49.5765
2.188	50.0422
2.182	50.395
2.176	50.9414
2.17	51.4251
2.164	51.7267
2.158	52.0212
2.152	52.2283
2.146	52.344
2.14	52.3897
2.134	52.2661
2.128	52.2109
2.122	52.0101
2.116	51.7635
2.11	51.5477
2.104	51.3308
2.098	51.0816
2.092	51.1223
2.086	51.0344
2.08	50.8892
2.074	50.8135
2.068	50.8365
2.062	50.6513
2.056	50.5132
2.05	50.3874
2.044	50.1777
2.038	49.9875
2.032	49.7421
2.026	49.3069
2.02	49.0438
2.014	48.6732
2.008	48.2212
2.002	47.8419
1.996	47.4688
1.99	46.9541
1.984	46.4944
1.978	45.9239
1.972	45.5164
1.966	45.1277
1.96	44.7966
1.954	44.3578
1.948	44.0899
1.942	43.6373
1.936	43.2561
1.93	42.7679
1.924	42.0556
1.918	41.3877
1.912	40.7564
1.906	40.9934
1.9	42.958
1.894	45.8779
1.888	48.6115
1.882	50.4052
1.876	51.8027
1.87	52.6052
1.864	53.1359
1.858	53.4566
1.852	53.6255
1.846	53.7697
1.84	53.9028
1.834	53.8515
1.828	53.852
1.822	53.8143
1.816	53.868
1.81	53.8575
1.804	53.8958
1.798	53.8913
1.792	53.8048
1.786	53.8122
1.78	53.8877
1.774	53.8524
1.768	53.8793
1.762	53.8844
1.756	53.9722
1.75	54.0051
1.744	54.0375
1.738	54.0618
1.732	54.0773
1.726	54.0775
1.72	54.0492
1.714	54.0913
1.708	54.1596
1.702	53.9947
1.696	54.0955
1.69	54.0268
1.684	53.9737
1.678	53.9091
1.672	53.9937
1.666	53.9581
1.66	53.9509
1.654	53.8916
1.648	53.8874
1.642	53.9339
1.636	53.8548
1.63	53.8359
1.624	53.8151
1.618	53.792
1.612	53.8319
1.606	53.73
1.6	53.7317
1.594	53.574
1.588	53.6072
1.582	53.5223
1.576	53.5453
1.57	53.4687
1.564	53.3897
1.558	53.3703
1.552	53.3079
1.546	53.1391
1.54	52.998
1.534	52.9097
1.528	52.8587
1.522	52.7101
1.516	52.6389
1.51	52.4984
1.504	52.2963
1.498	52.1537
1.492	51.9537
1.486	51.7558
1.48	51.5135
1.474	51.2754
1.468	50.9064
1.462	50.8401
1.456	50.745
1.45	50.4088
1.444	49.7759
1.438	49.0467
1.432	48.7257
1.426	48.9116
1.42	48.891
1.414	49.0614
1.408	49.6255
1.402	50.6637
1.396	51.735
1.39	52.5552
1.384	53.1375
1.378	53.3223
1.372	53.4184
1.366	53.5784
1.36	53.4478
1.354	53.557
1.348	53.4248
1.342	53.5663
1.336	53.5797
1.33	53.5089
1.324	53.5293
1.318	53.5078
1.312	53.534
1.306	53.4804
1.3	53.3727
1.294	53.3644
1.288	53.3255
1.282	53.2668
1.276	53.1617
1.27	53.0974
1.264	53.0288
1.258	53.0117
1.252	52.8226
1.246	52.7623
1.24	52.638
1.234	52.4748
1.228	52.4496
1.222	52.2258
1.216	52.1393
1.21	51.8677
1.204	51.7763
1.198	51.6077
1.192	51.3693
1.186	51.2406
1.18	51.0127
1.174	50.6905
1.168	50.4522
1.162	50.2417
1.156	49.9134
1.15	49.6443
1.144	49.3512
1.138	49.1658
1.132	48.8003
1.126	48.4787
1.12	48.0781
1.114	47.7496
1.108	47.3963
1.102	47.0072
1.096	46.6607
1.09	46.1935
1.084	45.9089
1.078	45.4367
1.072	44.9502
1.066	44.6421
1.06	44.2417
1.054	43.813
1.048	43.3959
1.042	43.0658
1.036	42.718
1.03	42.3246
1.024	42.0034
1.018	41.7078
1.012	41.4123
1.006	41.1318
1	40.8219
0.994	40.4753
0.988	40.2265
0.982	39.9782
0.976	39.6852
0.97	39.5367
0.964	39.2613
0.958	39.0568
0.952	38.8846
0.946	38.7603
0.94	38.5932
0.934	38.4328
0.928	38.3784
0.922	38.2884
0.916	38.1475
0.91	38.1262
0.904	38.0332
0.898	38.0973
0.892	38.0959
0.886	38.1509
0.88	38.177
0.874	38.2232
0.868	38.3508
0.862	38.4648
0.856	38.6436
0.85	38.8134
0.844	38.9863
0.838	39.1876
0.832	39.3685
0.826	39.5733
0.82	39.7977
0.814	39.9727
0.808	40.175
0.802	40.3386
0.796	40.4924
0.79	40.6299
0.784	40.7701
0.778	40.8141
0.772	40.8292
0.766	40.8279
0.76	40.7501
0.754	40.6507
0.748	40.4629
0.742	40.2289
0.736	39.9227
0.73	39.563
0.724	39.1669
0.718	38.726
0.712	38.2395
0.706	37.7554
0.7	37.2302
0.694	36.7537
0.688	36.2354
0.682	35.7414
0.676	35.2765
0.67	34.8336
0.664	34.4476
0.658	34.1183
0.652	33.8444
0.646	33.6361
0.64	33.4558
0.634	33.3296
0.628	33.2217
0.622	33.1326
0.616	33.045
0.61	32.9364
0.604	32.7872
0.598	32.5755
0.592	32.2686
0.586	31.8516
0.58	31.2342
0.574	30.4173
0.568	29.4019
0.562	28.1585
0.556	26.6698
0.55	25.0253
0.544	23.2887
0.538	21.5222
0.532	19.8438
0.526	18.3289
0.52	17.0538
0.514	15.9511
0.508	15.0179
0.502	14.2315
0.496	13.5557
0.49	12.9761
0.484	12.4604
0.478	11.9864
0.472	11.4382
0.466	10.8333
0.46	10.2894
0.454	9.8763
0.448	9.5095
0.442	9.1388
0.436	8.8359
0.43	8.5301
0.424	8.2961
0.418	8.0946
0.412	7.908
0.406	7.7073
0.4	7.4275
