Name: Magnetite Fe+2Fe2+3O4
Type: Mineral
Class: Oxide
Subclass: None
Particle Size: Solid
Sample No.: magnet_1
Owner: JHU
Wavelength Range: TIR
Origin: Santa Barbara, Minas Gerais, Brazil via the Smithsonian(sample no. NMNH 114111)
Description: The sample was composed of two large (3 cm x 3 cm x 2 cm) fragments of a single crystal, weighing 26.7 g.  The crystal fragments were dark gray in color, with good crystal faces, all of which had a red-brown, earthy material adhering in places.  These coatings were removed by ultrasonic cleaning.(Spinel Group) Original ASTER Spectral Library name was jhu.nicolet.mineral.oxide.none.solid.magnet1.spectrum.txt
Measurement: Bidirectional reflectance
X Units: Wavelength (micrometers)
Y Units: Reflectance (percent)
wavelength	value
25.0442	45.5819
24.3388	44.2079
23.6719	43.2538
23.0407	42.5136
22.4422	41.8378
21.8741	41.6059
21.334	41.2323
20.8199	41.0839
20.33	41.223
19.8627	40.8056
19.4163	40.8983
18.9896	41.214
18.5812	42.8175
18.19	46.6232
17.815	51.923
17.4551	50.4044
17.1094	45.7658
16.7772	42.6193
16.4576	40.8881
16.15	39.8556
15.8537	39.2013
15.568	38.7199
15.2925	38.2318
15.0265	37.8324
14.7697	37.5072
14.5214	37.2121
14.2814	36.9345
14.0492	36.6386
13.8244	36.3888
13.6067	36.2482
13.3957	36.1293
13.1912	36.0375
12.9929	35.9037
12.8004	35.7941
12.6135	35.6786
12.432	35.5824
12.2557	35.5561
12.0843	35.4926
11.9176	35.3983
11.7555	35.3944
11.5977	35.4208
11.444	35.4569
11.2944	35.4701
11.1487	35.4599
11.0067	35.3964
10.8682	35.392
10.7332	35.393
10.6015	35.4066
10.473	35.3556
10.3476	35.2299
10.2251	35.1051
10.1056	34.9511
9.9887	34.786
9.8746	34.6335
9.763	34.4711
9.6539	34.3927
9.5472	34.3358
9.4429	34.3329
9.3408	34.3114
9.2409	34.2616
9.1431	34.2421
9.0474	34.2123
8.9536	34.0478
8.8618	34.0771
8.7718	34.1039
8.6837	34.1132
8.5973	34.1435
8.5126	34.2138
8.4295	34.2421
8.3481	34.2326
8.2682	34.2206
8.1898	34.2379
8.1129	34.224
8.0374	34.2121
7.9634	34.2199
7.8906	34.2279
7.8192	34.1942
7.7491	34.183
7.6802	34.0973
7.6126	33.9826
7.5461	33.9135
7.4807	33.8683
7.4165	33.8449
7.3534	33.7763
7.2914	33.745
7.2303	33.6899
7.1703	33.6623
7.1113	33.693
7.0533	33.673
6.9962	33.7018
6.94	33.7055
6.8847	33.7311
6.8302	33.738
6.7767	33.7702
6.7239	33.7633
6.672	33.7162
6.6209	33.7065
6.5705	33.6474
6.5209	33.682
6.4721	33.6403
6.424	33.5822
6.3766	33.6339
6.3299	33.63
6.2838	33.601
6.2385	33.5402
6.1937	33.4689
6.1496	33.4247
6.1062	33.3278
6.0633	33.3276
6.0211	33.3166
5.9794	33.2856
5.9383	33.1764
5.8978	33.2638
5.8578	33.3898
5.8184	33.339
5.7794	33.4086
5.741	33.3813
5.7031	33.4233
5.6657	33.4872
5.6288	33.4877
5.5924	33.5043
5.5564	33.4965
5.5209	33.4806
5.4859	33.4765
5.4513	33.4757
5.4171	33.4201
5.3833	33.4294
5.35	33.3788
5.3171	33.3971
5.2846	33.3539
5.2524	33.3092
5.2207	33.2714
5.1893	33.2587
5.1584	33.2448
5.1277	33.2157
5.0975	33.1774
5.0676	33.1464
5.038	33.1415
5.0088	33.1283
4.98	33.1105
4.9514	33.099
4.9232	33.1037
4.8953	33.1215
4.8678	33.1427
4.8405	33.1264
4.8135	33.1281
4.7868	33.1305
4.7605	33.121
4.7344	33.1083
4.7086	33.1015
4.6831	33.0758
4.6578	33.068
4.6328	33.0617
4.6081	33.0705
4.5837	33.0341
4.5595	32.9948
4.5356	32.9526
4.5119	32.922
4.4884	32.9106
4.4652	32.8852
4.4423	32.8593
4.4196	32.8695
4.3971	32.8564
4.3748	32.8617
4.3528	32.8183
4.331	32.8122
4.3094	32.7819
4.288	32.7924
4.2668	32.8012
4.2458	32.8095
4.2251	32.8083
4.2045	32.8029
4.1841	32.8193
4.164	32.7997
4.144	32.7934
4.1242	32.7873
4.1046	32.7865
4.0852	32.7997
4.066	32.7804
4.047	32.7694
4.0281	32.7467
4.0094	32.7301
3.9909	32.7128
3.9725	32.6806
3.9544	32.6628
3.9363	32.6484
3.9185	32.6698
3.9008	32.6527
3.8833	32.6308
3.8659	32.6142
3.8487	32.5912
3.8316	32.5837
3.8147	32.5729
3.7979	32.5649
3.7813	32.5805
3.7648	32.5585
3.7485	32.5712
3.7323	32.5854
3.7162	32.5766
3.7003	32.56
3.6845	32.5483
3.6689	32.5331
3.6534	32.5507
3.638	32.561
3.6227	32.5297
3.6076	32.5302
3.5926	32.517
3.5777	32.5243
3.563	32.4999
3.5484	32.4609
3.5338	32.4413
3.5195	32.4027
3.5052	32.4369
3.491	32.4467
3.477	32.4152
3.463	32.4184
3.4492	32.3859
3.4355	32.3578
3.4219	32.4008
3.4084	32.411
3.395	32.4125
3.3817	32.4347
3.3685	32.4806
3.3554	32.453
3.3425	32.4447
3.3296	32.4416
3.3168	32.4228
3.3041	32.4506
3.2915	32.4328
3.279	32.4394
3.2666	32.4384
3.2543	32.4311
3.2421	32.4394
3.23	32.4247
3.218	32.425
3.206	32.422
3.1942	32.4057
3.1824	32.4252
3.1707	32.4203
3.1591	32.4191
3.1476	32.3871
3.1362	32.3322
3.1249	32.339
3.1136	32.3432
3.1024	32.3566
3.0913	32.3041
3.0803	32.3339
3.0694	32.3351
3.0585	32.3002
3.0477	32.34
3.037	32.329
3.0264	32.3595
3.0158	32.3349
3.0053	32.329
2.9949	32.3373
2.9845	32.3964
2.9743	32.3742
2.9641	32.3739
2.9539	32.3764
2.9439	32.3634
2.9339	32.3554
2.9239	32.3263
2.9141	32.3634
2.9043	32.3898
2.8946	32.4162
2.8849	32.4179
2.8753	32.3869
2.8658	32.4113
2.8563	32.4135
2.8469	32.4132
2.8375	32.3879
2.8282	32.3693
2.819	32.3576
2.8098	32.3871
2.8007	32.371
2.7917	32.3798
2.7827	32.3368
2.7738	32.3634
2.7649	32.3293
2.7561	32.2773
2.7473	32.3564
2.7386	32.308
2.7299	32.3588
2.7213	32.3393
2.7128	32.37
2.7043	32.3056
2.6959	32.2802
2.6875	32.3485
2.6791	32.2958
2.6709	32.2558
2.6626	32.3368
2.6545	32.29
2.6463	32.2734
2.6382	32.2582
2.6302	32.1957
2.6222	32.2328
2.6143	32.2426
2.6064	32.1425
2.5986	32.2348
2.5908	32.2231
2.583	32.1425
2.5753	32.2177
2.5677	32.1938
2.5601	32.1503
2.5525	32.1366
2.545	32.1689
2.5375	32.1122
2.5301	32.1249
2.5227	32.0673
2.5154	32.0155
2.5081	32.0986
2.5008	32.0478
2.4936	32.0395
2.4864	32.0585
2.4793	32.0356
2.4722	32.0038
2.4651	31.8749
2.4581	31.9609
2.4511	31.9472
2.4442	31.8554
2.4373	31.8241
2.4305	31.8095
2.4236	31.7953
2.4169	31.7831
2.4101	31.8105
2.4034	31.6913
2.3967	31.6703
2.3901	31.6508
2.3835	31.6386
2.377	31.5331
2.3704	31.5478
2.364	31.5966
2.3575	31.5302
2.3511	31.5146
2.3447	31.4989
2.3384	31.4599
2.3321	31.3573
2.3258	31.3495
2.3195	31.3847
2.3133	31.4355
2.3071	31.2245
2.301	31.1786
2.2949	31.2558
2.2888	31.1571
2.2828	31.0839
2.2767	31.1376
2.2708	31.0741
2.2648	30.9853
2.2589	31.0019
2.253	30.9609
2.2471	30.829
2.2413	30.8564
2.2355	30.8359
2.2297	30.7948
2.224	30.6757
2.2183	30.7402
2.2126	30.6913
2.207	30.6152
2.2013	30.5663
2.1957	30.5429
2.1902	30.6308
2.1846	30.4511
2.1791	30.3261
2.1736	30.4433
2.1682	30.3866
2.1628	30.4345
2.1574	30.3251
2.152	30.1445
2.1466	30.1327
2.1413	30.2001
2.136	30.1952
2.1308	30.0907
2.1255	30.2236
2.1203	30.1152
2.1151	30.0937
2.11	30.0273
2.1048	29.9579
2.0997	29.9931
2.0946	30.0136
2.0895	29.9618
2.0845	29.9726
2.0795	29.7089
