Name: Amblygonite (Li,Na)Al(PO_4)(F,OH)
Type: Mineral
Class: Phosphate
Subclass: None
Particle Size: Fine
Sample No.: P-3A
Owner: JPL
Wavelength Range: TIR
Origin: USA, California, San Diego County, Pala
Description: Particle size was 0-45um.Collected by Burminco Original ASTER Spectral Library name was jpl.nicolet.mineral.phosphate.none.fine.p03a.spectrum.txt
Measurement: Hemispherical reflectance
X Units: Wavelength (micrometers)
Y Units: Reflectance (percent)
wavelength	value
15.3853	4.1462
15.1161	3.584
14.8563	3.7646
14.6052	2.7257
14.3624	1.4957
14.1276	0.9785
13.9004	1.7302
13.6803	2.3664
13.4671	2.9258
13.2604	3.7891
13.06	4.3856
12.8656	4.4073
12.6769	4.1716
12.4936	3.8875
12.3155	3.7853
12.1425	4.2457
11.9742	4.7237
11.8106	4.6817
11.6513	6.0834
11.4963	7.4798
11.3454	8.6203
11.1983	9.5116
11.0551	9.8142
10.9154	9.722
10.7793	10.0218
10.6465	10.0086
10.5169	9.6513
10.3904	9.1975
10.267	8.6778
10.1464	7.7155
10.0287	6.5659
9.9136	6.3139
9.8012	6.8291
9.6913	5.857
9.5838	4.8209
9.4787	6.0745
9.3758	8.7006
9.2752	10.7554
9.1767	12.7581
9.0803	13.3929
8.9858	12.8408
8.8934	12.4287
8.8028	12.0158
8.714	10.4986
8.627	9.9868
8.5417	10.2349
8.4581	9.8022
8.3761	8.4156
8.2957	8.4663
8.2169	8.9451
8.1395	7.2953
8.0635	4.0996
7.989	2.1152
7.9158	1.1098
7.8439	0.7309
7.7734	0.7172
7.7041	0.9222
7.636	1.1936
7.5691	1.6167
7.5034	2.2353
7.4388	3.0771
7.3753	4.1129
7.3129	5.1367
7.2515	6.246
7.1912	7.1908
7.1318	8.0322
7.0734	8.5019
7.016	8.917
6.9595	9.9697
6.9039	10.5591
6.8492	11.2314
6.7953	12.2096
6.7423	12.7771
6.6901	13.8982
6.6387	15.6051
6.5881	15.7746
6.5382	16.2092
6.4892	18.0974
6.4408	17.4267
6.3931	16.7064
6.3462	15.6638
6.2999	13.3484
6.2543	12.4139
6.2094	12.2656
6.1651	13.3256
6.1214	15.0262
6.0784	17.1779
6.0359	18.9902
5.994	21.2107
5.9527	22.2306
5.912	23.4934
5.8718	25.1062
5.8322	26.3351
5.7931	26.9103
5.7545	28.3797
5.7165	29.988
5.6789	30.9457
5.6418	32.8173
5.6052	32.892
5.5691	33.6288
5.5334	34.1623
5.4982	34.4591
5.4635	34.9292
5.4291	34.5954
5.3952	33.9576
5.3618	33.597
5.3287	33.6092
5.2961	34.2213
5.2638	34.9421
5.2319	35.6391
5.2004	36.2716
5.1693	36.5516
5.1386	37.1661
5.1082	37.2507
5.0782	36.7858
5.0485	35.3859
5.0192	33.0574
4.9902	30.7769
4.9616	29.3556
4.9332	28.8553
4.9052	28.1705
4.8776	27.2419
4.8502	26.2352
4.8231	25.9971
4.7963	25.8913
4.7699	25.5116
4.7437	24.9563
4.7178	25.1852
4.6922	25.6141
4.6668	26.2003
4.6418	26.7698
4.617	26.9524
4.5924	27.4647
4.5681	27.5634
4.5441	27.4012
4.5203	27.4328
4.4968	27.6263
4.4735	28.2789
4.4505	28.6183
4.4277	28.3929
4.4051	27.8069
4.3828	27.8145
4.3607	28.3774
4.3388	28.9264
4.3171	28.8686
4.2956	28.1971
4.2744	27.2194
4.2534	26.7856
4.2325	26.6604
4.2119	26.0524
4.1915	24.9813
4.1712	24.9731
4.1512	26.9488
4.1313	30.6239
4.1117	34.5443
4.0922	37.2052
4.0729	39.0301
4.0538	39.9443
4.0349	40.5316
4.0161	40.8344
3.9976	41.0353
3.9792	41.0937
3.9609	41.3336
3.9428	41.4094
3.9249	41.3908
3.9072	41.4208
3.8896	41.3809
3.8722	41.1532
3.8549	41.1461
3.8378	41.0317
3.8208	41.2022
3.804	41.3016
3.7873	41.2752
3.7708	41.145
3.7544	41.027
3.7382	40.8659
3.7221	40.6342
3.7061	40.4574
3.6903	40.2362
3.6746	39.9574
3.659	39.6997
3.6436	39.2714
3.6283	38.8857
3.6131	38.7005
3.5981	38.2444
3.5832	37.8146
3.5684	37.4183
3.5537	36.9064
3.5391	36.3969
3.5247	35.8787
3.5104	35.4975
3.4962	34.9116
3.4821	34.6258
3.4681	34.0445
3.4543	33.6147
3.4405	33.1775
3.4269	32.7075
3.4133	32.4201
3.3999	31.9167
3.3866	31.2061
3.3733	30.8803
3.3602	30.0479
3.3472	29.6293
3.3343	28.6614
3.3215	28.0306
3.3088	27.218
3.2961	26.4579
3.2836	25.746
3.2712	25.125
3.2588	24.6029
3.2466	24.0472
3.2345	23.7928
3.2224	23.4681
3.2104	23.0121
3.1985	22.7052
3.1867	22.1096
3.175	21.5148
3.1634	20.6895
3.1519	19.8907
3.1404	19.1001
3.129	17.9928
3.1178	17.2078
3.1065	16.7664
3.0954	16.0386
3.0844	15.5854
3.0734	15.642
3.0625	15.4024
3.0517	15.3491
3.041	14.3858
3.0303	12.4144
3.0197	9.9665
3.0092	7.9814
2.9987	6.813
2.9884	5.8407
2.9781	5.2493
2.9678	5.0649
2.9577	4.9855
2.9476	4.7862
2.9376	5.3498
2.9276	6.4313
2.9177	8.8207
2.9079	12.5701
2.8982	14.9756
2.8885	15.7462
2.8789	16.0415
2.8693	16.3686
2.8598	16.7256
2.8504	17.5615
2.841	18.9365
2.8317	20.6566
2.8224	22.4131
2.8133	24.6092
2.8041	27.1399
2.7951	27.3701
2.786	28.4304
2.7771	29.8318
2.7682	29.255
2.7594	30.2576
2.7506	34.9992
2.7418	37.1255
2.7332	38.0367
2.7246	40.2654
2.716	39.3986
2.7075	38.4916
2.699	43.6913
2.6906	51.0281
2.6823	55.1843
2.674	57.0396
2.6657	59.9002
2.6575	57.7078
2.6494	57.5947
2.6413	57.8651
2.6332	57.8286
2.6252	57.7397
2.6173	58.8268
2.6094	58.0587
2.6015	58.4653
2.5937	60.9047
2.5859	59.8545
2.5782	60.0211
2.5706	60.4693
2.5629	61.4726
2.5554	60.5698
2.5478	61.4316
2.5403	61.7837
2.5329	62.6379
2.5255	63.226
2.5181	63.891
2.5108	64.4735
2.5035	64.9765
2.4963	65.6772
2.4891	66.3093
2.482	67.0699
2.4749	67.9918
2.4678	69.0391
2.4608	70.0136
2.4538	71.0757
2.4468	71.9066
2.4399	72.4684
2.4331	72.8115
2.4262	72.9738
2.4194	73.1252
2.4127	72.7736
2.4059	72.1182
2.3993	70.4189
2.3926	66.6111
2.386	61.5386
2.3795	57.8203
2.3729	57.9422
2.3664	61.8204
2.36	67.555
2.3535	72.9049
2.3471	75.6336
2.3408	76.7462
2.3345	77.2534
2.3282	77.4759
2.3219	77.5905
2.3157	77.5156
2.3095	77.3246
2.3034	76.9577
2.2972	76.6103
2.2911	76.1617
2.2851	75.6775
2.279	75.3171
2.2731	74.9106
2.2671	74.6956
2.2612	74.5133
2.2553	73.9394
2.2494	73.3895
2.2435	72.4605
2.2377	71.6897
2.232	70.8325
2.2262	69.7421
2.2205	68.4484
2.2148	67.1891
2.2091	65.0189
2.2035	63.0819
2.1979	60.7994
2.1923	58.7357
2.1868	56.5374
2.1812	54.7215
2.1758	54.143
2.1703	56.3045
2.1649	62.5923
2.1595	68.8113
2.1541	73.3027
2.1487	75.4004
2.1434	76.6708
2.1381	77.1864
2.1328	77.4982
2.1275	77.9873
2.1223	78.1075
2.1171	78.6472
2.112	79.1101
2.1068	79.2347
2.1017	79.7962
2.0966	80.0201
2.0915	80.0347
2.0865	79.8773
2.0814	80.1142
2.0764	79.5428
2.0715	79.9665
2.0665	80.0879
2.0616	79.7122
2.0567	79.8883
2.0518	79.9713
2.0469	80.2569
2.0421	80.4026
2.0373	80.6954
2.0325	80.932
2.0277	80.6722
2.0229	80.715
2.0182	80.6252
2.0135	80.5012
2.0088	79.2803
2.0042	78.078
