Name: Albite (Feldspar) (K,Na)AlSi_3O_8
Type: Mineral
Class: Silicate
Subclass: Tectosilicate
Particle Size: Medium
Sample No.: TS-6A
Owner: JPL
Wavelength Range: TIR
Description: Particle size was 45-125um.Collected by JPL Original ASTER Spectral Library name was jpl.nicolet.mineral.silicate.tectosilicate.medium.ts06a.spectrum.txt
Measurement: Hemispherical reflectance
X Units: Wavelength (micrometers)
Y Units: Reflectance (percent)
wavelength	value
15.3853	4.6334
15.1161	1.6316
14.8563	1.7898
14.6052	2.07
14.3624	2.1673
14.1276	2.5719
13.9004	2.7669
13.6803	2.8828
13.4671	3.1026
13.2604	3.2347
13.06	2.5197
12.8656	2.5693
12.6769	2.331
12.4936	2.316
12.3155	2.4679
12.1425	3.2173
11.9742	3.6247
11.8106	3.9408
11.6513	4.1258
11.4963	4.5007
11.3454	4.8308
11.1983	5.4604
11.0551	6.04
10.9154	6.7284
10.7793	7.521
10.6465	8.3312
10.5169	8.8249
10.3904	9.5355
10.267	10.8872
10.1464	12.5677
10.0287	14.0515
9.9136	15.3167
9.8012	15.3352
9.6913	14.9998
9.5838	13.7791
9.4787	11.0011
9.3758	9.0483
9.2752	8.7126
9.1767	9.033
9.0803	9.3418
8.9858	9.9268
8.8934	10.7597
8.8028	11.611
8.714	12.0207
8.627	11.7841
8.5417	11.7253
8.4581	11.5366
8.3761	10.9903
8.2957	9.0252
8.2169	5.209
8.1395	2.1851
8.0635	1.014
7.989	0.4488
7.9158	0.1605
7.8439	0.1227
7.7734	0.1372
7.7041	0.3292
7.636	0.2704
7.5691	0.4292
7.5034	0.5109
7.4388	0.8025
7.3753	0.8545
7.3129	0.9788
7.2515	1.103
7.1912	1.4981
7.1318	1.5622
7.0734	1.8392
7.016	2.1015
6.9595	2.2341
6.9039	2.4331
6.8492	2.6098
6.7953	2.7372
6.7423	2.8066
6.6901	3.0539
6.6387	3.0056
6.5881	3.1995
6.5382	3.2481
6.4892	3.4601
6.4408	3.4073
6.3931	3.4247
6.3462	3.3464
6.2999	3.1523
6.2543	3.1726
6.2094	3.2067
6.1651	3.3418
6.1214	3.4891
6.0784	3.609
6.0359	3.7196
5.994	3.8304
5.9527	3.7467
5.912	3.6748
5.8718	3.9582
5.8322	3.9475
5.7931	3.8501
5.7545	4.0627
5.7165	4.0123
5.6789	4.1214
5.6418	4.1428
5.6052	4.282
5.5691	4.5852
5.5334	4.9329
5.4982	5.5781
5.4635	6.1203
5.4291	6.7159
5.3952	7.2873
5.3618	7.8452
5.3287	8.292
5.2961	8.5265
5.2638	8.8635
5.2319	9.4326
5.2004	10.007
5.1693	11.02
5.1386	11.94
5.1082	13.03
5.0782	14.2484
5.0485	15.6178
5.0192	16.8272
4.9902	17.7772
4.9616	18.7771
4.9332	19.4415
4.9052	19.9348
4.8776	20.5085
4.8502	21.0931
4.8231	21.5963
4.7963	22.04
4.7699	22.3091
4.7437	22.8313
4.7178	23.732
4.6922	24.6707
4.6668	25.7812
4.6418	27.1648
4.617	28.8834
4.5924	30.6399
4.5681	32.4876
4.5441	34.4197
4.5203	36.3644
4.4968	38.3351
4.4735	40.3518
4.4505	42.216
4.4277	44.0973
4.4051	45.8772
4.3828	47.7775
4.3607	49.6951
4.3388	51.5222
4.3171	53.2286
4.2956	54.5582
4.2744	56.007
4.2534	58.5643
4.2325	58.6588
4.2119	61.4881
4.1915	63.5079
4.1712	64.5139
4.1512	65.2674
4.1313	65.8468
4.1117	66.2666
4.0922	66.5306
4.0729	66.6963
4.0538	66.7134
4.0349	66.4994
4.0161	66.171
3.9976	64.8918
3.9792	64.1456
3.9609	64.9117
3.9428	66.623
3.9249	67.3816
3.9072	67.7721
3.8896	67.9954
3.8722	68.411
3.8549	68.744
3.8378	69.2194
3.8208	69.9489
3.804	70.5838
3.7873	71.162
3.7708	71.5115
3.7544	71.6281
3.7382	71.7716
3.7221	71.8246
3.7061	71.8561
3.6903	71.9415
3.6746	71.8526
3.659	71.8075
3.6436	71.8072
3.6283	71.6521
3.6131	71.4888
3.5981	71.138
3.5832	70.8014
3.5684	70.2501
3.5537	69.8763
3.5391	69.0882
3.5247	67.9658
3.5104	66.0715
3.4962	64.7108
3.4821	64.4801
3.4681	64.8834
3.4543	64.9168
3.4405	64.0348
3.4269	62.711
3.4133	61.2372
3.3999	61.5081
3.3866	61.425
3.3733	60.548
3.3602	60.6069
3.3472	60.4297
3.3343	60.9008
3.3215	60.395
3.3088	59.8812
3.2961	59.1727
3.2836	58.4272
3.2712	57.6254
3.2588	56.7076
3.2466	55.9863
3.2345	55.0885
3.2224	54.3904
3.2104	53.2345
3.1985	52.4362
3.1867	51.2749
3.175	50.3168
3.1634	49.3025
3.1519	48.3517
3.1404	47.0056
3.129	46.1847
3.1178	45.2982
3.1065	44.488
3.0954	43.6803
3.0844	43.0188
3.0734	42.3998
3.0625	41.9315
3.0517	41.3679
3.041	40.8941
3.0303	40.3971
3.0197	39.8241
3.0092	39.2221
2.9987	38.8102
2.9884	38.3172
2.9781	37.8781
2.9678	37.3797
2.9577	37.1254
2.9476	37.0264
2.9376	36.8692
2.9276	36.707
2.9177	36.6356
2.9079	36.6911
2.8982	36.7931
2.8885	36.8656
2.8789	37.1821
2.8693	37.0805
2.8598	37.2067
2.8504	37.2092
2.841	37.3619
2.8317	37.6158
2.8224	37.335
2.8133	37.6491
2.8041	37.4411
2.7951	36.6161
2.786	34.98
2.7771	31.7414
2.7682	29.1323
2.7594	27.31
2.7506	27.4826
2.7418	29.0815
2.7332	31.1762
2.7246	35.5564
2.716	42.9897
2.7075	52.0131
2.699	59.5986
2.6906	67.0261
2.6823	71.7054
2.674	73.936
2.6657	75.9757
2.6575	75.8936
2.6494	76.3211
2.6413	76.8976
2.6332	77.4552
2.6252	77.3905
2.6173	77.9659
2.6094	77.7945
2.6015	78.0335
2.5937	79.122
2.5859	78.5053
2.5782	78.5282
2.5706	78.7295
2.5629	79.1261
2.5554	78.6648
2.5478	78.7452
2.5403	78.7315
2.5329	78.8216
2.5255	78.8567
2.5181	78.962
2.5108	78.6049
2.5035	78.8016
2.4963	78.6225
2.4891	78.6722
2.482	78.7426
2.4749	78.7938
2.4678	78.7032
2.4608	78.7194
2.4538	78.6521
2.4468	78.5037
2.4399	78.5809
2.4331	78.7731
2.4262	79.0366
2.4194	79.4037
2.4127	79.6215
2.4059	79.9072
2.3993	80.0501
2.3926	80.0323
2.386	80.0792
2.3795	80.2014
2.3729	80.144
2.3664	80.3064
2.36	80.0167
2.3535	79.6784
2.3471	79.5512
2.3408	79.6761
2.3345	79.8452
2.3282	80.0691
2.3219	80.3491
2.3157	80.8455
2.3095	81.0891
2.3034	81.3372
2.2972	81.5643
2.2911	81.8149
2.2851	82.1144
2.279	82.1368
2.2731	82.0822
2.2671	82.1278
2.2612	82.1744
2.2553	82.0579
2.2494	82.064
2.2435	82.2537
2.2377	82.0028
2.232	82.0302
2.2262	81.7976
2.2205	81.6123
2.2148	81.1087
2.2091	80.5168
2.2035	79.9058
2.1979	79.5179
2.1923	79.8338
2.1868	80.41
2.1812	81.3434
2.1758	81.7818
2.1703	82.2892
2.1649	82.6365
2.1595	83.0468
2.1541	83.2542
2.1487	83.1936
2.1434	83.3483
2.1381	83.3636
2.1328	83.4485
2.1275	83.2087
2.1223	83.422
2.1171	83.3937
2.112	83.2416
2.1068	83.3272
2.1017	83.4852
2.0966	83.496
2.0915	83.5612
2.0865	83.5609
2.0814	83.4342
2.0764	83.2537
2.0715	83.0645
2.0665	83.6538
2.0616	83.5472
2.0567	83.3471
2.0518	83.377
2.0469	83.4123
2.0421	83.2481
2.0373	83.1975
2.0325	83.3059
2.0277	83.2229
2.0229	83.0342
2.0182	82.9202
2.0135	83.12
2.0088	82.9812
2.0042	82.9278
