Name: Labradorite (Feldspar) (NaSi,CaAl)AlSi_2O_8
Type: Mineral
Class: Silicate
Subclass: Tectosilicate
Particle Size: Medium
Sample No.: TS-2B
Owner: JPL
Wavelength Range: VSWIR
Origin: Canada, Quebec, Lake St. John.
Description: Particle size was 45-125um.Collected by:  Ward's Original ASTER Spectral Library name was jpl.perkin.mineral.silicate.tectosilicate.medium.ts02b.spectrum.txt
Measurement: Hemispherical reflectance
X Units: Wavelength (micrometers)
Y Units: Reflectance (percent)
wavelength	value
2.5	36.2409
2.494	36.2923
2.488	36.2541
2.482	36.1582
2.476	36.159
2.47	36.314
2.464	36.1758
2.458	36.2216
2.452	36.1242
2.446	36.0955
2.44	36.1126
2.434	36.1934
2.428	36.2028
2.422	36.1847
2.416	36.1706
2.41	36.1014
2.404	36.2187
2.398	36.1929
2.392	36.1677
2.386	36.0627
2.38	36.151
2.374	36.0718
2.368	36.0475
2.362	36.1121
2.356	36.0345
2.35	35.9476
2.344	35.9305
2.338	35.893
2.332	35.9242
2.326	35.8402
2.32	35.7905
2.314	35.7797
2.308	35.7801
2.302	35.8414
2.296	35.6714
2.29	35.669
2.284	35.68
2.278	35.612
2.272	35.55
2.266	35.4954
2.26	35.4829
2.254	35.3273
2.248	35.3651
2.242	35.3195
2.236	35.242
2.23	35.236
2.224	35.0964
2.218	35.1795
2.212	35.1436
2.206	35.1204
2.2	35.1029
2.194	35.1267
2.188	35.1287
2.182	35.1616
2.176	35.1515
2.17	35.3075
2.164	35.3409
2.158	35.3468
2.152	35.3162
2.146	35.3352
2.14	35.3647
2.134	35.2516
2.128	35.1457
2.122	34.982
2.116	34.8695
2.11	34.7296
2.104	34.59
2.098	34.4418
2.092	34.4628
2.086	34.4979
2.08	34.436
2.074	34.4492
2.068	34.3744
2.062	34.4037
2.056	34.4302
2.05	34.3484
2.044	34.3753
2.038	34.3785
2.032	34.2901
2.026	34.2205
2.02	34.2281
2.014	34.1707
2.008	34.0646
2.002	34.0573
1.996	33.9743
1.99	33.9107
1.984	33.8138
1.978	33.7699
1.972	33.6767
1.966	33.6637
1.96	33.5231
1.954	33.5657
1.948	33.4704
1.942	33.4568
1.936	33.3482
1.93	33.3199
1.924	33.2963
1.918	33.2019
1.912	33.2961
1.906	33.3049
1.9	33.3867
1.894	33.425
1.888	33.4283
1.882	33.4576
1.876	33.4085
1.87	33.4495
1.864	33.418
1.858	33.4316
1.852	33.4284
1.846	33.2928
1.84	33.3084
1.834	33.2866
1.828	33.2474
1.822	33.2995
1.816	33.1324
1.81	33.1793
1.804	33.0801
1.798	33.0729
1.792	33.0236
1.786	33.0426
1.78	32.9314
1.774	32.936
1.768	32.9036
1.762	32.8338
1.756	32.8237
1.75	32.7965
1.744	32.7846
1.738	32.7624
1.732	32.7321
1.726	32.7699
1.72	32.7902
1.714	32.6678
1.708	32.6496
1.702	32.6248
1.696	32.6621
1.69	32.5828
1.684	32.4995
1.678	32.553
1.672	32.5086
1.666	32.5246
1.66	32.4404
1.654	32.3836
1.648	32.4231
1.642	32.4313
1.636	32.4124
1.63	32.2504
1.624	32.3487
1.618	32.3349
1.612	32.3068
1.606	32.3672
1.6	32.3475
1.594	32.2472
1.588	32.2982
1.582	32.2376
1.576	32.2793
1.57	32.2453
1.564	32.2177
1.558	32.2497
1.552	32.1978
1.546	32.1621
1.54	32.1538
1.534	32.1628
1.528	32.1217
1.522	32.0833
1.516	32.1931
1.51	32.1597
1.504	32.0616
1.498	32.1815
1.492	32.1261
1.486	32.0737
1.48	32.1091
1.474	32.067
1.468	32.0796
1.462	32.0474
1.456	32.0955
1.45	32.0777
1.444	32.071
1.438	32.0805
1.432	32.0523
1.426	32.0468
1.42	32.0215
1.414	31.9022
1.408	31.9402
1.402	32.0223
1.396	32.1063
1.39	32.1915
1.384	32.2382
1.378	32.2803
1.372	32.3254
1.366	32.274
1.36	32.2398
1.354	32.3422
1.348	32.3274
1.342	32.3187
1.336	32.3134
1.33	32.3732
1.324	32.3718
1.318	32.4156
1.312	32.4486
1.306	32.445
1.3	32.4342
1.294	32.4512
1.288	32.4795
1.282	32.5755
1.276	32.5904
1.27	32.6148
1.264	32.6459
1.258	32.7169
1.252	32.7203
1.246	32.7445
1.24	32.82
1.234	32.826
1.228	32.8925
1.222	32.9701
1.216	33.0102
1.21	33.0228
1.204	33.0819
1.198	33.2085
1.192	33.219
1.186	33.2821
1.18	33.2916
1.174	33.3808
1.168	33.4796
1.162	33.5045
1.156	33.5367
1.15	33.6496
1.144	33.7146
1.138	33.7881
1.132	33.9264
1.126	34.0473
1.12	34.0644
1.114	34.1257
1.108	34.2003
1.102	34.3061
1.096	34.3428
1.09	34.4918
1.084	34.5298
1.078	34.5921
1.072	34.7577
1.066	34.7924
1.06	34.93
1.054	34.9651
1.048	35.0949
1.042	35.1514
1.036	35.2458
1.03	35.3275
1.024	35.3847
1.018	35.5615
1.012	35.5196
1.006	35.7421
1	35.7622
0.994	35.7859
0.988	35.7535
0.982	35.8662
0.976	35.9812
0.97	36.0054
0.964	36.0173
0.958	36.0142
0.952	36.0178
0.946	35.9502
0.94	36.0042
0.934	35.9511
0.928	35.9165
0.922	35.8267
0.916	35.8046
0.91	35.7795
0.904	35.7121
0.898	35.6336
0.892	35.5573
0.886	35.3958
0.88	35.3081
0.874	35.2234
0.868	35.1438
0.862	35.0602
0.856	35.2857
0.85	35.1653
0.844	35.0783
0.838	34.9409
0.832	34.8002
0.826	34.7097
0.82	34.5518
0.814	34.4508
0.808	34.301
0.802	34.1799
0.796	33.962
0.79	33.7732
0.784	33.5872
0.778	33.369
0.772	33.158
0.766	32.8964
0.76	32.6491
0.754	32.3905
0.748	32.0953
0.742	31.8203
0.736	31.5085
0.73	31.2135
0.724	30.8917
0.718	30.5863
0.712	30.2768
0.706	29.9704
0.7	29.6844
0.694	29.3915
0.688	29.1186
0.682	28.8679
0.676	28.6121
0.67	28.3767
0.664	28.1545
0.658	27.9408
0.652	27.7446
0.646	27.5529
0.64	27.3757
0.634	27.195
0.628	27.0252
0.622	26.8657
0.616	26.7033
0.61	26.5448
0.604	26.3825
0.598	26.2277
0.592	26.0839
0.586	25.9111
0.58	25.7315
0.574	25.5489
0.568	25.3568
0.562	25.1663
0.556	25.0093
0.55	24.8651
0.544	24.7344
0.538	24.6404
0.532	24.5646
0.526	24.5094
0.52	24.4634
0.514	24.4277
0.508	24.4043
0.502	24.3919
0.496	24.381
0.49	24.3815
0.484	24.3943
0.478	24.3556
0.472	24.3375
0.466	24.3335
0.46	24.331
0.454	24.3232
0.448	24.3174
0.442	24.3138
0.436	24.2867
0.43	24.2451
0.424	24.1934
0.418	24.1625
0.412	24.1362
0.406	24.1105
0.4	24.0558
