Name: Gaylussite Na2Ca(CO3)2 * 5H2O
Type: Mineral
Class: Borate
Subclass: None
Particle Size: Coarse
Sample No.: NMNH102876-2
Owner: Smithsonian Institute, National Museum of Nat. History
Wavelength Range: All
Origin: Searles Lake, CA
Description: Gaylussite powder from Searles Lake, CASample was Unsieved coarse powder. Original ASTER Spectral Library name was usgs.perknic.mineral.borate.none.coarse.gaylusc.spectrum.txt
Measurement: Directional Hemispherical Reflectance
X Units: Wavelength (micrometers)
Y Units: Reflectance (percent)
wavelength	value
13.9	2.369
13.644	1.597
13.398	1.761
13.16	1.73
12.93	1.957
12.708	1.926
12.494	1.988
12.287	1.802
12.086	1.988
11.892	2.266
11.704	2.668
11.522	3.111
11.346	5.16
11.175	1.864
11.009	1.772
10.848	1.411
10.691	1.308
10.539	1.473
10.391	1.669
10.247	1.844
10.108	2.029
9.972	2.184
9.839	2.348
9.71	2.451
9.585	2.616
9.462	2.616
9.343	2.627
9.226	2.781
9.113	2.884
9.002	2.925
8.894	2.966
8.789	3.069
8.686	3.09
8.585	3.152
8.487	3.193
8.391	3.255
8.297	3.275
8.205	3.337
8.115	3.317
8.027	3.317
7.941	3.358
7.857	3.399
7.774	3.409
7.694	3.512
7.614	3.564
7.537	3.615
7.461	3.79
7.387	4.017
7.314	4.388
7.242	5.047
7.172	6.365
7.103	8.765
7.036	10.733
6.97	12.267
6.905	12.514
6.841	11.165
6.778	7.673
6.717	4.017
6.657	1.802
6.597	1.04
6.539	0.824
6.482	0.783
6.426	0.865
6.37	0.927
6.316	0.999
6.263	1.092
6.21	1.123
6.159	1.102
6.108	1.061
6.058	1.154
6.009	1.081
5.96	0.979
5.913	0.845
5.866	0.865
5.82	0.896
5.775	0.906
5.73	1.009
5.686	1.092
5.643	1.185
5.6	1.215
5.558	1.288
5.517	1.37
5.476	1.494
5.436	1.607
5.396	1.7
5.357	1.823
5.319	1.957
5.281	2.05
5.243	2.132
5.206	2.215
5.17	2.256
5.134	2.338
5.099	2.4
5.064	2.472
5.03	2.513
4.996	2.575
4.962	2.596
4.929	2.657
4.897	2.709
4.865	2.719
4.833	2.688
4.802	2.719
4.771	2.688
4.74	2.678
4.71	2.678
4.68	2.606
4.651	2.585
4.622	2.503
4.593	2.462
4.565	2.379
4.537	2.338
4.509	2.307
4.482	2.317
4.455	2.276
4.428	2.297
4.402	2.307
4.376	2.297
4.35	2.317
4.325	2.307
4.3	2.307
4.275	2.287
4.251	2.328
4.226	2.235
4.202	2.235
4.179	2.204
4.155	2.266
4.132	2.204
4.109	2.215
4.086	2.184
4.064	2.194
4.042	2.142
4.02	2.163
3.998	2.111
3.977	2.111
3.956	2.173
3.935	2.194
3.914	2.235
3.893	2.328
3.873	2.276
3.853	2.317
3.833	2.225
3.813	2.297
3.794	2.235
3.774	2.297
3.755	2.184
3.736	2.225
3.717	2.173
3.699	2.245
3.68	2.194
3.662	2.225
3.644	2.173
3.626	2.153
3.609	2.194
3.591	2.194
3.574	2.194
3.557	2.194
3.54	2.122
3.523	2.163
3.506	2.142
3.49	2.122
3.473	2.122
3.457	2.204
3.441	2.132
3.425	2.132
3.409	2.142
3.394	2.07
3.378	2.06
3.363	2.009
3.348	1.875
3.333	1.658
3.318	1.514
3.303	1.524
3.288	1.421
3.274	1.411
3.259	1.38
3.245	1.401
3.231	1.463
3.217	1.37
3.203	1.37
3.189	1.318
3.176	1.308
3.162	1.38
3.149	1.308
3.135	1.38
3.122	1.329
3.109	1.432
3.096	1.298
3.083	1.391
3.07	1.37
3.058	1.246
3.045	1.37
3.033	1.154
3.02	1.164
3.008	1.308
2.996	1.215
2.984	0.968
2.972	0.979
2.96	0.814
2.948	0.927
2.937	0.896
2.925	0.948
2.913	1.009
2.902	0.927
2.891	0.834
2.879	0.999
2.868	1.03
2.857	1.03
2.846	1.04
2.835	1.102
2.825	1.071
2.814	1.071
2.803	1.401
2.793	1.514
2.782	1.648
2.772	1.905
2.761	2.153
2.751	2.328
2.741	2.637
2.731	2.802
2.721	3.08
2.711	3.523
2.701	3.543
2.691	3.893
2.681	4.233
2.672	4.316
2.662	4.656
2.653	4.738
2.643	4.841
2.634	5.047
2.624	5.171
2.615	5.232
2.606	5.212
2.597	5.325
2.588	5.129
2.579	5.212
2.57	5.16
2.561	5.129
2.552	5.088
2.543	4.851
2.535	5.335
2.526	5.253
2.517	5.335
2.509	5.325
2.5	5.48
2.486	5.59
2.472	5.641
2.458	5.576
2.444	5.851
2.43	6.171
2.416	6.639
2.402	7.011
2.388	7.213
2.374	7.451
2.36	7.693
2.346	7.835
2.332	7.846
2.318	8.064
2.304	8.371
2.29	8.602
2.276	8.881
2.262	8.952
2.248	9.115
2.234	9.07
2.22	8.821
2.206	8.336
2.192	8.05
2.178	7.819
2.164	7.638
2.15	7.579
2.136	7.511
2.122	7.481
2.108	7.401
2.094	7.35
2.08	7.243
2.066	7.21
2.052	6.947
2.038	6.871
2.024	6.638
2.01	6.478
1.996	6.347
1.982	6.144
1.968	6.145
1.954	6.423
1.94	7.007
1.926	7.595
1.912	8.167
1.898	9.021
1.884	9.729
1.87	10.3
1.856	10.481
1.842	10.58
1.828	10.307
1.814	10.028
1.8	9.916
1.786	9.95
1.772	10.163
1.758	10.417
1.744	10.833
1.73	11.337
1.716	11.787
1.702	12.192
1.688	12.804
1.674	13.317
1.66	13.881
1.646	14.24
1.632	14.38
1.618	14.358
1.604	14.198
1.59	13.968
1.576	13.733
1.562	13.733
1.548	14.173
1.534	14.704
1.52	15.065
1.506	15.506
1.492	15.803
1.478	17.398
1.464	19.435
1.45	21.645
1.436	24.021
1.422	26.108
1.408	27.749
1.394	28.716
1.38	29.236
1.366	29.988
1.352	30.802
1.338	31.753
1.324	32.334
1.31	32.678
1.296	32.851
1.282	32.715
1.268	32.943
1.254	32.85
1.24	33.034
1.226	33.218
1.212	33.516
1.198	33.918
1.184	34.61
1.17	35.324
1.156	35.77
1.142	36.246
1.128	36.353
1.114	36.586
1.1	36.704
1.086	36.845
1.072	36.909
1.058	36.967
1.044	36.936
1.03	36.87
1.016	36.715
1.002	36.889
0.988	37.118
0.974	37.461
0.96	37.609
0.946	37.755
0.932	37.891
0.918	37.861
0.904	37.788
0.89	37.9
0.876	37.886
0.862	37.844
0.848	37.754
0.834	37.695
0.82	37.57
0.806	37.487
0.792	37.287
0.778	37.154
0.764	36.967
0.75	36.779
0.736	36.528
0.722	36.221
0.708	35.833
0.694	35.325
0.68	34.649
0.666	33.955
0.652	33.888
0.638	34.451
0.624	34.487
0.61	34.344
0.596	34.348
0.582	34.328
0.568	34.133
0.554	33.878
0.54	33.594
0.526	33.251
0.512	32.747
0.498	32.365
0.484	32.006
0.47	31.515
0.456	30.968
0.442	30.258
0.428	29.417
0.414	28.655
0.4	28.552
