Name: Molybdenite MoS_2
Type: Mineral
Class: Sulfide
Subclass: None
Particle Size: Fine
Sample No.: S-11A
Owner: JPL
Wavelength Range: TIR
Origin: Norway, Arendal, Froland
Description: Particle size was 0-45um.Collected by JPL Original ASTER Spectral Library name was jpl.nicolet.mineral.sulfide.none.fine.s11a.spectrum.txt
Measurement: Hemispherical reflectance
X Units: Wavelength (micrometers)
Y Units: Reflectance (percent)
wavelength	value
15.3853	31.3967
15.1161	31.3027
14.8563	31.2026
14.6052	32.0936
14.3624	31.8528
14.1276	30.8929
13.9004	31.3436
13.6803	31.1183
13.4671	29.48
13.2604	27.7186
13.06	27.0774
12.8656	27.3409
12.6769	27.6593
12.4936	29.5864
12.3155	30.6838
12.1425	30.47
11.9742	33.727
11.8106	34.5242
11.6513	34.5712
11.4963	34.3051
11.3454	34.0698
11.1983	32.8954
11.0551	31.8537
10.9154	31.8827
10.7793	32.893
10.6465	32.6907
10.5169	33.1051
10.3904	33.5727
10.267	34.1692
10.1464	33.3593
10.0287	32.4217
9.9136	31.7894
9.8012	31.2475
9.6913	30.7455
9.5838	30.9178
9.4787	31.2695
9.3758	31.7742
9.2752	32.347
9.1767	32.3232
9.0803	32.5098
8.9858	32.6636
8.8934	33.2892
8.8028	34.1484
8.714	35.0046
8.627	35.3347
8.5417	36.3986
8.4581	37.2914
8.3761	38.0394
8.2957	39.1831
8.2169	40.5542
8.1395	42.4034
8.0635	44.2507
7.989	46.1511
7.9158	47.8165
7.8439	48.8544
7.7734	49.7333
7.7041	50.4469
7.636	51.0428
7.5691	51.5554
7.5034	52.1742
7.4388	52.1181
7.3753	51.964
7.3129	51.682
7.2515	51.081
7.1912	50.6701
7.1318	49.1861
7.0734	46.9609
7.016	46.1412
6.9595	47.3102
6.9039	47.1918
6.8492	48.3065
6.7953	51.2449
6.7423	52.2895
6.6901	53.4641
6.6387	55.9133
6.5881	53.4378
6.5382	52.3462
6.4892	55.1501
6.4408	52.2765
6.3931	50.9124
6.3462	50.8998
6.2999	47.611
6.2543	46.0242
6.2094	44.7769
6.1651	44.6851
6.1214	45.1084
6.0784	45.6429
6.0359	45.2632
5.994	45.7657
5.9527	45.3884
5.912	45.7191
5.8718	46.7458
5.8322	47.6349
5.7931	48.4884
5.7545	50.4971
5.7165	52.4295
5.6789	53.4618
5.6418	55.3614
5.6052	54.9091
5.5691	55.7375
5.5334	56.497
5.4982	57.3701
5.4635	58.5589
5.4291	58.4836
5.3952	57.5546
5.3618	56.963
5.3287	56.9518
5.2961	57.3861
5.2638	57.9178
5.2319	58.7631
5.2004	59.3239
5.1693	59.2368
5.1386	59.3155
5.1082	59.2423
5.0782	59.1945
5.0485	59.0772
5.0192	59.2279
4.9902	59.1367
4.9616	59.698
4.9332	59.8395
4.9052	60.3344
4.8776	60.7113
4.8502	60.886
4.8231	61.0181
4.7963	61.0923
4.7699	61.1385
4.7437	61.0784
4.7178	61.0715
4.6922	61.0408
4.6668	61.1028
4.6418	61.044
4.617	61.0545
4.5924	61.013
4.5681	60.961
4.5441	60.8938
4.5203	60.828
4.4968	60.5911
4.4735	60.561
4.4505	60.479
4.4277	60.4385
4.4051	60.3814
4.3828	60.2406
4.3607	60.1325
4.3388	59.9281
4.3171	59.3252
4.2956	58.532
4.2744	57.9373
4.2534	58.7234
4.2325	57.0632
4.2119	58.3313
4.1915	58.9603
4.1712	58.8375
4.1512	58.696
4.1313	58.4056
4.1117	58.2749
4.0922	58.0578
4.0729	57.9121
4.0538	57.5969
4.0349	57.4154
4.0161	57.2526
3.9976	57.1203
3.9792	56.8667
3.9609	56.645
3.9428	56.4894
3.9249	56.2892
3.9072	56.0423
3.8896	55.9468
3.8722	55.6525
3.8549	55.4613
3.8378	55.1747
3.8208	54.9543
3.804	54.633
3.7873	54.3798
3.7708	54.129
3.7544	53.7412
3.7382	53.5147
3.7221	53.1875
3.7061	52.933
3.6903	52.5674
3.6746	52.234
3.659	51.8537
3.6436	51.3348
3.6283	50.9682
3.6131	50.519
3.5981	50.1851
3.5832	49.581
3.5684	49.1124
3.5537	48.5787
3.5391	47.9067
3.5247	46.5203
3.5104	44.4468
3.4962	44.7762
3.4821	44.8662
3.4681	44.5363
3.4543	43.6324
3.4405	41.8235
3.4269	39.0716
3.4133	40.442
3.3999	41.2814
3.3866	41.0693
3.3733	41.5508
3.3602	42.3523
3.3472	42.5594
3.3343	42.287
3.3215	41.8704
3.3088	41.3855
3.2961	41.0843
3.2836	40.7801
3.2712	40.2855
3.2588	40.065
3.2466	39.7358
3.2345	39.5499
3.2224	39.2554
3.2104	38.9408
3.1985	38.6953
3.1867	38.4456
3.175	38.0579
3.1634	37.8892
3.1519	37.5908
3.1404	37.4303
3.129	37.3469
3.1178	37.2265
3.1065	37.0737
3.0954	37.2733
3.0844	37.2374
3.0734	37.2426
3.0625	37.3805
3.0517	37.676
3.041	37.7351
3.0303	38.1273
3.0197	38.2254
3.0092	38.3445
2.9987	38.599
2.9884	38.7171
2.9781	38.8865
2.9678	38.8178
2.9577	38.9729
2.9476	38.793
2.9376	38.8761
2.9276	39.1881
2.9177	39.3616
2.9079	39.6626
2.8982	39.9521
2.8885	40.17
2.8789	40.5914
2.8693	40.7797
2.8598	41.1329
2.8504	41.6325
2.841	42.0292
2.8317	42.522
2.8224	43.0551
2.8133	43.3563
2.8041	44.714
2.7951	44.744
2.786	45.9809
2.7771	46.2872
2.7682	47.0402
2.7594	47.3208
2.7506	48.7027
2.7418	51.0315
2.7332	51.7754
2.7246	54.8749
2.716	55.2277
2.7075	56.7071
2.699	57.8475
2.6906	59.2533
2.6823	60.1823
2.674	60.6955
2.6657	62.9684
2.6575	60.6464
2.6494	60.7064
2.6413	60.8353
2.6332	61.157
2.6252	61.2359
2.6173	62.2372
2.6094	61.5141
2.6015	61.407
2.5937	63.0249
2.5859	61.4713
2.5782	60.9698
2.5706	61.1962
2.5629	61.8143
2.5554	60.592
2.5478	61.0528
2.5403	60.6983
2.5329	60.8078
2.5255	60.7902
2.5181	60.4579
2.5108	60.569
2.5035	60.3804
2.4963	60.3352
2.4891	60.5182
2.482	60.3689
2.4749	60.3571
2.4678	60.5041
2.4608	60.365
2.4538	60.2797
2.4468	60.4254
2.4399	60.3759
2.4331	60.3085
2.4262	60.3159
2.4194	60.5558
2.4127	60.3158
2.4059	60.3145
2.3993	60.2153
2.3926	60.3213
2.386	60.4237
2.3795	60.2045
2.3729	60.4422
2.3664	60.2873
2.36	60.2402
2.3535	60.2949
2.3471	60.1944
2.3408	60.3258
2.3345	60.2059
2.3282	60.3382
2.3219	60.1816
2.3157	60.274
2.3095	60.1327
2.3034	60.1799
2.2972	60.275
2.2911	60.206
2.2851	60.215
2.279	60.1367
2.2731	60.2462
2.2671	60.1936
2.2612	60.0799
2.2553	60.1071
2.2494	60.0598
2.2435	60.1415
2.2377	60.1868
2.232	60.146
2.2262	59.8401
2.2205	59.9931
2.2148	59.876
2.2091	59.8708
2.2035	59.8131
2.1979	59.9287
2.1923	59.9334
2.1868	59.789
2.1812	59.8751
2.1758	59.7112
2.1703	59.6635
2.1649	59.6483
2.1595	59.7418
2.1541	59.4874
2.1487	59.3872
2.1434	59.5674
2.1381	59.2374
2.1328	59.2715
2.1275	59.3682
2.1223	59.3246
2.1171	59.338
2.112	59.0543
2.1068	59.1182
2.1017	59.3644
2.0966	59.2064
2.0915	59.0771
2.0865	59.384
2.0814	58.7353
2.0764	59.0132
2.0715	58.9825
2.0665	58.7714
2.0616	58.776
2.0567	58.5802
2.0518	58.6138
2.0469	58.549
2.0421	58.5671
2.0373	58.5864
2.0325	58.5762
2.0277	58.611
2.0229	58.3576
2.0182	58.1531
2.0135	58.2436
2.0088	58.1557
2.0042	57.9351
