Name: Clinozoisite Ca2Al3(SiO4)3(OH)
Type: Mineral
Class: Silicate
Subclass: Sorosilicate
Particle Size: Solid
Sample No.: clinozo_1
Owner: JHU
Wavelength Range: TIR
Origin: Sample from Baja California, Mexico via Smithsonian (sampleno. NMNH 112513-2.
Description: The sample was one large (2.5 cm x 2 cm x 2 cm) crystal with good crystal faces, weighing 19 g.  It was dark gray in color, with <<1% limonitic surface contamination, which was easily removed.  Under the microscope the sample appears to be pure and free from alteration. (Epidote Group). Sample had cleavage face. Original ASTER Spectral Library name was jhu.nicolet.mineral.silicate.sorosilicate.solid.clinoz1.spectrum.txt
Measurement: Bidirectional reflectance
X Units: Wavelength (micrometers)
Y Units: Reflectance (percent)
wavelength	value
25.044	38.398
24.339	45.957
23.672	34.741
23.041	34.687
22.442	37.994
21.874	35.773
21.334	27.038
20.82	26.804
20.33	30.926
19.863	32.798
19.416	36.031
18.99	34.558
18.581	22.093
18.19	22.608
17.815	32.321
17.455	42.231
17.109	43.708
16.777	26.367
16.458	28.049
16.15	19.72
15.854	14.758
15.568	20.742
15.292	30.656
15.027	36.661
14.77	32.234
14.521	23.3
14.281	20.151
14.049	17.315
13.824	16.131
13.607	13.628
13.396	11.569
13.191	13.262
12.993	14.663
12.8	15.734
12.614	16.834
12.432	17.955
12.256	19.031
12.084	20.692
11.918	22.692
11.755	21.485
11.598	24.326
11.444	23.917
11.294	28.882
11.149	36.25
11.007	33.504
10.868	30.623
10.733	31.446
10.602	42.506
10.473	54.497
10.348	55.044
10.225	48.454
10.106	46.397
9.9887	44.801
9.8746	27.098
9.763	12.1
9.6539	16.878
9.5472	30.508
9.4429	33.894
9.3408	33.439
9.2409	29.352
9.1431	28.068
9.0474	31.197
8.9536	34.604
8.8618	35.259
8.7718	34.74
8.6837	32.468
8.5973	25.395
8.5126	16.241
8.4295	8.9282
8.3481	4.0698
8.2682	3.835
8.1898	4.8862
8.1129	5.7605
8.0374	6.4582
7.9634	6.9922
7.8906	7.4787
7.8192	7.907
7.7491	8.2822
7.6802	8.6116
7.6126	8.9004
7.5461	9.1382
7.4807	9.3508
7.4165	9.5451
7.3534	9.7082
7.2914	9.8652
7.2303	9.9868
7.1703	10.09
7.1113	10.241
7.0533	10.304
6.9962	10.415
6.94	10.502
6.8847	10.599
6.8302	10.665
6.7767	10.753
6.7239	10.822
6.672	10.853
6.6209	10.903
6.5705	10.885
6.5209	11.004
6.4721	11.054
6.424	11.082
6.3766	11.194
6.3299	11.257
6.2838	11.327
6.2385	11.365
6.1937	11.373
6.1496	11.423
6.1062	11.419
6.0633	11.465
6.0211	11.482
5.9794	11.449
5.9383	11.35
5.8978	11.361
5.8578	11.43
5.8184	11.337
5.7794	11.47
5.741	11.569
5.7031	11.597
5.6657	11.609
5.6288	11.597
5.5924	11.596
5.5564	11.62
5.5209	11.675
5.4859	11.723
5.4513	11.792
5.4171	11.777
5.3833	11.829
5.35	11.819
5.3171	11.844
5.2846	11.862
5.2524	11.875
5.2207	11.893
5.1893	11.911
5.1584	11.95
5.1277	12.006
5.0975	12.04
5.0676	12.066
5.038	12.07
5.0088	12.072
4.98	12.047
4.9514	12.015
4.9232	12.001
4.8953	12.002
4.8678	12.026
4.8405	12.068
4.8135	12.133
4.7868	12.188
4.7605	12.254
4.7344	12.327
4.7086	12.356
4.6831	12.344
4.6578	12.355
4.6328	12.363
4.6081	12.356
4.5837	12.372
4.5595	12.427
4.5356	12.492
4.5119	12.526
4.4884	12.615
4.4652	12.682
4.4423	12.728
4.4196	12.773
4.3971	12.806
4.3748	12.829
4.3528	12.882
4.331	12.9
4.3094	12.925
4.288	12.917
4.2668	12.94
4.2458	12.965
4.2251	13.016
4.2045	13.016
4.1841	13.052
4.164	13.055
4.144	13.077
4.1242	13.09
4.1046	13.113
4.0852	13.124
4.066	13.092
4.047	13.099
4.0281	13.095
4.0094	13.104
3.9909	13.105
3.9725	13.138
3.9544	13.163
3.9363	13.189
3.9185	13.239
3.9008	13.229
3.8833	13.251
3.8659	13.27
3.8487	13.278
3.8316	13.299
3.8147	13.325
3.7979	13.316
3.7813	13.306
3.7648	13.34
3.7485	13.341
3.7323	13.325
3.7162	13.318
3.7003	13.352
3.6845	13.366
3.6689	13.347
3.6534	13.372
3.638	13.34
3.6227	13.366
3.6076	13.379
3.5926	13.394
3.5777	13.381
3.563	13.389
3.5484	13.361
3.5338	13.341
3.5195	13.347
3.5052	13.36
3.491	13.386
3.477	13.405
3.463	13.387
3.4492	13.368
3.4355	13.348
3.4219	13.392
3.4084	13.454
3.395	13.454
3.3817	13.442
3.3685	13.491
3.3554	13.44
3.3425	13.387
3.3296	13.336
3.3168	13.258
3.3041	13.167
3.2915	13.106
3.279	13.055
3.2666	13.04
3.2543	12.982
3.2421	12.943
3.23	12.864
3.218	12.802
3.206	12.727
3.1942	12.662
3.1824	12.64
3.1707	12.574
3.1591	12.511
3.1476	12.434
3.1362	12.31
3.1249	12.257
3.1136	12.193
3.1024	12.153
3.0913	12.082
3.0803	12.057
3.0694	12.022
3.0585	12.013
3.0477	12.039
3.037	12.009
3.0264	12.013
3.0158	12.017
3.0053	11.983
2.9949	11.93
2.9845	11.769
2.9743	11.503
2.9641	11.139
2.9539	11.035
2.9439	11.118
2.9339	11.21
2.9239	11.259
2.9141	11.289
2.9043	11.278
2.8946	11.29
2.8849	11.326
2.8753	11.42
2.8658	11.533
2.8563	11.653
2.8469	11.798
2.8375	11.842
2.8282	11.573
2.819	11.657
2.8098	11.855
2.8007	12.021
2.7917	12.26
2.7827	12.386
2.7738	12.523
2.7649	12.643
2.7561	12.624
2.7473	12.753
2.7386	12.717
2.7299	12.783
2.7213	12.831
2.7128	12.92
2.7043	12.946
2.6959	12.964
2.6875	13.015
2.6791	13.024
2.6709	13.002
2.6626	13.1
2.6545	13.09
2.6463	13.069
2.6382	13.079
2.6302	12.999
2.6222	13.067
2.6143	13.048
2.6064	13.041
2.5986	13.108
2.5908	13.147
2.583	13.104
2.5753	13.119
2.5677	13.12
2.5601	13.067
2.5525	13.09
2.545	13.086
2.5375	13.079
2.5301	13.098
2.5227	13.104
2.5154	13.112
2.5081	13.161
2.5008	13.205
2.4936	13.194
2.4864	13.2
2.4793	13.207
2.4722	13.229
2.4651	13.226
2.4581	13.267
2.4511	13.262
2.4442	13.254
2.4373	13.292
2.4305	13.278
2.4236	13.264
2.4169	13.256
2.4101	13.226
2.4034	13.172
2.3967	13.135
2.3901	13.037
2.3835	12.926
2.377	12.747
2.3704	12.479
2.364	12.192
2.3575	11.945
2.3511	11.831
2.3447	11.929
2.3384	11.987
2.3321	12.198
2.3258	12.394
2.3195	12.605
2.3133	12.706
2.3071	12.848
2.301	12.962
2.2949	13.094
2.2888	13.181
2.2828	13.256
2.2767	13.26
2.2708	13.2
2.2648	13.079
2.2589	13.006
2.253	13.021
2.2471	13.168
2.2413	13.423
2.2355	13.623
2.2297	13.716
2.224	13.825
2.2183	13.912
2.2126	13.982
2.207	13.969
2.2013	13.962
2.1957	14.009
2.1902	14.102
2.1846	14.099
2.1791	14.15
2.1736	14.188
2.1682	14.184
2.1628	14.255
2.1574	14.275
2.152	14.247
2.1466	14.309
2.1413	14.317
2.136	14.426
2.1308	14.376
2.1255	14.4
2.1203	14.416
2.1151	14.392
2.11	14.496
2.1048	14.474
2.0997	14.505
2.0946	14.582
2.0895	14.571
2.0845	14.54
2.0795	14.552
