Name: Montebrasite LiAlPO_4(OH)
Type: Mineral
Class: Phosphate
Subclass: None
Particle Size: Medium
Sample No.: P-2A
Owner: JPL
Wavelength Range: TIR
Origin: USA, Couth Dakota, Custer County, Custer
Description: Particle size was 45-125um.Collected by Burminco Original ASTER Spectral Library name was jpl.nicolet.mineral.phosphate.none.medium.p02a.spectrum.txt
Measurement: Hemispherical reflectance
X Units: Wavelength (micrometers)
Y Units: Reflectance (percent)
wavelength	value
15.3853	8.8993
15.1161	8.7672
14.8563	7.1773
14.6052	3.4446
14.3624	1.1329
14.1276	0.571
13.9004	0.6973
13.6803	1.1273
13.4671	1.8699
13.2604	2.1357
13.06	2.315
12.8656	2.9135
12.6769	3.885
12.4936	5.2503
12.3155	6.6083
12.1425	7.7446
11.9742	6.7203
11.8106	2.6953
11.6513	2.3709
11.4963	2.7654
11.3454	3.2734
11.1983	3.6009
11.0551	3.7334
10.9154	4.0935
10.7793	4.2268
10.6465	4.499
10.5169	4.8044
10.3904	5.2744
10.267	5.8552
10.1464	6.5886
10.0287	8.1451
9.9136	10.5247
9.8012	13.1179
9.6913	10.0741
9.5838	8.1443
9.4787	12.2798
9.3758	20.4404
9.2752	28.1451
9.1767	35.5918
9.0803	38.4087
8.9858	37.073
8.8934	34.716
8.8028	30.6026
8.714	23.517
8.627	23.5216
8.5417	24.8504
8.4581	22.0762
8.3761	16.3285
8.2957	14.1955
8.2169	13.513
8.1395	8.7637
8.0635	3.4033
7.989	1.0779
7.9158	0.6173
7.8439	0.3982
7.7734	0.2672
7.7041	0.3391
7.636	0.282
7.5691	0.5525
7.5034	0.7628
7.4388	0.8447
7.3753	1.1314
7.3129	1.2968
7.2515	1.7142
7.1912	1.9447
7.1318	2.2686
7.0734	2.2959
7.016	2.4859
6.9595	2.8015
6.9039	3.0749
6.8492	3.2815
6.7953	3.8119
6.7423	3.9333
6.6901	4.3064
6.6387	5.0155
6.5881	5.0119
6.5382	5.3292
6.4892	5.8648
6.4408	5.5348
6.3931	5.1039
6.3462	4.5303
6.2999	3.8112
6.2543	3.7797
6.2094	4.0896
6.1651	4.863
6.1214	5.6448
6.0784	6.6082
6.0359	7.5568
5.994	8.2919
5.9527	8.6193
5.912	9.2694
5.8718	10.0024
5.8322	10.6036
5.7931	11.0012
5.7545	12.1068
5.7165	13.3324
5.6789	14.44
5.6418	16.1007
5.6052	16.5876
5.5691	17.5179
5.5334	18.1091
5.4982	18.4948
5.4635	18.533
5.4291	17.8365
5.3952	17.2444
5.3618	17.0133
5.3287	17.3425
5.2961	18.1509
5.2638	18.9507
5.2319	19.7593
5.2004	20.5391
5.1693	21.3272
5.1386	21.7442
5.1082	21.0408
5.0782	19.3327
5.0485	16.8509
5.0192	14.1385
4.9902	12.0743
4.9616	11.0232
4.9332	10.7214
4.9052	10.0098
4.8776	8.6378
4.8502	7.9532
4.8231	7.6983
4.7963	7.7661
4.7699	7.3343
4.7437	6.8919
4.7178	7.0053
4.6922	7.292
4.6668	7.9065
4.6418	7.9905
4.617	8.1994
4.5924	8.5468
4.5681	8.6079
4.5441	8.5727
4.5203	8.66
4.4968	9.1033
4.4735	9.5623
4.4505	9.619
4.4277	9.1276
4.4051	8.8803
4.3828	9.428
4.3607	10.2781
4.3388	10.7787
4.3171	10.5374
4.2956	9.7905
4.2744	8.8583
4.2534	9.3064
4.2325	9.715
4.2119	9.6156
4.1915	9.1862
4.1712	10.0933
4.1512	12.0688
4.1313	15.47
4.1117	19.1538
4.0922	22.0692
4.0729	24.0262
4.0538	25.136
4.0349	25.8748
4.0161	26.1338
3.9976	26.1351
3.9792	26.2029
3.9609	27.0394
3.9428	27.4337
3.9249	27.6679
3.9072	27.8376
3.8896	27.8956
3.8722	27.9762
3.8549	28.6245
3.8378	29.2039
3.8208	29.8805
3.804	30.3781
3.7873	30.7819
3.7708	31.1993
3.7544	31.5426
3.7382	31.731
3.7221	31.9854
3.7061	32.0801
3.6903	32.0307
3.6746	31.6476
3.659	31.2852
3.6436	30.8919
3.6283	30.2723
3.6131	29.7082
3.5981	29.3628
3.5832	29.2116
3.5684	29.1041
3.5537	28.7535
3.5391	28.1434
3.5247	27.3838
3.5104	26.6698
3.4962	25.9193
3.4821	25.2898
3.4681	24.9119
3.4543	24.3888
3.4405	24.0138
3.4269	23.7617
3.4133	23.4214
3.3999	22.7755
3.3866	22.0823
3.3733	21.3096
3.3602	20.8395
3.3472	19.9592
3.3343	18.9548
3.3215	17.9276
3.3088	16.7657
3.2961	15.4034
3.2836	14.125
3.2712	13.0759
3.2588	12.4639
3.2466	11.8051
3.2345	11.5612
3.2224	11.2361
3.2104	11.0434
3.1985	10.8998
3.1867	10.4082
3.175	9.8273
3.1634	9.2923
3.1519	8.9208
3.1404	8.3385
3.129	7.9772
3.1178	7.4666
3.1065	7.1684
3.0954	6.9445
3.0844	6.9827
3.0734	6.5902
3.0625	6.6678
3.0517	6.818
3.041	6.9197
3.0303	6.9756
3.0197	6.4804
3.0092	6.2604
2.9987	5.7825
2.9884	5.533
2.9781	5.539
2.9678	5.8069
2.9577	5.6047
2.9476	5.7297
2.9376	4.6826
2.9276	4.4094
2.9177	4.6461
2.9079	5.1941
2.8982	6.0493
2.8885	6.3362
2.8789	6.401
2.8693	6.5053
2.8598	6.5769
2.8504	6.4244
2.841	6.7213
2.8317	7.1307
2.8224	8.0212
2.8133	9.001
2.8041	10.463
2.7951	11.8296
2.786	13.4808
2.7771	14.7234
2.7682	16.3577
2.7594	17.7201
2.7506	19.3099
2.7418	21.4366
2.7332	22.401
2.7246	24.782
2.716	25.7052
2.7075	27.7502
2.699	29.2486
2.6906	30.4464
2.6823	31.1702
2.674	31.3044
2.6657	32.5693
2.6575	30.818
2.6494	30.3149
2.6413	30.1178
2.6332	29.868
2.6252	28.9067
2.6173	28.4203
2.6094	27.9294
2.6015	28.3399
2.5937	30.2617
2.5859	30.3128
2.5782	31.0305
2.5706	31.6895
2.5629	32.5277
2.5554	32.317
2.5478	33.6829
2.5403	34.9482
2.5329	36.0229
2.5255	36.9401
2.5181	37.543
2.5108	38.2284
2.5035	38.7341
2.4963	39.0635
2.4891	40.2518
2.482	41.8194
2.4749	43.8614
2.4678	46.1208
2.4608	48.9088
2.4538	51.4374
2.4468	53.4652
2.4399	55.4111
2.4331	56.4545
2.4262	56.8846
2.4194	56.817
2.4127	55.4864
2.4059	53.3362
2.3993	49.2867
2.3926	42.3391
2.386	33.6429
2.3795	26.0687
2.3729	23.6436
2.3664	31.1633
2.36	41.1631
2.3535	52.1027
2.3471	59.0756
2.3408	62.2186
2.3345	63.606
2.3282	64.2326
2.3219	64.2159
2.3157	63.9153
2.3095	63.1418
2.3034	62.0498
2.2972	60.7318
2.2911	58.7935
2.2851	56.3686
2.279	54.6366
2.2731	54.3048
2.2671	54.1502
2.2612	53.4222
2.2553	51.8517
2.2494	50.3715
2.2435	48.6937
2.2377	47.1101
2.232	45.2808
2.2262	43.1693
2.2205	41.606
2.2148	39.9612
2.2091	37.2277
2.2035	33.6037
2.1979	30.2878
2.1923	27.2755
2.1868	25.1742
2.1812	23.297
2.1758	22.0155
2.1703	21.9981
2.1649	28.4586
2.1595	39.9967
2.1541	49.8519
2.1487	55.5549
2.1434	58.7049
2.1381	60.4246
2.1328	61.4685
2.1275	62.0951
2.1223	62.6061
2.1171	63.0434
2.112	63.236
2.1068	63.838
2.1017	64.4932
2.0966	64.9818
2.0915	65.2344
2.0865	65.0353
2.0814	65.1991
2.0764	64.4035
2.0715	63.9097
2.0665	64.2998
2.0616	64.3317
2.0567	64.5548
2.0518	65.1169
2.0469	65.344
2.0421	66.1596
2.0373	66.7225
2.0325	67.0655
2.0277	67.1534
2.0229	67.1449
2.0182	66.2089
2.0135	64.7619
2.0088	61.586
2.0042	56.8778
