Name: Aphthitalite (K,Na)_3Na(SO_4)_2
Type: Mineral
Class: Sulfate
Subclass: None
Particle Size: Fine
Sample No.: SO-9A
Owner: JPL
Wavelength Range: VSWIR
Origin: USA, California, San Bernadino County, Searles Lake.
Description: Particle size was 0-45um.Collected by:  Burminco Original ASTER Spectral Library name was jpl.perkin.mineral.sulfate.none.fine.so09a.spectrum.txt
Measurement: Hemispherical reflectance
X Units: Wavelength (micrometers)
Y Units: Reflectance (percent)
wavelength	value
2.5	78.6638
2.494	78.6495
2.488	78.6856
2.482	78.9246
2.476	79.0627
2.47	79.2695
2.464	79.2879
2.458	79.3724
2.452	79.6444
2.446	79.6648
2.44	79.7788
2.434	79.987
2.428	80.091
2.422	80.1771
2.416	80.2394
2.41	80.1421
2.404	80.36
2.398	80.558
2.392	80.8968
2.386	81.1804
2.38	81.5311
2.374	81.7221
2.368	82.1097
2.362	82.388
2.356	82.5685
2.35	82.6981
2.344	82.7974
2.338	82.8445
2.332	82.877
2.326	82.7894
2.32	82.8605
2.314	82.8666
2.308	82.8616
2.302	83.0182
2.296	83.1042
2.29	83.0547
2.284	83.2347
2.278	83.1707
2.272	83.1882
2.266	83.2438
2.26	83.2828
2.254	83.3765
2.248	83.4286
2.242	83.4971
2.236	83.6033
2.23	83.4752
2.224	83.441
2.218	83.7162
2.212	83.727
2.206	84.0556
2.2	84.1947
2.194	84.2108
2.188	84.3323
2.182	84.3522
2.176	84.5131
2.17	84.6322
2.164	84.6133
2.158	84.6921
2.152	84.8759
2.146	84.8952
2.14	84.8857
2.134	84.7982
2.128	84.6825
2.122	84.4406
2.116	84.0034
2.11	83.6764
2.104	83.3401
2.098	83.1068
2.092	83.1026
2.086	83.117
2.08	83.0367
2.074	83.0852
2.068	83.0221
2.062	82.9929
2.056	83.0308
2.05	83.0161
2.044	82.9594
2.038	83.0686
2.032	83.1164
2.026	83.2487
2.02	83.2678
2.014	83.3624
2.008	83.4331
2.002	83.4019
1.996	83.4291
1.99	83.2485
1.984	83.068
1.978	82.9586
1.972	82.8236
1.966	82.5642
1.96	82.253
1.954	81.9756
1.948	81.7614
1.942	81.7792
1.936	81.9654
1.93	82.2722
1.924	82.8135
1.918	83.419
1.912	83.9878
1.906	84.5836
1.9	85.3409
1.894	85.9745
1.888	86.336
1.882	86.7737
1.876	87.1141
1.87	87.2011
1.864	87.3393
1.858	87.5203
1.852	87.6664
1.846	87.6891
1.84	87.7458
1.834	87.7886
1.828	87.7717
1.822	87.8183
1.816	87.8411
1.81	87.8544
1.804	87.8839
1.798	87.9354
1.792	87.9883
1.786	87.9123
1.78	87.9154
1.774	87.9806
1.768	87.9916
1.762	87.9733
1.756	88.0331
1.75	88.0147
1.744	87.9769
1.738	88.1412
1.732	88.2053
1.726	88.2599
1.72	88.3529
1.714	88.2105
1.708	88.3247
1.702	88.3824
1.696	88.4328
1.69	88.3312
1.684	88.439
1.678	88.4868
1.672	88.4919
1.666	88.677
1.66	88.6786
1.654	88.6994
1.648	88.5987
1.642	88.7455
1.636	88.7749
1.63	88.8435
1.624	88.9004
1.618	88.9814
1.612	88.8851
1.606	88.9227
1.6	89.0211
1.594	88.9799
1.588	88.9908
1.582	88.9897
1.576	88.9822
1.57	88.8913
1.564	88.9551
1.558	88.8698
1.552	88.8835
1.546	88.7556
1.54	88.7586
1.534	88.8622
1.528	88.7277
1.522	88.7675
1.516	88.7203
1.51	88.8039
1.504	88.7468
1.498	88.7063
1.492	88.7738
1.486	88.6449
1.48	88.7288
1.474	88.7997
1.468	88.7886
1.462	88.9454
1.456	88.9582
1.45	89.0255
1.444	89.0613
1.438	89.0774
1.432	89.1066
1.426	89.1079
1.42	89.2547
1.414	89.2387
1.408	89.4363
1.402	89.5967
1.396	89.7049
1.39	89.7606
1.384	89.7656
1.378	89.7595
1.372	89.7883
1.366	89.8554
1.36	89.7313
1.354	89.6415
1.348	89.7465
1.342	89.7632
1.336	89.8215
1.33	89.7941
1.324	89.8014
1.318	89.8098
1.312	89.8269
1.306	89.8185
1.3	89.7715
1.294	89.8339
1.288	89.8505
1.282	89.7918
1.276	89.8074
1.27	89.8365
1.264	89.7338
1.258	89.7256
1.252	89.7913
1.246	89.7698
1.24	89.7125
1.234	89.7726
1.228	89.7937
1.222	89.7047
1.216	89.6848
1.21	89.6981
1.204	89.6678
1.198	89.6884
1.192	89.6553
1.186	89.7796
1.18	89.691
1.174	89.6885
1.168	89.6781
1.162	89.7668
1.156	89.6979
1.15	89.7723
1.144	89.8243
1.138	89.8041
1.132	89.8432
1.126	89.8415
1.12	89.7873
1.114	89.7456
1.108	89.7613
1.102	89.7716
1.096	89.8108
1.09	89.7847
1.084	89.8492
1.078	89.8224
1.072	89.8138
1.066	89.8702
1.06	89.7631
1.054	89.8225
1.048	89.8277
1.042	89.794
1.036	89.9094
1.03	89.7916
1.024	89.8652
1.018	89.8006
1.012	89.8822
1.006	89.8572
1	89.8649
0.994	89.8561
0.988	89.9362
0.982	89.9572
0.976	89.8753
0.97	89.9352
0.964	89.9359
0.958	89.9294
0.952	89.9004
0.946	89.9108
0.94	89.9422
0.934	89.9782
0.928	89.9577
0.922	90.0118
0.916	90.0866
0.91	90.0044
0.904	89.9909
0.898	90.0693
0.892	90.053
0.886	90.1142
0.88	90.1419
0.874	90.1316
0.868	90.1604
0.862	90.1014
0.856	90.0686
0.85	90.1347
0.844	90.0909
0.838	90.0672
0.832	90.1336
0.826	90.1206
0.82	90.109
0.814	90.1511
0.808	90.1846
0.802	90.1418
0.796	90.062
0.79	90.0149
0.784	90.0304
0.778	90.03
0.772	89.9764
0.766	89.9117
0.76	89.9193
0.754	89.855
0.748	89.8473
0.742	89.8332
0.736	89.8212
0.73	89.8096
0.724	89.7492
0.718	89.7282
0.712	89.6935
0.706	89.6282
0.7	89.6401
0.694	89.6396
0.688	89.5698
0.682	89.5321
0.676	89.5015
0.67	89.4727
0.664	89.4364
0.658	89.3999
0.652	89.3406
0.646	89.3197
0.64	89.2743
0.634	89.235
0.628	89.1817
0.622	89.1577
0.616	89.0696
0.61	89.0322
0.604	89.0406
0.598	89.0143
0.592	88.991
0.586	88.9217
0.58	88.8475
0.574	88.7525
0.568	88.6564
0.562	88.5407
0.556	88.412
0.55	88.3089
0.544	88.1424
0.538	88.0083
0.532	87.8679
0.526	87.6849
0.52	87.5017
0.514	87.2615
0.508	86.9735
0.502	86.7502
0.496	86.4165
0.49	86.1136
0.484	85.7427
0.478	85.4868
0.472	85.1679
0.466	84.8636
0.46	84.5545
0.454	84.1914
0.448	83.8672
0.442	83.4904
0.436	83.1069
0.43	82.7406
0.424	82.3682
0.418	81.97
0.412	81.5924
0.406	81.1571
0.4	80.7049
