Name: Realgar AsS
Type: Mineral
Class: Sulfide
Subclass: None
Particle Size: Medium
Sample No.: S-3A
Owner: JPL
Wavelength Range: VSWIR
Origin: Unknown.
Description: Particle size was 45-125um. Collected by - JPL Original ASTER Spectral Library name was jpl.perkin.mineral.sulfide.none.medium.s03a.spectrum.txt
Measurement: Hemispherical reflectance
X Units: Wavelength (micrometers)
Y Units: Reflectance (percent)
wavelength	value
2.5	75.4619
2.494	75.9135
2.488	75.8236
2.482	75.9812
2.476	76.0667
2.47	76.4225
2.464	76.4607
2.458	76.6376
2.452	76.606
2.446	76.868
2.44	77.0145
2.434	77.1821
2.428	77.303
2.422	77.3674
2.416	77.4815
2.41	77.7256
2.404	77.7894
2.398	77.9705
2.392	78.0972
2.386	78.2402
2.38	78.4631
2.374	78.5324
2.368	78.6014
2.362	78.7821
2.356	78.8452
2.35	78.9701
2.344	79.0472
2.338	79.0893
2.332	79.0579
2.326	79.111
2.32	79.0773
2.314	79.0077
2.308	79.0171
2.302	79.0676
2.296	79.0988
2.29	79.1932
2.284	79.0983
2.278	79.1532
2.272	79.1586
2.266	79.1842
2.26	79.1892
2.254	79.1506
2.248	79.168
2.242	79.2647
2.236	79.2717
2.23	79.4053
2.224	79.4278
2.218	79.4256
2.212	79.5513
2.206	79.699
2.2	79.925
2.194	79.8421
2.188	79.9305
2.182	80.0676
2.176	80.0944
2.17	80.2898
2.164	80.3835
2.158	80.5622
2.152	80.5576
2.146	80.6144
2.14	80.5948
2.134	80.5048
2.128	80.312
2.122	80.1004
2.116	79.7875
2.11	79.5281
2.104	79.2691
2.098	79.0977
2.092	79.1408
2.086	79.1164
2.08	79.1408
2.074	79.1995
2.068	79.202
2.062	79.2071
2.056	79.2188
2.05	79.244
2.044	79.2238
2.038	79.2261
2.032	79.1402
2.026	78.7386
2.02	78.9858
2.014	78.8868
2.008	78.7961
2.002	78.6995
1.996	78.5091
1.99	78.2981
1.984	78.1559
1.978	77.8975
1.972	77.7005
1.966	77.5511
1.96	77.3627
1.954	77.2449
1.948	77.087
1.942	77.0286
1.936	77.0332
1.93	77.0695
1.924	77.0932
1.918	77.3997
1.912	77.7173
1.906	78.0764
1.9	78.5245
1.894	79.0265
1.888	79.6494
1.882	80.1
1.876	80.2678
1.87	80.4917
1.864	80.5979
1.858	80.7104
1.852	80.71
1.846	80.777
1.84	80.7303
1.834	80.762
1.828	80.7916
1.822	80.8203
1.816	80.7965
1.81	80.7711
1.804	80.728
1.798	80.8721
1.792	80.8036
1.786	80.8134
1.78	80.7093
1.774	80.7689
1.768	80.7042
1.762	80.7066
1.756	80.7419
1.75	80.693
1.744	80.7371
1.738	80.6855
1.732	80.8155
1.726	80.7378
1.72	80.7471
1.714	80.6926
1.708	80.6942
1.702	80.6315
1.696	80.6654
1.69	80.6107
1.684	80.5883
1.678	80.5139
1.672	80.4786
1.666	80.5397
1.66	80.3949
1.654	80.4692
1.648	80.4651
1.642	80.3852
1.636	80.3976
1.63	80.2649
1.624	80.2196
1.618	80.1847
1.612	80.1711
1.606	80.057
1.6	80.107
1.594	79.9747
1.588	79.9515
1.582	79.9185
1.576	79.759
1.57	79.8361
1.564	79.7223
1.558	79.601
1.552	79.5506
1.546	79.5855
1.54	79.3624
1.534	79.2746
1.528	79.1907
1.522	79.1809
1.516	79.0701
1.51	78.9949
1.504	78.8664
1.498	78.7841
1.492	78.6845
1.486	78.4793
1.48	78.3996
1.474	78.3094
1.468	78.2448
1.462	78.2083
1.456	78.0591
1.45	78.0166
1.444	77.9522
1.438	77.8592
1.432	77.9117
1.426	77.8021
1.42	77.7836
1.414	77.812
1.408	77.7886
1.402	77.8704
1.396	77.922
1.39	77.9438
1.384	78.0179
1.378	77.9195
1.372	77.8379
1.366	77.8388
1.36	77.629
1.354	77.598
1.348	77.5417
1.342	77.478
1.336	77.4597
1.33	77.3459
1.324	77.2425
1.318	77.215
1.312	77.1176
1.306	77.1052
1.3	76.9802
1.294	76.9382
1.288	76.8939
1.282	76.9043
1.276	76.8129
1.27	76.7273
1.264	76.6083
1.258	76.634
1.252	76.5268
1.246	76.5447
1.24	76.4437
1.234	76.3585
1.228	76.3447
1.222	76.2538
1.216	76.2631
1.21	76.1931
1.204	76.1308
1.198	76.0351
1.192	76.0327
1.186	75.9835
1.18	76.0149
1.174	76.0067
1.168	75.8782
1.162	75.8964
1.156	75.8226
1.15	75.842
1.144	75.7419
1.138	75.8359
1.132	75.7109
1.126	75.6698
1.12	75.6107
1.114	75.6506
1.108	75.5769
1.102	75.5425
1.096	75.5481
1.09	75.5458
1.084	75.477
1.078	75.4677
1.072	75.4028
1.066	75.3248
1.06	75.3756
1.054	75.4328
1.048	75.3416
1.042	75.3052
1.036	75.2886
1.03	75.1993
1.024	75.1812
1.018	75.1515
1.012	75.1537
1.006	75.1593
1	75.1059
0.994	75.0716
0.988	75.0678
0.982	74.9949
0.976	74.7417
0.97	74.8912
0.964	74.8881
0.958	74.812
0.952	74.8368
0.946	74.7927
0.94	74.7387
0.934	74.7616
0.928	74.6599
0.922	74.6157
0.916	74.5634
0.91	74.5728
0.904	74.4817
0.898	74.3609
0.892	74.3129
0.886	74.1774
0.88	74.2072
0.874	74.1513
0.868	74.1134
0.862	73.9756
0.856	73.7551
0.85	73.7064
0.844	73.7007
0.838	73.664
0.832	73.5651
0.826	73.5582
0.82	73.4579
0.814	73.3713
0.808	73.3048
0.802	73.2248
0.796	73.0285
0.79	72.8478
0.784	72.6519
0.778	72.4177
0.772	72.1401
0.766	71.8479
0.76	71.5513
0.754	71.2132
0.748	70.8615
0.742	70.5676
0.736	70.2864
0.73	70.0364
0.724	69.7946
0.718	69.5805
0.712	69.3733
0.706	69.1753
0.7	68.9696
0.694	68.7786
0.688	68.5743
0.682	68.334
0.676	68.1155
0.67	67.8719
0.664	67.5684
0.658	67.2509
0.652	66.8447
0.646	66.3496
0.64	65.7185
0.634	64.8563
0.628	63.7006
0.622	62.1007
0.616	59.8262
0.61	56.6882
0.604	52.4115
0.598	46.9394
0.592	40.3875
0.586	33.2237
0.58	26.1503
0.574	19.9115
0.568	15.097
0.562	11.7343
0.556	9.5672
0.55	8.3206
0.544	7.5702
0.538	7.1064
0.532	6.7984
0.526	6.5878
0.52	6.4549
0.514	6.3669
0.508	6.3193
0.502	6.2839
0.496	6.2656
0.49	6.2448
0.484	6.2294
0.478	6.2198
0.472	6.2213
0.466	6.241
0.46	6.2734
0.454	6.3112
0.448	6.3562
0.442	6.3964
0.436	6.4277
0.43	6.4549
0.424	6.4718
0.418	6.4906
0.412	6.5178
0.406	6.5583
0.4	6.6092
