Name: Tincalconite Na_2B_4O_5(OH)_4.3H_2O
Type: Mineral
Class: Borate
Subclass: None
Particle Size: Medium
Sample No.: B-4A
Owner: JPL
Wavelength Range: TIR
Origin: USA, California, Kern County, Boron
Description: Particle size was 45-125um.Collected by Burminco Original ASTER Spectral Library name was jpl.nicolet.mineral.borate.none.medium.b04a.spectrum.txt
Measurement: Hemispherical reflectance
X Units: Wavelength (micrometers)
Y Units: Reflectance (percent)
wavelength	value
15.3853	2.7871
15.1161	2.6369
14.8563	2.6235
14.6052	2.3347
14.3624	2.6781
14.1276	2.4406
13.9004	2.0695
13.6803	2.0082
13.4671	2.0649
13.2604	2.6067
13.06	2.4192
12.8656	2.3135
12.6769	2.585
12.4936	2.8551
12.3155	3.3295
12.1425	4.8951
11.9742	3.2341
11.8106	1.0902
11.6513	1.0069
11.4963	1.5621
11.3454	1.9256
11.1983	1.7848
11.0551	2.0366
10.9154	2.4533
10.7793	2.8258
10.6465	3.7713
10.5169	3.551
10.3904	1.7326
10.267	2.6506
10.1464	3.7761
10.0287	6.0575
9.9136	6.5715
9.8012	4.1927
9.6913	4.4597
9.5838	4.0934
9.4787	1.9389
9.3758	1.1062
9.2752	1.2676
9.1767	1.0307
9.0803	1.0257
8.9858	1.1582
8.8934	2.3689
8.8028	3.1668
8.714	1.6906
8.627	1.1684
8.5417	0.7646
8.4581	0.8721
8.3761	1.0995
8.2957	1.383
8.2169	1.2977
8.1395	1.421
8.0635	1.6304
7.989	1.7744
7.9158	1.6991
7.8439	1.539
7.7734	1.6954
7.7041	1.1572
7.636	1.2692
7.5691	1.659
7.5034	2.4778
7.4388	2.7978
7.3753	2.1623
7.3129	1.7951
7.2515	2.0194
7.1912	1.7518
7.1318	1.794
7.0734	1.8149
7.016	2.2617
6.9595	2.275
6.9039	1.7339
6.8492	1.6658
6.7953	2.3169
6.7423	3.102
6.6901	3.5099
6.6387	2.8723
6.5881	1.2793
6.5382	0.7369
6.4892	0.7197
6.4408	0.6443
6.3931	0.7348
6.3462	0.8762
6.2999	0.866
6.2543	0.9166
6.2094	1.0529
6.1651	0.8874
6.1214	0.8337
6.0784	0.8414
6.0359	0.7621
5.994	0.6605
5.9527	0.7725
5.912	0.7817
5.8718	0.9489
5.8322	1.022
5.7931	1.2695
5.7545	1.4626
5.7165	1.6178
5.6789	1.756
5.6418	1.941
5.6052	1.8779
5.5691	2.036
5.5334	2.1128
5.4982	2.2862
5.4635	2.4537
5.4291	2.475
5.3952	2.8777
5.3618	3.0787
5.3287	3.3019
5.2961	3.3515
5.2638	3.4522
5.2319	3.4082
5.2004	3.4313
5.1693	3.3858
5.1386	3.5577
5.1082	3.8134
5.0782	3.7853
5.0485	3.8803
5.0192	4.0549
4.9902	4.038
4.9616	4.0467
4.9332	4.0627
4.9052	4.0894
4.8776	4.1993
4.8502	4.4216
4.8231	4.4734
4.7963	4.571
4.7699	4.5948
4.7437	4.4248
4.7178	4.4473
4.6922	4.3585
4.6668	4.3748
4.6418	4.2663
4.617	4.045
4.5924	4.049
4.5681	3.9297
4.5441	3.8417
4.5203	3.7924
4.4968	3.8484
4.4735	4.0742
4.4505	4.2217
4.4277	4.3025
4.4051	4.0864
4.3828	4.1211
4.3607	3.9341
4.3388	4.0064
4.3171	3.9715
4.2956	4.0428
4.2744	3.8957
4.2534	3.9205
4.2325	3.4793
4.2119	3.2956
4.1915	2.8334
4.1712	2.3752
4.1512	2.003
4.1313	1.8275
4.1117	1.6883
4.0922	1.5876
4.0729	1.6972
4.0538	1.6694
4.0349	1.7399
4.0161	1.7258
3.9976	1.7017
3.9792	1.9151
3.9609	1.9965
3.9428	1.9541
3.9249	2.0073
3.9072	1.7256
3.8896	1.7673
3.8722	1.6257
3.8549	1.5352
3.8378	1.4337
3.8208	1.6011
3.804	1.5055
3.7873	1.6394
3.7708	1.532
3.7544	1.7078
3.7382	1.6174
3.7221	1.5657
3.7061	1.7951
3.6903	1.6854
3.6746	1.668
3.659	1.5708
3.6436	1.6198
3.6283	1.4847
3.6131	1.4902
3.5981	1.5333
3.5832	1.4333
3.5684	1.4673
3.5537	1.3349
3.5391	1.484
3.5247	1.3299
3.5104	1.411
3.4962	1.4743
3.4821	1.2592
3.4681	1.296
3.4543	1.4222
3.4405	1.2902
3.4269	1.3761
3.4133	1.3029
3.3999	1.3004
3.3866	1.16
3.3733	1.4172
3.3602	1.2948
3.3472	1.4144
3.3343	1.2878
3.3215	1.1579
3.3088	1.2303
3.2961	1.3464
3.2836	1.3031
3.2712	1.1767
3.2588	1.1839
3.2466	1.2713
3.2345	1.2211
3.2224	1.2229
3.2104	1.102
3.1985	1.2129
3.1867	1.2517
3.175	1.1837
3.1634	1.292
3.1519	1.1673
3.1404	1.3388
3.129	1.46
3.1178	1.2628
3.1065	1.2568
3.0954	1.3738
3.0844	1.362
3.0734	1.2965
3.0625	1.1456
3.0517	1.2944
3.041	1.4896
3.0303	1.3735
3.0197	1.4947
3.0092	1.459
2.9987	1.7375
2.9884	1.5257
2.9781	1.2825
2.9678	1.0239
2.9577	0.7739
2.9476	0.9017
2.9376	0.4967
2.9276	0.6771
2.9177	0.6923
2.9079	0.7984
2.8982	0.5837
2.8885	0.6207
2.8789	0.8018
2.8693	0.7871
2.8598	0.6803
2.8504	0.7428
2.841	0.6389
2.8317	0.7194
2.8224	0.7438
2.8133	0.7245
2.8041	0.8895
2.7951	0.9471
2.786	0.9031
2.7771	1.1354
2.7682	0.9084
2.7594	0.9793
2.7506	1.4891
2.7418	2.1845
2.7332	3.166
2.7246	4.592
2.716	5.9427
2.7075	7.6477
2.699	9.14
2.6906	10.3725
2.6823	11.4669
2.674	12.3822
2.6657	13.7372
2.6575	14.2419
2.6494	15.1477
2.6413	15.968
2.6332	16.7885
2.6252	17.4902
2.6173	18.0238
2.6094	18.3227
2.6015	18.7904
2.5937	19.1722
2.5859	19.243
2.5782	19.1916
2.5706	19.2163
2.5629	18.8706
2.5554	18.6299
2.5478	17.9856
2.5403	17.5519
2.5329	17.346
2.5255	17.5301
2.5181	18.136
2.5108	19.2001
2.5035	20.2611
2.4963	21.1269
2.4891	22.193
2.482	22.9669
2.4749	23.9752
2.4678	24.7313
2.4608	25.2736
2.4538	25.7304
2.4468	25.7292
2.4399	26.141
2.4331	26.5954
2.4262	27.2568
2.4194	27.902
2.4127	28.7383
2.4059	29.6792
2.3993	30.7814
2.3926	31.7266
2.386	32.7225
2.3795	33.7524
2.3729	34.5083
2.3664	34.9957
2.36	35.6583
2.3535	35.8948
2.3471	36.3272
2.3408	36.4815
2.3345	36.7498
2.3282	36.67
2.3219	36.7448
2.3157	36.82
2.3095	36.7482
2.3034	36.819
2.2972	36.719
2.2911	36.9071
2.2851	36.6065
2.279	36.7891
2.2731	36.7069
2.2671	36.9404
2.2612	36.8293
2.2553	36.9015
2.2494	37.1359
2.2435	37.092
2.2377	37.0304
2.232	37.23
2.2262	37.3816
2.2205	37.6877
2.2148	38.078
2.2091	38.1901
2.2035	38.2776
2.1979	38.5142
2.1923	38.5069
2.1868	38.6512
2.1812	38.1482
2.1758	37.4478
2.1703	36.9948
2.1649	36.1742
2.1595	35.6472
2.1541	34.9958
2.1487	35.566
2.1434	36.2673
2.1381	37.2044
2.1328	37.704
2.1275	37.9143
2.1223	38.0251
2.1171	37.8926
2.112	37.7469
2.1068	37.6385
2.1017	37.4784
2.0966	37.3687
2.0915	37.2231
2.0865	37.1965
2.0814	37.5908
2.0764	37.8061
2.0715	37.578
2.0665	36.9381
2.0616	37.453
2.0567	36.9608
2.0518	36.7872
2.0469	36.6332
2.0421	36.2618
2.0373	36.0865
2.0325	35.8433
2.0277	35.9964
2.0229	35.2802
2.0182	35.8293
2.0135	35.1016
2.0088	34.7763
2.0042	34.8259
