Name: Graphite C
Type: Mineral
Class: Element
Subclass: None
Particle Size: Fine
Sample No.: E-1A
Owner: JPL
Wavelength Range: VSWIR
Origin: Mexico, Sonora, Morelos, San Jose Mine
Description: Particle size was 0-45um.Collected by Burminco Original ASTER Spectral Library name was jpl.beckman.mineral.element.none.fine.e01a.spectrum.txt
Measurement: Hemispherical reflectance
X Units: Wavelength (micrometers)
Y Units: Reflectance (percent)
wavelength	value
0.4	4.71
0.403	4.58
0.406	4.51
0.409	4.62
0.412	4.63
0.415	4.58
0.418	4.57
0.421	4.57
0.424	4.56
0.427	4.56
0.43	4.5
0.433	4.51
0.436	4.39
0.439	4.43
0.442	4.43
0.445	4.32
0.448	4.32
0.451	4.31
0.454	4.36
0.457	4.32
0.46	4.32
0.463	4.26
0.466	4.24
0.469	4.29
0.472	4.29
0.475	4.37
0.478	4.19
0.481	4.32
0.484	4.35
0.487	4.34
0.49	4.32
0.493	4.3
0.496	4.22
0.499	4.21
0.502	4.2
0.505	4.25
0.508	4.2
0.511	4.14
0.514	4.17
0.517	4.19
0.52	4.15
0.523	4.13
0.526	4.09
0.529	4.13
0.532	4.09
0.535	4.05
0.538	4.11
0.541	4.1
0.544	4.04
0.547	4.02
0.55	3.99
0.553	4.14
0.556	4.05
0.559	4.05
0.562	4.09
0.565	4.02
0.568	4.08
0.571	4.08
0.574	3.97
0.577	4.03
0.58	4.02
0.583	3.96
0.586	4.1
0.589	3.92
0.592	4.04
0.595	3.98
0.598	3.96
0.601	4
0.604	3.97
0.607	3.95
0.61	4.01
0.613	4
0.616	3.96
0.619	4.06
0.622	3.94
0.625	3.94
0.628	4.02
0.631	4
0.634	4.01
0.637	3.95
0.64	3.96
0.643	4.06
0.646	3.94
0.649	4
0.652	4.02
0.655	4.06
0.658	4.07
0.661	4.12
0.664	4.02
0.667	3.94
0.67	4.12
0.673	3.94
0.676	3.96
0.679	4.01
0.682	4.06
0.685	4.05
0.688	4.07
0.691	4.06
0.694	4
0.697	4.13
0.7	4.07
0.703	4.11
0.706	4
0.709	4.01
0.712	4
0.715	4.06
0.718	4.07
0.721	4
0.724	4.06
0.727	4.06
0.73	4.06
0.733	4.06
0.736	4.12
0.739	4.06
0.742	4.11
0.745	4.15
0.748	4.11
0.751	4.1
0.754	4.11
0.757	4.16
0.76	4.15
0.763	4.15
0.766	4.15
0.769	4.15
0.772	4.2
0.775	4.1
0.778	4.21
0.781	4.14
0.784	4.2
0.787	4.19
0.79	4.26
0.793	4.26
0.796	4.26
0.799	4.34
0.808	4.55
0.82	4.49
0.832	4.48
0.844	4.56
0.856	4.51
0.868	4.52
0.88	4.58
0.892	4.57
0.904	4.51
0.916	4.51
0.928	4.51
0.94	4.58
0.952	4.59
0.964	4.65
0.976	4.58
0.988	4.62
1	4.65
1.012	4.57
1.024	4.64
1.036	4.62
1.048	4.64
1.06	4.56
1.072	4.68
1.084	4.68
1.096	4.75
1.108	4.74
1.12	4.68
1.132	4.67
1.144	4.7
1.156	4.74
1.168	4.79
1.18	4.8
1.192	4.85
1.204	4.92
1.216	4.93
1.228	4.9
1.24	4.85
1.252	4.93
1.264	4.87
1.276	4.91
1.288	4.92
1.3	4.96
1.312	5
1.324	5.01
1.336	4.95
1.348	5.04
1.36	4.97
1.372	5.06
1.384	5.01
1.396	5.03
1.408	5.07
1.42	5.12
1.432	5.15
1.444	5.13
1.456	5.11
1.468	5.18
1.48	5.21
1.492	5.27
1.504	5.26
1.516	5.23
1.528	5.13
1.54	5.19
1.552	5.18
1.564	5.3
1.576	5.37
1.588	5.34
1.6	5.28
1.612	5.36
1.624	5.35
1.636	5.35
1.648	5.4
1.66	5.34
1.672	5.38
1.684	5.34
1.696	5.44
1.708	5.49
1.72	5.38
1.732	5.41
1.744	5.44
1.756	5.55
1.768	5.52
1.78	5.51
1.792	5.54
1.804	5.5
1.816	5.49
1.828	5.49
1.84	5.52
1.852	5.52
1.864	5.61
1.876	5.59
1.888	5.56
1.9	5.55
1.912	5.53
1.924	5.54
1.936	5.62
1.948	5.63
1.96	5.71
1.972	5.71
1.984	5.67
1.996	5.67
2.008	5.69
2.02	5.65
2.032	5.76
2.044	5.78
2.056	5.74
2.068	5.68
2.08	5.73
2.092	5.81
2.104	5.89
2.116	5.79
2.128	5.79
2.14	5.84
2.152	5.79
2.164	5.79
2.176	5.87
2.188	5.92
2.2	5.84
2.212	5.79
2.224	5.79
2.236	5.82
2.248	5.88
2.26	5.94
2.272	5.94
2.284	5.99
2.296	5.94
2.308	5.89
2.32	5.95
2.332	6.03
2.344	6.04
2.356	6.01
2.368	6.03
2.38	5.98
2.392	6.02
2.404	6.09
2.416	6.13
2.428	6.06
2.44	6.07
2.452	6.11
2.464	6.07
2.476	6.11
2.488	6.16
2.5	6.22
