Name: Olivine (Fo88) (Fe+2,Mg)2SiO4
Type: Mineral
Class: Silicate
Subclass: Nesosilicate
Particle Size: Fine
Sample No.: olivine_9
Owner: JHU
Wavelength Range: TIR
Origin: South Point, Hawaii via Trude King #GSB
Description: Samples of olivine from an olivine sand beach were optically examined using a petrographic microscope prior to spectral measurements to insure purity of the olivine.  The sample was >98% pure olivine.  It was hand ground and wet sieved into <60 micrometers size range.  Sample preparation was by Trude King, USGS, Denver. Particle size was less than 2 Micrometers. (Isolated tetrahedra); (Olivine Group) Original ASTER Spectral Library name was jhu.nicolet.mineral.silicate.nesosilicate.powder.olivin9.spectrum.txt
Measurement: Transmittance
X Units: Wavelength (micrometers)
Y Units: Transmission (percent)
wavelength	value
25.0442	10.3203
24.3388	3.625
23.6719	3.4883
23.0407	8.0781
22.4422	17.3378
21.8741	20.8769
21.334	22.3378
20.8199	26.9648
20.33	16.5429
19.8627	6.3291
19.4163	6.8066
18.9896	8.1074
18.5812	10.8838
18.19	16.8877
17.815	34.8398
17.4551	47.7616
17.1094	48.7587
16.7772	28.5956
16.4576	19.5488
16.15	29.2275
15.8537	48.1151
15.568	60.5301
15.2925	67.7205
15.0265	71.6131
14.7697	74.6092
14.5214	76.535
14.2814	77.9822
14.0492	78.9163
13.8244	79.285
13.6067	78.9432
13.3957	77.4866
13.1912	75.6092
12.9929	73.119
12.8004	68.8397
12.6135	62.9334
12.432	54.9906
12.2557	44.4867
12.0843	29.3808
11.9176	15.6591
11.7555	18.9433
11.5977	9.4638
11.444	2.727
11.2944	0.8643
11.1487	1.5322
11.0067	2.4028
10.8682	3.4438
10.7332	6.5683
10.6015	9.5283
10.473	7.9878
10.3476	12.8081
10.2251	5.3203
10.1056	4.5654
9.9887	5.8618
9.8746	10.459
9.763	18.6762
9.6539	28.5663
9.5472	37.6269
9.4429	45.1469
9.3408	51.2416
9.2409	55.8192
9.1431	59.513
9.0474	63.2567
8.9536	66.4437
8.8618	69.2112
8.7718	71.657
8.6837	73.7872
8.5973	75.7498
8.5126	77.5994
8.4295	79.3045
8.3481	81.0774
8.2682	82.6648
8.1898	83.918
8.1129	85.2136
8.0374	86.2324
7.9634	87.1931
7.8906	87.9534
7.8192	88.5608
7.7491	89.1797
7.6802	89.6602
7.6126	90.0593
7.5461	90.4597
7.4807	90.833
7.4165	91.24
7.3534	91.6709
7.2914	91.9963
7.2303	92.2097
7.1703	92.5852
7.1113	92.6768
7.0533	92.7793
6.9962	92.9275
6.94	93.0759
6.8847	93.2966
6.8302	93.5615
6.7767	93.8259
6.7239	94.1091
6.672	94.4502
6.6209	94.5947
6.5705	94.9031
6.5209	94.7773
6.4721	94.8142
6.424	94.74
6.3766	94.4251
6.3299	94.0596
6.2838	93.6162
6.2385	93.2219
6.1937	92.7351
6.1496	92.2283
6.1062	92.4766
6.0633	92.4939
6.0211	91.9873
5.9794	92.492
5.9383	93.7976
5.8978	94.6113
5.8578	94.9143
5.8184	95.3386
5.7794	95.3425
5.741	95.3708
5.7031	95.1033
5.6657	94.6091
5.6288	94.3362
5.5924	94.6729
5.5564	95.1292
5.5209	95.2678
5.4859	95.2566
5.4513	95.2737
5.4171	95.418
5.3833	95.469
5.35	95.6208
5.3171	95.6355
5.2846	95.6335
5.2524	95.6094
5.2207	95.5703
5.1893	95.675
5.1584	95.7126
5.1277	95.7751
5.0975	95.7839
5.0676	95.7158
5.038	95.6992
5.0088	95.6316
4.98	95.5247
4.9514	95.446
4.9232	95.5273
4.8953	95.5859
4.8678	95.6833
4.8405	95.7187
4.8135	95.7175
4.7868	95.6658
4.7605	95.6208
4.7344	95.5413
4.7086	95.4568
4.6831	95.3796
4.6578	95.3196
4.6328	95.2371
4.6081	95.1306
4.5837	95.0876
4.5595	95.0002
4.5356	94.8699
4.5119	94.7874
4.4884	94.781
4.4652	94.6301
4.4423	94.5652
4.4196	94.5061
4.3971	94.4197
4.3748	94.3381
4.3528	94.2512
4.331	94.1838
4.3094	94.0261
4.288	93.9094
4.2668	93.8767
4.2458	93.7673
4.2251	93.6326
4.2045	93.6057
4.1841	93.5149
4.164	93.4114
4.144	93.2673
4.1242	93.2239
4.1046	93.0999
4.0852	93.0393
4.066	92.9163
4.047	92.8357
4.0281	92.717
4.0094	92.6589
3.9909	92.5115
3.9725	92.3777
3.9544	92.3147
3.9363	92.158
3.9185	92.0486
3.9008	91.9441
3.8833	91.8049
3.8659	91.6882
3.8487	91.5496
3.8316	91.4026
3.8147	91.2556
3.7979	91.1316
3.7813	91.0418
3.7648	90.8777
3.7485	90.7478
3.7323	90.6155
3.7162	90.5042
3.7003	90.3494
3.6845	90.1233
3.6689	89.9983
3.6534	89.907
3.638	89.7185
3.6227	89.5921
3.6076	89.4129
3.5926	89.2752
3.5777	89.1179
3.563	88.971
3.5484	88.7932
3.5338	88.572
3.5195	88.3621
3.5052	88.1297
3.491	88.0095
3.477	87.9378
3.463	87.7058
3.4492	87.5178
3.4355	87.2835
3.4219	87.0398
3.4084	86.8718
3.395	86.8406
3.3817	86.7146
3.3685	86.6448
3.3554	86.5037
3.3425	86.3894
3.3296	86.1795
3.3168	85.9417
3.3041	85.8089
3.2915	85.6702
3.279	85.4729
3.2666	85.2556
3.2543	85.0056
3.2421	84.8616
3.23	84.6853
3.218	84.4378
3.206	84.2224
3.1942	83.9002
3.1824	83.6346
3.1707	83.3787
3.1591	83.117
3.1476	82.8518
3.1362	82.4436
3.1249	82.1697
3.1136	81.8831
3.1024	81.7039
3.0913	81.3201
3.0803	81.1043
3.0694	80.8221
3.0585	80.5369
3.0477	80.2918
3.037	80.0076
3.0264	79.5574
3.0158	79.2322
3.0053	78.7967
2.9949	78.4705
2.9845	78.1307
2.9743	77.8123
2.9641	77.3689
2.9539	77.0145
2.9439	76.8611
2.9339	76.5984
2.9239	76.3963
2.9141	76.325
2.9043	76.3846
2.8946	76.4412
2.8849	76.5115
2.8753	76.6883
2.8658	76.8006
2.8563	77.0916
2.8469	77.2312
2.8375	77.5164
2.8282	77.7439
2.819	78.0252
2.8098	78.2303
2.8007	78.4656
2.7917	78.7303
2.7827	79.1678
2.7738	79.3992
2.7649	79.7342
2.7561	80.1521
2.7473	80.4217
2.7386	80.7771
2.7299	80.8006
2.7213	81.0193
2.7128	80.9295
2.7043	80.9021
2.6959	81.0271
2.6875	80.9295
2.6791	80.9881
2.6709	81.1131
2.6626	80.5291
2.6545	80.4969
2.6463	80.3211
2.6382	80.2732
2.6302	80.325
2.6222	79.9969
2.6143	79.8992
2.6064	79.7898
2.5986	79.5701
2.5908	79.5789
2.583	79.4773
2.5753	79.2898
2.5677	79.1209
2.5601	79.0213
2.5525	78.8006
2.545	78.6326
2.5375	78.6268
2.5301	78.3982
2.5227	78.3885
2.5154	78.283
2.5081	78.1521
2.5008	78.0916
2.4936	77.9725
2.4864	77.785
2.4793	77.7127
2.4722	77.4217
2.4651	77.4666
2.4581	77.3943
2.4511	77.2225
2.4442	77.0408
2.4373	76.9451
2.4305	76.7186
2.4236	76.7498
2.4169	76.5975
2.4101	76.4705
2.4034	76.2283
2.3967	76.1834
2.3901	76.0643
2.3835	75.992
2.377	75.8592
2.3704	75.7498
2.364	75.6522
2.3575	75.3689
2.3511	75.324
2.3447	75.2674
2.3384	74.91
2.3321	74.8904
2.3258	74.9022
2.3195	74.7772
2.3133	74.5701
2.3071	74.4393
2.301	74.4451
2.2949	74.2596
2.2888	74.0428
2.2828	73.8377
2.2767	74.0955
2.2708	73.7107
2.2648	73.6404
2.2589	73.5565
2.253	73.4842
2.2471	73.3455
2.2413	73.2361
2.2355	73.3201
2.2297	73.1111
2.224	72.9236
2.2183	72.9608
2.2126	72.7283
2.207	72.3123
2.2013	72.4373
2.1957	72.3983
2.1902	72.1111
2.1846	72.2967
2.1791	71.992
2.1736	71.8787
2.1682	71.8709
2.1628	71.6912
2.1574	71.7264
2.152	71.3084
2.1466	71.1795
2.1413	71.0858
2.136	71.16
2.1308	71.1326
2.1255	70.9334
2.1203	70.9529
2.1151	71.0076
2.11	70.5506
2.1048	70.4256
2.0997	70.3201
2.0946	70.3514
2.0895	70.2342
2.0845	70.242
2.0795	69.9803
