Name: Fluorite CaF_2
Type: Mineral
Class: Halide
Subclass: None
Particle Size: Coarse
Sample No.: H-2A
Owner: JPL
Wavelength Range: TIR
Origin: USA, Illinois, Hardin County, Rosiclare
Description: Purple fluorite.Particle size was 125-500um.Collected by Ward's Original ASTER Spectral Library name was jpl.nicolet.mineral.halide.none.coarse.h02a.spectrum.txt
Measurement: Hemispherical reflectance
X Units: Wavelength (micrometers)
Y Units: Reflectance (percent)
wavelength	value
15.3853	0.2941
15.1161	0.0568
14.8563	0.3326
14.6052	0.3933
14.3624	0.5308
14.1276	0.5813
13.9004	0.5829
13.6803	0.8557
13.4671	1.2251
13.2604	1.752
13.06	2.3144
12.8656	3.3179
12.6769	4.2276
12.4936	5.5884
12.3155	7.4609
12.1425	9.5615
11.9742	11.6158
11.8106	13.5766
11.6513	15.5592
11.4963	17.6444
11.3454	20.0033
11.1983	21.9741
11.0551	24.0758
10.9154	26.4644
10.7793	28.8039
10.6465	31.0448
10.5169	33.5948
10.3904	35.6159
10.267	37.6768
10.1464	39.5132
10.0287	41.3565
9.9136	42.8721
9.8012	44.5134
9.6913	45.8631
9.5838	47.4239
9.4787	48.5355
9.3758	49.8623
9.2752	51.1734
9.1767	52.4727
9.0803	54.0217
8.9858	55.1998
8.8934	56.259
8.8028	57.4654
8.714	58.5834
8.627	60.4813
8.5417	62.4108
8.4581	64.0703
8.3761	65.2377
8.2957	65.9626
8.2169	66.5287
8.1395	66.9886
8.0635	67.5602
7.989	68.1682
7.9158	68.9818
7.8439	69.9532
7.7734	70.3947
7.7041	70.5523
7.636	70.9278
7.5691	71.4321
7.5034	71.826
7.4388	71.5853
7.3753	71.4027
7.3129	71.6046
7.2515	70.9422
7.1912	70.4121
7.1318	69.6579
7.0734	69.2761
7.016	69.3774
6.9595	71.1964
6.9039	69.919
6.8492	70.4279
6.7953	71.9382
6.7423	70.7791
6.6901	71.4002
6.6387	74.662
6.5881	72.0025
6.5382	70.607
6.4892	73.3802
6.4408	67.0924
6.3931	65.1647
6.3462	66.4717
6.2999	63.6171
6.2543	63.0821
6.2094	63.1015
6.1651	63.5189
6.1214	64.8638
6.0784	66.0599
6.0359	65.9733
5.994	68.2602
5.9527	69.534
5.912	71.3902
5.8718	74.3994
5.8322	76.1431
5.7931	75.9629
5.7545	77.8403
5.7165	79.3899
5.6789	79.5997
5.6418	81.4276
5.6052	79.6451
5.5691	79.5805
5.5334	79.9362
5.4982	80.4306
5.4635	81.7295
5.4291	81.4608
5.3952	81.0014
5.3618	81.1507
5.3287	81.0371
5.2961	81.3828
5.2638	81.1245
5.2319	81.3151
5.2004	81.5531
5.1693	81.2295
5.1386	81.2037
5.1082	80.9045
5.0782	80.9074
5.0485	80.7212
5.0192	80.639
4.9902	80.3266
4.9616	80.3177
4.9332	80.1296
4.9052	80.0416
4.8776	79.9491
4.8502	79.8667
4.8231	79.8409
4.7963	79.8104
4.7699	79.7819
4.7437	79.6715
4.7178	79.6214
4.6922	79.3405
4.6668	79.4518
4.6418	79.6634
4.617	79.9619
4.5924	80.1422
4.5681	80.3299
4.5441	80.4247
4.5203	80.6309
4.4968	80.6743
4.4735	80.8677
4.4505	81.0572
4.4277	81.2081
4.4051	81.3351
4.3828	81.389
4.3607	81.6348
4.3388	81.6625
4.3171	81.6636
4.2956	81.7792
4.2744	81.5489
4.2534	81.727
4.2325	81.9791
4.2119	82.058
4.1915	82.103
4.1712	82.2274
4.1512	82.2411
4.1313	82.2928
4.1117	82.2591
4.0922	82.1919
4.0729	82.0916
4.0538	81.9112
4.0349	81.6449
4.0161	81.4341
3.9976	81.3421
3.9792	81.3424
3.9609	81.2893
3.9428	81.4595
3.9249	81.6403
3.9072	81.6309
3.8896	81.6452
3.8722	81.5849
3.8549	81.5937
3.8378	81.6014
3.8208	81.8122
3.804	82.0372
3.7873	82.3938
3.7708	82.4733
3.7544	82.3738
3.7382	82.4115
3.7221	82.1906
3.7061	82.1166
3.6903	82.0526
3.6746	81.9139
3.659	81.7759
3.6436	81.7065
3.6283	81.508
3.6131	81.3969
3.5981	81.1696
3.5832	80.8203
3.5684	80.4505
3.5537	80.2435
3.5391	79.7445
3.5247	79.015
3.5104	77.4044
3.4962	76.9593
3.4821	77.1473
3.4681	77.0797
3.4543	76.7547
3.4405	76.0079
3.4269	74.3184
3.4133	73.7344
3.3999	74.3546
3.3866	74.5899
3.3733	73.8711
3.3602	74.3688
3.3472	74.2417
3.3343	74.3884
3.3215	74.0702
3.3088	73.7349
3.2961	73.0645
3.2836	72.4517
3.2712	71.9448
3.2588	71.2291
3.2466	70.477
3.2345	69.8138
3.2224	69.2679
3.2104	68.31
3.1985	67.7268
3.1867	66.912
3.175	66.1322
3.1634	65.3907
3.1519	64.6161
3.1404	64.1033
3.129	63.4036
3.1178	62.801
3.1065	62.3041
3.0954	61.943
3.0844	61.613
3.0734	61.2499
3.0625	61.1077
3.0517	60.7415
3.041	60.5592
3.0303	60.2195
3.0197	59.9926
3.0092	59.7011
2.9987	59.4017
2.9884	59.3502
2.9781	59.0413
2.9678	59.0548
2.9577	58.7188
2.9476	58.7998
2.9376	58.7571
2.9276	58.9524
2.9177	59.2074
2.9079	59.3037
2.8982	59.5085
2.8885	59.9091
2.8789	60.0918
2.8693	60.5964
2.8598	61.099
2.8504	61.6427
2.841	62.0242
2.8317	62.6321
2.8224	63.3045
2.8133	64.0005
2.8041	65.4563
2.7951	65.3306
2.786	66.8303
2.7771	67.1796
2.7682	68.6168
2.7594	68.8185
2.7506	70.1282
2.7418	73.3831
2.7332	74.048
2.7246	78.0317
2.716	77.6324
2.7075	79.3501
2.699	80.2
2.6906	81.3365
2.6823	82.1565
2.674	82.7227
2.6657	85.9187
2.6575	82.6636
2.6494	82.6064
2.6413	82.9977
2.6332	83.6088
2.6252	83.6627
2.6173	85.491
2.6094	84.1903
2.6015	84.1156
2.5937	86.5219
2.5859	84.2249
2.5782	83.7701
2.5706	84.0412
2.5629	84.8581
2.5554	83.2919
2.5478	83.5675
2.5403	83.1882
2.5329	83.3524
2.5255	83.3102
2.5181	83.2868
2.5108	83.3902
2.5035	83.3577
2.4963	83.3165
2.4891	83.4958
2.482	83.6233
2.4749	83.5873
2.4678	83.5934
2.4608	83.7184
2.4538	83.8247
2.4468	83.7171
2.4399	83.9781
2.4331	83.9726
2.4262	83.9108
2.4194	84.088
2.4127	84.0779
2.4059	84.1508
2.3993	84.173
2.3926	84.1411
2.386	84.2795
2.3795	84.3284
2.3729	84.2298
2.3664	84.3293
2.36	84.2956
2.3535	84.4788
2.3471	84.2257
2.3408	84.4991
2.3345	84.4328
2.3282	84.3842
2.3219	84.5111
2.3157	84.6817
2.3095	84.4794
2.3034	84.2746
2.2972	84.5674
2.2911	84.5523
2.2851	84.5944
2.279	84.5361
2.2731	84.6615
2.2671	84.7143
2.2612	84.6679
2.2553	84.7721
2.2494	84.7994
2.2435	84.8294
2.2377	84.6108
2.232	84.6819
2.2262	84.7262
2.2205	84.8105
2.2148	84.792
2.2091	84.5405
2.2035	84.7802
2.1979	84.6166
2.1923	84.8609
2.1868	84.8647
2.1812	84.6939
2.1758	84.7959
2.1703	84.729
2.1649	84.8004
2.1595	84.7974
2.1541	84.7753
2.1487	84.6829
2.1434	84.6182
2.1381	84.6297
2.1328	84.6499
2.1275	84.6468
2.1223	84.7578
2.1171	84.7966
2.112	84.7807
2.1068	84.8037
2.1017	84.8415
2.0966	84.437
2.0915	84.7604
2.0865	84.813
2.0814	85.0171
2.0764	84.5444
2.0715	84.5941
2.0665	84.9002
2.0616	84.6497
2.0567	84.4893
2.0518	84.6
2.0469	84.3121
2.0421	84.5473
2.0373	84.5169
2.0325	84.3238
2.0277	84.5671
2.0229	84.5421
2.0182	84.1613
2.0135	84.2527
2.0088	84.0939
2.0042	84.3364
