Name: Natrolite Na_2Al_2Si_3O_10.2H_2O
Type: Mineral
Class: Silicate
Subclass: Tectosilicate
Particle Size: Fine
Sample No.: TS-8A
Owner: JPL
Wavelength Range: TIR
Origin: India, Maharashtra, Poona
Description: Particle size was 0-45um.Collected by Ward's Original ASTER Spectral Library name was jpl.nicolet.mineral.silicate.tectosilicate.fine.ts08a.spectrum.txt
Measurement: Hemispherical reflectance
X Units: Wavelength (micrometers)
Y Units: Reflectance (percent)
wavelength	value
15.3853	1.7942
15.1161	1.7617
14.8563	1.4106
14.6052	1.4215
14.3624	1.0876
14.1276	0.8268
13.9004	0.8703
13.6803	1.3489
13.4671	3.4912
13.2604	5.5168
13.06	6.2329
12.8656	8.145
12.6769	9.6447
12.4936	10.8159
12.3155	11.8606
12.1425	12.8031
11.9742	13.3952
11.8106	13.9867
11.6513	13.7633
11.4963	13.1295
11.3454	12.9925
11.1983	12.5709
11.0551	11.3103
10.9154	9.7247
10.7793	8.2665
10.6465	6.6186
10.5169	6.3466
10.3904	8.3758
10.267	8.4338
10.1464	10.3486
10.0287	10.4314
9.9136	10.1714
9.8012	6.8081
9.6913	1.2619
9.5838	5.1924
9.4787	7.094
9.3758	6.4795
9.2752	4.9822
9.1767	7.612
9.0803	7.4206
8.9858	8.0466
8.8934	7.612
8.8028	4.9616
8.714	2.8791
8.627	1.7226
8.5417	0.7425
8.4581	0.4698
8.3761	0.1446
8.2957	0.1864
8.2169	0.3439
8.1395	0.3094
8.0635	0.3864
7.989	0.5586
7.9158	1.0088
7.8439	1.1605
7.7734	1.505
7.7041	1.8145
7.636	2.2313
7.5691	2.6704
7.5034	3.157
7.4388	3.7089
7.3753	4.1231
7.3129	4.6272
7.2515	5.1491
7.1912	5.6639
7.1318	6.1048
7.0734	6.7287
7.016	7.513
6.9595	8.1051
6.9039	8.2137
6.8492	8.6657
6.7953	9.2344
6.7423	9.7798
6.6901	10.3301
6.6387	11.2751
6.5881	11.5775
6.5382	11.7668
6.4892	12.3317
6.4408	11.6192
6.3931	10.9913
6.3462	10.1752
6.2999	8.9067
6.2543	7.8396
6.2094	6.0897
6.1651	3.5444
6.1214	2.1785
6.0784	4.0564
6.0359	7.5576
5.994	10.4072
5.9527	12.1871
5.912	12.7673
5.8718	13.4279
5.8322	13.717
5.7931	14.165
5.7545	15.2974
5.7165	16.4342
5.6789	17.5617
5.6418	18.9187
5.6052	19.6058
5.5691	20.796
5.5334	20.9727
5.4982	21.0935
5.4635	22.0734
5.4291	23.9767
5.3952	26.2135
5.3618	28.0885
5.3287	29.6923
5.2961	32.3448
5.2638	34.1751
5.2319	34.2576
5.2004	33.0319
5.1693	33.3016
5.1386	32.4971
5.1082	30.7216
5.0782	29.2628
5.0485	27.5967
5.0192	28.664
4.9902	31.6004
4.9616	32.8006
4.9332	32.7166
4.9052	30.9988
4.8776	29.5045
4.8502	28.4902
4.8231	27.154
4.7963	25.2415
4.7699	22.1561
4.7437	17.7165
4.7178	12.8356
4.6922	9.3422
4.6668	8.714
4.6418	11.1514
4.617	16.5147
4.5924	22.1095
4.5681	25.4629
4.5441	27.4306
4.5203	29.4785
4.4968	31.8486
4.4735	35.0419
4.4505	38.3562
4.4277	41.1456
4.4051	43.0521
4.3828	43.9038
4.3607	44.7529
4.3388	45.4659
4.3171	45.4258
4.2956	45.3513
4.2744	46.1119
4.2534	48.4435
4.2325	48.0185
4.2119	50.5438
4.1915	52.2213
4.1712	53.4681
4.1512	55.3145
4.1313	57.1717
4.1117	58.1909
4.0922	58.8616
4.0729	59.0657
4.0538	58.6005
4.0349	59.2542
4.0161	60.0445
3.9976	60.4061
3.9792	60.6552
3.9609	60.6895
3.9428	60.8038
3.9249	60.8079
3.9072	60.57
3.8896	60.1453
3.8722	59.6137
3.8549	58.7822
3.8378	57.4066
3.8208	57.7744
3.804	57.3897
3.7873	57.1227
3.7708	56.7872
3.7544	56.1635
3.7382	55.4336
3.7221	54.3407
3.7061	53.3169
3.6903	52.254
3.6746	51.5985
3.659	51.2617
3.6436	51.1311
3.6283	51.1937
3.6131	51.0329
3.5981	50.3127
3.5832	49.2612
3.5684	47.9763
3.5537	46.6658
3.5391	45.5083
3.5247	44.2431
3.5104	43.1554
3.4962	41.6589
3.4821	40.4127
3.4681	39.0678
3.4543	37.6338
3.4405	36.2757
3.4269	34.7382
3.4133	33.1908
3.3999	31.5077
3.3866	29.7565
3.3733	28.0131
3.3602	25.8376
3.3472	23.7437
3.3343	21.636
3.3215	19.5856
3.3088	17.8866
3.2961	16.6475
3.2836	15.6648
3.2712	14.6115
3.2588	13.6109
3.2466	12.8325
3.2345	12.2398
3.2224	11.502
3.2104	10.3012
3.1985	9.1098
3.1867	7.4445
3.175	5.8948
3.1634	4.6612
3.1519	3.8948
3.1404	3.694
3.129	4.0138
3.1178	3.7331
3.1065	3.9103
3.0954	4.0224
3.0844	4.3136
3.0734	4.3624
3.0625	4.3833
3.0517	3.6679
3.041	3.1299
3.0303	2.3463
3.0197	1.643
3.0092	1.5788
2.9987	1.3698
2.9884	1.6167
2.9781	1.9475
2.9678	2.4262
2.9577	2.4239
2.9476	2.5829
2.9376	2.7275
2.9276	2.8935
2.9177	3.3398
2.9079	3.519
2.8982	3.263
2.8885	3.2993
2.8789	3.2559
2.8693	3.7304
2.8598	3.8102
2.8504	3.1478
2.841	2.0488
2.8317	1.423
2.8224	0.711
2.8133	1.0497
2.8041	1.3285
2.7951	2.1342
2.786	3.4432
2.7771	4.4618
2.7682	5.8289
2.7594	7.1942
2.7506	9.3835
2.7418	12.5448
2.7332	16.7441
2.7246	24.112
2.716	31.6543
2.7075	38.5649
2.699	42.9864
2.6906	45.2443
2.6823	46.0673
2.674	46.4598
2.6657	48.6393
2.6575	49.4294
2.6494	49.9585
2.6413	50.4125
2.6332	51.9399
2.6252	53.6518
2.6173	55.2025
2.6094	54.7536
2.6015	53.0725
2.5937	50.9355
2.5859	48.7789
2.5782	51.1568
2.5706	54.6979
2.5629	58.1092
2.5554	60.5033
2.5478	62.6495
2.5403	63.8524
2.5329	64.3424
2.5255	64.8585
2.5181	65.193
2.5108	65.5198
2.5035	65.8812
2.4963	65.5468
2.4891	64.3038
2.482	62.1909
2.4749	59.4046
2.4678	56.6299
2.4608	56.3605
2.4538	57.0356
2.4468	56.3789
2.4399	53.9944
2.4331	51.7107
2.4262	52.3278
2.4194	55.2937
2.4127	59.0055
2.4059	62.9866
2.3993	65.5253
2.3926	67.1016
2.386	67.6771
2.3795	68.3997
2.3729	69.1387
2.3664	70.2721
2.36	71.044
2.3535	71.8384
2.3471	72.2596
2.3408	73.1605
2.3345	74.0528
2.3282	74.5074
2.3219	75.1771
2.3157	75.9103
2.3095	76.3428
2.3034	76.5863
2.2972	76.6721
2.2911	76.3241
2.2851	75.7764
2.279	75.6546
2.2731	75.4829
2.2671	75.844
2.2612	76.2651
2.2553	76.6023
2.2494	76.5977
2.2435	76.3078
2.2377	75.8174
2.232	75.5555
2.2262	74.6978
2.2205	73.7772
2.2148	72.367
2.2091	71.0511
2.2035	69.6313
2.1979	68.9834
2.1923	69.4793
2.1868	70.7454
2.1812	71.4964
2.1758	72.205
2.1703	72.1631
2.1649	72.1425
2.1595	72.58
2.1541	72.7102
2.1487	73.0254
2.1434	73.1853
2.1381	73.3155
2.1328	73.305
2.1275	72.9896
2.1223	72.4884
2.1171	72.0835
2.112	71.2982
2.1068	70.1449
2.1017	68.8576
2.0966	67.6363
2.0915	66.3533
2.0865	65.5614
2.0814	65.5946
2.0764	66.0312
2.0715	66.1028
2.0665	66.9457
2.0616	66.9073
2.0567	66.5795
2.0518	66.3386
2.0469	65.6242
2.0421	64.6761
2.0373	63.0555
2.0325	61.4096
2.0277	58.9756
2.0229	57.4375
2.0182	56.0977
2.0135	55.5389
2.0088	55.0997
2.0042	55.035
