Name: Witherite BaCO_3
Type: Mineral
Class: Carbonate
Subclass: None
Particle Size: Coarse
Sample No.: C-2A
Owner: JPL
Wavelength Range: VSWIR
Origin: United Kingdom, England
Description: Particle size was 125-500um.Collected by Grieger's Inc. Original ASTER Spectral Library name was jpl.beckman.mineral.carbonate.none.coarse.c02.spectrum.txt
Measurement: Hemispherical reflectance
X Units: Wavelength (micrometers)
Y Units: Reflectance (percent)
wavelength	value
0.4	58.91
0.403	59.83
0.406	60.57
0.409	60.74
0.412	61.26
0.415	61.6
0.418	62.29
0.421	62.46
0.424	63.09
0.427	63.09
0.43	63.37
0.433	63.72
0.436	64.12
0.439	64.29
0.442	64.52
0.445	65.03
0.448	65.03
0.451	65.61
0.454	65.61
0.457	66.36
0.46	66.31
0.463	66.65
0.466	67.23
0.469	67.29
0.472	67.63
0.475	67.87
0.478	68.05
0.481	68.39
0.484	68.52
0.487	68.91
0.49	68.92
0.493	69.32
0.496	69.32
0.499	69.79
0.502	69.85
0.505	70.31
0.508	70.31
0.511	70.71
0.514	70.94
0.517	71.11
0.52	71.34
0.523	71.34
0.526	71.68
0.529	71.57
0.532	71.97
0.535	71.74
0.538	72.14
0.541	72.03
0.544	72.37
0.547	72.54
0.55	72.77
0.553	72.94
0.556	72.94
0.559	73.06
0.562	73.35
0.565	73.46
0.568	73.29
0.571	73.35
0.574	73.4
0.577	73.23
0.58	73.58
0.583	73.4
0.586	73.69
0.589	73.74
0.592	74.03
0.595	74.03
0.598	74.03
0.601	74.2
0.604	74.08
0.607	74.49
0.61	74.26
0.613	74.54
0.616	74.26
0.619	74.43
0.622	74.43
0.625	74.66
0.628	74.6
0.631	74.49
0.634	74.83
0.637	74.72
0.64	75.01
0.643	74.83
0.646	75.24
0.649	75.18
0.652	75.35
0.655	75.29
0.658	75.29
0.661	75.63
0.664	75.57
0.667	75.86
0.67	75.8
0.673	75.98
0.676	75.98
0.679	76.09
0.682	76.21
0.685	76.09
0.688	76.49
0.691	76.26
0.694	76.67
0.697	76.38
0.7	76.38
0.703	76.21
0.706	76.72
0.709	76.61
0.712	76.95
0.715	76.84
0.718	77.17
0.721	76.95
0.724	77.06
0.727	77.29
0.73	77.17
0.733	77.29
0.736	77.23
0.739	77.46
0.742	77.12
0.745	77.58
0.748	77.23
0.751	77.58
0.754	77.35
0.757	77.58
0.76	77.58
0.763	77.75
0.766	77.75
0.769	77.69
0.772	77.69
0.775	77.75
0.778	77.81
0.781	77.81
0.784	77.98
0.787	77.87
0.79	78.04
0.793	77.75
0.796	78.21
0.799	78.78
0.808	78.72
0.82	78.89
0.832	78.95
0.844	79.07
0.856	79.18
0.868	79.18
0.88	79.3
0.892	79.24
0.904	79.3
0.916	79.47
0.928	79.53
0.94	79.53
0.952	79.58
0.964	79.58
0.976	79.58
0.988	79.81
1	79.7
1.012	79.7
1.024	79.76
1.036	79.93
1.048	79.81
1.06	79.81
1.072	79.81
1.084	79.76
1.096	79.93
1.108	79.87
1.12	80.04
1.132	79.93
1.144	79.99
1.156	79.98
1.168	80
1.18	80.11
1.192	80.03
1.204	80.08
1.216	80.14
1.228	79.91
1.24	79.96
1.252	80.02
1.264	80.17
1.276	80.2
1.288	80.07
1.3	80.05
1.312	80.15
1.324	80.12
1.336	80.23
1.348	80.08
1.36	80.08
1.372	80.14
1.384	79.97
1.396	79.8
1.408	79.58
1.42	79.66
1.432	79.62
1.444	79.7
1.456	79.83
1.468	79.88
1.48	79.99
1.492	79.83
1.504	79.99
1.516	80.22
1.528	80.16
1.54	80.39
1.552	80.28
1.564	80.16
1.576	80.22
1.588	80.11
1.6	80.11
1.612	80.27
1.624	80.35
1.636	80.39
1.648	80.31
1.66	80.24
1.672	80.17
1.684	80.03
1.696	80.36
1.708	80.23
1.72	80.12
1.732	79.89
1.744	79.61
1.756	79.55
1.768	79.49
1.78	79.26
1.792	79.61
1.804	80.1
1.816	80.18
1.828	80
1.84	79.69
1.852	78.94
1.864	77.95
1.876	77.09
1.888	75.64
1.9	73.47
1.912	72.94
1.924	74.63
1.936	76.31
1.948	76.8
1.96	77.15
1.972	77.32
1.984	77.04
1.996	76.75
2.008	76.16
2.02	74.81
2.032	73.18
2.044	74.29
2.056	77.3
2.068	78.88
2.08	79.45
2.092	79.68
2.104	79.92
2.116	79.88
2.128	79.32
2.14	78.68
2.152	78.01
2.164	77.35
2.176	75.91
2.188	73.43
2.2	72.09
2.212	73.51
2.224	75.09
2.236	74.88
2.248	73.5
2.26	71.62
2.272	69.69
2.284	67.02
2.296	63.87
2.308	60.36
2.32	57.66
2.332	55.4
2.344	53.34
2.356	49.77
2.368	44.89
2.38	43.49
2.392	48.04
2.404	55.73
2.416	62.1
2.428	65.45
2.44	66.5
2.452	66.31
2.464	65.18
2.476	63.07
2.488	59.62
2.5	57.4
