Name: Spessartine Mn3Al2 (SiO4)3
Type: Mineral
Class: Silicate
Subclass: Nesosilicate
Particle Size: Coarse
Sample No.: spessart_2
Owner: JHU
Wavelength Range: TIR
Origin: Rutherford #2 mine, Amelia, Amelia Co., Virginia, USA via theSmithsonian (sample no. NMNH 114143)
Description: The sample consisted of a group of 3 mm and smaller diameter reddish crystals.  A few clear crystals adhering to the grains were picked off and microscopic examination showed the remaining sample to be quite pure. Particle size was 75 - 250  Micrometers.(Framework silicates); GarnetGroup Original ASTER Spectral Library name was jhu.nicolet.mineral.silicate.nesosilicate.coarse.spessa2.spectrum.txt
Measurement: Bidirectional reflectance
X Units: Wavelength (micrometers)
Y Units: Reflectance (percent)
wavelength	value
25.0442	4.0198
24.3388	5.0049
23.6719	6.2036
23.0407	8.8559
22.4422	13.2812
21.8741	9.9243
21.334	13.8188
20.8199	15.0122
20.33	14.6965
19.8627	13.7639
19.4163	9.675
18.9896	7.5559
18.5812	2.2991
18.19	3.227
17.815	7.7641
17.4551	10.0029
17.1094	8.8445
16.7772	4.7949
16.4576	0.8833
16.15	1.0339
15.8537	2.0154
15.568	0.7446
15.2925	1.1301
15.0265	1.5156
14.7697	1.7705
14.5214	2.0139
14.2814	2.2078
14.0492	2.2864
13.8244	2.4297
13.6067	2.6221
13.3957	2.7175
13.1912	2.8601
12.9929	3.0942
12.8004	3.2812
12.6135	3.5151
12.432	3.8098
12.2557	4.1955
12.0843	4.7204
11.9176	5.5198
11.7555	7.0093
11.5977	9.2617
11.444	7.6274
11.2944	9.4397
11.1487	10.2676
11.0067	7.7385
10.8682	3.0371
10.7332	3.6809
10.6015	8.0032
10.473	12.417
10.3476	13.9284
10.2251	14.4279
10.1056	14.2898
9.9887	13.7544
9.8746	13.24
9.763	11.7121
9.6539	9.539
9.5472	6.9668
9.4429	4.4055
9.3408	1.8296
9.2409	0.3401
9.1431	0.1355
9.0474	0.2717
8.9536	0.4441
8.8618	0.5981
8.7718	0.7144
8.6837	0.8479
8.5973	0.978
8.5126	1.102
8.4295	1.2446
8.3481	1.3855
8.2682	1.4966
8.1898	1.6143
8.1129	1.7644
8.0374	1.9294
7.9634	2.1204
7.8906	2.2744
7.8192	2.4036
7.7491	2.4534
7.6802	2.4612
7.6126	2.4756
7.5461	2.4934
7.4807	2.5178
7.4165	2.4958
7.3534	2.4902
7.2914	2.5747
7.2303	2.7068
7.1703	2.8494
7.1113	3.0344
7.0533	3.1587
6.9962	3.1846
6.94	3.1489
6.8847	3.1604
6.8302	3.2268
6.7767	3.3379
6.7239	3.519
6.672	3.8149
6.6209	4.0813
6.5705	4.2353
6.5209	4.4153
6.4721	4.6677
6.424	4.9846
6.3766	5.2703
6.3299	5.4424
6.2838	5.4941
6.2385	5.4963
6.1937	5.4814
6.1496	5.4526
6.1062	5.3706
6.0633	5.2644
6.0211	5.0847
5.9794	4.8279
5.9383	4.3376
5.8978	3.7373
5.8578	3.2468
5.8184	2.9443
5.7794	2.7578
5.741	2.6431
5.7031	2.6208
5.6657	2.6536
5.6288	2.7004
5.5924	2.7375
5.5564	2.8581
5.5209	3.0227
5.4859	3.1421
5.4513	3.3279
5.4171	3.435
5.3833	3.4692
5.35	3.4866
5.3171	3.5444
5.2846	3.7143
5.2524	3.9184
5.2207	4.1282
5.1893	4.4236
5.1584	4.8064
5.1277	5.2681
5.0975	5.6553
5.0676	5.9162
5.038	6.1055
5.0088	6.2568
4.98	6.3882
4.9514	6.4939
4.9232	6.5661
4.8953	6.6467
4.8678	6.7473
4.8405	6.8618
4.8135	6.9619
4.7868	7.051
4.7605	7.1199
4.7344	7.1887
4.7086	7.2485
4.6831	7.3171
4.6578	7.375
4.6328	7.4348
4.6081	7.5
4.5837	7.5554
4.5595	7.6025
4.5356	7.6658
4.5119	7.7095
4.4884	7.7644
4.4652	7.8332
4.4423	7.8935
4.4196	7.9573
4.3971	8.0171
4.3748	8.0808
4.3528	8.1377
4.331	8.197
4.3094	8.2617
4.288	8.32
4.2668	8.3891
4.2458	8.4719
4.2251	8.5432
4.2045	8.6218
4.1841	8.6743
4.164	8.7405
4.144	8.8235
4.1242	8.8974
4.1046	8.9731
4.0852	9.0442
4.066	9.0964
4.047	9.1709
4.0281	9.25
4.0094	9.3
3.9909	9.3403
3.9725	9.3628
3.9544	9.4082
3.9363	9.4194
3.9185	9.4297
3.9008	9.4443
3.8833	9.4577
3.8659	9.4841
3.8487	9.5141
3.8316	9.5569
3.8147	9.6191
3.7979	9.677
3.7813	9.7385
3.7648	9.8161
3.7485	9.8923
3.7323	9.9367
3.7162	9.9983
3.7003	10.0703
3.6845	10.1081
3.6689	10.1592
3.6534	10.2221
3.638	10.2954
3.6227	10.3513
3.6076	10.4123
3.5926	10.4609
3.5777	10.5202
3.563	10.5744
3.5484	10.6179
3.5338	10.6579
3.5195	10.7041
3.5052	10.7241
3.491	10.77
3.477	10.8091
3.463	10.8445
3.4492	10.8674
3.4355	10.8877
3.4219	10.8955
3.4084	10.915
3.395	10.9536
3.3817	10.9887
3.3685	11.0009
3.3554	11.0166
3.3425	11.0383
3.3296	11.0473
3.3168	11.061
3.3041	11.0708
3.2915	11.0727
3.279	11.0754
3.2666	11.0813
3.2543	11.0735
3.2421	11.0634
3.23	11.0595
3.218	11.0403
3.206	11.0171
3.1942	10.9983
3.1824	11.0017
3.1707	10.9604
3.1591	10.9345
3.1476	10.9074
3.1362	10.8615
3.1249	10.8398
3.1136	10.7983
3.1024	10.7629
3.0913	10.7363
3.0803	10.6989
3.0694	10.6609
3.0585	10.6203
3.0477	10.5752
3.037	10.542
3.0264	10.4905
3.0158	10.4201
3.0053	10.3608
2.9949	10.3008
2.9845	10.2356
2.9743	10.1509
2.9641	10.0678
2.9539	10.0002
2.9439	9.9004
2.9339	9.7947
2.9239	9.6816
2.9141	9.5659
2.9043	9.4729
2.8946	9.3618
2.8849	9.2439
2.8753	9.126
2.8658	9.0244
2.8563	8.79
2.8469	8.436
2.8375	8.2729
2.8282	7.8027
2.819	6.7651
2.8098	5.9084
2.8007	4.6775
2.7917	3.1689
2.7827	2.6509
2.7738	3.5674
2.7649	3.5105
2.7561	3.479
2.7473	3.5168
2.7386	4.2361
2.7299	7.4031
2.7213	8.7602
2.7128	9.25
2.7043	9.3105
2.6959	9.2947
2.6875	9.3161
2.6791	9.2783
2.6709	9.2278
2.6626	9.238
2.6545	9.2434
2.6463	9.2021
2.6382	9.1985
2.6302	9.1396
2.6222	9.1306
2.6143	9.0942
2.6064	9.0329
2.5986	9.0149
2.5908	9.0132
2.583	8.9551
2.5753	8.9333
2.5677	8.9077
2.5601	8.8718
2.5525	8.8489
2.545	8.8244
2.5375	8.8022
2.5301	8.7727
2.5227	8.6999
2.5154	8.6914
2.5081	8.7014
2.5008	8.6545
2.4936	8.6042
2.4864	8.6367
2.4793	8.6289
2.4722	8.6218
2.4651	8.6199
2.4581	8.6301
2.4511	8.6191
2.4442	8.6172
2.4373	8.5979
2.4305	8.5832
2.4236	8.5774
2.4169	8.5825
2.4101	8.5896
2.4034	8.5793
2.3967	8.5849
2.3901	8.6045
2.3835	8.583
2.377	8.5774
2.3704	8.5642
2.364	8.5703
2.3575	8.539
2.3511	8.5405
2.3447	8.539
2.3384	8.4934
2.3321	8.3926
2.3258	8.3174
2.3195	8.4651
2.3133	8.6089
2.3071	8.7041
2.301	8.7773
2.2949	8.7978
2.2888	8.8462
2.2828	8.8357
2.2767	8.8354
2.2708	8.8227
2.2648	8.8286
2.2589	8.7817
2.253	8.7314
2.2471	8.7754
2.2413	8.7624
2.2355	8.7959
2.2297	8.8725
2.224	8.9018
2.2183	8.9653
2.2126	9.0019
2.207	9.0259
2.2013	9.04
2.1957	9.0708
2.1902	9.0644
2.1846	9.1035
2.1791	9.1162
2.1736	9.1621
2.1682	9.1938
2.1628	9.2104
2.1574	9.2275
2.152	9.2593
2.1466	9.2275
2.1413	9.2751
2.136	9.2934
2.1308	9.3132
2.1255	9.3535
2.1203	9.3896
2.1151	9.3994
2.11	9.4109
2.1048	9.4214
2.0997	9.4485
2.0946	9.4612
2.0895	9.5305
2.0845	9.4782
2.0795	9.4905
