Name: Halite NaCl
Type: Mineral
Class: Halide
Subclass: None
Particle Size: Coarse
Sample No.: H-3A
Owner: JPL
Wavelength Range: VSWIR
Origin: USA, Michigan, Wayne County, Detroit.
Description: Particle size was 125-500um.Collected by:  Ward's Original ASTER Spectral Library name was jpl.perkin.mineral.halide.none.coarse.h03a.spectrum.txt
Measurement: Hemispherical reflectance
X Units: Wavelength (micrometers)
Y Units: Reflectance (percent)
wavelength	value
2.5	81.2123
2.494	80.9492
2.488	80.9865
2.482	81.3739
2.476	81.4941
2.47	81.5117
2.464	81.7966
2.458	81.9111
2.452	82.2818
2.446	82.1407
2.44	82.3228
2.434	82.435
2.428	82.5895
2.422	82.7891
2.416	82.9437
2.41	82.9569
2.404	83.0812
2.398	83.2914
2.392	83.4201
2.386	83.6352
2.38	83.7633
2.374	83.9052
2.368	83.9953
2.362	84.215
2.356	84.2612
2.35	84.3657
2.344	84.4403
2.338	84.5638
2.332	84.4957
2.326	84.5083
2.32	84.4616
2.314	84.4514
2.308	84.5234
2.302	84.5412
2.296	84.565
2.29	84.5717
2.284	84.5524
2.278	84.5065
2.272	84.4975
2.266	84.498
2.26	84.5337
2.254	84.4864
2.248	84.4083
2.242	84.4894
2.236	84.5854
2.23	84.6139
2.224	84.5455
2.218	84.6275
2.212	84.7946
2.206	84.8415
2.2	85.0178
2.194	84.9921
2.188	85.0792
2.182	85.1673
2.176	85.2493
2.17	85.4515
2.164	85.5647
2.158	85.6717
2.152	85.7777
2.146	85.7836
2.14	85.6797
2.134	85.5983
2.128	85.4004
2.122	85.0984
2.116	84.7906
2.11	84.4718
2.104	84.1516
2.098	83.9649
2.092	83.9908
2.086	84.0146
2.08	83.9867
2.074	84.0419
2.068	84.0292
2.062	84.0108
2.056	83.9799
2.05	83.9365
2.044	83.9861
2.038	83.819
2.032	83.753
2.026	83.5726
2.02	83.4209
2.014	83.2289
2.008	83.0613
2.002	82.8667
1.996	82.5329
1.99	82.2717
1.984	81.9343
1.978	81.7827
1.972	81.5134
1.966	81.3879
1.96	81.2038
1.954	81.1767
1.948	81.0938
1.942	81.1029
1.936	81.2061
1.93	81.3398
1.924	81.5601
1.918	81.8994
1.912	82.3513
1.906	82.9196
1.9	83.5149
1.894	84.0926
1.888	84.5965
1.882	84.9753
1.876	85.1523
1.87	85.2353
1.864	85.3528
1.858	85.3344
1.852	85.4011
1.846	85.438
1.84	85.4432
1.834	85.4291
1.828	85.425
1.822	85.3704
1.816	85.3937
1.81	85.3689
1.804	85.4057
1.798	85.4225
1.792	85.3509
1.786	85.4369
1.78	85.3889
1.774	85.3184
1.768	85.383
1.762	85.3184
1.756	85.3763
1.75	85.3683
1.744	85.4234
1.738	85.4728
1.732	85.4744
1.726	85.3796
1.72	85.4947
1.714	85.4334
1.708	85.4239
1.702	85.2779
1.696	85.3641
1.69	85.2701
1.684	85.2782
1.678	85.299
1.672	85.2302
1.666	85.21
1.66	85.2538
1.654	85.176
1.648	85.1059
1.642	85.1632
1.636	85.1198
1.63	85.1067
1.624	85.1056
1.618	85.1562
1.612	85.063
1.606	85.0194
1.6	85.0044
1.594	85.0468
1.588	84.9026
1.582	84.988
1.576	84.8826
1.57	84.9309
1.564	84.864
1.558	84.8808
1.552	84.7637
1.546	84.7074
1.54	84.6825
1.534	84.6206
1.528	84.5433
1.522	84.4678
1.516	84.4183
1.51	84.3925
1.504	84.3096
1.498	84.235
1.492	84.1428
1.486	84.0527
1.48	83.9163
1.474	83.9312
1.468	83.8664
1.462	83.7776
1.456	83.7737
1.45	83.7506
1.444	83.7798
1.438	83.75
1.432	83.7686
1.426	83.8288
1.42	83.9196
1.414	83.9828
1.408	84.1405
1.402	84.2731
1.396	84.404
1.39	84.522
1.384	84.5216
1.378	84.4453
1.372	84.4385
1.366	84.5116
1.36	84.4428
1.354	84.4481
1.348	84.3832
1.342	84.3533
1.336	84.3464
1.33	84.3138
1.324	84.2837
1.318	84.2637
1.312	84.2554
1.306	84.1777
1.3	84.2385
1.294	84.1624
1.288	84.1527
1.282	84.1442
1.276	84.1706
1.27	84.0894
1.264	84.057
1.258	84.0326
1.252	84.0395
1.246	83.9702
1.24	83.9588
1.234	83.912
1.228	83.9747
1.222	83.84
1.216	83.8017
1.21	83.7804
1.204	83.7726
1.198	83.759
1.192	83.7491
1.186	83.7513
1.18	83.7461
1.174	83.6707
1.168	83.6486
1.162	83.6813
1.156	83.646
1.15	83.6436
1.144	83.6215
1.138	83.5795
1.132	83.5539
1.126	83.5745
1.12	83.5969
1.114	83.5015
1.108	83.4358
1.102	83.4359
1.096	83.4193
1.09	83.4507
1.084	83.4328
1.078	83.3921
1.072	83.398
1.066	83.3276
1.06	83.2487
1.054	83.2111
1.048	83.1509
1.042	83.2122
1.036	83.0759
1.03	83.1255
1.024	83.1355
1.018	83.0649
1.012	83.0051
1.006	82.9732
1	82.9471
0.994	82.9584
0.988	82.8519
0.982	82.8435
0.976	82.8016
0.97	82.7937
0.964	82.75
0.958	82.6782
0.952	82.706
0.946	82.5673
0.94	82.576
0.934	82.5733
0.928	82.5705
0.922	82.445
0.916	82.4655
0.91	82.4594
0.904	82.3585
0.898	82.358
0.892	82.2945
0.886	82.2733
0.88	82.2636
0.874	82.2075
0.868	82.2185
0.862	82.2238
0.856	82.6108
0.85	82.5425
0.844	82.6069
0.838	82.5268
0.832	82.57
0.826	82.579
0.82	82.5258
0.814	82.5594
0.808	82.4751
0.802	82.5168
0.796	82.4884
0.79	82.4941
0.784	82.4844
0.778	82.4802
0.772	82.4835
0.766	82.4858
0.76	82.5067
0.754	82.4864
0.748	82.5009
0.742	82.476
0.736	82.4875
0.73	82.4821
0.724	82.4644
0.718	82.4685
0.712	82.4787
0.706	82.4642
0.7	82.4602
0.694	82.4268
0.688	82.4247
0.682	82.4265
0.676	82.4161
0.67	82.4148
0.664	82.3757
0.658	82.3611
0.652	82.3559
0.646	82.3443
0.64	82.3375
0.634	82.3052
0.628	82.2865
0.622	82.249
0.616	82.2232
0.61	82.2075
0.604	82.1742
0.598	82.1749
0.592	82.1855
0.586	82.1411
0.58	82.0624
0.574	81.9845
0.568	81.9107
0.562	81.7885
0.556	81.681
0.55	81.5672
0.544	81.4628
0.538	81.357
0.532	81.2767
0.526	81.1644
0.52	81.053
0.514	80.969
0.508	80.836
0.502	80.7418
0.496	80.5693
0.49	80.4505
0.484	80.31
0.478	80.1793
0.472	80.0652
0.466	79.9364
0.46	79.7716
0.454	79.5866
0.448	79.4133
0.442	79.188
0.436	79.0398
0.43	78.801
0.424	78.6295
0.418	78.4255
0.412	78.2766
0.406	78.1188
0.4	77.9457
