Name: Rhodonite (Mn,Ca)SiO_3
Type: Mineral
Class: Silicate
Subclass: Inosilicate
Particle Size: Fine
Sample No.: IN-1A
Owner: JPL
Wavelength Range: TIR
Origin: USA, California, Fresno County
Description: Particle size was 0-45um.Collected by Burminco Original ASTER Spectral Library name was jpl.nicolet.mineral.silicate.inosilicate.fine.in01a.spectrum.txt
Measurement: Hemispherical reflectance
X Units: Wavelength (micrometers)
Y Units: Reflectance (percent)
wavelength	value
15.3853	4.0086
15.1161	3.9271
14.8563	3.7834
14.6052	5.0914
14.3624	4.7057
14.1276	5.5848
13.9004	4.3817
13.6803	6.2982
13.4671	9.6912
13.2604	12.3398
13.06	13.0733
12.8656	12.9564
12.6769	12.9081
12.4936	12.375
12.3155	11.9495
12.1425	11.2591
11.9742	10.2318
11.8106	9.4346
11.6513	8.5192
11.4963	6.6715
11.3454	7.0599
11.1983	7.9046
11.0551	7.3022
10.9154	6.2976
10.7793	6.3044
10.6465	6.7931
10.5169	9.4114
10.3904	8.8945
10.267	7.7818
10.1464	8.7969
10.0287	8.9731
9.9136	8.6847
9.8012	8.0972
9.6913	6.8917
9.5838	4.966
9.4787	6.9711
9.3758	7.6592
9.2752	7.4789
9.1767	6.6111
9.0803	6.3499
8.9858	6.5064
8.8934	6.3689
8.8028	4.8878
8.714	3.674
8.627	3.2795
8.5417	3.5825
8.4581	4.1652
8.3761	5.1031
8.2957	6.2823
8.2169	7.7847
8.1395	9.2003
8.0635	10.5012
7.989	11.7599
7.9158	12.6714
7.8439	13.5567
7.7734	14.2382
7.7041	15.2259
7.636	16.3582
7.5691	17.2531
7.5034	17.9756
7.4388	18.3795
7.3753	18.3795
7.3129	17.6227
7.2515	16.7266
7.1912	15.7985
7.1318	15.3346
7.0734	14.8321
7.016	14.1586
6.9595	13.9002
6.9039	13.8853
6.8492	14.4258
6.7953	15.5183
6.7423	16.5157
6.6901	17.9323
6.6387	20.229
6.5881	22.3318
6.5382	24.6836
6.4892	27.3384
6.4408	28.5228
6.3931	27.7924
6.3462	26.3494
6.2999	24.8925
6.2543	25.0894
6.2094	25.4447
6.1651	26.3481
6.1214	26.6843
6.0784	27.1976
6.0359	27.4899
5.994	28.0317
5.9527	27.7366
5.912	27.1246
5.8718	27.7527
5.8322	28.8533
5.7931	29.6719
5.7545	29.8281
5.7165	29.1924
5.6789	29.1294
5.6418	29.8025
5.6052	28.947
5.5691	27.7147
5.5334	31.0961
5.4982	35.068
5.4635	37.5525
5.4291	38.0048
5.3952	36.7819
5.3618	35.1934
5.3287	34.3077
5.2961	34.1847
5.2638	34.5815
5.2319	35.1747
5.2004	36.1873
5.1693	37.3482
5.1386	38.0665
5.1082	38.4836
5.0782	39.6083
5.0485	40.6147
5.0192	41.4118
4.9902	43.0696
4.9616	45.0552
4.9332	46.8672
4.9052	48.1917
4.8776	49.2667
4.8502	50.4082
4.8231	51.3754
4.7963	52.3726
4.7699	53.6573
4.7437	55.2791
4.7178	56.8724
4.6922	58.3238
4.6668	59.7324
4.6418	61.4767
4.617	62.8687
4.5924	64.1222
4.5681	65.0701
4.5441	66.0731
4.5203	66.5944
4.4968	67.0358
4.4735	67.3134
4.4505	67.8156
4.4277	68.0491
4.4051	68.2232
4.3828	68.3097
4.3607	68.4413
4.3388	68.4968
4.3171	68.7034
4.2956	68.8728
4.2744	68.9704
4.2534	69.1177
4.2325	69.2137
4.2119	69.3207
4.1915	69.3752
4.1712	69.4918
4.1512	69.3815
4.1313	69.3204
4.1117	68.9931
4.0922	68.5666
4.0729	67.1208
4.0538	64.1087
4.0349	60.4247
4.0161	57.628
3.9976	56.1219
3.9792	54.3167
3.9609	54.9785
3.9428	58.2444
3.9249	60.8977
3.9072	61.7411
3.8896	62.0473
3.8722	62.2517
3.8549	62.5462
3.8378	63.4379
3.8208	65.1179
3.804	66.8078
3.7873	68.4232
3.7708	68.8789
3.7544	68.886
3.7382	68.7909
3.7221	68.6885
3.7061	68.4815
3.6903	68.2311
3.6746	68.0224
3.659	67.8126
3.6436	67.4795
3.6283	67.2118
3.6131	66.7049
3.5981	66.0028
3.5832	65.359
3.5684	64.3185
3.5537	63.2075
3.5391	61.7913
3.5247	60.3236
3.5104	58.7169
3.4962	57.3602
3.4821	56.6612
3.4681	56.828
3.4543	57.9262
3.4405	57.9642
3.4269	57.6171
3.4133	57.2161
3.3999	56.8996
3.3866	56.695
3.3733	56.2735
3.3602	55.9369
3.3472	55.7517
3.3343	57.5151
3.3215	58.6022
3.3088	58.6923
3.2961	58.5546
3.2836	58.2719
3.2712	58.1088
3.2588	57.5497
3.2466	57.2495
3.2345	56.8141
3.2224	56.2915
3.2104	55.8614
3.1985	55.3658
3.1867	54.8205
3.175	54.2928
3.1634	53.8369
3.1519	53.3211
3.1404	52.771
3.129	52.4595
3.1178	51.8996
3.1065	51.687
3.0954	51.112
3.0844	50.9525
3.0734	50.7111
3.0625	50.3815
3.0517	50.3491
3.041	50.0608
3.0303	49.7194
3.0197	49.6137
3.0092	49.1249
2.9987	48.7309
2.9884	48.5671
2.9781	48.3508
2.9678	48.036
2.9577	47.9374
2.9476	47.6617
2.9376	47.4207
2.9276	47.5083
2.9177	47.5371
2.9079	47.6187
2.8982	47.4853
2.8885	47.3726
2.8789	47.4269
2.8693	47.3781
2.8598	47.5362
2.8504	47.6127
2.841	47.5407
2.8317	47.4754
2.8224	47.6817
2.8133	47.661
2.8041	47.9408
2.7951	48.3748
2.786	48.7998
2.7771	49.2161
2.7682	49.77
2.7594	49.5854
2.7506	50.8025
2.7418	55.7216
2.7332	61.7699
2.7246	66.5359
2.716	68.964
2.7075	71.0003
2.699	72.2663
2.6906	73.1322
2.6823	73.8891
2.674	74.5686
2.6657	76.781
2.6575	76.6439
2.6494	76.7715
2.6413	76.9257
2.6332	76.9872
2.6252	76.9603
2.6173	77.2851
2.6094	76.918
2.6015	76.8232
2.5937	77.219
2.5859	76.8519
2.5782	76.5944
2.5706	76.5742
2.5629	76.5588
2.5554	76.0708
2.5478	76.0064
2.5403	75.7064
2.5329	75.6039
2.5255	75.5466
2.5181	75.598
2.5108	75.6645
2.5035	75.5727
2.4963	75.653
2.4891	75.6572
2.482	75.6833
2.4749	75.8965
2.4678	75.7678
2.4608	75.9134
2.4538	75.792
2.4468	75.7575
2.4399	75.6082
2.4331	75.6837
2.4262	75.7013
2.4194	75.8344
2.4127	75.6487
2.4059	75.8447
2.3993	75.7518
2.3926	75.8039
2.386	75.5135
2.3795	75.435
2.3729	75.2628
2.3664	75.2779
2.36	75.2479
2.3535	75.2324
2.3471	75.165
2.3408	75.3524
2.3345	75.2286
2.3282	75.3372
2.3219	75.3216
2.3157	75.4803
2.3095	75.3932
2.3034	75.3561
2.2972	75.38
2.2911	75.5482
2.2851	75.2619
2.279	75.3551
2.2731	75.4859
2.2671	75.5103
2.2612	75.4262
2.2553	75.4743
2.2494	75.5485
2.2435	75.5496
2.2377	75.4853
2.232	75.6028
2.2262	75.516
2.2205	75.6362
2.2148	75.6628
2.2091	75.7071
2.2035	75.5753
2.1979	75.6688
2.1923	75.8849
2.1868	75.7724
2.1812	76.0107
2.1758	75.8346
2.1703	76.1158
2.1649	76.0445
2.1595	75.8907
2.1541	76.1687
2.1487	76.1195
2.1434	76.1825
2.1381	76.1522
2.1328	76.2619
2.1275	76.4542
2.1223	76.272
2.1171	76.3731
2.112	76.4669
2.1068	76.565
2.1017	76.7581
2.0966	76.5117
2.0915	76.476
2.0865	76.7737
2.0814	76.797
2.0764	77.0232
2.0715	76.8844
2.0665	76.9178
2.0616	76.7012
2.0567	76.9996
2.0518	76.9465
2.0469	77.1831
2.0421	76.798
2.0373	77.086
2.0325	77.1247
2.0277	77.0732
2.0229	77.2678
2.0182	77.4426
2.0135	77.2946
2.0088	77.4316
2.0042	77.2619
