Name: Pyrophyllite Al_2Si_4O_10(OH)_2
Type: Mineral
Class: Silicate
Subclass: Phyllosilicate
Particle Size: Fine
Sample No.: PS-7A
Owner: JPL
Wavelength Range: TIR
Origin: USA, California
Description: Particle size was 0-45um.Collected by Ward's Original ASTER Spectral Library name was jpl.nicolet.mineral.silicate.phyllosilicate.fine.ps07a.spectrum.txt
Measurement: Hemispherical reflectance
X Units: Wavelength (micrometers)
Y Units: Reflectance (percent)
wavelength	value
15.3853	2.3759
15.1161	2.1088
14.8563	2.1911
14.6052	2.5008
14.3624	3.0948
14.1276	3.9762
13.9004	5.374
13.6803	5.6902
13.4671	5.5628
13.2604	7.6253
13.06	9.0076
12.8656	9.9344
12.6769	10.0392
12.4936	9.0838
12.3155	4.7483
12.1425	6.9963
11.9742	3.6092
11.8106	5.6143
11.6513	4.8425
11.4963	8.5132
11.3454	10.1011
11.1983	10.2942
11.0551	8.5809
10.9154	8.2772
10.7793	7.6261
10.6465	6.1216
10.5169	5.016
10.3904	4.908
10.267	5.3259
10.1464	6.2639
10.0287	6.6218
9.9136	6.6024
9.8012	6.1843
9.6913	6.0843
9.5838	6.2774
9.4787	7.7514
9.3758	9.2473
9.2752	11.4148
9.1767	12.584
9.0803	12.3925
8.9858	6.6677
8.8934	10.3952
8.8028	12.6427
8.714	13.3363
8.627	13.2002
8.5417	12.7462
8.4581	12.3577
8.3761	11.5507
8.2957	10.464
8.2169	8.5986
8.1395	6.9307
8.0635	5.2708
7.989	3.9823
7.9158	2.8
7.8439	2.1678
7.7734	2.0623
7.7041	2.009
7.636	2.2328
7.5691	2.7573
7.5034	3.7246
7.4388	4.8815
7.3753	5.8893
7.3129	7.0022
7.2515	7.8996
7.1912	9.1455
7.1318	10.1758
7.0734	11.3314
7.016	12.7605
6.9595	13.3942
6.9039	13.8851
6.8492	14.5697
6.7953	15.6939
6.7423	17.3016
6.6901	19.2708
6.6387	20.7919
6.5881	20.6981
6.5382	20.9205
6.4892	22.4179
6.4408	22.6141
6.3931	22.8271
6.3462	23.1949
6.2999	23.7675
6.2543	24.0043
6.2094	23.7488
6.1651	23.2998
6.1214	24.3118
6.0784	25.2574
6.0359	26.9968
5.994	27.7644
5.9527	26.6324
5.912	26.0547
5.8718	26.7421
5.8322	25.1776
5.7931	22.1061
5.7545	21.5784
5.7165	21.8916
5.6789	22.8736
5.6418	23.3981
5.6052	23.1832
5.5691	22.8012
5.5334	23.0881
5.4982	23.2085
5.4635	22.8691
5.4291	22.463
5.3952	21.0009
5.3618	17.5973
5.3287	14.3966
5.2961	13.7912
5.2638	17.5159
5.2319	21.434
5.2004	23.4287
5.1693	25.5419
5.1386	27.8512
5.1082	27.4458
5.0782	27.2208
5.0485	27.1733
5.0192	28.7323
4.9902	30.2548
4.9616	34.9766
4.9332	39.7431
4.9052	43.5454
4.8776	47.6891
4.8502	51.0074
4.8231	51.9566
4.7963	52.8585
4.7699	53.2303
4.7437	54.3384
4.7178	54.9261
4.6922	55.6324
4.6668	56.8626
4.6418	58.351
4.617	59.1332
4.5924	59.4259
4.5681	58.8099
4.5441	59.1271
4.5203	59.3495
4.4968	59.8316
4.4735	60.3493
4.4505	61.8069
4.4277	63.0426
4.4051	63.2575
4.3828	63.5647
4.3607	63.9839
4.3388	64.1876
4.3171	64.3681
4.2956	64.2181
4.2744	64.6094
4.2534	65.2182
4.2325	65.576
4.2119	65.9463
4.1915	65.9985
4.1712	66.0886
4.1512	66.0033
4.1313	66.0443
4.1117	66.1201
4.0922	66.2705
4.0729	66.2301
4.0538	66.4541
4.0349	66.6029
4.0161	66.7059
3.9976	66.7797
3.9792	66.7708
3.9609	66.797
3.9428	66.8394
3.9249	66.8738
3.9072	66.7904
3.8896	66.7382
3.8722	66.7084
3.8549	66.5547
3.8378	66.4475
3.8208	66.1749
3.804	65.9111
3.7873	65.5486
3.7708	65.3423
3.7544	65.0281
3.7382	64.6292
3.7221	64.1776
3.7061	63.5645
3.6903	60.819
3.6746	60.9771
3.659	61.3633
3.6436	61.9372
3.6283	61.8924
3.6131	61.5479
3.5981	60.9773
3.5832	60.3606
3.5684	59.927
3.5537	59.5503
3.5391	58.9225
3.5247	58.1558
3.5104	56.5007
3.4962	55.7109
3.4821	55.7405
3.4681	55.531
3.4543	54.8244
3.4405	53.9104
3.4269	51.842
3.4133	51.1599
3.3999	51.9411
3.3866	51.7207
3.3733	51.2602
3.3602	51.7662
3.3472	51.6335
3.3343	51.3955
3.3215	51.0128
3.3088	50.5204
3.2961	50.0261
3.2836	49.5529
3.2712	49.2547
3.2588	48.7806
3.2466	48.3843
3.2345	48.0077
3.2224	47.6321
3.2104	47.2395
3.1985	46.8351
3.1867	46.3893
3.175	45.9333
3.1634	45.6028
3.1519	45.3619
3.1404	44.9561
3.129	44.7921
3.1178	44.4987
3.1065	44.0654
3.0954	43.8839
3.0844	43.6547
3.0734	43.4639
3.0625	43.1973
3.0517	43.1193
3.041	42.9423
3.0303	42.5134
3.0197	42.3106
3.0092	41.6
2.9987	41.2001
2.9884	40.7307
2.9781	40.1858
2.9678	40.1683
2.9577	40.4496
2.9476	40.4628
2.9376	40.1492
2.9276	39.637
2.9177	39.4809
2.9079	40.0433
2.8982	39.847
2.8885	39.1951
2.8789	39.5262
2.8693	38.0378
2.8598	38.6493
2.8504	39.295
2.841	39.8187
2.8317	41.0205
2.8224	41.3687
2.8133	40.9035
2.8041	41.1469
2.7951	40.9342
2.786	39.3144
2.7771	39.1444
2.7682	35.0237
2.7594	29.1507
2.7506	29.4474
2.7418	17.193
2.7332	14.1264
2.7246	4.9586
2.716	3.7811
2.7075	13.491
2.699	25.1726
2.6906	38.4308
2.6823	47.5404
2.674	52.4892
2.6657	58.4423
2.6575	60.1548
2.6494	62.1906
2.6413	62.2147
2.6332	63.0403
2.6252	62.887
2.6173	61.0701
2.6094	55.768
2.6015	56.4154
2.5937	60.1866
2.5859	62.9484
2.5782	65.5129
2.5706	64.065
2.5629	66.5367
2.5554	66.1293
2.5478	64.4365
2.5403	67.1434
2.5329	67.6908
2.5255	66.4163
2.5181	64.1253
2.5108	62.4032
2.5035	62.839
2.4963	63.9691
2.4891	64.6435
2.482	65.4822
2.4749	68.0734
2.4678	68.461
2.4608	68.8067
2.4538	68.5808
2.4468	68.8765
2.4399	69.113
2.4331	68.2133
2.4262	68.8032
2.4194	69.8178
2.4127	70.1547
2.4059	69.684
2.3993	69.7646
2.3926	69.1191
2.386	70.0394
2.3795	72.083
2.3729	73.7448
2.3664	73.023
2.36	72.3397
2.3535	72.2413
2.3471	71.6471
2.3408	73.3601
2.3345	73.47
2.3282	71.1371
2.3219	68.0871
2.3157	68.8212
2.3095	71.2364
2.3034	72.811
2.2972	73.8775
2.2911	74.45
2.2851	75.473
2.279	77.0366
2.2731	78.5594
2.2671	79.433
2.2612	80.0217
2.2553	80.4609
2.2494	81.0435
2.2435	81.3333
2.2377	81.859
2.232	82.0136
2.2262	81.1846
2.2205	79.9667
2.2148	79.9411
2.2091	78.4473
2.2035	79.7455
2.1979	80.2157
2.1923	80.0419
2.1868	78.8321
2.1812	75.7382
2.1758	68.3621
2.1703	56.7822
2.1649	54.5905
2.1595	67.0362
2.1541	73.7092
2.1487	78.5543
2.1434	81.093
2.1381	81.9635
2.1328	82.8626
2.1275	83.5469
2.1223	84.5831
2.1171	85.2967
2.112	86.1704
2.1068	86.4764
2.1017	86.4596
2.0966	86.5382
2.0915	86.1285
2.0865	85.2784
2.0814	84.6648
2.0764	85.2804
2.0715	85.4773
2.0665	85.4495
2.0616	85.4261
2.0567	86.582
2.0518	87.0744
2.0469	87.3526
2.0421	87.4352
2.0373	87.6278
2.0325	87.5225
2.0277	87.8776
2.0229	87.5392
2.0182	87.4545
2.0135	87.4374
2.0088	87.4959
2.0042	87.8016
