Name: Graphite C
Type: Mineral
Class: Element
Subclass: None
Particle Size: Medium
Sample No.: E-1A
Owner: JPL
Wavelength Range: VSWIR
Origin: Mexico, Sonora, Morelos, San Jose Mine
Description: Particle size was 45-125um.Collected by Burminco Original ASTER Spectral Library name was jpl.beckman.mineral.element.none.medium.e01a.spectrum.txt
Measurement: Hemispherical reflectance
X Units: Wavelength (micrometers)
Y Units: Reflectance (percent)
wavelength	value
0.4	3.7
0.403	3.68
0.406	3.67
0.409	3.61
0.412	3.66
0.415	3.56
0.418	3.55
0.421	3.55
0.424	3.61
0.427	3.55
0.43	3.44
0.433	3.44
0.436	3.44
0.439	3.49
0.442	3.44
0.445	3.38
0.448	3.37
0.451	3.37
0.454	3.36
0.457	3.33
0.46	3.39
0.463	3.44
0.466	3.25
0.469	3.43
0.472	3.37
0.475	3.37
0.478	3.25
0.481	3.31
0.484	3.3
0.487	3.23
0.49	3.22
0.493	3.26
0.496	3.24
0.499	3.23
0.502	3.29
0.505	3.23
0.508	3.17
0.511	3.22
0.514	3.22
0.517	3.23
0.52	3.22
0.523	3.17
0.526	3.1
0.529	3.16
0.532	3.16
0.535	3.21
0.538	3.04
0.541	3.17
0.544	3.1
0.547	3.08
0.55	3.12
0.553	3.05
0.556	3.11
0.559	3.11
0.562	3.15
0.565	3.09
0.568	3.14
0.571	3.1
0.574	3.08
0.577	3.07
0.58	3.02
0.583	3.08
0.586	3.02
0.589	3.02
0.592	2.97
0.595	3.02
0.598	3.06
0.601	3.01
0.604	2.98
0.607	3.03
0.61	3.03
0.613	3.08
0.616	3.09
0.619	3.08
0.622	3.03
0.625	3.02
0.628	3.02
0.631	3.08
0.634	3.03
0.637	2.97
0.64	3.08
0.643	3.08
0.646	3.09
0.649	3.02
0.652	3.03
0.655	3.02
0.658	3.09
0.661	3.03
0.664	3.03
0.667	3.08
0.67	3.04
0.673	3.03
0.676	3.03
0.679	3.08
0.682	3.09
0.685	3.02
0.688	3.14
0.691	3.14
0.694	3.09
0.697	3.09
0.7	3.07
0.703	3.09
0.706	3.02
0.709	3.08
0.712	3.14
0.715	3.03
0.718	3.08
0.721	3.02
0.724	3.14
0.727	3.14
0.73	3.08
0.733	3.02
0.736	3.13
0.739	3.08
0.742	3.19
0.745	3.08
0.748	3.18
0.751	3.13
0.754	3.14
0.757	3.19
0.76	3.07
0.763	3.13
0.766	3.18
0.769	3.18
0.772	3.18
0.775	3.13
0.778	3.12
0.781	3.18
0.784	3.18
0.787	3.12
0.79	3.18
0.793	3.18
0.796	3.3
0.799	3.48
0.808	3.49
0.82	3.55
0.832	3.55
0.844	3.49
0.856	3.56
0.868	3.51
0.88	3.51
0.892	3.51
0.904	3.51
0.916	3.5
0.928	3.57
0.94	3.58
0.952	3.58
0.964	3.58
0.976	3.57
0.988	3.56
1	3.54
1.012	3.57
1.024	3.63
1.036	3.63
1.048	3.57
1.06	3.62
1.072	3.67
1.084	3.64
1.096	3.68
1.108	3.72
1.12	3.74
1.132	3.74
1.144	3.71
1.156	3.68
1.168	3.67
1.18	3.67
1.192	3.71
1.204	3.73
1.216	3.8
1.228	3.82
1.24	3.85
1.252	3.77
1.264	3.81
1.276	3.82
1.288	3.88
1.3	3.82
1.312	3.91
1.324	3.92
1.336	3.85
1.348	3.89
1.36	3.88
1.372	3.85
1.384	3.91
1.396	4
1.408	4.02
1.42	3.97
1.432	4.04
1.444	4.05
1.456	4.04
1.468	4.03
1.48	4.02
1.492	4.03
1.504	4.04
1.516	4.09
1.528	4.09
1.54	4.1
1.552	4.1
1.564	4.14
1.576	4.2
1.588	4.14
1.6	4.09
1.612	4.15
1.624	4.2
1.636	4.15
1.648	4.19
1.66	4.17
1.672	4.25
1.684	4.24
1.696	4.19
1.708	4.24
1.72	4.18
1.732	4.24
1.744	4.31
1.756	4.3
1.768	4.34
1.78	4.29
1.792	4.28
1.804	4.3
1.816	4.28
1.828	4.28
1.84	4.33
1.852	4.33
1.864	4.3
1.876	4.27
1.888	4.32
1.9	4.37
1.912	4.34
1.924	4.39
1.936	4.38
1.948	4.36
1.96	4.34
1.972	4.36
1.984	4.4
1.996	4.48
2.008	4.52
2.02	4.46
2.032	4.44
2.044	4.55
2.056	4.48
2.068	4.46
2.08	4.5
2.092	4.48
2.104	4.54
2.116	4.52
2.128	4.62
2.14	4.59
2.152	4.58
2.164	4.51
2.176	4.53
2.188	4.56
2.2	4.55
2.212	4.62
2.224	4.63
2.236	4.68
2.248	4.55
2.26	4.61
2.272	4.61
2.284	4.59
2.296	4.68
2.308	4.62
2.32	4.62
2.332	4.61
2.344	4.63
2.356	4.73
2.368	4.7
2.38	4.72
2.392	4.77
2.404	4.69
2.416	4.71
2.428	4.75
2.44	4.87
2.452	4.86
2.464	4.75
2.476	4.74
2.488	4.79
2.5	4.9
