Name: Chalcopyrite CuFeS_2
Type: Mineral
Class: Sulfide
Subclass: None
Particle Size: Medium
Sample No.: S-4A
Owner: JPL
Wavelength Range: VSWIR
Origin: Canada, Quebec, Rouyn District.
Description: Particle size was 45-125um.Collected by:  JPL Original ASTER Spectral Library name was jpl.perkin.mineral.sulfide.none.medium.s04a.spectrum.txt
Measurement: Hemispherical reflectance
X Units: Wavelength (micrometers)
Y Units: Reflectance (percent)
wavelength	value
2.5	89.6408
2.494	89.8398
2.488	89.5353
2.482	89.7108
2.476	89.765
2.47	89.8945
2.464	90.0308
2.458	90.0654
2.452	90.1221
2.446	90.1197
2.44	90.1955
2.434	90.2512
2.428	90.2654
2.422	90.2398
2.416	90.3543
2.41	90.4822
2.404	90.4773
2.398	90.498
2.392	90.4839
2.386	90.5216
2.38	90.563
2.374	90.5844
2.368	90.5887
2.362	90.5522
2.356	90.5476
2.35	90.5313
2.344	90.5298
2.338	90.472
2.332	90.4567
2.326	90.3728
2.32	90.3244
2.314	90.2411
2.308	90.1101
2.302	90.0517
2.296	90.0464
2.29	90.0652
2.284	90.0296
2.278	89.9826
2.272	90.0011
2.266	89.9301
2.26	90.0072
2.254	89.9489
2.248	89.9389
2.242	89.9779
2.236	89.9283
2.23	89.9374
2.224	89.9747
2.218	90.0554
2.212	90.0586
2.206	90.0272
2.2	90.1058
2.194	90.202
2.188	90.2757
2.182	90.4939
2.176	90.6098
2.17	90.7659
2.164	90.8722
2.158	91.0357
2.152	91.1813
2.146	91.2353
2.14	91.268
2.134	91.2297
2.128	91.2285
2.122	91.1757
2.116	91.1044
2.11	91.0376
2.104	90.941
2.098	90.8187
2.092	90.7902
2.086	90.6995
2.08	90.6571
2.074	90.5959
2.068	90.5142
2.062	90.4416
2.056	90.416
2.05	90.2766
2.044	90.2418
2.038	90.1358
2.032	90.0123
2.026	89.9376
2.02	89.7386
2.014	89.6949
2.008	89.5604
2.002	89.4172
1.996	89.2406
1.99	89.1427
1.984	88.9826
1.978	88.8881
1.972	88.7805
1.966	88.6652
1.96	88.5634
1.954	88.4372
1.948	88.4508
1.942	88.3031
1.936	88.3114
1.93	88.3468
1.924	88.3335
1.918	88.408
1.912	88.5301
1.906	88.7014
1.9	88.9179
1.894	89.1476
1.888	89.3671
1.882	89.5944
1.876	89.6916
1.87	89.7418
1.864	89.8151
1.858	89.8352
1.852	89.8497
1.846	89.8034
1.84	89.791
1.834	89.8056
1.828	89.8031
1.822	89.7308
1.816	89.7251
1.81	89.7562
1.804	89.7255
1.798	89.6705
1.792	89.6912
1.786	89.6564
1.78	89.6328
1.774	89.6608
1.768	89.6332
1.762	89.6507
1.756	89.6523
1.75	89.6283
1.744	89.7161
1.738	89.6859
1.732	89.6988
1.726	89.7104
1.72	89.6932
1.714	89.7302
1.708	89.6214
1.702	89.6744
1.696	89.6814
1.69	89.7043
1.684	89.5852
1.678	89.6181
1.672	89.5726
1.666	89.5787
1.66	89.6319
1.654	89.5457
1.648	89.6109
1.642	89.5505
1.636	89.4977
1.63	89.5001
1.624	89.5167
1.618	89.517
1.612	89.4637
1.606	89.4369
1.6	89.4051
1.594	89.4304
1.588	89.35
1.582	89.3861
1.576	89.353
1.57	89.3058
1.564	89.3553
1.558	89.2864
1.552	89.2822
1.546	89.2539
1.54	89.2538
1.534	89.2503
1.528	89.2311
1.522	89.1497
1.516	89.1259
1.51	89.1695
1.504	89.1088
1.498	89.0407
1.492	89.0345
1.486	89.0437
1.48	88.9717
1.474	88.9166
1.468	88.934
1.462	88.8664
1.456	88.8818
1.45	88.8331
1.444	88.8585
1.438	88.8354
1.432	88.8333
1.426	88.8461
1.42	88.8878
1.414	88.8734
1.408	88.8381
1.402	88.9991
1.396	88.9997
1.39	88.9912
1.384	88.9725
1.378	88.9639
1.372	88.994
1.366	88.9731
1.36	88.9696
1.354	88.8633
1.348	88.8624
1.342	88.8271
1.336	88.8031
1.33	88.8334
1.324	88.8101
1.318	88.7938
1.312	88.7546
1.306	88.7501
1.3	88.6887
1.294	88.6687
1.288	88.5948
1.282	88.636
1.276	88.6183
1.27	88.543
1.264	88.4903
1.258	88.4781
1.252	88.5167
1.246	88.4521
1.24	88.4173
1.234	88.4248
1.228	88.3703
1.222	88.3478
1.216	88.284
1.21	88.2666
1.204	88.2246
1.198	88.1864
1.192	88.1687
1.186	88.1236
1.18	88.1551
1.174	88.053
1.168	88.0515
1.162	88.056
1.156	88.0096
1.15	87.9333
1.144	87.9089
1.138	87.8409
1.132	87.8561
1.126	87.8329
1.12	87.7397
1.114	87.7391
1.108	87.6794
1.102	87.6283
1.096	87.6114
1.09	87.5322
1.084	87.5536
1.078	87.4775
1.072	87.3811
1.066	87.3884
1.06	87.2941
1.054	87.2922
1.048	87.1998
1.042	87.1509
1.036	87.0735
1.03	87.0033
1.024	86.9601
1.018	86.9601
1.012	86.859
1.006	86.777
1	86.7554
0.994	86.641
0.988	86.4972
0.982	86.453
0.976	86.3992
0.97	86.2717
0.964	86.1526
0.958	86.0844
0.952	85.8992
0.946	85.7969
0.94	85.6244
0.934	85.4522
0.928	85.2895
0.922	85.1084
0.916	84.9053
0.91	84.6098
0.904	84.371
0.898	84.0563
0.892	83.7353
0.886	83.4208
0.88	82.9971
0.874	82.5431
0.868	82.0955
0.862	81.5687
0.856	80.9513
0.85	80.2683
0.844	79.5179
0.838	78.683
0.832	77.6761
0.826	76.4614
0.82	74.9827
0.814	73.0999
0.808	70.6985
0.802	67.694
0.796	63.9926
0.79	59.8293
0.784	55.3978
0.778	51.2173
0.772	47.6101
0.766	44.7471
0.76	42.5919
0.754	40.9016
0.748	39.5647
0.742	38.4749
0.736	37.6051
0.73	36.9226
0.724	36.3777
0.718	35.9624
0.712	35.6476
0.706	35.4216
0.7	35.2599
0.694	35.1535
0.688	35.0797
0.682	35.0335
0.676	35.0144
0.67	35.0008
0.664	34.9969
0.658	34.9902
0.652	34.9791
0.646	34.9616
0.64	34.9575
0.634	34.9658
0.628	34.9807
0.622	35.0146
0.616	35.0692
0.61	35.14
0.604	35.2105
0.598	35.2965
0.592	35.3914
0.586	35.4946
0.58	35.6002
0.574	35.714
0.568	35.8264
0.562	35.9476
0.556	36.0751
0.55	36.1998
0.544	36.3326
0.538	36.4639
0.532	36.5926
0.526	36.7272
0.52	36.8517
0.514	36.9626
0.508	37.0773
0.502	37.1756
0.496	37.2853
0.49	37.386
0.484	37.4872
0.478	37.5686
0.472	37.6652
0.466	37.7497
0.46	37.8203
0.454	37.8918
0.448	37.9545
0.442	38.0102
0.436	38.0918
0.43	38.166
0.424	38.2694
0.418	38.398
0.412	38.5388
0.406	38.7035
0.4	38.894
