Name: Muscovite KAl2(Si3Al)O10(OH,F)2
Type: Mineral
Class: Silicate
Subclass: Phyllosilicate
Particle Size: Fine
Sample No.: muscov_2
Owner: JHU
Wavelength Range: TIR
Origin: Fremont Co., Colorado via Hunt and Salisbury Collection #146B
Description: The hand sample appeared to be pure, transparent muscovite, but microscopic analysis showed a trace (<<1%) of what appeared to be quartz.  (However, no quartz bands are apparent in the infrared spectrum.).Particle size was Less than 2 Micrometers.(Sheet Silicates); (MicaGroup) Original ASTER Spectral Library name was jhu.nicolet.mineral.silicate.phyllosilicate.powder.muscov2.spectrum.txt
Measurement: Transmission
X Units: Wavelength (micrometers)
Y Units: Transmittance (percent)
wavelength	value
25.0442	59.9764
24.3388	55.3124
23.6719	51.5663
23.0407	51.7108
22.4422	49.7928
21.8741	41.7499
21.334	34.6894
20.8199	32.2362
20.33	42.4667
19.8627	45.3104
19.4163	40.4491
18.9896	35.5399
18.5812	36.8134
18.19	42.1991
17.815	48.9227
17.4551	55.4461
17.1094	59.8026
16.7772	63.6141
16.4576	65.8407
16.15	67.6209
15.8537	68.9686
15.568	70.2899
15.2925	71.0086
15.0265	70.409
14.7697	69.1561
14.5214	67.9246
14.2814	67.1776
14.0492	67.4324
13.8244	67.4744
13.6067	67.0819
13.3957	65.9515
13.1912	67.848
12.9929	70.637
12.8004	69.0076
12.6135	70.1312
12.432	70.1932
12.2557	74.3768
12.0843	73.1683
11.9176	75.1292
11.7555	73.3709
11.5977	69.6702
11.444	64.7113
11.2944	63.0589
11.1487	60.6746
11.0067	56.2113
10.8682	52.7303
10.7332	50.1815
10.6015	48.2777
10.473	43.8207
10.3476	35.2743
10.2251	24.8559
10.1056	17.8281
9.9887	14.4375
9.8746	12.5322
9.763	11.3252
9.6539	11.7251
9.5472	16.0703
9.4429	19.2895
9.3408	20.165
9.2409	21.2563
9.1431	25.1235
9.0474	30.2782
8.9536	35.5531
8.8618	41.4218
8.7718	47.0824
8.6837	52.6566
8.5973	56.9808
8.5126	61.8631
8.4295	66.8192
8.3481	71.9207
8.2682	77.0613
8.1898	80.9451
8.1129	83.127
8.0374	84.5596
7.9634	85.5752
7.8906	86.3845
7.8192	87.0537
7.7491	87.5498
7.6802	88.0391
7.6126	88.3281
7.5461	88.5244
7.4807	88.5056
7.4165	88.3496
7.3534	87.8064
7.2914	87.0593
7.2303	86.1389
7.1703	84.8272
7.1113	83.2481
7.0533	81.5047
6.9962	80.4236
6.94	80.0811
6.8847	80.1358
6.8302	80.8562
6.7767	82.1641
6.7239	83.5108
6.672	84.6133
6.6209	85.3574
6.5705	85.9873
6.5209	86.4588
6.4721	87.0838
6.424	87.6697
6.3766	88.072
6.3299	88.2215
6.2838	88.2312
6.2385	88.0508
6.1937	87.5938
6.1496	86.5115
6.1062	86.4715
6.0633	86.7637
6.0211	87.1199
5.9794	88.2771
5.9383	89.6084
5.8978	90.7754
5.8578	91.5545
5.8184	92.1963
5.7794	92.5427
5.741	92.8152
5.7031	92.9404
5.6657	92.9981
5.6288	93.0742
5.5924	93.0418
5.5564	93.0671
5.5209	93.2305
5.4859	93.3201
5.4513	93.4629
5.4171	93.5537
5.3833	93.4998
5.35	93.4802
5.3171	93.5847
5.2846	93.7627
5.2524	93.8857
5.2207	94.0332
5.1893	94.1199
5.1584	94.1956
5.1277	94.2927
5.0975	94.3193
5.0676	94.2888
5.038	94.325
5.0088	94.3328
4.98	94.3162
4.9514	94.3884
4.9232	94.428
4.8953	94.4509
4.8678	94.47
4.8405	94.4753
4.8135	94.53
4.7868	94.5339
4.7605	94.4846
4.7344	94.4851
4.7086	94.4358
4.6831	94.5183
4.6578	94.5115
4.6328	94.5393
4.6081	94.5652
4.5837	94.5691
4.5595	94.6501
4.5356	94.6018
4.5119	94.571
4.4884	94.5818
4.4652	94.5369
4.4423	94.5486
4.4196	94.5422
4.3971	94.5393
4.3748	94.5354
4.3528	94.5881
4.331	94.5525
4.3094	94.5393
4.288	94.5242
4.2668	94.4661
4.2458	94.4988
4.2251	94.4959
4.2045	94.4763
4.1841	94.4651
4.164	94.5247
4.144	94.4749
4.1242	94.5017
4.1046	94.4299
4.0852	94.4251
4.066	94.4202
4.047	94.4246
4.0281	94.4832
4.0094	94.3967
3.9909	94.3523
3.9725	94.3884
3.9544	94.4285
3.9363	94.4553
3.9185	94.4959
3.9008	94.4509
3.8833	94.4255
3.8659	94.3562
3.8487	94.3425
3.8316	94.2932
3.8147	94.325
3.7979	94.2498
3.7813	94.2019
3.7648	94.1091
3.7485	93.9944
3.7323	93.9119
3.7162	93.825
3.7003	93.6838
3.6845	93.5432
3.6689	93.4832
3.6534	93.365
3.638	93.26
3.6227	93.0764
3.6076	92.9143
3.5926	92.8328
3.5777	92.6873
3.563	92.5081
3.5484	92.346
3.5338	92.0881
3.5195	91.8093
3.5052	91.3474
3.491	91.2385
3.477	91.0115
3.463	90.8904
3.4492	90.6179
3.4355	90.2229
3.4219	89.7639
3.4084	89.4768
3.395	89.553
3.3817	89.4451
3.3685	89.3323
3.3554	89.0491
3.3425	88.7757
3.3296	88.5554
3.3168	88.2908
3.3041	88.0296
3.2915	87.7366
3.279	87.4319
3.2666	87.1228
3.2543	86.6951
3.2421	86.3045
3.23	85.9138
3.218	85.4886
3.206	85.1404
3.1942	84.6331
3.1824	84.2771
3.1707	83.8435
3.1591	83.284
3.1476	82.7781
3.1362	82.2215
3.1249	81.8787
3.1136	81.4275
3.1024	80.9099
3.0913	80.5359
3.0803	80.0769
3.0694	79.7576
3.0585	79.2107
3.0477	78.823
3.037	78.4041
3.0264	77.9959
3.0158	77.6014
3.0053	77.1336
2.9949	76.6932
2.9845	76.5242
2.9743	76.1883
2.9641	76.1531
2.9539	75.8455
2.9439	75.8836
2.9339	75.7225
2.9239	75.5047
2.9141	75.6102
2.9043	75.8016
2.8946	75.8904
2.8849	76.033
2.8753	76.1639
2.8658	76.3875
2.8563	76.8982
2.8469	77.4812
2.8375	78.0447
2.8282	78.533
2.819	79.075
2.8098	79.3221
2.8007	79.157
2.7917	78.4109
2.7827	77.2078
2.7738	76.283
2.7649	75.5164
2.7561	76.6326
2.7473	79.8562
2.7386	83.4734
2.7299	86.7312
2.7213	89.5037
2.7128	91.1736
2.7043	92.3474
2.6959	93.0398
2.6875	93.5085
2.6791	93.6648
2.6709	93.8445
2.6626	93.7595
2.6545	93.8025
2.6463	93.7849
2.6382	93.9158
2.6302	93.9451
2.6222	93.8162
2.6143	93.8132
2.6064	93.9226
2.5986	93.9734
2.5908	93.988
2.583	94.1599
2.5753	93.9773
2.5677	93.9236
2.5601	93.7693
2.5525	93.8689
2.545	93.9412
2.5375	93.99
2.5301	93.7361
2.5227	93.5017
2.5154	93.7888
2.5081	93.738
2.5008	93.6716
2.4936	93.7576
2.4864	93.8494
2.4793	93.7302
2.4722	93.6462
2.4651	93.5193
2.4581	93.6072
2.4511	93.7459
2.4442	93.5037
2.4373	93.6013
2.4305	93.449
2.4236	93.5408
2.4169	93.533
2.4101	93.7419
2.4034	93.6658
2.3967	93.6326
2.3901	93.697
2.3835	93.3474
2.377	93.5232
2.3704	93.3201
2.364	93.4548
2.3575	93.5877
2.3511	93.4177
2.3447	93.4998
2.3384	93.4802
2.3321	93.2361
2.3258	93.2498
2.3195	93.4548
2.3133	93.5701
2.3071	93.3123
2.301	93.4412
2.2949	93.4451
2.2888	93.3064
2.2828	93.3709
2.2767	93.6033
2.2708	93.5076
2.2648	93.6248
2.2589	93.4529
2.253	93.6189
2.2471	93.572
2.2413	93.5095
2.2355	93.408
2.2297	93.4685
2.224	93.3357
2.2183	93.5017
2.2126	93.6716
2.207	93.4841
2.2013	93.4236
2.1957	93.4255
2.1902	93.7673
2.1846	93.7048
2.1791	93.4705
2.1736	93.7048
2.1682	93.9607
2.1628	94.2263
2.1574	93.9998
2.152	93.6326
2.1466	93.8162
2.1413	93.8357
2.136	93.9568
2.1308	93.7459
2.1255	94.0271
2.1203	94.1091
2.1151	94.1912
2.11	93.9451
2.1048	93.9724
2.0997	94.4412
2.0946	94.2654
2.0895	94.2185
2.0845	94.4841
2.0795	94.3474
