Name: Phlogopite KMg3Si3Al010(F,OH)2
Type: Mineral
Class: Silicate
Subclass: Phyllosilicate
Particle Size: Coarse
Sample No.: phlogop_1
Owner: JHU
Wavelength Range: TIR
Origin: Burgess, Ontario, Canada via the Smithsonian (sample no.NMNH 124258, obtained from Bruce Hemingway, USGS)
Description: The hand sample consisted of rectangular sheets displaying the typical coppery luster of phlogopite.  Microscopic examination showed the sample to be pure. Particle size was 75 - 250  Micrometers.(Sheet Silicates); (Mica Group) Original ASTER Spectral Library name was jhu.nicolet.mineral.silicate.phyllosilicate.coarse.phlogo1.spectrum.txt
Measurement: Bidirectional reflectance
X Units: Wavelength (micrometers)
Y Units: Reflectance (percent)
wavelength	value
25.0442	7.7055
24.3388	7.9443
23.6719	8.5171
23.0407	9.1333
22.4422	10.1933
21.8741	11.6093
21.334	13.5437
20.8199	13.5776
20.33	12.5446
19.8627	13.4946
19.4163	13.552
18.9896	13.4309
18.5812	14.2053
18.19	15.091
17.815	14.0664
17.4551	10.4773
17.1094	6.4575
16.7772	5.5278
16.4576	5.2839
16.15	5.1384
15.8537	5.0098
15.568	4.926
15.2925	4.9785
15.0265	4.9087
14.7697	4.9761
14.5214	4.9563
14.2814	4.8196
14.0492	4.9106
13.8244	4.9294
13.6067	4.8745
13.3957	5.1228
13.1912	5.5654
12.9929	5.8171
12.8004	6.5732
12.6135	6.9951
12.432	6.7763
12.2557	6.8838
12.0843	7.5442
11.9176	8.7024
11.7555	8.914
11.5977	8.8596
11.444	8.6987
11.2944	7.9179
11.1487	6.6535
11.0067	6.1426
10.8682	6.0742
10.7332	6.238
10.6015	6.5937
10.473	7.0234
10.3476	7.75
10.2251	8.073
10.1056	8.5595
9.9887	10.2783
9.8746	13.101
9.763	14.1071
9.6539	13.0202
9.5472	11.9309
9.4429	11.2722
9.3408	11.5266
9.2409	12.3549
9.1431	12.841
9.0474	12.8728
8.9536	11.4885
8.8618	11.4726
8.7718	11.2871
8.6837	9.4079
8.5973	6.3215
8.5126	3.5024
8.4295	3.5249
8.3481	4.4692
8.2682	5.3303
8.1898	6.1745
8.1129	7.0056
8.0374	7.6411
7.9634	8.1799
7.8906	8.7473
7.8192	9.3503
7.7491	9.821
7.6802	10.2243
7.6126	10.5073
7.5461	10.7187
7.4807	10.9216
7.4165	11.1457
7.3534	11.4421
7.2914	11.7929
7.2303	12.26
7.1703	12.7995
7.1113	13.3723
7.0533	13.9047
6.9962	14.4077
6.94	14.7805
6.8847	15.0415
6.8302	15.2692
6.7767	15.5393
6.7239	15.768
6.672	15.9699
6.6209	16.1171
6.5705	16.2131
6.5209	16.1809
6.4721	15.9157
6.424	15.4924
6.3766	15.0588
6.3299	14.5359
6.2838	14.041
6.2385	13.582
6.1937	13.1699
6.1496	12.8715
6.1062	12.7956
6.0633	12.8842
6.0211	13.1091
5.9794	13.334
5.9383	13.4817
5.8978	13.5783
5.8578	13.6784
5.8184	13.7331
5.7794	14.0012
5.741	14.2954
5.7031	14.4174
5.6657	14.5547
5.6288	14.7905
5.5924	15.0031
5.5564	15.1555
5.5209	15.309
5.4859	15.4953
5.4513	15.8005
5.4171	16.2746
5.3833	16.8686
5.35	17.4951
5.3171	18.1291
5.2846	18.5727
5.2524	18.7565
5.2207	18.7905
5.1893	18.7719
5.1584	18.7236
5.1277	18.6394
5.0975	18.54
5.0676	18.4738
5.038	18.4514
5.0088	18.4826
4.98	18.5637
4.9514	18.6105
4.9232	18.5886
4.8953	18.5891
4.8678	18.675
4.8405	18.8259
4.8135	18.9711
4.7868	19.1684
4.7605	19.3937
4.7344	19.6525
4.7086	19.8615
4.6831	20.0483
4.6578	20.277
4.6328	20.5231
4.6081	20.7441
4.5837	20.9531
4.5595	21.1313
4.5356	21.2272
4.5119	21.2827
4.4884	21.3081
4.4652	21.3295
4.4423	21.331
4.4196	21.3525
4.3971	21.3737
4.3748	21.3945
4.3528	21.4177
4.331	21.4475
4.3094	21.4916
4.288	21.5397
4.2668	21.5644
4.2458	21.6015
4.2251	21.6223
4.2045	21.6245
4.1841	21.6313
4.164	21.6516
4.144	21.6555
4.1242	21.6606
4.1046	21.6828
4.0852	21.6935
4.066	21.7026
4.047	21.7094
4.0281	21.7175
4.0094	21.7209
3.9909	21.7236
3.9725	21.7282
3.9544	21.7607
3.9363	21.768
3.9185	21.791
3.9008	21.8107
3.8833	21.7963
3.8659	21.7756
3.8487	21.758
3.8316	21.7324
3.8147	21.7158
3.7979	21.6914
3.7813	21.6711
3.7648	21.6513
3.7485	21.6274
3.7323	21.5878
3.7162	21.5734
3.7003	21.5407
3.6845	21.5234
3.6689	21.4977
3.6534	21.4772
3.638	21.4738
3.6227	21.4492
3.6076	21.4453
3.5926	21.4123
3.5777	21.3842
3.563	21.3493
3.5484	21.3002
3.5338	21.2363
3.5195	21.1249
3.5052	20.8654
3.491	20.9975
3.477	21.0812
3.463	21.0624
3.4492	20.965
3.4355	20.8444
3.4219	20.5764
3.4084	20.6855
3.395	20.8898
3.3817	20.9228
3.3685	20.9912
3.3554	21.0165
3.3425	20.9799
3.3296	20.9199
3.3168	20.8215
3.3041	20.7292
3.2915	20.6372
3.279	20.5485
3.2666	20.4675
3.2543	20.3813
3.2421	20.3054
3.23	20.2368
3.218	20.204
3.206	20.2258
3.1942	20.2658
3.1824	20.34
3.1707	20.342
3.1591	20.3403
3.1476	20.2565
3.1362	20.1633
3.1249	20.0632
3.1136	19.9992
3.1024	19.9675
3.0913	19.9902
3.0803	20.0209
3.0694	20.0104
3.0585	19.9909
3.0477	19.9836
3.037	19.9633
3.0264	19.9353
3.0158	19.8796
3.0053	19.8261
2.9949	19.8454
2.9845	19.8427
2.9743	19.791
2.9641	19.7446
2.9539	19.6958
2.9439	19.6489
2.9339	19.6052
2.9239	19.5634
2.9141	19.5083
2.9043	19.4892
2.8946	19.486
2.8849	19.4174
2.8753	19.361
2.8658	19.3266
2.8563	19.2751
2.8469	19.228
2.8375	19.1362
2.8282	19.0378
2.819	18.9653
2.8098	18.8999
2.8007	18.8078
2.7917	18.5776
2.7827	18.3137
2.7738	18.2126
2.7649	17.8715
2.7561	17.3703
2.7473	16.8718
2.7386	16.0654
2.7299	15.5915
2.7213	15.7392
2.7128	15.6745
2.7043	13.6159
2.6959	12.2336
2.6875	14.0542
2.6791	18.332
2.6709	19.781
2.6626	20.0017
2.6545	19.9641
2.6463	19.8078
2.6382	19.7243
2.6302	19.7878
2.6222	19.8964
2.6143	19.9367
2.6064	19.9296
2.5986	19.9553
2.5908	19.9372
2.583	19.8591
2.5753	19.8339
2.5677	19.802
2.5601	19.7812
2.5525	19.8291
2.545	19.8637
2.5375	19.9289
2.5301	19.9487
2.5227	19.9382
2.5154	19.8574
2.5081	19.8298
2.5008	19.8596
2.4936	19.9001
2.4864	19.8906
2.4793	19.8996
2.4722	19.8891
2.4651	19.8188
2.4581	19.7983
2.4511	19.7182
2.4442	19.6049
2.4373	19.6403
2.4305	19.6828
2.4236	19.7133
2.4169	19.7009
2.4101	19.632
2.4034	19.5703
2.3967	19.4377
2.3901	19.1779
2.3835	18.873
2.377	18.8874
2.3704	19.1406
2.364	19.3854
2.3575	19.4541
2.3511	19.5407
2.3447	19.4372
2.3384	19.2226
2.3321	18.7685
2.3258	18.4633
2.3195	18.6132
2.3133	18.9162
2.3071	19.2741
2.301	19.6074
2.2949	19.8532
2.2888	19.9846
2.2828	20.173
2.2767	20.3627
2.2708	20.4362
2.2648	20.5056
2.2589	20.5285
2.253	20.4057
2.2471	20.2775
2.2413	20.4455
2.2355	20.7333
2.2297	20.8935
2.224	20.9697
2.2183	21.0446
2.2126	21.0209
2.207	21.0524
2.2013	21.0834
2.1957	21.0895
2.1902	21.1364
2.1846	21.1174
2.1791	21.0966
2.1736	21.1364
2.1682	21.1745
2.1628	21.2138
2.1574	21.2338
2.152	21.184
2.1466	21.1718
2.1413	21.2553
2.136	21.2077
2.1308	21.1877
2.1255	21.3071
2.1203	21.2875
2.1151	21.3037
2.11	21.3295
2.1048	21.2893
2.0997	21.2458
2.0946	21.2805
2.0895	21.2902
2.0845	21.3159
2.0795	21.3403
