Name: Almandine Garnet Fe_3Al_2(SiO_4)_3
Type: Mineral
Class: Silicate
Subclass: Nesosilicate
Particle Size: Coarse
Sample No.: NS-4A
Owner: JPL
Wavelength Range: TIR
Origin: USA, Arizona, Graham County, Stanley Butte
Description: Particle size was 125-500um.Collected by Burminco Original ASTER Spectral Library name was jpl.nicolet.mineral.silicate.nesosilicate.coarse.ns04a.spectrum.txt
Measurement: Hemispherical reflectance
X Units: Wavelength (micrometers)
Y Units: Reflectance (percent)
wavelength	value
15.3853	1.0169
15.1161	1.2802
14.8563	1.8465
14.6052	2.1391
14.3624	2.6455
14.1276	2.8817
13.9004	3.8273
13.6803	3.9238
13.4671	4.4779
13.2604	5.0795
13.06	5.5337
12.8656	5.9295
12.6769	6.8838
12.4936	7.5887
12.3155	8.7259
12.1425	9.8952
11.9742	11.9851
11.8106	14.6784
11.6513	19.7134
11.4963	27.1907
11.3454	24.0174
11.1983	23.1614
11.0551	32.8273
10.9154	27.3585
10.7793	11.6762
10.6465	4.3759
10.5169	11.2334
10.3904	28.2301
10.267	39.9017
10.1464	42.3877
10.0287	42.2539
9.9136	40.6405
9.8012	36.5202
9.6913	29.106
9.5838	17.2635
9.4787	8.5357
9.3758	3.4322
9.2752	1.2308
9.1767	0.5765
9.0803	0.5322
8.9858	0.4314
8.8934	0.4244
8.8028	0.5519
8.714	0.5598
8.627	0.7732
8.5417	0.6236
8.4581	0.819
8.3761	0.8744
8.2957	1.157
8.2169	1.2705
8.1395	1.0854
8.0635	1.4326
7.989	1.3829
7.9158	1.6409
7.8439	1.746
7.7734	1.8158
7.7041	1.9921
7.636	2.1392
7.5691	2.109
7.5034	2.3128
7.4388	2.3476
7.3753	2.418
7.3129	2.3545
7.2515	2.3841
7.1912	2.576
7.1318	2.6593
7.0734	2.8079
7.016	3.0949
6.9595	3.3093
6.9039	3.3523
6.8492	3.3924
6.7953	3.3376
6.7423	3.308
6.6901	3.4918
6.6387	3.9332
6.5881	4.1612
6.5382	4.4054
6.4892	5.0217
6.4408	4.9302
6.3931	5.3745
6.3462	6.0184
6.2999	6.3469
6.2543	6.8065
6.2094	7.0813
6.1651	7.1431
6.1214	7.3137
6.0784	7.4029
6.0359	7.1136
5.994	7.1318
5.9527	6.6399
5.912	6.0164
5.8718	5.1278
5.8322	4.2764
5.7931	3.6687
5.7545	3.3892
5.7165	3.1219
5.6789	3.1345
5.6418	3.16
5.6052	3.1741
5.5691	3.1246
5.5334	3.1636
5.4982	3.2054
5.4635	3.4354
5.4291	3.4524
5.3952	3.6302
5.3618	3.8685
5.3287	3.8752
5.2961	3.8847
5.2638	4.0479
5.2319	4.2132
5.2004	4.5123
5.1693	4.8209
5.1386	5.3165
5.1082	5.8497
5.0782	6.869
5.0485	7.9058
5.0192	8.8928
4.9902	9.5547
4.9616	10.0723
4.9332	10.5738
4.9052	11.1352
4.8776	11.2982
4.8502	11.5746
4.8231	12.0043
4.7963	12.1905
4.7699	12.7698
4.7437	13.1333
4.7178	13.5125
4.6922	13.8297
4.6668	14.14
4.6418	14.408
4.617	14.6378
4.5924	15.075
4.5681	15.4118
4.5441	15.6173
4.5203	15.9497
4.4968	16.2345
4.4735	16.6641
4.4505	16.9109
4.4277	17.3028
4.4051	17.5733
4.3828	18.0271
4.3607	18.3102
4.3388	18.7178
4.3171	19.1359
4.2956	19.342
4.2744	19.8183
4.2534	20.2169
4.2325	20.6343
4.2119	20.9524
4.1915	21.3852
4.1712	21.7491
4.1512	22.183
4.1313	22.6842
4.1117	23.0507
4.0922	23.5207
4.0729	24.0546
4.0538	24.2914
4.0349	24.84
4.0161	25.2818
3.9976	25.5065
3.9792	25.883
3.9609	26.2219
3.9428	26.658
3.9249	26.9097
3.9072	27.2011
3.8896	27.2992
3.8722	27.3604
3.8549	27.6456
3.8378	27.8664
3.8208	28.0028
3.804	28.304
3.7873	28.6442
3.7708	29.0839
3.7544	29.5916
3.7382	30.0868
3.7221	30.4942
3.7061	31.1365
3.6903	31.574
3.6746	31.9357
3.659	32.4379
3.6436	32.943
3.6283	33.2935
3.6131	33.792
3.5981	34.1372
3.5832	34.618
3.5684	34.9933
3.5537	35.4155
3.5391	35.8952
3.5247	36.2863
3.5104	36.5163
3.4962	36.8756
3.4821	37.1451
3.4681	37.468
3.4543	37.7778
3.4405	38.203
3.4269	38.5515
3.4133	38.5315
3.3999	38.9125
3.3866	39.1188
3.3733	39.293
3.3602	39.3704
3.3472	39.7616
3.3343	39.797
3.3215	39.942
3.3088	40.0964
3.2961	40.3714
3.2836	40.3489
3.2712	40.4628
3.2588	40.4653
3.2466	40.5475
3.2345	40.5439
3.2224	40.3799
3.2104	40.4598
3.1985	40.2192
3.1867	40.1922
3.175	40.135
3.1634	39.8993
3.1519	39.715
3.1404	39.6353
3.129	39.3931
3.1178	39.2214
3.1065	38.9169
3.0954	38.772
3.0844	38.5165
3.0734	38.2433
3.0625	38.1475
3.0517	37.766
3.041	37.5006
3.0303	37.1987
3.0197	36.8388
3.0092	36.5039
2.9987	36.0383
2.9884	35.7408
2.9781	35.2984
2.9678	34.8886
2.9577	34.5486
2.9476	34.024
2.9376	33.7872
2.9276	33.2929
2.9177	32.9019
2.9079	32.1761
2.8982	31.8752
2.8885	31.5308
2.8789	31.2404
2.8693	30.6275
2.8598	30.1488
2.8504	29.7569
2.841	29.3301
2.8317	28.8124
2.8224	28.4367
2.8133	27.8752
2.8041	27.7868
2.7951	27.3591
2.786	27.1371
2.7771	26.71
2.7682	26.528
2.7594	25.9033
2.7506	25.8195
2.7418	26.0482
2.7332	25.6398
2.7246	26.5933
2.716	26.7205
2.7075	27.3082
2.699	27.4323
2.6906	27.2882
2.6823	26.9973
2.674	26.5883
2.6657	27.0771
2.6575	25.6725
2.6494	25.1721
2.6413	24.8065
2.6332	24.5987
2.6252	24.0075
2.6173	24.0436
2.6094	23.5256
2.6015	22.8884
2.5937	23.306
2.5859	22.1591
2.5782	21.836
2.5706	21.6052
2.5629	21.2953
2.5554	20.7975
2.5478	20.4225
2.5403	20.1105
2.5329	19.8135
2.5255	19.6061
2.5181	19.2644
2.5108	19.1235
2.5035	18.7865
2.4963	18.5703
2.4891	18.2304
2.482	18.2029
2.4749	17.9815
2.4678	17.7485
2.4608	17.6366
2.4538	17.3899
2.4468	17.3223
2.4399	17.1055
2.4331	17.1091
2.4262	16.7913
2.4194	16.8264
2.4127	16.8799
2.4059	16.4718
2.3993	16.5089
2.3926	16.3566
2.386	16.1238
2.3795	16.0984
2.3729	15.9411
2.3664	16.0193
2.36	15.7022
2.3535	15.9447
2.3471	15.5996
2.3408	15.8721
2.3345	15.6429
2.3282	15.7229
2.3219	15.557
2.3157	15.6244
2.3095	15.4758
2.3034	15.583
2.2972	15.6185
2.2911	15.3324
2.2851	15.7408
2.279	15.4141
2.2731	15.5928
2.2671	15.7445
2.2612	15.7736
2.2553	15.7225
2.2494	15.709
2.2435	15.4861
2.2377	15.6007
2.232	15.5629
2.2262	15.7537
2.2205	15.9225
2.2148	16.0053
2.2091	15.88
2.2035	15.9454
2.1979	15.9475
2.1923	16.0273
2.1868	16.0148
2.1812	15.9652
2.1758	16.3023
2.1703	16.5623
2.1649	16.4941
2.1595	16.5473
2.1541	16.3463
2.1487	16.2157
2.1434	16.7883
2.1381	16.7444
2.1328	16.6991
2.1275	16.4829
2.1223	16.8961
2.1171	16.7783
2.112	17.0312
2.1068	16.9843
2.1017	17.3561
2.0966	16.9645
2.0915	17.3105
2.0865	17.1785
2.0814	17.4982
2.0764	17.6367
2.0715	17.4675
2.0665	17.4859
2.0616	17.8323
2.0567	17.7419
2.0518	17.5633
2.0469	17.7673
2.0421	17.6917
2.0373	17.8785
2.0325	17.7756
2.0277	17.6379
2.0229	17.9144
2.0182	17.6344
2.0135	17.459
2.0088	17.5327
2.0042	17.8408
