Name: Titanite (Sphene) CaTiSiO_5
Type: Mineral
Class: Silicate
Subclass: Nesosilicate
Particle Size: Medium
Sample No.: NS-7A
Owner: JPL
Wavelength Range: VSWIR
Origin: Brazil, Minas Gerais, Capelinha.
Description: Particle size was 45-125um.Collected by:  JPL Original ASTER Spectral Library name was jpl.perkin.mineral.silicate.nesosilicate.medium.ns07a.spectrum.txt
Measurement: Hemispherical reflectance
X Units: Wavelength (micrometers)
Y Units: Reflectance (percent)
wavelength	value
2.5	59.1978
2.494	59.0139
2.488	59.2723
2.482	59.8315
2.476	60.6427
2.47	61.5492
2.464	62.413
2.458	63.2612
2.452	63.8745
2.446	64.2666
2.44	64.0541
2.434	62.8969
2.428	60.7505
2.422	57.593
2.416	53.9934
2.41	50.7143
2.404	48.6963
2.398	48.3295
2.392	50.3417
2.386	54.3134
2.38	59.2235
2.374	63.826
2.368	67.2708
2.362	69.407
2.356	70.5325
2.35	71.1833
2.344	71.2067
2.338	71.1053
2.332	70.5839
2.326	69.804
2.32	68.5897
2.314	67.2699
2.308	66.0791
2.302	65.2347
2.296	64.962
2.29	64.9617
2.284	64.6474
2.278	63.3242
2.272	60.8254
2.266	58.3407
2.26	57.7242
2.254	59.2024
2.248	61.0252
2.242	61.8321
2.236	61.645
2.23	61.1566
2.224	60.6637
2.218	60.619
2.212	59.8364
2.206	56.8538
2.2	54.3924
2.194	57.0154
2.188	63.0434
2.182	68.1275
2.176	71.3947
2.17	73.5524
2.164	74.6089
2.158	75.4356
2.152	76.0875
2.146	76.4511
2.14	76.6532
2.134	76.6697
2.128	76.5827
2.122	76.3352
2.116	76.1526
2.11	75.9659
2.104	75.7469
2.098	75.4878
2.092	75.5961
2.086	75.5388
2.08	75.5629
2.074	75.4778
2.068	75.5406
2.062	75.5217
2.056	75.4581
2.05	75.5034
2.044	75.6352
2.038	75.5536
2.032	75.6237
2.026	75.5534
2.02	75.6477
2.014	75.6599
2.008	75.5365
2.002	75.5752
1.996	75.4302
1.99	75.2654
1.984	75.2106
1.978	75.0175
1.972	74.873
1.966	74.7317
1.96	74.6015
1.954	74.5107
1.948	74.4854
1.942	74.3482
1.936	74.2805
1.93	74.2987
1.924	74.1824
1.918	74.068
1.912	74.0292
1.906	73.9779
1.9	74.1817
1.894	74.2858
1.888	74.3178
1.882	74.4384
1.876	74.4451
1.87	74.2874
1.864	74.2898
1.858	74.1285
1.852	74.0699
1.846	73.8896
1.84	73.8772
1.834	73.7994
1.828	73.7063
1.822	73.6525
1.816	73.6463
1.81	73.543
1.804	73.5412
1.798	73.5446
1.792	73.3068
1.786	73.2431
1.78	73.1683
1.774	73.1885
1.768	73.1843
1.762	73.1358
1.756	73.1065
1.75	73.043
1.744	72.9833
1.738	72.9857
1.732	72.8614
1.726	72.8563
1.72	72.7497
1.714	72.7149
1.708	72.6548
1.702	72.5459
1.696	72.4977
1.69	72.4276
1.684	72.3778
1.678	72.3255
1.672	72.2256
1.666	72.089
1.66	72.1994
1.654	72.0953
1.648	71.986
1.642	71.9225
1.636	71.9118
1.63	71.8359
1.624	71.8039
1.618	71.7676
1.612	71.6829
1.606	71.6145
1.6	71.6447
1.594	71.6024
1.588	71.6065
1.582	71.5352
1.576	71.3809
1.57	71.4085
1.564	71.3275
1.558	71.3328
1.552	71.3017
1.546	71.2025
1.54	71.1918
1.534	71.1642
1.528	71.1206
1.522	71.081
1.516	70.9968
1.51	70.9837
1.504	70.8766
1.498	70.7637
1.492	70.5329
1.486	70.1727
1.48	69.7829
1.474	69.7638
1.468	70.1425
1.462	70.5311
1.456	70.6469
1.45	70.8467
1.444	70.8986
1.438	70.9412
1.432	71.0775
1.426	71.0227
1.42	71.0576
1.414	71.1171
1.408	71.1341
1.402	71.2499
1.396	71.4124
1.39	71.4969
1.384	71.5703
1.378	71.6907
1.372	71.6686
1.366	71.8501
1.36	71.8272
1.354	71.9451
1.348	71.9552
1.342	72.1648
1.336	72.2272
1.33	72.3021
1.324	72.4284
1.318	72.5161
1.312	72.6619
1.306	72.7234
1.3	72.8259
1.294	72.918
1.288	73.0293
1.282	73.1725
1.276	73.3372
1.27	73.412
1.264	73.5292
1.258	73.7728
1.252	73.8415
1.246	74.0227
1.24	74.1215
1.234	74.2325
1.228	74.3944
1.222	74.5514
1.216	74.6515
1.21	74.8014
1.204	74.9227
1.198	75.1265
1.192	75.2486
1.186	75.4822
1.18	75.6156
1.174	75.7483
1.168	75.8226
1.162	76.0105
1.156	76.2593
1.15	76.3267
1.144	76.5436
1.138	76.7215
1.132	76.8275
1.126	76.9382
1.12	77.0389
1.114	77.2019
1.108	77.3492
1.102	77.6348
1.096	77.6643
1.09	77.9065
1.084	77.9843
1.078	78.2751
1.072	78.4528
1.066	78.6055
1.06	78.7204
1.054	79.0289
1.048	79.1595
1.042	79.4004
1.036	79.5176
1.03	79.8199
1.024	79.9081
1.018	80.1739
1.012	80.3805
1.006	80.5839
1	80.8175
0.994	81.0367
0.988	81.3359
0.982	81.4409
0.976	81.5595
0.97	81.7118
0.964	82.0428
0.958	82.1749
0.952	82.4193
0.946	82.5859
0.94	82.7042
0.934	82.8114
0.928	83.0276
0.922	83.0411
0.916	83.2153
0.91	83.2869
0.904	83.3741
0.898	83.5105
0.892	83.5797
0.886	83.642
0.88	83.7219
0.874	83.7206
0.868	83.7981
0.862	83.8054
0.856	83.5647
0.85	83.6662
0.844	83.7562
0.838	83.9518
0.832	83.9268
0.826	83.9497
0.82	83.9779
0.814	84.0085
0.808	84.004
0.802	83.9771
0.796	83.976
0.79	83.9267
0.784	83.8757
0.778	83.8103
0.772	83.6713
0.766	83.6667
0.76	83.6038
0.754	83.4423
0.748	83.3715
0.742	83.1667
0.736	83.0045
0.73	82.8774
0.724	82.6873
0.718	82.4419
0.712	82.157
0.706	81.8414
0.7	81.536
0.694	81.152
0.688	80.7038
0.682	80.1241
0.676	79.4937
0.67	78.7363
0.664	77.9058
0.658	77.0492
0.652	76.1587
0.646	75.2137
0.64	74.3161
0.634	73.4731
0.628	72.7701
0.622	72.1894
0.616	71.747
0.61	71.4715
0.604	71.3549
0.598	71.4041
0.592	71.5448
0.586	71.7442
0.58	71.9845
0.574	72.2468
0.568	72.4699
0.562	72.6668
0.556	72.674
0.55	72.6019
0.544	72.402
0.538	72.0822
0.532	71.6187
0.526	70.9881
0.52	70.1439
0.514	69.2118
0.508	68.0609
0.502	66.7142
0.496	65.2405
0.49	63.6219
0.484	61.8459
0.478	60.2385
0.472	58.5417
0.466	56.6851
0.46	54.5719
0.454	52.1649
0.448	49.775
0.442	47.1602
0.436	44.2932
0.43	41.2179
0.424	37.9971
0.418	34.7577
0.412	31.4835
0.406	28.2028
0.4	24.8875
