Name: Gahnite ZnAl_2O_4
Type: Mineral
Class: Oxide
Subclass: None
Particle Size: Fine
Sample No.: O-11A
Owner: JPL
Wavelength Range: TIR
Origin: Nigeria, Kaduna, Jemaa, Godogodo Mine
Description: Particle size was 0-45um.Collected by New, David Original ASTER Spectral Library name was jpl.nicolet.mineral.oxide.none.fine.o11a.spectrum.txt
Measurement: Hemispherical reflectance
X Units: Wavelength (micrometers)
Y Units: Reflectance (percent)
wavelength	value
15.3853	12.8634
15.1161	17.3316
14.8563	18.417
14.6052	17.8128
14.3624	18.0915
14.1276	18.3184
13.9004	17.7092
13.6803	17.3113
13.4671	16.4765
13.2604	15.3986
13.06	14.5524
12.8656	14.0052
12.6769	13.1633
12.4936	11.9563
12.3155	9.9973
12.1425	7.8453
11.9742	5.6371
11.8106	5.5068
11.6513	6.4216
11.4963	4.7619
11.3454	3.2728
11.1983	2.0418
11.0551	1.3915
10.9154	1.1736
10.7793	1.0998
10.6465	0.9879
10.5169	1.3036
10.3904	1.4027
10.267	1.7632
10.1464	1.8926
10.0287	2.2436
9.9136	2.4232
9.8012	2.9967
9.6913	3.5109
9.5838	3.9086
9.4787	5.1156
9.3758	6.8393
9.2752	8.0567
9.1767	8.7668
9.0803	9.061
8.9858	9.7976
8.8934	10.8844
8.8028	11.4112
8.714	11.9032
8.627	13.2321
8.5417	16.6171
8.4581	19.677
8.3761	21.9287
8.2957	23.9125
8.2169	25.9197
8.1395	27.8976
8.0635	29.6249
7.989	31.1257
7.9158	31.4474
7.8439	31.4002
7.7734	32.145
7.7041	35.5114
7.636	39.1748
7.5691	41.3908
7.5034	42.606
7.4388	43.0649
7.3753	44.1414
7.3129	44.6393
7.2515	44.6054
7.1912	44.4796
7.1318	43.0248
7.0734	42.4197
7.016	43.4785
6.9595	47.048
6.9039	49.3973
6.8492	49.986
6.7953	50.5876
6.7423	52.0052
6.6901	54.7807
6.6387	57.7682
6.5881	57.8791
6.5382	57.9223
6.4892	59.4767
6.4408	58.319
6.3931	57.9329
6.3462	58.4411
6.2999	58.0541
6.2543	58.4717
6.2094	59.0653
6.1651	60.2796
6.1214	61.7332
6.0784	62.6267
6.0359	62.7658
5.994	63.7911
5.9527	64.0138
5.912	64.702
5.8718	65.9664
5.8322	66.9687
5.7931	67.3426
5.7545	68.082
5.7165	69.3314
5.6789	70.3115
5.6418	70.7437
5.6052	70.0356
5.5691	70.2428
5.5334	70.5677
5.4982	71.1139
5.4635	71.8837
5.4291	71.8505
5.3952	70.8517
5.3618	69.8612
5.3287	69.9937
5.2961	70.4744
5.2638	71.3605
5.2319	72.5344
5.2004	73.3059
5.1693	73.452
5.1386	73.361
5.1082	73.5345
5.0782	73.4392
5.0485	73.4578
5.0192	73.6407
4.9902	73.8286
4.9616	74.399
4.9332	74.9055
4.9052	75.3546
4.8776	76.114
4.8502	76.3143
4.8231	76.4704
4.7963	76.6741
4.7699	76.7778
4.7437	76.8487
4.7178	76.9929
4.6922	76.9917
4.6668	77.0564
4.6418	77.2423
4.617	77.2927
4.5924	77.4459
4.5681	77.5122
4.5441	77.558
4.5203	77.5083
4.4968	77.4394
4.4735	77.4257
4.4505	77.4828
4.4277	77.5643
4.4051	77.5208
4.3828	77.6648
4.3607	77.6433
4.3388	77.5628
4.3171	77.5624
4.2956	77.4931
4.2744	77.4096
4.2534	77.4268
4.2325	77.3359
4.2119	77.4383
4.1915	77.5287
4.1712	77.4988
4.1512	77.4281
4.1313	77.4496
4.1117	77.4083
4.0922	77.3151
4.0729	77.3073
4.0538	77.2236
4.0349	77.1021
4.0161	76.9712
3.9976	76.8143
3.9792	76.6903
3.9609	76.4905
3.9428	76.3575
3.9249	76.2681
3.9072	76.0043
3.8896	75.8054
3.8722	75.5809
3.8549	75.2399
3.8378	75.0831
3.8208	74.7802
3.804	74.454
3.7873	74.1894
3.7708	73.752
3.7544	73.514
3.7382	72.9993
3.7221	72.67
3.7061	72.2858
3.6903	71.8494
3.6746	71.4933
3.659	71.0252
3.6436	70.5415
3.6283	70.0006
3.6131	69.5187
3.5981	68.9305
3.5832	68.3075
3.5684	67.5689
3.5537	66.8653
3.5391	65.8756
3.5247	63.8641
3.5104	56.6308
3.4962	58.2097
3.4821	59.7644
3.4681	59.7989
3.4543	57.9413
3.4405	55.3497
3.4269	49.8743
3.4133	50.5025
3.3999	53.8685
3.3866	54.3386
3.3733	54.644
3.3602	56.1065
3.3472	56.215
3.3343	55.5583
3.3215	54.8579
3.3088	54.15
3.2961	53.3276
3.2836	52.4141
3.2712	51.6842
3.2588	50.7175
3.2466	49.8705
3.2345	48.9851
3.2224	48.0344
3.2104	47.2119
3.1985	46.4979
3.1867	45.4784
3.175	44.6649
3.1634	43.6321
3.1519	42.7347
3.1404	41.9685
3.129	41.0785
3.1178	39.9861
3.1065	39.2752
3.0954	38.3237
3.0844	37.4141
3.0734	36.6387
3.0625	35.8025
3.0517	34.6824
3.041	34.0837
3.0303	33.1967
3.0197	32.3193
3.0092	31.5725
2.9987	30.6907
2.9884	30.0038
2.9781	29.243
2.9678	28.4292
2.9577	27.835
2.9476	27.0822
2.9376	26.2921
2.9276	25.7065
2.9177	25.0463
2.9079	24.5335
2.8982	23.9037
2.8885	23.4004
2.8789	22.6075
2.8693	22.0398
2.8598	21.756
2.8504	21.043
2.841	20.4665
2.8317	19.9142
2.8224	19.7111
2.8133	19.2264
2.8041	18.9438
2.7951	18.6157
2.786	18.2739
2.7771	17.8572
2.7682	17.5967
2.7594	17.1892
2.7506	17.1355
2.7418	17.213
2.7332	16.9059
2.7246	17.2472
2.716	16.9172
2.7075	16.8704
2.699	16.9216
2.6906	17.2143
2.6823	17.4413
2.674	17.4469
2.6657	17.8002
2.6575	17.3937
2.6494	17.6293
2.6413	17.7802
2.6332	17.7558
2.6252	17.843
2.6173	18.1089
2.6094	18.0669
2.6015	17.9265
2.5937	18.4247
2.5859	18.1207
2.5782	18.2222
2.5706	18.2377
2.5629	18.2525
2.5554	18.0559
2.5478	18.207
2.5403	18.1704
2.5329	18.1457
2.5255	18.2293
2.5181	18.1294
2.5108	18.2627
2.5035	18.1938
2.4963	18.1178
2.4891	18.1283
2.482	18.1957
2.4749	18.167
2.4678	18.2788
2.4608	18.1252
2.4538	18.2455
2.4468	18.1117
2.4399	18.1696
2.4331	18.2634
2.4262	18.426
2.4194	18.458
2.4127	18.384
2.4059	18.4726
2.3993	18.3158
2.3926	18.5662
2.386	18.6279
2.3795	18.4875
2.3729	18.5182
2.3664	18.5814
2.36	18.4755
2.3535	18.3302
2.3471	18.4263
2.3408	18.3047
2.3345	18.4879
2.3282	18.3925
2.3219	18.2109
2.3157	18.1947
2.3095	18.1769
2.3034	18.082
2.2972	18.05
2.2911	17.7955
2.2851	17.8782
2.279	17.6449
2.2731	17.691
2.2671	17.7744
2.2612	17.4772
2.2553	17.3903
2.2494	17.1226
2.2435	16.8723
2.2377	16.8943
2.232	17.0589
2.2262	16.8484
2.2205	16.5779
2.2148	16.4005
2.2091	16.2944
2.2035	16.2326
2.1979	16.1257
2.1923	15.9496
2.1868	15.6622
2.1812	15.6395
2.1758	15.986
2.1703	15.4583
2.1649	15.2875
2.1595	15.3376
2.1541	15.2706
2.1487	15.2672
2.1434	15.1091
2.1381	15.0566
2.1328	15.1257
2.1275	14.7596
2.1223	14.7589
2.1171	14.7911
2.112	14.6525
2.1068	14.9433
2.1017	14.7198
2.0966	14.9316
2.0915	14.5938
2.0865	14.508
2.0814	14.7934
2.0764	13.8102
2.0715	14.9113
2.0665	14.5083
2.0616	13.9724
2.0567	14.8152
2.0518	14.5795
2.0469	14.4944
2.0421	14.7548
2.0373	14.5337
2.0325	14.6512
2.0277	14.8307
2.0229	14.5923
2.0182	14.873
2.0135	14.9437
2.0088	14.9254
2.0042	15.0797
