Name: Topaz Al2SiO4(F,OH)2
Type: Mineral
Class: Silicate
Subclass: Nesosilicate
Particle Size: Coarse
Sample No.: topaz_4
Owner: JHU
Wavelength Range: TIR
Origin: Wsakos, Namibia via Don Hoover, USGS
Description: The sample consisted of one small colorless fragment less than a centimeter across.  Petrographically the sample appeared pure and clean but contains obvious fluid inclusions. Particle size was 75 - 250  Micrometers.(Isolated tetrahedra) Original ASTER Spectral Library name was jhu.nicolet.mineral.silicate.nesosilicate.coarse.topaz4.spectrum.txt
Measurement: Bidirectional reflectance
X Units: Wavelength (micrometers)
Y Units: Reflectance (percent)
wavelength	value
25.0442	2.771
24.3388	2.2734
23.6719	2.8772
23.0407	3.687
22.4422	5.7324
21.8741	8.2046
21.334	5.9087
20.8199	4.7956
20.33	4.4807
19.8627	4.8057
19.4163	2.8921
18.9896	3.4788
18.5812	3.2515
18.19	4.2121
17.815	1.8721
17.4551	1.1912
17.1094	1.5513
16.7772	1.8347
16.4576	3.7605
16.15	6.8105
15.8537	7.393
15.568	7.2546
15.2925	7.0371
15.0265	6.342
14.7697	3.7075
14.5214	1.8813
14.2814	0.375
14.0492	0.2927
13.8244	0.2734
13.6067	0.4873
13.3957	0.6399
13.1912	0.8096
12.9929	0.9309
12.8004	1.0369
12.6135	1.2007
12.432	1.3752
12.2557	1.6423
12.0843	2.0034
11.9176	2.5747
11.7555	3.4697
11.5977	5.3017
11.444	7.0093
11.2944	7.531
11.1487	7.3247
11.0067	6.875
10.8682	6.803
10.7332	6.6013
10.6015	7.8406
10.473	8.1892
10.3476	8.1362
10.2251	6.7717
10.1056	4.9975
9.9887	6.2729
9.8746	6.8227
9.763	5.9629
9.6539	5.4514
9.5472	5.2058
9.4429	4.5312
9.3408	3.6108
9.2409	2.5456
9.1431	1.5205
9.0474	0.781
8.9536	0.3052
8.8618	0.0933
8.7718	0.0461
8.6837	0.0962
8.5973	0.2832
8.5126	0.1743
8.4295	0.0662
8.3481	0.1155
8.2682	0.1726
8.1898	0.2595
8.1129	0.3359
8.0374	0.4355
7.9634	0.5559
7.8906	0.7205
7.8192	0.9075
7.7491	1.0776
7.6802	1.1765
7.6126	1.2742
7.5461	1.3799
7.4807	1.4944
7.4165	1.616
7.3534	1.8215
7.2914	2.0188
7.2303	2.1597
7.1703	2.279
7.1113	2.4131
7.0533	2.4487
6.9962	2.499
6.94	2.6472
6.8847	2.8276
6.8302	2.9363
6.7767	2.9221
6.7239	2.916
6.672	3.0439
6.6209	3.2439
6.5705	3.427
6.5209	3.5222
6.4721	3.6011
6.424	3.7488
6.3766	3.8994
6.3299	4.0703
6.2838	4.155
6.2385	4.2595
6.1937	4.4136
6.1496	4.5596
6.1062	4.6619
6.0633	4.8696
6.0211	5.1389
5.9794	5.3376
5.9383	5.1929
5.8978	4.7827
5.8578	4.4084
5.8184	3.8535
5.7794	3.6492
5.741	3.8396
5.7031	3.824
5.6657	3.4036
5.6288	2.7617
5.5924	1.9665
5.5564	1.4441
5.5209	1.303
5.4859	1.3479
5.4513	1.4763
5.4171	1.6111
5.3833	1.5649
5.35	1.5723
5.3171	1.7444
5.2846	1.9941
5.2524	2.4136
5.2207	3.2034
5.1893	4.0068
5.1584	4.5974
5.1277	5.019
5.0975	5.4704
5.0676	5.9297
5.038	6.2258
5.0088	6.3972
4.98	6.2639
4.9514	6.0427
4.9232	6.6243
4.8953	7.6321
4.8678	8.3271
4.8405	8.739
4.8135	9.0136
4.7868	9.1914
4.7605	9.2812
4.7344	9.3352
4.7086	9.3874
4.6831	9.4292
4.6578	9.4463
4.6328	9.4314
4.6081	9.4587
4.5837	9.5342
4.5595	9.5967
4.5356	9.6982
4.5119	9.7834
4.4884	9.8442
4.4652	9.8774
4.4423	9.8943
4.4196	9.895
4.3971	9.8281
4.3748	9.6118
4.3528	8.9905
4.331	7.5356
4.3094	6.4104
4.288	8.1365
4.2668	9.2273
4.2458	9.7524
4.2251	9.9873
4.2045	10.1003
4.1841	10.1509
4.164	10.1892
4.144	10.2097
4.1242	10.2282
4.1046	10.2475
4.0852	10.2856
4.066	10.2925
4.047	10.2597
4.0281	10.0871
4.0094	10.2031
3.9909	10.3196
3.9725	10.3498
3.9544	10.3572
3.9363	10.3452
3.9185	10.3335
3.9008	10.2607
3.8833	10.1328
3.8659	10.0088
3.8487	9.9612
3.8316	9.9907
3.8147	10.0393
3.7979	10.0847
3.7813	10.1489
3.7648	10.2019
3.7485	10.239
3.7323	10.2492
3.7162	10.0454
3.7003	10.2466
3.6845	10.2131
3.6689	10.1755
3.6534	10.1318
3.638	10.102
3.6227	10.0849
3.6076	10.093
3.5926	10.0925
3.5777	10.0888
3.563	10.0801
3.5484	10.0835
3.5338	10.0925
3.5195	10.0732
3.5052	9.9646
3.491	10.0613
3.477	10.1057
3.463	10.1142
3.4492	10.0764
3.4355	10.0095
3.4219	9.8745
3.4084	9.9563
3.395	10.0608
3.3817	10.0757
3.3685	10.1198
3.3554	10.1533
3.3425	10.1635
3.3296	10.1465
3.3168	10.1216
3.3041	10.1064
3.2915	10.0989
3.279	10.0771
3.2666	10.0486
3.2543	10.0083
3.2421	9.9731
3.23	9.9572
3.218	9.9507
3.206	9.9082
3.1942	9.8762
3.1824	9.8435
3.1707	9.7766
3.1591	9.7614
3.1476	9.7402
3.1362	9.7175
3.1249	9.6946
3.1136	9.6277
3.1024	9.5473
3.0913	9.4148
3.0803	9.3159
3.0694	9.249
3.0585	9.126
3.0477	8.9309
3.037	8.6723
3.0264	8.5371
3.0158	8.3005
3.0053	7.9533
2.9949	7.8093
2.9845	7.5149
2.9743	7.5444
2.9641	7.5139
2.9539	7.8061
2.9439	8.0351
2.9339	8.1069
2.9239	7.8891
2.9141	7.8049
2.9043	7.6977
2.8946	7.6194
2.8849	7.6723
2.8753	7.5217
2.8658	7.5224
2.8563	8.1057
2.8469	8.3872
2.8375	8.4109
2.8282	8.1362
2.819	8.1618
2.8098	8.1438
2.8007	7.9075
2.7917	7.5317
2.7827	7.071
2.7738	6.4863
2.7649	5.3186
2.7561	3.0146
2.7473	0.8525
2.7386	0.5168
2.7299	2.5471
2.7213	5.1914
2.7128	6.7102
2.7043	7.5505
2.6959	8.062
2.6875	8.4033
2.6791	8.6028
2.6709	8.6902
2.6626	8.7773
2.6545	8.7729
2.6463	8.7107
2.6382	8.6015
2.6302	8.3237
2.6222	7.865
2.6143	7.8662
2.6064	7.7781
2.5986	7.6877
2.5908	7.9558
2.583	8.0735
2.5753	7.8059
2.5677	7.3855
2.5601	6.9402
2.5525	6.3367
2.545	6.1653
2.5375	6.2436
2.5301	6.2148
2.5227	6.479
2.5154	6.7927
2.5081	7.2859
2.5008	7.3301
2.4936	7.8086
2.4864	8.0451
2.4793	8.2798
2.4722	8.289
2.4651	8.3955
2.4581	8.6386
2.4511	8.8945
2.4442	9.0388
2.4373	9.1101
2.4305	9.0117
2.4236	9.0366
2.4169	9.0498
2.4101	9.2004
2.4034	9.32
2.3967	9.3667
2.3901	9.4282
2.3835	9.4743
2.377	9.4643
2.3704	9.4726
2.364	9.549
2.3575	9.6101
2.3511	9.6357
2.3447	9.6064
2.3384	9.5874
2.3321	9.6113
2.3258	9.6299
2.3195	9.727
2.3133	9.7973
2.3071	9.8574
2.301	9.9331
2.2949	10.018
2.2888	10.1631
2.2828	10.2114
2.2767	10.208
2.2708	10.1411
2.2648	9.9541
2.2589	9.8349
2.253	10.1953
2.2471	10.2353
2.2413	10.2871
2.2355	10.2983
2.2297	10.2641
2.224	10.1709
2.2183	10.0595
2.2126	9.9529
2.207	9.9746
2.2013	9.9775
2.1957	10.041
2.1902	10.0957
2.1846	10.0771
2.1791	9.9902
2.1736	9.9084
2.1682	9.8901
2.1628	9.8843
2.1574	9.6565
2.152	9.4724
2.1466	9.6191
2.1413	9.7243
2.136	9.9001
2.1308	10.1196
2.1255	10.2024
2.1203	10.2055
2.1151	10.1938
2.11	10.1108
2.1048	10.0124
2.0997	9.7593
2.0946	9.2466
2.0895	7.9304
2.0845	5.4009
2.0795	5.7671
