Name: Labradorite (Feldspar) (NaSi,CaAl)AlSi_2O_8
Type: Mineral
Class: Silicate
Subclass: Tectosilicate
Particle Size: Medium
Sample No.: TS-2B
Owner: JPL
Wavelength Range: TIR
Origin: Canada, Quebec, Lake St. John
Description: Particle size was 45-125um.Collected by Ward's Original ASTER Spectral Library name was jpl.nicolet.mineral.silicate.tectosilicate.medium.ts02b.spectrum.txt
Measurement: Hemispherical reflectance
X Units: Wavelength (micrometers)
Y Units: Reflectance (percent)
wavelength	value
15.3853	4.0596
15.1161	2.2557
14.8563	2.4341
14.6052	2.2068
14.3624	2.6961
14.1276	2.9066
13.9004	2.9684
13.6803	3.2506
13.4671	3.4329
13.2604	3.1736
13.06	2.8709
12.8656	2.8834
12.6769	2.6393
12.4936	3.103
12.3155	3.6282
12.1425	4.5575
11.9742	4.9379
11.8106	5.1867
11.6513	5.5028
11.4963	5.8025
11.3454	6.5338
11.1983	7.4888
11.0551	8.6412
10.9154	9.6905
10.7793	10.2858
10.6465	10.9102
10.5169	11.5022
10.3904	11.3288
10.267	11.099
10.1464	11.6554
10.0287	12.468
9.9136	12.5372
9.8012	11.6958
9.6913	11.1424
9.5838	10.0723
9.4787	8.8605
9.3758	7.4573
9.2752	6.6371
9.1767	6.6875
9.0803	7.6457
8.9858	8.4848
8.8934	8.9626
8.8028	9.7834
8.714	9.747
8.627	9.3477
8.5417	8.9269
8.4581	8.7855
8.3761	7.8144
8.2957	5.7294
8.2169	2.9105
8.1395	1.44
8.0635	1.0147
7.989	0.8063
7.9158	0.7626
7.8439	0.9906
7.7734	0.986
7.7041	1.1641
7.636	1.3786
7.5691	1.7157
7.5034	1.7687
7.4388	2.0227
7.3753	2.3547
7.3129	2.6149
7.2515	2.7635
7.1912	3.1107
7.1318	3.2899
7.0734	3.6399
7.016	3.9477
6.9595	4.0824
6.9039	4.2896
6.8492	4.4115
6.7953	4.5994
6.7423	4.638
6.6901	4.9592
6.6387	5.0843
6.5881	5.177
6.5382	5.1929
6.4892	5.5519
6.4408	5.4173
6.3931	5.3457
6.3462	5.2664
6.2999	5.2084
6.2543	5.2651
6.2094	5.2467
6.1651	5.4498
6.1214	5.3691
6.0784	5.4847
6.0359	5.4911
5.994	5.646
5.9527	5.8915
5.912	6.0486
5.8718	6.2263
5.8322	6.6907
5.7931	6.8959
5.7545	7.1184
5.7165	7.4242
5.6789	7.6101
5.6418	8.0365
5.6052	8.0462
5.5691	8.2055
5.5334	8.7485
5.4982	9.1643
5.4635	9.6123
5.4291	10.1508
5.3952	10.629
5.3618	11.2224
5.3287	11.6528
5.2961	12.1747
5.2638	12.6962
5.2319	13.1323
5.2004	13.7955
5.1693	14.699
5.1386	15.7768
5.1082	16.8769
5.0782	17.9662
5.0485	19.2569
5.0192	20.5499
4.9902	21.374
4.9616	22.0367
4.9332	22.8009
4.9052	23.3097
4.8776	23.8449
4.8502	24.3768
4.8231	24.9366
4.7963	25.4146
4.7699	25.8942
4.7437	26.5833
4.7178	27.2736
4.6922	27.9867
4.6668	28.8522
4.6418	29.8431
4.617	31.0065
4.5924	32.1699
4.5681	33.4043
4.5441	34.5744
4.5203	35.7754
4.4968	36.7583
4.4735	37.7653
4.4505	38.6392
4.4277	39.3807
4.4051	40.2696
4.3828	41.1006
4.3607	41.9161
4.3388	42.707
4.3171	42.9896
4.2956	43.0928
4.2744	43.6714
4.2534	44.8229
4.2325	44.7733
4.2119	46.1198
4.1915	47.075
4.1712	47.4791
4.1512	47.6774
4.1313	47.7128
4.1117	47.9305
4.0922	47.8265
4.0729	47.8933
4.0538	47.8472
4.0349	47.6221
4.0161	47.2098
3.9976	46.1762
3.9792	45.4618
3.9609	45.9169
3.9428	46.834
3.9249	47.342
3.9072	47.5353
3.8896	47.5715
3.8722	47.5869
3.8549	47.6225
3.8378	47.8177
3.8208	47.9605
3.804	48.2221
3.7873	48.3722
3.7708	48.3908
3.7544	48.3889
3.7382	48.2218
3.7221	48.2685
3.7061	48.1578
3.6903	48.0072
3.6746	47.9729
3.659	47.7477
3.6436	47.7162
3.6283	47.5006
3.6131	47.3546
3.5981	47.2575
3.5832	46.9453
3.5684	46.7669
3.5537	46.5136
3.5391	46.1723
3.5247	45.7705
3.5104	45.229
3.4962	44.7576
3.4821	44.4087
3.4681	44.3861
3.4543	44.4855
3.4405	44.3236
3.4269	44.0427
3.4133	43.5
3.3999	43.3475
3.3866	43.1149
3.3733	42.6208
3.3602	42.3187
3.3472	42.0046
3.3343	42.2556
3.3215	42.0065
3.3088	41.7344
3.2961	41.4503
3.2836	41.0999
3.2712	40.9016
3.2588	40.3198
3.2466	39.9266
3.2345	39.4833
3.2224	39.0761
3.2104	38.7634
3.1985	38.3175
3.1867	37.8865
3.175	37.442
3.1634	36.8733
3.1519	36.2906
3.1404	35.8514
3.129	35.3815
3.1178	34.933
3.1065	34.624
3.0954	34.1181
3.0844	33.5959
3.0734	33.1887
3.0625	32.9628
3.0517	32.5192
3.041	32.1305
3.0303	31.8005
3.0197	31.2361
3.0092	30.8264
2.9987	30.5372
2.9884	30.241
2.9781	29.6553
2.9678	29.3042
2.9577	28.9945
2.9476	28.779
2.9376	28.3532
2.9276	28.404
2.9177	28.3343
2.9079	28.4466
2.8982	28.3716
2.8885	28.6098
2.8789	28.3953
2.8693	28.4422
2.8598	28.3221
2.8504	28.3699
2.841	28.023
2.8317	28.3444
2.8224	27.934
2.8133	27.9547
2.8041	28.138
2.7951	27.6269
2.786	27.3162
2.7771	26.0041
2.7682	25.1475
2.7594	24.2692
2.7506	24.4343
2.7418	26.1418
2.7332	27.1883
2.7246	30.1927
2.716	33.0726
2.7075	36.9783
2.699	40.3757
2.6906	42.669
2.6823	43.8349
2.674	44.5264
2.6657	45.6973
2.6575	44.6731
2.6494	44.8332
2.6413	44.713
2.6332	44.8976
2.6252	44.7884
2.6173	45.2713
2.6094	44.7806
2.6015	44.8887
2.5937	45.4225
2.5859	44.6746
2.5782	44.7407
2.5706	44.5733
2.5629	44.7508
2.5554	44.2673
2.5478	44.1922
2.5403	44.0465
2.5329	44.1573
2.5255	43.9787
2.5181	44.0865
2.5108	43.9408
2.5035	43.8543
2.4963	44.0091
2.4891	43.5911
2.482	43.7645
2.4749	43.7226
2.4678	43.7388
2.4608	43.4723
2.4538	43.484
2.4468	43.6584
2.4399	43.5556
2.4331	43.318
2.4262	43.3462
2.4194	43.3244
2.4127	43.4845
2.4059	43.4803
2.3993	43.4547
2.3926	43.2872
2.386	43.2669
2.3795	43.2117
2.3729	43.2209
2.3664	43.1571
2.36	43.0471
2.3535	43.0142
2.3471	43.0382
2.3408	42.9172
2.3345	42.9346
2.3282	42.899
2.3219	42.9658
2.3157	42.9193
2.3095	43.0171
2.3034	42.8424
2.2972	42.6999
2.2911	42.7818
2.2851	42.9333
2.279	42.8207
2.2731	42.6708
2.2671	42.798
2.2612	42.4918
2.2553	42.5488
2.2494	42.5939
2.2435	42.511
2.2377	42.4573
2.232	42.5585
2.2262	42.506
2.2205	42.4028
2.2148	42.3069
2.2091	42.106
2.2035	42.2575
2.1979	42.1049
2.1923	42.0992
2.1868	42.0172
2.1812	41.9748
2.1758	42.2567
2.1703	41.9269
2.1649	42.0524
2.1595	42.1433
2.1541	42.1463
2.1487	42.1742
2.1434	41.8369
2.1381	42.2439
2.1328	42.181
2.1275	41.9585
2.1223	42.1658
2.1171	42.0483
2.112	41.8063
2.1068	41.8683
2.1017	41.5932
2.0966	41.835
2.0915	41.631
2.0865	41.8523
2.0814	41.7481
2.0764	41.812
2.0715	41.7932
2.0665	41.7491
2.0616	41.499
2.0567	41.6404
2.0518	41.423
2.0469	41.5138
2.0421	41.4649
2.0373	41.412
2.0325	41.2
2.0277	41.2388
2.0229	41.3169
2.0182	41.2227
2.0135	41.359
2.0088	41.1092
2.0042	41.256
