Name: Siderite Fe^2+CO_3
Type: Mineral
Class: Carbonate
Subclass: None
Particle Size: Coarse
Sample No.: C-9A
Owner: JPL
Wavelength Range: VSWIR
Description: Particle size was 125-500umCollected by JPL Original ASTER Spectral Library name was jpl.beckman.mineral.carbonate.none.coarse.c09a.spectrum.txt
Measurement: Hemispherical reflectance
X Units: Wavelength (micrometers)
Y Units: Reflectance (percent)
wavelength	value
0.4	10.35
0.403	11.03
0.406	11.67
0.409	11.84
0.412	12.41
0.415	12.98
0.418	13.15
0.421	13.55
0.424	13.55
0.427	13.95
0.43	14.07
0.433	14.3
0.436	14.41
0.439	14.3
0.442	14.47
0.445	14.35
0.448	14.58
0.451	14.87
0.454	14.93
0.457	15.5
0.46	15.55
0.463	15.61
0.466	15.9
0.469	15.9
0.472	16.36
0.475	16.3
0.478	16.71
0.481	16.59
0.484	16.76
0.487	17.11
0.49	17.8
0.493	18.77
0.496	19.11
0.499	19.58
0.502	19.52
0.505	19.75
0.508	19.86
0.511	20.04
0.514	20.27
0.517	20.55
0.52	21.18
0.523	21.52
0.526	22.33
0.529	22.72
0.532	23.65
0.535	24.21
0.538	25.13
0.541	25.93
0.544	26.62
0.547	27.36
0.55	27.94
0.553	28.74
0.556	29.08
0.559	29.71
0.562	30.17
0.565	30.85
0.568	31.08
0.571	31.54
0.574	31.78
0.577	32.12
0.58	32.29
0.583	32.4
0.586	32.86
0.589	32.86
0.592	33.21
0.595	33.03
0.598	33.38
0.601	33.44
0.604	33.55
0.607	33.67
0.61	33.61
0.613	33.78
0.616	33.67
0.619	33.95
0.622	33.95
0.625	34.12
0.628	34.46
0.631	34.46
0.634	34.75
0.637	34.81
0.64	35.21
0.643	35.44
0.646	35.78
0.649	36.18
0.652	36.47
0.655	37.1
0.658	37.32
0.661	37.96
0.664	38.3
0.667	38.93
0.67	39.5
0.673	40.02
0.676	40.7
0.679	40.99
0.682	41.68
0.685	42.14
0.688	42.48
0.691	42.94
0.694	43.05
0.697	43.63
0.7	43.63
0.703	43.63
0.706	43.91
0.709	43.91
0.712	43.8
0.715	43.96
0.718	43.74
0.721	43.8
0.724	43.46
0.727	43.23
0.73	42.82
0.733	42.42
0.736	42.2
0.739	41.45
0.742	41.28
0.745	40.54
0.748	40.02
0.751	39.33
0.754	38.71
0.757	38.19
0.76	37.22
0.763	36.53
0.766	35.61
0.769	35.04
0.772	34.12
0.775	33.49
0.778	32.8
0.781	32.01
0.784	31.37
0.787	30.58
0.79	30.06
0.793	29.14
0.796	28.45
0.799	27.76
0.808	25.76
0.82	22.9
0.832	20.61
0.844	18.38
0.856	16.6
0.868	15.17
0.88	13.86
0.892	12.7
0.904	11.91
0.916	11.16
0.928	10.65
0.94	10.02
0.952	9.67
0.964	9.44
0.976	9.15
0.988	8.99
1	8.76
1.012	8.7
1.024	8.53
1.036	8.53
1.048	8.47
1.06	8.36
1.072	8.47
1.084	8.59
1.096	8.53
1.108	8.59
1.12	8.59
1.132	8.59
1.144	8.59
1.156	8.59
1.168	8.63
1.18	8.58
1.192	8.63
1.204	8.63
1.216	8.63
1.228	8.63
1.24	8.63
1.252	8.63
1.264	8.69
1.276	8.8
1.288	8.8
1.3	9.03
1.312	9.25
1.324	9.36
1.336	9.76
1.348	9.99
1.36	10.27
1.372	10.78
1.384	11.19
1.396	11.75
1.408	12.39
1.42	13.19
1.432	14.05
1.444	15.02
1.456	16.28
1.468	17.54
1.48	18.97
1.492	20.56
1.504	22.22
1.516	24
1.528	25.76
1.54	27.77
1.552	29.88
1.564	31.88
1.576	33.94
1.588	36.17
1.6	38.22
1.612	40.16
1.624	42.15
1.636	43.9
1.648	45.67
1.66	47.14
1.672	48.67
1.684	49.85
1.696	50.98
1.708	52.06
1.72	52.86
1.732	53.72
1.744	54.34
1.756	54.96
1.768	55.31
1.78	55.83
1.792	56.16
1.804	56.38
1.816	56.49
1.828	56.55
1.84	56.49
1.852	56.22
1.864	55.87
1.876	55.4
1.888	54.65
1.9	53.9
1.912	53.38
1.924	53.24
1.936	53.18
1.948	53.27
1.96	53.53
1.972	53.83
1.984	53.9
1.996	54.25
2.008	54.78
2.02	55.32
2.032	55.92
2.044	56.28
2.056	56.52
2.068	56.55
2.08	56.54
2.092	56.59
2.104	56.4
2.116	56.33
2.128	55.88
2.14	55.47
2.152	54.94
2.164	54.6
2.176	54.24
2.188	53.84
2.2	53.24
2.212	52.29
2.224	50.98
2.236	49.59
2.248	48.17
2.26	46.26
2.272	44.74
2.284	43.11
2.296	41.74
2.308	40.56
2.32	39.84
2.332	39.74
2.344	40.38
2.356	41.49
2.368	43.06
2.38	44.38
2.392	45.1
2.404	45.05
2.416	44.42
2.428	43.02
2.44	41.13
2.452	38.91
2.464	36.41
2.476	34.08
2.488	32.3
2.5	30.69
