Name: Borax Na_2B_4O_5(OH)_4.8H_2O
Type: Mineral
Class: Borate
Subclass: None
Particle Size: Fine
Sample No.: B-6A
Owner: JPL
Wavelength Range: VSWIR
Origin: USA, California, Kern County, Boron.
Description: Particle size was 0-45um.Collected by:  Burminco Original ASTER Spectral Library name was jpl.perkin.mineral.borate.none.fine.b06a.spectrum.txt
Measurement: Hemispherical reflectance
X Units: Wavelength (micrometers)
Y Units: Reflectance (percent)
wavelength	value
2.5	19.5029
2.494	20.1589
2.488	20.8658
2.482	21.6869
2.476	22.2811
2.47	22.9528
2.464	23.5259
2.458	24.015
2.452	24.25
2.446	24.5489
2.44	24.7439
2.434	25.1008
2.428	25.5094
2.422	26.0361
2.416	26.6924
2.41	27.4697
2.404	28.2319
2.398	29.0214
2.392	29.8725
2.386	30.6727
2.38	31.51
2.374	32.189
2.368	32.812
2.362	33.244
2.356	33.7338
2.35	34.0083
2.344	34.2467
2.338	34.4205
2.332	34.5247
2.326	34.589
2.32	34.6581
2.314	34.6234
2.308	34.6386
2.302	34.6574
2.296	34.6272
2.29	34.6133
2.284	34.654
2.278	34.5469
2.272	34.647
2.266	34.6779
2.26	34.7216
2.254	34.7158
2.248	34.8051
2.242	34.9541
2.236	34.9878
2.23	35.2015
2.224	35.295
2.218	35.5554
2.212	35.9102
2.206	36.1911
2.2	36.3563
2.194	36.4437
2.188	36.505
2.182	36.2099
2.176	35.9292
2.17	35.3026
2.164	34.5689
2.158	34.0781
2.152	33.878
2.146	34.3252
2.14	35.0751
2.134	35.7101
2.128	36.1119
2.122	36.0694
2.116	35.9146
2.11	35.6091
2.104	35.3383
2.098	35.2058
2.092	35.2883
2.086	35.2841
2.08	35.2399
2.074	35.1549
2.068	35.1418
2.062	34.9854
2.056	34.765
2.05	34.5843
2.044	34.3263
2.038	34.2166
2.032	34.0639
2.026	33.7889
2.02	33.5815
2.014	33.2575
2.008	32.9676
2.002	32.681
1.996	32.3817
1.99	32.0788
1.984	31.8399
1.978	31.5479
1.972	31.2826
1.966	30.9641
1.96	30.521
1.954	29.8755
1.948	29.1817
1.942	28.4038
1.936	27.697
1.93	27.4984
1.924	27.5992
1.918	28.053
1.912	28.6787
1.906	30.5684
1.9	33.9012
1.894	37.6878
1.888	40.836
1.882	43.1971
1.876	44.8648
1.87	46.1571
1.864	47.1413
1.858	47.8356
1.852	48.2599
1.846	48.5274
1.84	48.95
1.834	49.0831
1.828	49.3673
1.822	49.659
1.816	49.8693
1.81	50.1415
1.804	50.4144
1.798	50.6908
1.792	51.0235
1.786	51.3303
1.78	51.7132
1.774	52.0404
1.768	52.3664
1.762	52.7006
1.756	52.9437
1.75	53.1709
1.744	53.2677
1.738	53.3778
1.732	53.3273
1.726	53.3657
1.72	53.2766
1.714	53.242
1.708	53.2393
1.702	53.3235
1.696	53.4882
1.69	53.5531
1.684	53.8593
1.678	54.0458
1.672	54.2442
1.666	54.5521
1.66	54.8842
1.654	55.2404
1.648	55.6302
1.642	55.9571
1.636	56.2208
1.63	56.5814
1.624	56.9035
1.618	57.2253
1.612	57.4474
1.606	57.6211
1.6	57.8419
1.594	58.0286
1.588	58.0614
1.582	58.0265
1.576	57.8871
1.57	57.8317
1.564	57.6927
1.558	57.7521
1.552	57.8127
1.546	58.1121
1.54	58.5539
1.534	59.0504
1.528	59.5803
1.522	59.8291
1.516	59.9834
1.51	59.7886
1.504	59.2286
1.498	58.3003
1.492	57.1769
1.486	56.3161
1.48	56.0228
1.474	56.2985
1.468	56.922
1.462	57.6999
1.456	58.9262
1.45	59.6939
1.444	60.4414
1.438	60.9467
1.432	60.4682
1.426	59.6484
1.42	61.2608
1.414	64.7901
1.408	68.15
1.402	70.684
1.396	72.6606
1.39	74.3026
1.384	75.4893
1.378	76.2051
1.372	76.792
1.366	77.4048
1.36	77.9235
1.354	78.4608
1.348	79.0847
1.342	79.6677
1.336	80.1844
1.33	80.74
1.324	81.064
1.318	81.3309
1.312	81.5117
1.306	81.5915
1.3	81.5279
1.294	81.3666
1.288	81.132
1.282	81.0841
1.276	81.2304
1.27	81.3181
1.264	81.4105
1.258	81.469
1.252	81.5156
1.246	81.4906
1.24	81.6288
1.234	81.651
1.228	81.7005
1.222	81.7889
1.216	81.8075
1.21	81.9459
1.204	81.961
1.198	81.9097
1.192	81.9294
1.186	81.9438
1.18	82.0595
1.174	82.017
1.168	81.9284
1.162	81.6872
1.156	82.0956
1.15	83.1933
1.144	83.777
1.138	84.118
1.132	84.2982
1.126	84.3652
1.12	84.4374
1.114	84.4556
1.108	84.6266
1.102	84.6946
1.096	84.74
1.09	84.8096
1.084	84.8636
1.078	84.8493
1.072	84.9342
1.066	84.8535
1.06	84.8556
1.054	84.7827
1.048	84.6692
1.042	84.6744
1.036	84.6452
1.03	84.5132
1.024	84.5063
1.018	84.4363
1.012	84.3397
1.006	84.396
1	84.2487
0.994	84.1696
0.988	84.2011
0.982	84.0946
0.976	84.0185
0.97	84.0999
0.964	84.5105
0.958	84.651
0.952	84.9023
0.946	84.8787
0.94	84.9976
0.934	85.1081
0.928	85.0787
0.922	85.1089
0.916	85.0716
0.91	85.0841
0.904	85.0852
0.898	85.0912
0.892	85.0303
0.886	85.0077
0.88	85.0205
0.874	85.0145
0.868	84.8813
0.862	84.8484
0.856	84.6919
0.85	84.6742
0.844	84.7043
0.838	84.7377
0.832	84.7548
0.826	84.8095
0.82	84.8134
0.814	84.7994
0.808	84.8166
0.802	84.8111
0.796	84.7362
0.79	84.7262
0.784	84.6786
0.778	84.6628
0.772	84.6404
0.766	84.6111
0.76	84.6407
0.754	84.6088
0.748	84.5677
0.742	84.6132
0.736	84.5851
0.73	84.6208
0.724	84.6303
0.718	84.5906
0.712	84.5914
0.706	84.5942
0.7	84.5609
0.694	84.5515
0.688	84.5414
0.682	84.536
0.676	84.4911
0.67	84.507
0.664	84.4943
0.658	84.5038
0.652	84.4846
0.646	84.4764
0.64	84.4672
0.634	84.4446
0.628	84.4246
0.622	84.4127
0.616	84.4028
0.61	84.3769
0.604	84.3475
0.598	84.3792
0.592	84.404
0.586	84.3784
0.58	84.3478
0.574	84.3206
0.568	84.3094
0.562	84.2713
0.556	84.2372
0.55	84.1793
0.544	84.1356
0.538	84.0873
0.532	84.0532
0.526	83.9618
0.52	83.9156
0.514	83.8291
0.508	83.7236
0.502	83.6104
0.496	83.4898
0.49	83.3389
0.484	83.1792
0.478	83.0786
0.472	82.9451
0.466	82.8243
0.46	82.6699
0.454	82.5275
0.448	82.3806
0.442	82.2368
0.436	82.0578
0.43	81.9463
0.424	81.8311
0.418	81.665
0.412	81.5555
0.406	81.4178
0.4	81.2992
