Name: Magnesite MgCO_3
Type: Mineral
Class: Carbonate
Subclass: None
Particle Size: Medium
Sample No.: C-6A
Owner: JPL
Wavelength Range: VSWIR
Origin: USA, California, Riverside County.
Description: Particle size was 45-125um.Collected by:  Ward's Original ASTER Spectral Library name was jpl.perkin.mineral.carbonate.none.medium.c06a.spectrum.txt
Measurement: Hemispherical reflectance
X Units: Wavelength (micrometers)
Y Units: Reflectance (percent)
wavelength	value
2.5	44.9862
2.494	44.9119
2.488	45.3356
2.482	45.9468
2.476	46.3636
2.47	46.8982
2.464	47.4463
2.458	48.0461
2.452	48.872
2.446	49.7357
2.44	50.6047
2.434	51.6687
2.428	52.8285
2.422	53.8413
2.416	54.7756
2.41	55.6967
2.404	56.5236
2.398	57.2267
2.392	57.9148
2.386	58.5706
2.38	59.4573
2.374	60.4839
2.368	61.4607
2.362	62.2218
2.356	62.9277
2.35	63.583
2.344	63.8616
2.338	63.7815
2.332	63.207
2.326	62.2208
2.32	60.8822
2.314	59.7847
2.308	59.2271
2.302	59.3611
2.296	59.8253
2.29	60.3533
2.284	61.1104
2.278	61.7952
2.272	62.4003
2.266	62.9406
2.26	63.4285
2.254	64.1481
2.248	64.8859
2.242	65.6235
2.236	66.5528
2.23	67.3177
2.224	68.0964
2.218	68.7059
2.212	69.1541
2.206	69.6283
2.2	69.9107
2.194	69.9741
2.188	69.9914
2.182	70.0769
2.176	70.1087
2.17	70.1073
2.164	70.1244
2.158	70.0404
2.152	69.6844
2.146	69.2148
2.14	68.6334
2.134	68.2752
2.128	67.7991
2.122	67.5219
2.116	67.1225
2.11	66.5731
2.104	66.1541
2.098	65.7909
2.092	65.6535
2.086	65.4325
2.08	65.2846
2.074	65.0596
2.068	64.8937
2.062	64.7079
2.056	64.6044
2.05	64.4927
2.044	64.4281
2.038	64.2016
2.032	64.1376
2.026	64.0723
2.02	63.9078
2.014	63.7586
2.008	63.7207
2.002	63.6982
1.996	63.5784
1.99	63.58
1.984	63.5422
1.978	63.5769
1.972	63.7149
1.966	64.0106
1.96	64.2172
1.954	64.3916
1.948	64.5889
1.942	64.616
1.936	64.6432
1.93	64.766
1.924	64.4974
1.918	64.5028
1.912	64.7955
1.906	65.8807
1.9	68.1878
1.894	71.2067
1.888	73.83
1.882	75.6109
1.876	77.0771
1.87	78.2429
1.864	78.6909
1.858	78.7869
1.852	78.9181
1.846	79.117
1.84	79.2756
1.834	79.4482
1.828	79.6854
1.822	79.8748
1.816	80.0238
1.81	80.0636
1.804	80.2233
1.798	80.3189
1.792	80.2413
1.786	80.3046
1.78	80.3448
1.774	80.3476
1.768	80.4637
1.762	80.5003
1.756	80.5518
1.75	80.6113
1.744	80.6299
1.738	80.6285
1.732	80.6259
1.726	80.6635
1.72	80.7955
1.714	80.7458
1.708	80.7828
1.702	80.8259
1.696	80.8389
1.69	80.8267
1.684	80.8524
1.678	80.9752
1.672	80.9292
1.666	81.001
1.66	81.0601
1.654	81.0038
1.648	81.024
1.642	80.9656
1.636	80.9671
1.63	81.0335
1.624	80.9801
1.618	81.048
1.612	81.0905
1.606	81.1537
1.6	81.1259
1.594	81.1091
1.588	81.1349
1.582	81.0773
1.576	81.0241
1.57	80.9504
1.564	80.9505
1.558	80.8519
1.552	80.8029
1.546	80.7464
1.54	80.746
1.534	80.7275
1.528	80.7917
1.522	80.7711
1.516	80.824
1.51	80.8901
1.504	80.9354
1.498	80.9491
1.492	80.9721
1.486	81.0863
1.48	81.1168
1.474	81.1363
1.468	81.2357
1.462	81.359
1.456	81.5058
1.45	81.5722
1.444	81.4592
1.438	81.2999
1.432	81.555
1.426	81.884
1.42	82.2797
1.414	82.8129
1.408	83.4757
1.402	84.6072
1.396	85.1636
1.39	83.9444
1.384	85.8101
1.378	87.5131
1.372	87.9626
1.366	88.1629
1.36	88.3655
1.354	88.435
1.348	88.4992
1.342	88.7
1.336	88.7429
1.33	88.8704
1.324	89.0217
1.318	88.9906
1.312	89.1349
1.306	89.1202
1.3	89.2186
1.294	89.2541
1.288	89.3295
1.282	89.2626
1.276	89.2152
1.27	89.2604
1.264	89.2728
1.258	89.3431
1.252	89.3112
1.246	89.3095
1.24	89.3853
1.234	89.3881
1.228	89.4069
1.222	89.4913
1.216	89.4552
1.21	89.4985
1.204	89.543
1.198	89.5237
1.192	89.5829
1.186	89.6674
1.18	89.68
1.174	89.715
1.168	89.7586
1.162	89.7581
1.156	89.7698
1.15	89.9086
1.144	90.033
1.138	90.1258
1.132	90.1865
1.126	90.2269
1.12	90.2561
1.114	90.2656
1.108	90.2432
1.102	90.3469
1.096	90.2437
1.09	90.3127
1.084	90.2614
1.078	90.2006
1.072	90.419
1.066	90.253
1.06	90.2557
1.054	90.2479
1.048	90.2979
1.042	90.2992
1.036	90.2822
1.03	90.3644
1.024	90.4614
1.018	90.3808
1.012	90.4309
1.006	90.4218
1	90.5542
0.994	90.5551
0.988	90.5833
0.982	90.5768
0.976	90.7011
0.97	90.7174
0.964	90.8605
0.958	90.8715
0.952	90.9299
0.946	90.9587
0.94	91.0642
0.934	91.1283
0.928	91.1794
0.922	91.1632
0.916	91.3336
0.91	91.3596
0.904	91.3732
0.898	91.2972
0.892	91.3877
0.886	91.4334
0.88	91.3525
0.874	91.4038
0.868	91.3522
0.862	91.4132
0.856	91.3259
0.85	91.3461
0.844	91.3517
0.838	91.3893
0.832	91.3779
0.826	91.4476
0.82	91.3762
0.814	91.3755
0.808	91.2899
0.802	91.2831
0.796	91.1805
0.79	91.1256
0.784	91.0354
0.778	90.9604
0.772	90.9223
0.766	90.9012
0.76	90.8578
0.754	90.8071
0.748	90.8198
0.742	90.787
0.736	90.8155
0.73	90.796
0.724	90.7771
0.718	90.7715
0.712	90.7716
0.706	90.7689
0.7	90.7391
0.694	90.6739
0.688	90.641
0.682	90.5862
0.676	90.4924
0.67	90.4583
0.664	90.4608
0.658	90.4217
0.652	90.4294
0.646	90.3883
0.64	90.3232
0.634	90.2631
0.628	90.2005
0.622	90.0992
0.616	90.0213
0.61	89.9066
0.604	89.7794
0.598	89.6531
0.592	89.5205
0.586	89.3037
0.58	89.0823
0.574	88.8529
0.568	88.5899
0.562	88.3072
0.556	87.9617
0.55	87.6222
0.544	87.2312
0.538	86.817
0.532	86.3592
0.526	85.8748
0.52	85.3567
0.514	84.7701
0.508	84.0377
0.502	83.3058
0.496	82.6522
0.49	82.094
0.484	81.5142
0.478	80.9828
0.472	80.387
0.466	79.8592
0.46	79.2788
0.454	78.6688
0.448	77.984
0.442	77.2341
0.436	76.4609
0.43	75.7696
0.424	75.1458
0.418	74.4999
0.412	73.9343
0.406	73.2421
0.4	72.4613
