Name: Analcime NaAlSi2O6.H2O
Type: Mineral
Class: Silicate
Subclass: Tectosilicate
Particle Size: Fine
Sample No.: analcime_1
Owner: JHU
Wavelength Range: TIR
Origin: Sample from Mt. St. Hilaire, Quebec; donated by W. J. Ehmann(originally purchased from Ward's Natural Science Establishment).
Description: The sample was only available to us as a fine (<60 micrometers) powder.  It appeared to be free of contaminants in hand sample and under the microscope. Particle size was less than 2 Micrometers.(Framework silicates) (Zeolite Group) Original ASTER Spectral Library name was jhu.nicolet.mineral.silicate.tectosilicate.powder.analci1.spectrum.txt
Measurement: Transmission
X Units: Wavelength (micrometers)
Y Units: Transmittance (percent)
wavelength	value
25.0442	45.9686
24.3388	42.9003
23.6719	39.4979
23.0407	30.0868
22.4422	20.082
21.8741	22.2431
21.334	32.7431
20.8199	45.0136
20.33	53.9979
19.8627	59.9998
19.4163	64.0252
18.9896	66.5819
18.5812	68.0882
18.19	68.4188
17.815	68.5672
17.4551	69.5438
17.1094	70.0692
16.7772	69.3089
16.4576	66.7484
16.15	65.8753
15.8537	67.7615
15.568	69.7244
15.2925	72.201
15.0265	72.41
14.7697	72.5369
14.5214	69.9632
14.2814	67.5692
14.0492	64.5228
13.8244	59.1317
13.6067	52.129
13.3957	50.5526
13.1912	55.8377
12.9929	55.8797
12.8004	70.1055
12.6135	79.1619
12.432	84.4688
12.2557	86.2888
12.0843	86.4588
11.9176	85.6817
11.7555	84.0052
11.5977	82.1326
11.444	80.115
11.2944	77.9187
11.1487	75.4493
11.0067	72.1942
10.8682	68.0987
10.7332	62.504
10.6015	55.0028
10.473	44.3617
10.3476	31.092
10.2251	16.7565
10.1056	9.4577
9.9887	5.9993
9.8746	3.843
9.763	2.9258
9.6539	3.085
9.5472	4.1623
9.4429	6.3381
9.3408	10.0766
9.2409	14.8462
9.1431	18.0969
9.0474	20.6291
8.9536	23.6144
8.8618	28.3032
8.7718	34.7611
8.6837	41.4076
8.5973	47.8685
8.5126	55.7621
8.4295	63.0531
8.3481	68.8773
8.2682	73.49
8.1898	77.1287
8.1129	79.8641
8.0374	81.8904
7.9634	83.4397
7.8906	84.7766
7.8192	85.8548
7.7491	86.6087
7.6802	87.3006
7.6126	87.9363
7.5461	88.4143
7.4807	88.927
7.4165	89.2874
7.3534	89.5564
7.2914	89.78
7.2303	89.9749
7.1703	90.2476
7.1113	90.3972
7.0533	90.5383
6.9962	90.6668
6.94	90.8255
6.8847	90.8865
6.8302	90.9402
6.7767	91.3079
6.7239	91.5242
6.672	91.7966
6.6209	92.0335
6.5705	92.1502
6.5209	92.0188
6.4721	91.9548
6.424	91.7278
6.3766	91.3865
6.3299	91.0188
6.2838	90.4382
6.2385	89.4407
6.1937	86.6267
6.1496	74.3768
6.1062	70.4505
6.0633	80.6912
6.0211	85.2268
5.9794	88.6712
5.9383	90.3386
5.8978	91.2756
5.8578	91.803
5.8184	92.2727
5.7794	92.4646
5.741	92.7698
5.7031	93.0022
5.6657	93.1912
5.6288	93.3001
5.5924	93.4282
5.5564	93.5154
5.5209	93.614
5.4859	93.7625
5.4513	93.9421
5.4171	94.0911
5.3833	94.0989
5.35	94.2556
5.3171	94.3591
5.2846	94.4334
5.2524	94.509
5.2207	94.6057
5.1893	94.6887
5.1584	94.78
5.1277	94.8225
5.0975	94.8005
5.0676	94.8225
5.038	94.8796
5.0088	94.9509
4.98	94.9099
4.9514	94.9492
4.9232	94.9453
4.8953	94.9136
4.8678	94.9475
4.8405	94.9951
4.8135	95.0073
4.7868	95.0647
4.7605	95.1301
4.7344	95.1201
4.7086	95.1128
4.6831	95.1301
4.6578	95.2158
4.6328	95.2361
4.6081	95.2537
4.5837	95.3435
4.5595	95.376
4.5356	95.3921
4.5119	95.3599
4.4884	95.3999
4.4652	95.447
4.4423	95.3694
4.4196	95.46
4.3971	95.5288
4.3748	95.5793
4.3528	95.5867
4.331	95.5149
4.3094	95.6069
4.288	95.5767
4.2668	95.6531
4.2458	95.6228
4.2251	95.6475
4.2045	95.6099
4.1841	95.5994
4.164	95.6748
4.144	95.6248
4.1242	95.6692
4.1046	95.6829
4.0852	95.6707
4.066	95.6953
4.047	95.6172
4.0281	95.6716
4.0094	95.7722
3.9909	95.72
3.9725	95.6809
3.9544	95.7908
3.9363	95.6418
3.9185	95.6672
3.9008	95.6233
3.8833	95.6204
3.8659	95.511
3.8487	95.5139
3.8316	95.5413
3.8147	95.4814
3.7979	95.4192
3.7813	95.3867
3.7648	95.3533
3.7485	95.2615
3.7323	95.2314
3.7162	95.1653
3.7003	95.0652
3.6845	95.0459
3.6689	94.9758
3.6534	94.9209
3.638	94.8545
3.6227	94.7107
3.6076	94.6191
3.5926	94.5547
3.5777	94.4636
3.563	94.3816
3.5484	94.2835
3.5338	94.0935
3.5195	93.8416
3.5052	93.4258
3.491	93.5127
3.477	93.51
3.463	93.3933
3.4492	93.1777
3.4355	92.9053
3.4219	92.282
3.4084	92.2019
3.395	92.5398
3.3817	92.374
3.3685	92.469
3.3554	92.3601
3.3425	92.2332
3.3296	92.1121
3.3168	91.9316
3.3041	91.8054
3.2915	91.6941
3.279	91.541
3.2666	91.2432
3.2543	91.0115
3.2421	90.8074
3.23	90.5994
3.218	90.3975
3.206	90.1433
3.1942	89.8357
3.1824	89.553
3.1707	89.284
3.1591	88.9348
3.1476	88.4461
3.1362	88.263
3.1249	87.8421
3.1136	87.4978
3.1024	86.8743
3.0913	86.4412
3.0803	85.9632
3.0694	85.6428
3.0585	85.0198
3.0477	84.7508
3.037	84.2903
3.0264	83.9549
3.0158	83.4749
3.0053	83.0721
2.9949	82.3699
2.9845	81.7835
2.9743	80.9998
2.9641	80.0701
2.9539	79.2478
2.9439	78.574
2.9339	77.9339
2.9239	77.1463
2.9141	76.5257
2.9043	75.9803
2.8946	75.5936
2.8849	75.2054
2.8753	74.784
2.8658	74.3753
2.8563	74.0862
2.8469	73.658
2.8375	73.1268
2.8282	72.3343
2.819	71.6834
2.8098	71.7112
2.8007	73.1175
2.7917	73.2869
2.7827	72.3045
2.7738	70.6546
2.7649	69.699
2.7561	72.034
2.7473	76.7732
2.7386	82.0974
2.7299	84.1878
2.7213	83.9597
2.7128	86.3069
2.7043	88.9724
2.6959	90.7634
2.6875	91.4822
2.6791	92.137
2.6709	92.3694
2.6626	92.4104
2.6545	92.6585
2.6463	92.7483
2.6382	92.7698
2.6302	92.9197
2.6222	92.9592
2.6143	93.158
2.6064	92.9783
2.5986	92.9592
2.5908	93.2654
2.583	93.3416
2.5753	93.1306
2.5677	93.0359
2.5601	93.0437
2.5525	92.9099
2.545	92.8904
2.5375	92.9021
2.5301	92.9148
2.5227	92.7332
2.5154	92.9793
2.5081	93.198
2.5008	92.8279
2.4936	92.9363
2.4864	93.1541
2.4793	92.9021
2.4722	92.9939
2.4651	93.1863
2.4581	93.0906
2.4511	93.2263
2.4442	93.0388
2.4373	93.1492
2.4305	93.1775
2.4236	93.5281
2.4169	93.281
2.4101	93.4578
2.4034	93.5232
2.3967	93.5173
2.3901	93.3982
2.3835	93.3132
2.377	93.3513
2.3704	93.4187
2.364	93.2283
2.3575	92.9773
2.3511	93.2849
2.3447	93.4216
2.3384	93.1062
2.3321	92.9334
2.3258	93.157
2.3195	93.4773
2.3133	93.4138
2.3071	93.1775
2.301	93.2937
2.2949	93.0701
2.2888	93.4529
2.2828	93.0642
2.2767	93.0408
2.2708	93.2351
2.2648	93.1453
2.2589	93.0046
2.253	93.4031
2.2471	93.2029
2.2413	93.1287
2.2355	93.0046
2.2297	93.075
2.224	92.7459
2.2183	92.9236
2.2126	93.0818
2.207	93.0115
2.2013	92.9802
2.1957	92.3992
2.1902	93.1336
2.1846	92.7273
2.1791	92.7849
2.1736	93.072
2.1682	93.115
2.1628	93.0818
2.1574	93.0193
2.152	92.4099
2.1466	92.8455
2.1413	92.5212
2.136	92.533
2.1308	92.8474
2.1255	92.49
2.1203	92.7224
2.1151	92.5212
2.11	92.6697
2.1048	92.488
2.0997	92.9861
2.0946	92.6111
2.0895	92.9334
2.0845	92.7361
2.0795	92.281
