Name: Spessartine Mn3Al2 (SiO4)3
Type: Mineral
Class: Silicate
Subclass: Nesosilicate
Particle Size: Fine
Sample No.: spessart_2
Owner: JHU
Wavelength Range: TIR
Origin: Rutherford #2 mine, Amelia, Amelia Co., Virginia, USA via theSmithsonian (sample no. NMNH 114143)
Description: The sample consisted of a group of 3 mm and smaller diameter reddish crystals.  A few clear crystals adhering to the grains were picked off and microscopic examination showed the remaining sample to be quite pure. Particle size was less than 2 Micrometers.(Framework silicates); GarnetGroup Original ASTER Spectral Library name was jhu.nicolet.mineral.silicate.nesosilicate.powder.spessa2.spectrum.txt
Measurement: Transmission
X Units: Wavelength (micrometers)
Y Units: Transmittance (percent)
wavelength	value
25.0442	72.2967
24.3388	73.6248
23.6719	74.1326
23.0407	68.158
22.4422	51.91
21.8741	45.0272
21.334	37.5272
20.8199	32.5585
20.33	40.1894
19.8627	49.0546
19.4163	55.2547
18.9896	60.4422
18.5812	70.6014
18.19	67.9344
17.815	48.0087
17.4551	52.8827
17.1094	67.0203
16.7772	75.993
16.4576	79.4295
16.15	79.6717
15.8537	72.367
15.568	79.2625
15.2925	79.782
15.0265	80.8162
14.7697	82.0642
14.5214	83.4422
14.2814	83.7439
14.0492	83.1765
13.8244	83.9182
13.6067	84.8323
13.3957	84.9964
13.1912	85.3557
12.9929	85.9578
12.8004	85.5178
12.6135	85.3172
12.432	83.9236
12.2557	80.6214
12.0843	75.8807
11.9176	68.5633
11.7555	56.8124
11.5977	37.602
11.444	34.8105
11.2944	28.1767
11.1487	28.7636
11.0067	41.5214
10.8682	55.5311
10.7332	54.6366
10.6015	32.7157
10.473	19.4511
10.3476	26.8281
10.2251	32.5038
10.1056	39.3773
9.9887	49.9501
9.8746	57.4129
9.763	60.8031
9.6539	62.4862
9.5472	66.1409
9.4429	68.5897
9.3408	68.7547
9.2409	69.3221
9.1431	70.7488
9.0474	70.8011
8.9536	71.5882
8.8618	75.1644
8.7718	77.6429
8.6837	79.844
8.5973	81.9534
8.5126	84.3387
8.4295	86.9163
8.3481	89.3259
8.2682	91.1738
8.1898	92.4649
8.1129	93.2197
8.0374	93.834
7.9634	94.197
7.8906	94.5127
7.8192	94.739
7.7491	94.9177
7.6802	94.9382
7.6126	94.9138
7.5461	94.9055
7.4807	94.9959
7.4165	94.8857
7.3534	94.7891
7.2914	94.6943
7.2303	94.5518
7.1703	94.4797
7.1113	94.2712
7.0533	94.1475
6.9962	94.1287
6.94	94.2468
6.8847	94.4089
6.8302	94.6758
6.7767	95.0615
6.7239	95.3894
6.672	95.614
6.6209	95.6787
6.5705	95.7693
6.5209	95.7598
6.4721	95.3906
6.424	95.1101
6.3766	94.6179
6.3299	93.9346
6.2838	93.3533
6.2385	92.7705
6.1937	92.1787
6.1496	92.2429
6.1062	92.3789
6.0633	93.0508
6.0211	94.1277
5.9794	94.8809
5.9383	96.0676
5.8978	96.7634
5.8578	97.0791
5.8184	97.2927
5.7794	97.3669
5.741	97.5305
5.7031	97.6875
5.6657	97.7393
5.6288	97.823
5.5924	97.8718
5.5564	97.8301
5.5209	97.9871
5.4859	98.0115
5.4513	98.1621
5.4171	98.2168
5.3833	98.197
5.35	98.2732
5.3171	98.3269
5.2846	98.4629
5.2524	98.4834
5.2207	98.5371
5.1893	98.6101
5.1584	98.6777
5.1277	98.6882
5.0975	98.7165
5.0676	98.7207
5.038	98.6794
5.0088	98.6819
4.98	98.6785
4.9514	98.7185
4.9232	98.6741
4.8953	98.7087
4.8678	98.7112
4.8405	98.7571
4.8135	98.7624
4.7868	98.7722
4.7605	98.7869
4.7344	98.7605
4.7086	98.7629
4.6831	98.8186
4.6578	98.762
4.6328	98.7673
4.6081	98.7991
4.5837	98.8118
4.5595	98.7908
4.5356	98.8093
4.5119	98.781
4.4884	98.8054
4.4652	98.8308
4.4423	98.803
4.4196	98.8523
4.3971	98.8074
4.3748	98.8596
4.3528	98.7927
4.331	98.8044
4.3094	98.7908
4.288	98.78
4.2668	98.803
4.2458	98.8415
4.2251	98.8503
4.2045	98.8747
4.1841	98.8435
4.164	98.8616
4.144	98.7678
4.1242	98.8069
4.1046	98.8205
4.0852	98.8518
4.066	98.7898
4.047	98.7585
4.0281	98.7873
4.0094	98.6648
3.9909	98.6174
3.9725	98.5447
3.9544	98.6062
3.9363	98.6111
3.9185	98.6838
3.9008	98.6296
3.8833	98.5452
3.8659	98.5027
3.8487	98.5686
3.8316	98.4709
3.8147	98.4499
3.7979	98.4167
3.7813	98.3987
3.7648	98.3225
3.7485	98.2537
3.7323	98.1599
3.7162	98.0818
3.7003	98.0037
3.6845	97.9138
3.6689	97.8577
3.6534	97.8113
3.638	97.7165
3.6227	97.6487
3.6076	97.5334
3.5926	97.4871
3.5777	97.3474
3.563	97.1931
3.5484	97.0549
3.5338	96.9275
3.5195	96.6057
3.5052	96.0901
3.491	96.1702
3.477	96.0876
3.463	95.9104
3.4492	95.7717
3.4355	95.4534
3.4219	94.8709
3.4084	94.8948
3.395	95.2405
3.3817	95.0569
3.3685	95.2185
3.3554	95.2595
3.3425	95.1956
3.3296	95.1267
3.3168	94.9163
3.3041	94.8201
3.2915	94.7185
3.279	94.5354
3.2666	94.2517
3.2543	94.0144
3.2421	93.8474
3.23	93.6189
3.218	93.3904
3.206	93.1511
3.1942	92.9216
3.1824	92.5711
3.1707	92.3767
3.1591	91.9763
3.1476	91.6033
3.1362	91.3406
3.1249	91.0525
3.1136	90.7048
3.1024	90.3689
3.0913	90.1091
3.0803	89.7273
3.0694	89.5388
3.0585	89.2371
3.0477	89.0203
3.037	88.572
3.0264	88.1931
3.0158	87.6023
3.0053	86.8767
2.9949	86.1287
2.9845	85.3748
2.9743	84.0642
2.9641	82.7039
2.9539	81.9021
2.9439	81.8709
2.9339	81.8523
2.9239	81.8123
2.9141	81.825
2.9043	82.1853
2.8946	82.6883
2.8849	83.1883
2.8753	83.9969
2.8658	84.742
2.8563	85.5174
2.8469	86.2654
2.8375	86.781
2.8282	87.4217
2.819	87.9138
2.8098	88.6716
2.8007	89.4529
2.7917	90.3562
2.7827	91.5007
2.7738	92.8669
2.7649	93.8718
2.7561	95.074
2.7473	96.2156
2.7386	97.0837
2.7299	97.8435
2.7213	98.5515
2.7128	98.6404
2.7043	98.7576
2.6959	98.9148
2.6875	99.0906
2.6791	99.1833
2.6709	99.2341
2.6626	99.2146
2.6545	99.0974
2.6463	99.0671
2.6382	99.0622
2.6302	99.0954
2.6222	99.2595
2.6143	99.0857
2.6064	99.0622
2.5986	98.9997
2.5908	99.1423
2.583	99.1775
2.5753	98.8533
2.5677	98.9685
2.5601	99.0642
2.5525	99.0193
2.545	98.8806
2.5375	99.0154
2.5301	99.0466
2.5227	98.8357
2.5154	99.0076
2.5081	99.0369
2.5008	99.0701
2.4936	98.8904
2.4864	98.9685
2.4793	99.0935
2.4722	98.8142
2.4651	99.0544
2.4581	98.9997
2.4511	99.0017
2.4442	98.8298
2.4373	99.2204
2.4305	99.0251
2.4236	98.9236
2.4169	98.8162
2.4101	99.1814
2.4034	98.9646
2.3967	98.9802
2.3901	98.9392
2.3835	99.0622
2.377	99.3923
2.3704	99.2185
2.364	99.1521
2.3575	98.9001
2.3511	99.0115
2.3447	99.0408
2.3384	99.1208
2.3321	99.1169
2.3258	99.1404
2.3195	99.2185
2.3133	99.2517
2.3071	99.2595
2.301	99.1951
2.2949	99.2595
2.2888	99.572
2.2828	99.1638
2.2767	99.1482
2.2708	99.156
2.2648	99.1443
2.2589	99.3787
2.253	99.3787
2.2471	99.2654
2.2413	99.5193
2.2355	99.6912
2.2297	99.3591
2.224	99.3747
2.2183	99.7615
2.2126	99.324
2.207	99.6599
2.2013	99.6443
2.1957	99.5466
2.1902	99.613
2.1846	99.4841
2.1791	99.5701
2.1736	99.7419
2.1682	99.7341
2.1628	99.988
2.1574	99.5779
2.152	99.7458
2.1466	99.6443
2.1413	100.003
2.136	99.7068
2.1308	99.738
2.1255	99.7888
2.1203	100.421
2.1151	99.9997
2.11	99.7497
2.1048	99.8591
2.0997	100.187
2.0946	100.14
2.0895	100.148
2.0845	100.398
2.0795	99.8201
