Name: Barite BaSO_4
Type: Mineral
Class: Sulfate
Subclass: None
Particle Size: Medium
Sample No.: SO-3A
Owner: JPL
Wavelength Range: VSWIR
Origin: USA, South Carolina, Cherokee County, Kings Creek
Description: Particle size was 45-125um.Collected by Ward's Original ASTER Spectral Library name was jpl.beckman.mineral.sulfate.none.medium.so03a.spectrum.txt
Measurement: Hemispherical reflectance
X Units: Wavelength (micrometers)
Y Units: Reflectance (percent)
wavelength	value
0.4	85.94
0.403	86.3
0.406	86.62
0.409	86.81
0.412	86.87
0.415	87.09
0.418	87.34
0.421	87.35
0.424	87.54
0.427	87.7
0.43	87.83
0.433	88.13
0.436	88.25
0.439	88.28
0.442	88.51
0.445	88.51
0.448	88.73
0.451	88.64
0.454	88.88
0.457	88.86
0.46	89.07
0.463	89.13
0.466	89.14
0.469	89.38
0.472	89.33
0.475	89.44
0.478	89.52
0.481	89.28
0.484	89.49
0.487	89.62
0.49	89.65
0.493	89.62
0.496	89.7
0.499	89.79
0.502	89.75
0.505	90.03
0.508	90.03
0.511	90.16
0.514	90.21
0.517	90.26
0.52	90.27
0.523	90.37
0.526	90.36
0.529	90.55
0.532	90.55
0.535	90.49
0.538	90.43
0.541	90.44
0.544	90.68
0.547	90.52
0.55	90.66
0.553	90.84
0.556	90.89
0.559	90.83
0.562	91.15
0.565	91.2
0.568	91.03
0.571	90.84
0.574	90.67
0.577	90.62
0.58	90.51
0.583	90.68
0.586	90.74
0.589	90.68
0.592	90.8
0.595	90.8
0.598	90.76
0.601	90.71
0.604	90.97
0.607	90.85
0.61	90.79
0.613	90.86
0.616	90.69
0.619	90.57
0.622	90.62
0.625	90.87
0.628	90.87
0.631	90.8
0.634	90.85
0.637	90.86
0.64	90.81
0.643	90.92
0.646	90.97
0.649	90.98
0.652	90.98
0.655	90.92
0.658	90.85
0.661	90.98
0.664	91.1
0.667	91.21
0.67	91.15
0.673	91.15
0.676	91.21
0.679	91.16
0.682	91.04
0.685	91.33
0.688	91.33
0.691	91.51
0.694	91.39
0.697	91.38
0.7	91.27
0.703	91.56
0.706	91.63
0.709	91.57
0.712	91.63
0.715	91.56
0.718	91.63
0.721	91.62
0.724	91.68
0.727	91.56
0.73	91.79
0.733	91.91
0.736	91.73
0.739	91.68
0.742	91.8
0.745	91.79
0.748	91.74
0.751	91.91
0.754	91.91
0.757	91.74
0.76	91.8
0.763	91.74
0.766	91.86
0.769	91.86
0.772	91.91
0.775	91.92
0.778	91.8
0.781	91.85
0.784	91.81
0.787	91.97
0.79	92.02
0.793	92.03
0.796	91.92
0.799	91.96
0.808	92.15
0.82	92.2
0.832	92.25
0.844	92.13
0.856	92.37
0.868	92.37
0.88	92.37
0.892	92.31
0.904	92.3
0.916	92.3
0.928	92.3
0.94	92.36
0.952	92.3
0.964	92.43
0.976	92.24
0.988	92.36
1	92.27
1.012	92.36
1.024	92.36
1.036	92.36
1.048	92.42
1.06	92.31
1.072	92.26
1.084	92.35
1.096	92.47
1.108	92.41
1.12	92.52
1.132	92.51
1.144	92.5
1.156	92.31
1.168	92.34
1.18	92.38
1.192	92.24
1.204	92.33
1.216	92.28
1.228	92.29
1.24	92.31
1.252	92.38
1.264	92.28
1.276	92.33
1.288	92.35
1.3	92.35
1.312	92.34
1.324	92.24
1.336	92.17
1.348	92.2
1.36	92.15
1.372	92.08
1.384	91.99
1.396	91.68
1.408	91.58
1.42	91.37
1.432	91.39
1.444	91.35
1.456	91.37
1.468	91.48
1.48	91.52
1.492	91.65
1.504	91.88
1.516	91.95
1.528	91.95
1.54	92.06
1.552	92.12
1.564	92.12
1.576	92.05
1.588	92.18
1.6	92.24
1.612	92.22
1.624	92.13
1.636	92.34
1.648	92.31
1.66	92.4
1.672	92.39
1.684	92.31
1.696	92.41
1.708	92.46
1.72	92.4
1.732	92.4
1.744	92.23
1.756	92.34
1.768	92.16
1.78	92.16
1.792	92.23
1.804	92.14
1.816	92.16
1.828	92.14
1.84	92.04
1.852	91.96
1.864	91.71
1.876	91.17
1.888	90.25
1.9	89.15
1.912	88.52
1.924	88.23
1.936	88.33
1.948	88.45
1.96	88.88
1.972	89.25
1.984	89.66
1.996	90.09
2.008	90.33
2.02	90.71
2.032	91.13
2.044	91.26
2.056	91.38
2.068	91.55
2.08	91.82
2.092	91.93
2.104	92.11
2.116	92.39
2.128	92.44
2.14	92.4
2.152	92.2
2.164	92.15
2.176	92.11
2.188	91.92
2.2	91.81
2.212	91.72
2.224	91.84
2.236	91.79
2.248	91.81
2.26	91.77
2.272	91.86
2.284	91.75
2.296	91.69
2.308	91.54
2.32	91.65
2.332	91.65
2.344	91.52
2.356	91.46
2.368	91.29
2.38	91.16
2.392	91.01
2.404	90.89
2.416	90.65
2.428	90.51
2.44	90.27
2.452	90.14
2.464	89.89
2.476	89.71
2.488	90.07
2.5	90.55
