Name: Gahnite ZnAl_2O_4
Type: Mineral
Class: Oxide
Subclass: None
Particle Size: Fine
Sample No.: O-11A
Owner: JPL
Wavelength Range: VSWIR
Origin: Nigeria, Kaduna, Jemaa, Godogodo Mine
Description: Particle size was 0-45um.Collected by New, David Original ASTER Spectral Library name was jpl.beckman.mineral.oxide.none.fine.o11a.spectrum.txt
Measurement: Hemispherical reflectance
X Units: Wavelength (micrometers)
Y Units: Reflectance (percent)
wavelength	value
0.4	50.5
0.403	51.65
0.406	52.41
0.409	53.19
0.412	54.06
0.415	55.14
0.418	56.02
0.421	56.81
0.424	57.56
0.427	58.24
0.43	59.02
0.433	59.7
0.436	60.28
0.439	60.83
0.442	61.3
0.445	61.65
0.448	61.69
0.451	61.72
0.454	61.38
0.457	61.19
0.46	61.26
0.463	61.78
0.466	62.24
0.469	62.48
0.472	62.88
0.475	63.25
0.478	63.83
0.481	64.39
0.484	64.65
0.487	65.04
0.49	65.22
0.493	65.5
0.496	65.78
0.499	65.85
0.502	65.8
0.505	65.72
0.508	65.89
0.511	65.77
0.514	65.77
0.517	65.54
0.52	65.17
0.523	65.08
0.526	64.63
0.529	64.43
0.532	63.89
0.535	63.45
0.538	63.36
0.541	62.94
0.544	62.88
0.547	62.58
0.55	62.7
0.553	62.47
0.556	62.52
0.559	62.64
0.562	62.7
0.565	62.68
0.568	62.58
0.571	62.19
0.574	62.08
0.577	61.99
0.58	62.16
0.583	62.11
0.586	62.05
0.589	62.32
0.592	62.46
0.595	62.88
0.598	63.02
0.601	63.27
0.604	63.48
0.607	63.59
0.61	63.57
0.613	63.41
0.616	63.37
0.619	62.93
0.622	63.14
0.625	63.3
0.628	63.53
0.631	64.02
0.634	64.06
0.637	64.45
0.64	65
0.643	65.25
0.646	65.58
0.649	65.61
0.652	65.9
0.655	65.92
0.658	66.09
0.661	66.05
0.664	66.13
0.667	66.07
0.67	66.31
0.673	66.31
0.676	66.34
0.679	66.58
0.682	66.58
0.685	66.81
0.688	66.76
0.691	67.1
0.694	67.08
0.697	67.2
0.7	67.31
0.703	67.41
0.706	67.64
0.709	67.79
0.712	67.92
0.715	68.06
0.718	68.14
0.721	68.16
0.724	68.37
0.727	68.57
0.73	68.7
0.733	68.84
0.736	68.89
0.739	69.03
0.742	69.3
0.745	69.21
0.748	69.16
0.751	69.43
0.754	69.34
0.757	69.43
0.76	69.65
0.763	69.69
0.766	69.61
0.769	69.82
0.772	69.89
0.775	69.95
0.778	70
0.781	70.07
0.784	70.23
0.787	70.38
0.79	70.28
0.793	70.45
0.796	70.46
0.799	70.36
0.808	70.37
0.82	70.57
0.832	70.87
0.844	70.94
0.856	71
0.868	71.12
0.88	71.12
0.892	71.19
0.904	71.02
0.916	71.06
0.928	71.18
0.94	71.35
0.952	71.72
0.964	72.25
0.976	72.65
0.988	73.25
1	73.87
1.012	74.27
1.024	74.67
1.036	75.15
1.048	75.53
1.06	75.72
1.072	75.83
1.084	76.04
1.096	76.15
1.108	76.27
1.12	76.24
1.132	76.12
1.144	76.07
1.156	75.9
1.168	75.61
1.18	75.27
1.192	75.06
1.204	74.72
1.216	74.33
1.228	74.04
1.24	73.77
1.252	73.61
1.264	73.39
1.276	72.87
1.288	72.47
1.3	72.14
1.312	71.7
1.324	71.23
1.336	70.55
1.348	69.86
1.36	68.95
1.372	67.8
1.384	66.67
1.396	65.59
1.408	64.23
1.42	62.79
1.432	61.46
1.444	60.19
1.456	58.58
1.468	56.94
1.48	55.23
1.492	53.31
1.504	51.62
1.516	50.01
1.528	48.57
1.54	46.84
1.552	45.06
1.564	43.3
1.576	41.72
1.588	40.03
1.6	38.34
1.612	36.74
1.624	35.34
1.636	33.86
1.648	32.39
1.66	31.07
1.672	29.83
1.684	28.56
1.696	27.32
1.708	26.23
1.72	25.25
1.732	24.18
1.744	23.13
1.756	22.26
1.768	21.54
1.78	20.68
1.792	19.99
1.804	19.27
1.816	18.79
1.828	18.27
1.84	17.78
1.852	17.34
1.864	16.92
1.876	16.64
1.888	16.41
1.9	16.15
1.912	15.79
1.924	15.57
1.936	15.41
1.948	15.21
1.96	15.09
1.972	14.94
1.984	14.88
1.996	14.72
2.008	14.58
2.02	14.54
2.032	14.62
2.044	14.49
2.056	14.39
2.068	14.34
2.08	14.41
2.092	14.53
2.104	14.61
2.116	14.76
2.128	14.88
2.14	15.01
2.152	15.19
2.164	15.31
2.176	15.54
2.188	15.8
2.2	15.97
2.212	16.17
2.224	16.45
2.236	16.75
2.248	16.95
2.26	17.06
2.272	17.27
2.284	17.57
2.296	17.68
2.308	17.75
2.32	17.92
2.332	18.1
2.344	18.14
2.356	18.16
2.368	18.2
2.38	18.17
2.392	18.14
2.404	18.04
2.416	18.07
2.428	18.05
2.44	17.94
2.452	17.9
2.464	17.95
2.476	17.93
2.488	18
2.5	18.04
