Name: Pyrite FeS2
Type: Mineral
Class: Sulfide
Subclass: None
Particle Size: Coarse
Sample No.: pyrite_1
Owner: JHU
Wavelength Range: TIR
Origin: Ambassaguas, Logrono, Castilla la Vieja, Spain via theSmithsonian (sample no. NMNH 161959)
Description: Large cubic (3cm/side) piece with yellow metallic luster, weighing ~160 g. It had less than 1% limonitic surface alteration, which was easily removed. Microscopic examination of the crushed sample showed ~4% contamination with  unidentified colorless grains having 2-3 degree birefringence and index of refraction <<1.600, sometimes showing what appear to be alteration coatings. Particle size was 75 - 250  Micrometers. Original ASTER Spectral Library name was jhu.nicolet.mineral.sulfide.none.coarse.pyrite1.spectrum.txt
Measurement: Bidirectional reflectance
X Units: Wavelength (micrometers)
Y Units: Reflectance (percent)
wavelength	value
25.0442	10.1262
24.3388	10.509
23.6719	8.4341
23.0407	4.2778
22.4422	1.7383
21.8741	2.5247
21.334	2.9119
20.8199	3.1589
20.33	3.3069
19.8627	3.3879
19.4163	3.4385
18.9896	3.4873
18.5812	3.5017
18.19	3.488
17.815	3.522
17.4551	3.5798
17.1094	3.7944
16.7772	4.0076
16.4576	3.8552
16.15	3.6816
15.8537	3.6467
15.568	3.522
15.2925	3.4421
15.0265	3.6245
14.7697	3.7834
14.5214	3.676
14.2814	3.582
14.0492	3.4966
13.8244	3.4575
13.6067	3.4394
13.3957	3.4419
13.1912	3.4282
12.9929	3.3701
12.8004	3.3086
12.6135	3.2112
12.432	3.1985
12.2557	3.2309
12.0843	3.3162
11.9176	3.4036
11.7555	3.4809
11.5977	3.446
11.444	3.428
11.2944	3.3821
11.1487	3.3101
11.0067	3.2549
10.8682	3.2104
10.7332	3.1794
10.6015	3.1523
10.473	3.125
10.3476	3.1287
10.2251	3.1457
10.1056	3.1934
9.9887	3.3037
9.8746	3.5493
9.763	3.832
9.6539	4.3694
9.5472	4.3398
9.4429	4.0867
9.3408	4.062
9.2409	4.2134
9.1431	4.2749
9.0474	4.249
8.9536	4.1811
8.8618	4.1853
8.7718	4.1736
8.6837	4.1135
8.5973	4.0703
8.5126	4.1243
8.4295	4.1665
8.3481	4.2554
8.2682	4.4648
8.1898	4.605
8.1129	4.6926
8.0374	4.7068
7.9634	4.7361
7.8906	4.7712
7.8192	4.7807
7.7491	4.7566
7.6802	4.7217
7.6126	4.6865
7.5461	4.6628
7.4807	4.6438
7.4165	4.6196
7.3534	4.5776
7.2914	4.5317
7.2303	4.4924
7.1703	4.4778
7.1113	4.48
7.0533	4.4702
6.9962	4.459
6.94	4.4238
6.8847	4.3564
6.8302	4.2724
6.7767	4.1897
6.7239	4.1245
6.672	4.1125
6.6209	4.1562
6.5705	4.1848
6.5209	4.1982
6.4721	4.177
6.424	4.1213
6.3766	4.0535
6.3299	3.9529
6.2838	3.8025
6.2385	3.6055
6.1937	3.457
6.1496	3.3909
6.1062	3.3157
6.0633	3.3232
6.0211	3.4504
5.9794	3.5996
5.9383	3.6955
5.8978	3.7754
5.8578	3.8396
5.8184	3.8884
5.7794	3.9465
5.741	3.9939
5.7031	4.0405
5.6657	4.0911
5.6288	4.1472
5.5924	4.199
5.5564	4.2444
5.5209	4.2937
5.4859	4.3386
5.4513	4.3784
5.4171	4.4138
5.3833	4.4502
5.35	4.4807
5.3171	4.5161
5.2846	4.541
5.2524	4.5598
5.2207	4.5723
5.1893	4.5842
5.1584	4.5876
5.1277	4.5881
5.0975	4.5852
5.0676	4.5757
5.038	4.5615
5.0088	4.5493
4.98	4.5268
4.9514	4.4973
4.9232	4.4661
4.8953	4.4524
4.8678	4.4587
4.8405	4.4546
4.8135	4.4387
4.7868	4.4397
4.7605	4.4443
4.7344	4.4385
4.7086	4.425
4.6831	4.4206
4.6578	4.4131
4.6328	4.3996
4.6081	4.3865
4.5837	4.3796
4.5595	4.3852
4.5356	4.3923
4.5119	4.4033
4.4884	4.4133
4.4652	4.4248
4.4423	4.4348
4.4196	4.4421
4.3971	4.4536
4.3748	4.4575
4.3528	4.457
4.331	4.4599
4.3094	4.4592
4.288	4.4587
4.2668	4.458
4.2458	4.4575
4.2251	4.4568
4.2045	4.456
4.1841	4.4538
4.164	4.4521
4.144	4.4529
4.1242	4.4529
4.1046	4.4578
4.0852	4.4619
4.066	4.4651
4.047	4.4597
4.0281	4.4521
4.0094	4.4412
3.9909	4.4258
3.9725	4.4153
3.9544	4.4009
3.9363	4.3884
3.9185	4.375
3.9008	4.3603
3.8833	4.3413
3.8659	4.3223
3.8487	4.2995
3.8316	4.2761
3.8147	4.2495
3.7979	4.2212
3.7813	4.1907
3.7648	4.1565
3.7485	4.1211
3.7323	4.0847
3.7162	4.0483
3.7003	4.0088
3.6845	3.9739
3.6689	3.9355
3.6534	3.9001
3.638	3.8638
3.6227	3.8262
3.6076	3.7895
3.5926	3.7527
3.5777	3.7173
3.563	3.6787
3.5484	3.6387
3.5338	3.6011
3.5195	3.564
3.5052	3.5244
3.491	3.4819
3.477	3.4399
3.463	3.3977
3.4492	3.3538
3.4355	3.3054
3.4219	3.26
3.4084	3.2158
3.395	3.167
3.3817	3.1167
3.3685	3.0681
3.3554	3.0212
3.3425	2.9756
3.3296	2.9248
3.3168	2.8743
3.3041	2.8284
3.2915	2.7842
3.279	2.738
3.2666	2.6929
3.2543	2.6509
3.2421	2.6143
3.23	2.5784
3.218	2.541
3.206	2.5063
3.1942	2.4722
3.1824	2.4402
3.1707	2.4084
3.1591	2.3794
3.1476	2.3494
3.1362	2.3181
3.1249	2.2886
3.1136	2.2595
3.1024	2.2361
3.0913	2.2126
3.0803	2.1985
3.0694	2.1904
3.0585	2.1868
3.0477	2.186
3.037	2.187
3.0264	2.1868
3.0158	2.1887
3.0053	2.1963
2.9949	2.2068
2.9845	2.2222
2.9743	2.2414
2.9641	2.2685
2.9539	2.3037
2.9439	2.3418
2.9339	2.3877
2.9239	2.4397
2.9141	2.5051
2.9043	2.5823
2.8946	2.6748
2.8849	2.7856
2.8753	2.9133
2.8658	3.0483
2.8563	3.1877
2.8469	3.3323
2.8375	3.4831
2.8282	3.645
2.819	3.8049
2.8098	3.9675
2.8007	4.1199
2.7917	4.26
2.7827	4.3833
2.7738	4.4946
2.7649	4.5859
2.7561	4.6589
2.7473	4.7407
2.7386	4.8049
2.7299	4.8655
2.7213	4.9021
2.7128	4.9411
2.7043	4.9678
2.6959	4.9773
2.6875	4.988
2.6791	4.9861
2.6709	4.9773
2.6626	4.9858
2.6545	4.9822
2.6463	4.9778
2.6382	4.9707
2.6302	4.9548
2.6222	4.9536
2.6143	4.9514
2.6064	4.9424
2.5986	4.948
2.5908	4.9487
2.583	4.9451
2.5753	4.9521
2.5677	4.9529
2.5601	4.9556
2.5525	4.9614
2.545	4.9658
2.5375	4.9704
2.5301	4.9709
2.5227	4.9741
2.5154	4.9756
2.5081	4.9773
2.5008	4.9773
2.4936	4.9797
2.4864	4.9814
2.4793	4.9802
2.4722	4.9787
2.4651	4.9717
2.4581	4.968
2.4511	4.9624
2.4442	4.9556
2.4373	4.9487
2.4305	4.947
2.4236	4.9385
2.4169	4.9304
2.4101	4.9236
2.4034	4.9194
2.3967	4.917
2.3901	4.914
2.3835	4.9111
2.377	4.9114
2.3704	4.9097
2.364	4.9077
2.3575	4.9057
2.3511	4.905
2.3447	4.9018
2.3384	4.8987
2.3321	4.8948
2.3258	4.895
2.3195	4.8916
2.3133	4.8862
2.3071	4.883
2.301	4.8777
2.2949	4.8708
2.2888	4.8647
2.2828	4.8603
2.2767	4.8528
2.2708	4.8506
2.2648	4.8408
2.2589	4.831
2.253	4.8259
2.2471	4.8186
2.2413	4.8108
2.2355	4.8022
2.2297	4.7952
2.224	4.7886
2.2183	4.7795
2.2126	4.7703
2.207	4.7624
2.2013	4.7571
2.1957	4.7473
2.1902	4.7434
2.1846	4.7395
2.1791	4.7297
2.1736	4.7275
2.1682	4.7202
2.1628	4.7197
2.1574	4.7124
2.152	4.7041
2.1466	4.6985
2.1413	4.6924
2.136	4.6843
2.1308	4.6765
2.1255	4.6702
2.1203	4.6665
2.1151	4.6575
2.11	4.6506
2.1048	4.6389
2.0997	4.6357
2.0946	4.6247
2.0895	4.6186
2.0845	4.6103
2.0795	4.6072
