Name: Kainite MgSO4 * KCL * 3H2O
Type: Mineral
Class: Chloride
Subclass: None
Particle Size: Coarse
Sample No.: NMNH83904
Owner: Smithsonian Institute, National Museum of Nat. History
Wavelength Range: All
Origin: Stassfurt, Germany
Description: Kainite from Stassfurt, Germany - NMNH 83904Sample was Unsieved coarse powder. Original ASTER Spectral Library name was usgs.perknic.mineral.chloride.none.coarse.kainitc.spectrum.txt
Measurement: Directional Hemispherical Reflectance
X Units: Wavelength (micrometers)
Y Units: Reflectance (percent)
wavelength	value
13.9	1.597
13.644	1.833
13.398	2.132
13.16	1.957
12.93	1.7
12.708	1.607
12.494	1.669
12.287	1.473
12.086	1.38
11.892	1.071
11.704	1.215
11.522	1.349
11.346	1.432
11.175	1.576
11.009	1.638
10.848	1.648
10.691	1.885
10.539	2.029
10.391	2.317
10.247	2.369
10.108	2.472
9.972	2.554
9.839	2.668
9.71	2.328
9.585	2.822
9.462	2.987
9.343	3.162
9.226	3.523
9.113	4.038
9.002	5.304
8.894	10.444
8.789	13.987
8.686	5.335
8.585	3.883
8.487	11.412
8.391	7.385
8.297	2.874
8.205	0.433
8.115	0.299
8.027	0.402
7.941	0.494
7.857	0.711
7.774	0.772
7.694	0.896
7.614	0.979
7.537	1.02
7.461	1.051
7.387	1.102
7.314	1.236
7.242	1.236
7.172	1.246
7.103	1.339
7.036	1.298
6.97	1.401
6.905	1.36
6.841	1.318
6.778	1.308
6.717	1.37
6.657	1.391
6.597	1.432
6.539	1.339
6.482	1.349
6.426	1.401
6.37	1.37
6.316	1.452
6.263	1.411
6.21	1.452
6.159	1.463
6.108	1.349
6.058	1.04
6.009	1.02
5.96	0.999
5.913	1.133
5.866	1.195
5.82	1.524
5.775	1.988
5.73	2.348
5.686	2.812
5.643	3.131
5.6	3.574
5.558	3.852
5.517	4.171
5.476	4.336
5.436	4.614
5.396	4.717
5.357	4.728
5.319	4.903
5.281	5.037
5.243	5.232
5.206	5.449
5.17	5.583
5.134	5.5
5.099	5.418
5.064	5.315
5.03	5.16
4.996	5.047
4.962	4.882
4.929	4.686
4.897	4.357
4.865	4.161
4.833	3.904
4.802	3.667
4.771	3.492
4.74	3.059
4.71	2.853
4.68	2.833
4.651	2.534
4.622	2.369
4.593	2.338
4.565	2.307
4.537	2.276
4.509	2.266
4.482	2.41
4.455	2.575
4.428	2.771
4.402	3.038
4.376	2.997
4.35	3.09
4.325	3.481
4.3	3.646
4.275	3.77
4.251	3.935
4.226	4.542
4.202	5.037
4.179	5.49
4.155	5.778
4.132	5.995
4.109	6.273
4.086	6.664
4.064	6.932
4.042	7.21
4.02	7.478
3.998	8.013
3.977	8.487
3.956	8.745
3.935	9.054
3.914	9.383
3.893	9.569
3.873	9.775
3.853	9.929
3.833	9.857
3.813	9.847
3.794	9.682
3.774	9.311
3.755	9.074
3.736	8.755
3.717	8.425
3.699	7.89
3.68	7.488
3.662	7.066
3.644	6.644
3.626	6.056
3.609	5.644
3.591	5.191
3.574	4.728
3.557	4.336
3.54	3.955
3.523	3.708
3.506	3.43
3.49	3.234
3.473	3.255
3.457	3.038
3.441	2.905
3.425	2.75
3.409	2.585
3.394	2.472
3.378	2.297
3.363	2.338
3.348	2.235
3.333	2.194
3.318	1.978
3.303	2.153
3.288	2.122
3.274	2.122
3.259	1.988
3.245	2.173
3.231	1.967
3.217	1.833
3.203	1.792
3.189	1.833
3.176	1.823
3.162	1.833
3.149	1.761
3.135	1.813
3.122	1.844
3.109	1.854
3.096	1.905
3.083	1.885
3.07	1.782
3.058	1.875
3.045	1.844
3.033	1.864
3.02	1.885
3.008	2.029
2.996	2.009
2.984	2.009
2.972	1.463
2.96	1.524
2.948	1.081
2.937	1.205
2.925	1.02
2.913	0.979
2.902	0.968
2.891	1.143
2.879	0.814
2.868	0.875
2.857	0.948
2.846	0.927
2.835	0.917
2.825	0.865
2.814	0.927
2.803	1.009
2.793	1.277
2.782	1.411
2.772	1.607
2.761	1.875
2.751	2.245
2.741	2.771
2.731	3.883
2.721	4.192
2.711	4.934
2.701	6.015
2.691	6.376
2.681	7.076
2.672	7.292
2.662	7.838
2.653	8.261
2.643	8.909
2.634	8.951
2.624	9.208
2.615	8.868
2.606	8.868
2.597	8.343
2.588	8.055
2.579	7.704
2.57	6.736
2.561	6.664
2.552	7.189
2.543	7.55
2.535	7.21
2.526	7.241
2.517	6.942
2.509	6.901
2.5	7.344
2.486	7.853
2.472	8.186
2.458	8.943
2.444	9.612
2.43	10.223
2.416	11.422
2.402	12.801
2.388	14.787
2.374	17.013
2.36	19.166
2.346	21.012
2.332	22.534
2.318	23.794
2.304	24.239
2.29	24.178
2.276	23.638
2.262	23.105
2.248	22.392
2.234	21.72
2.22	21.119
2.206	20.779
2.192	20.646
2.178	20.604
2.164	20.348
2.15	19.767
2.136	18.743
2.122	17.526
2.108	16.748
2.094	16.27
2.08	15.788
2.066	15.115
2.052	14.193
2.038	13.203
2.024	11.285
2.01	9.773
1.996	9.651
1.982	8.386
1.968	8.485
1.954	11.015
1.94	13.921
1.926	17.434
1.912	21.758
1.898	25.996
1.884	28.901
1.87	30.33
1.856	30.554
1.842	30.384
1.828	29.597
1.814	28.486
1.8	27.636
1.786	26.936
1.772	27.821
1.758	28.501
1.744	28.634
1.73	28.661
1.716	28.907
1.702	29.238
1.688	29.658
1.674	30.142
1.66	30.24
1.646	30.165
1.632	30.125
1.618	30.058
1.604	29.555
1.59	28.193
1.576	26.293
1.562	24.344
1.548	22.44
1.534	20.966
1.52	20.556
1.506	19.609
1.492	19.085
1.478	18.949
1.464	21.52
1.45	26.083
1.436	31.171
1.422	35.826
1.408	39.065
1.394	41.046
1.38	42.47
1.366	43.769
1.352	45.317
1.338	46.49
1.324	47.576
1.31	48.161
1.296	48.027
1.282	47.473
1.268	46.578
1.254	46.24
1.24	46.019
1.226	45.847
1.212	46.277
1.198	46.785
1.184	48.749
1.17	50.347
1.156	51.448
1.142	51.925
1.128	52.439
1.114	52.612
1.1	52.671
1.086	52.677
1.072	52.642
1.058	52.582
1.044	52.067
1.03	51.488
1.016	51.372
1.002	51.824
0.988	52.487
0.974	53.35
0.96	53.717
0.946	54.199
0.932	54.327
0.918	54.251
0.904	54.353
0.89	54.549
0.876	54.815
0.862	54.39
0.848	54.822
0.834	54.871
0.82	54.902
0.806	54.957
0.792	54.932
0.778	54.982
0.764	55.064
0.75	55.116
0.736	55.161
0.722	55.202
0.708	55.167
0.694	55.183
0.68	55.185
0.666	55.159
0.652	55.146
0.638	55.152
0.624	55.103
0.61	55.054
0.596	54.958
0.582	54.82
0.568	54.626
0.554	54.387
0.54	54.083
0.526	53.68
0.512	53.203
0.498	52.632
0.484	52.076
0.47	51.623
0.456	51.143
0.442	50.245
0.428	48.699
0.414	46.981
0.4	44.983
