Name: Oligoclase (Feldspar) (NaSi,CaAl)AlSi_2O_8
Type: Mineral
Class: Silicate
Subclass: Tectosilicate
Particle Size: Fine
Sample No.: TS-3A
Owner: JPL
Wavelength Range: TIR
Description: Particle size was 0-45um.Collected by JPL Original ASTER Spectral Library name was jpl.nicolet.mineral.silicate.tectosilicate.fine.ts03a.spectrum.txt
Measurement: Hemispherical reflectance
X Units: Wavelength (micrometers)
Y Units: Reflectance (percent)
wavelength	value
15.3853	3.521
15.1161	2.1553
14.8563	2.8063
14.6052	2.9936
14.3624	3.0864
14.1276	3.0552
13.9004	2.9527
13.6803	2.7921
13.4671	3.0113
13.2604	2.6224
13.06	2.8653
12.8656	2.5205
12.6769	2.6752
12.4936	3.6636
12.3155	6.4431
12.1425	10.5801
11.9742	11.7215
11.8106	11.2672
11.6513	10.5748
11.4963	10.1542
11.3454	9.902
11.1983	8.7908
11.0551	6.9485
10.9154	5.9222
10.7793	5.2722
10.6465	5.0138
10.5169	5.0596
10.3904	5.188
10.267	5.7304
10.1464	6.1922
10.0287	6.7391
9.9136	6.9846
9.8012	6.7962
9.6913	6.576
9.5838	6.2076
9.4787	5.1486
9.3758	4.2752
9.2752	4.4219
9.1767	4.2693
9.0803	4.5639
8.9858	4.9338
8.8934	5.0081
8.8028	5.5031
8.714	5.8058
8.627	5.821
8.5417	6.2847
8.4581	6.583
8.3761	6.8773
8.2957	6.7423
8.2169	4.7823
8.1395	2.887
8.0635	1.7165
7.989	0.8945
7.9158	0.57
7.8439	0.5457
7.7734	0.5512
7.7041	0.7474
7.636	1.2091
7.5691	1.6445
7.5034	2.273
7.4388	3.0013
7.3753	3.7265
7.3129	4.4506
7.2515	5.3608
7.1912	6.3513
7.1318	7.296
7.0734	8.1027
7.016	8.8327
6.9595	9.406
6.9039	10.0078
6.8492	10.6083
6.7953	11.2377
6.7423	11.7463
6.6901	12.2921
6.6387	13.0559
6.5881	13.4468
6.5382	14.0457
6.4892	14.8592
6.4408	15.1035
6.3931	15.2262
6.3462	15.1818
6.2999	14.9516
6.2543	14.9196
6.2094	15.082
6.1651	15.4106
6.1214	16.0559
6.0784	16.5607
6.0359	16.8138
5.994	17.217
5.9527	17.6056
5.912	17.7192
5.8718	18.0007
5.8322	18.3952
5.7931	18.5525
5.7545	18.5759
5.7165	18.6546
5.6789	18.8899
5.6418	19.3392
5.6052	19.8289
5.5691	20.4226
5.5334	21.7086
5.4982	23.21
5.4635	24.8194
5.4291	26.381
5.3952	27.8974
5.3618	29.09
5.3287	30.0712
5.2961	30.8145
5.2638	31.3102
5.2319	31.9771
5.2004	33.2921
5.1693	34.7163
5.1386	36.2754
5.1082	37.9199
5.0782	39.7692
5.0485	41.3998
5.0192	43.0318
4.9902	44.2402
4.9616	45.4379
4.9332	46.1998
4.9052	46.5404
4.8776	47.1626
4.8502	47.8875
4.8231	48.3463
4.7963	48.7805
4.7699	49.1549
4.7437	49.918
4.7178	50.7641
4.6922	51.7214
4.6668	52.7567
4.6418	53.9337
4.617	55.1992
4.5924	56.763
4.5681	58.4857
4.5441	60.1126
4.5203	61.5406
4.4968	63.07
4.4735	64.4642
4.4505	65.8441
4.4277	67.045
4.4051	68.126
4.3828	69.2766
4.3607	70.4472
4.3388	71.4963
4.3171	72.5395
4.2956	73.5405
4.2744	74.4399
4.2534	75.3183
4.2325	75.9654
4.2119	76.7122
4.1915	77.3782
4.1712	77.813
4.1512	78.2158
4.1313	78.5123
4.1117	78.6434
4.0922	78.8439
4.0729	79.0959
4.0538	79.0744
4.0349	79.0195
4.0161	78.8605
3.9976	78.5031
3.9792	78.212
3.9609	78.311
3.9428	78.9514
3.9249	79.2824
3.9072	79.5072
3.8896	79.6619
3.8722	79.6818
3.8549	79.8164
3.8378	79.9597
3.8208	79.8814
3.804	80.0491
3.7873	80.1447
3.7708	80.1831
3.7544	80.0773
3.7382	80.0062
3.7221	79.9176
3.7061	79.822
3.6903	79.5564
3.6746	79.3832
3.659	79.2488
3.6436	79.0077
3.6283	78.7359
3.6131	78.5365
3.5981	78.304
3.5832	77.9593
3.5684	77.528
3.5537	77.0882
3.5391	76.631
3.5247	75.8516
3.5104	74.4783
3.4962	73.6074
3.4821	73.4376
3.4681	73.1916
3.4543	72.8615
3.4405	72.1232
3.4269	70.9219
3.4133	69.8577
3.3999	69.9904
3.3866	69.8906
3.3733	69.2059
3.3602	69.2481
3.3472	68.9603
3.3343	68.674
3.3215	68.1758
3.3088	67.6065
3.2961	66.9997
3.2836	66.3587
3.2712	65.5568
3.2588	64.8872
3.2466	64.0298
3.2345	63.3032
3.2224	62.4291
3.2104	61.4501
3.1985	60.3375
3.1867	59.2788
3.175	58.0995
3.1634	57.2597
3.1519	56.3754
3.1404	55.6949
3.129	54.9971
3.1178	54.3695
3.1065	53.5637
3.0954	52.8697
3.0844	52.3025
3.0734	51.8872
3.0625	51.4612
3.0517	51.1008
3.041	50.5748
3.0303	49.6351
3.0197	48.4189
3.0092	47.039
2.9987	46.6343
2.9884	46.569
2.9781	46.7274
2.9678	46.8337
2.9577	46.7753
2.9476	46.7992
2.9376	46.6845
2.9276	46.7187
2.9177	47.2862
2.9079	47.2977
2.8982	47.6973
2.8885	47.9444
2.8789	47.9543
2.8693	47.9673
2.8598	48.8532
2.8504	50.1742
2.841	51.6175
2.8317	52.5321
2.8224	53.5384
2.8133	54.5457
2.8041	55.5285
2.7951	56.2711
2.786	56.4824
2.7771	55.2949
2.7682	52.6401
2.7594	50.6281
2.7506	52.2299
2.7418	54.8587
2.7332	57.9422
2.7246	63.7904
2.716	70.9154
2.7075	76.6491
2.699	79.5326
2.6906	82.0329
2.6823	83.5081
2.674	84.4413
2.6657	85.7392
2.6575	85.491
2.6494	85.9163
2.6413	86.21
2.6332	86.2998
2.6252	86.3472
2.6173	86.822
2.6094	86.682
2.6015	86.6873
2.5937	87.1781
2.5859	86.9118
2.5782	86.6842
2.5706	87.0732
2.5629	87.1725
2.5554	86.886
2.5478	87.2057
2.5403	86.9731
2.5329	87.011
2.5255	87.123
2.5181	87.1798
2.5108	87.0514
2.5035	87.2317
2.4963	87.1737
2.4891	87.0349
2.482	87.098
2.4749	87.1748
2.4678	87.1092
2.4608	87.0751
2.4538	87.3184
2.4468	87.2145
2.4399	87.1933
2.4331	87.2071
2.4262	87.4138
2.4194	87.4756
2.4127	87.7139
2.4059	87.8881
2.3993	87.9422
2.3926	87.9119
2.386	87.8634
2.3795	87.8292
2.3729	87.7488
2.3664	87.5476
2.36	87.1606
2.3535	87.2161
2.3471	87.4293
2.3408	87.5516
2.3345	87.767
2.3282	87.9623
2.3219	88.3078
2.3157	88.5664
2.3095	88.6423
2.3034	88.4884
2.2972	88.7252
2.2911	88.7157
2.2851	88.856
2.279	88.7585
2.2731	88.9664
2.2671	88.8691
2.2612	88.8137
2.2553	88.8667
2.2494	88.8757
2.2435	88.8485
2.2377	88.9646
2.232	88.9772
2.2262	88.7333
2.2205	88.904
2.2148	88.8228
2.2091	88.3356
2.2035	88.1141
2.1979	87.9004
2.1923	88.1183
2.1868	88.5314
2.1812	88.7999
2.1758	89.0481
2.1703	89.4601
2.1649	89.3151
2.1595	89.3151
2.1541	89.2705
2.1487	89.4646
2.1434	89.3997
2.1381	89.5528
2.1328	89.4842
2.1275	89.6203
2.1223	89.6533
2.1171	89.513
2.112	89.3913
2.1068	89.6523
2.1017	89.669
2.0966	89.8678
2.0915	89.3868
2.0865	89.5032
2.0814	89.6007
2.0764	89.8066
2.0715	90.1002
2.0665	89.4352
2.0616	89.6348
2.0567	89.3014
2.0518	89.4054
2.0469	89.5302
2.0421	89.4321
2.0373	89.349
2.0325	89.6399
2.0277	89.3073
2.0229	89.5881
2.0182	89.4029
2.0135	89.3351
2.0088	89.3376
2.0042	89.258
