Name: Sepiolite Mg_4Si_6O_15(OH)_2.6H_2O
Type: Mineral
Class: Silicate
Subclass: Phyllosilicate
Particle Size: Fine
Sample No.: PS-5A
Owner: JPL
Wavelength Range: TIR
Origin: USA, Nevada, Two Crows
Description: Particle size was 0-45um.Collected by Clay Mineral Society Original ASTER Spectral Library name was jpl.nicolet.mineral.silicate.phyllosilicate.fine.ps05a.spectrum.txt
Measurement: Hemispherical reflectance
X Units: Wavelength (micrometers)
Y Units: Reflectance (percent)
wavelength	value
15.3853	0.3199
15.1161	0.296
14.8563	0.5809
14.6052	0.3421
14.3624	0.425
14.1276	0.5632
13.9004	0.3018
13.6803	0.6382
13.4671	0.8118
13.2604	0.8269
13.06	0.8504
12.8656	0.9293
12.6769	0.6954
12.4936	1.1765
12.3155	1.7497
12.1425	2.4353
11.9742	2.7856
11.8106	3.3762
11.6513	3.325
11.4963	3.3317
11.3454	3.2831
11.1983	3.9415
11.0551	4.7792
10.9154	4.7584
10.7793	4.9101
10.6465	3.8826
10.5169	2.8247
10.3904	2.3112
10.267	2.3014
10.1464	2.0001
10.0287	1.6575
9.9136	2.4394
9.8012	2.8422
9.6913	3.3814
9.5838	2.9737
9.4787	2.5021
9.3758	1.791
9.2752	0.9926
9.1767	1.1777
9.0803	1.3985
8.9858	1.1664
8.8934	1.1901
8.8028	1.4944
8.714	1.1839
8.627	1.264
8.5417	1.2711
8.4581	1.043
8.3761	0.6043
8.2957	0.2951
8.2169	0.265
8.1395	0.4046
8.0635	0.3756
7.989	0.3727
7.9158	0.4608
7.8439	0.4047
7.7734	0.5855
7.7041	0.6699
7.636	0.7962
7.5691	1.0153
7.5034	1.0228
7.4388	0.8985
7.3753	1.1126
7.3129	1.3757
7.2515	1.5645
7.1912	1.6919
7.1318	1.6587
7.0734	1.9407
7.016	2.1818
6.9595	2.7149
6.9039	3.2112
6.8492	3.5716
6.7953	4.0343
6.7423	4.3966
6.6901	4.6436
6.6387	5.0081
6.5881	4.9462
6.5382	5.0432
6.4892	5.2211
6.4408	4.9628
6.3931	4.8768
6.3462	4.3556
6.2999	3.8257
6.2543	2.6473
6.2094	1.5256
6.1651	0.8321
6.1214	0.8138
6.0784	0.6033
6.0359	0.4731
5.994	0.5628
5.9527	0.7546
5.912	1.6778
5.8718	3.1666
5.8322	4.7921
5.7931	6.0384
5.7545	7.1871
5.7165	7.7877
5.6789	8.3194
5.6418	8.6515
5.6052	9.0379
5.5691	9.4649
5.5334	9.9352
5.4982	10.6535
5.4635	11.4732
5.4291	12.1488
5.3952	12.5455
5.3618	12.7805
5.3287	12.7594
5.2961	12.6503
5.2638	12.2683
5.2319	12.5077
5.2004	13.0819
5.1693	13.7979
5.1386	14.4133
5.1082	14.5846
5.0782	14.5547
5.0485	14.3868
5.0192	14.5208
4.9902	14.771
4.9616	15.0062
4.9332	15.0035
4.9052	14.9729
4.8776	15.0761
4.8502	15.0517
4.8231	15.0526
4.7963	15.1192
4.7699	14.9176
4.7437	14.7087
4.7178	14.86
4.6922	15.1026
4.6668	15.7361
4.6418	16.3546
4.617	16.86
4.5924	17.0593
4.5681	17.0336
4.5441	16.9537
4.5203	16.9271
4.4968	17.0099
4.4735	17.0614
4.4505	17.4246
4.4277	17.998
4.4051	18.8281
4.3828	19.7085
4.3607	20.6671
4.3388	21.7252
4.3171	22.8011
4.2956	23.9005
4.2744	25.0518
4.2534	26.2663
4.2325	27.1326
4.2119	28.2275
4.1915	29.2004
4.1712	30.0787
4.1512	30.8769
4.1313	31.5998
4.1117	32.3851
4.0922	32.9103
4.0729	33.6308
4.0538	34.6955
4.0349	35.8332
4.0161	36.7475
3.9976	37.5502
3.9792	38.2117
3.9609	38.7092
3.9428	39.2658
3.9249	39.6285
3.9072	40.0341
3.8896	40.1027
3.8722	40.1637
3.8549	40.275
3.8378	40.1795
3.8208	39.8677
3.804	39.6443
3.7873	39.3902
3.7708	39.0166
3.7544	38.5397
3.7382	38.0662
3.7221	37.6006
3.7061	36.8508
3.6903	36.0747
3.6746	35.0977
3.659	34.321
3.6436	33.2758
3.6283	32.4177
3.6131	31.3693
3.5981	30.3986
3.5832	29.5572
3.5684	28.4257
3.5537	27.3322
3.5391	26.061
3.5247	24.7837
3.5104	23.396
3.4962	22.0214
3.4821	21.0359
3.4681	20.0177
3.4543	18.8203
3.4405	17.6206
3.4269	16.3797
3.4133	15.0461
3.3999	14.1673
3.3866	13.0964
3.3733	12.2297
3.3602	11.223
3.3472	10.3885
3.3343	9.5058
3.3215	8.6329
3.3088	7.9814
3.2961	7.1121
3.2836	6.4926
3.2712	5.8999
3.2588	5.1711
3.2466	4.679
3.2345	4.3553
3.2224	3.917
3.2104	3.3609
3.1985	3.0632
3.1867	2.7097
3.175	2.3666
3.1634	2.1835
3.1519	2.0599
3.1404	1.7967
3.129	1.6335
3.1178	1.4574
3.1065	1.3573
3.0954	1.1878
3.0844	1.2062
3.0734	1.159
3.0625	1.2813
3.0517	1.1931
3.041	1.1123
3.0303	1.141
3.0197	1.2256
3.0092	1.1732
2.9987	1.1355
2.9884	0.8884
2.9781	0.9214
2.9678	0.8902
2.9577	0.8966
2.9476	0.8283
2.9376	1.1093
2.9276	0.7891
2.9177	1.0587
2.9079	0.9558
2.8982	0.9613
2.8885	1.1827
2.8789	1.0503
2.8693	1.1163
2.8598	1.1503
2.8504	1.2422
2.841	1.3187
2.8317	0.8935
2.8224	0.961
2.8133	0.7626
2.8041	0.6865
2.7951	0.75
2.786	0.8722
2.7771	1.0932
2.7682	1.1719
2.7594	0.9951
2.7506	1.1767
2.7418	1.626
2.7332	2.0978
2.7246	3.6148
2.716	4.1388
2.7075	4.4341
2.699	11.2328
2.6906	13.1952
2.6823	18.9633
2.674	22.2033
2.6657	24.8862
2.6575	26.3259
2.6494	28.0528
2.6413	29.4733
2.6332	30.7768
2.6252	31.8034
2.6173	32.6621
2.6094	33.2596
2.6015	33.8647
2.5937	34.5044
2.5859	34.2868
2.5782	34.3317
2.5706	34.4559
2.5629	34.4946
2.5554	34.1584
2.5478	34.02
2.5403	33.8497
2.5329	34.0286
2.5255	34.1773
2.5181	34.6439
2.5108	35.1072
2.5035	35.7723
2.4963	36.5364
2.4891	37.2913
2.482	38.2548
2.4749	38.9573
2.4678	39.9119
2.4608	40.2256
2.4538	40.7533
2.4468	41.2082
2.4399	41.5373
2.4331	41.5551
2.4262	42.0679
2.4194	42.5624
2.4127	42.9314
2.4059	43.6096
2.3993	44.5321
2.3926	44.0059
2.386	44.6524
2.3795	46.4075
2.3729	48.8165
2.3664	50.0011
2.36	51.1671
2.3535	52.3846
2.3471	53.3209
2.3408	54.2571
2.3345	54.9351
2.3282	53.7584
2.3219	51.2954
2.3157	48.8618
2.3095	49.3758
2.3034	52.9765
2.2972	53.9011
2.2911	54.4212
2.2851	56.4578
2.279	58.8987
2.2731	60.0352
2.2671	60.9677
2.2612	61.7012
2.2553	62.1925
2.2494	62.6367
2.2435	62.7366
2.2377	63.0109
2.232	63.0599
2.2262	63.0607
2.2205	63.4434
2.2148	63.6503
2.2091	63.8947
2.2035	64.0736
2.1979	64.3051
2.1923	64.1355
2.1868	63.9675
2.1812	64.4151
2.1758	64.663
2.1703	64.8224
2.1649	64.7683
2.1595	65.0821
2.1541	65.0116
2.1487	65.1912
2.1434	65.2467
2.1381	65.1729
2.1328	65.48
2.1275	65.2298
2.1223	65.0355
2.1171	64.7535
2.112	65.2256
2.1068	64.7958
2.1017	64.5804
2.0966	64.132
2.0915	64.1195
2.0865	63.8585
2.0814	63.7897
2.0764	63.8301
2.0715	63.3939
2.0665	63.4429
2.0616	62.9188
2.0567	63.0915
2.0518	62.9741
2.0469	62.5051
2.0421	62.0885
2.0373	61.893
2.0325	61.4416
2.0277	61.0625
2.0229	60.0488
2.0182	59.3014
2.0135	58.2836
2.0088	57.6093
2.0042	56.7276
