Name: Amblygonite (Li,Na)Al(PO_4)(F,OH)
Type: Mineral
Class: Phosphate
Subclass: None
Particle Size: Medium
Sample No.: P-3A
Owner: JPL
Wavelength Range: TIR
Origin: USA, California, San Diego County, Pala
Description: Particle size was 45-125um.Collected by Burminco Original ASTER Spectral Library name was jpl.nicolet.mineral.phosphate.none.medium.p03a.spectrum.txt
Measurement: Hemispherical reflectance
X Units: Wavelength (micrometers)
Y Units: Reflectance (percent)
wavelength	value
15.3853	6.4093
15.1161	6.1431
14.8563	6.0149
14.6052	3.395
14.3624	1.3933
14.1276	0.6358
13.9004	0.5921
13.6803	0.9124
13.4671	1.2747
13.2604	1.5189
13.06	1.9624
12.8656	2.3369
12.6769	2.6917
12.4936	3.4941
12.3155	4.0925
12.1425	5.0751
11.9742	4.7546
11.8106	2.3886
11.6513	2.553
11.4963	2.5332
11.3454	3.0133
11.1983	3.3523
11.0551	3.7619
10.9154	3.7886
10.7793	3.9216
10.6465	4.2036
10.5169	4.383
10.3904	4.6367
10.267	5.3052
10.1464	5.8827
10.0287	7.091
9.9136	8.9586
9.8012	11.181
9.6913	9.9375
9.5838	7.5684
9.4787	10.24
9.3758	16.2238
9.2752	22.3105
9.1767	28.1984
9.0803	31.2603
8.9858	30.8865
8.8934	29.6125
8.8028	27.7526
8.714	22.0206
8.627	19.9001
8.5417	19.3918
8.4581	18.2863
8.3761	14.3858
8.2957	11.9003
8.2169	11.391
8.1395	7.2636
8.0635	3.1257
7.989	1.106
7.9158	0.5439
7.8439	0.3395
7.7734	0.3304
7.7041	0.2903
7.636	0.3627
7.5691	0.4004
7.5034	0.5583
7.4388	0.8579
7.3753	0.9848
7.3129	1.2752
7.2515	1.6528
7.1912	1.9084
7.1318	2.1177
7.0734	2.5317
7.016	2.5524
6.9595	2.8217
6.9039	2.9952
6.8492	3.288
6.7953	3.7539
6.7423	3.7921
6.6901	4.1265
6.6387	4.7903
6.5881	4.8667
6.5382	5.0763
6.4892	5.7985
6.4408	5.9945
6.3931	5.4649
6.3462	4.9879
6.2999	4.3212
6.2543	4.0123
6.2094	4.1414
6.1651	4.3688
6.1214	4.9543
6.0784	5.6338
6.0359	6.6152
5.994	7.7951
5.9527	8.0421
5.912	8.8577
5.8718	9.5524
5.8322	10.209
5.7931	10.6043
5.7545	11.4876
5.7165	12.501
5.6789	13.3193
5.6418	14.7522
5.6052	15.2507
5.5691	15.8484
5.5334	16.3856
5.4982	16.8434
5.4635	17.241
5.4291	16.8963
5.3952	16.2061
5.3618	16.0075
5.3287	16.0313
5.2961	16.6569
5.2638	17.2206
5.2319	17.9382
5.2004	18.5277
5.1693	18.9026
5.1386	19.2293
5.1082	19.3403
5.0782	18.5171
5.0485	16.8227
5.0192	14.3097
4.9902	12.229
4.9616	10.827
4.9332	10.4361
4.9052	9.8441
4.8776	8.9109
4.8502	8.3411
4.8231	8.2154
4.7963	8.0736
4.7699	7.7261
4.7437	7.4474
4.7178	7.4758
4.6922	7.6239
4.6668	8.0487
4.6418	8.3364
4.617	8.6342
4.5924	8.9189
4.5681	8.8827
4.5441	8.9408
4.5203	9.1077
4.4968	9.2863
4.4735	9.6695
4.4505	9.9554
4.4277	9.8508
4.4051	9.4282
4.3828	9.8181
4.3607	10.3963
4.3388	11.1136
4.3171	11.3354
4.2956	11.113
4.2744	10.6324
4.2534	10.3574
4.2325	10.4938
4.2119	10.2031
4.1915	9.6155
4.1712	9.7331
4.1512	10.6576
4.1313	13.0582
4.1117	16.3449
4.0922	19.2341
4.0729	21.1371
4.0538	22.3427
4.0349	22.85
4.0161	23.4088
3.9976	23.4241
3.9792	23.6981
3.9609	24.0259
3.9428	24.2351
3.9249	24.4404
3.9072	24.6438
3.8896	24.9248
3.8722	25.0554
3.8549	25.3035
3.8378	25.5273
3.8208	25.7244
3.804	26.042
3.7873	26.1943
3.7708	26.2913
3.7544	26.3456
3.7382	26.2906
3.7221	26.3705
3.7061	26.2901
3.6903	26.1586
3.6746	26.0931
3.659	25.7923
3.6436	25.6348
3.6283	25.3481
3.6131	25.0645
3.5981	24.7556
3.5832	24.3205
3.5684	24.0519
3.5537	23.6911
3.5391	23.063
3.5247	22.6407
3.5104	22.3088
3.4962	21.807
3.4821	21.3767
3.4681	21.0749
3.4543	20.6431
3.4405	20.2757
3.4269	20.1965
3.4133	19.7085
3.3999	19.2997
3.3866	18.9056
3.3733	18.3371
3.3602	17.4967
3.3472	16.8582
3.3343	15.9854
3.3215	15.2015
3.3088	14.1475
3.2961	13.4051
3.2836	12.6109
3.2712	11.9978
3.2588	11.5684
3.2466	11.2685
3.2345	10.9008
3.2224	10.7082
3.2104	10.3313
3.1985	10.0677
3.1867	9.584
3.175	9.2028
3.1634	8.6102
3.1519	8.1433
3.1404	7.7484
3.129	7.3807
3.1178	7.0009
3.1065	6.6787
3.0954	6.5576
3.0844	6.3561
3.0734	6.3169
3.0625	6.3905
3.0517	6.5009
3.041	6.2434
3.0303	5.915
3.0197	5.2998
3.0092	5.1317
2.9987	5.0928
2.9884	4.9371
2.9781	4.955
2.9678	4.7216
2.9577	4.6735
2.9476	4.4211
2.9376	4.3641
2.9276	4.3086
2.9177	4.5679
2.9079	5.5678
2.8982	5.9786
2.8885	6.1284
2.8789	6.1797
2.8693	6.1822
2.8598	6.3144
2.8504	6.7236
2.841	7.1189
2.8317	7.5312
2.8224	8.4596
2.8133	9.7396
2.8041	11.036
2.7951	11.9146
2.786	13.0978
2.7771	13.9383
2.7682	14.4924
2.7594	15.3953
2.7506	17.6591
2.7418	19.5348
2.7332	20.3777
2.7246	22.5782
2.716	22.8347
2.7075	23.6914
2.699	26.3914
2.6906	29.4181
2.6823	32.0839
2.674	33.1179
2.6657	34.6319
2.6575	33.2457
2.6494	32.6124
2.6413	32.5342
2.6332	32.2046
2.6252	31.9821
2.6173	32.5961
2.6094	32.3
2.6015	32.6841
2.5937	34.4833
2.5859	34.2885
2.5782	34.7489
2.5706	35.3668
2.5629	36.3728
2.5554	35.7551
2.5478	36.871
2.5403	37.684
2.5329	38.6998
2.5255	39.6984
2.5181	40.6696
2.5108	41.6004
2.5035	42.3197
2.4963	43.0659
2.4891	44.3137
2.482	45.8662
2.4749	47.7339
2.4678	49.3666
2.4608	51.6593
2.4538	53.74
2.4468	55.5641
2.4399	56.8532
2.4331	57.4549
2.4262	57.6338
2.4194	57.5735
2.4127	56.6629
2.4059	54.8843
2.3993	50.9175
2.3926	43.8456
2.386	35.7652
2.3795	31.045
2.3729	31.26
2.3664	36.2393
2.36	44.7435
2.3535	55.1213
2.3471	61.2872
2.3408	64.1426
2.3345	65.4704
2.3282	66.0044
2.3219	65.9283
2.3157	65.4344
2.3095	64.8234
2.3034	63.8492
2.2972	62.8065
2.2911	61.5424
2.2851	60.5599
2.279	59.4342
2.2731	58.7271
2.2671	58.0288
2.2612	57.3782
2.2553	56.1563
2.2494	54.8087
2.2435	53.2073
2.2377	51.6836
2.232	50.0186
2.2262	48.168
2.2205	45.9732
2.2148	43.6679
2.2091	40.3156
2.2035	37.3621
2.1979	34.418
2.1923	31.5914
2.1868	29.1491
2.1812	27.1546
2.1758	26.5034
2.1703	29.1488
2.1649	36.9484
2.1595	47.0317
2.1541	55.3189
2.1487	59.9516
2.1434	62.5535
2.1381	64.0135
2.1328	64.745
2.1275	65.296
2.1223	66.0236
2.1171	66.809
2.112	67.998
2.1068	68.6994
2.1017	69.4547
2.0966	70.1587
2.0915	70.2622
2.0865	70.2449
2.0814	70.1824
2.0764	69.4763
2.0715	69.1062
2.0665	69.0219
2.0616	69.0623
2.0567	69.3213
2.0518	69.5844
2.0469	70.1975
2.0421	70.8672
2.0373	71.5555
2.0325	72.1591
2.0277	72.2878
2.0229	72.0278
2.0182	71.6029
2.0135	70.3044
2.0088	68.054
2.0042	64.0711
