Name: Corrensite (Mg,Fe)_9(Si,Al)_8O_20(OH)_10._xH_2O
Type: Mineral
Class: Silicate
Subclass: Phyllosilicate
Particle Size: Fine
Sample No.: PS-10A
Owner: JPL
Wavelength Range: TIR
Origin: USA, Washington, Packwood
Description: Particle size was 0-45um.Collected by Clay Mineral Society Original ASTER Spectral Library name was jpl.nicolet.mineral.silicate.phyllosilicate.fine.ps10a.spectrum.txt
Measurement: Hemispherical reflectance
X Units: Wavelength (micrometers)
Y Units: Reflectance (percent)
wavelength	value
15.3853	1.9918
15.1161	2.1923
14.8563	2.2639
14.6052	2.2077
14.3624	1.9789
14.1276	2.1314
13.9004	2.3641
13.6803	2.3026
13.4671	2.5082
13.2604	2.4864
13.06	2.2532
12.8656	2.3605
12.6769	2.2248
12.4936	2.2754
12.3155	2.7978
12.1425	3.8338
11.9742	4.7819
11.8106	5.0446
11.6513	5.4682
11.4963	5.4821
11.3454	5.3445
11.1983	5.1105
11.0551	5.0038
10.9154	4.3829
10.7793	4.0547
10.6465	3.7345
10.5169	3.6187
10.3904	3.5868
10.267	3.4783
10.1464	3.6429
10.0287	3.687
9.9136	3.9651
9.8012	3.9454
9.6913	4.1678
9.5838	4.1827
9.4787	4.1089
9.3758	4.5119
9.2752	4.8464
9.1767	4.7479
9.0803	4.5784
8.9858	4.2098
8.8934	4.2843
8.8028	4.105
8.714	4.2319
8.627	3.9865
8.5417	4.6173
8.4581	5.1346
8.3761	5.5031
8.2957	6.3244
8.2169	7.0528
8.1395	6.956
8.0635	5.9986
7.989	5.4885
7.9158	4.9769
7.8439	4.7252
7.7734	5.1276
7.7041	5.5599
7.636	5.9748
7.5691	6.3121
7.5034	6.8046
7.4388	7.3558
7.3753	7.851
7.3129	8.0553
7.2515	8.49
7.1912	8.8111
7.1318	9.2077
7.0734	9.6857
7.016	9.7258
6.9595	9.9608
6.9039	10.429
6.8492	10.5742
6.7953	11.0874
6.7423	11.549
6.6901	12.0225
6.6387	12.7065
6.5881	13.1426
6.5382	13.7631
6.4892	14.7607
6.4408	15.4543
6.3931	15.0929
6.3462	14.1557
6.2999	12.9595
6.2543	11.6423
6.2094	10.1696
6.1651	9.104
6.1214	8.6867
6.0784	8.5973
6.0359	9.0653
5.994	10.2225
5.9527	11.5943
5.912	13.7256
5.8718	16.0221
5.8322	17.9356
5.7931	19.3597
5.7545	20.2007
5.7165	20.7991
5.6789	21.0421
5.6418	20.6118
5.6052	20.1874
5.5691	19.7987
5.5334	21.691
5.4982	23.39
5.4635	24.8515
5.4291	25.1615
5.3952	23.945
5.3618	22.1314
5.3287	22.468
5.2961	23.5666
5.2638	25.4634
5.2319	28.1237
5.2004	29.9719
5.1693	30.5806
5.1386	30.8928
5.1082	31.349
5.0782	31.1247
5.0485	31.2066
5.0192	31.4221
4.9902	32.1732
4.9616	34.3438
4.9332	35.7463
4.9052	37.4451
4.8776	39.4517
4.8502	40.5502
4.8231	41.3267
4.7963	41.7973
4.7699	42.2945
4.7437	42.8665
4.7178	43.4133
4.6922	43.7465
4.6668	44.265
4.6418	45.1373
4.617	45.9388
4.5924	46.7166
4.5681	47.26
4.5441	47.8536
4.5203	48.1055
4.4968	48.3799
4.4735	48.7833
4.4505	49.3692
4.4277	49.9002
4.4051	50.5868
4.3828	51.2538
4.3607	51.9822
4.3388	52.4747
4.3171	52.8495
4.2956	53.2553
4.2744	53.7113
4.2534	54.2519
4.2325	54.5526
4.2119	55.0077
4.1915	55.4473
4.1712	55.7788
4.1512	56.2599
4.1313	56.481
4.1117	56.9033
4.0922	57.0571
4.0729	57.3079
4.0538	57.3394
4.0349	57.0188
4.0161	56.5364
3.9976	54.9663
3.9792	54.1012
3.9609	54.8696
3.9428	56.2225
3.9249	56.763
3.9072	57.0016
3.8896	56.813
3.8722	56.7283
3.8549	56.6974
3.8378	56.6036
3.8208	56.7492
3.804	56.8694
3.7873	56.7035
3.7708	56.4555
3.7544	56.0143
3.7382	55.6599
3.7221	55.1935
3.7061	54.7805
3.6903	54.2431
3.6746	53.7947
3.659	53.2149
3.6436	52.5765
3.6283	51.9255
3.6131	51.3659
3.5981	50.6293
3.5832	49.9253
3.5684	49.1923
3.5537	48.3493
3.5391	47.6069
3.5247	46.3831
3.5104	45.0687
3.4962	44.0213
3.4821	43.0426
3.4681	42.5406
3.4543	41.8233
3.4405	40.9763
3.4269	39.944
3.4133	38.8228
3.3999	37.9682
3.3866	36.9942
3.3733	35.9385
3.3602	34.9293
3.3472	33.8425
3.3343	33.083
3.3215	32.0176
3.3088	31.0667
3.2961	29.9806
3.2836	28.849
3.2712	27.8294
3.2588	26.5939
3.2466	25.6202
3.2345	24.4048
3.2224	23.3654
3.2104	22.3426
3.1985	21.2109
3.1867	20.2649
3.175	19.3836
3.1634	18.3922
3.1519	17.3423
3.1404	16.4977
3.129	15.7098
3.1178	14.8464
3.1065	14.2808
3.0954	13.6238
3.0844	13.1082
3.0734	12.6915
3.0625	12.1884
3.0517	11.7777
3.041	11.4819
3.0303	10.8845
3.0197	10.76
3.0092	10.2803
2.9987	9.9351
2.9884	9.4425
2.9781	9.1258
2.9678	8.8208
2.9577	8.6735
2.9476	8.3923
2.9376	8.2721
2.9276	8.3526
2.9177	8.3005
2.9079	8.3325
2.8982	8.4201
2.8885	8.4705
2.8789	8.3615
2.8693	8.4052
2.8598	8.3602
2.8504	7.9886
2.841	7.9977
2.8317	7.7196
2.8224	7.4562
2.8133	7.3353
2.8041	7.1248
2.7951	7.3185
2.786	7.9789
2.7771	8.9228
2.7682	10.22
2.7594	11.7101
2.7506	13.9183
2.7418	17.1216
2.7332	21.3324
2.7246	27.2605
2.716	34.6567
2.7075	43.1187
2.699	49.1384
2.6906	52.9286
2.6823	55.9453
2.674	57.9256
2.6657	59.4177
2.6575	60.7694
2.6494	61.6495
2.6413	62.1419
2.6332	62.7313
2.6252	63.0601
2.6173	63.165
2.6094	63.6036
2.6015	63.9168
2.5937	63.7769
2.5859	64.2383
2.5782	64.3184
2.5706	64.4046
2.5629	64.5043
2.5554	64.782
2.5478	64.7392
2.5403	64.8712
2.5329	64.9146
2.5255	65.1642
2.5181	65.2345
2.5108	65.4536
2.5035	65.4025
2.4963	65.7199
2.4891	66.02
2.482	66.222
2.4749	66.3056
2.4678	66.7499
2.4608	67.2061
2.4538	67.4394
2.4468	67.7203
2.4399	68.0028
2.4331	68.1217
2.4262	68.2384
2.4194	68.4874
2.4127	68.5505
2.4059	68.5086
2.3993	68.5908
2.3926	68.6384
2.386	68.8702
2.3795	68.7852
2.3729	68.6764
2.3664	68.5116
2.36	68.6535
2.3535	68.5093
2.3471	68.4979
2.3408	68.7489
2.3345	68.8549
2.3282	69.1724
2.3219	69.3002
2.3157	69.3599
2.3095	69.5175
2.3034	69.4735
2.2972	69.5534
2.2911	69.8058
2.2851	70.12
2.279	70.6218
2.2731	70.9691
2.2671	71.1941
2.2612	71.4657
2.2553	71.7357
2.2494	72.2022
2.2435	72.5714
2.2377	73.181
2.232	73.4649
2.2262	73.7651
2.2205	74.3149
2.2148	74.166
2.2091	74.275
2.2035	74.3294
2.1979	74.5144
2.1923	74.5556
2.1868	74.7626
2.1812	74.7528
2.1758	75.2106
2.1703	74.9844
2.1649	75.2474
2.1595	75.3808
2.1541	75.2864
2.1487	75.6326
2.1434	75.352
2.1381	75.1457
2.1328	75.3703
2.1275	75.3923
2.1223	75.4171
2.1171	75.3888
2.112	75.4375
2.1068	75.3656
2.1017	75.4391
2.0966	75.4523
2.0915	75.1252
2.0865	74.9055
2.0814	75.2265
2.0764	75.1396
2.0715	75.2385
2.0665	75.2559
2.0616	74.9209
2.0567	74.7285
2.0518	74.608
2.0469	74.9569
2.0421	74.4385
2.0373	74.3271
2.0325	74.4219
2.0277	74.2905
2.0229	73.9919
2.0182	73.7324
2.0135	73.7692
2.0088	73.6287
2.0042	73.6169
