Name: Bornite Cu_5FeS_4
Type: Mineral
Class: Sulfide
Subclass: None
Particle Size: Fine
Sample No.: S-9A
Owner: JPL
Wavelength Range: VSWIR
Origin: USA, Arizona, Pinal County, Superior, Magma Mine.
Description: Particle size was  0-45um. Collected by:  Burminco Original ASTER Spectral Library name was jpl.perkin.mineral.sulfide.none.fine.s09a.spectrum.txt
Measurement: Hemispherical reflectance
X Units: Wavelength (micrometers)
Y Units: Reflectance (percent)
wavelength	value
2.5	7.9386
2.494	7.8113
2.488	7.7448
2.482	7.8769
2.476	7.8327
2.47	7.7288
2.464	7.8805
2.458	7.969
2.452	7.8644
2.446	7.867
2.44	7.8
2.434	7.8354
2.428	7.8226
2.422	7.8199
2.416	7.8742
2.41	7.845
2.404	7.8994
2.398	7.9124
2.392	7.8845
2.386	7.8413
2.38	7.8554
2.374	7.9383
2.368	7.839
2.362	7.9366
2.356	7.8715
2.35	7.9001
2.344	7.9018
2.338	7.8895
2.332	7.8512
2.326	7.8889
2.32	7.8671
2.314	7.8764
2.308	7.8273
2.302	7.8288
2.296	7.8353
2.29	7.8555
2.284	7.8736
2.278	7.8854
2.272	7.8136
2.266	7.8471
2.26	7.8698
2.254	7.865
2.248	7.8439
2.242	7.7815
2.236	7.8787
2.23	7.8598
2.224	7.8772
2.218	7.8875
2.212	7.9432
2.206	7.8531
2.2	7.8819
2.194	7.9185
2.188	7.9148
2.182	8.0096
2.176	7.956
2.17	7.9963
2.164	7.9232
2.158	8.0303
2.152	8.0508
2.146	8.0211
2.14	8.0007
2.134	8.0584
2.128	8.002
2.122	7.9409
2.116	7.9098
2.11	7.9076
2.104	7.9134
2.098	7.8713
2.092	7.9012
2.086	7.898
2.08	7.9057
2.074	7.8684
2.068	7.9191
2.062	7.9107
2.056	7.9338
2.05	7.9539
2.044	7.9164
2.038	7.9261
2.032	7.9754
2.026	7.9484
2.02	7.9614
2.014	7.9167
2.008	7.9595
2.002	7.9611
1.996	7.9723
1.99	7.9587
1.984	7.9754
1.978	7.922
1.972	7.9179
1.966	7.9418
1.96	7.9136
1.954	7.9372
1.948	7.8843
1.942	7.9136
1.936	7.9786
1.93	7.8643
1.924	7.8585
1.918	7.8954
1.912	7.8937
1.906	7.9676
1.9	7.9268
1.894	7.9065
1.888	7.9499
1.882	7.9698
1.876	7.9612
1.87	7.887
1.864	7.971
1.858	7.9417
1.852	8.0023
1.846	7.8965
1.84	7.9416
1.834	7.9072
1.828	7.914
1.822	7.9531
1.816	7.9498
1.81	7.9369
1.804	7.861
1.798	7.9209
1.792	7.8804
1.786	7.9539
1.78	7.9006
1.774	7.9565
1.768	7.8543
1.762	7.8783
1.756	7.858
1.75	7.8972
1.744	7.9098
1.738	7.8861
1.732	7.8365
1.726	7.8497
1.72	7.9092
1.714	7.8363
1.708	7.9157
1.702	7.8492
1.696	7.8706
1.69	7.8913
1.684	7.834
1.678	7.8649
1.672	7.8862
1.666	7.8357
1.66	7.8945
1.654	7.8881
1.648	7.8057
1.642	7.8903
1.636	7.816
1.63	7.8287
1.624	7.7448
1.618	7.8749
1.612	7.8306
1.606	7.8408
1.6	7.8153
1.594	7.7974
1.588	7.8037
1.582	7.7973
1.576	7.8088
1.57	7.746
1.564	7.8314
1.558	7.8727
1.552	7.7938
1.546	7.8243
1.54	7.8085
1.534	7.8124
1.528	7.7868
1.522	7.8167
1.516	7.7534
1.51	7.7933
1.504	7.806
1.498	7.7925
1.492	7.8024
1.486	7.7075
1.48	7.7321
1.474	7.7458
1.468	7.7076
1.462	7.7186
1.456	7.6977
1.45	7.7378
1.444	7.6479
1.438	7.6928
1.432	7.7162
1.426	7.7136
1.42	7.6957
1.414	7.6902
1.408	7.7106
1.402	7.7307
1.396	7.693
1.39	7.7679
1.384	7.6372
1.378	7.7261
1.372	7.621
1.366	7.6878
1.36	7.6012
1.354	7.6958
1.348	7.5624
1.342	7.5513
1.336	7.58
1.33	7.6218
1.324	7.5417
1.318	7.5648
1.312	7.5702
1.306	7.549
1.3	7.5914
1.294	7.4849
1.288	7.5064
1.282	7.5193
1.276	7.463
1.27	7.4554
1.264	7.4803
1.258	7.4397
1.252	7.4428
1.246	7.3962
1.24	7.343
1.234	7.4278
1.228	7.4014
1.222	7.3857
1.216	7.3419
1.21	7.3468
1.204	7.2845
1.198	7.372
1.192	7.2669
1.186	7.3685
1.18	7.2535
1.174	7.3188
1.168	7.2378
1.162	7.2092
1.156	7.2425
1.15	7.2007
1.144	7.1769
1.138	7.16
1.132	7.1531
1.126	7.1389
1.12	7.0681
1.114	7.0839
1.108	7.1271
1.102	7.0795
1.096	6.99
1.09	6.9406
1.084	7.0343
1.078	7.0445
1.072	6.9923
1.066	6.9848
1.06	6.9986
1.054	6.9111
1.048	6.9055
1.042	6.8964
1.036	6.849
1.03	6.8533
1.024	6.8907
1.018	6.8808
1.012	6.8488
1.006	6.8479
1	6.8122
0.994	6.7119
0.988	6.7163
0.982	6.7594
0.976	6.6953
0.97	6.6966
0.964	6.6397
0.958	6.6467
0.952	6.6199
0.946	6.6088
0.94	6.5274
0.934	6.451
0.928	6.4728
0.922	6.4643
0.916	6.4594
0.91	6.4448
0.904	6.3782
0.898	6.3285
0.892	6.3542
0.886	6.3109
0.88	6.2251
0.874	6.1818
0.868	6.1729
0.862	6.11
0.856	6.2416
0.85	6.216
0.844	6.1588
0.838	6.1143
0.832	6.0644
0.826	6.0143
0.82	5.9649
0.814	5.9079
0.808	5.8568
0.802	5.8047
0.796	5.7457
0.79	5.6864
0.784	5.6181
0.778	5.5532
0.772	5.4885
0.766	5.4336
0.76	5.3681
0.754	5.3038
0.748	5.2487
0.742	5.1765
0.736	5.1173
0.73	5.0537
0.724	4.9927
0.718	4.9307
0.712	4.8625
0.706	4.8049
0.7	4.7419
0.694	4.6829
0.688	4.6204
0.682	4.5606
0.676	4.5024
0.67	4.4432
0.664	4.3876
0.658	4.3342
0.652	4.2902
0.646	4.2399
0.64	4.1933
0.634	4.1443
0.628	4.1036
0.622	4.0626
0.616	4.025
0.61	3.9927
0.604	3.9582
0.598	3.9286
0.592	3.9064
0.586	3.8826
0.58	3.8638
0.574	3.8492
0.568	3.8367
0.562	3.8325
0.556	3.8298
0.55	3.8333
0.544	3.843
0.538	3.8582
0.532	3.8777
0.526	3.9
0.52	3.926
0.514	3.963
0.508	3.9959
0.502	4.0375
0.496	4.0847
0.49	4.1305
0.484	4.1771
0.478	4.2237
0.472	4.2786
0.466	4.3349
0.46	4.4059
0.454	4.4908
0.448	4.5794
0.442	4.682
0.436	4.7903
0.43	4.9049
0.424	5.0284
0.418	5.1546
0.412	5.28
0.406	5.4128
0.4	5.5447
