Name: Corundum Al_2O_3
Type: Mineral
Class: Oxide
Subclass: None
Particle Size: Medium
Sample No.: O-15A
Owner: JPL
Wavelength Range: TIR
Description: Synthetic corundum.Particle size was 45-125um.Collected by JPL Original ASTER Spectral Library name was jpl.nicolet.mineral.oxide.none.medium.o15a.spectrum.txt
Measurement: Hemispherical reflectance
X Units: Wavelength (micrometers)
Y Units: Reflectance (percent)
wavelength	value
15.3853	10.3496
15.1161	9.7737
14.8563	9.4314
14.6052	9.1865
14.3624	8.5418
14.1276	8.2829
13.9004	7.9106
13.6803	7.7714
13.4671	8.0277
13.2604	7.8289
13.06	8.0453
12.8656	8.0804
12.6769	8.4039
12.4936	8.5337
12.3155	8.2777
12.1425	8.2898
11.9742	8.156
11.8106	7.9846
11.6513	7.9655
11.4963	7.9133
11.3454	7.6052
11.1983	6.4605
11.0551	4.9355
10.9154	3.4313
10.7793	2.1597
10.6465	1.2954
10.5169	0.7798
10.3904	0.5423
10.267	0.165
10.1464	0.1915
10.0287	0.0347
9.9136	0.0157
9.8012	0.1765
9.6913	0.1083
9.5838	0.0373
9.4787	0.0701
9.3758	0
9.2752	0.1906
9.1767	0.2098
9.0803	0.2059
8.9858	0.2827
8.8934	0.2615
8.8028	0.3469
8.714	0.4435
8.627	0.5562
8.5417	0.6356
8.4581	1.046
8.3761	1.0882
8.2957	1.337
8.2169	1.8563
8.1395	1.9803
8.0635	2.3524
7.989	2.4606
7.9158	2.8514
7.8439	2.8017
7.7734	3.1347
7.7041	3.4243
7.636	3.8459
7.5691	4.1041
7.5034	4.3781
7.4388	4.7609
7.3753	5.1875
7.3129	5.0745
7.2515	4.3639
7.1912	2.4203
7.1318	2.5993
7.0734	3.9998
7.016	5.2894
6.9595	7.0581
6.9039	9.1667
6.8492	11.1698
6.7953	12.1127
6.7423	12.2432
6.6901	12.3987
6.6387	12.7212
6.5881	12.792
6.5382	12.0928
6.4892	10.5876
6.4408	8.7312
6.3931	7.0934
6.3462	5.8651
6.2999	5.5042
6.2543	6.36
6.2094	8.9917
6.1651	12.3419
6.1214	15.5692
6.0784	18.3973
6.0359	20.5632
5.994	22.6872
5.9527	24.8644
5.912	27.1522
5.8718	29.0798
5.8322	30.7528
5.7931	32.2713
5.7545	33.5071
5.7165	34.805
5.6789	35.4606
5.6418	35.9247
5.6052	36.4246
5.5691	36.8538
5.5334	36.767
5.4982	35.9711
5.4635	36.6969
5.4291	37.8072
5.3952	38.5843
5.3618	39.1692
5.3287	39.3946
5.2961	39.5411
5.2638	39.7914
5.2319	40.0047
5.2004	40.1256
5.1693	40.1148
5.1386	40.1087
5.1082	39.7824
5.0782	39.3256
5.0485	39.2317
5.0192	39.2965
4.9902	39.2548
4.9616	39.3447
4.9332	39.2862
4.9052	38.9562
4.8776	38.8025
4.8502	38.5391
4.8231	38.3742
4.7963	38.0592
4.7699	37.6523
4.7437	37.8747
4.7178	38.0231
4.6922	38.1672
4.6668	38.3479
4.6418	38.7977
4.617	39.3871
4.5924	40.1321
4.5681	40.7695
4.5441	41.4622
4.5203	41.8698
4.4968	42.359
4.4735	42.5195
4.4505	42.832
4.4277	42.9421
4.4051	43.0099
4.3828	42.9959
4.3607	42.9865
4.3388	42.7251
4.3171	42.5993
4.2956	42.3706
4.2744	42.3235
4.2534	42.2246
4.2325	42.1227
4.2119	42.0019
4.1915	41.8321
4.1712	41.5679
4.1512	41.109
4.1313	40.7004
4.1117	40.1324
4.0922	39.3827
4.0729	38.6382
4.0538	37.8912
4.0349	37.4722
4.0161	37.1228
3.9976	36.6276
3.9792	36.1535
3.9609	35.6865
3.9428	35.6766
3.9249	35.9599
3.9072	36.7198
3.8896	37.5098
3.8722	38.2239
3.8549	38.6626
3.8378	39.1361
3.8208	39.2775
3.804	39.3181
3.7873	39.0247
3.7708	38.7352
3.7544	38.2376
3.7382	37.8025
3.7221	37.4402
3.7061	36.9744
3.6903	36.6935
3.6746	36.2905
3.659	35.8153
3.6436	35.3796
3.6283	34.8885
3.6131	34.4575
3.5981	33.9452
3.5832	33.2531
3.5684	32.4459
3.5537	31.7115
3.5391	31.1564
3.5247	30.3649
3.5104	29.177
3.4962	28.7925
3.4821	28.4455
3.4681	27.8458
3.4543	27.3135
3.4405	26.8423
3.4269	26.3097
3.4133	25.5746
3.3999	24.9194
3.3866	24.713
3.3733	24.2256
3.3602	23.8792
3.3472	23.5943
3.3343	23.0706
3.3215	22.8888
3.3088	22.4129
3.2961	21.9426
3.2836	21.3194
3.2712	20.9823
3.2588	20.4771
3.2466	19.9499
3.2345	19.5466
3.2224	19.1579
3.2104	18.5994
3.1985	18.1618
3.1867	17.5957
3.175	17.1098
3.1634	16.5705
3.1519	16.1127
3.1404	15.509
3.129	14.9042
3.1178	14.4757
3.1065	13.6603
3.0954	12.9466
3.0844	12.3595
3.0734	11.3534
3.0625	10.4396
3.0517	9.4509
3.041	8.9458
3.0303	8.8164
3.0197	9.1565
3.0092	9.8454
2.9987	10.1917
2.9884	10.2962
2.9781	10.6479
2.9678	10.9948
2.9577	11.1273
2.9476	11.5584
2.9376	11.7473
2.9276	11.7247
2.9177	11.7102
2.9079	12.1611
2.8982	12.2851
2.8885	12.0037
2.8789	11.5676
2.8693	12.1116
2.8598	12.5731
2.8504	13.4549
2.841	13.9183
2.8317	14.4614
2.8224	15.2284
2.8133	15.7871
2.8041	17.3839
2.7951	20.0799
2.786	22.0615
2.7771	23.5137
2.7682	25.033
2.7594	25.9683
2.7506	29.2503
2.7418	31.2283
2.7332	31.9739
2.7246	36.6708
2.716	38.4851
2.7075	39.6079
2.699	43.7062
2.6906	51.1328
2.6823	56.0306
2.674	59.9848
2.6657	63.2856
2.6575	66.3267
2.6494	68.2396
2.6413	69.509
2.6332	70.4222
2.6252	70.9852
2.6173	71.4485
2.6094	71.9881
2.6015	72.4629
2.5937	72.8452
2.5859	73.0401
2.5782	73.4713
2.5706	73.7063
2.5629	73.8827
2.5554	74.073
2.5478	74.2856
2.5403	74.6246
2.5329	74.7822
2.5255	74.9982
2.5181	75.1678
2.5108	75.5131
2.5035	75.7433
2.4963	76.0416
2.4891	76.1912
2.482	76.3978
2.4749	76.7428
2.4678	76.9053
2.4608	77.1831
2.4538	77.2601
2.4468	77.5565
2.4399	77.825
2.4331	77.7789
2.4262	78.1267
2.4194	78.1126
2.4127	78.4047
2.4059	78.5998
2.3993	78.8807
2.3926	78.6989
2.386	79.1626
2.3795	79.0394
2.3729	79.0263
2.3664	78.9524
2.36	78.8312
2.3535	78.645
2.3471	79.2738
2.3408	79.7435
2.3345	79.9471
2.3282	79.8879
2.3219	80.13
2.3157	80.4223
2.3095	80.5566
2.3034	80.6932
2.2972	80.7206
2.2911	81.0952
2.2851	81.103
2.279	81.0066
2.2731	81.1345
2.2671	81.0108
2.2612	80.9874
2.2553	81.1613
2.2494	81.0945
2.2435	81.2777
2.2377	81.7072
2.232	81.9926
2.2262	82.2683
2.2205	82.3622
2.2148	82.5277
2.2091	82.8421
2.2035	83.0339
2.1979	83.2898
2.1923	83.2953
2.1868	83.6352
2.1812	83.8453
2.1758	83.7395
2.1703	84.0007
2.1649	84.1902
2.1595	84.3217
2.1541	84.2904
2.1487	84.5455
2.1434	84.3693
2.1381	84.7263
2.1328	84.6456
2.1275	84.7794
2.1223	84.6121
2.1171	84.801
2.112	85.1165
2.1068	85.153
2.1017	84.9576
2.0966	84.8744
2.0915	84.9848
2.0865	85.1207
2.0814	84.7215
2.0764	84.5859
2.0715	84.7345
2.0665	84.5637
2.0616	84.9436
2.0567	84.9682
2.0518	84.5178
2.0469	84.588
2.0421	84.3156
2.0373	84.6207
2.0325	84.69
2.0277	84.5357
2.0229	84.4781
2.0182	84.3689
2.0135	84.8053
2.0088	84.2573
2.0042	84.4043
