Name: Kernite Na_2B_4O_6(OH)_2.3H_2O
Type: Mineral
Class: Borate
Subclass: None
Particle Size: Fine
Sample No.: B-2A
Owner: JPL
Wavelength Range: TIR
Origin: USA, California, Kern County, Boron
Description: Particle size was 0-45um.Collected by JPL Original ASTER Spectral Library name was jpl.nicolet.mineral.borate.none.fine.b02a.spectrum.txt
Measurement: Hemispherical reflectance
X Units: Wavelength (micrometers)
Y Units: Reflectance (percent)
wavelength	value
15.3853	4.9871
15.1161	4.8611
14.8563	4.9971
14.6052	5.4174
14.3624	4.5177
14.1276	4.3337
13.9004	5.5651
13.6803	5.054
13.4671	5.0746
13.2604	5.5605
13.06	5.2671
12.8656	5.2102
12.6769	6.0202
12.4936	6.1604
12.3155	5.849
12.1425	5.7264
11.9742	5.622
11.8106	6.133
11.6513	6.1275
11.4963	5.6285
11.3454	4.9112
11.1983	5.7324
11.0551	7.9546
10.9154	9.7463
10.7793	8.9143
10.6465	8.0428
10.5169	7.5298
10.3904	7.1497
10.267	7.1493
10.1464	7.0699
10.0287	6.0248
9.9136	6.7292
9.8012	8.3619
9.6913	8.5505
9.5838	8.9566
9.4787	7.8616
9.3758	6.468
9.2752	4.9579
9.1767	4.1739
9.0803	3.7913
8.9858	2.8587
8.8934	2.1618
8.8028	2.0677
8.714	2.2918
8.627	2.4621
8.5417	2.2742
8.4581	2.6343
8.3761	3.3833
8.2957	3.9308
8.2169	4.7492
8.1395	5.4673
8.0635	6.1024
7.989	6.6721
7.9158	7.0359
7.8439	7.2361
7.7734	7.2178
7.7041	6.6469
7.636	5.5963
7.5691	4.747
7.5034	5.7046
7.4388	5.5648
7.3753	5.8493
7.3129	6.1472
7.2515	7.1874
7.1912	7.5583
7.1318	7.2596
7.0734	6.598
7.016	5.1223
6.9595	4.6054
6.9039	3.2392
6.8492	2.745
6.7953	2.5279
6.7423	2.344
6.6901	2.2548
6.6387	2.2037
6.5881	2.2764
6.5382	2.4246
6.4892	2.6747
6.4408	2.8277
6.3931	3.031
6.3462	3.1319
6.2999	3.2425
6.2543	3.3376
6.2094	3.4833
6.1651	3.5835
6.1214	3.7826
6.0784	3.8379
6.0359	3.8472
5.994	3.9912
5.9527	3.9586
5.912	3.8964
5.8718	3.5298
5.8322	3.9249
5.7931	4.9224
5.7545	6.1103
5.7165	7.1214
5.6789	8.2449
5.6418	9.6502
5.6052	10.4857
5.5691	11.6216
5.5334	12.3974
5.4982	13.1252
5.4635	14.2656
5.4291	15.0007
5.3952	15.6746
5.3618	16.3076
5.3287	17.0215
5.2961	17.6217
5.2638	17.8535
5.2319	17.8567
5.2004	17.9397
5.1693	18.2245
5.1386	18.3734
5.1082	18.4342
5.0782	18.6402
5.0485	18.5858
5.0192	18.6866
4.9902	18.5159
4.9616	18.1081
4.9332	17.8284
4.9052	17.3296
4.8776	17.0681
4.8502	16.8006
4.8231	16.6753
4.7963	16.3348
4.7699	15.7176
4.7437	15.1568
4.7178	14.8079
4.6922	14.3088
4.6668	14.1016
4.6418	13.811
4.617	13.4779
4.5924	12.9657
4.5681	12.641
4.5441	12.3587
4.5203	12.1369
4.4968	12.3033
4.4735	12.5128
4.4505	12.491
4.4277	12.6175
4.4051	12.9246
4.3828	13.2153
4.3607	13.6602
4.3388	13.7899
4.3171	13.9273
4.2956	14.1528
4.2744	14.082
4.2534	14.9458
4.2325	15.3754
4.2119	17.1052
4.1915	18.3872
4.1712	19.3112
4.1512	19.8445
4.1313	20.236
4.1117	20.375
4.0922	20.5492
4.0729	20.5106
4.0538	21.0128
4.0349	21.8398
4.0161	23.0384
3.9976	23.9019
3.9792	24.4777
3.9609	24.7549
3.9428	24.971
3.9249	24.9535
3.9072	24.8544
3.8896	24.9414
3.8722	24.884
3.8549	24.5828
3.8378	24.3822
3.8208	23.9497
3.804	23.3004
3.7873	22.8958
3.7708	22.62
3.7544	22.4239
3.7382	22.1561
3.7221	21.5954
3.7061	20.9113
3.6903	20.2073
3.6746	19.3308
3.659	18.4974
3.6436	17.4507
3.6283	16.7026
3.6131	16.0219
3.5981	15.4849
3.5832	14.8869
3.5684	14.486
3.5537	14.0628
3.5391	13.653
3.5247	13.2229
3.5104	12.7563
3.4962	12.464
3.4821	11.9328
3.4681	11.7421
3.4543	11.2919
3.4405	10.5746
3.4269	10.2154
3.4133	9.6288
3.3999	9.0578
3.3866	8.2861
3.3733	7.6243
3.3602	6.9634
3.3472	6.5605
3.3343	6.2113
3.3215	6.0649
3.3088	6.1246
3.2961	6.1853
3.2836	6.2166
3.2712	6.4404
3.2588	6.1988
3.2466	6.2205
3.2345	5.9287
3.2224	5.8053
3.2104	5.6853
3.1985	5.3566
3.1867	4.9695
3.175	4.7723
3.1634	4.6759
3.1519	4.258
3.1404	4.204
3.129	4.1536
3.1178	3.7007
3.1065	3.6086
3.0954	3.3296
3.0844	3.4158
3.0734	3.3149
3.0625	3.0728
3.0517	2.8901
3.041	2.6188
3.0303	2.7003
3.0197	2.4603
3.0092	2.547
2.9987	2.4767
2.9884	1.9748
2.9781	2.3622
2.9678	2.1915
2.9577	1.9218
2.9476	2.0968
2.9376	2.1984
2.9276	2.434
2.9177	2.1316
2.9079	2.2819
2.8982	2.1704
2.8885	2.3188
2.8789	2.5604
2.8693	2.7787
2.8598	3.1797
2.8504	3.7107
2.841	4.2882
2.8317	3.9328
2.8224	2.919
2.8133	2.1961
2.8041	2.5633
2.7951	4.0016
2.786	5.5765
2.7771	7.872
2.7682	11.6826
2.7594	14.5263
2.7506	17.9572
2.7418	22.8409
2.7332	26.974
2.7246	31.8374
2.716	34.4863
2.7075	37.1861
2.699	39.193
2.6906	41.2763
2.6823	43.2993
2.674	45.3171
2.6657	48.3975
2.6575	48.3478
2.6494	49.192
2.6413	50.3937
2.6332	51.5526
2.6252	52.294
2.6173	53.8654
2.6094	53.6483
2.6015	53.6847
2.5937	55.3059
2.5859	53.9272
2.5782	53.2916
2.5706	52.3074
2.5629	51.6708
2.5554	50.7804
2.5478	51.1125
2.5403	51.081
2.5329	51.7241
2.5255	51.8302
2.5181	51.8102
2.5108	51.9426
2.5035	52.1648
2.4963	52.4977
2.4891	52.6866
2.482	52.7069
2.4749	52.8629
2.4678	52.9136
2.4608	53.2049
2.4538	53.0717
2.4468	53.2707
2.4399	53.3522
2.4331	53.3766
2.4262	53.5753
2.4194	54.4083
2.4127	54.6705
2.4059	55.2932
2.3993	55.8284
2.3926	56.6727
2.386	58.0845
2.3795	59.0499
2.3729	60.6177
2.3664	61.6736
2.36	62.4636
2.3535	63.1555
2.3471	63.8502
2.3408	64.4254
2.3345	65.2521
2.3282	65.7911
2.3219	66.239
2.3157	66.2879
2.3095	66.3884
2.3034	66.2438
2.2972	65.4675
2.2911	65.0251
2.2851	64.2207
2.279	63.8917
2.2731	63.881
2.2671	63.5058
2.2612	63.4065
2.2553	63.0564
2.2494	62.8864
2.2435	62.8196
2.2377	62.1342
2.232	60.9075
2.2262	60.1568
2.2205	59.1942
2.2148	57.964
2.2091	56.3151
2.2035	55.109
2.1979	51.7783
2.1923	49.4296
2.1868	49.5981
2.1812	52.5049
2.1758	56.351
2.1703	58.6624
2.1649	60.124
2.1595	60.4079
2.1541	61.1588
2.1487	61.3725
2.1434	61.5215
2.1381	61.624
2.1328	61.9676
2.1275	62.1889
2.1223	62.1907
2.1171	62.1635
2.112	62.2995
2.1068	61.7385
2.1017	61.3917
2.0966	61.6445
2.0915	60.9629
2.0865	60.7251
2.0814	60.7916
2.0764	59.2939
2.0715	59.2233
2.0665	58.8366
2.0616	58.5548
2.0567	56.763
2.0518	55.8529
2.0469	55.9931
2.0421	56.0564
2.0373	55.7989
2.0325	55.714
2.0277	55.5497
2.0229	55.5683
2.0182	55.2921
2.0135	54.4818
2.0088	54.0915
2.0042	53.7928
