Name: Diopside CaMgSi2O6
Type: Mineral
Class: Silicate
Subclass: Inosilicate
Particle Size: Solid
Sample No.: diopside_1
Owner: JHU
Wavelength Range: TIR
Origin: Sample from St. Lawrence Co., New York via the Smithsonian(sample no. NMNH C2393).
Description: Sample consisted of two green subhedral crystals 1-2 cm in length and width. Both crystals appeared pure in hand specimen.  Under the petrographic microscope, the powdered sample displayed one small, moderately birefringent grain with parallel extinction. There may be minor exsolution. Very little alteration, but a trace amount (<< 1%) of sericite can be seen along cleavage planes. Sample was 110 crystal face. (Chain Silicates) (Pyroxene Group) Original ASTER Spectral Library name was jhu.nicolet.mineral.silicate.inosilicate.solid.diopsi1.spectrum.txt
Measurement: Bidirectional reflectance
X Units: Wavelength (micrometers)
Y Units: Reflectance (percent)
wavelength	value
25.044	36.848
24.339	35.59
23.672	31.277
23.041	35.246
22.442	40.367
21.874	51.183
21.334	58.096
20.82	60.487
20.33	60.774
19.863	65.381
19.416	71.741
18.99	59.668
18.581	53.943
18.19	62.366
17.815	71.964
17.455	69.432
17.109	50.949
16.777	27.114
16.458	16.941
16.15	18.973
15.854	22.349
15.568	23.242
15.292	15.026
15.027	19.479
14.77	21.212
14.521	15.815
14.281	16.813
14.049	17.73
13.824	18.633
13.607	19.302
13.396	19.991
13.191	20.636
12.993	21.225
12.8	21.869
12.614	22.535
12.432	23.329
12.256	24.398
12.084	26.042
11.918	29.052
11.755	38.752
11.598	51.524
11.444	55.898
11.294	58.28
11.149	59.753
11.007	61.431
10.868	64.925
10.733	53.737
10.602	57.506
10.473	62.781
10.348	63.067
10.225	47.562
10.106	32.097
9.9887	26.202
9.8746	33.619
9.763	40.803
9.6539	41.514
9.5472	43.017
9.4429	49.498
9.3408	56.661
9.2409	57.537
9.1431	57.74
9.0474	57.917
8.9536	59.134
8.8618	65.149
8.7718	70.874
8.6837	61.523
8.5973	45.304
8.5126	25.07
8.4295	9.6587
8.3481	4.062
8.2682	6.0066
8.1898	7.7756
8.1129	9.1186
8.0374	10.202
7.9634	11.06
7.8906	11.795
7.8192	12.42
7.7491	12.933
7.6802	13.393
7.6126	13.759
7.5461	14.125
7.4807	14.399
7.4165	14.744
7.3534	14.967
7.2914	15.225
7.2303	15.472
7.1703	15.549
7.1113	15.836
7.0533	15.856
6.9962	16.178
6.94	16.444
6.8847	16.602
6.8302	16.726
6.7767	16.828
6.7239	16.839
6.672	17.154
6.6209	17.307
6.5705	17.293
6.5209	17.484
6.4721	17.662
6.424	17.5
6.3766	17.742
6.3299	18.033
6.2838	18.073
6.2385	18.129
6.1937	18.127
6.1496	18.292
6.1062	18.367
6.0633	18.367
6.0211	18.316
5.9794	18.369
5.9383	18.059
5.8978	18.166
5.8578	18.478
5.8184	18.487
5.7794	18.47
5.741	18.688
5.7031	18.751
5.6657	18.702
5.6288	18.767
5.5924	18.801
5.5564	18.804
5.5209	18.911
5.4859	18.942
5.4513	19.035
5.4171	19.083
5.3833	19.126
5.35	19.055
5.3171	19.169
5.2846	19.208
5.2524	19.228
5.2207	19.211
5.1893	19.271
5.1584	19.274
5.1277	19.287
5.0975	19.27
5.0676	19.254
5.038	19.249
5.0088	19.258
4.98	19.271
4.9514	19.295
4.9232	19.307
4.8953	19.333
4.8678	19.354
4.8405	19.376
4.8135	19.409
4.7868	19.41
4.7605	19.475
4.7344	19.492
4.7086	19.527
4.6831	19.559
4.6578	19.611
4.6328	19.659
4.6081	19.701
4.5837	19.765
4.5595	19.839
4.5356	19.933
4.5119	20.065
4.4884	20.13
4.4652	20.199
4.4423	20.252
4.4196	20.289
4.3971	20.312
4.3748	20.357
4.3528	20.388
4.331	20.434
4.3094	20.549
4.288	20.715
4.2668	20.777
4.2458	20.814
4.2251	21.03
4.2045	20.643
4.1841	20.507
4.164	20.536
4.144	20.559
4.1242	20.573
4.1046	20.606
4.0852	20.631
4.066	20.652
4.047	20.663
4.0281	20.669
4.0094	20.718
3.9909	20.728
3.9725	20.763
3.9544	20.778
3.9363	20.795
3.9185	20.797
3.9008	20.811
3.8833	20.83
3.8659	20.824
3.8487	20.795
3.8316	20.817
3.8147	20.805
3.7979	20.796
3.7813	20.785
3.7648	20.765
3.7485	20.751
3.7323	20.741
3.7162	20.738
3.7003	20.724
3.6845	20.734
3.6689	20.72
3.6534	20.723
3.638	20.717
3.6227	20.728
3.6076	20.711
3.5926	20.718
3.5777	20.734
3.563	20.759
3.5484	20.739
3.5338	20.76
3.5195	20.804
3.5052	20.902
3.491	20.768
3.477	20.733
3.463	20.742
3.4492	20.76
3.4355	20.821
3.4219	21.007
3.4084	20.83
3.395	20.63
3.3817	20.604
3.3685	20.514
3.3554	20.484
3.3425	20.423
3.3296	20.42
3.3168	20.398
3.3041	20.364
3.2915	20.387
3.279	20.351
3.2666	20.336
3.2543	20.299
3.2421	20.301
3.23	20.312
3.218	20.288
3.206	20.252
3.1942	20.255
3.1824	20.258
3.1707	20.225
3.1591	20.205
3.1476	20.223
3.1362	20.217
3.1249	20.21
3.1136	20.164
3.1024	20.159
3.0913	20.102
3.0803	20.105
3.0694	20.076
3.0585	20.042
3.0477	20.056
3.037	19.994
3.0264	19.968
3.0158	19.923
3.0053	19.913
2.9949	19.895
2.9845	19.827
2.9743	19.809
2.9641	19.796
2.9539	19.778
2.9439	19.71
2.9339	19.721
2.9239	19.654
2.9141	19.653
2.9043	19.641
2.8946	19.637
2.8849	19.582
2.8753	19.587
2.8658	19.613
2.8563	19.488
2.8469	19.496
2.8375	19.479
2.8282	19.416
2.819	19.517
2.8098	19.382
2.8007	19.555
2.7917	19.343
2.7827	19.261
2.7738	19.271
2.7649	19.172
2.7561	18.989
2.7473	19.2
2.7386	19.79
2.7299	19.24
2.7213	18.922
2.7128	19.071
2.7043	19.43
2.6959	19.17
2.6875	19.33
2.6791	19.191
2.6709	19.037
2.6626	19.358
2.6545	19.344
2.6463	19.25
2.6382	19.336
2.6302	19.368
2.6222	19.139
2.6143	19.252
2.6064	19.049
2.5986	19.024
2.5908	19.125
2.583	19.33
2.5753	19.209
2.5677	19.236
2.5601	19.364
2.5525	19.055
2.545	18.971
2.5375	18.971
2.5301	19.06
2.5227	19.026
2.5154	18.979
2.5081	18.979
2.5008	18.959
2.4936	19.028
2.4864	18.947
2.4793	18.917
2.4722	18.854
2.4651	18.918
2.4581	18.86
2.4511	18.813
2.4442	18.808
2.4373	18.824
2.4305	18.84
2.4236	18.797
2.4169	18.81
2.4101	18.803
2.4034	18.845
2.3967	18.827
2.3901	18.804
2.3835	18.734
2.377	18.82
2.3704	18.778
2.364	18.84
2.3575	18.8
2.3511	18.805
2.3447	18.819
2.3384	18.791
2.3321	18.814
2.3258	18.836
2.3195	18.872
2.3133	18.788
2.3071	18.82
2.301	18.802
2.2949	18.82
2.2888	18.914
2.2828	18.887
2.2767	18.86
2.2708	18.842
2.2648	18.856
2.2589	18.803
2.253	18.879
2.2471	18.922
2.2413	18.892
2.2355	18.879
2.2297	18.892
2.224	18.961
2.2183	18.873
2.2126	18.969
2.207	18.945
2.2013	18.95
2.1957	19.041
2.1902	19.044
2.1846	19.117
2.1791	19.105
2.1736	19.052
2.1682	19.113
2.1628	19.178
2.1574	19.039
2.152	19.135
2.1466	19.106
2.1413	19.119
2.136	19.16
2.1308	19.177
2.1255	19.196
2.1203	19.169
2.1151	19.173
2.11	19.246
2.1048	19.121
2.0997	19.271
2.0946	19.234
2.0895	19.232
2.0845	19.301
2.0795	19.317
