Name: Fluorite CaF_2
Type: Mineral
Class: Halide
Subclass: None
Particle Size: Fine
Sample No.: H-2B
Owner: JPL
Wavelength Range: VSWIR
Origin: United Kingdom, England, Durham County, Weardal
Description: Particle size was 0-45um.Collected by Ward's Original ASTER Spectral Library name was jpl.beckman.mineral.halide.none.fine.h02b.spectrum.txt
Measurement: Hemispherical reflectance
X Units: Wavelength (micrometers)
Y Units: Reflectance (percent)
wavelength	value
0.4	56.09
0.403	56.16
0.406	56.21
0.409	56.3
0.412	56.34
0.415	56.49
0.418	56.48
0.421	56.55
0.424	56.65
0.427	56.66
0.43	56.89
0.433	56.79
0.436	56.92
0.439	56.92
0.442	56.96
0.445	57.21
0.448	57.1
0.451	57.13
0.454	57.21
0.457	57.16
0.46	57.27
0.463	57.34
0.466	57.21
0.469	57.43
0.472	57.41
0.475	57.38
0.478	57.48
0.481	57.46
0.484	57.58
0.487	57.49
0.49	57.51
0.493	57.5
0.496	57.43
0.499	57.58
0.502	57.58
0.505	57.71
0.508	57.63
0.511	57.6
0.514	57.82
0.517	57.79
0.52	57.71
0.523	57.82
0.526	57.76
0.529	57.85
0.532	57.79
0.535	57.75
0.538	57.85
0.541	57.73
0.544	57.83
0.547	57.74
0.55	57.81
0.553	57.95
0.556	57.78
0.559	57.89
0.562	58.02
0.565	57.97
0.568	58.08
0.571	57.99
0.574	57.81
0.577	57.86
0.58	57.72
0.583	57.88
0.586	57.89
0.589	57.87
0.592	57.85
0.595	57.83
0.598	57.97
0.601	57.98
0.604	57.85
0.607	57.87
0.61	57.79
0.613	57.96
0.616	57.82
0.619	57.71
0.622	57.71
0.625	57.68
0.628	57.85
0.631	57.77
0.634	57.76
0.637	57.65
0.64	57.77
0.643	57.82
0.646	57.77
0.649	57.77
0.652	57.73
0.655	57.87
0.658	57.82
0.661	57.73
0.664	57.71
0.667	57.67
0.67	57.72
0.673	57.77
0.676	57.76
0.679	57.71
0.682	57.73
0.685	57.63
0.688	57.78
0.691	57.73
0.694	57.73
0.697	57.67
0.7	57.6
0.703	57.61
0.706	57.73
0.709	57.79
0.712	57.71
0.715	57.71
0.718	57.73
0.721	57.69
0.724	57.69
0.727	57.6
0.73	57.62
0.733	57.63
0.736	57.56
0.739	57.63
0.742	57.6
0.745	57.53
0.748	57.61
0.751	57.53
0.754	57.6
0.757	57.51
0.76	57.57
0.763	57.55
0.766	57.44
0.769	57.55
0.772	57.55
0.775	57.62
0.778	57.53
0.781	57.47
0.784	57.48
0.787	57.48
0.79	57.46
0.793	57.56
0.796	57.48
0.799	57.53
0.808	57.86
0.82	57.81
0.832	57.83
0.844	57.84
0.856	57.89
0.868	57.88
0.88	57.81
0.892	57.75
0.904	57.67
0.916	57.71
0.928	57.74
0.94	57.59
0.952	57.54
0.964	57.52
0.976	57.53
0.988	57.46
1	57.43
1.012	57.47
1.024	57.43
1.036	57.34
1.048	57.36
1.06	57.32
1.072	57.28
1.084	57.25
1.096	57.24
1.108	57.26
1.12	57.29
1.132	57.32
1.144	57.21
1.156	57.04
1.168	57.01
1.18	56.94
1.192	56.95
1.204	56.94
1.216	56.96
1.228	56.91
1.24	56.89
1.252	56.8
1.264	56.78
1.276	56.76
1.288	56.73
1.3	56.65
1.312	56.59
1.324	56.63
1.336	56.6
1.348	56.53
1.36	56.48
1.372	56.4
1.384	56.38
1.396	56.46
1.408	56.43
1.42	56.36
1.432	56.31
1.444	56.33
1.456	56.27
1.468	56.27
1.48	56.3
1.492	56.35
1.504	56.39
1.516	56.24
1.528	56.11
1.54	56.18
1.552	56.24
1.564	56.23
1.576	56.2
1.588	56.13
1.6	56.16
1.612	56.14
1.624	56
1.636	56.09
1.648	56.04
1.66	56.13
1.672	56.1
1.684	56.05
1.696	56.04
1.708	56.08
1.72	56.11
1.732	55.93
1.744	55.88
1.756	55.92
1.768	55.91
1.78	55.87
1.792	55.9
1.804	55.79
1.816	55.77
1.828	55.81
1.84	55.7
1.852	55.56
1.864	55.61
1.876	55.63
1.888	55.57
1.9	55.53
1.912	55.47
1.924	55.4
1.936	55.28
1.948	55.37
1.96	55.42
1.972	55.47
1.984	55.54
1.996	55.5
2.008	55.51
2.02	55.61
2.032	55.69
2.044	55.67
2.056	55.71
2.068	55.64
2.08	55.74
2.092	55.85
2.104	55.92
2.116	55.98
2.128	56.01
2.14	55.91
2.152	55.77
2.164	55.68
2.176	55.53
2.188	55.44
2.2	55.43
2.212	55.35
2.224	55.45
2.236	55.5
2.248	55.49
2.26	55.49
2.272	55.42
2.284	55.42
2.296	55.42
2.308	55.46
2.32	55.62
2.332	55.61
2.344	55.56
2.356	55.62
2.368	55.64
2.38	55.62
2.392	55.65
2.404	55.63
2.416	55.58
2.428	55.54
2.44	55.5
2.452	55.39
2.464	55.43
2.476	55.44
2.488	55.74
2.5	56.04
