Name: Tourmaline Na(Mg_3,Fe_3^2+)Al_6(BO_3)_3Si_6O_18(OH)_4
Type: Mineral
Class: Silicate
Subclass: Cyclosilicate
Particle Size: Medium
Sample No.: CS-1A
Owner: JPL
Wavelength Range: VSWIR
Origin: USA, New York, Overlook.
Description: Particle size was 45-125um.Collected by:  Ward's Original ASTER Spectral Library name was jpl.perkin.mineral.silicate.cyclosilicate.medium.cs01a.spectrum.txt
Measurement: Hemispherical reflectance
X Units: Wavelength (micrometers)
Y Units: Reflectance (percent)
wavelength	value
2.5	19.105
2.494	19.1059
2.488	19.2323
2.482	19.0772
2.476	19.199
2.47	19.2348
2.464	19.2318
2.458	19.4816
2.452	19.5457
2.446	19.6005
2.44	19.6239
2.434	19.8801
2.428	19.8871
2.422	19.8947
2.416	19.9183
2.41	19.7372
2.404	19.6704
2.398	19.3251
2.392	18.9151
2.386	18.2891
2.38	17.4783
2.374	16.6439
2.368	16.0973
2.362	15.8815
2.356	16.1027
2.35	16.4247
2.344	17.0365
2.338	17.4589
2.332	17.723
2.326	17.9272
2.32	18.0521
2.314	18.1282
2.308	18.1674
2.302	18.1219
2.296	18.0532
2.29	18.118
2.284	18.3088
2.278	18.5242
2.272	18.4482
2.266	18.1995
2.26	17.6817
2.254	16.8754
2.248	16.1078
2.242	15.7441
2.236	16.0156
2.23	16.2617
2.224	16.1356
2.218	15.5025
2.212	14.8355
2.206	14.4895
2.2	14.9586
2.194	15.627
2.188	15.9983
2.182	16.1069
2.176	16.0572
2.17	16.0125
2.164	15.9359
2.158	15.8085
2.152	15.7219
2.146	15.6238
2.14	15.4045
2.134	15.2117
2.128	15.0622
2.122	14.9304
2.116	14.6355
2.11	14.4308
2.104	14.2275
2.098	13.9226
2.092	13.885
2.086	13.6218
2.08	13.3978
2.074	13.2319
2.068	13.0686
2.062	12.8458
2.056	12.7843
2.05	12.5645
2.044	12.4303
2.038	12.2476
2.032	12.0209
2.026	11.8658
2.02	11.6776
2.014	11.5347
2.008	11.3447
2.002	11.1278
1.996	11.0853
1.99	10.8223
1.984	10.6645
1.978	10.4568
1.972	10.3104
1.966	10.19
1.96	10.011
1.954	9.7511
1.948	9.6427
1.942	9.489
1.936	9.3024
1.93	9.1064
1.924	9.0409
1.918	8.8389
1.912	8.757
1.906	8.8614
1.9	8.5307
1.894	8.2945
1.888	8.1563
1.882	8.0303
1.876	7.7908
1.87	7.6327
1.864	7.51
1.858	7.3449
1.852	7.2714
1.846	7.0947
1.84	6.9466
1.834	6.8103
1.828	6.7239
1.822	6.5914
1.816	6.4553
1.81	6.3611
1.804	6.168
1.798	6.0774
1.792	5.9526
1.786	5.8878
1.78	5.7369
1.774	5.6227
1.768	5.5427
1.762	5.4556
1.756	5.3207
1.75	5.2564
1.744	5.1638
1.738	5.0164
1.732	4.9803
1.726	4.8801
1.72	4.7513
1.714	4.7277
1.708	4.618
1.702	4.5638
1.696	4.4355
1.69	4.3749
1.684	4.2819
1.678	4.1532
1.672	4.1755
1.666	4.1105
1.66	4.058
1.654	3.8774
1.648	3.923
1.642	3.914
1.636	3.807
1.63	3.7142
1.624	3.655
1.618	3.6146
1.612	3.5977
1.606	3.4806
1.6	3.4024
1.594	3.3627
1.588	3.3611
1.582	3.3952
1.576	3.1921
1.57	3.202
1.564	3.187
1.558	3.1667
1.552	3.1485
1.546	3.05
1.54	3.0165
1.534	3.0026
1.528	2.9325
1.522	2.8683
1.516	2.9522
1.51	2.8571
1.504	2.7972
1.498	2.8143
1.492	2.813
1.486	2.7576
1.48	2.7194
1.474	2.711
1.468	2.6466
1.462	2.6556
1.456	2.6289
1.45	2.6357
1.444	2.5543
1.438	2.523
1.432	2.5259
1.426	2.4675
1.42	2.5069
1.414	2.5378
1.408	2.4997
1.402	2.5394
1.396	2.532
1.39	2.5331
1.384	2.4144
1.378	2.361
1.372	2.336
1.366	2.4614
1.36	2.4442
1.354	2.3675
1.348	2.4203
1.342	2.3659
1.336	2.3785
1.33	2.3496
1.324	2.4061
1.318	2.362
1.312	2.3415
1.306	2.3428
1.3	2.3515
1.294	2.3336
1.288	2.2733
1.282	2.3616
1.276	2.337
1.27	2.3706
1.264	2.3147
1.258	2.3605
1.252	2.3187
1.246	2.2794
1.24	2.3249
1.234	2.3411
1.228	2.3176
1.222	2.3147
1.216	2.3127
1.21	2.3197
1.204	2.2971
1.198	2.3106
1.192	2.2791
1.186	2.3166
1.18	2.3003
1.174	2.2899
1.168	2.2333
1.162	2.2812
1.156	2.2949
1.15	2.367
1.144	2.2862
1.138	2.3678
1.132	2.2908
1.126	2.3052
1.12	2.2262
1.114	2.2759
1.108	2.3083
1.102	2.2567
1.096	2.2927
1.09	2.3264
1.084	2.3359
1.078	2.3088
1.072	2.3306
1.066	2.3004
1.06	2.3213
1.054	2.2943
1.048	2.3962
1.042	2.3233
1.036	2.3289
1.03	2.322
1.024	2.276
1.018	2.3053
1.012	2.3811
1.006	2.3298
1	2.3143
0.994	2.3124
0.988	2.3335
0.982	2.3251
0.976	2.3702
0.97	2.3828
0.964	2.3667
0.958	2.3758
0.952	2.3051
0.946	2.3723
0.94	2.3795
0.934	2.3681
0.928	2.4086
0.922	2.3849
0.916	2.3688
0.91	2.3982
0.904	2.4062
0.898	2.4053
0.892	2.3444
0.886	2.3758
0.88	2.3182
0.874	2.3497
0.868	2.342
0.862	2.2731
0.856	2.6647
0.85	2.6587
0.844	2.6535
0.838	2.6401
0.832	2.6229
0.826	2.615
0.82	2.6042
0.814	2.589
0.808	2.5728
0.802	2.5711
0.796	2.5482
0.79	2.5447
0.784	2.5405
0.778	2.5259
0.772	2.5174
0.766	2.5094
0.76	2.4992
0.754	2.495
0.748	2.4897
0.742	2.4873
0.736	2.4841
0.73	2.4784
0.724	2.4756
0.718	2.4729
0.712	2.4722
0.706	2.4683
0.7	2.467
0.694	2.468
0.688	2.4662
0.682	2.4638
0.676	2.4678
0.67	2.469
0.664	2.4733
0.658	2.477
0.652	2.4814
0.646	2.4885
0.64	2.4943
0.634	2.5028
0.628	2.512
0.622	2.52
0.616	2.5285
0.61	2.5379
0.604	2.5463
0.598	2.5539
0.592	2.5633
0.586	2.5699
0.58	2.5742
0.574	2.5802
0.568	2.5848
0.562	2.5909
0.556	2.5962
0.55	2.6028
0.544	2.6086
0.538	2.6168
0.532	2.6252
0.526	2.6323
0.52	2.6423
0.514	2.651
0.508	2.6598
0.502	2.6694
0.496	2.6794
0.49	2.6932
0.484	2.7127
0.478	2.7297
0.472	2.744
0.466	2.7603
0.46	2.7796
0.454	2.7991
0.448	2.8174
0.442	2.8418
0.436	2.8685
0.43	2.8909
0.424	2.9228
0.418	2.958
0.412	2.9974
0.406	3.0397
0.4	3.0891
