Name: Spodumene LiAlS_2O_6
Type: Mineral
Class: Silicate
Subclass: Inosilicate
Particle Size: Coarse
Sample No.: IN-13A
Owner: JPL
Wavelength Range: TIR
Origin: Brazil, Minas Gerais
Description: Particle size was 125-500um.Collected by Ward's Original ASTER Spectral Library name was jpl.nicolet.mineral.silicate.inosilicate.coarse.in13a.spectrum.txt
Measurement: Hemispherical reflectance
X Units: Wavelength (micrometers)
Y Units: Reflectance (percent)
wavelength	value
15.3853	4.9795
15.1161	9.1431
14.8563	6.5617
14.6052	1.2019
14.3624	0.8428
14.1276	1.1897
13.9004	1.4292
13.6803	1.7127
13.4671	2.1901
13.2604	2.8426
13.06	3.307
12.8656	3.8005
12.6769	4.1332
12.4936	4.7363
12.3155	5.2846
12.1425	6.0229
11.9742	6.711
11.8106	8.2593
11.6513	10.066
11.4963	7.1151
11.3454	8.5994
11.1983	11.2515
11.0551	15.3323
10.9154	19.4916
10.7793	22.2286
10.6465	23.3849
10.5169	24.3317
10.3904	24.6645
10.267	23.4273
10.1464	19.6867
10.0287	13.6071
9.9136	15.025
9.8012	22.3999
9.6913	25.1306
9.5838	27.0142
9.4787	28.6319
9.3758	31.5622
9.2752	36.2155
9.1767	45.5475
9.0803	47.5033
8.9858	46.2745
8.8934	41.0154
8.8028	29.8388
8.714	23.6007
8.627	17.5595
8.5417	10.7864
8.4581	8.4423
8.3761	10.133
8.2957	10.1429
8.2169	4.924
8.1395	1.857
8.0635	0.7811
7.989	0.3009
7.9158	0.1525
7.8439	0.1849
7.7734	0.138
7.7041	0.2796
7.636	0.3024
7.5691	0.3985
7.5034	0.5863
7.4388	0.6237
7.3753	0.8048
7.3129	0.8168
7.2515	0.9316
7.1912	0.9557
7.1318	1.0673
7.0734	1.1885
7.016	1.2558
6.9595	1.4072
6.9039	1.4896
6.8492	1.5731
6.7953	1.8288
6.7423	1.9103
6.6901	2.2951
6.6387	2.5057
6.5881	2.3231
6.5382	2.5
6.4892	2.569
6.4408	2.5692
6.3931	2.6323
6.3462	2.7934
6.2999	2.6379
6.2543	2.6652
6.2094	2.6652
6.1651	2.8627
6.1214	3.0191
6.0784	3.1134
6.0359	3.2202
5.994	3.1588
5.9527	3.1801
5.912	3.1288
5.8718	3.2024
5.8322	3.2675
5.7931	3.1576
5.7545	2.916
5.7165	2.6429
5.6789	2.5889
5.6418	2.5884
5.6052	2.436
5.5691	2.5954
5.5334	2.6138
5.4982	2.7156
5.4635	2.8953
5.4291	3.1029
5.3952	3.1084
5.3618	3.2954
5.3287	3.5674
5.2961	3.8239
5.2638	4.5666
5.2319	6.4236
5.2004	7.364
5.1693	8.0172
5.1386	8.4686
5.1082	8.5945
5.0782	9.0495
5.0485	8.8593
5.0192	9.022
4.9902	9.0598
4.9616	9.4238
4.9332	10.5867
4.9052	10.7908
4.8776	10.0744
4.8502	9.5489
4.8231	9.5978
4.7963	9.4081
4.7699	9.4567
4.7437	10.8487
4.7178	12.4916
4.6922	13.0885
4.6668	12.992
4.6418	13.2377
4.617	14.7249
4.5924	15.3715
4.5681	15.8055
4.5441	15.4767
4.5203	15.5693
4.4968	17.4367
4.4735	19.1862
4.4505	22.2403
4.4277	26.2848
4.4051	31.1671
4.3828	36.0494
4.3607	39.8627
4.3388	43.0429
4.3171	45.4461
4.2956	46.941
4.2744	47.9424
4.2534	49.0123
4.2325	49.6578
4.2119	50.6471
4.1915	51.5793
4.1712	52.0975
4.1512	52.4464
4.1313	52.6272
4.1117	53.0116
4.0922	53.0899
4.0729	53.3294
4.0538	53.2963
4.0349	53.3588
4.0161	53.2768
3.9976	53.4576
3.9792	53.5517
3.9609	53.5407
3.9428	53.578
3.9249	53.4597
3.9072	53.0951
3.8896	52.8701
3.8722	52.7405
3.8549	53.0631
3.8378	54.0837
3.8208	55.3645
3.804	56.3347
3.7873	57.3868
3.7708	58.2653
3.7544	59.201
3.7382	59.8499
3.7221	60.5199
3.7061	61.0267
3.6903	61.4532
3.6746	62.1781
3.659	62.8947
3.6436	63.5311
3.6283	64.1941
3.6131	64.7405
3.5981	65.3138
3.5832	65.6977
3.5684	66.0129
3.5537	66.2342
3.5391	66.3987
3.5247	66.2113
3.5104	65.6296
3.4962	65.0351
3.4821	65.3908
3.4681	65.3557
3.4543	65.3749
3.4405	64.9161
3.4269	63.9602
3.4133	63.0821
3.3999	63.5828
3.3866	63.9162
3.3733	63.4488
3.3602	64.2458
3.3472	64.6342
3.3343	64.837
3.3215	64.7493
3.3088	64.3398
3.2961	64.0333
3.2836	63.6112
3.2712	63.157
3.2588	62.4569
3.2466	61.9438
3.2345	61.2634
3.2224	60.5045
3.2104	59.7639
3.1985	59.2078
3.1867	58.7615
3.175	58.5002
3.1634	58.4214
3.1519	58.1789
3.1404	57.9205
3.129	57.6175
3.1178	57.3357
3.1065	57.2729
3.0954	57.3932
3.0844	57.4547
3.0734	57.3978
3.0625	57.4052
3.0517	57.367
3.041	57.2985
3.0303	57.2989
3.0197	57.4234
3.0092	57.226
2.9987	57.2297
2.9884	57.2505
2.9781	57.2653
2.9678	57.0642
2.9577	57.1525
2.9476	56.5536
2.9376	56.4357
2.9276	56.4307
2.9177	56.5694
2.9079	56.8784
2.8982	57.156
2.8885	57.227
2.8789	56.9389
2.8693	57.2675
2.8598	57.3263
2.8504	57.819
2.841	57.9903
2.8317	58.3115
2.8224	58.5562
2.8133	58.9305
2.8041	59.7932
2.7951	59.4054
2.786	60.2937
2.7771	59.814
2.7682	59.7655
2.7594	57.6145
2.7506	60.1047
2.7418	62.1232
2.7332	62.1962
2.7246	64.9143
2.716	64.5174
2.7075	63.6452
2.699	65.1609
2.6906	71.3344
2.6823	74.8517
2.674	76.4685
2.6657	79.8343
2.6575	77.4688
2.6494	77.8237
2.6413	78.1258
2.6332	78.6882
2.6252	78.7683
2.6173	80.0107
2.6094	79.3218
2.6015	79.1995
2.5937	81.1507
2.5859	79.4185
2.5782	79.1406
2.5706	79.3581
2.5629	79.9269
2.5554	78.9657
2.5478	79.2878
2.5403	79.0032
2.5329	79.0999
2.5255	79.2021
2.5181	79.1006
2.5108	79.203
2.5035	79.1342
2.4963	79.1637
2.4891	79.1829
2.482	79.1541
2.4749	79.2841
2.4678	79.2825
2.4608	79.2851
2.4538	79.5635
2.4468	79.4312
2.4399	79.3591
2.4331	79.5991
2.4262	79.5331
2.4194	79.8068
2.4127	79.6179
2.4059	79.6783
2.3993	79.752
2.3926	79.7858
2.386	79.7428
2.3795	79.5199
2.3729	79.8818
2.3664	79.8191
2.36	79.62
2.3535	79.8211
2.3471	79.7272
2.3408	79.9236
2.3345	79.8277
2.3282	80.036
2.3219	79.918
2.3157	80.0199
2.3095	80.1469
2.3034	79.9444
2.2972	80.142
2.2911	80.0949
2.2851	79.9418
2.279	80.0619
2.2731	80.189
2.2671	80.0537
2.2612	80.3048
2.2553	80.2319
2.2494	80.2415
2.2435	80.1741
2.2377	80.1669
2.232	80.1788
2.2262	80.0503
2.2205	80.0582
2.2148	80.0062
2.2091	79.4825
2.2035	79.4663
2.1979	79.6165
2.1923	79.9692
2.1868	79.7942
2.1812	79.933
2.1758	79.8021
2.1703	80.1776
2.1649	80.1255
2.1595	80.0583
2.1541	80.3412
2.1487	80.1847
2.1434	80.2582
2.1381	80.2412
2.1328	80.3161
2.1275	80.3468
2.1223	80.3866
2.1171	80.4829
2.112	80.5102
2.1068	80.4117
2.1017	80.3401
2.0966	80.6197
2.0915	80.3969
2.0865	80.304
2.0814	80.3608
2.0764	80.2449
2.0715	79.9195
2.0665	80.3579
2.0616	80.4396
2.0567	80.3687
2.0518	80.4162
2.0469	80.4522
2.0421	80.5116
2.0373	80.3825
2.0325	80.2943
2.0277	80.4722
2.0229	80.6272
2.0182	80.2969
2.0135	80.5292
2.0088	80.4233
2.0042	80.3301
