Name: Brucite Mg(OH)_2
Type: Mineral
Class: Hydroxide
Subclass: None
Particle Size: Medium
Sample No.: OH-1A
Owner: JPL
Wavelength Range: VSWIR
Origin: USA, Nevada, Nye County, Gabbs
Description: Particle size was 45-125um.Collected by JPL Original ASTER Spectral Library name was jpl.beckman.mineral.hydroxide.none.medium.oh01a.spectrum.txt
Measurement: Hemispherical reflectance
X Units: Wavelength (micrometers)
Y Units: Reflectance (percent)
wavelength	value
0.4	53.32
0.403	54.59
0.406	57.29
0.409	58.5
0.412	60.44
0.415	61.88
0.418	62.46
0.421	64.07
0.424	64.53
0.427	66.13
0.43	66.89
0.433	67.69
0.436	69.35
0.439	70.11
0.442	72.23
0.445	72.52
0.448	74.24
0.451	75.39
0.454	76.09
0.457	77.41
0.46	77.3
0.463	78.34
0.466	79.21
0.469	79.04
0.472	79.38
0.475	80.2
0.478	79.75
0.481	80.78
0.484	80.33
0.487	81.42
0.49	80.8
0.493	81.56
0.496	81.27
0.499	82.08
0.502	81.74
0.505	82.31
0.508	82.13
0.511	82.37
0.514	82.54
0.517	82.37
0.52	83.23
0.523	82.77
0.526	83.92
0.529	83
0.532	83.98
0.535	83.8
0.538	84.03
0.541	84.5
0.544	84.03
0.547	84.84
0.55	84.03
0.553	85.13
0.556	84.67
0.559	85.08
0.562	86.22
0.565	85.19
0.568	85.93
0.571	85.41
0.574	86.57
0.577	85.82
0.58	86.51
0.583	85.99
0.586	86.69
0.589	86.86
0.592	86.8
0.595	87.14
0.598	86.86
0.601	87.95
0.604	87.2
0.607	88.24
0.61	87.49
0.613	88.3
0.616	88.3
0.619	87.95
0.622	88.41
0.625	88.01
0.628	88.98
0.631	88.18
0.634	88.75
0.637	88.24
0.64	88.92
0.643	88.69
0.646	88.98
0.649	89.5
0.652	88.69
0.655	89.33
0.658	88.98
0.661	89.44
0.664	89.1
0.667	89.44
0.67	89.79
0.673	89.1
0.676	89.79
0.679	89.21
0.682	89.91
0.685	89.91
0.688	89.91
0.691	90.2
0.694	89.5
0.697	90.42
0.7	90.2
0.703	89.33
0.706	90.08
0.709	89.67
0.712	90.08
0.715	89.91
0.718	90.02
0.721	89.91
0.724	89.62
0.727	89.39
0.73	87.89
0.733	88.63
0.736	88.53
0.739	89.62
0.742	89.04
0.745	89.27
0.748	89.15
0.751	88.69
0.754	89.15
0.757	88.12
0.76	88.81
0.763	88.01
0.766	88.81
0.769	87.89
0.772	88.59
0.775	87.72
0.778	87.83
0.781	87.72
0.784	86.97
0.787	87.25
0.79	86.8
0.793	87.25
0.796	86.57
0.799	86.8
0.808	86.57
0.82	85.76
0.832	85.47
0.844	84.96
0.856	84.44
0.868	84.21
0.88	84.03
0.892	84.27
0.904	84.21
0.916	83.69
0.928	83.74
0.94	82.48
0.952	77.48
0.964	83.92
0.976	84.44
0.988	84.44
1	84.84
1.012	84.61
1.024	84.73
1.036	84.73
1.048	84.67
1.06	85.13
1.072	85.31
1.084	85.41
1.096	85.76
1.108	86.16
1.12	86.57
1.132	86.69
1.144	86.8
1.156	87.36
1.168	87.57
1.18	87.49
1.192	87.88
1.204	88.21
1.216	88.09
1.228	87.63
1.24	87.23
1.252	87.45
1.264	88
1.276	87.12
1.288	84.29
1.3	83.18
1.312	84.65
1.324	84.52
1.336	83.12
1.348	82.69
1.36	69.21
1.372	74.89
1.384	62.05
1.396	40.94
1.408	73.77
1.42	81.29
1.432	82.8
1.444	84.72
1.456	86.11
1.468	86.8
1.48	86.97
1.492	87.42
1.504	88.23
1.516	88.58
1.528	88.74
1.54	88.46
1.552	88.52
1.564	88.52
1.576	88.12
1.588	87.83
1.6	87.71
1.612	87.41
1.624	86.76
1.636	86.39
1.648	85.9
1.66	85.14
1.672	84.61
1.684	84.29
1.696	83.53
1.708	82.72
1.72	82.15
1.732	81.47
1.744	80.55
1.756	80.09
1.768	79.35
1.78	78.66
1.792	78.02
1.804	77.2
1.816	76.03
1.828	74.89
1.84	73.89
1.852	72.58
1.864	70.9
1.876	69.8
1.888	68.53
1.9	66.52
1.912	65.03
1.924	64.03
1.936	63.73
1.948	63.43
1.96	62.82
1.972	62.32
1.984	60.69
1.996	58.93
2.008	57.01
2.02	55.75
2.032	54.55
2.044	53.73
2.056	52.89
2.068	52.44
2.08	52.15
2.092	52.08
2.104	51.56
2.116	51.34
2.128	51.51
2.14	51.82
2.152	51.68
2.164	49.92
2.176	46.68
2.188	42.97
2.2	40.31
2.212	38.28
2.224	36.33
2.236	34.5
2.248	33.41
2.26	32.7
2.272	31.73
2.284	29.94
2.296	27.07
2.308	24.83
2.32	25.2
2.332	28.11
2.344	32.79
2.356	36.27
2.368	38.07
2.38	38.06
2.392	35.46
2.404	30.28
2.416	23.43
2.428	16.91
2.44	12.34
2.452	9.45
2.464	7.72
2.476	7.33
2.488	7.88
2.5	8.88
