Name: Glaucophane Na_2(Mg,Fe^2+)_3Al_2Si_8O_22(OH)_2
Type: Mineral
Class: Silicate
Subclass: Inosilicate
Particle Size: Fine
Sample No.: IN-3A
Owner: JPL
Wavelength Range: TIR
Origin: USA, California
Description: Particle size was 0-45um.Collected by Ward's Original ASTER Spectral Library name was jpl.nicolet.mineral.silicate.inosilicate.fine.in03a.spectrum.txt
Measurement: Hemispherical reflectance
X Units: Wavelength (micrometers)
Y Units: Reflectance (percent)
wavelength	value
15.3853	2.9114
15.1161	3.2299
14.8563	2.7942
14.6052	2.9014
14.3624	2.7499
14.1276	2.9693
13.9004	3.3028
13.6803	3.353
13.4671	4.2814
13.2604	4.6209
13.06	4.7327
12.8656	5.0326
12.6769	4.6862
12.4936	4.8759
12.3155	5.0254
12.1425	5.4882
11.9742	5.8186
11.8106	5.8109
11.6513	5.8504
11.4963	5.6853
11.3454	5.5993
11.1983	5.6528
11.0551	5.8167
10.9154	5.8232
10.7793	6.1278
10.6465	6.7664
10.5169	7.6047
10.3904	7.9174
10.267	8.3916
10.1464	8.3385
10.0287	7.7016
9.9136	7.1497
9.8012	7.2675
9.6913	8.0347
9.5838	8.6805
9.4787	9.1787
9.3758	8.2334
9.2752	7.5504
9.1767	7.5888
9.0803	7.0194
8.9858	6.9182
8.8934	6.9427
8.8028	6.8537
8.714	5.8079
8.627	6.7035
8.5417	7.5899
8.4581	6.9673
8.3761	5.3515
8.2957	4.6128
8.2169	4.2989
8.1395	4.746
8.0635	5.2439
7.989	5.9777
7.9158	6.7941
7.8439	7.7444
7.7734	8.7079
7.7041	9.8485
7.636	10.7514
7.5691	11.5031
7.5034	11.9672
7.4388	12.5957
7.3753	13.3446
7.3129	13.9391
7.2515	14.5064
7.1912	14.9385
7.1318	15.5816
7.0734	15.9981
7.016	16.5131
6.9595	17.3926
6.9039	17.9842
6.8492	18.5344
6.7953	19.1228
6.7423	19.3155
6.6901	19.7201
6.6387	20.3858
6.5881	20.3379
6.5382	20.2339
6.4892	21.0207
6.4408	20.5593
6.3931	20.5705
6.3462	20.8421
6.2999	20.4924
6.2543	20.3945
6.2094	20.2333
6.1651	19.8047
6.1214	19.216
6.0784	18.9242
6.0359	19.0565
5.994	19.7206
5.9527	20.3927
5.912	21.2429
5.8718	22.1942
5.8322	22.3718
5.7931	22.0446
5.7545	22.0113
5.7165	22.0584
5.6789	21.8829
5.6418	22.1215
5.6052	21.9328
5.5691	22.5683
5.5334	23.3253
5.4982	23.9837
5.4635	24.9138
5.4291	25.4985
5.3952	25.7863
5.3618	25.5718
5.3287	25.8602
5.2961	26.5683
5.2638	27.1355
5.2319	27.9058
5.2004	28.7481
5.1693	29.5751
5.1386	30.2325
5.1082	31.2441
5.0782	31.6206
5.0485	31.9333
5.0192	32.1151
4.9902	32.3423
4.9616	32.1478
4.9332	32.2694
4.9052	32.7416
4.8776	33.2759
4.8502	34.338
4.8231	35.1717
4.7963	35.7076
4.7699	36.5786
4.7437	37.5535
4.7178	38.0465
4.6922	38.5893
4.6668	38.9899
4.6418	39.156
4.617	39.3828
4.5924	39.9399
4.5681	40.5398
4.5441	41.0092
4.5203	41.0499
4.4968	40.446
4.4735	39.9857
4.4505	40.7232
4.4277	42.1624
4.4051	43.1078
4.3828	43.6382
4.3607	43.9737
4.3388	43.9211
4.3171	43.8648
4.2956	43.4516
4.2744	43.4657
4.2534	43.951
4.2325	43.1395
4.2119	44.0055
4.1915	44.4006
4.1712	44.4922
4.1512	44.534
4.1313	44.5113
4.1117	44.5153
4.0922	44.6556
4.0729	44.5823
4.0538	44.4499
4.0349	44.197
4.0161	43.9831
3.9976	43.5567
3.9792	43.4589
3.9609	43.0986
3.9428	43.2167
3.9249	42.9056
3.9072	43.0067
3.8896	42.7584
3.8722	42.6631
3.8549	42.4461
3.8378	42.0665
3.8208	41.8446
3.804	41.5124
3.7873	41.391
3.7708	41.1006
3.7544	40.7312
3.7382	40.5428
3.7221	40.1451
3.7061	39.7793
3.6903	39.3187
3.6746	38.9356
3.659	38.5948
3.6436	38.0946
3.6283	37.7195
3.6131	37.2302
3.5981	36.8572
3.5832	36.3251
3.5684	35.9628
3.5537	35.369
3.5391	34.8508
3.5247	34.3781
3.5104	33.8607
3.4962	33.4294
3.4821	32.9532
3.4681	32.5678
3.4543	31.9266
3.4405	31.5498
3.4269	30.9403
3.4133	30.6149
3.3999	30.007
3.3866	29.5539
3.3733	29.1383
3.3602	28.7344
3.3472	28.4051
3.3343	27.9574
3.3215	27.5777
3.3088	27.1608
3.2961	26.8728
3.2836	26.3878
3.2712	26.0763
3.2588	25.584
3.2466	25.2535
3.2345	24.9264
3.2224	24.3713
3.2104	23.9214
3.1985	23.3518
3.1867	22.8736
3.175	22.6592
3.1634	22.6857
3.1519	22.3027
3.1404	22.0454
3.129	21.6919
3.1178	21.3147
3.1065	20.9314
3.0954	20.4262
3.0844	20.1143
3.0734	19.7785
3.0625	19.5071
3.0517	19.134
3.041	19.1159
3.0303	18.8237
3.0197	18.4173
3.0092	17.4587
2.9987	16.8411
2.9884	16.1566
2.9781	15.561
2.9678	14.9642
2.9577	14.6784
2.9476	14.688
2.9376	14.9533
2.9276	15.1775
2.9177	15.7785
2.9079	16.4756
2.8982	16.5413
2.8885	16.4731
2.8789	16.0055
2.8693	15.7984
2.8598	15.8884
2.8504	16.2385
2.841	16.0663
2.8317	15.7718
2.8224	15.819
2.8133	15.6377
2.8041	16.3037
2.7951	17.0116
2.786	18.8503
2.7771	20.3451
2.7682	20.9925
2.7594	21.0847
2.7506	16.2371
2.7418	16.4464
2.7332	20.5278
2.7246	26.8363
2.716	32.5052
2.7075	35.6053
2.699	38.4759
2.6906	41.8466
2.6823	44.1559
2.674	45.5189
2.6657	47.3264
2.6575	47.2049
2.6494	47.7727
2.6413	48.1742
2.6332	48.9708
2.6252	49.2615
2.6173	49.831
2.6094	49.8595
2.6015	49.9173
2.5937	50.8624
2.5859	50.302
2.5782	50.2905
2.5706	50.6996
2.5629	51.0484
2.5554	50.993
2.5478	50.9113
2.5403	51.0081
2.5329	51.0437
2.5255	51.1919
2.5181	51.2958
2.5108	51.3259
2.5035	51.3526
2.4963	51.4631
2.4891	51.511
2.482	51.7004
2.4749	51.7102
2.4678	52.012
2.4608	52.4134
2.4538	52.604
2.4468	52.736
2.4399	53.0768
2.4331	53.049
2.4262	53.0081
2.4194	52.9402
2.4127	52.9522
2.4059	52.6569
2.3993	52.5328
2.3926	52.3058
2.386	52.0481
2.3795	52.0928
2.3729	52.0449
2.3664	51.6517
2.36	51.2904
2.3535	50.399
2.3471	49.8304
2.3408	49.1261
2.3345	48.6111
2.3282	48.3204
2.3219	48.2364
2.3157	48.3599
2.3095	48.779
2.3034	49.4901
2.2972	50.4531
2.2911	51.0895
2.2851	51.7049
2.279	52.0734
2.2731	52.5398
2.2671	52.581
2.2612	52.8698
2.2553	53.0399
2.2494	53.39
2.2435	54.1188
2.2377	54.5606
2.232	54.8618
2.2262	55.2074
2.2205	55.3528
2.2148	55.4922
2.2091	55.4642
2.2035	55.5661
2.1979	55.8422
2.1923	55.8382
2.1868	55.92
2.1812	55.8941
2.1758	56.1918
2.1703	56.0313
2.1649	56.2378
2.1595	56.2384
2.1541	56.5049
2.1487	56.3772
2.1434	56.3293
2.1381	56.5639
2.1328	56.7262
2.1275	56.4828
2.1223	56.7232
2.1171	56.6185
2.112	56.8462
2.1068	56.531
2.1017	56.3985
2.0966	56.7409
2.0915	57.027
2.0865	56.5573
2.0814	56.8558
2.0764	56.7808
2.0715	56.37
2.0665	56.8447
2.0616	56.6744
2.0567	56.6328
2.0518	56.7376
2.0469	56.6068
2.0421	56.3954
2.0373	56.5876
2.0325	55.8051
2.0277	56.5068
2.0229	56.4902
2.0182	56.2971
2.0135	56.3791
2.0088	56.3375
2.0042	56.0758
