Name: Augite (Ca,Na)(Mg,Fe,Al,Ti)(Si,Al)2O6
Type: Mineral
Class: Silicate
Subclass: Inosilicate
Particle Size: Coarse
Sample No.: augite_2
Owner: JHU
Wavelength Range: TIR
Origin: Sample from Rozier, near Gorges du Tarn, Tarn, France viathe Smithsonian (sample no. NMNH 120049).
Description: The sample was a single 22.31 g portion of a single black crystal, displaying some veining with dolomite, which was completely removed by a warm acid bath. Particle size was 74-250 Micrometers.(Pyroxene Group - single chain) Original ASTER Spectral Library name was jhu.nicolet.mineral.silicate.inosilicate.coarse.augite2.spectrum.txt
Measurement: Bidirectional reflectance
X Units: Wavelength (micrometers)
Y Units: Reflectance (percent)
wavelength	value
25.0442	8.0615
24.3388	8.2754
23.6719	7.7768
23.0407	7.8096
22.4422	7.5757
21.8741	8.2185
21.334	9.0322
20.8199	9.7295
20.33	10.0036
19.8627	10.7197
19.4163	11.2419
18.9896	11.1538
18.5812	10.6006
18.19	10.1386
17.815	10.1123
17.4551	9.6826
17.1094	8.2602
16.7772	6.2243
16.4576	3.7126
16.15	2.3989
15.8537	2.4814
15.568	2.7107
15.2925	2.4565
15.0265	2.4448
14.7697	2.5972
14.5214	2.6875
14.2814	2.8032
14.0492	2.9648
13.8244	3.0476
13.6067	3.1772
13.3957	3.396
13.1912	3.5327
12.9929	3.6167
12.8004	3.7371
12.6135	3.8899
12.432	4.0366
12.2557	4.2693
12.0843	4.5403
11.9176	4.8923
11.7555	5.3979
11.5977	6.0237
11.444	6.4885
11.2944	6.7566
11.1487	6.9778
11.0067	7.1914
10.8682	7.4399
10.7332	7.6238
10.6015	7.7029
10.473	7.72
10.3476	7.7221
10.2251	7.2915
10.1056	6.8408
9.9887	6.8078
9.8746	6.8742
9.763	7.0752
9.6539	7.4844
9.5472	8.0122
9.4429	8.5146
9.3408	8.946
9.2409	9.1238
9.1431	9.0827
9.0474	9.019
8.9536	8.8408
8.8618	8.3816
8.7718	7.3647
8.6837	5.8152
8.5973	3.1247
8.5126	0.9661
8.4295	0.5869
8.3481	0.8289
8.2682	1.0728
8.1898	1.2903
8.1129	1.4868
8.0374	1.6663
7.9634	1.8362
7.8906	2.0007
7.8192	2.1526
7.7491	2.2852
7.6802	2.4221
7.6126	2.5508
7.5461	2.6814
7.4807	2.8125
7.4165	2.9348
7.3534	3.0596
7.2914	3.1675
7.2303	3.2598
7.1703	3.3503
7.1113	3.4568
7.0533	3.5496
6.9962	3.6579
6.94	3.7673
6.8847	3.8599
6.8302	3.9297
6.7767	3.9785
6.7239	3.9426
6.672	3.8447
6.6209	3.7378
6.5705	3.6372
6.5209	3.5476
6.4721	3.4565
6.424	3.4126
6.3766	3.4348
6.3299	3.4758
6.2838	3.5349
6.2385	3.6023
6.1937	3.6394
6.1496	3.6753
6.1062	3.708
6.0633	3.7649
6.0211	3.8201
5.9794	3.8877
5.9383	4.0024
5.8978	4.1528
5.8578	4.3306
5.8184	4.4775
5.7794	4.667
5.741	4.9241
5.7031	5.1899
5.6657	5.3984
5.6288	5.5666
5.5924	5.696
5.5564	5.7886
5.5209	5.8337
5.4859	5.7895
5.4513	5.6599
5.4171	5.4756
5.3833	5.2871
5.35	5.1037
5.3171	4.9485
5.2846	4.8147
5.2524	4.7241
5.2207	4.6894
5.1893	4.6755
5.1584	4.6811
5.1277	4.7099
5.0975	4.7375
5.0676	4.8174
5.038	4.926
5.0088	5.0596
4.98	5.2209
4.9514	5.3684
4.9232	5.5288
4.8953	5.7163
4.8678	5.9209
4.8405	6.1531
4.8135	6.3943
4.7868	6.6404
4.7605	6.9038
4.7344	7.1975
4.7086	7.5161
4.6831	7.8469
4.6578	8.2217
4.6328	8.6006
4.6081	8.967
4.5837	9.3
4.5595	9.6008
4.5356	9.8677
4.5119	10.0993
4.4884	10.2734
4.4652	10.4111
4.4423	10.5012
4.4196	10.57
4.3971	10.6379
4.3748	10.6948
4.3528	10.7368
4.331	10.7619
4.3094	10.7705
4.288	10.791
4.2668	10.821
4.2458	10.8315
4.2251	10.8601
4.2045	10.8847
4.1841	10.9145
4.164	10.9301
4.144	10.9507
4.1242	10.9538
4.1046	10.9651
4.0852	10.99
4.066	10.9997
4.047	10.9975
4.0281	11.0193
4.0094	11.0171
3.9909	11.0185
3.9725	11.018
3.9544	11.0349
3.9363	11.0344
3.9185	11.0261
3.9008	11.0515
3.8833	11.0344
3.8659	11.0393
3.8487	11.0217
3.8316	11.009
3.8147	11.0175
3.7979	11.0107
3.7813	11.0002
3.7648	10.98
3.7485	10.9721
3.7323	10.958
3.7162	10.9433
3.7003	10.9116
3.6845	10.8977
3.6689	10.8772
3.6534	10.8559
3.638	10.8432
3.6227	10.8108
3.6076	10.791
3.5926	10.7785
3.5777	10.7524
3.563	10.7209
3.5484	10.6794
3.5338	10.6472
3.5195	10.6269
3.5052	10.5957
3.491	10.5913
3.477	10.5381
3.463	10.5212
3.4492	10.5002
3.4355	10.4741
3.4219	10.4411
3.4084	10.4082
3.395	10.385
3.3817	10.3659
3.3685	10.3388
3.3554	10.3078
3.3425	10.3069
3.3296	10.2888
3.3168	10.2741
3.3041	10.2436
3.2915	10.217
3.279	10.1582
3.2666	10.1291
3.2543	10.0849
3.2421	10.0144
3.23	9.966
3.218	9.9221
3.206	9.8581
3.1942	9.8098
3.1824	9.758
3.1707	9.6831
3.1591	9.6313
3.1476	9.57
3.1362	9.4917
3.1249	9.4233
3.1136	9.3803
3.1024	9.331
3.0913	9.268
3.0803	9.185
3.0694	9.1506
3.0585	9.0808
3.0477	9.0251
3.037	8.9343
3.0264	8.8655
3.0158	8.7732
3.0053	8.6477
2.9949	8.5744
2.9845	8.4607
2.9743	8.334
2.9641	8.2129
2.9539	8.0395
2.9439	7.8735
2.9339	7.6821
2.9239	7.488
2.9141	7.2795
2.9043	7.1108
2.8946	6.9975
2.8849	6.8826
2.8753	6.7744
2.8658	6.7014
2.8563	6.6347
2.8469	6.5854
2.8375	6.5461
2.8282	6.5867
2.819	6.6609
2.8098	6.8086
2.8007	6.8918
2.7917	6.876
2.7827	6.8359
2.7738	6.7864
2.7649	6.7534
2.7561	6.7988
2.7473	7.0481
2.7386	7.4651
2.7299	7.9289
2.7213	8.3574
2.7128	8.6975
2.7043	8.8657
2.6959	9.029
2.6875	9.2312
2.6791	9.3188
2.6709	9.2973
2.6626	9.2754
2.6545	9.2251
2.6463	9.145
2.6382	9.0403
2.6302	8.9626
2.6222	8.8984
2.6143	8.7949
2.6064	8.687
2.5986	8.5896
2.5908	8.519
2.583	8.4045
2.5753	8.3449
2.5677	8.23
2.5601	8.1142
2.5525	8.0276
2.545	7.9219
2.5375	7.8501
2.5301	7.7138
2.5227	7.6216
2.5154	7.5505
2.5081	7.4409
2.5008	7.3847
2.4936	7.2602
2.4864	7.1777
2.4793	7.0935
2.4722	7.0381
2.4651	6.9238
2.4581	6.8816
2.4511	6.8472
2.4442	6.7566
2.4373	6.6562
2.4305	6.6304
2.4236	6.5627
2.4169	6.5014
2.4101	6.4746
2.4034	6.4067
2.3967	6.3598
2.3901	6.3359
2.3835	6.2671
2.377	6.2593
2.3704	6.1972
2.364	6.1553
2.3575	6.1557
2.3511	6.1057
2.3447	6.0837
2.3384	6.0639
2.3321	6.0427
2.3258	5.9888
2.3195	5.9568
2.3133	5.9438
2.3071	5.9372
2.301	5.9119
2.2949	5.9043
2.2888	5.8948
2.2828	5.8694
2.2767	5.8811
2.2708	5.8547
2.2648	5.8633
2.2589	5.8567
2.253	5.8623
2.2471	5.8069
2.2413	5.8362
2.2355	5.8188
2.2297	5.844
2.224	5.8413
2.2183	5.8633
2.2126	5.8564
2.207	5.8838
2.2013	5.832
2.1957	5.8838
2.1902	5.9092
2.1846	5.9038
2.1791	5.9248
2.1736	5.9316
2.1682	5.9612
2.1628	6.0354
2.1574	6.0615
2.152	6.0312
2.1466	6.0044
2.1413	6.0461
2.136	6.0566
2.1308	6.1059
2.1255	6.1123
2.1203	6.1274
2.1151	6.1565
2.11	6.1828
2.1048	6.1897
2.0997	6.2505
2.0946	6.3284
2.0895	6.3061
2.0845	6.3496
2.0795	6.3779
