Name: Fayalite Fe_2SiO_4
Type: Mineral
Class: Silicate
Subclass: Nesosilicate
Particle Size: Coarse
Sample No.: NS-1A
Owner: JPL
Wavelength Range: TIR
Origin: N/A
Description: Particle size was 125-500um.Collected by JPL Original ASTER Spectral Library name was jpl.nicolet.mineral.silicate.nesosilicate.coarse.ns01a.spectrum.txt
Measurement: Hemispherical reflectance
X Units: Wavelength (micrometers)
Y Units: Reflectance (percent)
wavelength	value
15.3853	3.9631
15.1161	4.5275
14.8563	4.3567
14.6052	4.7865
14.3624	4.8523
14.1276	4.9229
13.9004	4.7945
13.6803	4.72
13.4671	5.2686
13.2604	5.038
13.06	5.3439
12.8656	5.495
12.6769	5.8034
12.4936	5.9128
12.3155	6.743
12.1425	7.4445
11.9742	6.7558
11.8106	7.96
11.6513	10.2254
11.4963	11.8286
11.3454	12.3199
11.1983	12.322
11.0551	12.1508
10.9154	10.8802
10.7793	9.4593
10.6465	12.1385
10.5169	13.6264
10.3904	10.9942
10.267	10.027
10.1464	10.1921
10.0287	11.2172
9.9136	11.9784
9.8012	11.5554
9.6913	10.5858
9.5838	10.043
9.4787	8.9327
9.3758	7.7252
9.2752	7.1889
9.1767	8.1178
9.0803	7.0558
8.9858	5.291
8.8934	5.2397
8.8028	5.9795
8.714	5.9525
8.627	5.0354
8.5417	4.2729
8.4581	3.894
8.3761	4.0168
8.2957	4.0067
8.2169	3.9377
8.1395	3.9
8.0635	3.9342
7.989	3.955
7.9158	3.9692
7.8439	4.0964
7.7734	4.0733
7.7041	4.1456
7.636	4.2701
7.5691	4.3253
7.5034	4.4612
7.4388	4.4191
7.3753	4.4676
7.3129	4.5685
7.2515	4.5067
7.1912	4.6542
7.1318	4.8262
7.0734	4.836
7.016	4.9978
6.9595	4.9313
6.9039	5.0803
6.8492	5.0654
6.7953	5.1383
6.7423	5.0881
6.6901	5.1398
6.6387	5.3021
6.5881	5.1811
6.5382	5.0364
6.4892	5.2658
6.4408	5.1668
6.3931	5.0846
6.3462	5.1319
6.2999	4.9136
6.2543	4.912
6.2094	4.9003
6.1651	4.6856
6.1214	4.6386
6.0784	4.7663
6.0359	4.5813
5.994	4.9137
5.9527	4.7871
5.912	4.8983
5.8718	4.8915
5.8322	4.9032
5.7931	4.8275
5.7545	4.8562
5.7165	4.7809
5.6789	4.7171
5.6418	4.7866
5.6052	4.8071
5.5691	4.8908
5.5334	4.8937
5.4982	4.8904
5.4635	5.0285
5.4291	5.0329
5.3952	5.0157
5.3618	5.083
5.3287	5.1729
5.2961	5.1877
5.2638	5.2368
5.2319	5.2759
5.2004	5.4136
5.1693	5.5567
5.1386	5.6286
5.1082	5.5972
5.0782	5.8266
5.0485	5.7499
5.0192	5.8148
4.9902	5.8561
4.9616	5.8824
4.9332	5.9762
4.9052	6.0187
4.8776	6.026
4.8502	6.1562
4.8231	6.1843
4.7963	6.2277
4.7699	6.2163
4.7437	6.3304
4.7178	6.3345
4.6922	6.4111
4.6668	6.4277
4.6418	6.5317
4.617	6.4959
4.5924	6.5535
4.5681	6.5682
4.5441	6.6412
4.5203	6.6778
4.4968	6.6803
4.4735	6.7561
4.4505	6.7367
4.4277	6.8123
4.4051	6.9416
4.3828	6.8681
4.3607	6.8915
4.3388	6.8167
4.3171	7.011
4.2956	7.055
4.2744	7.1098
4.2534	7.094
4.2325	7.0278
4.2119	7.0588
4.1915	7.0704
4.1712	7.0872
4.1512	7.1955
4.1313	7.1496
4.1117	7.1325
4.0922	7.2192
4.0729	7.1383
4.0538	7.3102
4.0349	7.1942
4.0161	7.3014
3.9976	7.3795
3.9792	7.2693
3.9609	7.4408
3.9428	7.2924
3.9249	7.3602
3.9072	7.4505
3.8896	7.3771
3.8722	7.4283
3.8549	7.4419
3.8378	7.5305
3.8208	7.4991
3.804	7.4531
3.7873	7.4637
3.7708	7.5038
3.7544	7.4468
3.7382	7.4095
3.7221	7.3908
3.7061	7.5216
3.6903	7.4489
3.6746	7.4602
3.659	7.4582
3.6436	7.5137
3.6283	7.395
3.6131	7.5292
3.5981	7.3713
3.5832	7.4174
3.5684	7.2922
3.5537	7.2984
3.5391	7.3326
3.5247	7.3947
3.5104	7.2373
3.4962	7.3125
3.4821	7.223
3.4681	7.262
3.4543	7.2551
3.4405	7.0539
3.4269	7.1008
3.4133	7.1712
3.3999	7.1426
3.3866	7.1047
3.3733	6.9536
3.3602	6.9215
3.3472	7.0042
3.3343	7.025
3.3215	7.0504
3.3088	6.8709
3.2961	6.7946
3.2836	6.7429
3.2712	6.8103
3.2588	6.7691
3.2466	6.6915
3.2345	6.5891
3.2224	6.5067
3.2104	6.4748
3.1985	6.5492
3.1867	6.4973
3.175	6.4426
3.1634	6.2121
3.1519	6.3969
3.1404	6.3654
3.129	6.3629
3.1178	6.2678
3.1065	6.4261
3.0954	6.4567
3.0844	6.3707
3.0734	6.3186
3.0625	6.3119
3.0517	6.4469
3.041	6.1463
3.0303	6.2236
3.0197	6.3739
3.0092	6.2639
2.9987	6.3133
2.9884	6.3107
2.9781	6.3102
2.9678	6.1981
2.9577	6.3403
2.9476	6.2392
2.9376	6.2064
2.9276	6.3618
2.9177	6.2392
2.9079	6.1568
2.8982	6.3159
2.8885	6.1434
2.8789	6.4092
2.8693	6.4542
2.8598	6.3028
2.8504	6.2698
2.841	6.0723
2.8317	6.2988
2.8224	6.1502
2.8133	6.0523
2.8041	5.7637
2.7951	5.7144
2.786	5.8451
2.7771	5.9506
2.7682	5.7812
2.7594	5.8191
2.7506	6.023
2.7418	7.2508
2.7332	7.791
2.7246	7.7915
2.716	8.2512
2.7075	8.5138
2.699	8.6301
2.6906	8.8271
2.6823	8.9568
2.674	8.7576
2.6657	9.2209
2.6575	8.9845
2.6494	9.0622
2.6413	9.0184
2.6332	9.0684
2.6252	9.1589
2.6173	9.2395
2.6094	9.1458
2.6015	9.1209
2.5937	9.4397
2.5859	9.1245
2.5782	9.1206
2.5706	9.2065
2.5629	8.9698
2.5554	9.029
2.5478	9.2083
2.5403	9.0745
2.5329	9.1254
2.5255	9.1312
2.5181	9.14
2.5108	9.2214
2.5035	9.1508
2.4963	9.1458
2.4891	9.3065
2.482	9.2688
2.4749	9.2107
2.4678	9.3836
2.4608	9.3735
2.4538	9.2578
2.4468	9.3888
2.4399	9.5617
2.4331	9.3076
2.4262	9.3681
2.4194	9.4725
2.4127	9.4503
2.4059	9.5496
2.3993	9.5758
2.3926	9.5945
2.386	9.6697
2.3795	9.7089
2.3729	9.7451
2.3664	9.6203
2.36	9.6771
2.3535	9.566
2.3471	9.4115
2.3408	9.7887
2.3345	9.714
2.3282	9.6956
2.3219	9.6819
2.3157	9.7533
2.3095	9.8818
2.3034	10.0039
2.2972	9.9335
2.2911	9.9512
2.2851	10.3058
2.279	10.0887
2.2731	10.4222
2.2671	10.1898
2.2612	10.0297
2.2553	10.4818
2.2494	10.2444
2.2435	10.3685
2.2377	10.3882
2.232	10.4877
2.2262	10.3327
2.2205	10.4765
2.2148	10.7281
2.2091	10.7391
2.2035	10.6107
2.1979	10.6091
2.1923	10.3694
2.1868	10.6943
2.1812	11.0138
2.1758	10.6473
2.1703	10.7273
2.1649	10.8945
2.1595	10.7343
2.1541	10.8669
2.1487	10.7432
2.1434	10.7464
2.1381	10.8026
2.1328	10.6502
2.1275	10.7489
2.1223	10.9575
2.1171	10.7432
2.112	10.8321
2.1068	10.923
2.1017	11.0621
2.0966	10.8593
2.0915	10.7471
2.0865	10.9719
2.0814	10.9923
2.0764	11.0285
2.0715	10.6097
2.0665	11.3394
2.0616	11.0382
2.0567	10.842
2.0518	11.1848
2.0469	11.2562
2.0421	11.1415
2.0373	10.7741
2.0325	10.9786
2.0277	10.7954
2.0229	10.7777
2.0182	10.7435
2.0135	11.0764
2.0088	11.1252
2.0042	11.0536
