Name: Glauconite (K,Na)(Fe^3+,Al,Mg)_2(Si,Al)_4O_10(OH)_2
Type: Mineral
Class: Silicate
Subclass: Phyllosilicate
Particle Size: Fine
Sample No.: PS-19A
Owner: JPL
Wavelength Range: TIR
Origin: USA, New Jersey
Description: Particle size was 0-45um.Collected by Ward's Original ASTER Spectral Library name was jpl.nicolet.mineral.silicate.phyllosilicate.fine.ps19a.spectrum.txt
Measurement: Hemispherical reflectance
X Units: Wavelength (micrometers)
Y Units: Reflectance (percent)
wavelength	value
15.3853	1.0917
15.1161	1.343
14.8563	0.9479
14.6052	1.1292
14.3624	1.2745
14.1276	1.7741
13.9004	1.9427
13.6803	2.3139
13.4671	2.7692
13.2604	2.7457
13.06	2.7902
12.8656	2.9509
12.6769	2.7783
12.4936	2.4489
12.3155	2.4008
12.1425	2.5148
11.9742	2.8106
11.8106	3.3577
11.6513	3.3468
11.4963	3.522
11.3454	3.6847
11.1983	3.6852
11.0551	3.6194
10.9154	3.3452
10.7793	3.3059
10.6465	3.1298
10.5169	2.7359
10.3904	2.7511
10.267	2.7742
10.1464	2.9242
10.0287	2.8336
9.9136	2.9388
9.8012	3.281
9.6913	3.282
9.5838	3.3577
9.4787	3.4291
9.3758	2.8418
9.2752	2.6219
9.1767	2.2942
9.0803	2.1408
8.9858	1.7001
8.8934	1.5852
8.8028	1.0447
8.714	0.9381
8.627	0.6275
8.5417	0.6827
8.4581	0.685
8.3761	0.5304
8.2957	0.7792
8.2169	0.9887
8.1395	1.4691
8.0635	1.8918
7.989	2.4263
7.9158	3.0536
7.8439	3.6616
7.7734	4.5248
7.7041	5.0787
7.636	5.7774
7.5691	6.4237
7.5034	7.1224
7.4388	7.667
7.3753	8.3524
7.3129	8.9419
7.2515	9.4587
7.1912	10.1428
7.1318	10.5686
7.0734	11.0334
7.016	11.2381
6.9595	11.6138
6.9039	12.6376
6.8492	12.9119
6.7953	13.7829
6.7423	15.081
6.6901	15.6021
6.6387	15.7663
6.5881	16.4027
6.5382	16.5596
6.4892	15.9806
6.4408	16.0976
6.3931	15.4701
6.3462	14.36
6.2999	13.1196
6.2543	11.1836
6.2094	8.8262
6.1651	6.7612
6.1214	6.0083
6.0784	6.2938
6.0359	7.4098
5.994	8.6798
5.9527	10.6047
5.912	12.4762
5.8718	14.2984
5.8322	16.1647
5.7931	17.6514
5.7545	18.6733
5.7165	19.4712
5.6789	20.3131
5.6418	20.9189
5.6052	21.7752
5.5691	22.3248
5.5334	23.0168
5.4982	23.7088
5.4635	24.2507
5.4291	24.9361
5.3952	25.5562
5.3618	26.1032
5.3287	26.8373
5.2961	27.6938
5.2638	28.8456
5.2319	29.771
5.2004	30.6982
5.1693	31.4418
5.1386	31.9975
5.1082	32.5147
5.0782	32.9409
5.0485	33.3101
5.0192	33.682
4.9902	33.97
4.9616	34.4389
4.9332	34.7391
4.9052	35.1224
4.8776	35.4957
4.8502	35.8165
4.8231	36.163
4.7963	36.6203
4.7699	37.1729
4.7437	37.7241
4.7178	38.1505
4.6922	38.6943
4.6668	39.0651
4.6418	39.4434
4.617	39.7783
4.5924	40.2058
4.5681	40.4768
4.5441	40.8903
4.5203	41.1679
4.4968	41.5761
4.4735	41.7654
4.4505	42.0916
4.4277	42.4185
4.4051	42.5598
4.3828	42.7825
4.3607	43.002
4.3388	43.1606
4.3171	43.2635
4.2956	43.4487
4.2744	43.4789
4.2534	43.7569
4.2325	43.8908
4.2119	44.1298
4.1915	44.2998
4.1712	44.4293
4.1512	44.5284
4.1313	44.6666
4.1117	44.7132
4.0922	44.7574
4.0729	44.8755
4.0538	44.896
4.0349	45.0231
4.0161	45.0336
3.9976	45.0333
3.9792	44.963
3.9609	44.9016
3.9428	44.8313
3.9249	44.7595
3.9072	44.6987
3.8896	44.4891
3.8722	44.2443
3.8549	43.9898
3.8378	43.759
3.8208	43.3621
3.804	43.0659
3.7873	42.6104
3.7708	42.1767
3.7544	41.6593
3.7382	41.1314
3.7221	40.518
3.7061	39.9323
3.6903	39.3442
3.6746	38.4916
3.659	37.9626
3.6436	37.2149
3.6283	36.5242
3.6131	35.8294
3.5981	35.0037
3.5832	34.3941
3.5684	33.669
3.5537	32.825
3.5391	32.0406
3.5247	30.9223
3.5104	29.8041
3.4962	29.0433
3.4821	28.3995
3.4681	27.6363
3.4543	26.8946
3.4405	25.9351
3.4269	24.7544
3.4133	23.8751
3.3999	23.5433
3.3866	22.7952
3.3733	22.2352
3.3602	21.684
3.3472	21.1019
3.3343	20.4113
3.3215	19.8247
3.3088	19.0969
3.2961	18.6009
3.2836	17.853
3.2712	17.2172
3.2588	16.5364
3.2466	15.9036
3.2345	15.2416
3.2224	14.805
3.2104	14.166
3.1985	13.5372
3.1867	13.1261
3.175	12.507
3.1634	11.9179
3.1519	11.5313
3.1404	10.9955
3.129	10.6615
3.1178	10.1539
3.1065	9.7575
3.0954	9.6121
3.0844	9.2437
3.0734	9.246
3.0625	8.9452
3.0517	8.8189
3.041	8.4611
3.0303	8.414
3.0197	8.2886
3.0092	8.1238
2.9987	7.8583
2.9884	7.686
2.9781	7.3864
2.9678	7.3468
2.9577	7.1726
2.9476	7.1197
2.9376	7.0978
2.9276	6.9146
2.9177	7.0357
2.9079	7.0299
2.8982	7.164
2.8885	7.2604
2.8789	7.1764
2.8693	6.8799
2.8598	6.1291
2.8504	5.1335
2.841	3.5753
2.8317	3.3818
2.8224	2.9116
2.8133	2.8624
2.8041	2.7907
2.7951	3.1073
2.786	3.8619
2.7771	3.7924
2.7682	4.2796
2.7594	5.1659
2.7506	6.2787
2.7418	7.8737
2.7332	10.6063
2.7246	14.0358
2.716	18.1259
2.7075	21.6522
2.699	25.0729
2.6906	30.9739
2.6823	38.6399
2.674	43.058
2.6657	45.6379
2.6575	48.2679
2.6494	49.6899
2.6413	50.8515
2.6332	51.6067
2.6252	52.3718
2.6173	52.4579
2.6094	53.2694
2.6015	53.877
2.5937	53.4865
2.5859	54.7998
2.5782	55.299
2.5706	55.3746
2.5629	55.3465
2.5554	55.9385
2.5478	55.9145
2.5403	55.9953
2.5329	55.9997
2.5255	56.0733
2.5181	56.1096
2.5108	56.1109
2.5035	56.0614
2.4963	56.4156
2.4891	56.3782
2.482	56.587
2.4749	56.7074
2.4678	56.966
2.4608	57.4766
2.4538	57.617
2.4468	58.0321
2.4399	58.4233
2.4331	58.6416
2.4262	59.0675
2.4194	59.2009
2.4127	59.4668
2.4059	59.1933
2.3993	59.0193
2.3926	58.7344
2.386	58.1241
2.3795	56.9986
2.3729	56.4957
2.3664	56.1757
2.36	56.2583
2.3535	56.7275
2.3471	57.2631
2.3408	57.6279
2.3345	57.8224
2.3282	57.3221
2.3219	55.9892
2.3157	54.7528
2.3095	54.5885
2.3034	55.2291
2.2972	56.3766
2.2911	57.7014
2.2851	59.1632
2.279	59.7959
2.2731	59.821
2.2671	59.6703
2.2612	59.6335
2.2553	59.4275
2.2494	59.6469
2.2435	59.9002
2.2377	60.235
2.232	60.7632
2.2262	61.1606
2.2205	61.3276
2.2148	61.603
2.2091	61.6414
2.2035	61.4997
2.1979	61.633
2.1923	61.7826
2.1868	61.8483
2.1812	61.8983
2.1758	61.987
2.1703	61.8573
2.1649	61.8893
2.1595	61.6997
2.1541	61.9885
2.1487	61.8523
2.1434	61.586
2.1381	61.7066
2.1328	61.6345
2.1275	61.49
2.1223	61.3815
2.1171	61.0866
2.112	61.0941
2.1068	60.9939
2.1017	61.0227
2.0966	60.2829
2.0915	60.4331
2.0865	60.1551
2.0814	60.5327
2.0764	60.2443
2.0715	59.3742
2.0665	59.9246
2.0616	59.4376
2.0567	59.4343
2.0518	58.9412
2.0469	58.8372
2.0421	58.5646
2.0373	58.5465
2.0325	58.0829
2.0277	58.2783
2.0229	57.5327
2.0182	57.6316
2.0135	57.3325
2.0088	56.9541
2.0042	56.7451
