Name: Pectolite NaCa2Si308(OH)
Type: Mineral
Class: Silicate
Subclass: Inosilicate
Particle Size: Fine
Sample No.: pectol_2
Owner: JHU
Wavelength Range: TIR
Origin: Thedford, Ontario, Canada via the Smithsonian (sample no.NMNH 94865)
Description: Sample consisted of a small (1 mm x 1 mm x 1 cm ) and one larger (5 mm x 6 mm x 1 cm) fragment. Sample appears to be composed of pure pectolite needles. However, microsopic examination revealed that it contained 2% of an isotropic mineral. Fibrous pectolite precludes effective sieving; the fine fraction was separated from the coarse fraction by elutriation in acetone. Particle size was Less than 2 Micrometers. (Chain Silicates); (Pyrexenoid Group) Original ASTER Spectral Library name was jhu.nicolet.mineral.silicate.inosilicate.powder.pectol2.spectrum.txt
Measurement: Transmission
X Units: Wavelength (micrometers)
Y Units: Transmittance (percent)
wavelength	value
25.0442	51.1639
24.3388	32.4257
23.6719	30.3593
23.0407	21.3798
22.4422	9.2929
21.8741	12.0908
21.334	21.7128
20.8199	27.1718
20.33	32.5429
19.8627	45.1078
19.4163	55.9217
18.9896	43.9628
18.5812	46.1722
18.19	58.7206
17.815	64.8319
17.4551	66.7645
17.1094	66.6473
16.7772	66.4515
16.4576	64.5545
16.15	61.3617
15.8537	53.2377
15.568	34.3256
15.2925	44.9926
15.0265	39.9931
14.7697	42.8915
14.5214	59.2953
14.2814	70.3948
14.0492	71.3216
13.8244	67.2257
13.6067	64.0916
13.3957	61.2218
13.1912	57.9806
12.9929	55.0216
12.8004	52.7381
12.6135	51.0829
12.432	49.6854
12.2557	48.3966
12.0843	47.424
11.9176	46.2723
11.7555	44.6837
11.5977	41.2392
11.444	33.257
11.2944	19.9824
11.1487	8.7212
11.0067	8.5688
10.8682	9.2033
10.7332	12.0481
10.6015	28.0307
10.473	34.3546
10.3476	27.3068
10.2251	24.0432
10.1056	15.5166
9.9887	12.4919
9.8746	15.2827
9.763	12.1831
9.6539	9.4304
9.5472	8.8242
9.4429	9.2768
9.3408	12.7187
9.2409	19.8713
9.1431	29.1586
9.0474	37.956
8.9536	45.3256
8.8618	50.5665
8.7718	54.5782
8.6837	58.2108
8.5973	61.5929
8.5126	64.305
8.4295	66.324
8.3481	67.8763
8.2682	69.1746
8.1898	70.2015
8.1129	71.0052
8.0374	71.6483
7.9634	72.285
7.8906	72.6263
7.8192	72.6639
7.7491	72.7068
7.6802	72.669
7.6126	72.7977
7.5461	72.722
7.4807	72.452
7.4165	71.6505
7.3534	70.1856
7.2914	67.0189
7.2303	61.6693
7.1703	57.5487
7.1113	60.1788
7.0533	65.0855
6.9962	68.6024
6.94	70.6507
6.8847	71.8519
6.8302	72.7249
6.7767	73.3211
6.7239	73.9241
6.672	74.5643
6.6209	75.1141
6.5705	75.6761
6.5209	75.9651
6.4721	76.0125
6.424	75.9754
6.3766	76.2435
6.3299	76.3162
6.2838	76.3831
6.2385	76.3621
6.1937	76.1941
6.1496	76.2039
6.1062	76.545
6.0633	76.9539
6.0211	77.6023
5.9794	78.1473
5.9383	78.5809
5.8978	78.8147
5.8578	79.0179
5.8184	79.2493
5.7794	79.545
5.741	79.9095
5.7031	80.1648
5.6657	80.4388
5.6288	80.7654
5.5924	81.0696
5.5564	81.303
5.5209	81.4964
5.4859	81.7771
5.4513	82.1267
5.4171	82.4119
5.3833	82.6341
5.35	82.888
5.3171	83.034
5.2846	83.2093
5.2524	83.3753
5.2207	83.5379
5.1893	83.8147
5.1584	84.1355
5.1277	84.4268
5.0975	84.6492
5.0676	84.8865
5.038	85.1458
5.0088	85.2471
4.98	85.4634
4.9514	85.7019
4.9232	85.9497
4.8953	86.2022
4.8678	86.4729
4.8405	86.6807
4.8135	86.9221
4.7868	87.1697
4.7605	87.2547
4.7344	87.3711
4.7086	87.4597
4.6831	87.5447
4.6578	87.6426
4.6328	87.68
4.6081	87.8035
4.5837	87.7334
4.5595	87.7078
4.5356	87.6726
4.5119	87.6492
4.4884	87.6785
4.4652	87.5654
4.4423	87.5249
4.4196	87.5271
4.3971	87.4324
4.3748	87.4824
4.3528	87.4451
4.331	87.5344
4.3094	87.5393
4.288	87.625
4.2668	87.7403
4.2458	87.8836
4.2251	87.9749
4.2045	88.0994
4.1841	88.2976
4.164	88.4844
4.144	88.6038
4.1242	88.8465
4.1046	89.086
4.0852	89.2761
4.066	89.4168
4.047	89.6944
4.0281	89.8943
4.0094	90.0733
3.9909	90.2493
3.9725	90.4326
3.9544	90.6602
3.9363	90.8665
3.9185	91.0369
3.9008	91.2639
3.8833	91.4041
3.8659	91.5762
3.8487	91.7424
3.8316	91.8972
3.8147	92.1633
3.7979	92.2197
3.7813	92.3611
3.7648	92.4075
3.7485	92.4512
3.7323	92.5974
3.7162	92.4668
3.7003	92.4768
3.6845	92.3992
3.6689	92.4104
3.6534	92.3933
3.638	92.3584
3.6227	92.1253
3.6076	92.0505
3.5926	91.9629
3.5777	91.7639
3.563	91.6846
3.5484	91.5486
3.5338	91.5789
3.5195	91.6101
3.5052	91.54
3.491	91.7449
3.477	91.9207
3.463	92.1387
3.4492	92.3027
3.4355	92.4014
3.4219	92.3838
3.4084	92.4988
3.395	92.8262
3.3817	92.8904
3.3685	93.0896
3.3554	93.199
3.3425	93.3096
3.3296	93.5938
3.3168	93.5391
3.3041	93.7136
3.2915	93.8352
3.279	93.8586
3.2666	93.8801
3.2543	94.0691
3.2421	94.0901
3.23	94.1448
3.218	94.2644
3.206	94.28
3.1942	94.3904
3.1824	94.4382
3.1707	94.3943
3.1591	94.2981
3.1476	94.407
3.1362	94.3362
3.1249	94.3171
3.1136	94.3245
3.1024	94.2107
3.0913	94.1541
3.0803	94.1389
3.0694	94.0779
3.0585	93.9983
3.0477	94.0398
3.037	93.9519
3.0264	93.7966
3.0158	93.4695
3.0053	93.2112
2.9949	93.0022
2.9845	92.7127
2.9743	92.0994
2.9641	91.6917
2.9539	91.1287
2.9439	90.8557
2.9339	90.74
2.9239	90.531
2.9141	90.4129
2.9043	90.5037
2.8946	90.8884
2.8849	91.1912
2.8753	91.4553
2.8658	91.7107
2.8563	92.1585
2.8469	92.4104
2.8375	92.7932
2.8282	93.0393
2.819	93.5217
2.8098	93.9412
2.8007	94.2542
2.7917	94.6956
2.7827	95.1506
2.7738	95.5491
2.7649	95.9553
2.7561	96.5388
2.7473	96.7498
2.7386	97.1462
2.7299	97.1306
2.7213	97.3083
2.7128	97.1306
2.7043	97.2712
2.6959	97.385
2.6875	97.5491
2.6791	97.4861
2.6709	97.678
2.6626	97.4656
2.6545	97.4089
2.6463	97.3982
2.6382	97.4255
2.6302	97.5632
2.6222	97.4587
2.6143	97.571
2.6064	97.4665
2.5986	97.4226
2.5908	97.4314
2.583	97.5662
2.5753	97.3914
2.5677	97.3083
2.5601	97.6365
2.5525	97.2849
2.545	97.4714
2.5375	97.3835
2.5301	97.4451
2.5227	97.1931
2.5154	97.3357
2.5081	97.4783
2.5008	97.2742
2.4936	97.1726
2.4864	97.3103
2.4793	97.1804
2.4722	97.4255
2.4651	97.1999
2.4581	97.1521
2.4511	97.1755
2.4442	96.9138
2.4373	97.1765
2.4305	97.0349
2.4236	97.1804
2.4169	96.8865
2.4101	97.0974
2.4034	97.1296
2.3967	96.8328
2.3901	96.7849
2.3835	96.654
2.377	96.6638
2.3704	96.99
2.364	96.9333
2.3575	96.8367
2.3511	97.0828
2.3447	96.6912
2.3384	96.7117
2.3321	96.8601
2.3258	96.7732
2.3195	96.6804
2.3133	96.7693
2.3071	96.7312
2.301	96.7664
2.2949	96.699
2.2888	96.4998
2.2828	96.4734
2.2767	96.5515
2.2708	96.6208
2.2648	96.8669
2.2589	96.3923
2.253	96.4646
2.2471	96.4451
2.2413	96.5388
2.2355	96.4314
2.2297	96.5115
2.224	96.3806
2.2183	96.3435
2.2126	96.4861
2.207	96.1833
2.2013	96.3552
2.1957	96.281
2.1902	96.4158
2.1846	96.3279
2.1791	96.0974
2.1736	96.2166
2.1682	96.2498
2.1628	96.031
2.1574	96.2869
2.152	95.8259
2.1466	96.0857
2.1413	95.9724
2.136	96.2341
2.1308	95.8083
2.1255	96.0857
2.1203	95.9919
2.1151	95.8865
2.11	95.9919
2.1048	95.7537
2.0997	96.0818
2.0946	95.9763
2.0895	95.863
2.0845	96.406
2.0795	95.949
