Name: Magnesiochromite MgCr_2O_4
Type: Mineral
Class: Oxide
Subclass: None
Particle Size: Fine
Sample No.: O-8A
Owner: JPL
Wavelength Range: TIR
Origin: Canada, Quebec, Coleraine Township
Description: Particle size was 0-45um.Collected by Ward's Original ASTER Spectral Library name was jpl.nicolet.mineral.oxide.none.fine.o08a.spectrum.txt
Measurement: Hemispherical reflectance
X Units: Wavelength (micrometers)
Y Units: Reflectance (percent)
wavelength	value
15.3853	12.618
15.1161	12.2167
14.8563	11.6493
14.6052	11.0157
14.3624	9.9079
14.1276	9.5072
13.9004	8.4607
13.6803	7.6438
13.4671	6.6931
13.2604	4.093
13.06	2.133
12.8656	0.6885
12.6769	0.5692
12.4936	0.759
12.3155	0.9917
12.1425	1.4648
11.9742	1.6092
11.8106	2.092
11.6513	2.6313
11.4963	2.8105
11.3454	3.4551
11.1983	3.7185
11.0551	4.2301
10.9154	4.4283
10.7793	4.5037
10.6465	4.4093
10.5169	4.7093
10.3904	5.1882
10.267	5.755
10.1464	6.4475
10.0287	6.688
9.9136	7.126
9.8012	8.2955
9.6913	9.1956
9.5838	9.3902
9.4787	9.5227
9.3758	10.2905
9.2752	11.3319
9.1767	12.7406
9.0803	16.0753
8.9858	19.6665
8.8934	21.5557
8.8028	22.599
8.714	23.5311
8.627	24.2368
8.5417	25.2739
8.4581	26.7666
8.3761	28.968
8.2957	31.0035
8.2169	32.5943
8.1395	33.4127
8.0635	33.4303
7.989	32.9283
7.9158	32.6716
7.8439	33.0605
7.7734	33.5978
7.7041	34.1224
7.636	34.8456
7.5691	35.7535
7.5034	36.3171
7.4388	36.5071
7.3753	36.7667
7.3129	37.3872
7.2515	38.2781
7.1912	39.2857
7.1318	40.1897
7.0734	40.9672
7.016	41.9974
6.9595	42.7862
6.9039	43.5232
6.8492	44.365
6.7953	44.8114
6.7423	45.0369
6.6901	45.2402
6.6387	45.6035
6.5881	45.5796
6.5382	45.257
6.4892	45.165
6.4408	44.4395
6.3931	43.6173
6.3462	42.9263
6.2999	42.5058
6.2543	43.0666
6.2094	43.5684
6.1651	44.0597
6.1214	44.6229
6.0784	45.1108
6.0359	45.9901
5.994	47.1284
5.9527	48.0233
5.912	48.8242
5.8718	49.5437
5.8322	50.3095
5.7931	50.9309
5.7545	51.3487
5.7165	51.7082
5.6789	52.113
5.6418	52.3946
5.6052	52.4932
5.5691	52.609
5.5334	52.7354
5.4982	52.8879
5.4635	53.0825
5.4291	53.283
5.3952	53.4853
5.3618	53.7336
5.3287	53.9588
5.2961	54.0001
5.2638	54.1576
5.2319	54.272
5.2004	54.2553
5.1693	54.2904
5.1386	54.3308
5.1082	54.2054
5.0782	54.2316
5.0485	54.1678
5.0192	54.1193
4.9902	54.1068
4.9616	54.2348
4.9332	54.1416
4.9052	54.297
4.8776	54.2713
4.8502	54.1566
4.8231	54.0865
4.7963	53.9893
4.7699	53.8174
4.7437	53.6334
4.7178	53.4986
4.6922	53.2742
4.6668	53.078
4.6418	52.7587
4.617	52.5057
4.5924	52.1772
4.5681	51.7168
4.5441	51.2897
4.5203	50.8344
4.4968	50.3596
4.4735	49.774
4.4505	49.1663
4.4277	48.5733
4.4051	47.9173
4.3828	47.2773
4.3607	46.4863
4.3388	45.8
4.3171	44.7356
4.2956	43.2592
4.2744	42.401
4.2534	42.1363
4.2325	40.4155
4.2119	40.5605
4.1915	40.4392
4.1712	39.5213
4.1512	38.7555
4.1313	37.7983
4.1117	37.0463
4.0922	36.2367
4.0729	35.4066
4.0538	34.3777
4.0349	33.6886
4.0161	32.7535
3.9976	32.0515
3.9792	31.1594
3.9609	30.1683
3.9428	29.5236
3.9249	28.7747
3.9072	27.9592
3.8896	27.1611
3.8722	26.39
3.8549	25.5698
3.8378	24.855
3.8208	24.2108
3.804	23.4773
3.7873	22.8106
3.7708	22.1135
3.7544	21.4608
3.7382	20.7118
3.7221	20.2299
3.7061	19.6789
3.6903	19.0444
3.6746	18.4429
3.659	17.8834
3.6436	17.3097
3.6283	16.8507
3.6131	16.3731
3.5981	15.8664
3.5832	15.3677
3.5684	14.9287
3.5537	14.5676
3.5391	14.117
3.5247	13.5679
3.5104	13.2283
3.4962	13.0255
3.4821	12.6225
3.4681	12.2491
3.4543	12.0146
3.4405	11.6052
3.4269	11.5309
3.4133	11.1889
3.3999	10.7762
3.3866	10.5246
3.3733	10.2628
3.3602	10.0985
3.3472	9.8918
3.3343	9.761
3.3215	9.3886
3.3088	9.1652
3.2961	9.0661
3.2836	8.884
3.2712	8.6625
3.2588	8.6396
3.2466	8.5613
3.2345	8.2904
3.2224	7.9481
3.2104	8.0572
3.1985	7.8864
3.1867	7.8828
3.175	7.7562
3.1634	7.4711
3.1519	7.6121
3.1404	7.4539
3.129	7.3608
3.1178	7.4163
3.1065	7.1098
3.0954	7.2203
3.0844	6.8818
3.0734	6.903
3.0625	6.89
3.0517	6.7888
3.041	6.6438
3.0303	6.7273
3.0197	6.6805
3.0092	6.4973
2.9987	6.5419
2.9884	6.4598
2.9781	6.356
2.9678	6.1824
2.9577	6.3534
2.9476	6.2995
2.9376	6.0236
2.9276	6.1532
2.9177	6.0213
2.9079	5.9521
2.8982	5.9293
2.8885	6.1131
2.8789	6.0748
2.8693	6.0864
2.8598	6.0155
2.8504	5.8783
2.841	5.9769
2.8317	6.1037
2.8224	5.7812
2.8133	5.9813
2.8041	5.5076
2.7951	6.0134
2.786	5.7254
2.7771	5.9291
2.7682	5.6763
2.7594	5.953
2.7506	5.8713
2.7418	5.8456
2.7332	5.9405
2.7246	6.0209
2.716	6.0519
2.7075	6.3824
2.699	6.6837
2.6906	6.881
2.6823	7.0665
2.674	6.945
2.6657	6.8707
2.6575	6.8894
2.6494	7.048
2.6413	7.0218
2.6332	7.023
2.6252	6.8342
2.6173	6.9026
2.6094	6.9529
2.6015	6.6303
2.5937	6.662
2.5859	7.0435
2.5782	6.5751
2.5706	6.6613
2.5629	6.7276
2.5554	6.7878
2.5478	6.945
2.5403	6.7996
2.5329	6.6972
2.5255	6.6598
2.5181	6.7512
2.5108	6.6555
2.5035	6.572
2.4963	6.714
2.4891	6.6637
2.482	6.4498
2.4749	6.6125
2.4678	6.4401
2.4608	6.5932
2.4538	6.5491
2.4468	6.3842
2.4399	6.2951
2.4331	6.3256
2.4262	6.2521
2.4194	6.2515
2.4127	6.2813
2.4059	6.3911
2.3993	6.041
2.3926	6.201
2.386	5.9301
2.3795	6.244
2.3729	5.937
2.3664	6.0881
2.36	5.9054
2.3535	5.9615
2.3471	6.0234
2.3408	5.831
2.3345	5.8795
2.3282	5.8452
2.3219	6.0153
2.3157	5.8669
2.3095	5.7299
2.3034	5.5273
2.2972	5.9225
2.2911	5.8815
2.2851	5.8166
2.279	5.9337
2.2731	5.7632
2.2671	5.9415
2.2612	6.0314
2.2553	5.8118
2.2494	5.8384
2.2435	5.8664
2.2377	5.8469
2.232	6.0422
2.2262	5.917
2.2205	5.7948
2.2148	5.9176
2.2091	5.7923
2.2035	5.9083
2.1979	5.9827
2.1923	5.6183
2.1868	5.8849
2.1812	5.7746
2.1758	5.7701
2.1703	5.9812
2.1649	5.8129
2.1595	6.0457
2.1541	5.6026
2.1487	5.6488
2.1434	5.7878
2.1381	5.8755
2.1328	5.9717
2.1275	5.8764
2.1223	6.2281
2.1171	5.9958
2.112	6.075
2.1068	5.7248
2.1017	5.8367
2.0966	5.5808
2.0915	6.0068
2.0865	6.3535
2.0814	6.1372
2.0764	5.8274
2.0715	6.4035
2.0665	6.0782
2.0616	6.1266
2.0567	6.0213
2.0518	6.2936
2.0469	6.1253
2.0421	5.578
2.0373	6.245
2.0325	6.2225
2.0277	6.1725
2.0229	6.3082
2.0182	6.3395
2.0135	6.3566
2.0088	6.2259
2.0042	6.3716
