Name: Tourmaline (Schorl) NaFe3+2Al6(BO3)3Si6O18(OH)4
Type: Mineral
Class: Silicate
Subclass: Cyclosilicate
Particle Size: Solid
Sample No.: tourmal_2
Owner: JHU
Wavelength Range: TIR
Origin: Minas Gerais, Brazil via the Hunt and Salisbury Collection#120B (purchased from Ward's Natural Science Establishment)
Description: The sample was a translucent, blue, single crystal.  It appeared quite pure under the petrographic microscope. Sample measured had random polished surface.(Ring Silicates) Original ASTER Spectral Library name was jhu.nicolet.mineral.silicate.cyclosilicate.solid.tourma2.spectrum.txt
Measurement: Bidirectional reflectance
X Units: Wavelength (micrometers)
Y Units: Reflectance (percent)
wavelength	value
25.0442	28.9355
24.3388	31.2704
23.6719	34.8222
23.0407	33.0507
22.4422	32.7616
21.8741	30.391
21.334	31.3036
20.8199	34.8407
20.33	39.8559
19.8627	45.4511
19.4163	49.8895
18.9896	50.6368
18.5812	46.4989
18.19	41.4794
17.815	39.7755
17.4551	38.8537
17.1094	42.2406
16.7772	46.87
16.4576	47.1884
16.15	53.9086
15.8537	46.8439
15.568	32.3124
15.2925	29.2148
15.0265	29.453
14.7697	30.1188
14.5214	23.0649
14.2814	21.0722
14.0492	22.4694
13.8244	22.0939
13.6067	20.7812
13.3957	20.1296
13.1912	20.8171
12.9929	21.2504
12.8004	23.1066
12.6135	25.538
12.432	21.3317
12.2557	21.7026
12.0843	22.3315
11.9176	23.0703
11.7555	23.6594
11.5977	23.7402
11.444	24.5161
11.2944	25.5068
11.1487	26.2944
11.0067	27.0969
10.8682	28.1659
10.7332	29.2968
10.6015	30.7592
10.473	32.7709
10.3476	35.6994
10.2251	39.2077
10.1056	42.1122
9.9887	43.1635
9.8746	43.4784
9.763	45.3446
9.6539	46.2826
9.5472	44.2638
9.4429	43.0233
9.3408	44.069
9.2409	37.6176
9.1431	33.8564
9.0474	38.162
8.9536	39.5441
8.8618	39.7147
8.7718	29.457
8.6837	12.8925
8.5973	12.4148
8.5126	15.3242
8.4295	17.6325
8.3481	19.5102
8.2682	21.2563
8.1898	23.0236
8.1129	24.9704
8.0374	26.8022
7.9634	28.9013
7.8906	30.9963
7.8192	31.9819
7.7491	31.799
7.6802	31.4645
7.6126	31.8215
7.5461	33.9418
7.4807	36.028
7.4165	37.6374
7.3534	38.7643
7.2914	37.7685
7.2303	34.2704
7.1703	29.1271
7.1113	22.6147
7.0533	16.9545
6.9962	11.811
6.94	9.7666
6.8847	11.1745
6.8302	12.4695
6.7767	13.4255
6.7239	14.1821
6.672	14.7807
6.6209	15.2971
6.5705	15.6731
6.5209	16.1005
6.4721	16.4919
6.424	16.7536
6.3766	17.0625
6.3299	17.2819
6.2838	17.5236
6.2385	17.7561
6.1937	17.914
6.1496	18.0825
6.1062	18.1843
6.0633	18.3571
6.0211	18.5124
5.9794	18.5754
5.9383	18.5778
5.8978	18.676
5.8578	18.8393
5.8184	18.8605
5.7794	19.0156
5.741	19.0712
5.7031	19.1491
5.6657	19.2478
5.6288	19.3391
5.5924	19.4204
5.5564	19.4851
5.5209	19.5632
5.4859	19.6274
5.4513	19.7263
5.4171	19.7927
5.3833	19.8745
5.35	19.8916
5.3171	19.9821
5.2846	20.0583
5.2524	20.1274
5.2207	20.174
5.1893	20.2104
5.1584	20.2416
5.1277	20.291
5.0975	20.2973
5.0676	20.3083
5.038	20.3181
5.0088	20.3166
4.98	20.32
4.9514	20.3476
4.9232	20.3515
4.8953	20.3566
4.8678	20.3613
4.8405	20.3818
4.8135	20.4116
4.7868	20.4294
4.7605	20.4562
4.7344	20.4775
4.7086	20.5273
4.6831	20.5622
4.6578	20.6025
4.6328	20.6386
4.6081	20.6806
4.5837	20.7172
4.5595	20.7658
4.5356	20.7944
4.5119	20.8034
4.4884	20.8359
4.4652	20.8344
4.4423	20.8564
4.4196	20.8701
4.3971	20.8735
4.3748	20.8952
4.3528	20.904
4.331	20.8737
4.3094	20.8583
4.288	20.8642
4.2668	20.872
4.2458	20.8579
4.2251	20.8505
4.2045	20.8715
4.1841	20.8439
4.164	20.8471
4.144	20.8505
4.1242	20.8637
4.1046	20.8732
4.0852	20.8684
4.066	20.883
4.047	20.9081
4.0281	20.9128
4.0094	20.9243
3.9909	20.9379
3.9725	20.9638
3.9544	20.9677
3.9363	20.977
3.9185	20.9995
3.9008	21.0131
3.8833	21.0048
3.8659	21.0009
3.8487	21.0141
3.8316	21.0097
3.8147	21.0063
3.7979	20.9853
3.7813	20.9814
3.7648	20.9814
3.7485	20.9677
3.7323	20.9633
3.7162	20.924
3.7003	20.9123
3.6845	20.9099
3.6689	20.8998
3.6534	20.8769
3.638	20.8569
3.6227	20.8686
3.6076	20.8603
3.5926	20.8583
3.5777	20.8762
3.563	20.8576
3.5484	20.854
3.5338	20.8955
3.5195	20.8813
3.5052	20.8872
3.491	20.9189
3.477	20.9121
3.463	20.935
3.4492	20.8979
3.4355	20.8969
3.4219	20.9443
3.4084	20.9501
3.395	20.9174
3.3817	20.8835
3.3685	20.9028
3.3554	20.8779
3.3425	20.8549
3.3296	20.8659
3.3168	20.8305
3.3041	20.8237
3.2915	20.811
3.279	20.7717
3.2666	20.7792
3.2543	20.7714
3.2421	20.7368
3.23	20.7197
3.218	20.7189
3.206	20.7131
3.1942	20.7065
3.1824	20.6769
3.1707	20.6821
3.1591	20.6721
3.1476	20.6684
3.1362	20.663
3.1249	20.6694
3.1136	20.705
3.1024	20.6738
3.0913	20.6738
3.0803	20.6721
3.0694	20.6728
3.0585	20.6652
3.0477	20.6672
3.037	20.673
3.0264	20.6799
3.0158	20.6523
3.0053	20.6398
2.9949	20.6606
2.9845	20.6601
2.9743	20.6174
2.9641	20.6425
2.9539	20.5969
2.9439	20.5839
2.9339	20.5888
2.9239	20.5854
2.9141	20.5947
2.9043	20.6105
2.8946	20.6406
2.8849	20.633
2.8753	20.5793
2.8658	20.5273
2.8563	20.5043
2.8469	20.4882
2.8375	20.5053
2.8282	20.5478
2.819	20.4855
2.8098	20.3312
2.8007	20.1945
2.7917	20.1799
2.7827	20.2646
2.7738	20.3056
2.7649	20.3388
2.7561	20.3417
2.7473	20.3791
2.7386	20.298
2.7299	20.341
2.7213	20.329
2.7128	20.3701
2.7043	20.3439
2.6959	20.3261
2.6875	20.3603
2.6791	20.3723
2.6709	20.3134
2.6626	20.3627
2.6545	20.3881
2.6463	20.3603
2.6382	20.374
2.6302	20.3334
2.6222	20.3867
2.6143	20.3808
2.6064	20.352
2.5986	20.4467
2.5908	20.4165
2.583	20.4326
2.5753	20.413
2.5677	20.3906
2.5601	20.4599
2.5525	20.4321
2.545	20.4589
2.5375	20.517
2.5301	20.4687
2.5227	20.5322
2.5154	20.5175
2.5081	20.5981
2.5008	20.5922
2.4936	20.6113
2.4864	20.6
2.4793	20.6376
2.4722	20.6743
2.4651	20.6801
2.4581	20.7246
2.4511	20.7246
2.4442	20.7812
2.4373	20.7954
2.4305	20.7958
2.4236	20.7597
2.4169	20.7988
2.4101	20.8378
2.4034	20.8681
2.3967	20.8461
2.3901	20.8891
2.3835	20.8935
2.377	20.8525
2.3704	20.852
2.364	20.915
2.3575	20.9531
2.3511	20.9433
2.3447	20.9809
2.3384	20.9912
2.3321	21.0117
2.3258	21.0468
2.3195	21.0805
2.3133	21.0864
2.3071	21.1684
2.301	21.1835
2.2949	21.1938
2.2888	21.1992
2.2828	21.1938
2.2767	21.2836
2.2708	21.3027
2.2648	21.2636
2.2589	21.3305
2.253	21.3535
2.2471	21.3945
2.2413	21.4443
2.2355	21.4716
2.2297	21.3915
2.224	21.4531
2.2183	21.456
2.2126	21.4453
2.207	21.4912
2.2013	21.4824
2.1957	21.4726
2.1902	21.5732
2.1846	21.581
2.1791	21.6093
2.1736	21.5566
2.1682	21.6074
2.1628	21.6679
2.1574	21.6132
2.152	21.5751
2.1466	21.5908
2.1413	21.6738
2.136	21.7783
2.1308	21.6367
2.1255	21.6777
2.1203	21.7167
2.1151	21.6962
2.11	21.6992
2.1048	21.7255
2.0997	21.7255
2.0946	21.8124
2.0895	21.8456
2.0845	21.8476
2.0795	21.8828
