Name: Triphylite Li(Mn,Fe)PO_4
Type: Mineral
Class: Phosphate
Subclass: None
Particle Size: Coarse
Sample No.: P-4A
Owner: JPL
Wavelength Range: TIR
Origin: USA, New Hampshire, North Graton, Palermo Mine
Description: Particle size was 125-500um.Collected by Burminco Original ASTER Spectral Library name was jpl.nicolet.mineral.phosphate.none.coarse.p04a.spectrum.txt
Measurement: Hemispherical reflectance
X Units: Wavelength (micrometers)
Y Units: Reflectance (percent)
wavelength	value
15.3853	13.9521
15.1161	2.0897
14.8563	1.2666
14.6052	1.4759
14.3624	1.7136
14.1276	1.8495
13.9004	2.3588
13.6803	2.9679
13.4671	2.8845
13.2604	3.2719
13.06	3.4531
12.8656	3.7595
12.6769	3.7415
12.4936	4.2798
12.3155	4.4754
12.1425	4.7256
11.9742	4.8287
11.8106	5.2532
11.6513	5.523
11.4963	5.7515
11.3454	6.4194
11.1983	6.8504
11.0551	7.7966
10.9154	8.929
10.7793	10.934
10.6465	13.7909
10.5169	14.7187
10.3904	16.4919
10.267	17.6357
10.1464	18.6657
10.0287	21.2204
9.9136	23.2315
9.8012	25.4611
9.6913	30.0096
9.5838	34.1265
9.4787	35.6331
9.3758	31.6644
9.2752	26.2104
9.1767	13.0517
9.0803	23.5601
8.9858	22.5296
8.8934	14.9462
8.8028	16.3121
8.714	13.048
8.627	12.925
8.5417	7.5474
8.4581	1.7364
8.3761	0.5698
8.2957	0.2903
8.2169	0.3362
8.1395	0.4196
8.0635	0.4738
7.989	0.6976
7.9158	0.6726
7.8439	0.7762
7.7734	0.9433
7.7041	1.0682
7.636	1.2357
7.5691	1.3906
7.5034	1.5256
7.4388	1.5507
7.3753	1.6819
7.3129	1.6762
7.2515	1.6936
7.1912	1.7578
7.1318	1.8456
7.0734	1.8817
7.016	1.9447
6.9595	1.9707
6.9039	1.9432
6.8492	2.0485
6.7953	2.0525
6.7423	2.0874
6.6901	2.0241
6.6387	2.2554
6.5881	2.1702
6.5382	2.1955
6.4892	2.3616
6.4408	2.2829
6.3931	2.412
6.3462	2.3537
6.2999	2.3306
6.2543	2.3716
6.2094	2.2737
6.1651	2.338
6.1214	2.3558
6.0784	2.3875
6.0359	2.3947
5.994	2.4352
5.9527	2.3956
5.912	2.4497
5.8718	2.3592
5.8322	2.4279
5.7931	2.4527
5.7545	2.4851
5.7165	2.5851
5.6789	2.4609
5.6418	2.5806
5.6052	2.4972
5.5691	2.5603
5.5334	2.5455
5.4982	2.555
5.4635	2.6446
5.4291	2.5644
5.3952	2.6211
5.3618	2.5604
5.3287	2.5888
5.2961	2.5133
5.2638	2.4802
5.2319	2.5004
5.2004	2.3746
5.1693	2.4419
5.1386	2.4414
5.1082	2.5635
5.0782	2.4735
5.0485	2.5791
5.0192	2.572
4.9902	2.6169
4.9616	2.5754
4.9332	2.6082
4.9052	2.5898
4.8776	2.546
4.8502	2.6979
4.8231	2.6836
4.7963	2.7218
4.7699	2.8043
4.7437	2.9063
4.7178	2.9535
4.6922	2.9529
4.6668	3.0127
4.6418	3.0264
4.617	3.2191
4.5924	3.3313
4.5681	3.4022
4.5441	3.3439
4.5203	3.4531
4.4968	3.4695
4.4735	3.561
4.4505	3.697
4.4277	3.876
4.4051	4.1899
4.3828	4.4199
4.3607	4.5559
4.3388	4.5699
4.3171	4.6678
4.2956	4.4914
4.2744	4.5819
4.2534	4.8277
4.2325	5.1864
4.2119	5.5383
4.1915	5.8212
4.1712	5.9312
4.1512	6.1587
4.1313	6.2616
4.1117	6.4742
4.0922	6.7142
4.0729	6.8364
4.0538	6.9807
4.0349	7.2047
4.0161	7.4295
3.9976	7.7492
3.9792	7.8197
3.9609	8.2646
3.9428	8.4039
3.9249	8.6152
3.9072	8.771
3.8896	9.0517
3.8722	9.3306
3.8549	9.5814
3.8378	9.9178
3.8208	10.1854
3.804	10.5332
3.7873	10.8927
3.7708	11.0591
3.7544	11.2874
3.7382	11.7452
3.7221	12.1339
3.7061	12.375
3.6903	12.7688
3.6746	13.0929
3.659	13.3371
3.6436	13.6321
3.6283	14.1255
3.6131	14.3202
3.5981	14.7865
3.5832	14.927
3.5684	15.5276
3.5537	15.4777
3.5391	15.7093
3.5247	16.0133
3.5104	16.2303
3.4962	16.5287
3.4821	16.8158
3.4681	17.263
3.4543	17.533
3.4405	17.926
3.4269	18.0176
3.4133	18.2949
3.3999	18.5931
3.3866	18.8112
3.3733	19.0127
3.3602	19.1811
3.3472	19.1963
3.3343	19.2012
3.3215	19.4673
3.3088	19.3993
3.2961	19.4224
3.2836	19.398
3.2712	19.4146
3.2588	19.328
3.2466	19.1715
3.2345	18.9572
3.2224	18.8428
3.2104	18.4016
3.1985	18.135
3.1867	17.8742
3.175	17.5389
3.1634	17.1086
3.1519	16.9759
3.1404	16.6014
3.129	16.2719
3.1178	16.0657
3.1065	15.8106
3.0954	15.5043
3.0844	15.5008
3.0734	15.215
3.0625	15.0171
3.0517	15.0557
3.041	15.0463
3.0303	14.8605
3.0197	14.7262
3.0092	14.7809
2.9987	14.5661
2.9884	14.5461
2.9781	14.707
2.9678	14.5267
2.9577	14.5542
2.9476	14.4418
2.9376	14.5953
2.9276	14.8841
2.9177	15.0134
2.9079	15.2669
2.8982	15.7137
2.8885	16.1594
2.8789	16.5479
2.8693	16.8786
2.8598	17.5408
2.8504	18.5209
2.841	18.9275
2.8317	19.5871
2.8224	20.5995
2.8133	21.4849
2.8041	23.0738
2.7951	23.9116
2.786	25.5241
2.7771	26.6
2.7682	28.5856
2.7594	29.8408
2.7506	32.1092
2.7418	35.0674
2.7332	37.391
2.7246	42.6401
2.716	44.9222
2.7075	48.3057
2.699	50.1682
2.6906	52.4917
2.6823	54.4088
2.674	56.3452
2.6657	59.8409
2.6575	57.8325
2.6494	58.3296
2.6413	59.0618
2.6332	60.1288
2.6252	60.7221
2.6173	62.6408
2.6094	61.8813
2.6015	62.2912
2.5937	64.7901
2.5859	63.1421
2.5782	63.1841
2.5706	63.6293
2.5629	64.6245
2.5554	63.5476
2.5478	64.0988
2.5403	63.9724
2.5329	64.4947
2.5255	64.4805
2.5181	64.9091
2.5108	65.0538
2.5035	65.3318
2.4963	65.7844
2.4891	66.3704
2.482	66.4123
2.4749	66.9855
2.4678	67.0834
2.4608	67.5109
2.4538	67.8028
2.4468	68.1364
2.4399	68.5749
2.4331	68.6178
2.4262	69.2484
2.4194	69.2449
2.4127	69.5635
2.4059	69.7928
2.3993	70.1545
2.3926	70.2188
2.386	70.6337
2.3795	70.8121
2.3729	70.8667
2.3664	71.2065
2.36	71.3337
2.3535	71.5206
2.3471	71.7202
2.3408	71.9695
2.3345	71.9541
2.3282	72.1128
2.3219	72.2385
2.3157	72.359
2.3095	72.3682
2.3034	72.4959
2.2972	72.5062
2.2911	72.5814
2.2851	72.5516
2.279	72.6466
2.2731	72.5818
2.2671	72.465
2.2612	72.7513
2.2553	72.4594
2.2494	72.5723
2.2435	72.3916
2.2377	72.3989
2.232	72.3048
2.2262	72.2209
2.2205	72.0577
2.2148	72.1579
2.2091	71.8464
2.2035	71.8011
2.1979	71.6255
2.1923	71.5728
2.1868	71.3759
2.1812	70.9471
2.1758	70.9236
2.1703	70.5993
2.1649	70.5786
2.1595	70.1883
2.1541	69.9772
2.1487	69.7308
2.1434	69.5458
2.1381	69.2251
2.1328	68.7859
2.1275	68.3607
2.1223	68.1499
2.1171	68.0954
2.112	67.7504
2.1068	66.967
2.1017	66.8199
2.0966	66.5183
2.0915	66.1176
2.0865	65.7035
2.0814	65.432
2.0764	64.7702
2.0715	64.741
2.0665	63.5971
2.0616	63.6258
2.0567	63.2443
2.0518	62.6231
2.0469	62.1586
2.0421	61.7221
2.0373	61.2956
2.0325	60.7868
2.0277	60.0846
2.0229	59.4794
2.0182	59.0454
2.0135	58.6251
2.0088	58.1204
2.0042	57.3291
