Name: Acmite NaFe+3 Si2O6
Type: Mineral
Class: Silicate
Subclass: Inosilicate
Particle Size: Fine
Sample No.: acmite_1
Owner: JHU
Wavelength Range: TIR
Origin: Narsarsuk, Greenland via the Smithsonian (sample no. NMNH95506).
Description: The sample consisted of black radiating acicular crystals with some contaminating brown coating, which dissolved in dilute HCl.  Sample size was 2 cm x 2 cm x 1 cm.  Contamination was largely eliminated by hand picking and the little remaining was dissolved with dilute HCl. Particle size was less than 2 Micrometers.(Pyroxene Group - single chain) Original ASTER Spectral Library name was jhu.nicolet.mineral.silicate.inosilicate.powder.acmite1.spectrum.txt
Measurement: Transmission
X Units: Wavelength (micrometers)
Y Units: Transmittance (percent)
wavelength	value
25.0442	52.328
24.3388	67.3436
23.6719	68.7029
23.0407	58.0467
22.4422	39.7929
21.8741	25.7109
21.334	23.4453
20.8199	32.8769
20.33	47.1346
19.8627	43.8983
19.4163	60.5741
18.9896	70.3944
18.5812	65.6844
18.19	58.8416
17.815	49.5741
17.4551	54.6258
17.1094	73.3592
16.7772	82.1424
16.4576	85.2635
16.15	85.5789
15.8537	81.6414
15.568	63.869
15.2925	76.3797
15.0265	86.6111
14.7697	88.3416
14.5214	88.8093
14.2814	88.9685
14.0492	88.4431
13.8244	87.5217
13.6067	84.1931
13.3957	88.2893
13.1912	88.5628
12.9929	88.0471
12.8004	87.3499
12.6135	86.8084
12.432	85.1897
12.2557	82.7498
12.0843	78.9026
11.9176	74.4007
11.7555	65.2664
11.5977	59.7464
11.444	59.9828
11.2944	53.2313
11.1487	43.5722
11.0067	34.3886
10.8682	27.2719
10.7332	22.3637
10.6015	19.791
10.473	15.9521
10.3476	14.27
10.2251	19.9931
10.1056	27.5629
9.9887	25.6225
9.8746	19.3657
9.763	19.6015
9.6539	21.6542
9.5472	22.0693
9.4429	22.4453
9.3408	22.4599
9.2409	23.8539
9.1431	29.0429
9.0474	40.018
8.9536	52.7445
8.8618	61.5204
8.7718	68.0648
8.6837	74.0291
8.5973	77.7034
8.5126	80.2635
8.4295	82.7991
8.3481	85.1309
8.2682	87.4131
8.1898	89.1279
8.1129	90.3953
8.0374	91.3623
7.9634	92.0379
7.8906	92.4431
7.8192	92.9697
7.7491	93.5674
7.6802	93.8596
7.6126	94.0469
7.5461	94.2175
7.4807	94.3965
7.4165	94.4622
7.3534	94.6707
7.2914	94.7297
7.2303	94.7275
7.1703	94.6863
7.1113	94.5869
7.0533	94.2673
6.9962	93.917
6.94	93.9382
6.8847	94.2234
6.8302	94.7178
6.7767	95.1621
6.7239	95.5527
6.672	95.8572
6.6209	95.9753
6.5705	96.2012
6.5209	96.2634
6.4721	96.1484
6.424	95.9812
6.3766	95.7273
6.3299	95.3181
6.2838	94.8477
6.2385	93.7969
6.1937	92.7188
6.1496	92.7029
6.1062	92.948
6.0633	93.8044
6.0211	94.7527
5.9794	95.0723
5.9383	95.8254
5.8978	96.1025
5.8578	96.3633
5.8184	96.4368
5.7794	96.3857
5.741	96.5615
5.7031	96.6103
5.6657	96.655
5.6288	96.7041
5.5924	96.791
5.5564	97.0261
5.5209	97.1599
5.4859	97.2029
5.4513	97.197
5.4171	97.156
5.3833	97.1191
5.35	97.115
5.3171	97.0869
5.2846	97.0381
5.2524	97.0459
5.2207	96.9512
5.1893	97.001
5.1584	97.0127
5.1277	97.0144
5.0975	97.0088
5.0676	96.9648
5.038	96.8972
5.0088	96.8606
4.98	96.9031
4.9514	96.8669
4.9232	96.8284
4.8953	96.8044
4.8678	96.7537
4.8405	96.8186
4.8135	96.7478
4.7868	96.7454
4.7605	96.7385
4.7344	96.7175
4.7086	96.6726
4.6831	96.6785
4.6578	96.6389
4.6328	96.6707
4.6081	96.6155
4.5837	96.6018
4.5595	96.5647
4.5356	96.5837
4.5119	96.4475
4.4884	96.428
4.4652	96.4031
4.4423	96.2654
4.4196	96.2991
4.3971	96.2249
4.3748	96.1775
4.3528	96.1057
4.331	96.1023
4.3094	96.0593
4.288	95.968
4.2668	95.9148
4.2458	95.9163
4.2251	95.8816
4.2045	95.782
4.1841	95.7126
4.164	95.7019
4.144	95.6384
4.1242	95.5515
4.1046	95.5159
4.0852	95.4319
4.066	95.3831
4.047	95.321
4.0281	95.2214
4.0094	95.1541
3.9909	95.0525
3.9725	94.9275
3.9544	94.9314
3.9363	94.9255
3.9185	94.9729
3.9008	94.7898
3.8833	94.7444
3.8659	94.5691
3.8487	94.5242
3.8316	94.4216
3.8147	94.3767
3.7979	94.2751
3.7813	94.2673
3.7648	94.1853
3.7485	94.0525
3.7323	93.926
3.7162	93.8962
3.7003	93.7263
3.6845	93.7151
3.6689	93.553
3.6534	93.5681
3.638	93.4529
3.6227	93.3362
3.6076	93.1404
3.5926	93.0974
3.5777	92.9646
3.563	93.0017
3.5484	92.8298
3.5338	92.6389
3.5195	92.5315
3.5052	92.1892
3.491	92.2683
3.477	92.1077
3.463	91.9959
3.4492	91.9089
3.4355	91.5999
3.4219	91.3621
3.4084	91.2966
3.395	91.3381
3.3817	91.1882
3.3685	91.2576
3.3554	91.178
3.3425	91.0335
3.3296	90.9509
3.3168	90.8045
3.3041	90.6604
3.2915	90.5349
3.279	90.3943
3.2666	90.2703
3.2543	90.1023
3.2421	89.9578
3.23	89.6453
3.218	89.5232
3.206	89.3445
3.1942	89.1375
3.1824	89.0213
3.1707	88.7918
3.1591	88.5486
3.1476	88.1677
3.1362	88.0232
3.1249	87.7097
3.1136	87.4646
3.1024	87.1638
3.0913	86.9529
3.0803	86.6931
3.0694	86.4314
3.0585	86.1892
3.0477	86.0525
3.037	85.617
3.0264	85.2615
3.0158	84.7586
3.0053	84.1961
2.9949	83.4549
2.9845	82.7869
2.9743	81.7127
2.9641	80.492
2.9539	79.7732
2.9439	79.0018
2.9339	78.451
2.9239	77.9314
2.9141	77.6951
2.9043	77.7342
2.8946	78.0867
2.8849	78.6014
2.8753	79.1726
2.8658	79.8103
2.8563	80.3357
2.8469	81.033
2.8375	81.4099
2.8282	81.7264
2.819	82.3006
2.8098	82.6765
2.8007	83.283
2.7917	84.1873
2.7827	84.8719
2.7738	85.6687
2.7649	86.2781
2.7561	86.867
2.7473	87.4685
2.7386	87.8201
2.7299	88.1062
2.7213	88.2224
2.7128	88.0388
2.7043	88.2429
2.6959	88.1843
2.6875	88.2351
2.6791	88.2537
2.6709	88.0242
2.6626	87.9802
2.6545	87.8552
2.6463	87.783
2.6382	87.7381
2.6302	87.4959
2.6222	87.5291
2.6143	87.5408
2.6064	87.3631
2.5986	87.283
2.5908	87.4549
2.583	87.2029
2.5753	87.0486
2.5677	86.906
2.5601	86.9236
2.5525	86.7517
2.545	86.7049
2.5375	86.8045
2.5301	86.5584
2.5227	86.5623
2.5154	86.5037
2.5081	86.406
2.5008	86.3767
2.4936	86.2654
2.4864	86.2049
2.4793	86.1248
2.4722	85.9763
2.4651	85.906
2.4581	85.8767
2.4511	85.9842
2.4442	85.6795
2.4373	85.7381
2.4305	85.617
2.4236	85.4959
2.4169	85.4549
2.4101	85.4842
2.4034	85.4529
2.3967	85.2029
2.3901	85.1053
2.3835	85.322
2.377	85.0877
2.3704	84.9842
2.364	85.0271
2.3575	84.7127
2.3511	84.531
2.3447	84.697
2.3384	84.5857
2.3321	84.6951
2.3258	84.4138
2.3195	84.3455
2.3133	84.4627
2.3071	84.408
2.301	83.9392
2.2949	84.2674
2.2888	84.2576
2.2828	83.9138
2.2767	83.8982
2.2708	83.8123
2.2648	83.8357
2.2589	83.7381
2.253	83.742
2.2471	83.5193
2.2413	83.3826
2.2355	83.7967
2.2297	83.1912
2.224	83.1443
2.2183	83.281
2.2126	82.992
2.207	83.0076
2.2013	83.3357
2.1957	83.0115
2.1902	83.0193
2.1846	82.6834
2.1791	82.781
2.1736	82.8514
2.1682	82.5506
2.1628	82.7654
2.1574	82.8123
2.152	82.574
2.1466	82.3006
2.1413	82.4412
2.136	82.0193
2.1308	82.1287
2.1255	81.8514
2.1203	82.2107
2.1151	82.1482
2.11	81.6717
2.1048	81.4764
2.0997	81.6717
2.0946	81.8123
2.0895	81.6873
2.0845	82.0037
2.0795	81.2224
