Name: Wollastonite CaSiO3
Type: Mineral
Class: Silicate
Subclass: Inosilicate
Particle Size: Fine
Sample No.: wollasto_1
Owner: JHU
Wavelength Range: TIR
Origin: Santa Fe Mine, Pichucalco, Chiapas, Mexico via theSmithsonian (sample no. NMNH 131913)
Description: The sample consisted of a 2 cm x 1 cm x 0.5 cm well-formed crystal  and one large 4 cm x 1 cm x 0.5 cm piece, both gray in color.  One surface of the large piece was dirty and had sulfide inclusions, which were separated by crushing and hand picking.  Under the microscope, some grains showed a little alteration and inclusions or voids along cleavage directions. (Chain Silicates); (Pyroxenoid Group) Particle size was less than 2  Micrometers. Original ASTER Spectral Library name was jhu.nicolet.mineral.silicate.inosilicate.powder.wollast1.spectrum.txt
Measurement: Transmission
X Units: Wavelength (micrometers)
Y Units: Transmittance (percent)
wavelength	value
25.0442	73.6404
24.3388	76.2381
23.6719	79.9998
23.0407	74.283
22.4422	50.2694
21.8741	27.2206
21.334	33.1269
20.8199	31.1737
20.33	43.8554
19.8627	49.9022
19.4163	53.7069
18.9896	70.5018
18.5812	77.8416
18.19	79.867
17.815	68.91
17.4551	74.5867
17.1094	86.6463
16.7772	88.9783
16.4576	89.4822
16.15	88.7703
15.8537	85.407
15.568	68.4774
15.2925	82.7342
15.0265	86.8406
14.7697	81.3484
14.5214	85.5232
14.2814	90.5369
14.0492	91.8123
13.8244	92.4099
13.6067	92.51
13.3957	92.7947
13.1912	92.6174
12.9929	92.3005
12.8004	92.051
12.6135	91.7112
12.432	91.2952
12.2557	90.4944
12.0843	89.0105
11.9176	87.158
11.7555	84.5725
11.5977	80.4241
11.444	72.4647
11.2944	55.996
11.1487	32.5927
11.0067	21.9853
10.8682	27.1757
10.7332	20.8364
10.6015	27.7953
10.473	39.8095
10.3476	29.8583
10.2251	51.1434
10.1056	59.1034
9.9887	49.139
9.8746	29.476
9.763	21.8398
9.6539	23.4858
9.5472	27.2192
9.4429	31.2367
9.3408	32.9755
9.2409	26.0634
9.1431	26.3691
9.0474	42.8602
8.9536	60.0438
8.8618	71.7786
8.7718	78.3982
8.6837	82.1844
8.5973	84.8372
8.5126	86.5642
8.4295	88.1951
8.3481	89.8298
8.2682	91.3049
8.1898	92.2439
8.1129	92.9441
8.0374	93.384
7.9634	93.739
7.8906	94.0879
7.8192	94.3845
7.7491	94.697
7.6802	94.8347
7.6126	95.002
7.5461	95.2852
7.4807	95.4199
7.4165	95.4182
7.3534	95.4209
7.2914	95.3416
7.2303	94.8984
7.1703	94.9177
7.1113	94.4385
7.0533	93.9912
6.9962	93.9131
6.94	94.1726
6.8847	94.3477
6.8302	94.4119
6.7767	94.4119
6.7239	94.3762
6.672	94.4463
6.6209	94.7332
6.5705	94.9275
6.5209	95.2236
6.4721	95.1826
6.424	95.1748
6.3766	95.0437
6.3299	94.7852
6.2838	94.5779
6.2385	94.5237
6.1937	94.416
6.1496	93.9695
6.1062	93.7129
6.0633	94.1462
6.0211	95.1677
5.9794	96.3044
5.9383	96.1824
5.8978	95.9265
5.8578	96.0281
5.8184	96.2803
5.7794	96.3301
5.741	96.4382
5.7031	96.6257
5.6657	96.6648
5.6288	96.7058
5.5924	96.6443
5.5564	96.6846
5.5209	96.6602
5.4859	96.7288
5.4513	96.7712
5.4171	96.821
5.3833	96.71
5.35	96.7666
5.3171	96.6965
5.2846	96.5681
5.2524	96.3975
5.2207	96.4392
5.1893	96.4463
5.1584	96.5166
5.1277	96.5789
5.0975	96.5352
5.0676	96.5801
5.038	96.5496
5.0088	96.6345
4.98	96.636
4.9514	96.6833
4.9232	96.6882
4.8953	96.6311
4.8678	96.7078
4.8405	96.656
4.8135	96.6999
4.7868	96.6633
4.7605	96.697
4.7344	96.7009
4.7086	96.6423
4.6831	96.7146
4.6578	96.7253
4.6328	96.783
4.6081	96.8494
4.5837	96.6975
4.5595	96.677
4.5356	96.655
4.5119	96.5374
4.4884	96.4622
4.4652	96.4236
4.4423	96.3943
4.4196	96.408
4.3971	96.3249
4.3748	96.3582
4.3528	96.303
4.331	96.28
4.3094	96.1062
4.288	96.1692
4.2668	96.0652
4.2458	96.0764
4.2251	96.0642
4.2045	96.0271
4.1841	95.9802
4.164	96.0276
4.144	95.9226
4.1242	95.9377
4.1046	95.929
4.0852	95.8113
4.066	95.8796
4.047	95.7776
4.0281	95.8347
4.0094	95.7073
3.9909	95.7058
3.9725	95.5769
3.9544	95.6663
3.9363	95.5842
3.9185	95.5613
3.9008	95.5725
3.8833	95.4021
3.8659	95.3396
3.8487	95.3015
3.8316	95.24
3.8147	95.1189
3.7979	95.156
3.7813	95.0291
3.7648	95.0022
3.7485	94.8459
3.7323	94.8049
3.7162	94.762
3.7003	94.5569
3.6845	94.5447
3.6689	94.4949
3.6534	94.3962
3.638	94.2991
3.6227	94.1799
3.6076	94.1375
3.5926	94.1453
3.5777	94.053
3.563	93.8948
3.5484	93.8303
3.5338	93.8162
3.5195	93.6272
3.5052	93.6306
3.491	93.5671
3.477	93.3718
3.463	93.2888
3.4492	93.2424
3.4355	93.1956
3.4219	93.1306
3.4084	93.0291
3.395	92.8772
3.3817	92.8435
3.3685	92.8669
3.3554	92.8279
3.3425	92.6951
3.3296	92.6506
3.3168	92.5291
3.3041	92.4275
3.2915	92.4573
3.279	92.2009
3.2666	92.2151
3.2543	92.0335
3.2421	92.0432
3.23	91.844
3.218	91.8513
3.206	91.6677
3.1942	91.5681
3.1824	91.3757
3.1707	91.1921
3.1591	91.0955
3.1476	90.8865
3.1362	90.7166
3.1249	90.5857
3.1136	90.4773
3.1024	90.0203
3.0913	89.7547
3.0803	89.4968
3.0694	89.3992
3.0585	88.9978
3.0477	88.9509
3.037	88.697
3.0264	88.3718
3.0158	88.0759
3.0053	87.5681
2.9949	87.3552
2.9845	86.7351
2.9743	86.0301
2.9641	85.5447
2.9539	84.9754
2.9439	84.5769
2.9339	84.3289
2.9239	84.0711
2.9141	83.9529
2.9043	83.99
2.8946	84.0017
2.8849	84.24
2.8753	84.2117
2.8658	84.2888
2.8563	84.5515
2.8469	84.9627
2.8375	85.281
2.8282	85.6306
2.819	86.2713
2.8098	86.7947
2.8007	87.2713
2.7917	87.6609
2.7827	88.3767
2.7738	88.9802
2.7649	89.5593
2.7561	90.1677
2.7473	90.864
2.7386	91.0711
2.7299	91.1716
2.7213	91.2029
2.7128	91.3875
2.7043	91.575
2.6959	91.5906
2.6875	91.6599
2.6791	91.6306
2.6709	91.6961
2.6626	91.5447
2.6545	91.5584
2.6463	91.3748
2.6382	91.3875
2.6302	91.3054
2.6222	91.1834
2.6143	91.1677
2.6064	91.117
2.5986	91.1365
2.5908	91.0086
2.583	91.1209
2.5753	90.7351
2.5677	90.7322
2.5601	90.8162
2.5525	90.6541
2.545	90.4236
2.5375	90.6306
2.5301	90.5759
2.5227	90.1814
2.5154	90.2205
2.5081	90.0974
2.5008	90.1209
2.4936	90.2283
2.4864	89.9685
2.4793	90.0759
2.4722	89.8103
2.4651	89.7576
2.4581	89.8162
2.4511	89.7146
2.4442	89.6267
2.4373	89.4666
2.4305	89.2771
2.4236	89.1189
2.4169	89.5701
2.4101	89.3298
2.4034	88.9295
2.3967	89.0017
2.3901	88.8924
2.3835	88.781
2.377	88.781
2.3704	88.9216
2.364	88.8787
2.3575	88.6248
2.3511	88.7263
2.3447	88.408
2.3384	88.4998
2.3321	87.9939
2.3258	88.3943
2.3195	88.322
2.3133	88.2107
2.3071	87.8045
2.301	88.197
2.2949	88.0642
2.2888	88.0232
2.2828	87.8533
2.2767	87.7888
2.2708	87.6092
2.2648	88.0037
2.2589	87.3435
2.253	87.8045
2.2471	87.492
2.2413	87.4549
2.2355	87.4861
2.2297	87.4529
2.224	87.1795
2.2183	87.5545
2.2126	87.3299
2.207	86.9607
2.2013	87.1482
2.1957	87.3357
2.1902	86.8142
2.1846	86.7185
2.1791	86.6717
2.1736	87.1482
2.1682	87.1404
2.1628	87.1248
2.1574	86.656
2.152	86.4334
2.1466	86.7107
2.1413	86.3357
2.136	86.7029
2.1308	86.8162
2.1255	86.3787
2.1203	86.8045
2.1151	86.3592
2.11	86.2927
2.1048	86.7576
2.0997	86.4334
2.0946	86.7107
2.0895	86.1482
2.0845	86.7224
2.0795	86.1912
