Name: Brucite Mg(OH)_2
Type: Mineral
Class: Hydroxide
Subclass: None
Particle Size: Fine
Sample No.: OH-1A
Owner: JPL
Wavelength Range: TIR
Origin: USA, Nevada, Nye County, Gabbs
Description: Particle size was 0-45um.Collected by JPL Original ASTER Spectral Library name was jpl.nicolet.mineral.hydroxide.none.fine.oh01a.spectrum.txt
Measurement: Hemispherical reflectance
X Units: Wavelength (micrometers)
Y Units: Reflectance (percent)
wavelength	value
15.3853	4.8836
15.1161	4.4492
14.8563	4.7566
14.6052	4.5605
14.3624	4.3716
14.1276	4.2911
13.9004	4.381
13.6803	4.0663
13.4671	3.8219
13.2604	3.432
13.06	3.0865
12.8656	2.7834
12.6769	2.2637
12.4936	2.0192
12.3155	1.9407
12.1425	1.648
11.9742	1.7204
11.8106	1.5662
11.6513	1.4857
11.4963	1.7828
11.3454	1.8554
11.1983	2.7935
11.0551	2.9907
10.9154	3.2247
10.7793	3.0717
10.6465	2.8175
10.5169	2.7675
10.3904	2.7659
10.267	2.7993
10.1464	3.2295
10.0287	3.3005
9.9136	3.6963
9.8012	3.8061
9.6913	4.0935
9.5838	4.3796
9.4787	4.4043
9.3758	4.6824
9.2752	5.0074
9.1767	5.2931
9.0803	6.6317
8.9858	7.9252
8.8934	8.4311
8.8028	9.0668
8.714	9.178
8.627	9.3603
8.5417	9.5992
8.4581	9.4843
8.3761	9.8345
8.2957	9.8303
8.2169	10.4385
8.1395	10.8992
8.0635	11.4404
7.989	11.6945
7.9158	11.5441
7.8439	11.9317
7.7734	11.6713
7.7041	11.7319
7.636	11.8792
7.5691	12.0615
7.5034	12.0206
7.4388	11.4345
7.3753	10.9601
7.3129	10.0862
7.2515	9.041
7.1912	8.044
7.1318	6.9908
7.0734	6.0394
7.016	4.7152
6.9595	5.0565
6.9039	5.7308
6.8492	6.6389
6.7953	6.7486
6.7423	6.2833
6.6901	6.7733
6.6387	7.6583
6.5881	8.2233
6.5382	8.2524
6.4892	8.759
6.4408	9.8454
6.3931	11.6682
6.3462	13.453
6.2999	14.4062
6.2543	15.0848
6.2094	15.1685
6.1651	15.4493
6.1214	15.9675
6.0784	17.1964
6.0359	18.799
5.994	21.1715
5.9527	22.3109
5.912	26.5347
5.8718	29.6198
5.8322	32.6557
5.7931	35.3077
5.7545	37.5137
5.7165	39.2385
5.6789	40.537
5.6418	41.9046
5.6052	42.6076
5.5691	43.2042
5.5334	43.6343
5.4982	43.804
5.4635	44.6306
5.4291	45.4628
5.3952	46.0669
5.3618	46.5382
5.3287	47.2151
5.2961	47.8176
5.2638	48.2244
5.2319	48.4765
5.2004	48.7859
5.1693	48.912
5.1386	48.9381
5.1082	49.0192
5.0782	49.1058
5.0485	49.2237
5.0192	49.2972
4.9902	49.4077
4.9616	49.7116
4.9332	49.8859
4.9052	50.1129
4.8776	50.4276
4.8502	50.5183
4.8231	50.6168
4.7963	50.7708
4.7699	51.0258
4.7437	51.2889
4.7178	51.5865
4.6922	51.8197
4.6668	51.8925
4.6418	52.0656
4.617	52.1938
4.5924	52.4956
4.5681	52.5919
4.5441	52.8474
4.5203	52.972
4.4968	53.0896
4.4735	53.1859
4.4505	53.4062
4.4277	53.564
4.4051	53.759
4.3828	53.8756
4.3607	54.0368
4.3388	54.1261
4.3171	54.2373
4.2956	54.4251
4.2744	54.5157
4.2534	54.577
4.2325	54.6643
4.2119	54.8621
4.1915	54.8768
4.1712	54.977
4.1512	54.9212
4.1313	55.028
4.1117	54.9294
4.0922	54.9614
4.0729	54.8671
4.0538	54.7845
4.0349	54.5461
4.0161	54.2971
3.9976	53.9481
3.9792	53.434
3.9609	52.8258
3.9428	52.3773
3.9249	52.1913
3.9072	52.0224
3.8896	51.8327
3.8722	51.69
3.8549	51.607
3.8378	51.5578
3.8208	51.1408
3.804	50.6069
3.7873	50.3359
3.7708	50.0199
3.7544	49.6962
3.7382	49.4624
3.7221	49.03
3.7061	48.2464
3.6903	48.1002
3.6746	47.588
3.659	47.0651
3.6436	46.4197
3.6283	45.7404
3.6131	44.9966
3.5981	44.5347
3.5832	44.3095
3.5684	43.8596
3.5537	42.9818
3.5391	42.0953
3.5247	41.1408
3.5104	39.9934
3.4962	39.5945
3.4821	39.5265
3.4681	39.2147
3.4543	38.6419
3.4405	38.1411
3.4269	37.33
3.4133	36.6178
3.3999	36.5806
3.3866	36.3906
3.3733	35.9265
3.3602	35.6473
3.3472	35.1046
3.3343	34.7983
3.3215	34.1956
3.3088	33.8307
3.2961	33.5929
3.2836	33.5373
3.2712	33.3801
3.2588	33.2845
3.2466	33.0072
3.2345	32.7934
3.2224	32.5096
3.2104	32.1183
3.1985	31.8727
3.1867	31.5391
3.175	31.1921
3.1634	30.6221
3.1519	30.2101
3.1404	29.4855
3.129	28.2987
3.1178	27.2101
3.1065	26.3143
3.0954	25.2676
3.0844	23.9828
3.0734	22.8202
3.0625	21.8484
3.0517	22.0221
3.041	22.7579
3.0303	23.8804
3.0197	24.9442
3.0092	24.8379
2.9987	25.3053
2.9884	25.4329
2.9781	24.5362
2.9678	24.1412
2.9577	24.1762
2.9476	24.548
2.9376	24.4779
2.9276	24.583
2.9177	24.2462
2.9079	23.7752
2.8982	23.2357
2.8885	21.9667
2.8789	20.4928
2.8693	20.9298
2.8598	21.9287
2.8504	21.7912
2.841	21.541
2.8317	21.8216
2.8224	21.3038
2.8133	20.1364
2.8041	20.7801
2.7951	16.9755
2.786	21.1555
2.7771	22.6879
2.7682	23.3753
2.7594	22.8721
2.7506	18.2003
2.7418	16.1787
2.7332	17.0482
2.7246	13.3447
2.716	7.5433
2.7075	3.2314
2.699	6.0537
2.6906	18.2892
2.6823	31.7106
2.674	39.1062
2.6657	40.9796
2.6575	39.5427
2.6494	37.3583
2.6413	34.8716
2.6332	35.1826
2.6252	38.0379
2.6173	41.0196
2.6094	43.4345
2.6015	45.8373
2.5937	49.2234
2.5859	52.4141
2.5782	53.1653
2.5706	51.69
2.5629	49.56
2.5554	45.8305
2.5478	42.4715
2.5403	38.6858
2.5329	33.6149
2.5255	33.2868
2.5181	36.4593
2.5108	36.6906
2.5035	30.8929
2.4963	26.2328
2.4891	24.0325
2.482	20.6825
2.4749	21.0488
2.4678	25.7048
2.4608	28.4079
2.4538	30.0971
2.4468	33.1167
2.4399	36.0965
2.4331	39.0422
2.4262	41.628
2.4194	49.2235
2.4127	56.7526
2.4059	61.7244
2.3993	63.6698
2.3926	64.8709
2.386	65.3919
2.3795	65.6899
2.3729	65.4885
2.3664	65.2495
2.36	64.576
2.3535	63.1554
2.3471	61.1746
2.3408	57.7826
2.3345	54.2305
2.3282	51.7663
2.3219	50.474
2.3157	50.8415
2.3095	52.7627
2.3034	54.8706
2.2972	56.8803
2.2911	58.5461
2.2851	60.1469
2.279	60.5671
2.2731	61.0867
2.2671	61.1615
2.2612	61.2346
2.2553	61.7214
2.2494	62.0042
2.2435	62.5015
2.2377	63.2901
2.232	64.0503
2.2262	64.8425
2.2205	65.6815
2.2148	66.5645
2.2091	67.336
2.2035	67.9311
2.1979	68.3252
2.1923	69.3154
2.1868	70.5395
2.1812	71.849
2.1758	73.2547
2.1703	74.3759
2.1649	74.8927
2.1595	75.5101
2.1541	75.6102
2.1487	75.5037
2.1434	75.0213
2.1381	75.1469
2.1328	74.802
2.1275	74.6313
2.1223	74.7919
2.1171	75.1221
2.112	75.0017
2.1068	75.4405
2.1017	75.174
2.0966	75.6781
2.0915	75.6798
2.0865	75.9019
2.0814	76.0381
2.0764	75.7938
2.0715	75.9587
2.0665	75.765
2.0616	75.7543
2.0567	76.2938
2.0518	76.386
2.0469	76.6466
2.0421	77.0239
2.0373	77.0228
2.0325	77.2318
2.0277	77.2797
2.0229	77.7261
2.0182	77.6063
2.0135	77.9122
2.0088	78.4656
2.0042	79.0727
