Name: Johannsenite Ca(Mn,Fe^2+)(SiO_3)_2
Type: Mineral
Class: Silicate
Subclass: Inosilicate
Particle Size: Coarse
Sample No.: IN-12A
Owner: JPL
Wavelength Range: TIR
Origin: USA, Arizona, Graham County, Aravaipa
Description: Particle size was 125-500um.Collected by Burminco Original ASTER Spectral Library name was jpl.nicolet.mineral.silicate.inosilicate.coarse.in12a.spectrum.txt
Measurement: Hemispherical reflectance
X Units: Wavelength (micrometers)
Y Units: Reflectance (percent)
wavelength	value
15.3853	2.4239
15.1161	2.5939
14.8563	2.1428
14.6052	2.6056
14.3624	2.7291
14.1276	2.7484
13.9004	2.6739
13.6803	3.1033
13.4671	3.3592
13.2604	3.8509
13.06	3.9185
12.8656	4.3619
12.6769	4.4909
12.4936	5.0077
12.3155	5.4364
12.1425	5.9422
11.9742	7.0076
11.8106	10.0025
11.6513	11.6266
11.4963	11.8516
11.3454	12.1181
11.1983	11.4712
11.0551	11.3932
10.9154	10.91
10.7793	8.3308
10.6465	8.8395
10.5169	9.4118
10.3904	7.5882
10.267	5.0726
10.1464	4.4663
10.0287	5.3554
9.9136	5.5627
9.8012	5.9025
9.6913	6.6505
9.5838	7.8764
9.4787	9.755
9.3758	11.0433
9.2752	10.6957
9.1767	10.6274
9.0803	10.5652
8.9858	10.2725
8.8934	7.6761
8.8028	5.3014
8.714	3.6668
8.627	2.919
8.5417	2.9356
8.4581	2.8291
8.3761	2.7277
8.2957	2.625
8.2169	2.6068
8.1395	2.7186
8.0635	2.5975
7.989	2.5938
7.9158	2.67
7.8439	2.8063
7.7734	2.9369
7.7041	3.0598
7.636	3.0618
7.5691	3.1118
7.5034	3.3141
7.4388	3.4674
7.3753	3.4083
7.3129	3.5372
7.2515	3.7454
7.1912	3.9487
7.1318	4.0767
7.0734	4.133
7.016	4.0548
6.9595	3.9605
6.9039	4.1854
6.8492	4.1016
6.7953	3.9289
6.7423	4.05
6.6901	4.1201
6.6387	4.1417
6.5881	4.2193
6.5382	4.155
6.4892	4.0896
6.4408	3.9978
6.3931	3.4281
6.3462	3.2471
6.2999	3.1448
6.2543	3.04
6.2094	2.8167
6.1651	2.5781
6.1214	2.4993
6.0784	2.5198
6.0359	2.6759
5.994	2.9473
5.9527	3.4045
5.912	3.9043
5.8718	4.4936
5.8322	5.2282
5.7931	5.7903
5.7545	6.2725
5.7165	6.6726
5.6789	6.9411
5.6418	7.0024
5.6052	6.6551
5.5691	6.2156
5.5334	6.5408
5.4982	6.5365
5.4635	6.0719
5.4291	5.987
5.3952	5.8081
5.3618	5.4926
5.3287	5.5396
5.2961	5.8261
5.2638	5.9235
5.2319	6.0427
5.2004	5.7799
5.1693	5.4693
5.1386	5.3742
5.1082	5.1063
5.0782	5.5011
5.0485	5.8097
5.0192	5.9556
4.9902	5.9193
4.9616	6.07
4.9332	6.1607
4.9052	6.2219
4.8776	6.3049
4.8502	6.5671
4.8231	7.0649
4.7963	7.3922
4.7699	7.7702
4.7437	8.1462
4.7178	8.445
4.6922	8.3569
4.6668	8.6145
4.6418	9.1647
4.617	9.6804
4.5924	9.9856
4.5681	10.4447
4.5441	10.696
4.5203	11.0171
4.4968	11.0241
4.4735	11.2151
4.4505	11.341
4.4277	11.4272
4.4051	11.534
4.3828	11.6998
4.3607	11.9619
4.3388	12.0522
4.3171	12.3867
4.2956	12.553
4.2744	12.6064
4.2534	12.7788
4.2325	13.1055
4.2119	13.2586
4.1915	13.25
4.1712	13.5952
4.1512	13.6765
4.1313	13.7196
4.1117	13.8284
4.0922	13.7133
4.0729	13.6335
4.0538	13.4892
4.0349	12.9564
4.0161	12.5915
3.9976	12.1113
3.9792	11.6653
3.9609	11.8093
3.9428	12.1225
3.9249	12.3227
3.9072	12.3124
3.8896	12.1416
3.8722	12.0408
3.8549	11.9208
3.8378	11.7856
3.8208	11.5511
3.804	11.604
3.7873	11.6895
3.7708	11.5781
3.7544	11.1946
3.7382	10.974
3.7221	10.6306
3.7061	10.4112
3.6903	10.0808
3.6746	9.8164
3.659	9.5604
3.6436	9.1787
3.6283	8.9586
3.6131	8.7184
3.5981	8.3952
3.5832	8.0224
3.5684	7.8671
3.5537	7.5346
3.5391	7.2878
3.5247	7.028
3.5104	6.6129
3.4962	6.4098
3.4821	6.2356
3.4681	6.1684
3.4543	5.8559
3.4405	5.8104
3.4269	5.778
3.4133	5.5925
3.3999	5.2957
3.3866	5.3051
3.3733	5.0602
3.3602	4.9011
3.3472	4.883
3.3343	4.8435
3.3215	4.7724
3.3088	4.8759
3.2961	4.6828
3.2836	4.5269
3.2712	4.427
3.2588	4.5266
3.2466	4.3718
3.2345	4.3635
3.2224	4.23
3.2104	4.1028
3.1985	4.0638
3.1867	4.0014
3.175	4.008
3.1634	3.906
3.1519	3.8499
3.1404	3.847
3.129	3.9042
3.1178	3.7512
3.1065	3.675
3.0954	3.7777
3.0844	3.7651
3.0734	3.6363
3.0625	3.5701
3.0517	3.7257
3.041	3.6716
3.0303	3.4543
3.0197	3.6361
3.0092	3.5057
2.9987	3.5736
2.9884	3.5133
2.9781	3.3965
2.9678	3.5752
2.9577	3.3151
2.9476	3.4242
2.9376	3.425
2.9276	3.4637
2.9177	3.5177
2.9079	3.501
2.8982	3.3515
2.8885	3.6214
2.8789	3.6051
2.8693	3.3385
2.8598	3.4279
2.8504	3.4456
2.841	3.6085
2.8317	3.6969
2.8224	3.636
2.8133	3.6214
2.8041	3.6945
2.7951	3.6613
2.786	3.8657
2.7771	4.0946
2.7682	4.0642
2.7594	4.2277
2.7506	4.575
2.7418	5.0472
2.7332	5.9973
2.7246	7.5633
2.716	9.2343
2.7075	11.332
2.699	13.7069
2.6906	15.7014
2.6823	17.2003
2.674	18.6297
2.6657	19.7316
2.6575	20.4353
2.6494	21.2436
2.6413	21.6728
2.6332	22.0729
2.6252	22.7847
2.6173	22.8519
2.6094	23.3502
2.6015	23.4714
2.5937	23.4259
2.5859	23.6559
2.5782	23.8042
2.5706	23.8029
2.5629	23.7992
2.5554	23.6505
2.5478	23.699
2.5403	23.7438
2.5329	23.5916
2.5255	23.9814
2.5181	24.0128
2.5108	24.246
2.5035	24.3392
2.4963	24.5457
2.4891	24.7504
2.482	25.0358
2.4749	25.326
2.4678	25.5809
2.4608	25.9513
2.4538	25.96
2.4468	26.2392
2.4399	26.5011
2.4331	26.902
2.4262	26.9163
2.4194	27.0547
2.4127	27.1303
2.4059	27.3001
2.3993	27.3901
2.3926	27.675
2.386	27.9633
2.3795	28.2062
2.3729	28.3154
2.3664	28.5866
2.36	28.7316
2.3535	28.8224
2.3471	28.5658
2.3408	28.6606
2.3345	28.7393
2.3282	28.5634
2.3219	28.2809
2.3157	28.2402
2.3095	27.8314
2.3034	27.4259
2.2972	27.1929
2.2911	27.1896
2.2851	27.482
2.279	27.6017
2.2731	27.9357
2.2671	27.9388
2.2612	28.0677
2.2553	28.1322
2.2494	28.1412
2.2435	28.0751
2.2377	28.2446
2.232	28.1485
2.2262	28.1416
2.2205	28.174
2.2148	28.0939
2.2091	28.0349
2.2035	27.9497
2.1979	27.9054
2.1923	27.9392
2.1868	27.952
2.1812	27.9467
2.1758	27.7292
2.1703	27.6418
2.1649	27.4307
2.1595	27.5803
2.1541	27.2669
2.1487	27.1613
2.1434	27.2219
2.1381	26.9125
2.1328	26.7335
2.1275	26.6554
2.1223	26.2445
2.1171	26.2952
2.112	26.1989
2.1068	26.228
2.1017	25.7918
2.0966	25.8527
2.0915	25.8774
2.0865	25.5354
2.0814	25.4847
2.0764	25.2851
2.0715	24.8131
2.0665	24.9631
2.0616	24.6761
2.0567	24.5494
2.0518	24.623
2.0469	24.402
2.0421	24.2032
2.0373	23.7414
2.0325	24.0084
2.0277	23.6297
2.0229	23.312
2.0182	23.1641
2.0135	22.9338
2.0088	22.5035
2.0042	22.6459
