Name: Ferroaxinite Ca_2Fe^2+Al_2BSi_4O_15(OH)
Type: Mineral
Class: Silicate
Subclass: Cyclosilicate
Particle Size: Medium
Sample No.: CS-4A
Owner: JPL
Wavelength Range: TIR
Origin: Mexico, Baja California Norte, Los Gavelontos
Description: Particle size was 45-125um.Collected by Ward's Original ASTER Spectral Library name was jpl.nicolet.mineral.silicate.cyclosilicate.medium.cs04a.spectrum.txt
Measurement: Hemispherical reflectance
X Units: Wavelength (micrometers)
Y Units: Reflectance (percent)
wavelength	value
15.3853	1.6051
15.1161	2.6743
14.8563	2.2527
14.6052	1.8136
14.3624	2.2997
14.1276	2.9883
13.9004	3.7661
13.6803	4.0934
13.4671	4.2564
13.2604	5.0804
13.06	5.2761
12.8656	5.6259
12.6769	5.2469
12.4936	6.0901
12.3155	6.9007
12.1425	8.0899
11.9742	8.1012
11.8106	10.5072
11.6513	12.2768
11.4963	14.9723
11.3454	17.6853
11.1983	18.2163
11.0551	12.1227
10.9154	14.8926
10.7793	17.7929
10.6465	22.5684
10.5169	23.8976
10.3904	14.5815
10.267	8.7568
10.1464	7.7216
10.0287	7.7358
9.9136	9.8489
9.8012	6.0469
9.6913	8.1286
9.5838	15.0932
9.4787	16.2407
9.3758	20.9511
9.2752	20.9399
9.1767	22.1824
9.0803	21.2864
8.9858	13.4538
8.8934	8.6767
8.8028	6.2007
8.714	5.8307
8.627	2.654
8.5417	0.9634
8.4581	0.3055
8.3761	0
8.2957	0.2765
8.2169	0.0927
8.1395	0.2159
8.0635	0.5618
7.989	0.6189
7.9158	0.8336
7.8439	1.1871
7.7734	1.4536
7.7041	1.7708
7.636	2.1175
7.5691	2.6035
7.5034	2.9857
7.4388	3.4499
7.3753	3.7621
7.3129	4.2563
7.2515	4.6731
7.1912	5.0971
7.1318	5.4855
7.0734	5.8552
7.016	6.0442
6.9595	6.4667
6.9039	6.3807
6.8492	6.5718
6.7953	6.7113
6.7423	6.4892
6.6901	6.7493
6.6387	7.3968
6.5881	7.4227
6.5382	7.5528
6.4892	8.2308
6.4408	7.9972
6.3931	8.0841
6.3462	8.7567
6.2999	8.5989
6.2543	8.6369
6.2094	8.9727
6.1651	9.4812
6.1214	9.7842
6.0784	9.7743
6.0359	9.6944
5.994	9.472
5.9527	8.727
5.912	7.9017
5.8718	6.8323
5.8322	5.6662
5.7931	4.9093
5.7545	4.5838
5.7165	5.0484
5.6789	5.6981
5.6418	6.9446
5.6052	7.5061
5.5691	7.8863
5.5334	8.3587
5.4982	8.6201
5.4635	8.6975
5.4291	8.7279
5.3952	9.1268
5.3618	9.2961
5.3287	9.5217
5.2961	10.1616
5.2638	10.44
5.2319	10.5027
5.2004	10.4554
5.1693	10.3869
5.1386	10.8423
5.1082	11.4117
5.0782	11.9024
5.0485	12.399
5.0192	13.0492
4.9902	13.5905
4.9616	14.0954
4.9332	14.801
4.9052	15.5411
4.8776	16.5872
4.8502	17.5961
4.8231	18.4696
4.7963	19.3181
4.7699	20.6614
4.7437	21.7781
4.7178	22.8052
4.6922	24.0216
4.6668	25.5723
4.6418	27.3146
4.617	28.9976
4.5924	30.2075
4.5681	30.4384
4.5441	30.6431
4.5203	30.7793
4.4968	31.0774
4.4735	32.7107
4.4505	34.2946
4.4277	36.2112
4.4051	37.8571
4.3828	39.7113
4.3607	41.3094
4.3388	42.4626
4.3171	43.2873
4.2956	44.2726
4.2744	44.8374
4.2534	45.0917
4.2325	45.8203
4.2119	45.7463
4.1915	45.7749
4.1712	46.0034
4.1512	46.0981
4.1313	46.0505
4.1117	45.8198
4.0922	45.4797
4.0729	45.116
4.0538	44.9581
4.0349	44.8166
4.0161	45.4668
3.9976	46.1044
3.9792	44.952
3.9609	46.5638
3.9428	46.8157
3.9249	46.8976
3.9072	47.4879
3.8896	47.6549
3.8722	47.375
3.8549	46.4765
3.8378	45.2641
3.8208	44.2179
3.804	43.4377
3.7873	43.1554
3.7708	43.4187
3.7544	43.8773
3.7382	44.2606
3.7221	44.0407
3.7061	43.4759
3.6903	42.5728
3.6746	41.5809
3.659	40.8626
3.6436	40.9261
3.6283	41.3185
3.6131	41.8014
3.5981	41.8894
3.5832	41.686
3.5684	41.3609
3.5537	40.8403
3.5391	40.1576
3.5247	39.8814
3.5104	39.6359
3.4962	39.3199
3.4821	38.6226
3.4681	37.8666
3.4543	37.1157
3.4405	36.5706
3.4269	36.6415
3.4133	36.2251
3.3999	35.3044
3.3866	33.2227
3.3733	30.5824
3.3602	28.7356
3.3472	28.4355
3.3343	29.0432
3.3215	29.3296
3.3088	29.5869
3.2961	29.0626
3.2836	28.1935
3.2712	26.5431
3.2588	24.8003
3.2466	23.4122
3.2345	22.1796
3.2224	21.2996
3.2104	20.876
3.1985	20.7066
3.1867	20.1384
3.175	19.3513
3.1634	19.0386
3.1519	18.9794
3.1404	19.0081
3.129	18.3643
3.1178	17.5641
3.1065	16.1984
3.0954	14.3513
3.0844	12.9295
3.0734	12.0045
3.0625	11.4865
3.0517	11.1482
3.041	11.3947
3.0303	11.5996
3.0197	11.3698
3.0092	11.0085
2.9987	9.6038
2.9884	8.3893
2.9781	7.8093
2.9678	7.0354
2.9577	6.6018
2.9476	5.9679
2.9376	6.0876
2.9276	7.0552
2.9177	8.0876
2.9079	9.1163
2.8982	9.5573
2.8885	9.7611
2.8789	9.9101
2.8693	10.211
2.8598	11.1199
2.8504	11.8172
2.841	13.3592
2.8317	14.6675
2.8224	16.3347
2.8133	17.2368
2.8041	18.1714
2.7951	17.9383
2.786	18.124
2.7771	18.6552
2.7682	20.5821
2.7594	22.0206
2.7506	23.5911
2.7418	25.0397
2.7332	25.6221
2.7246	29.0614
2.716	31.5349
2.7075	35.0688
2.699	37.2626
2.6906	38.7601
2.6823	39.869
2.674	39.4861
2.6657	40.4385
2.6575	39.8195
2.6494	42.6536
2.6413	44.7858
2.6332	45.8154
2.6252	46.045
2.6173	47.3822
2.6094	46.7125
2.6015	46.3336
2.5937	47.4477
2.5859	45.7109
2.5782	45.4652
2.5706	45.1109
2.5629	44.4885
2.5554	42.5791
2.5478	41.8297
2.5403	40.967
2.5329	40.3343
2.5255	39.7325
2.5181	39.6349
2.5108	39.2075
2.5035	38.7457
2.4963	38.3801
2.4891	38.0983
2.482	37.9266
2.4749	37.8197
2.4678	37.4094
2.4608	36.6133
2.4538	35.902
2.4468	35.3469
2.4399	34.4678
2.4331	33.7634
2.4262	32.9528
2.4194	32.0531
2.4127	31.2496
2.4059	30.3534
2.3993	29.1596
2.3926	28.2154
2.386	26.5562
2.3795	24.2294
2.3729	21.7958
2.3664	21.9367
2.36	22.4692
2.3535	22.5112
2.3471	21.5739
2.3408	20.49
2.3345	18.4441
2.3282	16.2424
2.3219	15.8615
2.3157	16.3868
2.3095	16.5377
2.3034	16.793
2.2972	17.1123
2.2911	17.6773
2.2851	18.0486
2.279	17.9905
2.2731	18.0744
2.2671	18.159
2.2612	18.2284
2.2553	18.4939
2.2494	18.7177
2.2435	18.6704
2.2377	18.573
2.232	18.5877
2.2262	18.1967
2.2205	18.3166
2.2148	18.2127
2.2091	17.8886
2.2035	17.6596
2.1979	17.7522
2.1923	17.6854
2.1868	17.2737
2.1812	17.3664
2.1758	17.3708
2.1703	17.2148
2.1649	17.315
2.1595	16.956
2.1541	17.1813
2.1487	17.046
2.1434	16.8512
2.1381	16.6317
2.1328	16.4321
2.1275	16.3481
2.1223	16.6336
2.1171	16.4534
2.112	16.2989
2.1068	16.5571
2.1017	16.3679
2.0966	16.6235
2.0915	16.4934
2.0865	16.4196
2.0814	16.3728
2.0764	16.4559
2.0715	16.0891
2.0665	16.4672
2.0616	16.7384
2.0567	16.6294
2.0518	16.3742
2.0469	16.5392
2.0421	16.5585
2.0373	16.633
2.0325	16.8383
2.0277	16.3557
2.0229	16.619
2.0182	16.8935
2.0135	16.9792
2.0088	16.9814
2.0042	17.1027
