Name: Stibnite Sb_2S_3
Type: Mineral
Class: Sulfide
Subclass: None
Particle Size: Coarse
Sample No.: S-6A
Owner: JPL
Wavelength Range: VSWIR
Origin: USA, Utah, Tooele County, Gold Hill
Description: Particle size was 125-500um.Collected by Burminco Original ASTER Spectral Library name was jpl.beckman.mineral.sulfide.none.coarse.s06a.spectrum.txt
Measurement: Hemispherical reflectance
X Units: Wavelength (micrometers)
Y Units: Reflectance (percent)
wavelength	value
0.4	13.1
0.403	12.97
0.406	12.9
0.409	12.84
0.412	12.77
0.415	12.7
0.418	12.67
0.421	12.63
0.424	12.64
0.427	12.66
0.43	12.69
0.433	12.64
0.436	12.61
0.439	12.6
0.442	12.57
0.445	12.57
0.448	12.57
0.451	12.41
0.454	12.52
0.457	12.6
0.46	12.48
0.463	12.59
0.466	12.44
0.469	12.39
0.472	12.48
0.475	12.45
0.478	12.33
0.481	12.33
0.484	12.28
0.487	12.35
0.49	12.34
0.493	12.26
0.496	12.16
0.499	12.18
0.502	12.27
0.505	12.2
0.508	12.1
0.511	12.1
0.514	12.04
0.517	11.98
0.52	11.89
0.523	11.77
0.526	11.88
0.529	11.8
0.532	11.8
0.535	11.73
0.538	11.63
0.541	11.66
0.544	11.61
0.547	11.53
0.55	11.47
0.553	11.51
0.556	11.52
0.559	11.52
0.562	11.45
0.565	11.45
0.568	11.29
0.571	11.24
0.574	11.06
0.577	11.1
0.58	11.11
0.583	11.08
0.586	10.97
0.589	11.05
0.592	11.03
0.595	11.05
0.598	11.05
0.601	10.98
0.604	10.92
0.607	10.91
0.61	10.92
0.613	10.97
0.616	10.94
0.619	10.79
0.622	10.8
0.625	10.84
0.628	10.76
0.631	10.84
0.634	10.77
0.637	10.69
0.64	10.67
0.643	10.85
0.646	10.84
0.649	10.84
0.652	10.77
0.655	10.81
0.658	10.83
0.661	10.84
0.664	10.86
0.667	10.79
0.67	10.83
0.673	10.78
0.676	10.91
0.679	10.99
0.682	10.94
0.685	10.94
0.688	10.94
0.691	10.99
0.694	11.06
0.697	11.14
0.7	11.09
0.703	11.23
0.706	11.27
0.709	11.43
0.712	11.51
0.715	11.59
0.718	11.74
0.721	12.01
0.724	12.2
0.727	12.35
0.73	12.45
0.733	12.7
0.736	12.83
0.739	13.23
0.742	13.62
0.745	13.96
0.748	14.1
0.751	14.59
0.754	15.17
0.757	15.65
0.76	16.07
0.763	16.49
0.766	17.17
0.769	17.83
0.772	18.68
0.775	19.62
0.778	20.67
0.781	21.71
0.784	23.01
0.787	24.63
0.79	26.3
0.793	28.04
0.796	29.8
0.799	31.25
0.808	37.5
0.82	43.32
0.832	47.7
0.844	50.77
0.856	53.14
0.868	55.13
0.88	56.66
0.892	57.88
0.904	59.05
0.916	59.93
0.928	60.75
0.94	61.53
0.952	62.11
0.964	62.66
0.976	63.1
0.988	63.63
1	63.95
1.012	64.44
1.024	64.72
1.036	65.06
1.048	65.37
1.06	65.7
1.072	65.99
1.084	66.26
1.096	66.54
1.108	66.82
1.12	67.1
1.132	67.27
1.144	67.46
1.156	67.66
1.168	67.92
1.18	68.14
1.192	68.25
1.204	68.48
1.216	68.59
1.228	68.91
1.24	69.2
1.252	69.3
1.264	69.54
1.276	69.69
1.288	69.99
1.3	70.11
1.312	70.23
1.324	70.37
1.336	70.51
1.348	70.78
1.36	70.98
1.372	70.97
1.384	70.97
1.396	70.62
1.408	70.19
1.42	69.93
1.432	69.82
1.444	69.91
1.456	70.06
1.468	70.2
1.48	70.69
1.492	71.04
1.504	71.42
1.516	71.76
1.528	72.03
1.54	72.26
1.552	72.48
1.564	72.76
1.576	72.91
1.588	73.04
1.6	73.19
1.612	73.46
1.624	73.57
1.636	73.65
1.648	73.75
1.66	73.92
1.672	74.09
1.684	74.15
1.696	74.19
1.708	74.23
1.72	74.19
1.732	74.13
1.744	74.18
1.756	74.11
1.768	74.1
1.78	74.1
1.792	74.13
1.804	74.25
1.816	74.19
1.828	74.21
1.84	74.11
1.852	73.82
1.864	73.2
1.876	71.7
1.888	69.37
1.9	66.95
1.912	65.26
1.924	64.55
1.936	64.56
1.948	65.06
1.96	65.82
1.972	66.57
1.984	67.38
1.996	68.3
2.008	68.85
2.02	69.63
2.032	70.14
2.044	70.66
2.056	71.12
2.068	71.57
2.08	71.92
2.092	72.31
2.104	72.68
2.116	73
2.128	73.1
2.14	73.22
2.152	73.06
2.164	72.99
2.176	72.79
2.188	72.64
2.2	72.47
2.212	72.41
2.224	72.48
2.236	72.29
2.248	72.24
2.26	72.12
2.272	72.03
2.284	71.91
2.296	71.89
2.308	71.8
2.32	71.83
2.332	71.65
2.344	71.66
2.356	71.38
2.368	70.84
2.38	70.49
2.392	70.11
2.404	69.69
2.416	69.17
2.428	68.48
2.44	67.92
2.452	67.29
2.464	66.63
2.476	66.02
2.488	65.81
2.5	65.59
