Name: Quartz Conglomerate
Type: Rock
Class: Sedimentary
Subclass: Conglomerate
Particle Size: Solid
Sample No.: Ward49
Owner: JPL
Wavelength Range: All
Origin: Ward's Collection of American Rocks.  Sample locality - near Olean, Cattaraugus County, New York.
Description: The rock is composed principally of sub-angular and roundedpebbles of milky quartz of various size, cemented by a siliceous cementwhich is usually coated with clay material.Geologic age - Pennsylvanian.Collected by:  Ward's Natural Science Original ASTER Spectral Library name was jpl.nicolet.rock.sedimentary.conglomerate.solid.ward49.spectrum.txt
Measurement: Hemispherical reflectance
X Units: Wavelength (micrometers)
Y Units: Reflectance (percent)
wavelength	value
15.3871	3.68
15.118	3.8484
14.8581	4.2872
14.6069	4.625
14.3642	4.5776
14.1293	3.8176
13.9021	4.505
13.682	5.201
13.4687	5.5919
13.2621	6.2572
13.0616	7.5321
12.8672	12.2589
12.6784	9.714
12.4951	11.6176
12.317	1.8404
12.1439	2.3139
11.9757	3.4423
11.812	3.9935
11.6527	4.8855
11.4977	5.1334
11.3468	5.67
11.1997	5.9757
11.0564	6.3481
10.9168	6.652
10.7806	6.9218
10.6478	7.2447
10.5182	7.7366
10.3917	8.0758
10.2683	8.8683
10.1477	9.5805
10.0299	10.6904
9.9148	12.027
9.8024	12.8745
9.6925	15.1304
9.585	18.3234
9.4798	23.3205
9.377	35.1378
9.2763	44.1621
9.1778	45.1123
9.0814	44.906
8.987	43.2965
8.8945	44.3449
8.8039	43.2469
8.7151	40.3288
8.6281	28.6959
8.5428	41.6253
8.4592	43.2639
8.3772	43.8844
8.2967	44.4109
8.2179	44.1264
8.1404	37.3844
8.0645	25.4782
7.9899	17.1197
7.9167	10.3697
7.8449	6.2949
7.7743	4.3165
7.705	2.714
7.6369	1.7502
7.57	1.0581
7.5043	0.9231
7.4397	0.8433
7.3762	0.751
7.3138	0.6866
7.2524	0.6272
7.1921	0.6078
7.1327	0.6995
7.0743	0.7175
7.0169	0.9449
6.9604	0.9797
6.9047	1.1606
6.85	1.0064
6.7962	1.1802
6.7431	1.2038
6.6909	1.3317
6.6395	1.4072
6.5889	1.3643
6.539	1.4669
6.49	1.5041
6.4416	1.5302
6.3939	1.4856
6.347	1.559
6.3007	1.548
6.2551	1.5272
6.2101	1.5417
6.1658	1.5764
6.1222	1.7701
6.0791	1.7321
6.0366	1.829
5.9948	1.8118
5.9535	1.719
5.9127	1.8857
5.8726	1.9434
5.8329	2.0558
5.7938	2.1821
5.7552	2.3039
5.7172	2.4406
5.6796	2.4665
5.6425	2.3691
5.6059	2.4108
5.5698	2.2239
5.5341	2.3147
5.4989	2.4209
5.4641	2.4556
5.4298	2.5612
5.3959	2.4238
5.3624	2.2442
5.3294	2.332
5.2967	2.4273
5.2644	2.4724
5.2326	2.6919
5.2011	2.6956
5.17	2.7431
5.1392	2.8279
5.1088	2.7953
5.0788	2.8708
5.0491	2.9216
5.0198	2.9497
4.9908	2.9903
4.9622	3.2533
4.9338	3.3267
4.9058	3.7657
4.8781	4.6551
4.8508	5.6396
4.8237	6.5256
4.7969	7.2834
4.7704	7.9397
4.7443	8.5905
4.7184	8.6853
4.6927	7.575
4.6674	8.0478
4.6423	9.5563
4.6175	11.2075
4.593	11.9886
4.5687	12.002
4.5447	10.8829
4.5209	8.9964
4.4974	7.2626
4.4741	6.9178
4.451	7.1438
4.4282	7.63
4.4057	8.453
4.3833	9.7257
4.3612	11.222
4.3393	12.435
4.3176	12.5286
4.2962	11.7288
4.2749	11.6359
4.2539	12.8153
4.233	12.334
4.2124	13.3077
4.192	13.85
4.1717	14.6037
4.1517	15.4059
4.1319	16.1527
4.1122	16.9951
4.0927	18.3769
4.0734	19.1463
4.0543	19.4301
4.0354	19.3166
4.0166	19.0585
3.9981	19.032
3.9796	19.8757
3.9614	20.5815
3.9433	21.6148
3.9254	22.3337
3.9077	22.4022
3.8901	21.7691
3.8726	21.2443
3.8554	20.758
3.8382	21.2559
3.8213	21.7219
3.8045	22.0395
3.7878	21.8567
3.7713	21.3952
3.7549	20.5456
3.7386	20.5187
3.7225	20.7882
3.7066	21.8692
3.6907	22.9744
3.675	24.3241
3.6595	24.969
3.644	25.2985
3.6287	25.2584
3.6136	25.0156
3.5985	25.096
3.5836	24.9897
3.5688	25.0584
3.5541	25.1602
3.5396	25.2387
3.5251	24.964
3.5108	24.9082
3.4966	24.649
3.4825	24.1913
3.4685	24.1228
3.4547	23.6559
3.4409	23.2684
3.4273	22.3906
3.4137	21.6973
3.4003	20.9425
3.387	20.584
3.3738	19.8194
3.3606	19.2601
3.3476	18.6585
3.3347	18.2598
3.3219	17.6063
3.3092	16.8682
3.2965	16.5159
3.284	15.4556
3.2716	15.4348
3.2593	14.5176
3.247	14.0226
3.2348	13.7171
3.2228	13.4789
3.2108	12.782
3.1989	12.2402
3.1871	11.7277
3.1754	11.3567
3.1638	10.9369
3.1523	10.4988
3.1408	10.2294
3.1294	9.9348
3.1181	9.5346
3.1069	9.5818
3.0958	8.9958
3.0848	9.0956
3.0738	8.6466
3.0629	8.686
3.0521	8.2019
3.0413	9.0771
3.0307	8.5797
3.0201	8.5014
3.0096	8.2467
2.9991	8.4339
2.9887	9.0783
2.9784	8.792
2.9682	7.7113
2.9581	7.9101
2.948	8.1054
2.9379	8.3572
2.928	7.7527
2.9181	8.6014
2.9083	8.5132
2.8985	8.4366
2.8888	9.113
2.8792	8.8351
2.8697	8.9908
2.8602	9.4338
2.8507	10.0278
2.8413	10.1524
2.832	10.003
2.8228	10.3629
2.8136	10.7191
2.8045	11.2262
2.7954	10.8817
2.7864	11.5533
2.7774	11.5132
2.7685	10.468
2.7597	10.4698
2.7509	11.6571
2.7422	12.6449
2.7335	13.7637
2.7249	17.3179
2.7163	19.2606
2.7078	19.6316
2.6994	22.6655
2.691	26.819
2.6826	32.8544
2.6743	35.9279
2.666	38.1949
2.6578	39.7399
2.6497	40.9483
2.6416	42.0528
2.6336	42.683
2.6256	43.4165
2.6176	44.3041
2.6097	44.2852
2.6018	44.6561
2.594	45.3328
2.5863	45.1494
2.5785	45.0506
2.5709	46.5067
2.5633	46.3589
2.5557	46.4763
2.5481	47.2231
2.5406	47.4786
2.5332	47.2962
2.5258	47.4798
2.5184	47.9137
2.5111	48.0965
2.5038	48.3117
2.4966	48.8413
2.4894	48.8261
2.4823	49.1075
2.4752	49.6135
2.4681	49.9926
2.4611	50.3489
2.4541	51.3591
2.4471	51.05
2.4402	51.1416
2.4333	52.3881
2.4265	52.8133
2.4197	52.6693
2.413	53.7073
2.4063	53.8436
2.3996	54.0376
2.3929	53.3961
2.3863	53.2202
2.3798	53.6426
2.3732	54.1656
2.3667	54.9203
2.3603	55.2273
2.3538	54.7064
2.3474	55.3901
2.3411	55.7238
2.3347	56.7234
2.3285	56.3891
2.3222	56.9435
2.316	57.6978
2.3098	57.5786
2.3036	57.4264
2.2975	58.4253
2.2914	57.6877
2.2854	59.2012
2.2793	58.8864
2.2733	59.7851
2.2674	59.9585
2.2614	59.3793
2.2555	59.4913
2.2497	59.7219
2.2438	59.2317
2.238	59.6288
2.2322	58.5664
2.2265	59.6442
2.2208	58.5793
2.2151	56.2741
2.2094	52.9134
2.2038	55.3991
2.1982	56.8972
2.1926	56.4594
2.187	55.9366
2.1815	56.0165
2.176	56.2818
2.1706	56.7122
2.1651	57.9974
2.1597	58.748
2.1543	59.6411
2.149	59.3013
2.1436	59.892
2.1383	60.0464
2.1331	61.8584
2.1278	60.5691
2.1226	59.8819
2.1174	60.9693
2.1122	60.3881
2.1071	60.7317
2.1019	60.9852
2.0968	60.7351
2.0918	60.4303
2.0867	60.4581
2.0817	60.6596
2.0767	60.5238
2.0717	60.2772
2.0667	60.7198
2.0618	60.2531
2.0569	59.5348
2.052	58.8074
2.0472	58.4421
2.0423	58.9494
2.0375	60.399
2.0327	59.723
2.028	59.3015
2.0232	58.1467
2.0185	58.2999
2.0138	57.7797
2.0091	58.5886
2.0044	57.172
1.9998	58.0903
