Name: Limestone CaCO3
Type: Rock
Class: Sedimentary
Subclass: Limestone
Particle Size: Solid
Sample No.: ro357
Owner: Larry Rowan, USGS
Wavelength Range: All
Origin: Ronda, Spain
Description: gray limestone with white calcite veinsSample was Whole rock chips. Original ASTER Spectral Library name was usgs.perknic.rock.sedimentary.limestone.solid.ls357.spectrum.txt
Measurement: Reflectance
X Units: Wavelength (micrometers)
Y Units: Reflectance (percent)
wavelength	value
0.4	0.294
0.408	0.293
0.416	0.293
0.424	0.293
0.432	0.297
0.44	0.3
0.448	0.303
0.456	0.303
0.464	0.3
0.472	0.303
0.48	0.303
0.488	0.306
0.496	0.306
0.504	0.31
0.512	0.311
0.52	0.315
0.528	0.314
0.536	0.322
0.544	0.325
0.552	0.325
0.56	0.332
0.568	0.335
0.576	0.338
0.584	0.337
0.592	0.341
0.6	0.339
0.608	0.335
0.616	0.335
0.624	0.336
0.632	0.341
0.64	0.341
0.648	0.337
0.656	0.342
0.664	0.341
0.672	0.341
0.68	0.342
0.688	0.343
0.696	0.342
0.704	0.339
0.712	0.337
0.72	0.338
0.728	0.342
0.736	0.341
0.744	0.338
0.752	0.338
0.76	0.339
0.768	0.339
0.776	0.339
0.784	0.337
0.792	0.341
0.8	0.343
0.832	0.342
0.864	0.339
0.896	0.339
0.928	0.336
0.96	0.335
0.992	0.335
1.024	0.333
1.056	0.336
1.088	0.331
1.12	0.331
1.152	0.332
1.184	0.328
1.216	0.327
1.248	0.327
1.28	0.326
1.312	0.324
1.344	0.324
1.376	0.32
1.408	0.315
1.44	0.315
1.472	0.314
1.504	0.317
1.536	0.315
1.568	0.314
1.6	0.315
1.632	0.313
1.664	0.315
1.696	0.313
1.728	0.313
1.76	0.309
1.792	0.309
1.824	0.308
1.856	0.304
1.888	0.294
1.92	0.286
1.952	0.282
1.984	0.284
2.016	0.294
2.048	0.295
2.08	0.295
2.1021	0.2969
2.109	0.2983
2.1159	0.3009
2.1228	0.2958
2.1298	0.2956
2.1368	0.2916
2.1438	0.2915
2.1509	0.295
2.1581	0.2896
2.1653	0.2911
2.1726	0.2913
2.1799	0.2904
2.1872	0.297
2.1946	0.2927
2.2021	0.2889
2.2096	0.2859
2.2172	0.2877
2.2248	0.2848
2.2324	0.285
2.2401	0.2809
2.2479	0.2789
2.2557	0.2757
2.2636	0.2664
2.2715	0.2616
2.2795	0.2539
2.2876	0.2443
2.2957	0.2377
2.3038	0.234
2.3121	0.2299
2.3203	0.2226
2.3287	0.2157
2.3371	0.211
2.3455	0.2133
2.354	0.2277
2.3626	0.2475
2.3712	0.2563
2.38	0.2674
2.3887	0.2657
2.3976	0.2664
2.4065	0.2637
2.4154	0.2661
2.4245	0.2568
2.4336	0.2532
2.4427	0.2435
2.452	0.2376
2.4613	0.2237
2.4707	0.2109
2.4801	0.1987
2.4896	0.1891
2.4992	0.1852
2.5089	0.1827
2.5187	0.175
2.5285	0.1611
2.5384	0.1586
2.5484	0.1798
2.5584	0.2067
2.5686	0.2266
2.5788	0.2327
2.5891	0.2421
2.5995	0.2471
2.6099	0.2467
2.6205	0.25
2.6311	0.2512
2.6418	0.2482
2.6526	0.2434
2.6635	0.2378
2.6745	0.2281
2.6856	0.2059
2.6968	0.1601
2.708	0.1515
2.7194	0.1281
2.7309	0.114
2.7424	0.0986
2.7541	0.0912
2.7658	0.0836
2.7777	0.0819
2.7896	0.0824
2.8017	0.0816
2.8138	0.0803
2.8261	0.0786
2.8385	0.0766
2.851	0.0715
2.8636	0.071
2.8763	0.067
2.8891	0.0673
2.902	0.0671
2.915	0.0643
2.9282	0.0666
2.9415	0.0671
2.9549	0.0678
2.9684	0.0665
2.9821	0.0679
2.9959	0.0666
3.0098	0.0677
3.0238	0.0668
3.038	0.0676
3.0523	0.0682
3.0667	0.0692
3.0813	0.0686
3.096	0.0688
3.1109	0.0694
3.1259	0.0721
3.141	0.0733
3.1563	0.075
3.1718	0.0784
3.1874	0.0805
3.2031	0.0811
3.219	0.0819
3.2351	0.0803
3.2513	0.0795
3.2677	0.0773
3.2843	0.0754
3.301	0.0734
3.3179	0.0675
3.3349	0.0552
3.3522	0.0476
3.3696	0.0484
3.3872	0.0489
3.405	0.0481
3.423	0.05
3.4412	0.0519
3.4595	0.0489
3.4781	0.0456
3.4968	0.0491
3.5158	0.0535
3.535	0.0667
3.5544	0.0773
3.574	0.082
3.5938	0.0963
3.6138	0.1046
3.6341	0.1093
3.6545	0.1147
3.6753	0.1155
3.6962	0.1151
3.7174	0.1121
3.7389	0.1051
3.7605	0.0981
3.7825	0.0857
3.8047	0.064
3.8272	0.0549
3.8499	0.0529
3.8729	0.0515
3.8962	0.0493
3.9197	0.0482
3.9436	0.0454
3.9677	0.0422
3.9921	0.0447
4.0169	0.0501
4.0419	0.0606
4.0673	0.0698
4.093	0.0784
4.119	0.086
4.1453	0.0939
4.172	0.099
4.199	0.1023
4.2264	0.1021
4.2541	0.0979
4.2822	0.0979
4.3107	0.0996
4.3395	0.1014
4.3688	0.106
4.3984	0.1053
4.4285	0.1006
4.4589	0.0922
4.4898	0.0839
4.5211	0.081
4.5529	0.0795
4.5851	0.0781
4.6177	0.0707
4.6509	0.0591
4.6845	0.0594
4.7186	0.0729
4.7532	0.086
4.7883	0.0896
4.8239	0.0898
4.8601	0.0884
4.8968	0.0848
4.9341	0.082
4.9719	0.0805
5.0103	0.0786
5.0493	0.0778
5.089	0.0634
5.1292	0.0733
5.1702	0.071
5.2117	0.0668
5.254	0.0606
5.2969	0.0557
5.3405	0.0503
5.3849	0.0463
5.43	0.0409
5.4759	0.0345
5.5225	0.0271
5.57	0.023
5.6182	0.0277
5.6673	0.0259
5.7173	0.0237
5.7682	0.0224
5.82	0.0221
5.8727	0.022
5.9264	0.0207
5.9811	0.0196
6.0368	0.0192
6.0935	0.0214
6.1513	0.0233
6.2103	0.0302
6.2703	0.0475
6.3316	0.0853
6.394	0.1862
6.4577	0.3302
6.5227	0.338
6.589	0.3149
6.6566	0.2841
6.7257	0.255
6.7962	0.2331
6.8682	0.2172
6.9418	0.2041
7.0169	0.2029
7.0937	0.1852
7.1722	0.1324
7.2524	0.102
7.3345	0.0913
7.4184	0.0833
7.5043	0.0753
7.5922	0.073
7.6821	0.0772
7.7743	0.0772
7.8686	0.0758
7.9653	0.0752
8.0644	0.0731
8.166	0.0756
8.2701	0.0737
8.377	0.0686
8.4867	0.0662
8.5992	0.0632
8.7149	0.0717
8.8336	0.0747
8.9556	0.0732
9.0811	0.0731
9.2101	0.0647
9.3428	0.0659
9.4795	0.0627
9.6201	0.0612
9.765	0.0586
9.9144	0.0563
10.0684	0.0541
10.2272	0.0552
10.3911	0.0574
10.5604	0.0571
10.7353	0.0591
10.9161	0.064
11.103	0.0795
11.2965	0.1718
11.4968	0.0696
11.7044	0.0533
11.9196	0.0509
12.1429	0.0498
12.3747	0.0482
12.6155	0.0448
12.8659	0.0439
13.1264	0.0457
13.3977	0.0441
13.6804	0.035
13.9753	0.0364
