Name: Siltstone
Type: rock
Class: Sedimentary
Subclass: Siltstone
Particle Size: Fine
Sample No.: siltstone_1
Owner: JHU
Wavelength Range: All
Origin: Sample No. 455,  The Hunt and Salisbury Collection at the U.S.Geological Survey, Denver, Co.
Description: This is a very fine-grained, lineated/laminated sample consisting of brownish clay and very fine quartz particles (about equal amounts), along with tiny slivers of another phase (feldspar?). There are abundant small flecks and discontinuous lenses of carbonaceous and opaque material present as well.Particle size was 0 - 75 Micrometers. Original ASTER Spectral Library name was jhu.becknic.rock.sedimentary.siltstone.fine.siltst1.spectrum.txt
Measurement: Directional (10 Degree) Hemispherical Reflectance
X Units: Wavelength (micrometers)
Y Units: Reflectance (percent)
wavelength	value
14.983	1.9814
14.645	2.3727
14.321	2.6123
14.011	2.2386
13.715	1.5658
13.43	1.6816
13.158	1.6826
12.896	1.7489
12.644	1.7617
12.402	3.6766
12.169	6.2714
11.945	7.3588
11.729	7.3735
11.52	6.8115
11.319	6.5899
11.125	5.9758
10.937	4.9914
10.755	4.1064
10.58	3.3258
10.41	2.6786
10.245	2.4101
10.086	2.3459
9.9313	2.3243
9.7814	2.2339
9.636	2.3566
9.4948	2.0868
9.3577	1.9173
9.2245	1.895
9.095	1.7787
8.9691	1.7316
8.8467	1.7323
8.7275	1.9246
8.6116	2.1614
8.4986	2.465
8.3886	2.798
8.2814	2.9448
8.1769	2.7049
8.075	2.3175
7.9756	2.1723
7.8786	2.2116
7.784	2.5605
7.6916	2.9907
7.6014	3.5357
7.5133	4.2094
7.4272	4.8301
7.343	5.5062
7.2607	6.3862
7.1803	7.1819
7.1016	7.7811
7.0246	7.8722
6.9493	8.3764
6.8755	9.4788
6.8034	10.731
6.7327	11.933
6.6634	12.991
6.5956	13.834
6.5292	14.642
6.464	15.18
6.4002	14.889
6.3376	14.1
6.2762	13.191
6.216	12.027
6.157	11.099
6.099	11.278
6.0421	12.361
5.9863	14.333
5.9315	15.753
5.8777	16.816
5.8249	17.701
5.773	17.765
5.722	17.699
5.6719	17.656
5.6227	18.084
5.5744	18.552
5.5268	20.431
5.4801	22.366
5.4341	23.854
5.3889	25.19
5.3445	25.935
5.3008	26.905
5.2578	28.132
5.2154	29.732
5.1738	31.72
5.1328	33.466
5.0925	35.335
5.0528	36.676
5.0137	37.347
4.9752	38.426
4.9373	39.591
4.9	39.732
4.8632	40.645
4.827	41.381
4.7913	41.277
4.7561	41.823
4.7215	42.707
4.6873	43.328
4.6536	44.002
4.6205	45.118
4.5877	46.267
4.5555	47.392
4.5237	48.51
4.4923	49.521
4.4614	50.509
4.4309	51.316
4.4008	52.024
4.3711	52.758
4.3418	53.491
4.3129	54.15
4.2844	54.739
4.2563	55.287
4.2285	55.726
4.2011	56.15
4.174	56.404
4.1473	56.682
4.1209	56.902
4.0949	57.051
4.0692	57.159
4.0438	57.18
4.0187	57.052
3.994	56.681
3.9695	56.58
3.9453	56.847
3.9214	56.93
3.8979	56.834
3.8746	56.671
3.8515	56.489
3.8288	56.328
3.8063	56.127
3.7841	55.837
3.7621	55.448
3.7404	55.005
3.7189	54.559
3.6977	54.064
3.6767	53.528
3.656	52.956
3.6355	52.294
3.6152	51.565
3.5951	50.77
3.5753	49.876
3.5557	48.856
3.5363	47.676
3.5171	46.454
3.4981	45.589
3.4793	45.508
3.4607	44.858
3.4423	43.92
3.4241	43.237
3.4061	42.382
3.3883	41.293
3.3707	40.237
3.3533	39.242
3.336	38.396
3.3189	37.342
3.302	36.283
3.2853	35.169
3.2687	34.183
3.2523	33.287
3.2361	32.469
3.22	31.621
3.204	30.605
3.1883	29.458
3.1727	28.261
3.1572	27.086
3.1419	25.969
3.1268	24.909
3.1117	23.961
3.0969	23.162
3.0821	22.427
3.0675	21.914
3.0531	21.429
3.0388	20.964
3.0246	20.425
3.0105	19.878
2.9966	19.294
2.9828	18.645
2.9692	18.146
2.9556	17.767
2.9422	17.594
2.9289	17.45
2.9157	17.499
2.9027	17.685
2.8897	17.826
2.8769	17.974
2.8642	17.837
2.8516	17.199
2.8391	16.235
2.8267	15.233
2.8144	14.335
2.8022	13.705
2.7902	13.762
2.7782	14.314
2.7664	14.913
2.7546	16.452
2.7429	19.762
2.7314	24.499
2.7199	29.754
2.7085	38.787
2.6973	44.718
2.6861	49.387
2.675	51.216
2.664	52.372
2.6531	53.893
2.6423	54.467
2.6315	54.039
2.6209	54.175
2.6103	54.51
2.5999	54.395
2.5895	54.413
2.5792	54.667
2.569	54.766
2.5588	54.854
2.5487	55
2.5388	55.098
2.5289	55.076
2.519	55.086
2.5093	55.058
2.4996	55.033
2.49	55.002
2.4805	55.053
2.471	55.011
2.4616	54.986
2.4523	55.005
2.4431	55.019
2.4339	54.998
2.4248	55.022
2.4157	55.009
2.4068	54.959
2.3979	54.879
2.389	54.831
2.3802	54.712
2.3715	54.693
2.3629	54.575
2.3543	54.476
2.3458	54.407
2.3373	54.375
2.3289	54.361
2.3206	54.212
2.3123	54.155
2.3041	54.18
2.2959	54.184
2.2878	54.361
2.2798	54.564
2.2718	54.602
2.2638	54.536
2.2559	54.419
2.2481	54.359
2.2403	54.388
2.2326	54.378
2.225	54.373
2.2173	54.315
2.2098	54.362
2.2023	54.382
2.1948	54.428
2.1874	54.42
2.18	54.523
2.1727	54.459
2.1655	54.381
2.1583	54.378
2.1511	54.261
2.144	54.288
2.1369	54.159
2.1299	54.097
2.1229	53.988
2.116	53.93
2.1091	53.904
2.1023	53.832
2.0955	53.854
2.0887	53.75
2.082	53.726
2.06	53.11
2.028	52.383
1.996	51.264
1.964	49.969
1.932	48.799
1.9	49.522
1.868	48.938
1.836	50.11
1.804	49.394
1.772	48.872
1.74	48.262
1.708	48.439
1.676	47.92
1.644	47.11
1.612	47.099
1.58	46.847
1.548	46.645
1.516	46.239
1.484	45.566
1.452	45.187
1.42	44.759
1.388	44.705
1.356	43.891
1.324	44.201
1.292	43.839
1.26	43.711
1.228	43.711
1.196	43.525
1.164	42.725
1.132	42.837
1.1	42.448
1.068	43.025
1.036	42.853
1.004	42.709
0.972	42.301
0.94	41.529
0.908	40.677
0.876	40.18
0.844	40.223
0.812	40.532
0.795	39.615
0.787	39.398
0.779	39.371
0.771	38.951
0.763	38.658
0.755	38.271
0.747	38.336
0.739	38.071
0.731	37.763
0.723	37.098
0.715	36.792
0.707	36.626
0.699	36.371
0.691	36.248
0.683	35.951
0.675	35.349
0.667	35.487
0.659	35.016
0.651	34.949
0.643	34.613
0.635	34.311
0.627	34.107
0.619	33.664
0.611	33.4
0.603	32.78
0.595	32.403
0.587	31.894
0.579	31.44
0.571	30.86
0.563	30.15
0.555	29.493
0.547	29.256
0.539	28.861
0.531	28.871
0.523	28.126
0.515	27.804
0.507	27.412
0.499	27.39
0.491	26.895
0.483	26.699
0.475	26.356
0.467	25.847
0.459	25.56
0.451	25.419
0.443	24.686
0.435	23.795
0.427	23.309
0.419	22.815
0.411	22.013
0.403	21.607
