Name: Dolomite  CaMgCO3
Type: Rock
Class: Sedimentary
Subclass: dolomite
Particle Size: Solid
Sample No.: ro350c
Owner: Larry Rowan, USGS
Wavelength Range: All
Origin: Ronda, Spain
Description: white dolomiteSample was Whole rock chips. Original ASTER Spectral Library name was usgs.perknic.rock.sedimentary.dolomite.solid.dm350c.spectrum.txt
Measurement: Reflectance
X Units: Wavelength (micrometers)
Y Units: Reflectance (percent)
wavelength	value
0.4	0.361
0.408	0.366
0.416	0.371
0.424	0.38
0.432	0.3903
0.44	0.3987
0.448	0.405
0.456	0.4087
0.464	0.4107
0.472	0.414
0.48	0.419
0.488	0.422
0.496	0.4317
0.504	0.437
0.512	0.442
0.52	0.4527
0.528	0.458
0.536	0.4657
0.544	0.47
0.552	0.476
0.56	0.483
0.568	0.4893
0.576	0.494
0.584	0.4973
0.592	0.501
0.6	0.503
0.608	0.5033
0.616	0.505
0.624	0.5123
0.632	0.513
0.64	0.516
0.648	0.5203
0.656	0.5247
0.664	0.5267
0.672	0.5303
0.68	0.5333
0.688	0.5337
0.696	0.5403
0.704	0.5413
0.712	0.5443
0.72	0.5463
0.728	0.551
0.736	0.552
0.744	0.554
0.752	0.5553
0.76	0.557
0.768	0.5613
0.776	0.5573
0.784	0.5593
0.792	0.56
0.8	0.564
0.832	0.5667
0.864	0.5713
0.896	0.5757
0.928	0.5787
0.96	0.5823
0.992	0.585
1.024	0.5813
1.056	0.59
1.088	0.5963
1.12	0.6013
1.152	0.6087
1.184	0.6113
1.216	0.6127
1.248	0.614
1.28	0.623
1.312	0.6323
1.344	0.6283
1.376	0.609
1.408	0.597
1.44	0.5953
1.472	0.6053
1.504	0.6147
1.536	0.6283
1.568	0.6393
1.6	0.6423
1.632	0.6427
1.664	0.6403
1.696	0.6347
1.728	0.6313
1.76	0.6363
1.792	0.629
1.824	0.605
1.856	0.579
1.888	0.5447
1.92	0.506
1.952	0.5067
1.984	0.5267
2.016	0.563
2.048	0.5757
2.08	0.578
2.1021	0.562
2.109	0.5655
2.1159	0.5541
2.1228	0.5501
2.1298	0.5399
2.1368	0.533
2.1438	0.5329
2.1509	0.5321
2.1581	0.5399
2.1653	0.5448
2.1726	0.5447
2.1799	0.5445
2.1872	0.5421
2.1946	0.5297
2.2021	0.5171
2.2096	0.5051
2.2172	0.4934
2.2248	0.4808
2.2324	0.4687
2.2401	0.4461
2.2479	0.4256
2.2557	0.3979
2.2636	0.3776
2.2715	0.3621
2.2795	0.3548
2.2876	0.3434
2.2957	0.3333
2.3038	0.3196
2.3121	0.3091
2.3203	0.3035
2.3287	0.3055
2.3371	0.3302
2.3455	0.3681
2.354	0.4196
2.3626	0.4509
2.3712	0.4625
2.38	0.4543
2.3887	0.4473
2.3976	0.4348
2.4065	0.4249
2.4154	0.4096
2.4245	0.3832
2.4336	0.3564
2.4427	0.3279
2.452	0.3029
2.4613	0.289
2.4707	0.2809
2.4801	0.2712
2.4896	0.2535
2.4992	0.239
2.5089	0.2302
2.5187	0.2256
2.5285	0.2381
2.5384	0.2708
2.5484	0.3257
2.5584	0.3677
2.5686	0.3951
2.5788	0.4137
2.5891	0.4242
2.5995	0.4294
2.6099	0.4294
2.6205	0.4256
2.6311	0.4161
2.6418	0.4066
2.6526	0.3938
2.6635	0.3757
2.6745	0.3481
2.6856	0.3099
2.6968	0.2791
2.708	0.2414
2.7194	0.1926
2.7309	0.1783
2.7424	0.1573
2.7541	0.1403
2.7658	0.1275
2.7777	0.1227
2.7896	0.1202
2.8017	0.1159
2.8138	0.1126
2.8261	0.1068
2.8385	0.1037
2.851	0.0993
2.8636	0.0958
2.8763	0.0932
2.8891	0.09
2.902	0.089
2.915	0.0873
2.9282	0.0865
2.9415	0.0864
2.9549	0.0851
2.9684	0.0864
2.9821	0.0861
2.9959	0.0862
3.0098	0.0884
3.0238	0.0888
3.038	0.0883
3.0523	0.0888
3.0667	0.09
3.0813	0.0906
3.096	0.093
3.1109	0.096
3.1259	0.0985
3.141	0.1015
3.1563	0.1074
3.1718	0.1124
3.1874	0.1159
3.2031	0.1183
3.219	0.1183
3.2351	0.119
3.2513	0.116
3.2677	0.1092
3.2843	0.096
3.301	0.0609
3.3179	0.0605
3.3349	0.0603
3.3522	0.0586
3.3696	0.0639
3.3872	0.0601
3.405	0.0577
3.423	0.0542
3.4412	0.0492
3.4595	0.0493
3.4781	0.0512
3.4968	0.0643
3.5158	0.094
3.535	0.123
3.5544	0.1362
3.574	0.1588
3.5938	0.1715
3.6138	0.1776
3.6341	0.1798
3.6545	0.1786
3.6753	0.1734
3.6962	0.1598
3.7174	0.1456
3.7389	0.1226
3.7605	0.0849
3.7825	0.0658
3.8047	0.0556
3.8272	0.0637
3.8499	0.0579
3.8729	0.0503
3.8962	0.0476
3.9197	0.0427
3.9436	0.0402
3.9677	0.0396
3.9921	0.0516
4.0169	0.0715
4.0419	0.0948
4.0673	0.1157
4.093	0.1324
4.119	0.141
4.1453	0.1446
4.172	0.1577
4.199	0.1604
4.2264	0.1504
4.2541	0.1413
4.2822	0.1359
4.3107	0.1427
4.3395	0.1609
4.3688	0.1698
4.3984	0.1501
4.4285	0.131
4.4589	0.1384
4.4898	0.1437
4.5211	0.123
4.5529	0.1127
4.5851	0.0974
4.6177	0.0872
4.6509	0.0887
4.6845	0.1145
4.7186	0.1401
4.7532	0.152
4.7883	0.1554
4.8239	0.1565
4.8601	0.156
4.8968	0.1535
4.9341	0.1501
4.9719	0.1456
5.0103	0.1392
5.0493	0.1081
5.089	0.1155
5.1292	0.1147
5.1702	0.1034
5.2117	0.0914
5.254	0.0778
5.2969	0.0668
5.3405	0.0598
5.3849	0.0495
5.43	0.0353
5.4759	0.0237
5.5225	0.0229
5.57	0.0234
5.6182	0.0266
5.6673	0.0264
5.7173	0.0239
5.7682	0.023
5.82	0.0219
5.8727	0.0202
5.9264	0.0183
5.9811	0.0166
6.0368	0.0166
6.0935	0.0184
6.1513	0.0255
6.2103	0.0394
6.2703	0.0739
6.3316	0.1816
6.394	0.2744
6.4577	0.281
6.5227	0.2544
6.589	0.2237
6.6566	0.1932
6.7257	0.1742
6.7962	0.1616
6.8682	0.1526
6.9418	0.1499
7.0169	0.1479
7.0937	0.1062
7.1722	0.0869
7.2524	0.0777
7.3345	0.0746
7.4184	0.0727
7.5043	0.0702
7.5922	0.0695
7.6821	0.0667
7.7743	0.0672
7.8686	0.067
7.9653	0.0641
8.0644	0.0612
8.166	0.0617
8.2701	0.0649
8.377	0.058
8.4867	0.0594
8.5992	0.0609
8.7149	0.0611
8.8336	0.064
8.9556	0.0663
9.0811	0.0588
9.2101	0.0645
9.3428	0.0658
9.4795	0.068
9.6201	0.0647
9.765	0.0646
9.9144	0.0619
10.0684	0.0619
10.2272	0.0656
10.3911	0.0694
10.5604	0.0694
10.7353	0.0728
10.9161	0.0799
11.103	0.1557
11.2965	0.1139
11.4968	0.0597
11.7044	0.049
11.9196	0.064
12.1429	0.0623
12.3747	0.0588
12.6155	0.0543
12.8659	0.0509
13.1264	0.0437
13.3977	0.0315
13.6804	0.0328
13.9753	0.0308
