Name: Arenaceous Shale
Type: Rock
Class: Sedimentary
Subclass: Shale
Particle Size: Solid
Sample No.: Ward53
Owner: JPL
Wavelength Range: All
Origin: Ward's Collection of American Rocks.  Sample locality - Greene County, New York.
Description: A dark gray, gritty rock with irregular shaly partings.Geologic age - Devonian.Collected by:  Ward's Natural Science Original ASTER Spectral Library name was jpl.nicolet.rock.sedimentary.shale.solid.ward53.spectrum.txt
Measurement: Hemispherical reflectance
X Units: Wavelength (micrometers)
Y Units: Reflectance (percent)
wavelength	value
15.3871	3.7322
15.118	3.6851
14.8581	4.1473
14.6069	4.4052
14.3642	3.9156
14.1293	3.8015
13.9021	4.1709
13.682	4.9631
13.4687	5.4262
13.2621	5.7001
13.0616	6.1857
12.8672	7.3414
12.6784	5.996
12.4951	6.0489
12.317	3.3163
12.1439	4.5671
11.9757	4.8783
11.812	5.257
11.6527	5.8293
11.4977	6.6194
11.3468	6.991
11.1997	7.5609
11.0564	8.0659
10.9168	8.3031
10.7806	8.1381
10.6478	8.8189
10.5182	9.5095
10.3917	11.2722
10.2683	12.9592
10.1477	14.6745
10.0299	15.7871
9.9148	16.8758
9.8024	17.7823
9.6925	19.1467
9.585	19.8752
9.4798	20.2422
9.377	22.724
9.2763	23.7294
9.1778	22.8752
9.0814	21.934
8.987	21.3154
8.8945	20.7997
8.8039	20.1296
8.7151	18.7546
8.6281	14.4079
8.5428	17.994
8.4592	17.2582
8.3772	15.6626
8.2967	14.8666
8.2179	14.1232
8.1404	12.7334
8.0645	9.9516
7.9899	8.5072
7.9167	6.9851
7.8449	6.2805
7.7743	6.0236
7.705	6.222
7.6369	5.8797
7.57	5.7322
7.5043	6.0159
7.4397	5.7513
7.3762	5.6521
7.3138	5.2273
7.2524	4.8132
7.1921	4.5643
7.1327	4.4582
7.0743	4.8951
7.0169	5.1752
6.9604	5.0921
6.9047	5.0234
6.85	5.2986
6.7962	5.656
6.7431	5.8132
6.6909	6.0078
6.6395	6.5203
6.5889	6.4678
6.539	6.3114
6.49	6.6948
6.4416	6.5375
6.3939	5.9319
6.347	5.0452
6.3007	4.1505
6.2551	3.3889
6.2101	3.0955
6.1658	3.1388
6.1222	2.9466
6.0791	3.0065
6.0366	3.0803
5.9948	3.072
5.9535	3.0269
5.9127	2.9973
5.8726	3.2568
5.8329	3.3323
5.7938	3.503
5.7552	3.7013
5.7172	3.7538
5.6796	3.8001
5.6425	3.7465
5.6059	3.5048
5.5698	3.5015
5.5341	3.5727
5.4989	3.601
5.4641	3.9556
5.4298	3.8988
5.3959	3.7198
5.3624	3.5715
5.3294	3.6206
5.2967	3.6809
5.2644	3.879
5.2326	4.1284
5.2011	4.3935
5.17	4.3028
5.1392	4.4353
5.1088	4.6058
5.0788	4.4043
5.0491	4.4424
5.0198	4.4454
4.9908	4.5457
4.9622	4.779
4.9338	4.9402
4.9058	5.3164
4.8781	5.8391
4.8508	5.9015
4.8237	6.2193
4.7969	6.2939
4.7704	6.3008
4.7443	6.489
4.7184	6.4002
4.6927	6.6356
4.6674	6.5223
4.6423	6.6739
4.6175	6.9834
4.593	6.9575
4.5687	7.0758
4.5447	7.214
4.5209	7.1921
4.4974	7.0064
4.4741	7.0307
4.451	7.0982
4.4282	7.3363
4.4057	7.4409
4.3833	7.544
4.3612	7.793
4.3393	7.8102
4.3176	7.4583
4.2962	7.4008
4.2749	7.222
4.2539	7.66
4.233	7.2936
4.2124	7.7027
4.192	8.0375
4.1717	8.1227
4.1517	8.0783
4.1319	8.3521
4.1122	8.1896
4.0927	8.3781
4.0734	8.2163
4.0543	8.297
4.0354	8.1123
4.0166	7.9971
3.9981	7.4862
3.9796	6.8219
3.9614	6.7402
3.9433	6.9041
3.9254	6.974
3.9077	7.4385
3.8901	7.444
3.8726	7.3722
3.8554	7.8766
3.8382	7.8209
3.8213	7.8758
3.8045	7.5731
3.7878	7.8071
3.7713	7.9969
3.7549	8.1924
3.7386	8.0385
3.7225	8.1467
3.7066	8.0423
3.6907	7.958
3.675	7.9059
3.6595	7.8584
3.644	7.9222
3.6287	7.7855
3.6136	7.6971
3.5985	7.7268
3.5836	7.4751
3.5688	7.2221
3.5541	7.2268
3.5396	6.8709
3.5251	6.6482
3.5108	6.4227
3.4966	6.2495
3.4825	6.0427
3.4685	5.876
3.4547	6.1167
3.4409	6.1227
3.4273	5.7606
3.4137	5.8226
3.4003	5.507
3.387	5.2426
3.3738	5.5198
3.3606	5.7527
3.3476	5.5198
3.3347	5.7032
3.3219	5.4692
3.3092	5.4548
3.2965	5.4693
3.284	5.558
3.2716	5.0709
3.2593	5.5225
3.247	5.2925
3.2348	5.1687
3.2228	5.5134
3.2108	5.5392
3.1989	5.2354
3.1871	5.3733
3.1754	5.2358
3.1638	4.9584
3.1523	4.8094
3.1408	4.5368
3.1294	5.1019
3.1181	4.8345
3.1069	4.3837
3.0958	4.8401
3.0848	4.6217
3.0738	4.2324
3.0629	4.0962
3.0521	4.2047
3.0413	4.6333
3.0307	3.9417
3.0201	4.116
3.0096	4.3458
2.9991	4.1706
2.9887	3.8091
2.9784	4.139
2.9682	4.5219
2.9581	4.625
2.948	3.9397
2.9379	4.0898
2.928	3.8002
2.9181	4.4994
2.9083	4.4426
2.8985	3.7822
2.8888	4.1893
2.8792	4.1764
2.8697	4.3392
2.8602	4.2882
2.8507	4.4497
2.8413	4.214
2.832	4.0257
2.8228	4.3115
2.8136	3.7603
2.8045	4.2908
2.7954	4.3247
2.7864	4.1786
2.7774	3.8623
2.7685	3.8284
2.7597	4.1346
2.7509	4.1147
2.7422	3.8161
2.7335	4.3739
2.7249	4.3344
2.7163	5.5164
2.7078	6.3455
2.6994	7.0534
2.691	8.2727
2.6826	8.6428
2.6743	9.3026
2.666	9.2293
2.6578	9.2934
2.6497	9.1566
2.6416	9.9821
2.6336	8.9641
2.6256	9.6853
2.6176	9.4105
2.6097	9.7648
2.6018	9.3288
2.594	9.6333
2.5863	9.7499
2.5785	9.6375
2.5709	9.8129
2.5633	10.0289
2.5557	9.3534
2.5481	9.7025
2.5406	10.1565
2.5332	9.9643
2.5258	9.655
2.5184	9.7859
2.5111	9.6822
2.5038	9.8653
2.4966	10.528
2.4894	9.3093
2.4823	10.1204
2.4752	9.0993
2.4681	9.5277
2.4611	9.6399
2.4541	10.1601
2.4471	10.1543
2.4402	9.7677
2.4333	9.6034
2.4265	9.4006
2.4197	9.9396
2.413	10.1902
2.4063	10.3974
2.3996	9.8751
2.3929	10.5474
2.3863	9.9286
2.3798	10.7352
2.3732	10.3424
2.3667	10.1032
2.3603	10.0658
2.3538	10.0435
2.3474	9.9019
2.3411	9.9493
2.3347	10.6055
2.3285	10.303
2.3222	9.8814
2.316	10.404
2.3098	10.8279
2.3036	10.2761
2.2975	11.1927
2.2914	10.3182
2.2854	10.5565
2.2793	11.6402
2.2733	10.0996
2.2674	10.6178
2.2614	10.4746
2.2555	10.5938
2.2497	10.8902
2.2438	10.5311
2.238	10.4205
2.2322	9.765
2.2265	10.3708
2.2208	9.7777
2.2151	10.4623
2.2094	9.4178
2.2038	10.271
2.1982	9.6212
2.1926	10.5163
2.187	11.0706
2.1815	11.0076
2.176	11.9291
2.1706	10.6907
2.1651	11.6495
2.1597	11.092
2.1543	10.3399
2.149	10.3813
2.1436	12.2107
2.1383	12.306
2.1331	11.1902
2.1278	10.7811
2.1226	11.4455
2.1174	10.6878
2.1122	10.8721
2.1071	10.3635
2.1019	11.3432
2.0968	10.0016
2.0918	10.0367
2.0867	10.9995
2.0817	10.5107
2.0767	11.0115
2.0717	9.5389
2.0667	11.8964
2.0618	11.9217
2.0569	11.0058
2.052	11.141
2.0472	11.2316
2.0423	10.8091
2.0375	10.0586
2.0327	11.9381
2.028	8.7061
2.0232	10.0443
2.0185	11.2276
2.0138	9.5985
2.0091	11.5427
2.0044	14.1641
1.9998	10.8698
