Name: Tremolite Schist
Type: rock
Class: Metamorphic
Subclass: Schist
Particle Size: Coarse
Sample No.: schist6
Owner: JHU
Wavelength Range: All
Origin: Sample No. 468, The Hunt and Salisbury Collection at the U.S.Geological Survey, Denver, Co.
Description: This is another coarse-grained rock composed of bent folia of tremolite and lenses and stringers of quartz.  Unlike the previous one, however, this sample is completely unaltered.  The bent folia are due to brittle deformation of the amphibole as a result of shear stress, with regions of concomittant granulation of this mineral.  Modes for this rock gave 75.4% amphibole and 24.6% quartz. Particles size was 500-1500 Micrometer. Original ASTER Spectral Library name was jhu.becknic.rock.metamorphic.schist.coarse.schist6.spectrum.txt
Measurement: Directional (10 Degree) Hemispherical Reflectance
X Units: Wavelength (micrometers)
Y Units: Reflectance (percent)
wavelength	value
14.9831	3.9768
14.6445	5.1924
14.3209	3.6801
14.0112	3.0334
13.7147	3.4857
13.4304	4.2653
13.1577	6.5835
12.8959	5.1332
12.6443	4.4041
12.4023	4.4161
12.1694	3.3955
11.945	4.1258
11.7289	4.8133
11.5203	5.5844
11.3191	6.4712
11.1248	7.4917
10.937	9.2114
10.7555	8.1607
10.5799	11.4941
10.4099	15.5811
10.2454	17.5274
10.0859	19.8703
9.9313	18.0989
9.7814	16.84
9.636	17.962
9.4948	17.7827
9.3577	21.9914
9.2245	24.9961
9.095	24.3998
8.9691	22.2905
8.8467	23.2584
8.7275	24.1396
8.6116	17.0474
8.4986	14.4588
8.3886	12.5164
8.2814	11.6942
8.1769	10.6212
8.075	6.7213
7.9756	3.9451
7.8786	2.2666
7.784	1.6229
7.6916	1.2412
7.6014	1.056
7.5133	1.0654
7.4272	1.0342
7.343	1.0645
7.2607	1.2082
7.1803	1.3397
7.1016	1.4396
7.0246	1.568
6.9493	1.7453
6.8755	1.7172
6.8034	1.8469
6.7327	1.9279
6.6634	1.9803
6.5956	2.1051
6.5292	2.2666
6.464	2.3016
6.4002	2.3407
6.3376	2.1657
6.2762	1.8959
6.216	1.8505
6.157	1.9229
6.099	1.9985
6.0421	2.1264
5.9863	2.2265
5.9315	2.1962
5.8777	2.2003
5.8249	2.3741
5.773	2.5181
5.722	2.6329
5.6719	2.614
5.6227	2.5022
5.5744	2.5427
5.5268	2.6369
5.4801	2.8058
5.4341	2.8828
5.3889	2.9147
5.3445	2.9147
5.3008	2.9884
5.2578	3.1842
5.2154	3.6058
5.1738	3.7102
5.1328	3.5707
5.0925	3.5882
5.0528	3.5245
5.0137	3.6526
4.9752	3.9169
4.9373	4.3456
4.9	5.1413
4.8632	6.5023
4.827	7.5011
4.7913	8.3515
4.7561	9.6538
4.7215	10.8414
4.6873	10.8781
4.6536	12.987
4.6205	16.0159
4.5877	18.3177
4.5555	19.9846
4.5237	19.332
4.4923	17.4903
4.4614	17.8488
4.4309	19.9394
4.4008	22.1989
4.3711	25.5223
4.3418	28.1858
4.3129	28.7381
4.2844	28.5792
4.2563	30.0872
4.2285	30.1909
4.2011	30.6404
4.174	31.6869
4.1473	32.9096
4.1209	34.3198
4.0949	36.1445
4.0692	37.5969
4.0438	37.9031
4.0187	37.7087
3.994	37.7207
3.9695	38.5015
3.9453	40.4282
3.9214	41.7729
3.8979	42.0445
3.8746	41.6433
3.8515	41.5792
3.8288	42.2415
3.8063	43.1237
3.7841	43.1431
3.7621	42.4959
3.7404	42.2932
3.7189	43.0607
3.6977	43.5405
3.6767	46.4142
3.656	47.4993
3.6355	47.9867
3.6152	48.2969
3.5951	48.4914
3.5753	48.8885
3.5557	48.9662
3.5363	48.3952
3.5171	47.3134
3.4981	47.0221
3.4793	47.2272
3.4607	47.2369
3.4423	45.8025
3.4241	43.9398
3.4061	41.1302
3.3883	38.6945
3.3707	36.5099
3.3533	33.0133
3.336	33.6027
3.3189	35.139
3.302	36.2747
3.2853	41.2495
3.2687	44.3028
3.2523	43.77
3.2361	42.5823
3.22	41.5245
3.204	39.4286
3.1883	35.9332
3.1727	33.4448
3.1572	35.0665
3.1419	36.5771
3.1268	35.8984
3.1117	35.2147
3.0969	35.0201
3.0821	34.0572
3.0675	33.5182
3.0531	32.5013
3.0388	31.4967
3.0246	31.1732
3.0105	30.4396
2.9966	29.7209
2.9828	29.2842
2.9692	29.0211
2.9556	29.9207
2.9422	30.4105
2.9289	30.3745
2.9157	29.9446
2.9027	29.8149
2.8897	29.9989
2.8769	30.2809
2.8642	30.2951
2.8516	30.3295
2.8391	30.1706
2.8267	29.7914
2.8144	29.709
2.8022	29.2503
2.7902	28.1522
2.7782	25.5759
2.7664	24.496
2.7546	20.7979
2.7429	16.7824
2.7314	10.0249
2.7199	7.8973
2.7085	20.226
2.6973	19.0805
2.6861	25.7253
2.675	33.9063
2.664	45.515
2.6531	46.0903
2.6423	44.1567
2.6315	43.6646
2.6209	43.1445
2.6103	42.7722
2.5999	41.2303
2.5895	40.6674
2.5792	40.2935
2.569	38.0899
2.5588	37.8702
2.5487	39.628
2.5388	40.4616
2.5289	40.4493
2.519	38.2839
2.5093	37.5971
2.4996	36.4185
2.49	35.2787
2.4805	34.4058
2.471	33.6217
2.4616	33.2092
2.4523	35.2195
2.4431	34.3738
2.4339	37.0065
2.4248	37.105
2.4157	35.0362
2.4068	36.2205
2.3979	30.4507
2.389	23.5925
2.3802	23.6899
2.3715	30.0152
2.3629	35.6533
2.3543	37.8775
2.3458	41.0795
2.3373	41.3464
2.3289	34.6668
2.3206	20.9201
2.3123	17.3077
2.3041	19.3237
2.2959	19.6841
2.2878	25.3095
2.2798	29.5155
2.2718	33.1078
2.2638	39.0578
2.2559	45.3242
2.2481	46.2864
2.2403	47.2642
2.2326	50.6779
2.225	51.9377
2.2173	52.4384
2.2098	52.5639
2.2023	52.8246
2.1948	53.0965
2.1874	53.2589
2.18	53.1171
2.1727	53.676
2.1655	53.8808
2.1583	53.5358
2.1511	53.3709
2.144	52.6676
2.1369	52.9686
2.1299	51.5119
2.1229	51.699
2.116	51.6604
2.1091	51.1202
2.1023	55.8639
2.0955	56.7806
2.0887	56.9819
2.082	57.7499
2.06	60.9586
2.028	64.7454
1.996	65.2164
1.964	68.8088
1.932	71.5805
1.9	73.0355
1.868	75.5098
1.836	77.1552
1.804	79.4331
1.772	80.325
1.74	81.4897
1.708	81.7449
1.676	82.5501
1.644	83.1029
1.612	82.7261
1.58	82.7519
1.548	83.073
1.516	82.9718
1.484	83.177
1.452	82.8162
1.42	82.0365
1.388	52.7629
1.356	80.3149
1.324	82.4465
1.292	81.9293
1.26	81.8143
1.228	82.5965
1.196	82.9693
1.164	80.8399
1.132	76.1573
1.1	67.5525
1.068	55.4819
1.036	45.7739
1.004	43.0813
0.972	42.8105
0.94	43.8604
0.908	48.8523
0.876	55.7714
0.844	64.1772
0.812	72.6699
0.795	76.1619
0.787	77.256
0.779	78.181
0.771	78.9361
0.763	79.1495
0.755	79.8798
0.747	80.1736
0.739	80.7343
0.731	80.4489
0.723	80.9697
0.715	80.9297
0.707	81.1367
0.699	80.9806
0.691	79.5491
0.683	79.4642
0.675	79.3655
0.667	79.1902
0.659	79.6927
0.651	78.4138
0.643	79.1243
0.635	78.7282
0.627	79.2499
0.619	78.2268
0.611	77.9961
0.603	77.4558
0.595	78.6257
0.587	77.6095
0.579	77.5884
0.571	78.8618
0.563	77.6898
0.555	78.576
0.547	76.8382
0.539	77.0707
0.531	77.9963
0.523	76.5876
0.515	76.844
0.507	75.2812
0.499	74.768
0.491	74.6544
0.483	74.0891
0.475	73.8545
0.467	72.5668
0.459	72.3557
0.451	71.5807
0.443	70.0993
0.435	68.9035
0.427	67.7594
0.419	67.0468
0.411	64.3008
0.403	64.1816
