Name: Olivine Gabbro
Type: Rock
Class: Igneous
Subclass: Mafic
Particle Size: Solid
Sample No.: Ward39
Owner: JPL
Wavelength Range: VSWIR
Origin: Ward's Collection of American Rocks.  Sample locality - Wichita Mountains, Oklahoma.
Description: The hand specimen is a medium grained dark gray rockconsisting of about 65% of well twinned plagioclase and 35% brownisholivine.  Minor pyroxene and small grains of magnetite are noted.Collected by:  Ward's Natural Science Original ASTER Spectral Library name was jpl.perkin.rock.igneous.mafic.solid.ward39.spectrum.txt
Measurement: Hemispherical reflectance
X Units: Wavelength (micrometers)
Y Units: Reflectance (percent)
wavelength	value
2.5	6.3948
2.494	6.4136
2.488	6.2999
2.482	6.5073
2.476	6.4072
2.47	6.6599
2.464	6.6522
2.458	6.6339
2.452	6.7068
2.446	6.7599
2.44	6.7912
2.434	6.8937
2.428	6.9246
2.422	6.9182
2.416	6.9341
2.41	6.9925
2.404	7.0888
2.398	7.1005
2.392	7.196
2.386	7.1543
2.38	7.2104
2.374	7.2233
2.368	7.212
2.362	7.2599
2.356	7.2274
2.35	7.2322
2.344	7.2546
2.338	7.2232
2.332	7.2477
2.326	7.2338
2.32	7.2634
2.314	7.3201
2.308	7.3391
2.302	7.3492
2.296	7.3459
2.29	7.3803
2.284	7.3699
2.278	7.4663
2.272	7.4976
2.266	7.4697
2.26	7.5334
2.254	7.4498
2.248	7.4888
2.242	7.5022
2.236	7.5609
2.23	7.6256
2.224	7.5807
2.218	7.6263
2.212	7.803
2.206	7.7185
2.2	7.6369
2.194	7.7646
2.188	7.784
2.182	7.7821
2.176	7.7924
2.17	7.7238
2.164	7.8623
2.158	7.9458
2.152	7.8287
2.146	7.838
2.14	7.8582
2.134	7.863
2.128	7.8588
2.122	7.8639
2.116	7.7907
2.11	7.7917
2.104	7.7942
2.098	7.7834
2.092	7.7959
2.086	7.77
2.08	7.8286
2.074	7.7366
2.068	7.8086
2.062	7.8165
2.056	7.8139
2.05	7.851
2.044	7.82
2.038	7.844
2.032	7.8087
2.026	7.8127
2.02	7.7798
2.014	7.7947
2.008	7.7618
2.002	7.708
1.996	7.686
1.99	7.7295
1.984	7.6729
1.978	7.5643
1.972	7.5791
1.966	7.5463
1.96	7.4643
1.954	7.4709
1.948	7.3887
1.942	7.5241
1.936	7.3841
1.93	7.3899
1.924	7.3305
1.918	7.2074
1.912	7.1786
1.906	7.3255
1.9	7.5748
1.894	7.8486
1.888	7.8725
1.882	7.9795
1.876	7.9713
1.87	8.065
1.864	8.1283
1.858	8.2038
1.852	8.161
1.846	8.1185
1.84	8.2075
1.834	8.1691
1.828	8.2223
1.822	8.2932
1.816	8.2078
1.81	8.2778
1.804	8.1979
1.798	8.328
1.792	8.3243
1.786	8.3334
1.78	8.3554
1.774	8.3669
1.768	8.3359
1.762	8.3329
1.756	8.3352
1.75	8.3686
1.744	8.3756
1.738	8.3809
1.732	8.4465
1.726	8.3821
1.72	8.3715
1.714	8.3978
1.708	8.4381
1.702	8.4535
1.696	8.4605
1.69	8.4843
1.684	8.4476
1.678	8.5173
1.672	8.5238
1.666	8.5963
1.66	8.5584
1.654	8.6284
1.648	8.4887
1.642	8.6453
1.636	8.5477
1.63	8.5622
1.624	8.6187
1.618	8.6382
1.612	8.5648
1.606	8.5784
1.6	8.5886
1.594	8.5289
1.588	8.5754
1.582	8.6057
1.576	8.5461
1.57	8.6072
1.564	8.5864
1.558	8.563
1.552	8.5354
1.546	8.5553
1.54	8.5434
1.534	8.4833
1.528	8.5531
1.522	8.5313
1.516	8.461
1.51	8.4679
1.504	8.406
1.498	8.4455
1.492	8.4224
1.486	8.4528
1.48	8.3432
1.474	8.3624
1.468	8.383
1.462	8.3023
1.456	8.3092
1.45	8.2922
1.444	8.1708
1.438	8.2106
1.432	8.197
1.426	8.0941
1.42	8.0308
1.414	8.1537
1.408	8.1027
1.402	8.1203
1.396	8.2063
1.39	8.2324
1.384	8.2565
1.378	8.2367
1.372	8.2796
1.366	8.3213
1.36	8.2796
1.354	8.29
1.348	8.2523
1.342	8.2458
1.336	8.2197
1.33	8.1626
1.324	8.1744
1.318	8.2136
1.312	8.1971
1.306	8.2445
1.3	8.2951
1.294	8.2569
1.288	8.2997
1.282	8.2687
1.276	8.2447
1.27	8.2553
1.264	8.3102
1.258	8.304
1.252	8.3646
1.246	8.3387
1.24	8.2977
1.234	8.3369
1.228	8.3305
1.222	8.3754
1.216	8.3564
1.21	8.4218
1.204	8.4023
1.198	8.3902
1.192	8.4265
1.186	8.4522
1.18	8.4525
1.174	8.4689
1.168	8.4447
1.162	8.3899
1.156	8.4978
1.15	8.4741
1.144	8.5063
1.138	8.5272
1.132	8.5873
1.126	8.5621
1.12	8.5521
1.114	8.5966
1.108	8.5867
1.102	8.6578
1.096	8.5468
1.09	8.6171
1.084	8.6814
1.078	8.5486
1.072	8.7375
1.066	8.6537
1.06	8.7369
1.054	8.6812
1.048	8.7372
1.042	8.7469
1.036	8.8365
1.03	8.8199
1.024	8.7952
1.018	8.7575
1.012	8.8615
1.006	8.8863
1	8.8225
0.994	8.8925
0.988	8.8955
0.982	8.9313
0.976	8.9179
0.97	8.9019
0.964	8.9869
0.958	8.9206
0.952	8.963
0.946	8.9706
0.94	9.0088
0.934	8.9589
0.928	9.0106
0.922	8.9857
0.916	8.9941
0.91	8.9739
0.904	8.9502
0.898	8.9492
0.892	8.985
0.886	8.9569
0.88	8.9299
0.874	9.0057
0.868	8.9533
0.862	9.0118
0.856	9.068
0.85	9.0899
0.844	9.1231
0.838	9.1538
0.832	9.1852
0.826	9.1995
0.82	9.2341
0.814	9.2645
0.808	9.2802
0.802	9.3078
0.796	9.3168
0.79	9.3305
0.784	9.3332
0.778	9.3389
0.772	9.3499
0.766	9.3375
0.76	9.348
0.754	9.343
0.748	9.3386
0.742	9.3215
0.736	9.3083
0.73	9.2888
0.724	9.274
0.718	9.2592
0.712	9.2509
0.706	9.2306
0.7	9.2146
0.694	9.2018
0.688	9.1891
0.682	9.1716
0.676	9.1564
0.67	9.1399
0.664	9.1246
0.658	9.1108
0.652	9.0938
0.646	9.0719
0.64	9.0544
0.634	9.0383
0.628	9.0227
0.622	9.0089
0.616	8.993
0.61	8.9815
0.604	8.965
0.598	8.9541
0.592	8.9442
0.586	8.9245
0.58	8.9077
0.574	8.8845
0.568	8.8649
0.562	8.8424
0.556	8.8063
0.55	8.7694
0.544	8.7394
0.538	8.6988
0.532	8.6594
0.526	8.6309
0.52	8.5859
0.514	8.5275
0.508	8.4672
0.502	8.4022
0.496	8.3337
0.49	8.267
0.484	8.1938
0.478	8.1624
0.472	8.1201
0.466	8.0935
0.46	8.0544
0.454	8.0031
0.448	7.9429
0.442	7.8699
0.436	7.7861
0.43	7.6954
0.424	7.6082
0.418	7.5303
0.412	7.4697
0.406	7.4053
0.4	7.3446
