Name: Altered volcanic tuff
Type: Rock
Class: Igneous
Subclass: Felsic
Particle Size: Solid
Sample No.: cup3
Owner: USGS
Wavelength Range: All
Origin: Cuprite, Nevada
Description: Altered volcanic tuff, whiteSample was Whole rock chips. Original ASTER Spectral Library name was usgs.perknic.rock.igneous.felsic.solid.cup3.spectrum.txt
Measurement: Directional Hemispherical Reflectance
X Units: Wavelength (micrometers)
Y Units: Reflectance (percent)
wavelength	value
13.9	3.43
13.68	3.605
13.467	3.862
13.261	4.192
13.06	4.553
12.866	5.356
12.677	5.284
12.494	4.336
12.316	2.451
12.143	3.008
11.975	3.42
11.811	3.883
11.652	4.295
11.497	4.707
11.346	4.944
11.199	5.377
11.056	5.583
10.916	5.912
10.78	6.118
10.647	6.448
10.518	6.819
10.391	7.447
10.268	8.302
10.147	9.332
10.029	10.527
9.914	11.896
9.802	13.102
9.692	14.368
9.585	15.707
9.479	17.263
9.377	20.435
9.276	24.658
9.178	28.5
9.081	30.447
8.987	30.375
8.894	28.294
8.804	25.492
8.715	22.856
8.628	20.528
8.543	20.023
8.459	18.313
8.377	15.471
8.297	16.202
8.218	15.594
8.14	13.823
8.064	11.464
7.99	9.713
7.917	7.787
7.845	5.129
7.774	3.306
7.705	2.081
7.637	1.607
7.57	1.102
7.504	1.009
7.44	0.824
7.376	0.875
7.314	0.824
7.252	0.886
7.192	0.989
7.133	0.958
7.074	0.989
7.017	1.03
6.96	0.979
6.905	1.102
6.85	1.123
6.796	1.164
6.743	1.308
6.691	1.452
6.64	1.514
6.589	1.586
6.539	1.669
6.49	1.844
6.442	1.967
6.394	2.009
6.347	2.029
6.301	1.802
6.255	1.802
6.21	1.689
6.166	1.617
6.122	1.689
6.079	1.607
6.037	1.648
5.995	1.782
5.954	1.916
5.913	2.101
5.873	2.421
5.833	2.359
5.794	2.421
5.755	2.369
5.717	2.431
5.68	2.513
5.643	2.554
5.606	2.647
5.57	2.668
5.534	2.76
5.499	2.863
5.464	2.853
5.43	2.915
5.396	2.719
5.363	2.534
5.33	2.431
5.297	2.523
5.265	2.606
5.233	2.802
5.201	3.09
5.17	3.337
5.139	3.389
5.109	3.43
5.079	3.378
5.049	3.244
5.02	3.265
4.991	3.286
4.962	3.265
4.934	3.502
4.906	3.832
4.878	4.357
4.851	4.995
4.824	5.593
4.797	6.046
4.771	6.314
4.744	6.52
4.719	6.633
4.693	6.736
4.668	6.747
4.643	6.891
4.618	7.076
4.593	7.272
4.569	7.385
4.545	7.478
4.521	7.488
4.498	7.426
4.474	7.261
4.451	7.344
4.428	7.282
4.406	7.169
4.384	7.292
4.361	7.622
4.34	7.756
4.318	7.982
4.296	8.384
4.275	8.611
4.254	8.776
4.233	9.157
4.213	9.177
4.192	9.177
4.172	9.445
4.152	9.342
4.132	9.527
4.112	9.569
4.093	9.764
4.074	9.754
4.055	10.001
4.036	9.981
4.017	9.94
3.998	9.713
3.98	9.558
3.962	9.764
3.944	9.94
3.926	9.929
3.908	9.95
3.89	9.96
3.873	10.073
3.856	9.888
3.838	10.022
3.822	10.166
3.805	10.022
3.788	10.012
3.771	9.919
3.755	9.764
3.739	9.754
3.723	9.61
3.707	9.352
3.691	9.322
3.675	9.219
3.66	9.116
3.644	8.961
3.629	8.765
3.614	8.446
3.599	8.333
3.584	8.127
3.569	7.962
3.554	7.725
3.54	7.601
3.525	7.303
3.511	7.035
3.497	6.86
3.483	6.829
3.469	6.499
3.455	6.479
3.441	6.231
3.428	5.809
3.414	5.799
3.401	5.953
3.387	5.624
3.374	5.675
3.361	5.521
3.348	5.366
3.335	5.572
3.322	5.387
3.309	5.057
3.297	5.202
3.284	4.934
3.272	4.903
3.259	4.779
3.247	4.779
3.235	4.625
3.223	4.625
3.211	4.676
3.199	4.553
3.187	4.47
3.176	4.213
3.164	4.192
3.152	4.038
3.141	4.089
3.13	3.996
3.118	3.893
3.107	3.852
3.096	3.935
3.085	3.708
3.074	3.605
3.063	3.76
3.052	3.667
3.042	3.574
3.031	3.605
3.02	3.605
3.01	3.502
2.999	3.677
2.989	3.574
2.979	3.595
2.968	3.584
2.958	3.533
2.948	3.224
2.938	3.44
2.928	3.296
2.918	3.348
2.909	3.358
2.899	3.626
2.889	3.203
2.879	3.584
2.87	3.265
2.86	3.677
2.851	3.739
2.842	3.523
2.832	3.605
2.823	4.048
2.814	3.966
2.805	4.079
2.796	4.161
2.787	4.274
2.778	4.357
2.769	4.357
2.76	4.511
2.751	4.604
2.742	4.944
2.734	5.263
2.725	5.655
2.717	5.778
2.708	6.242
2.7	9.177
2.691	12.535
2.683	15.862
2.675	17.778
2.666	20.528
2.658	21.764
2.65	22.979
2.642	23.937
2.634	24.813
2.626	25.585
2.618	26.049
2.61	26.234
2.602	26.595
2.594	27.398
2.586	27.511
2.579	27.604
2.571	27.903
2.563	28.181
2.556	27.995
2.548	28.356
2.541	28.541
2.533	28.686
2.526	28.397
2.519	29.17
2.511	29.437
2.504	29.468
2.488	29.966
2.464	31.734
2.44	33.484
2.416	35.232
2.392	36.375
2.368	38.195
2.344	39.016
2.32	39.235
2.296	39.428
2.272	39.76
2.248	40.277
2.224	40.303
2.2	40.97
2.176	42.376
2.152	43.361
2.128	43.532
2.104	42.821
2.08	42.377
2.056	41.882
2.032	41.01
2.008	39.517
1.984	38.16
1.96	36.575
1.936	35.693
1.912	35.485
1.888	41.266
1.864	47.519
1.84	48.816
1.816	48.956
1.792	49.109
1.768	49.461
1.744	49.995
1.72	50.525
1.696	50.89
1.672	51.128
1.648	51.255
1.624	51.288
1.6	51.27
1.576	51.052
1.552	50.554
1.528	49.876
1.504	49.169
1.48	48.345
1.456	47.691
1.432	47.759
1.408	47.925
1.384	51.157
1.36	53.29
1.336	53.892
1.312	54.254
1.288	54.445
1.264	54.494
1.24	54.506
1.216	54.511
1.192	54.428
1.168	54.475
1.144	54.585
1.12	54.837
1.096	54.871
1.072	54.864
1.048	54.82
1.024	54.769
1	54.732
0.976	54.666
0.952	54.536
0.928	54.2
0.904	54.201
0.88	54.253
0.856	54.537
0.832	55.025
0.808	54.975
0.784	54.861
0.76	54.595
0.736	54.369
0.712	54.069
0.688	53.52
0.664	52.947
0.64	52.357
0.616	51.633
0.592	50.439
0.568	48.155
0.544	45.282
0.52	42.776
0.496	40.538
0.472	38.931
0.448	37.006
0.424	34.165
0.4	31.619
