Name: Granodiorite
Type: Rock
Class: Igneous
Subclass: Intermediate
Particle Size: Solid
Sample No.: Ward26
Owner: JPL
Wavelength Range: VSWIR
Origin: Ward's Collection of American Rocks.  Sample locality - St. Cloud, Stearns County, Minnesota.
Description: A medium granular, gray rock, composed of plagioclase, pinkorthoclase, biotite, hornblende and quartz.Geologic age - Pre-Cambrian.Collected by:  Ward's Natural Science Original ASTER Spectral Library name was jpl.perkin.rock.igneous.intermediate.solid.ward26.spectrum.txt
Measurement: Hemispherical reflectance
X Units: Wavelength (micrometers)
Y Units: Reflectance (percent)
wavelength	value
2.5	17.6893
2.494	17.5579
2.488	17.6178
2.482	17.6274
2.476	17.5699
2.47	17.6421
2.464	17.7339
2.458	17.7596
2.452	17.7493
2.446	17.7813
2.44	17.8353
2.434	17.8297
2.428	17.8588
2.422	17.8689
2.416	17.831
2.41	17.8489
2.404	17.8007
2.398	17.7577
2.392	17.6607
2.386	17.769
2.38	17.8602
2.374	17.9881
2.368	18.1015
2.362	18.1549
2.356	18.109
2.35	18.079
2.344	17.9516
2.338	17.8365
2.332	17.8001
2.326	17.7703
2.32	17.8561
2.314	18.0025
2.308	18.0799
2.302	18.3253
2.296	18.4989
2.29	18.6641
2.284	18.837
2.278	18.8838
2.272	19.0126
2.266	19.043
2.26	19.0665
2.254	19.1306
2.248	19.0888
2.242	19.2184
2.236	19.2873
2.23	19.3666
2.224	19.3349
2.218	19.4079
2.212	19.4977
2.206	19.397
2.2	19.3871
2.194	19.4885
2.188	19.5659
2.182	19.5482
2.176	19.5852
2.17	19.6779
2.164	19.6497
2.158	19.7104
2.152	19.765
2.146	19.6293
2.14	19.6967
2.134	19.6735
2.128	19.5688
2.122	19.4528
2.116	19.4645
2.11	19.4042
2.104	19.2987
2.098	19.1852
2.092	19.1693
2.086	19.2265
2.08	19.2307
2.074	19.1685
2.068	19.1741
2.062	19.1812
2.056	19.1218
2.05	19.1453
2.044	19.1295
2.038	19.1275
2.032	19.0071
2.026	19.0782
2.02	19.0081
2.014	18.9928
2.008	18.9044
2.002	18.939
1.996	18.9172
1.99	18.9308
1.984	18.8971
1.978	18.9079
1.972	18.8851
1.966	18.9422
1.96	18.9285
1.954	18.9207
1.948	18.8759
1.942	18.9271
1.936	19.0033
1.93	18.9242
1.924	18.8463
1.918	18.911
1.912	18.8977
1.906	18.936
1.9	19.0576
1.894	18.9749
1.888	19.001
1.882	18.9483
1.876	19.0314
1.87	19.0668
1.864	18.9578
1.858	18.9537
1.852	18.9083
1.846	18.9455
1.84	18.8984
1.834	18.8862
1.828	18.7565
1.822	18.7865
1.816	18.6437
1.81	18.7054
1.804	18.6373
1.798	18.6579
1.792	18.6011
1.786	18.5779
1.78	18.7224
1.774	18.6114
1.768	18.5754
1.762	18.5865
1.756	18.5958
1.75	18.557
1.744	18.5958
1.738	18.6028
1.732	18.5926
1.726	18.5634
1.72	18.568
1.714	18.5346
1.708	18.5206
1.702	18.5011
1.696	18.4989
1.69	18.4272
1.684	18.4315
1.678	18.3536
1.672	18.3322
1.666	18.3008
1.66	18.2826
1.654	18.2315
1.648	18.2298
1.642	18.2962
1.636	18.0739
1.63	18.2095
1.624	18.1353
1.618	18.131
1.612	18.0772
1.606	18.1052
1.6	18.0804
1.594	18.1096
1.588	18.0043
1.582	18.072
1.576	18.0336
1.57	17.978
1.564	17.9677
1.558	17.9654
1.552	17.9304
1.546	17.9052
1.54	17.8858
1.534	17.8873
1.528	17.8509
1.522	17.8017
1.516	17.7406
1.51	17.8229
1.504	17.7548
1.498	17.7375
1.492	17.6782
1.486	17.6747
1.48	17.6569
1.474	17.6747
1.468	17.6892
1.462	17.6053
1.456	17.6111
1.45	17.5905
1.444	17.5594
1.438	17.5831
1.432	17.5553
1.426	17.5446
1.42	17.493
1.414	17.4627
1.408	17.4026
1.402	17.5033
1.396	17.4607
1.39	17.486
1.384	17.4049
1.378	17.4932
1.372	17.5334
1.366	17.5624
1.36	17.5502
1.354	17.5978
1.348	17.4517
1.342	17.3857
1.336	17.4056
1.33	17.4611
1.324	17.4608
1.318	17.4411
1.312	17.3941
1.306	17.4208
1.3	17.4184
1.294	17.3585
1.288	17.3833
1.282	17.4114
1.276	17.4389
1.27	17.4006
1.264	17.4806
1.258	17.4749
1.252	17.4486
1.246	17.5116
1.24	17.4723
1.234	17.4884
1.228	17.4783
1.222	17.5468
1.216	17.5416
1.21	17.6014
1.204	17.62
1.198	17.6391
1.192	17.6307
1.186	17.6486
1.18	17.605
1.174	17.7346
1.168	17.7237
1.162	17.7749
1.156	17.8114
1.15	17.7992
1.144	17.8825
1.138	17.928
1.132	17.9314
1.126	18.0046
1.12	18.0215
1.114	18.1192
1.108	18.1273
1.102	18.2071
1.096	18.1595
1.09	18.275
1.084	18.2667
1.078	18.2805
1.072	18.433
1.066	18.4048
1.06	18.5194
1.054	18.5514
1.048	18.6364
1.042	18.6197
1.036	18.6099
1.03	18.6834
1.024	18.7268
1.018	18.7659
1.012	18.7951
1.006	18.8176
1	18.9423
0.994	18.9623
0.988	19.0348
0.982	19.1169
0.976	19.124
0.97	19.1531
0.964	19.2072
0.958	19.2681
0.952	19.3436
0.946	19.3587
0.94	19.4143
0.934	19.455
0.928	19.5976
0.922	19.6167
0.916	19.7091
0.91	19.7628
0.904	19.8167
0.898	19.9096
0.892	19.9403
0.886	19.9224
0.88	19.9542
0.874	19.951
0.868	19.8656
0.862	19.8445
0.856	19.5707
0.85	19.6202
0.844	19.6387
0.838	19.7075
0.832	19.7122
0.826	19.7281
0.82	19.7525
0.814	19.7308
0.808	19.7446
0.802	19.7305
0.796	19.7247
0.79	19.7013
0.784	19.6762
0.778	19.6361
0.772	19.6049
0.766	19.5778
0.76	19.5543
0.754	19.5454
0.748	19.5122
0.742	19.4973
0.736	19.4863
0.73	19.4663
0.724	19.4538
0.718	19.4335
0.712	19.4259
0.706	19.4029
0.7	19.4006
0.694	19.392
0.688	19.3833
0.682	19.377
0.676	19.3744
0.67	19.3677
0.664	19.3693
0.658	19.3755
0.652	19.376
0.646	19.3804
0.64	19.3958
0.634	19.3954
0.628	19.4072
0.622	19.4179
0.616	19.4247
0.61	19.4275
0.604	19.4248
0.598	19.4188
0.592	19.3948
0.586	19.354
0.58	19.2832
0.574	19.1932
0.568	19.0851
0.562	18.9722
0.556	18.8246
0.55	18.7154
0.544	18.6131
0.538	18.533
0.532	18.4711
0.526	18.4116
0.52	18.363
0.514	18.3024
0.508	18.2398
0.502	18.1693
0.496	18.0899
0.49	18.0041
0.484	17.9027
0.478	17.9058
0.472	17.8734
0.466	17.8559
0.46	17.8151
0.454	17.7467
0.448	17.6586
0.442	17.5663
0.436	17.4854
0.43	17.3908
0.424	17.311
0.418	17.2375
0.412	17.1718
0.406	17.1031
0.4	17.0135
