Name: Gypsum
Type: Rock
Class: Sedimentary
Subclass: Chemical precipitate
Particle Size: Solid
Sample No.: Ward75
Owner: JPL
Wavelength Range: VSWIR
Origin: Ward's Collection of American Rocks.  Sample locality - Grand Rapids, Kent County, Michigan.
Description: A soft, fine-granular, pink or medium gray rock with occasionalcleavable selenite.Geologic age - Mississippian.Collected by - JPL. Original ASTER Spectral Library name was jpl.perkin.rock.sedimentary.chemical.solid.ward75.spectrum.txt
Measurement: Hemispherical reflectance
X Units: Wavelength (micrometers)
Y Units: Reflectance (percent)
wavelength	value
2.5	24.512
2.494	24.1149
2.488	24.0451
2.482	24.0594
2.476	24.5172
2.47	24.1474
2.464	24.5285
2.458	24.6165
2.452	24.9328
2.446	24.8088
2.44	24.995
2.434	24.9127
2.428	25.0966
2.422	25.1516
2.416	25.5434
2.41	25.6073
2.404	26.4055
2.398	26.6555
2.392	27.1541
2.386	27.8297
2.38	28.2914
2.374	28.735
2.368	29.058
2.362	29.4587
2.356	29.7605
2.35	30.0623
2.344	30.1935
2.338	30.4723
2.332	30.5449
2.326	30.6746
2.32	30.8328
2.314	30.8883
2.308	30.8998
2.302	30.9242
2.296	30.8348
2.29	30.8829
2.284	30.735
2.278	30.5048
2.272	30.334
2.266	30.3522
2.26	30.4759
2.254	30.6292
2.248	30.7702
2.242	30.8778
2.236	30.6568
2.23	30.6197
2.224	30.339
2.218	30.1588
2.212	30.3642
2.206	30.5015
2.2	30.8991
2.194	31.1824
2.188	31.1609
2.182	31.4475
2.176	31.6736
2.17	31.7837
2.164	32.1325
2.158	32.2974
2.152	32.5016
2.146	32.9762
2.14	33.1872
2.134	33.2517
2.128	33.5797
2.122	33.8607
2.116	34.2416
2.11	34.5181
2.104	34.9383
2.098	35.31
2.092	35.599
2.086	35.8285
2.08	36.0405
2.074	36.051
2.068	36.1745
2.062	36.16
2.056	36.4241
2.05	36.2253
2.044	36.1221
2.038	35.9596
2.032	35.5814
2.026	35.1426
2.02	34.7395
2.014	34.087
2.008	33.2011
2.002	32.0592
1.996	30.5043
1.99	29.0665
1.984	28.3486
1.978	28.0872
1.972	27.6949
1.966	27.4902
1.96	27.1447
1.954	25.8663
1.948	25.0934
1.942	25.1468
1.936	25.3137
1.93	26.4283
1.924	27.3796
1.918	28.687
1.912	29.8754
1.906	31.0505
1.9	32.0513
1.894	33.505
1.888	34.7035
1.882	36.0252
1.876	37.426
1.87	38.2057
1.864	39.9266
1.858	41.1068
1.852	41.9656
1.846	42.3453
1.84	42.7871
1.834	42.7975
1.828	42.919
1.822	43.057
1.816	42.9095
1.81	42.6025
1.804	42.3056
1.798	41.8419
1.792	41.3012
1.786	40.5802
1.78	40.0677
1.774	39.7972
1.768	39.6601
1.762	39.3432
1.756	38.8972
1.75	38.6383
1.744	38.9028
1.738	39.5126
1.732	40.5579
1.726	41.7687
1.72	42.9436
1.714	44.23
1.708	45.3828
1.702	46.546
1.696	47.3237
1.69	47.8111
1.684	48.3169
1.678	48.5677
1.672	48.7214
1.666	48.7342
1.66	48.6375
1.654	48.6316
1.648	48.2367
1.642	48.0588
1.636	47.6431
1.63	47.3256
1.624	46.924
1.618	46.6246
1.612	46.1008
1.606	45.7062
1.6	45.1796
1.594	44.7398
1.588	44.2242
1.582	43.7416
1.576	43.3903
1.57	42.8097
1.564	42.2559
1.558	41.5278
1.552	40.594
1.546	39.6972
1.54	39.1494
1.534	39.2399
1.528	39.6287
1.522	39.8508
1.516	39.867
1.51	39.5702
1.504	38.9559
1.498	37.9361
1.492	37.3405
1.486	37.8482
1.48	38.1076
1.474	38.1076
1.468	37.8076
1.462	37.604
1.456	36.8343
1.45	35.6516
1.444	35.6271
1.438	37.4167
1.432	39.1644
1.426	39.8729
1.42	41.3625
1.414	42.8204
1.408	44.2884
1.402	45.4009
1.396	46.1405
1.39	46.5721
1.384	46.8231
1.378	46.9514
1.372	47.4124
1.366	47.9054
1.36	48.1399
1.354	48.8134
1.348	49.6211
1.342	50.3313
1.336	50.978
1.33	51.4263
1.324	51.8705
1.318	52.1942
1.312	52.5317
1.306	52.7629
1.3	52.9228
1.294	53.0972
1.288	53.0741
1.282	53.1422
1.276	53.1054
1.27	53.0496
1.264	52.9656
1.258	52.9274
1.252	52.82
1.246	52.456
1.24	52.0065
1.234	51.6995
1.228	51.7257
1.222	51.559
1.216	51.3294
1.21	50.76
1.204	50.8328
1.198	51.0049
1.192	51.0891
1.186	51.1465
1.18	51.2483
1.174	51.7032
1.168	52.5975
1.162	53.5865
1.156	54.5275
1.15	55.3042
1.144	55.8801
1.138	56.2669
1.132	56.4082
1.126	56.5393
1.12	56.7719
1.114	56.8459
1.108	57.0693
1.102	57.2556
1.096	57.3354
1.09	57.4847
1.084	57.5113
1.078	57.6831
1.072	57.6182
1.066	57.6275
1.06	57.624
1.054	57.5284
1.048	57.4195
1.042	57.2466
1.036	57.1248
1.03	56.8396
1.024	56.5088
1.018	56.1737
1.012	55.8463
1.006	55.5493
1	55.226
0.994	55.2217
0.988	55.4973
0.982	55.8602
0.976	56.2424
0.97	56.5697
0.964	56.8631
0.958	57.1517
0.952	57.4464
0.946	57.6766
0.94	57.805
0.934	57.8266
0.928	57.8176
0.922	57.7176
0.916	57.6821
0.91	57.6906
0.904	57.6522
0.898	57.5308
0.892	57.3484
0.886	57.1966
0.88	56.8976
0.874	56.5572
0.868	56.2707
0.862	55.9073
0.856	54.3084
0.85	54.4705
0.844	54.7029
0.838	54.871
0.832	55.0091
0.826	55.0969
0.82	55.1389
0.814	55.1968
0.808	55.166
0.802	55.2008
0.796	55.1664
0.79	55.1639
0.784	55.1435
0.778	55.1761
0.772	55.1559
0.766	55.1997
0.76	55.2491
0.754	55.3319
0.748	55.4091
0.742	55.4894
0.736	55.5304
0.73	55.5735
0.724	55.6023
0.718	55.6224
0.712	55.6483
0.706	55.6552
0.7	55.6669
0.694	55.6674
0.688	55.6675
0.682	55.6673
0.676	55.6652
0.67	55.6629
0.664	55.6711
0.658	55.6759
0.652	55.6794
0.646	55.6805
0.64	55.6898
0.634	55.6981
0.628	55.7006
0.622	55.7038
0.616	55.712
0.61	55.7096
0.604	55.6913
0.598	55.663
0.592	55.6193
0.586	55.5434
0.58	55.4366
0.574	55.2867
0.568	55.0949
0.562	54.9003
0.556	54.4837
0.55	54.2064
0.544	53.9536
0.538	53.7346
0.532	53.578
0.526	53.4422
0.52	53.3375
0.514	53.2201
0.508	53.073
0.502	52.8755
0.496	52.6407
0.49	52.3574
0.484	52.0459
0.478	52.2946
0.472	52.2849
0.466	52.2553
0.46	52.1733
0.454	52.0235
0.448	51.8187
0.442	51.6182
0.436	51.4196
0.43	51.2379
0.424	51.081
0.418	50.936
0.412	50.806
0.406	50.6975
0.4	50.5717
