Name: Granite
Type: rock
Class: Igneous
Subclass: Felsic
Particle Size: Solid
Sample No.: Granite_H2
Owner: JHU
Wavelength Range: All
Origin: From Santa Rita Mountains, Arizona via Smithsonian (Cat. No.NMNH 113640-17)
Description: A gray, medium-grained rock consisting of white feldspar grains, some of which contain red or pinkish cores, quartz, and minor biotite. Some of the feldspar appears to be perthitic. Original ASTER Spectral Library name was jhu.becknic.rock.igneous.felsic.solid.granit2.spectrum.txt
Measurement: Directional (10 degree) hemispherical reflectance
X Units: Wavelength (micrometers)
Y Units: Reflectance (percent)
wavelength	value
14.0112	5.9681
13.7147	5.894
13.4304	3.727
13.1577	5.6194
12.8959	7.2829
12.6443	5.6049
12.4023	5.6133
12.1694	3.4502
11.945	4.3502
11.7289	5.0431
11.5203	5.9161
11.3191	6.4455
11.1248	7.0784
10.937	7.9844
10.7555	8.6332
10.5799	9.6452
10.4099	11.4703
10.2454	14.3339
10.0859	18.0735
9.9313	22.3064
9.7814	23.2405
9.636	27.3698
9.4948	29.482
9.3577	33.91
9.2245	36.1981
9.095	34.1174
8.9691	32.3549
8.8467	34.0713
8.7275	34.5137
8.6116	29.1576
8.4986	33.8385
8.3886	31.7188
8.2814	27.1898
8.1769	21.3766
8.075	12.1
7.9756	6.2564
7.8786	2.9044
7.784	1.6198
7.6916	1.0528
7.6014	0.7709
7.5133	0.5953
7.4272	0.6468
7.343	0.7259
7.2607	0.7425
7.1803	0.8672
7.1016	1.0289
7.0246	1.0699
6.9493	1.148
6.8755	1.2701
6.8034	1.2457
6.7327	1.2925
6.6634	1.4724
6.5956	1.4885
6.5292	1.4733
6.464	1.6296
6.4002	1.6434
6.3376	1.6039
6.2762	1.6629
6.216	1.6577
6.157	1.6589
6.099	1.7953
6.0421	1.8501
5.9863	1.8574
5.9315	1.9097
5.8777	2.0151
5.8249	2.0398
5.773	2.1037
5.722	2.1787
5.6719	2.1663
5.6227	2.1438
5.5744	2.1853
5.5268	2.2514
5.4801	2.3522
5.4341	2.4774
5.3889	2.4778
5.3445	2.5059
5.3008	2.5704
5.2578	2.5898
5.2154	2.7382
5.1738	2.9086
5.1328	3.0101
5.0925	3.1643
5.0528	3.282
5.0137	3.3197
4.9752	3.4221
4.9373	3.5871
4.9	3.656
4.8632	3.9485
4.827	4.1993
4.7913	4.2473
4.7561	4.3659
4.7215	4.5464
4.6873	4.4433
4.6536	4.6425
4.6205	5.0147
4.5877	5.2568
4.5555	5.4283
4.5237	5.5094
4.4923	5.3995
4.4614	5.5596
4.4309	5.9602
4.4008	6.3534
4.3711	6.8288
4.3418	7.4413
4.3129	7.8642
4.2844	8.0594
4.2563	8.5478
4.2285	8.9491
4.2011	9.1439
4.174	9.5475
4.1473	9.966
4.1209	10.2286
4.0949	10.6008
4.0692	11.0343
4.0438	11.0205
4.0187	10.8914
3.994	10.9596
3.9695	11.0402
3.9453	11.4834
3.9214	11.9831
3.8979	12.0462
3.8746	11.9076
3.8515	12.0553
3.8288	12.3
3.8063	12.4638
3.7841	12.5636
3.7621	12.536
3.7404	12.3541
3.7189	12.4906
3.6977	12.8364
3.6767	12.9366
3.656	13.0561
3.6355	13.1561
3.6152	12.9065
3.5951	12.7429
3.5753	12.7223
3.5557	12.4914
3.5363	12.183
3.5171	11.9327
3.4981	11.4131
3.4793	11.0564
3.4607	11.0109
3.4423	10.6636
3.4241	9.9449
3.4061	9.7062
3.3883	9.5341
3.3707	9.0942
3.3533	8.9142
3.336	8.7021
3.3189	8.2481
3.302	7.8928
3.2853	7.6812
3.2687	7.2876
3.2523	6.8981
3.2361	6.7734
3.22	6.4038
3.204	6.0729
3.1883	5.9634
3.1727	5.7096
3.1572	5.4023
3.1419	5.348
3.1268	5.1492
3.1117	4.9434
3.0969	4.9428
3.0821	4.874
3.0675	4.733
3.0531	4.7177
3.0388	4.7386
3.0246	4.5813
3.0105	4.5771
2.9966	4.5584
2.9828	4.4294
2.9692	4.436
2.9556	4.4243
2.9422	4.3748
2.9289	4.4205
2.9157	4.4784
2.9027	4.4772
2.8897	4.5588
2.8769	4.6849
2.8642	4.6634
2.8516	4.8349
2.8391	4.9889
2.8267	4.9429
2.8144	5.1691
2.8022	5.2772
2.7902	5.2392
2.7782	5.3397
2.7664	5.4553
2.7546	5.5382
2.7429	6.0853
2.7314	7.0333
2.7199	8.2675
2.7085	9.5119
2.6973	12.0412
2.6861	14.3913
2.675	15.7692
2.664	16.852
2.6531	17.3296
2.6423	17.6029
2.6315	18.1553
2.6209	18.3187
2.6103	18.2899
2.5999	18.7422
2.5895	18.8317
2.5792	18.6018
2.569	18.9443
2.5588	19.0659
2.5487	18.6609
2.5388	18.9323
2.5289	19.177
2.519	18.8261
2.5093	19.022
2.4996	19.3786
2.49	19.0809
2.4805	19.2487
2.471	19.7732
2.4616	19.4995
2.4523	19.447
2.4431	20.0043
2.4339	19.9732
2.4248	19.9256
2.4157	20.5358
2.4068	20.5884
2.3979	20.4951
2.389	20.848
2.3802	20.9791
2.3715	20.815
2.3629	21.0576
2.3543	21.1363
2.3458	20.955
2.3373	21.2924
2.3289	21.6304
2.3206	21.6013
2.3123	21.8362
2.3041	22.1202
2.2959	22.1366
2.2878	22.2295
2.2798	22.4357
2.2718	22.3223
2.2638	22.4353
2.2559	22.4155
2.2481	22.3539
2.2403	22.3694
2.2326	22.3912
2.225	22.1672
2.2173	21.9768
2.2098	21.6449
2.2023	21.674
2.1948	21.9036
2.1874	22.2822
2.18	22.348
2.1727	22.7207
2.1655	22.9464
2.1583	22.7957
2.1511	23.0763
2.144	23.3226
2.1369	23.0676
2.1299	23.2312
2.1229	23.6062
2.116	23.1712
2.1091	23.1815
2.1023	23.6516
2.0955	23.2757
2.0887	23.2012
2.082	23.7355
2.06	23.5941
2.028	23.3354
1.996	22.9721
1.964	22.2576
1.932	21.7341
1.9	21.9526
1.868	24.2257
1.836	24.6667
1.804	24.8025
1.772	24.8614
1.74	24.9978
1.708	25.1597
1.676	25.26
1.644	25.2113
1.612	25.5165
1.58	25.4165
1.548	25.3488
1.516	25.4449
1.484	25.3128
1.452	25.1111
1.42	25.1196
1.388	25.3744
1.356	26.0177
1.324	26.4388
1.292	26.3903
1.26	26.6961
1.228	26.5526
1.196	26.8306
1.164	26.9696
1.132	27.2379
1.1	26.9736
1.068	27.4335
1.036	27.281
1.004	27.1558
0.972	26.9851
0.94	26.644
0.908	26.5607
0.876	26.5151
0.844	26.6451
0.812	27.2776
0.795	27.5128
0.787	27.4295
0.779	27.7322
0.771	27.4812
0.763	27.5953
0.755	27.668
0.747	27.393
0.739	27.3014
0.731	27.1194
0.723	27.0087
0.715	26.6107
0.707	26.3654
0.699	26.1947
0.691	26.0631
0.683	25.813
0.675	25.44
0.667	25.2159
0.659	25.0127
0.651	24.7779
0.643	24.5596
0.635	24.162
0.627	24.047
0.619	23.8663
0.611	23.6402
0.603	23.1449
0.595	22.9389
0.587	22.3048
0.579	21.6028
0.571	20.9476
0.563	20.2085
0.555	19.3063
0.547	18.5913
0.539	18.0001
0.531	17.6525
0.523	17.2196
0.515	16.8488
0.507	16.7582
0.499	16.3326
0.491	16.0031
0.483	15.6683
0.475	15.4475
0.467	15.4434
0.459	14.9064
0.451	14.7383
0.443	14.4264
0.435	14.1593
0.427	13.637
0.419	13.0856
0.411	12.8168
0.403	12.3889
