Name: Syenite Gneiss
Type: rock
Class: Metamorphic
Subclass: Gneis
Particle Size: Fine
Sample No.: gneiss4
Owner: JHU
Wavelength Range: All
Origin: Sample No. 467, The Hunt and Salisbury Collection at the U.S.Geological Survey, Denver, Co.
Description: This sample probably represents a metamorphosed zircon syenite.  It is a coarse-grained sample showing granulation along most grain boundaries.  There are  abundant anhedra of nepheline and microperthitic feldspar, an amphibole (either hornblende or a sodic phase), abundant magnetite and numerous grains of zircon.  Cancrinite occurs aroundfeldspars scattered throughout the section.  Particle size was 0-75 Micrometer. Original ASTER Spectral Library name was jhu.becknic.rock.metamorphic.gneiss.fine.gneiss4.spectrum.txt
Measurement: Directional (10 Degree) Hemispherical Reflectance
X Units: Wavelength (micrometers)
Y Units: Reflectance (percent)
wavelength	value
14.983	2.2377
14.645	2.964
14.321	3.2311
14.011	2.4683
13.715	1.7775
13.43	1.9151
13.158	2.1124
12.896	2.3322
12.644	2.452
12.402	5.8356
12.169	9.0229
11.945	10.158
11.729	10.05
11.52	9.6832
11.319	9.2401
11.125	8.0581
10.937	6.6976
10.755	5.7084
10.58	4.8592
10.41	4.446
10.245	5.1247
10.086	5.6343
9.9313	6.0897
9.7814	5.5386
9.636	6.3725
9.4948	5.3201
9.3577	3.8665
9.2245	3.8033
9.095	3.5098
8.9691	3.1598
8.8467	3.7346
8.7275	4.3799
8.6116	4.4706
8.4986	4.8448
8.3886	5.0572
8.2814	4.4855
8.1769	3.5027
8.075	2.3684
7.9756	1.8443
7.8786	1.7077
7.784	1.8576
7.6916	2.2149
7.6014	2.6881
7.5133	3.282
7.4272	3.7533
7.343	4.172
7.2607	4.3498
7.1803	4.7633
7.1016	5.5948
7.0246	6.4319
6.9493	6.727
6.8755	6.9598
6.8034	6.9676
6.7327	6.8681
6.6634	7.1592
6.5956	7.8414
6.5292	9.6086
6.464	10.969
6.4002	11.572
6.3376	11.317
6.2762	10.971
6.216	10.473
6.157	9.6919
6.099	10.069
6.0421	10.951
5.9863	11.551
5.9315	11.622
5.8777	11.696
5.8249	12.625
5.773	12.783
5.722	12.773
5.6719	13.208
5.6227	14.048
5.5744	14.122
5.5268	15.896
5.4801	17.852
5.4341	19.349
5.3889	21.426
5.3445	22.752
5.3008	22.928
5.2578	22.887
5.2154	22.916
5.1738	23.523
5.1328	24.089
5.0925	25.573
5.0528	27.097
5.0137	27.921
4.9752	29.198
4.9373	30.441
4.9	29.473
4.8632	30.352
4.827	31.504
4.7913	31.105
4.7561	31.88
4.7215	33.287
4.6873	34.272
4.6536	35.054
4.6205	36.414
4.5877	37.61
4.5555	38.681
4.5237	39.782
4.4923	40.946
4.4614	41.937
4.4309	42.54
4.4008	43.059
4.3711	43.614
4.3418	44.118
4.3129	44.659
4.2844	45.079
4.2563	45.45
4.2285	45.796
4.2011	46.167
4.174	46.279
4.1473	45.87
4.1209	45.793
4.0949	46.092
4.0692	46.481
4.0438	46.71
4.0187	46.478
3.994	46.298
3.9695	46.238
3.9453	46.314
3.9214	46.641
3.8979	47.01
3.8746	47.277
3.8515	47.42
3.8288	47.526
3.8063	47.623
3.7841	47.701
3.7621	47.733
3.7404	47.734
3.7189	47.731
3.6977	47.697
3.6767	47.654
3.656	47.543
3.6355	47.374
3.6152	47.319
3.5951	47.247
3.5753	47.132
3.5557	46.975
3.5363	46.676
3.5171	46.269
3.4981	45.79
3.4793	45.675
3.4607	45.488
3.4423	45.444
3.4241	45.192
3.4061	45.02
3.3883	44.87
3.3707	44.566
3.3533	44.271
3.336	44.042
3.3189	43.825
3.302	43.505
3.2853	43.235
3.2687	42.922
3.2523	42.6
3.2361	42.287
3.22	41.928
3.204	41.578
3.1883	41.216
3.1727	40.802
3.1572	40.369
3.1419	39.915
3.1268	39.442
3.1117	38.88
3.0969	38.346
3.0821	37.847
3.0675	37.412
3.0531	37.075
3.0388	36.784
3.0246	36.522
3.0105	36.172
2.9966	35.742
2.9828	35.239
2.9692	34.697
2.9556	34.217
2.9422	33.641
2.9289	32.916
2.9157	32.091
2.9027	31.568
2.8897	31.193
2.8769	30.47
2.8642	29.93
2.8516	29.727
2.8391	29.272
2.8267	29.107
2.8144	29.796
2.8022	30.346
2.7902	30.411
2.7782	30.425
2.7664	30.993
2.7546	33.3
2.7429	37.045
2.7314	40.106
2.7199	43.293
2.7085	45.838
2.6973	47.541
2.6861	48.578
2.675	49.053
2.664	49.482
2.6531	49.92
2.6423	50.126
2.6315	50.119
2.6209	50.165
2.6103	50.282
2.5999	50.269
2.5895	50.292
2.5792	50.357
2.569	50.391
2.5588	50.392
2.5487	50.396
2.5388	50.383
2.5289	50.421
2.519	50.474
2.5093	50.505
2.4996	50.548
2.49	50.542
2.4805	50.532
2.471	50.577
2.4616	50.604
2.4523	50.606
2.4431	50.648
2.4339	50.685
2.4248	50.811
2.4157	50.881
2.4068	50.975
2.3979	51.086
2.389	51.148
2.3802	51.196
2.3715	51.224
2.3629	51.261
2.3543	51.258
2.3458	51.271
2.3373	51.252
2.3289	51.295
2.3206	51.289
2.3123	51.298
2.3041	51.295
2.2959	51.319
2.2878	51.266
2.2798	51.234
2.2718	51.231
2.2638	51.206
2.2559	51.179
2.2481	51.144
2.2403	51.125
2.2326	51.109
2.225	51.117
2.2173	51.093
2.2098	51.054
2.2023	51.047
2.1948	51.014
2.1874	51.007
2.18	51.013
2.1727	51.02
2.1655	51.002
2.1583	50.995
2.1511	50.984
2.144	50.991
2.1369	50.926
2.1299	50.926
2.1229	50.907
2.116	50.895
2.1091	50.887
2.1023	50.83
2.0955	50.842
2.0887	50.781
2.082	50.86
2.06	50.519
2.028	49.854
1.996	49.303
1.964	48.721
1.932	48.039
1.9	47.643
1.868	48.695
1.836	48.728
1.804	48.036
1.772	47.439
1.74	47.276
1.708	47.507
1.676	46.992
1.644	47.005
1.612	45.947
1.58	45.891
1.548	45.147
1.516	45.078
1.484	44.615
1.452	44.739
1.42	44.258
1.388	43.899
1.356	43.759
1.324	43.199
1.292	42.931
1.26	42.946
1.228	42.856
1.196	42.236
1.164	41.826
1.132	41.874
1.1	41.878
1.068	41.812
1.036	41.686
1.004	41.805
0.972	41.53
0.94	41.816
0.908	41.768
0.876	41.556
0.844	41.181
0.812	40.728
0.795	41.691
0.787	41.229
0.779	41.861
0.771	41.105
0.763	41.673
0.755	41.552
0.747	41.599
0.739	40.968
0.731	41.553
0.723	41.704
0.715	41.679
0.707	41.754
0.699	42.102
0.691	42.352
0.683	42.552
0.675	42.47
0.667	42.81
0.659	42.95
0.651	42.873
0.643	43.274
0.635	43.213
0.627	42.734
0.619	43.496
0.611	43.557
0.603	43.355
0.595	43.418
0.587	43.295
0.579	43.605
0.571	43.517
0.563	43.558
0.555	43.616
0.547	43.89
0.539	43.935
0.531	43.319
0.523	43.028
0.515	43.113
0.507	43.16
0.499	42.435
0.491	42.809
0.483	42.223
0.475	42.016
0.467	40.992
0.459	42.28
0.451	42.08
0.443	41.56
0.435	41.806
0.427	41.096
0.419	41.1
0.411	40.242
0.403	40.033
