Name: Quartz Monzonite
Type: rock
Class: Igneous
Subclass: Intermediate
Particle Size: Fine
Sample No.: Qmonzonite_H1
Owner: JHU
Wavelength Range: All
Origin: Santa Rita Mountains, Arizona, via Smithsonian (Cat. No. NMNH113640-18)
Description: Powder derived from light gray medium-grained rock composed of pink feldspar, grayish plagioclase, quartz and biotite.Particle size was 0-75 micrometers. Original ASTER Spectral Library name was jhu.becknic.rock.igneous.intermediate.fine.qmonzo1.spectrum.txt
Measurement: Directional (10 degree) hemispherical reflectance
X Units: Wavelength (micrometers)
Y Units: Reflectance (percent)
wavelength	value
14.011	2.7018
13.715	2.4413
13.43	2.325
13.158	2.91
12.896	2.4375
12.644	1.8828
12.402	2.9175
12.169	4.7665
11.945	6.9351
11.729	7.5089
11.52	7.5454
11.319	7.448
11.125	6.653
10.937	5.8753
10.755	5.1091
10.58	4.5286
10.41	4.2942
10.245	4.3615
10.086	4.7519
9.9313	5.2512
9.7814	5.1895
9.636	5.4546
9.4948	5.5675
9.3577	6.6546
9.2245	7.2148
9.095	6.7547
8.9691	6.4223
8.8467	6.6084
8.7275	6.6086
8.6116	5.98
8.4986	7.3699
8.3886	7.5389
8.2814	7.5396
8.1769	7.1963
8.075	4.7597
7.9756	2.9431
7.8786	1.6985
7.784	1.2014
7.6916	0.9719
7.6014	0.9379
7.5133	1.1041
7.4272	1.3512
7.343	1.7561
7.2607	2.3288
7.1803	3.1034
7.1016	4.0364
7.0246	4.66
6.9493	5.332
6.8755	5.8394
6.8034	6.0424
6.7327	6.0506
6.6634	6.6133
6.5956	6.8871
6.5292	7.2232
6.464	8.8643
6.4002	9.0714
6.3376	7.9643
6.2762	6.7737
6.216	6.1038
6.157	7.0213
6.099	8.733
6.0421	9.4835
5.9863	9.4289
5.9315	8.9433
5.8777	10.065
5.8249	11.038
5.773	11.505
5.722	11.693
5.6719	11.116
5.6227	9.7999
5.5744	9.7729
5.5268	11.22
5.4801	13.412
5.4341	14.298
5.3889	12.066
5.3445	10.693
5.3008	11.463
5.2578	13.505
5.2154	17.214
5.1738	18.831
5.1328	19.53
5.0925	20.192
5.0528	19.935
5.0137	20.245
4.9752	22.204
4.9373	25.517
4.9	29.288
4.8632	33.969
4.827	35.886
4.7913	36.3
4.7561	37.093
4.7215	38.068
4.6873	37.813
4.6536	39.233
4.6205	41.429
4.5877	43.27
4.5555	44.855
4.5237	45.603
4.4923	45.162
4.4614	46.033
4.4309	48.068
4.4008	50.109
4.3711	52.593
4.3418	54.611
4.3129	55.979
4.2844	56.896
4.2563	58.136
4.2285	58.788
4.2011	59.351
4.174	60.063
4.1473	60.701
4.1209	61.313
4.0949	61.935
4.0692	62.361
4.0438	62.477
4.0187	62.468
3.994	62.533
3.9695	62.814
3.9453	63.264
3.9214	63.472
3.8979	63.486
3.8746	63.347
3.8515	63.33
3.8288	63.49
3.8063	63.637
3.7841	63.557
3.7621	63.376
3.7404	63.194
3.7189	63.198
3.6977	63.317
3.6767	63.407
3.656	63.421
3.6355	63.236
3.6152	62.99
3.5951	62.723
3.5753	62.375
3.5557	62.016
3.5363	61.52
3.5171	60.566
3.4981	59.212
3.4793	59.225
3.4607	59.001
3.4423	58.095
3.4241	56.426
3.4061	55.849
3.3883	56.109
3.3707	55.53
3.3533	55.708
3.336	55.348
3.3189	54.68
3.302	53.924
3.2853	53.033
3.2687	52.13
3.2523	51.201
3.2361	50.241
3.22	49.194
3.204	48.2
3.1883	47.063
3.1727	45.946
3.1572	44.762
3.1419	43.589
3.1268	42.443
3.1117	41.387
3.0969	40.489
3.0821	39.625
3.0675	38.813
3.0531	38.157
3.0388	37.491
3.0246	36.791
3.0105	36.103
2.9966	35.346
2.9828	34.743
2.9692	34.119
2.9556	33.698
2.9422	33.495
2.9289	33.414
2.9157	33.532
2.9027	33.83
2.8897	34.044
2.8769	34.266
2.8642	34.604
2.8516	34.792
2.8391	34.971
2.8267	35.094
2.8144	35.2
2.8022	35.499
2.7902	35.695
2.7782	35.646
2.7664	35.233
2.7546	35.802
2.7429	38.581
2.7314	41.909
2.7199	47.1
2.7085	52.039
2.6973	55.792
2.6861	62.865
2.675	65.346
2.664	67.117
2.6531	67.924
2.6423	68.308
2.6315	68.536
2.6209	68.679
2.6103	68.832
2.5999	68.922
2.5895	69.033
2.5792	69.072
2.569	69.095
2.5588	69.166
2.5487	69.313
2.5388	69.303
2.5289	69.372
2.519	69.351
2.5093	69.412
2.4996	69.528
2.49	69.569
2.4805	69.611
2.471	69.7
2.4616	69.865
2.4523	69.936
2.4431	69.915
2.4339	69.974
2.4248	70.111
2.4157	70.175
2.4068	70.125
2.3979	70.185
2.389	70.069
2.3802	70.291
2.3715	70.155
2.3629	70.153
2.3543	70.234
2.3458	70.122
2.3373	70.341
2.3289	70.368
2.3206	70.58
2.3123	70.728
2.3041	70.786
2.2959	70.882
2.2878	71.024
2.2798	71.078
2.2718	71.059
2.2638	71.104
2.2559	71.082
2.2481	71.375
2.2403	71.365
2.2326	71.504
2.225	71.536
2.2173	71.396
2.2098	71.365
2.2023	71.434
2.1948	71.654
2.1874	71.827
2.18	71.893
2.1727	72.089
2.1655	72.176
2.1583	72.22
2.1511	72.279
2.144	72.318
2.1369	72.524
2.1299	72.454
2.1229	72.45
2.116	72.479
2.1091	72.459
2.1023	72.643
2.0955	72.578
2.0887	72.452
2.082	72.565
2.06	72.002
2.028	71.376
1.996	70.306
1.964	69.885
1.932	69.169
1.9	68.579
1.868	69.306
1.836	69.839
1.804	68.876
1.772	68.58
1.74	68.957
1.708	68.617
1.676	67.993
1.644	67.612
1.612	67.33
1.58	66.611
1.548	66.348
1.516	66.061
1.484	65.262
1.452	64.804
1.42	63.899
1.388	63.989
1.356	63.695
1.324	62.734
1.292	62.824
1.26	61.752
1.228	61.484
1.196	61.011
1.164	60.627
1.132	60.371
1.1	60.309
1.068	60.082
1.036	59.523
1.004	59.757
0.972	58.895
0.94	58.403
0.908	58.4
0.876	58.026
0.844	57.739
0.812	57.646
0.795	57.739
0.787	57.464
0.779	57.369
0.771	57.252
0.763	57.373
0.755	56.834
0.747	56.443
0.739	56.745
0.731	56.73
0.723	56.568
0.715	56.36
0.707	55.831
0.699	56.59
0.691	56.566
0.683	56.415
0.675	56.826
0.667	56.276
0.659	56.23
0.651	56.705
0.643	56.23
0.635	55.985
0.627	56.198
0.619	56.105
0.611	55.552
0.603	55.417
0.595	55.452
0.587	55.104
0.579	54.679
0.571	54.601
0.563	54.112
0.555	51.882
0.547	51.435
0.539	51.137
0.531	50.543
0.523	49.87
0.515	49.515
0.507	48.153
0.499	47.697
0.491	46.946
0.483	46.522
0.475	45.601
0.467	45.054
0.459	45.695
0.451	44.726
0.443	44.178
0.435	43.685
0.427	42.669
0.419	41.222
0.411	40.352
0.403	39.75
