Name: Rhyolite
Type: Rock
Class: Igneous
Subclass: Felsic
Particle Size: Solid
Sample No.: AP-938-91
Owner: United States Geological Survey, L. C. Rowan
Wavelength Range: All
Origin: Iberian Pyrite Belt, Spain
Description: Rhyolite, fresh, blue-graySample was Whole Rock Chips. Original ASTER Spectral Library name was usgs.perknic.rock.igneous.felsic.solid.rhy91.spectrum.txt
Measurement: Directional Hemispherical Reflectance
X Units: Wavelength (micrometers)
Y Units: Reflectance (percent)
wavelength	value
14.051	2.987
13.79	3.605
13.538	3.6256
13.295	3.9243
13.06	4.6453
12.834	6.9422
12.616	5.0985
12.404	5.3663
12.2	1.7098
12.002	2.6883
11.811	3.0694
11.626	3.5947
11.446	3.811
11.272	4.0994
11.103	4.429
10.939	4.9749
10.78	5.1088
10.625	5.459
10.475	5.9431
10.329	6.3551
10.187	7.1688
10.049	8.0855
9.914	8.8374
9.783	9.5172
9.656	11.5051
9.532	12.9986
9.411	17.716
9.293	27.2126
9.178	28.2838
9.065	27.5319
8.956	26.0693
8.849	24.4007
8.744	22.7733
8.642	18.9726
8.543	22.7939
8.445	25.1423
8.35	26.8933
8.257	29.2005
8.166	27.913
8.077	19.0138
7.99	11.9274
7.905	6.7053
7.821	3.8007
7.739	2.5956
7.659	1.7407
7.581	1.339
7.504	1.1124
7.429	0.9476
7.355	0.9785
7.283	0.9064
7.212	1.0094
7.143	1.0609
7.074	1.0918
7.007	1.1845
6.942	1.1124
6.877	1.2051
6.814	1.1948
6.752	1.2154
6.691	1.2154
6.631	1.3493
6.572	1.3081
6.514	1.3184
6.458	1.5862
6.402	1.5553
6.347	1.5347
6.293	1.3905
6.24	1.3493
6.188	1.3081
6.137	1.5141
6.086	1.6892
6.037	1.6583
5.988	1.6892
5.94	1.6171
5.893	1.7304
5.846	1.9467
5.8	1.9982
5.755	2.1115
5.711	2.2145
5.667	2.1218
5.624	1.9261
5.582	1.9261
5.54	1.9467
5.499	2.163
5.459	2.3587
5.419	2.3278
5.379	2.0188
5.341	1.9158
5.302	1.9158
5.265	2.0291
5.227	2.3587
5.191	2.6368
5.155	2.6162
5.119	2.6677
5.084	2.5956
5.049	2.6368
5.015	2.5956
4.981	2.6265
4.948	3.0797
4.915	3.3578
4.883	4.2333
4.851	4.8513
4.819	5.253
4.788	5.3457
4.758	5.5208
4.727	5.7165
4.697	5.7165
4.668	5.8195
4.638	6.2521
4.61	6.7053
4.581	7.0143
4.553	7.1791
4.525	7.0864
4.498	6.6332
4.47	6.5817
4.444	6.8495
4.417	7.2718
4.391	7.828
4.365	8.3842
4.34	8.8683
4.314	9.1258
4.289	9.2597
4.265	9.5378
4.24	9.8262
4.216	9.7335
4.192	9.8365
4.169	10.0116
4.145	10.2279
4.122	10.3721
4.099	10.5472
4.077	10.7738
4.055	10.7326
4.032	10.7944
4.011	10.7944
3.989	10.8459
3.968	10.9489
3.947	10.9695
3.926	11.1549
3.905	11.1137
3.884	11.0004
3.864	11.1446
3.844	11.0622
3.824	11.0828
3.805	11.1137
3.785	11.2167
3.766	11.0931
3.747	10.8974
3.728	10.9283
3.709	10.9798
3.691	10.9592
3.673	11.0416
3.655	11.0519
3.637	10.8562
3.619	10.8562
3.601	10.7326
3.584	10.6605
3.567	10.6296
3.549	10.3618
3.533	10.2279
3.516	10.1764
3.499	9.9086
3.483	9.7232
3.466	9.6923
3.45	9.6408
3.434	9.3009
3.418	9.1361
3.403	9.0331
3.387	8.9713
3.372	8.6829
3.357	8.6726
3.341	8.5696
3.326	8.4048
3.312	8.3533
3.297	8.0855
3.282	8.0649
3.268	7.8589
3.253	7.8074
3.239	7.6323
3.225	7.5808
3.211	7.3439
3.197	7.416
3.183	7.2203
3.17	7.1894
3.156	6.9834
3.143	6.8289
3.13	6.9113
3.117	6.6744
3.103	6.4478
3.091	6.4478
3.078	6.4169
3.065	6.2006
3.052	6.2624
3.04	6.3345
3.027	6.0976
3.015	6.0049
3.003	6.0667
2.991	6.0049
2.979	6.2109
2.967	6.0049
2.955	5.7268
2.943	5.768
2.932	5.9946
2.92	6.0461
2.909	6.0976
2.897	5.9843
2.886	6.2624
2.875	6.1182
2.864	6.1491
2.853	6.386
2.842	6.6538
2.831	6.3036
2.82	6.2933
2.809	6.0564
2.799	5.6753
2.788	5.5002
2.778	4.9337
2.767	4.9337
2.757	5.2118
2.747	5.5826
2.737	5.7062
2.727	6.8598
2.717	7.2821
2.707	6.2624
2.697	7.7868
2.687	10.3
2.677	11.3609
2.668	12.2982
2.658	12.8956
2.649	12.7926
2.639	13.2252
2.63	13.4003
2.62	13.5857
2.611	13.4415
2.602	13.4621
2.593	13.6475
2.584	13.7196
2.575	13.9668
2.566	13.7402
2.557	13.7917
2.548	13.8844
2.54	13.7711
2.531	13.5651
2.522	13.8123
2.514	13.7299
2.505	13.6681
2.489	13.6505
2.461	13.4505
2.433	13.4505
2.405	13.2505
2.377	13.4505
2.349	13.0505
2.321	12.9505
2.293	12.5505
2.265	13.2505
2.237	12.9505
2.209	12.7505
2.181	13.0505
2.153	13.2505
2.125	13.1505
2.097	13.4505
2.069	13.4505
2.041	13.4505
2.013	13.1505
1.985	13.0505
1.957	13.0505
1.929	12.7505
1.901	12.9505
1.873	13.2505
1.845	13.5505
1.817	13.4505
1.789	13.4505
1.761	13.5505
1.733	13.5505
1.705	13.5505
1.677	13.7505
1.649	14.0505
1.621	14.1505
1.593	14.1505
1.565	14.2505
1.537	14.5505
1.509	14.8505
1.481	14.8505
1.453	14.9505
1.425	15.2505
1.397	15.4505
1.369	15.9505
1.341	16.5505
1.313	16.8505
1.285	17.1505
1.257	17.6505
1.229	18.1505
1.201	18.5505
1.173	19.2505
1.145	19.8505
1.117	20.4505
1.089	20.8505
1.061	21.8505
1.033	22.3505
1.005	22.8505
0.977	23.0505
0.949	22.8505
0.921	22.3505
0.893	21.5505
0.865	21.1505
0.837	21.3505
0.809	21.7505
0.799	21.5505
0.792	21.8505
0.785	21.7505
0.778	21.9505
0.771	21.5505
0.764	21.5505
0.757	21.4505
0.75	21.4505
0.743	21.3505
0.736	20.9505
0.729	20.6505
0.722	20.3505
0.715	20.0505
0.708	20.1505
0.701	19.5505
0.694	19.1505
0.687	19.0505
0.68	18.7505
0.673	18.6505
0.666	18.4505
0.659	18.1505
0.652	18.0505
0.645	17.9505
0.638	17.6505
0.631	17.5505
0.624	17.4505
0.617	17.6505
0.61	17.4505
0.603	17.1505
0.596	16.8505
0.589	16.7505
0.582	16.4505
0.575	16.2505
0.568	16.0505
0.561	15.4505
0.554	15.3505
0.547	15.2505
0.54	15.2505
0.533	15.3505
0.526	15.4505
0.519	15.2505
0.512	15.4505
0.505	15.4505
0.498	15.6505
0.491	15.8505
0.484	15.8505
0.477	15.9505
0.47	16.4505
0.463	17.0505
0.456	16.9505
0.449	17.5505
0.442	17.5505
0.435	17.8505
0.428	18.2505
0.421	18.4505
0.414	18.2505
0.407	18.5505
