Name: Black Shale
Type: rock
Class: Sedimentary
Subclass: Shale
Particle Size: Coarse
Sample No.: shale_4
Owner: JHU
Wavelength Range: All
Origin: Sample No. 385,  The Hunt and Salisbury Collection at the U.S.Geological Survey, Denver, Co.
Description: This is very similar to shale.6, but with more clay in the matrix and fewer forams (mostly uniserial, some biserial and plani/trocho spiral types). There is possibly more quartz than carbonate in the groundmass, while again both opaques and carbonaceous material are present here.Particle size was 500 - 1500 Micrometers. Original ASTER Spectral Library name was jhu.becknic.rock.sedimentary.shale.coarse.shale4.spectrum.txt
Measurement: Directional (10 Degree) Hemispherical Reflectance
X Units: Wavelength (micrometers)
Y Units: Reflectance (percent)
wavelength	value
14.0112	1.9806
13.7147	2.1572
13.4304	2.3242
13.1577	2.4342
12.8959	2.5649
12.6443	2.3732
12.4023	1.8808
12.1694	2.0497
11.945	2.2711
11.7289	2.5813
11.5203	3.0024
11.3191	2.7991
11.1248	3.0074
10.937	2.851
10.7555	2.85
10.5799	2.9493
10.4099	3.2166
10.2454	3.3575
10.0859	3.4443
9.9313	3.5595
9.7814	3.7809
9.636	4.0729
9.4948	4.2121
9.3577	4.716
9.2245	4.946
9.095	4.7904
8.9691	4.6366
8.8467	4.5734
8.7275	4.5447
8.6116	4.0018
8.4986	4.6485
8.3886	4.932
8.2814	5.7819
8.1769	6.9672
8.075	6.8617
7.9756	6.8469
7.8786	6.5654
7.784	6.6238
7.6916	6.871
7.6014	6.6753
7.5133	6.8004
7.4272	6.7157
7.343	6.248
7.2607	5.1955
7.1803	4.1839
7.1016	4.0839
7.0246	3.6728
6.9493	3.28
6.8755	3.1175
6.8034	3.1385
6.7327	3.3352
6.6634	3.7202
6.5956	4.2174
6.5292	4.6165
6.464	5.1558
6.4002	5.1385
6.3376	4.0495
6.2762	3.1601
6.216	2.6187
6.157	2.3586
6.099	2.3028
6.0421	2.2857
5.9863	2.3813
5.9315	2.4138
5.8777	2.5509
5.8249	2.7118
5.773	2.7496
5.722	2.8117
5.6719	2.8685
5.6227	2.7211
5.5744	2.0586
5.5268	2.6588
5.4801	2.9805
5.4341	3.1903
5.3889	3.0562
5.3445	2.8905
5.3008	3.0065
5.2578	3.2711
5.2154	3.6015
5.1738	3.7248
5.1328	3.7449
5.0925	3.7446
5.0528	3.7525
5.0137	3.7716
4.9752	3.9248
4.9373	4.1313
4.9	4.3387
4.8632	4.537
4.827	4.6241
4.7913	4.6864
4.7561	4.7265
4.7215	4.7211
4.6873	4.5763
4.6536	4.6248
4.6205	4.8177
4.5877	4.9206
4.5555	4.9759
4.5237	5.0084
4.4923	5.0158
4.4614	5.0811
4.4309	5.1541
4.4008	5.2343
4.3711	5.2964
4.3418	5.3196
4.3129	5.355
4.2844	5.3691
4.2563	5.4113
4.2285	5.4565
4.2011	5.4785
4.174	5.4996
4.1473	5.5007
4.1209	5.4818
4.0949	5.4453
4.0692	5.3546
4.0438	5.0615
4.0187	4.5136
3.994	3.7162
3.9695	3.4989
3.9453	3.9188
3.9214	4.282
3.8979	4.4475
3.8746	4.53
3.8515	4.6469
3.8288	4.8464
3.8063	5.162
3.7841	5.5321
3.7621	5.6647
3.7404	5.7192
3.7189	5.751
3.6977	5.7407
3.6767	5.714
3.656	5.6833
3.6355	5.6403
3.6152	5.6008
3.5951	5.5005
3.5753	5.339
3.5557	5.2048
3.5363	4.9807
3.5171	4.4791
3.4981	4.1683
3.4793	4.087
3.4607	4.2568
3.4423	4.2346
3.4241	4.0556
3.4061	4.1083
3.3883	4.131
3.3707	4.1686
3.3533	4.1985
3.336	4.4588
3.3189	4.5406
3.302	4.5617
3.2853	4.5949
3.2687	4.6047
3.2523	4.6462
3.2361	4.6772
3.22	4.6603
3.204	4.626
3.1883	4.6042
3.1727	4.5559
3.1572	4.5016
3.1419	4.4507
3.1268	4.3823
3.1117	4.3102
3.0969	4.2516
3.0821	4.2511
3.0675	4.2016
3.0531	4.1449
3.0388	4.1212
3.0246	4.082
3.0105	4.0949
2.9966	4.1061
2.9828	4.1217
2.9692	4.1968
2.9556	4.1748
2.9422	4.2241
2.9289	4.2669
2.9157	4.2468
2.9027	4.3043
2.8897	4.3387
2.8769	4.3836
2.8642	4.4268
2.8516	4.4681
2.8391	4.4918
2.8267	4.4784
2.8144	4.3894
2.8022	4.3056
2.7902	4.16
2.7782	3.7497
2.7664	3.3965
2.7546	3.1814
2.7429	3.3616
2.7314	3.7308
2.7199	4.4966
2.7085	5.6572
2.6973	6.4815
2.6861	6.9654
2.675	7.098
2.664	7.1804
2.6531	7.3918
2.6423	7.4811
2.6315	7.406
2.6209	7.4378
2.6103	7.4694
2.5999	7.5031
2.5895	7.5335
2.5792	7.5459
2.569	7.6067
2.5588	7.6115
2.5487	7.6079
2.5388	7.6079
2.5289	7.6189
2.519	7.706
2.5093	7.721
2.4996	7.7029
2.49	7.7386
2.4805	7.7713
2.471	7.799
2.4616	7.8196
2.4523	7.8483
2.4431	7.8852
2.4339	7.8885
2.4248	7.9079
2.4157	7.9479
2.4068	7.9871
2.3979	8.039
2.389	8.0254
2.3802	8.0515
2.3715	8.0329
2.3629	8.0266
2.3543	8.0146
2.3458	8.0354
2.3373	8.0825
2.3289	8.0565
2.3206	8.1443
2.3123	8.1338
2.3041	8.1496
2.2959	8.1883
2.2878	8.2286
2.2798	8.2192
2.2718	8.2419
2.2638	8.2436
2.2559	8.2688
2.2481	8.2945
2.2403	8.2685
2.2326	8.2864
2.225	8.262
2.2173	8.2591
2.2098	8.2673
2.2023	8.2467
2.1948	8.3036
2.1874	8.3695
2.18	8.3632
2.1727	8.4094
2.1655	8.4738
2.1583	8.3941
2.1511	8.5245
2.144	8.4721
2.1369	8.4647
2.1299	8.4912
2.1229	8.4955
2.116	8.5018
2.1091	8.5486
2.1023	8.5025
2.0955	8.537
2.0887	8.6042
2.082	8.5697
2.06	8.6504
2.028	8.6619
1.996	8.7087
1.964	8.7539
1.932	8.6856
1.9	8.7634
1.868	8.9593
1.836	9.1109
1.804	9.1473
1.772	9.1033
1.74	9.1242
1.708	9.2297
1.676	9.2657
1.644	9.2916
1.612	9.3645
1.58	9.3728
1.548	9.3404
1.516	9.3991
1.484	9.3864
1.452	9.412
1.42	9.2563
1.388	9.4976
1.356	9.4518
1.324	9.4239
1.292	9.5476
1.26	9.4939
1.228	9.4426
1.196	9.3835
1.164	9.3324
1.132	9.3215
1.1	9.2557
1.068	9.1572
1.036	9.2092
1.004	9.1328
0.972	9.1327
0.94	9.0397
0.908	8.9469
0.876	9.0896
0.844	8.9493
0.812	8.6964
0.795	8.9307
0.787	8.9855
0.779	8.7892
0.771	8.8688
0.763	8.7991
0.755	8.7934
0.747	8.7106
0.739	8.8972
0.731	8.5396
0.723	8.6445
0.715	8.6914
0.707	8.5456
0.699	8.5356
0.691	8.4352
0.683	8.408
0.675	8.3447
0.667	8.3504
0.659	8.2187
0.651	8.0881
0.643	8.1536
0.635	7.9379
0.627	8.0004
0.619	7.9208
0.611	7.8196
0.603	7.7535
0.595	7.5941
0.587	7.5768
0.579	7.5616
0.571	7.4417
0.563	7.3677
0.555	7.1823
0.547	7.1008
0.539	6.9877
0.531	6.779
0.523	6.7769
0.515	6.6816
0.507	6.5818
0.499	6.2659
0.491	6.28
0.483	6.036
0.475	6.047
0.467	5.8076
0.459	5.6607
0.451	5.4051
0.443	5.2912
0.435	4.8729
0.427	4.9069
0.419	4.4976
0.411	4.4811
0.403	4.3251
