Name: Chalk
Type: Rock
Class: Sedimentary
Subclass: Limestone
Particle Size: Solid
Sample No.: Ward67
Owner: JPL
Wavelength Range: VSWIR
Origin: Ward's Collection of American Rocks.  Sample locality - Oktibbeha County, Mississippi.
Description: A soft, gray rock with earthy texture.Geologic age - Cretaceous.Collected by:  Ward's Natural Science Original ASTER Spectral Library name was jpl.perkin.rock.sedimentary.limestone.solid.ward67.spectrum.txt
Measurement: Hemispherical reflectance
X Units: Wavelength (micrometers)
Y Units: Reflectance (percent)
wavelength	value
2.5	37.3606
2.494	37.2692
2.488	37.5757
2.482	37.8236
2.476	38.2261
2.47	38.5666
2.464	38.956
2.458	39.2707
2.452	39.5695
2.446	39.8458
2.44	40.15
2.434	40.3881
2.428	40.726
2.422	41.0576
2.416	41.2744
2.41	41.5244
2.404	41.7846
2.398	41.9505
2.392	42.0389
2.386	42.1482
2.38	42.2686
2.374	42.401
2.368	42.4642
2.362	42.4004
2.356	42.2976
2.35	42.1094
2.344	41.9834
2.338	42.0552
2.332	42.2453
2.326	42.4221
2.32	42.7582
2.314	42.9759
2.308	43.164
2.302	43.3487
2.296	43.5881
2.29	43.7208
2.284	44.03
2.278	44.1966
2.272	44.3768
2.266	44.4948
2.26	44.6172
2.254	44.7063
2.248	44.7444
2.242	44.8098
2.236	44.8944
2.23	44.929
2.224	44.9368
2.218	44.6858
2.212	44.4335
2.206	44.1061
2.2	44.5368
2.194	44.9929
2.188	45.2295
2.182	45.4849
2.176	45.7842
2.17	45.93
2.164	46.1699
2.158	46.4053
2.152	46.6475
2.146	46.8942
2.14	46.9846
2.134	47.0783
2.128	47.0835
2.122	46.9536
2.116	46.7684
2.11	46.7044
2.104	46.5302
2.098	46.5925
2.092	46.5915
2.086	46.6181
2.08	46.6511
2.074	46.7393
2.068	46.7588
2.062	46.8839
2.056	46.9089
2.05	46.9074
2.044	46.9723
2.038	46.945
2.032	46.9182
2.026	46.9017
2.02	46.8311
2.014	46.8078
2.008	46.7476
2.002	46.6204
1.996	46.4846
1.99	46.3834
1.984	46.3263
1.978	46.2222
1.972	46.2146
1.966	46.0649
1.96	45.9752
1.954	45.9434
1.948	45.9045
1.942	45.894
1.936	45.7665
1.93	45.714
1.924	45.407
1.918	45.2557
1.912	45.2041
1.906	45.4749
1.9	46.1162
1.894	47.0116
1.888	47.6803
1.882	48.1118
1.876	48.5335
1.87	48.5851
1.864	48.8666
1.858	48.8918
1.852	48.9856
1.846	48.9267
1.84	49.078
1.834	49.0322
1.828	49.0118
1.822	49.155
1.816	49.1675
1.81	49.2068
1.804	49.2212
1.798	49.2946
1.792	49.2339
1.786	49.257
1.78	49.2897
1.774	49.2549
1.768	49.3146
1.762	49.259
1.756	49.3828
1.75	49.3473
1.744	49.4651
1.738	49.4707
1.732	49.484
1.726	49.5096
1.72	49.5204
1.714	49.5378
1.708	49.5734
1.702	49.6447
1.696	49.5606
1.69	49.5331
1.684	49.6555
1.678	49.5683
1.672	49.6508
1.666	49.7785
1.66	49.7236
1.654	49.7311
1.648	49.7597
1.642	49.8176
1.636	49.7478
1.63	49.8126
1.624	49.777
1.618	49.8457
1.612	49.8142
1.606	49.8419
1.6	49.8848
1.594	49.865
1.588	49.7819
1.582	49.8546
1.576	49.8441
1.57	49.8487
1.564	49.8693
1.558	49.798
1.552	49.8082
1.546	49.7635
1.54	49.724
1.534	49.8085
1.528	49.8056
1.522	49.8021
1.516	49.7855
1.51	49.6935
1.504	49.6808
1.498	49.6822
1.492	49.7153
1.486	49.6299
1.48	49.5959
1.474	49.5266
1.468	49.5378
1.462	49.4947
1.456	49.5575
1.45	49.457
1.444	49.3769
1.438	49.3964
1.432	49.2899
1.426	49.0755
1.42	48.9176
1.414	48.5951
1.408	48.9779
1.402	49.0962
1.396	49.332
1.39	49.3925
1.384	49.6275
1.378	49.6402
1.372	49.7681
1.366	49.6665
1.36	49.7321
1.354	49.6887
1.348	49.6109
1.342	49.5893
1.336	49.5543
1.33	49.6263
1.324	49.5737
1.318	49.5545
1.312	49.5376
1.306	49.4791
1.3	49.4331
1.294	49.5134
1.288	49.3859
1.282	49.4057
1.276	49.3777
1.27	49.2845
1.264	49.2467
1.258	49.2858
1.252	49.2508
1.246	49.1766
1.24	49.1307
1.234	49.0931
1.228	49.058
1.222	49.0585
1.216	48.9873
1.21	48.991
1.204	48.9828
1.198	48.9433
1.192	48.9054
1.186	48.8318
1.18	48.7889
1.174	48.7665
1.168	48.7622
1.162	48.7494
1.156	48.6764
1.15	48.7122
1.144	48.6817
1.138	48.6664
1.132	48.6885
1.126	48.6343
1.12	48.6152
1.114	48.6044
1.108	48.6282
1.102	48.5386
1.096	48.5871
1.09	48.5924
1.084	48.5618
1.078	48.5534
1.072	48.52
1.066	48.4851
1.06	48.5018
1.054	48.4589
1.048	48.3125
1.042	48.319
1.036	48.3066
1.03	48.3225
1.024	48.274
1.018	48.2365
1.012	48.1739
1.006	48.2104
1	48.201
0.994	48.16
0.988	48.1352
0.982	48.139
0.976	48.1052
0.97	48.1121
0.964	48.0908
0.958	48.1878
0.952	48.1717
0.946	48.167
0.94	48.1681
0.934	48.2478
0.928	48.2182
0.922	48.2342
0.916	48.3087
0.91	48.3192
0.904	48.3105
0.898	48.3768
0.892	48.4244
0.886	48.3718
0.88	48.4418
0.874	48.4275
0.868	48.5003
0.862	48.4743
0.856	48.3337
0.85	48.4549
0.844	48.4424
0.838	48.4329
0.832	48.453
0.826	48.4204
0.82	48.4137
0.814	48.3381
0.808	48.3244
0.802	48.2535
0.796	48.163
0.79	48.1161
0.784	48.0067
0.778	47.9457
0.772	47.8414
0.766	47.7397
0.76	47.6696
0.754	47.603
0.748	47.5025
0.742	47.4389
0.736	47.3483
0.73	47.2862
0.724	47.2215
0.718	47.1258
0.712	47.052
0.706	46.9792
0.7	46.8846
0.694	46.8189
0.688	46.7353
0.682	46.6499
0.676	46.5528
0.67	46.4695
0.664	46.3759
0.658	46.283
0.652	46.1848
0.646	46.0757
0.64	45.9869
0.634	45.8892
0.628	45.8011
0.622	45.7128
0.616	45.6064
0.61	45.5168
0.604	45.403
0.598	45.3206
0.592	45.232
0.586	45.1156
0.58	44.983
0.574	44.8284
0.568	44.6839
0.562	44.4891
0.556	44.2719
0.55	44.0321
0.544	43.8264
0.538	43.567
0.532	43.2784
0.526	42.9804
0.52	42.6521
0.514	42.3349
0.508	41.9892
0.502	41.6412
0.496	41.2977
0.49	40.9292
0.484	40.578
0.478	40.2408
0.472	39.8813
0.466	39.5267
0.46	39.1321
0.454	38.6927
0.448	38.2214
0.442	37.7303
0.436	37.2431
0.43	36.7498
0.424	36.2013
0.418	35.6509
0.412	35.117
0.406	34.6577
0.4	34.1465
