Name: Shale (Calcareous)
Type: rock
Class: Sedimentary
Subclass: Shale
Particle Size: Coarse
Sample No.: shale_3
Owner: JHU
Wavelength Range: All
Origin: Sample No. 383,  The Hunt and Salisbury Collection at the U.S.Geological Survey, Denver, Co.
Description: Sample consists of a brownish fine-grained to microcrystalline groundmass with recrystallized(?), foraminiferid tests. Tests are biserial, uniserial, planispiral/trochospiral and fusilinid types. The groundmass consists of brown clay, carbonate, and lesser amounts of fine quartz. Additionally, there are scattered flecks and small lenses of opaque material. Particle size was 500 - 1500 Micrometers. Original ASTER Spectral Library name was jhu.becknic.rock.sedimentary.shale.coarse.shale3.spectrum.txt
Measurement: Directional (10 Degree) Hemispherical Reflectance
X Units: Wavelength (micrometers)
Y Units: Reflectance (percent)
wavelength	value
14.0112	1.687
13.7147	2.205
13.4304	2.4586
13.1577	2.611
12.8959	2.5924
12.6443	2.5421
12.4023	2.4088
12.1694	2.6067
11.945	2.8215
11.7289	3.0306
11.5203	3.625
11.3191	3.518
11.1248	4.1942
10.937	3.2599
10.7555	3.2458
10.5799	3.303
10.4099	3.3047
10.2454	3.1369
10.0859	2.9568
9.9313	2.9299
9.7814	2.9163
9.636	3.0635
9.4948	3.2039
9.3577	3.7102
9.2245	4.0422
9.095	4.1381
8.9691	4.0209
8.8467	4.126
8.7275	4.4414
8.6116	4.3528
8.4986	4.9807
8.3886	5.7854
8.2814	7.0588
8.1769	8.1386
8.075	8.2001
7.9756	8.576
7.8786	8.458
7.784	8.5403
7.6916	8.5096
7.6014	7.8938
7.5133	7.9419
7.4272	7.7306
7.343	6.9696
7.2607	5.5872
7.1803	4.5533
7.1016	4.6839
7.0246	4.3748
6.9493	4.1318
6.8755	4.1159
6.8034	4.3284
6.7327	4.6628
6.6634	5.1606
6.5956	6.1791
6.5292	7.4488
6.464	8.5276
6.4002	7.8704
6.3376	5.417
6.2762	3.9673
6.216	3.2429
6.157	2.5703
6.099	2.2857
6.0421	2.1691
5.9863	2.2203
5.9315	2.1677
5.8777	2.1945
5.8249	2.1318
5.773	2.0442
5.722	2.0842
5.6719	2.2634
5.6227	2.2229
5.5744	1.4167
5.5268	2.1868
5.4801	3.1161
5.4341	3.8272
5.3889	4.0533
5.3445	4.0403
5.3008	4.5201
5.2578	5.3799
5.2154	6.5805
5.1738	7.1261
5.1328	7.3289
5.0925	6.6865
5.0528	7.4995
5.0137	7.562
4.9752	8.1735
4.9373	9.0107
4.9	10.0505
4.8632	10.9991
4.827	11.4607
4.7913	11.6636
4.7561	11.2929
4.7215	9.4901
4.6873	6.7607
4.6536	6.9289
4.6205	9.4193
4.5877	10.617
4.5555	10.9731
4.5237	11.1553
4.4923	11.5657
4.4614	12.6979
4.4309	13.8647
4.4008	14.6388
4.3711	15.0768
4.3418	14.555
4.3129	14.4469
4.2844	13.6398
4.2563	13.5537
4.2285	14.6607
4.2011	14.699
4.174	14.2133
4.1473	13.3769
4.1209	12.0193
4.0949	10.5424
4.0692	8.7681
4.0438	6.5141
4.0187	4.755
3.994	3.5819
3.9695	3.1714
3.9453	3.8788
3.9214	4.5255
3.8979	4.7564
3.8746	4.9211
3.8515	5.0758
3.8288	5.7056
3.8063	7.5512
3.7841	11.815
3.7621	14.0006
3.7404	14.9132
3.7189	15.5987
3.6977	15.7326
3.6767	15.6709
3.656	15.3044
3.6355	14.7801
3.6152	14.0535
3.5951	12.8888
3.5753	10.8766
3.5557	10.012
3.5363	8.4276
3.5171	6.0948
3.4981	5.2466
3.4793	4.7452
3.4607	5.5915
3.4423	5.9396
3.4241	6.0228
3.4061	5.9551
3.3883	5.8709
3.3707	5.7496
3.3533	5.3883
3.336	7.0021
3.3189	8.4783
3.302	8.992
3.2853	9.2489
3.2687	9.3499
3.2523	9.3555
3.2361	9.2487
3.22	9.0954
3.204	8.9508
3.1883	8.7181
3.1727	8.502
3.1572	8.1733
3.1419	8.0096
3.1268	7.8251
3.1117	7.561
3.0969	7.4722
3.0821	7.4036
3.0675	7.3251
3.0531	7.3017
3.0388	7.2612
3.0246	7.1571
3.0105	7.1103
2.9966	7.0949
2.9828	7.0306
2.9692	7.0593
2.9556	7.0117
2.9422	7.071
2.9289	7.0995
2.9157	7.1923
2.9027	7.2775
2.8897	7.3983
2.8769	7.556
2.8642	7.6662
2.8516	7.7789
2.8391	7.801
2.8267	7.8123
2.8144	7.7985
2.8022	7.6146
2.7902	7.3985
2.7782	6.9236
2.7664	6.5827
2.7546	6.6021
2.7429	7.1715
2.7314	8.4886
2.7199	10.5515
2.7085	14.0016
2.6973	17.2931
2.6861	22.4366
2.675	24.9507
2.664	26.1496
2.6531	27.7959
2.6423	28.5422
2.6315	28.2472
2.6209	28.4584
2.6103	28.7831
2.5999	28.7125
2.5895	28.5324
2.5792	28.4484
2.569	28.0984
2.5588	26.8267
2.5487	24.3362
2.5388	22.2555
2.5289	22.7978
2.519	24.3578
2.5093	25.1295
2.4996	25.491
2.49	25.9206
2.4805	26.6755
2.471	27.7264
2.4616	28.7776
2.4523	29.5282
2.4431	30.078
2.4339	30.5892
2.4248	31.1889
2.4157	31.6001
2.4068	31.9136
2.3979	32.0583
2.389	32.1958
2.3802	32.0433
2.3715	31.7262
2.3629	30.8496
2.3543	29.3549
2.3458	28.1082
2.3373	27.9565
2.3289	28.7661
2.3206	29.7423
2.3123	30.3479
2.3041	30.8395
2.2959	31.2943
2.2878	31.7171
2.2798	32.2385
2.2718	32.7292
2.2638	33.0118
2.2559	33.1647
2.2481	33.345
2.2403	33.4185
2.2326	33.3797
2.225	33.257
2.2173	33.1592
2.2098	33.1823
2.2023	33.385
2.1948	33.7243
2.1874	33.9786
2.18	34.2576
2.1727	34.4516
2.1655	34.4793
2.1583	34.548
2.1511	34.6571
2.144	34.6739
2.1369	34.7947
2.1299	34.8744
2.1229	34.8155
2.116	34.8382
2.1091	34.9054
2.1023	34.8865
2.0955	34.8925
2.0887	35.0266
2.082	35.088
2.06	34.6316
2.028	34.8018
1.996	34.0119
1.964	33.7656
1.932	33.1924
1.9	32.4097
1.868	35.3053
1.836	35.8528
1.804	35.9824
1.772	36.1061
1.74	36.1917
1.708	35.8393
1.676	35.6471
1.644	35.7691
1.612	35.5704
1.58	35.5058
1.548	35.0212
1.516	34.8884
1.484	34.465
1.452	34.2266
1.42	33.8355
1.388	33.7819
1.356	33.9808
1.324	33.8584
1.292	33.4683
1.26	33.21
1.228	33.0625
1.196	32.7174
1.164	32.4172
1.132	32.0627
1.1	31.8915
1.068	31.66
1.036	31.6165
1.004	31.6281
0.972	31.595
0.94	31.719
0.908	31.5931
0.876	31.5962
0.844	31.4198
0.812	31.0049
0.795	31.7
0.787	31.6925
0.779	31.5688
0.771	31.0985
0.763	31.3097
0.755	31.3443
0.747	31.3319
0.739	31.285
0.731	31.2482
0.723	31.0276
0.715	31.1915
0.707	31.0196
0.699	31.3663
0.691	31.1514
0.683	30.8731
0.675	30.9248
0.667	31.1085
0.659	30.7794
0.651	30.5896
0.643	30.7917
0.635	30.4507
0.627	30.4163
0.619	30.4589
0.611	30.3921
0.603	30.0644
0.595	30.0271
0.587	29.8913
0.579	29.8635
0.571	29.6566
0.563	29.3289
0.555	28.8785
0.547	28.7625
0.539	28.5757
0.531	28.3012
0.523	28.0698
0.515	28.0025
0.507	27.7769
0.499	27.4921
0.491	27.2455
0.483	26.8447
0.475	26.6858
0.467	26.6959
0.459	26.2177
0.451	25.8446
0.443	25.5189
0.435	25.2659
0.427	24.6598
0.419	23.909
0.411	23.8535
0.403	23.3671
