Name: White Marble
Type: rock
Class: Metamorphic
Subclass: Marble
Particle Size: Coarse
Sample No.: marble6
Owner: JHU
Wavelength Range: All
Origin: Sample No. 457, The Hunt and Salisbury Collection at the U.S.Geological Survey, Denver, Co.
Description: This rock contains coarse-grained carbonate with scattered small subrounded quartz grains and minor subhedral tremolite which has altered to talc in a few spots.Particle size was 500-1500 Micrometer. Original ASTER Spectral Library name was jhu.becknic.rock.metamorphic.marble.coarse.marble6.spectrum.txt
Measurement: Directional (10 Degree) Hemispherical Reflectance
X Units: Wavelength (micrometers)
Y Units: Reflectance (percent)
wavelength	value
14.9831	4.6605
14.6445	4.3176
14.3209	3.1691
14.0112	2.5434
13.7147	2.9597
13.4304	4.9239
13.1577	4.4836
12.8959	3.687
12.6443	3.9586
12.4023	4.3025
12.1694	4.5123
11.945	4.6432
11.7289	4.1644
11.5203	4.8578
11.3191	13.7751
11.1248	5.1872
10.937	5.1851
10.7555	4.1968
10.5799	4.096
10.4099	4.5646
10.2454	4.4311
10.0859	4.2381
9.9313	4.0604
9.7814	4.1732
9.636	4.922
9.4948	5.3684
9.3577	5.2173
9.2245	4.4268
9.095	5.5389
8.9691	5.4382
8.8467	5.2064
8.7275	4.8576
8.6116	4.3598
8.4986	4.3323
8.3886	4.4571
8.2814	4.724
8.1769	4.8685
8.075	4.9099
7.9756	5.0724
7.8786	5.1571
7.784	5.3243
7.6916	5.5661
7.6014	5.6959
7.5133	6.0805
7.4272	6.5562
7.343	7.1675
7.2607	7.8628
7.1803	9.6671
7.1016	13.3178
7.0246	14.6542
6.9493	15.0451
6.8755	16.4767
6.8034	18.2026
6.7327	20.9286
6.6634	24.9355
6.5956	28.6554
6.5292	32.2775
6.464	31.3937
6.4002	13.3467
6.3376	4.7815
6.2762	1.8254
6.216	0.8345
6.157	0.5949
6.099	0.5601
6.0421	0.5781
5.9863	0.6562
5.9315	0.7824
5.8777	0.9018
5.8249	0.9854
5.773	1.0287
5.722	1.0903
5.6719	1.2563
5.6227	1.3565
5.5744	1.137
5.5268	1.2814
5.4801	1.8938
5.4341	2.8437
5.3889	4.284
5.3445	6.2212
5.3008	8.5623
5.2578	10.5371
5.2154	12.4215
5.1738	13.9908
5.1328	15.0695
5.0925	9.597
5.0528	17.4789
5.0137	17.3714
4.9752	17.0697
4.9373	16.7623
4.9	16.9634
4.8632	17.3167
4.827	17.607
4.7913	17.4223
4.7561	15.2067
4.7215	9.3616
4.6873	4.6463
4.6536	4.6804
4.6205	8.0951
4.5877	10.2671
4.5555	10.6768
4.5237	10.8388
4.4923	11.6833
4.4614	14.5926
4.4309	17.6639
4.4008	19.6173
4.3711	19.858
4.3418	17.3295
4.3129	17.1014
4.2844	17.9776
4.2563	17.0837
4.2285	16.3626
4.2011	15.2192
4.174	13.5769
4.1473	11.5763
4.1209	9.0835
4.0949	7.0462
4.0692	5.2239
4.0438	3.6512
4.0187	2.7719
3.994	2.3696
3.9695	2.191
3.9453	2.3651
3.9214	2.6308
3.8979	2.7388
3.8746	2.7795
3.8515	2.8283
3.8288	3.098
3.8063	4.0607
3.7841	8.5166
3.7621	12.2057
3.7404	14.1855
3.7189	16.4653
3.6977	17.545
3.6767	17.8194
3.656	17.2482
3.6355	16.1373
3.6152	14.5189
3.5951	11.9038
3.5753	7.7983
3.5557	6.6434
3.5363	4.6032
3.5171	3.2032
3.4981	2.8667
3.4793	2.6834
3.4607	3.004
3.4423	3.1714
3.4241	3.1951
3.4061	3.1577
3.3883	3.0869
3.3707	3.0919
3.3533	2.9185
3.336	3.8004
3.3189	6.1492
3.302	7.9459
3.2853	9.4788
3.2687	10.7514
3.2523	11.626
3.2361	12.2138
3.22	12.619
3.204	12.8354
3.1883	12.6526
3.1727	11.8356
3.1572	10.193
3.1419	9.7419
3.1268	9.8099
3.1117	8.9156
3.0969	9.0629
3.0821	9.7613
3.0675	10.1045
3.0531	10.3493
3.0388	10.499
3.0246	10.6236
3.0105	10.6652
2.9966	10.6683
2.9828	10.602
2.9692	10.4715
2.9556	10.3718
2.9422	10.4173
2.9289	10.5144
2.9157	10.6761
2.9027	10.7827
2.8897	11.0709
2.8769	11.3811
2.8642	11.7101
2.8516	12.0672
2.8391	12.3445
2.8267	12.4759
2.8144	12.2408
2.8022	11.5978
2.7902	10.3105
2.7782	11.6146
2.7664	14.8161
2.7546	17.405
2.7429	19.6837
2.7314	22.7495
2.7199	26.9288
2.7085	33.2759
2.6973	40.0247
2.6861	45.8355
2.675	49.3482
2.664	51.8411
2.6531	53.7112
2.6423	54.6166
2.6315	54.9185
2.6209	54.5647
2.6103	53.5656
2.5999	51.4613
2.5895	47.4719
2.5792	42.9359
2.569	38.2581
2.5588	30.2651
2.5487	21.0162
2.5388	15.9491
2.5289	16.6188
2.519	19.951
2.5093	22.0007
2.4996	23.0083
2.49	24.0515
2.4805	26.2648
2.471	30.3349
2.4616	35.5906
2.4523	40.2774
2.4431	44.1328
2.4339	47.8609
2.4248	51.3656
2.4157	54.3431
2.4068	55.548
2.3979	55.3806
2.389	55.9079
2.3802	53.6634
2.3715	48.3628
2.3629	41.4238
2.3543	32.8284
2.3458	27.6911
2.3373	26.4514
2.3289	28.4555
2.3206	31.3239
2.3123	33.3844
2.3041	34.5353
2.2959	36.0493
2.2878	38.2545
2.2798	41.6201
2.2718	45.7708
2.2638	49.1767
2.2559	52.3789
2.2481	55.2759
2.2403	58.0561
2.2326	60.5228
2.225	62.9738
2.2173	64.9226
2.2098	66.3837
2.2023	67.5955
2.1948	68.3531
2.1874	68.5383
2.18	67.7786
2.1727	66.5841
2.1655	64.8582
2.1583	64.1612
2.1511	64.2387
2.144	66.0801
2.1369	68.8267
2.1299	70.0601
2.1229	70.7686
2.116	71.3535
2.1091	72.1592
2.1023	72.7844
2.0955	73.2301
2.0887	73.5737
2.082	73.7212
2.06	73.8286
2.028	72.1754
1.996	65.3634
1.964	64.485
1.932	64.6164
1.9	65.5425
1.868	66.8109
1.836	72.1124
1.804	76.8147
1.772	77.3351
1.74	76.5396
1.708	76.9014
1.676	77.9145
1.644	77.8836
1.612	77.8873
1.58	77.4232
1.548	76.7562
1.516	76.5045
1.484	75.0753
1.452	74.4825
1.42	74.796
1.388	75.0185
1.356	76.6526
1.324	77.5384
1.292	78.2147
1.26	77.5219
1.228	77.2969
1.196	77.8164
1.164	77.8699
1.132	76.8406
1.1	76.7482
1.068	77.036
1.036	77.6241
1.004	78.5688
0.972	79.3798
0.94	80.0791
0.908	81.0892
0.876	82.7899
0.844	83.3086
0.812	82.8354
0.795	82.8127
0.787	83.141
0.779	83.1223
0.771	83.8166
0.763	83.8616
0.755	83.4276
0.747	84.1758
0.739	84.0736
0.731	84.1142
0.723	83.844
0.715	84.1233
0.707	83.4753
0.699	84.0616
0.691	83.4694
0.683	83.7823
0.675	83.6514
0.667	83.5856
0.659	83.1117
0.651	83.4978
0.643	83.3483
0.635	82.6062
0.627	82.909
0.619	82.7435
0.611	83.1729
0.603	83.426
0.595	83.3558
0.587	82.576
0.579	82.6147
0.571	82.6318
0.563	82.4075
0.555	83.3686
0.547	83.0441
0.539	82.4566
0.531	83.1147
0.523	82.6702
0.515	82.4796
0.507	82.2423
0.499	81.9701
0.491	81.8232
0.483	81.723
0.475	81.3794
0.467	81.1214
0.459	80.6464
0.451	79.7328
0.443	79.8498
0.435	79.3894
0.427	78.5623
0.419	77.9807
0.411	77.1484
0.403	75.0616
