Name: Pink Marble
Type: rock
Class: Metamorphic
Subclass: Marble
Particle Size: Coarse
Sample No.: marble7
Owner: JHU
Wavelength Range: All
Origin: Sample No. 360, The Hunt and Salisbury Collection at the U.S.Geological Survey, Denver, Co.
Description: This sample consists of coarse-grained calcite poikiloblastically enclosing a finely disseminated opaque/ferric phase in the cores of the carbonate.  There has been a considerable amount of granulation (cataclasis) with some carbonate grains showing bent lamellae.  There are trace amounts of larger opaque phases in this rock.Particle size was 500-1500 Micrometer. Original ASTER Spectral Library name was jhu.becknic.rock.metamorphic.marble.coarse.marble7.spectrum.txt
Measurement: Directional (10 Degree) Hemispherical Reflectance
X Units: Wavelength (micrometers)
Y Units: Reflectance (percent)
wavelength	value
14.9831	4.077
14.6445	4.4427
14.3209	3.719
14.0112	2.0567
13.7147	3.3202
13.4304	4.8722
13.1577	4.7022
12.8959	4.2068
12.6443	4.495
12.4023	4.8547
12.1694	5.0842
11.945	5.2287
11.7289	4.9471
11.5203	5.1443
11.3191	10.1442
11.1248	7.5452
10.937	7.0981
10.7555	5.9666
10.5799	5.5938
10.4099	5.9325
10.2454	5.6213
10.0859	5.2935
9.9313	5.0821
9.7814	5.2611
9.636	5.9074
9.4948	6.2292
9.3577	6.049
9.2245	6.0724
9.095	6.695
8.9691	7.0564
8.8467	7.0313
8.7275	6.6102
8.6116	5.7198
8.4986	5.6786
8.3886	6.0083
8.2814	6.5098
8.1769	6.7675
8.075	6.7092
7.9756	7.0581
7.8786	7.0057
7.784	7.1331
7.6916	7.1123
7.6014	6.7497
7.5133	6.862
7.4272	6.8191
7.343	6.5409
7.2607	6.1868
7.1803	6.8795
7.1016	9.3538
7.0246	10.0936
6.9493	10.1232
6.8755	10.9513
6.8034	11.923
6.7327	13.3671
6.6634	15.5095
6.5956	18.4435
6.5292	21.6608
6.464	22.8842
6.4002	12.3523
6.3376	5.1927
6.2762	2.5434
6.216	1.6101
6.157	1.119
6.099	1.0683
6.0421	1.0652
5.9863	1.2414
5.9315	1.312
5.8777	1.4652
5.8249	1.5
5.773	1.5237
5.722	1.6359
5.6719	1.8626
5.6227	1.9916
5.5744	1.2478
5.5268	1.9634
5.4801	2.865
5.4341	4.0446
5.3889	5.7409
5.3445	7.6918
5.3008	10.0074
5.2578	11.887
5.2154	13.5861
5.1738	15.0641
5.1328	16.0099
5.0925	11.145
5.0528	17.9667
5.0137	17.5279
4.9752	17.0851
4.9373	16.7793
4.9	16.9934
4.8632	17.1871
4.827	17.4232
4.7913	17.3707
4.7561	15.5541
4.7215	10.7628
4.6873	5.9599
4.6536	6.117
4.6205	9.7305
4.5877	11.5374
4.5555	11.9466
4.5237	12.1666
4.4923	13.0701
4.4614	15.8356
4.4309	18.5801
4.4008	20.2802
4.3711	20.8459
4.3418	18.4643
4.3129	18.2715
4.2844	19.1705
4.2563	18.4366
4.2285	17.71
4.2011	16.8587
4.174	15.3395
4.1473	13.4367
4.1209	11.0257
4.0949	9.07
4.0692	7.2305
4.0438	5.4749
4.0187	4.2222
3.994	3.0594
3.9695	2.7452
3.9453	3.3787
3.9214	3.9352
3.8979	4.1192
3.8746	4.2153
3.8515	4.3179
3.8288	4.7619
3.8063	6.1193
3.7841	11.0621
3.7621	14.5905
3.7404	16.5567
3.7189	18.7141
3.6977	19.6342
3.6767	19.8532
3.656	19.1802
3.6355	18.0873
3.6152	16.6389
3.5951	14.1045
3.5753	9.9799
3.5557	9.4172
3.5363	7.1687
3.5171	5.0224
3.4981	4.3569
3.4793	3.9191
3.4607	4.7342
3.4423	4.9641
3.4241	5.0231
3.4061	4.9873
3.3883	4.9111
3.3707	4.8479
3.3533	4.4862
3.336	6.1683
3.3189	8.6173
3.302	10.0192
3.2853	11.1197
3.2687	11.8803
3.2523	12.2756
3.2361	12.371
3.22	12.4236
3.204	12.3163
3.1883	11.9921
3.1727	11.4891
3.1572	10.4341
3.1419	10.13
3.1268	10.1097
3.1117	9.4764
3.0969	9.5096
3.0821	9.7613
3.0675	9.7457
3.0531	9.8222
3.0388	9.7533
3.0246	9.7435
3.0105	9.6846
2.9966	9.565
2.9828	9.4786
2.9692	9.434
2.9556	9.3066
2.9422	9.3185
2.9289	9.2794
2.9157	9.4118
2.9027	9.5991
2.8897	9.6465
2.8769	9.8553
2.8642	10.0675
2.8516	10.3015
2.8391	10.5421
2.8267	10.7524
2.8144	10.8459
2.8022	10.8554
2.7902	10.3155
2.7782	11.1559
2.7664	12.4899
2.7546	13.7616
2.7429	15.7078
2.7314	18.8396
2.7199	23.6688
2.7085	29.7396
2.6973	36.0611
2.6861	41.0674
2.675	44.294
2.664	46.539
2.6531	48.2299
2.6423	49.3588
2.6315	49.8893
2.6209	50.0794
2.6103	49.7524
2.5999	48.6102
2.5895	45.9839
2.5792	43.2556
2.569	39.9802
2.5588	32.6867
2.5487	23.44
2.5388	18.6327
2.5289	19.9183
2.519	23.3256
2.5093	25.1733
2.4996	26.0287
2.49	27.131
2.4805	29.2283
2.471	33.2648
2.4616	37.9722
2.4523	41.9834
2.4431	45.0833
2.4339	48.0897
2.4248	50.8254
2.4157	53.0017
2.4068	53.8685
2.3979	54.084
2.389	54.825
2.3802	53.6049
2.3715	50.3001
2.3629	43.6515
2.3543	35.2908
2.3458	30.271
2.3373	29.5191
2.3289	31.7982
2.3206	34.9497
2.3123	36.9617
2.3041	37.9478
2.2959	39.3365
2.2878	41.376
2.2798	44.4773
2.2718	47.9926
2.2638	50.7375
2.2559	53.168
2.2481	55.2236
2.2403	57.0764
2.2326	58.5522
2.225	59.9087
2.2173	61.0047
2.2098	61.8577
2.2023	62.5549
2.1948	63.1204
2.1874	63.3388
2.18	62.8916
2.1727	62.2987
2.1655	61.1975
2.1583	60.6092
2.1511	60.7371
2.144	61.9979
2.1369	63.4235
2.1299	64.0487
2.1229	64.2571
2.116	64.5707
2.1091	64.7033
2.1023	65.013
2.0955	65.2167
2.0887	65.1933
2.082	65.0649
2.06	64.9636
2.028	62.6888
1.996	57.3443
1.964	54.8426
1.932	53.7094
1.9	56.3949
1.868	61.466
1.836	66.5773
1.804	68.0683
1.772	67.8108
1.74	67.9193
1.708	67.4377
1.676	67.763
1.644	68.0065
1.612	67.1802
1.58	66.5108
1.548	66.5808
1.516	65.1066
1.484	64.1076
1.452	62.4412
1.42	62.2866
1.388	64.181
1.356	65.6397
1.324	65.6388
1.292	66.4031
1.26	65.4085
1.228	65.2417
1.196	64.4534
1.164	64.1214
1.132	64.7102
1.1	64.4995
1.068	64.1514
1.036	65.2447
1.004	65.1805
0.972	65.2344
0.94	65.2292
0.908	64.8792
0.876	64.2842
0.844	64.2156
0.812	63.8194
0.795	63.773
0.787	63.4787
0.779	63.9165
0.771	63.0629
0.763	62.7487
0.755	63.1625
0.747	62.6109
0.739	62.5097
0.731	62.2297
0.723	61.9043
0.715	61.3979
0.707	60.6739
0.699	60.1803
0.691	60.2779
0.683	59.9964
0.675	59.2997
0.667	58.7038
0.659	58.2933
0.651	57.9697
0.643	56.8686
0.635	56.6155
0.627	56.6762
0.619	55.6886
0.611	55.2123
0.603	54.5497
0.595	53.9513
0.587	52.8372
0.579	51.4831
0.571	49.5196
0.563	47.9526
0.555	45.88
0.547	44.712
0.539	43.2256
0.531	42.7194
0.523	41.9545
0.515	41.3763
0.507	40.631
0.499	40.4035
0.491	39.9404
0.483	39.4327
0.475	38.6891
0.467	38.0338
0.459	37.8588
0.451	37.26
0.443	36.6959
0.435	36.3195
0.427	35.1615
0.419	34.0847
0.411	33.6301
0.403	32.5973
