Name: Phyllite
Type: Rock
Class: Metamorphic
Subclass: Phyllite
Particle Size: Solid
Sample No.: Ward85
Owner: JPL
Wavelength Range: All
Origin: Ward's Collection of American Rocks.  Sample locality - Woodbridge, Connecticut.  Collected by - JPL.
Description: A fine-grained, gray, lustrous schistose rock.Collected by:  Ward's Natural Science Original ASTER Spectral Library name was jpl.nicolet.rock.metamorphic.schist.solid.ward85.spectrum.txt
Measurement: Hemispherical reflectance
X Units: Wavelength (micrometers)
Y Units: Reflectance (percent)
wavelength	value
15.3871	7.3123
15.118	7.3762
14.8581	6.9467
14.6069	6.1475
14.3642	5.195
14.1293	5.0879
13.9021	5.4071
13.682	6.2046
13.4687	6.9514
13.2621	7.3926
13.0616	6.9736
12.8672	6.2032
12.6784	6.2362
12.4951	6.121
12.317	5.7624
12.1439	6.0972
11.9757	5.8761
11.812	6.5499
11.6527	7.0856
11.4977	7.8279
11.3468	8.8284
11.1997	9.9834
11.0564	10.8646
10.9168	11.3979
10.7806	13.0642
10.6478	15.612
10.5182	18.244
10.3917	21.1862
10.2683	24.777
10.1477	28.8529
10.0299	32.2978
9.9148	34.0449
9.8024	35.1464
9.6925	37.2811
9.585	38.2679
9.4798	34.3758
9.377	28.1213
9.2763	24.901
9.1778	24.5639
9.0814	23.4637
8.987	20.7893
8.8945	19.6522
8.8039	18.2456
8.7151	17.1768
8.6281	14.6182
8.5428	15.4303
8.4592	15.3118
8.3772	15.3995
8.2967	15.1165
8.2179	14.2433
8.1404	12.6648
8.0645	10.0968
7.9899	8.6775
7.9167	7.1221
7.8449	6.3093
7.7743	5.8785
7.705	5.7679
7.6369	5.4076
7.57	5.2957
7.5043	5.17
7.4397	5.0587
7.3762	5.0919
7.3138	4.9091
7.2524	5.0671
7.1921	5.1918
7.1327	5.539
7.0743	5.6624
7.0169	5.7828
6.9604	5.9919
6.9047	6.2298
6.85	6.5334
6.7962	6.7565
6.7431	6.8056
6.6909	6.9869
6.6395	7.2793
6.5889	7.2604
6.539	7.1224
6.49	7.5352
6.4416	6.985
6.3939	5.9799
6.347	5.2931
6.3007	4.8206
6.2551	4.695
6.2101	4.6639
6.1658	4.6349
6.1222	4.7856
6.0791	4.9217
6.0366	5.0194
5.9948	4.8256
5.9535	4.824
5.9127	4.8222
5.8726	4.9112
5.8329	5.0266
5.7938	5.1041
5.7552	5.0944
5.7172	5.1794
5.6796	5.0645
5.6425	5.1137
5.6059	4.9593
5.5698	5.1117
5.5341	5.2269
5.4989	5.3042
5.4641	5.555
5.4298	5.5063
5.3959	5.4714
5.3624	5.5839
5.3294	5.4095
5.2967	5.7692
5.2644	5.7922
5.2326	5.9337
5.2011	6.0432
5.17	6.2575
5.1392	6.2724
5.1088	6.3412
5.0788	6.3802
5.0491	6.3072
5.0198	6.4885
4.9908	6.4345
4.9622	6.6915
4.9338	6.8713
4.9058	6.9264
4.8781	7.3029
4.8508	7.6335
4.8237	7.7634
4.7969	7.9121
4.7704	8.0055
4.7443	8.2172
4.7184	8.2982
4.6927	8.4531
4.6674	8.6604
4.6423	9.0182
4.6175	9.4073
4.593	9.66
4.5687	10.116
4.5447	10.3188
4.5209	10.1605
4.4974	10.2893
4.4741	10.3268
4.451	10.5935
4.4282	10.9539
4.4057	11.2138
4.3833	11.7426
4.3612	12.0654
4.3393	12.278
4.3176	12.6793
4.2962	12.7227
4.2749	12.952
4.2539	13.2522
4.233	13.1644
4.2124	13.4174
4.192	13.4137
4.1717	13.6483
4.1517	13.72
4.1319	13.6237
4.1122	13.565
4.0927	13.6815
4.0734	13.2775
4.0543	12.7513
4.0354	11.8317
4.0166	11.3123
3.9981	10.8024
3.9796	10.6517
3.9614	10.7209
3.9433	11.1861
3.9254	11.6661
3.9077	11.7657
3.8901	11.6612
3.8726	11.8266
3.8554	12.023
3.8382	11.9583
3.8213	12.6193
3.8045	13.1346
3.7878	14.2608
3.7713	14.4815
3.7549	14.3938
3.7386	14.5963
3.7225	14.4869
3.7066	14.3975
3.6907	14.4541
3.675	14.5593
3.6595	14.4458
3.644	14.3385
3.6287	14.1225
3.6136	13.746
3.5985	13.7388
3.5836	13.1224
3.5688	12.466
3.5541	12.0877
3.5396	12.0952
3.5251	11.2674
3.5108	10.7962
3.4966	10.7323
3.4825	10.5133
3.4685	10.6611
3.4547	10.8064
3.4409	10.9069
3.4273	10.5296
3.4137	10.6389
3.4003	10.4869
3.387	10.2598
3.3738	10.415
3.3606	10.0005
3.3476	10.0426
3.3347	10.3134
3.3219	10.412
3.3092	10.287
3.2965	10.3455
3.284	10.2958
3.2716	9.7952
3.2593	10.0539
3.247	9.9731
3.2348	9.8364
3.2228	9.6838
3.2108	9.4415
3.1989	9.2923
3.1871	9.568
3.1754	9.0301
3.1638	8.8632
3.1523	8.4263
3.1408	8.0824
3.1294	8.2494
3.1181	8.2495
3.1069	7.8163
3.0958	7.6541
3.0848	7.5661
3.0738	7.8933
3.0629	7.0742
3.0521	7.1732
3.0413	7.291
3.0307	7.5151
3.0201	6.5528
3.0096	6.8197
2.9991	6.645
2.9887	6.7754
2.9784	7.012
2.9682	6.6403
2.9581	6.6402
2.948	6.628
2.9379	6.3275
2.928	6.0997
2.9181	6.5761
2.9083	6.8968
2.8985	6.9787
2.8888	6.6937
2.8792	6.7094
2.8697	7.4816
2.8602	6.5946
2.8507	7.1215
2.8413	6.6592
2.832	7.0882
2.8228	7.1212
2.8136	6.4422
2.8045	6.8275
2.7954	5.9595
2.7864	6.1801
2.7774	6.4955
2.7685	6.3845
2.7597	6.0544
2.7509	5.7819
2.7422	6.2869
2.7335	7.095
2.7249	8.7202
2.7163	10.2401
2.7078	12.3694
2.6994	14.6615
2.691	15.3568
2.6826	15.9335
2.6743	16.9208
2.666	17.4631
2.6578	17.927
2.6497	17.7594
2.6416	18.0337
2.6336	18.5653
2.6256	18.4455
2.6176	18.9217
2.6097	18.1891
2.6018	18.4403
2.594	18.6779
2.5863	18.9181
2.5785	19.0778
2.5709	19.2457
2.5633	19.0225
2.5557	19.3203
2.5481	18.404
2.5406	18.8395
2.5332	18.7576
2.5258	18.7818
2.5184	18.6512
2.5111	19.3665
2.5038	19.1847
2.4966	19.2086
2.4894	19.0355
2.4823	19.5619
2.4752	20.4572
2.4681	20.0061
2.4611	19.3256
2.4541	19.9004
2.4471	20.3562
2.4402	19.3472
2.4333	20.2884
2.4265	20.2638
2.4197	20.8631
2.413	20.8731
2.4063	20.5423
2.3996	20.7516
2.3929	19.5403
2.3863	20.4573
2.3798	19.5899
2.3732	18.9025
2.3667	18.0059
2.3603	18.0352
2.3538	16.6124
2.3474	16.7142
2.3411	17.2212
2.3347	17.2882
2.3285	18.5072
2.3222	19.5936
2.316	19.2787
2.3098	20.7459
2.3036	21.5202
2.2975	21.3784
2.2914	22.8768
2.2854	23.0101
2.2793	22.4301
2.2733	22.3607
2.2674	20.9726
2.2614	20.3342
2.2555	19.6736
2.2497	20.5453
2.2438	22.0922
2.238	23.331
2.2322	23.0742
2.2265	22.5817
2.2208	21.6859
2.2151	20.8505
2.2094	23.0269
2.2038	23.2076
2.1982	24.9355
2.1926	27.6886
2.187	29.3049
2.1815	30.2224
2.176	31.0681
2.1706	30.8336
2.1651	30.8056
2.1597	32.1727
2.1543	33.0441
2.149	31.954
2.1436	32.1706
2.1383	31.2487
2.1331	32.0561
2.1278	31.545
2.1226	31.6567
2.1174	32.0646
2.1122	32.0824
2.1071	33.4856
2.1019	32.41
2.0968	31.8663
2.0918	32.9766
2.0867	33.596
2.0817	34.0221
2.0767	32.6108
2.0717	33.6836
2.0667	34.8975
2.0618	32.4353
2.0569	34.5562
2.052	32.488
2.0472	31.1055
2.0423	33.1473
2.0375	32.6133
2.0327	31.9453
2.028	32.2868
2.0232	30.9081
2.0185	30.5457
2.0138	31.2661
2.0091	29.5305
2.0044	31.403
1.9998	29.7479
