Name: Biotite Gneiss
Type: Rock
Class: Metamorphic
Subclass: Gneis
Particle Size: Solid
Sample No.: Ward79
Owner: JPL
Wavelength Range: All
Origin: Ward's Collection of American Rocks.  Sample locality - Uxbridge, Worcester County, Massachusetts.  Collected by - JPL.
Description: A banded rock.  Think bands of black mica alternate withthose of quartz and feldspar.  Geologic age - Pre-Cambrian.Collected by:  Ward's Natural Science Original ASTER Spectral Library name was jpl.nicolet.rock.metamorphic.gneiss.solid.ward79.spectrum.txt
Measurement: Hemispherical reflectance
X Units: Wavelength (micrometers)
Y Units: Reflectance (percent)
wavelength	value
15.3871	5.0704
15.118	3.3123
14.8581	3.6416
14.6069	3.4661
14.3642	3.9048
14.1293	3.9736
13.9021	4.3043
13.682	4.3194
13.4687	4.8881
13.2621	4.898
13.0616	5.2425
12.8672	6.4218
12.6784	5.7777
12.4951	5.8973
12.317	3.5787
12.1439	4.3463
11.9757	5.0157
11.812	5.6333
11.6527	6.0938
11.4977	6.3182
11.3468	6.9506
11.1997	7.7648
11.0564	8.266
10.9168	8.9726
10.7806	9.8301
10.6478	10.4346
10.5182	11.5853
10.3917	12.6258
10.2683	13.9837
10.1477	15.7894
10.0299	17.4455
9.9148	19.0764
9.8024	19.04
9.6925	19.4841
9.585	19.4995
9.4798	19.0095
9.377	20.1553
9.2763	21.4366
9.1778	21.1533
9.0814	21.0503
8.987	21.3869
8.8945	22.0707
8.8039	22.4024
8.7151	22.2602
8.6281	18.9399
8.5428	22.3561
8.4592	22.4041
8.3772	22.1275
8.2967	20.4299
8.2179	16.8372
8.1404	11.7317
8.0645	7.7102
7.9899	4.7689
7.9167	3.0674
7.8449	2.2408
7.7743	1.9578
7.705	1.6738
7.6369	1.3728
7.57	1.2576
7.5043	1.2281
7.4397	1.3612
7.3762	1.4787
7.3138	1.4853
7.2524	1.4508
7.1921	1.4719
7.1327	1.6685
7.0743	1.8457
7.0169	1.8119
6.9604	1.8877
6.9047	1.928
6.85	2.1073
6.7962	2.1257
6.7431	2.1735
6.6909	2.3083
6.6395	2.3073
6.5889	2.309
6.539	2.4082
6.49	2.4415
6.4416	2.4311
6.3939	2.376
6.347	2.3619
6.3007	2.3004
6.2551	2.1683
6.2101	2.2715
6.1658	2.2508
6.1222	2.2107
6.0791	2.4323
6.0366	2.3503
5.9948	2.4924
5.9535	2.4744
5.9127	2.5472
5.8726	2.5698
5.8329	2.7639
5.7938	2.7529
5.7552	2.9184
5.7172	2.987
5.6796	3.0896
5.6425	3.0601
5.6059	3.1493
5.5698	3.0396
5.5341	3.2228
5.4989	3.4603
5.4641	3.7215
5.4298	3.9356
5.3959	3.9487
5.3624	3.9417
5.3294	4.1906
5.2967	4.3149
5.2644	4.438
5.2326	4.6781
5.2011	4.8742
5.17	5.1109
5.1392	5.22
5.1088	5.5295
5.0788	5.7532
5.0491	5.9851
5.0198	6.1109
4.9908	6.3297
4.9622	6.6143
4.9338	6.9336
4.9058	7.3004
4.8781	7.9789
4.8508	8.5736
4.8237	8.9772
4.7969	9.3906
4.7704	9.6165
4.7443	10.0412
4.7184	10.3543
4.6927	10.3613
4.6674	10.7434
4.6423	11.4925
4.6175	12.3821
4.593	13.1197
4.5687	13.6599
4.5447	14.2794
4.5209	14.3054
4.4974	14.0725
4.4741	14.5892
4.451	15.3252
4.4282	16.1633
4.4057	17.0386
4.3833	17.9265
4.3612	19.0619
4.3393	19.8829
4.3176	20.4645
4.2962	20.6718
4.2749	20.8574
4.2539	22.0677
4.233	21.7491
4.2124	22.7602
4.192	23.6911
4.1717	24.1575
4.1517	24.5988
4.1319	24.999
4.1122	25.3274
4.0927	25.7149
4.0734	26.0155
4.0543	26.2828
4.0354	26.1509
4.0166	25.9859
3.9981	25.6132
3.9796	25.7186
3.9614	26.2777
3.9433	26.8546
3.9254	27.2422
3.9077	27.4218
3.8901	27.2449
3.8726	27.3375
3.8554	27.4711
3.8382	27.5674
3.8213	27.886
3.8045	28.0558
3.7878	27.9916
3.7713	28.2563
3.7549	28.0494
3.7386	27.9941
3.7225	27.8791
3.7066	28.1837
3.6907	28.4071
3.675	28.5676
3.6595	28.6903
3.644	28.143
3.6287	28.219
3.6136	28.1342
3.5985	27.9083
3.5836	27.6071
3.5688	27.614
3.5541	27.1412
3.5396	27.0477
3.5251	26.4127
3.5108	26.0061
3.4966	25.7518
3.4825	25.1498
3.4685	25.5143
3.4547	24.9147
3.4409	24.6352
3.4273	24.3047
3.4137	23.6803
3.4003	23.811
3.387	23.2523
3.3738	23.1383
3.3606	22.8931
3.3476	22.6886
3.3347	22.7122
3.3219	22.2917
3.3092	21.877
3.2965	21.8605
3.284	21.3981
3.2716	21.1111
3.2593	20.9527
3.247	20.4565
3.2348	20.2324
3.2228	19.9607
3.2108	19.6624
3.1989	19.624
3.1871	19.2121
3.1754	18.9911
3.1638	18.6324
3.1523	18.2013
3.1408	17.9176
3.1294	17.4674
3.1181	17.5208
3.1069	17.1108
3.0958	16.6342
3.0848	16.7076
3.0738	16.7902
3.0629	16.3413
3.0521	16.4779
3.0413	16.0158
3.0307	16.4607
3.0201	15.8544
3.0096	15.8425
2.9991	15.9618
2.9887	15.2537
2.9784	15.2178
2.9682	15.732
2.9581	15.6202
2.948	15.7037
2.9379	15.1044
2.928	16.1029
2.9181	15.816
2.9083	16.2036
2.8985	15.9051
2.8888	15.9439
2.8792	16.2157
2.8697	16.7059
2.8602	17.0096
2.8507	17.043
2.8413	16.9996
2.832	16.7157
2.8228	16.9952
2.8136	16.8594
2.8045	18.346
2.7954	17.816
2.7864	17.5767
2.7774	17.5267
2.7685	17.9283
2.7597	18.3711
2.7509	20.2879
2.7422	20.4013
2.7335	21.0845
2.7249	22.134
2.7163	22.495
2.7078	23.1488
2.6994	26.386
2.691	31.5382
2.6826	35.7514
2.6743	37.9584
2.666	39.3651
2.6578	39.3269
2.6497	39.4863
2.6416	40.0018
2.6336	40.5257
2.6256	40.859
2.6176	40.5745
2.6097	41.4799
2.6018	41.6364
2.594	41.8485
2.5863	41.8052
2.5785	41.599
2.5709	41.7287
2.5633	41.2436
2.5557	41.6561
2.5481	41.8708
2.5406	41.0821
2.5332	41.2419
2.5258	40.6261
2.5184	40.9271
2.5111	41.1072
2.5038	41.2023
2.4966	40.6156
2.4894	41.4339
2.4823	41.1038
2.4752	40.7359
2.4681	41.2841
2.4611	40.8985
2.4541	40.9947
2.4471	40.7441
2.4402	41.0344
2.4333	40.8948
2.4265	40.8919
2.4197	40.4432
2.413	41.0813
2.4063	40.1046
2.3996	40.3352
2.3929	39.997
2.3863	40.1825
2.3798	39.6475
2.3732	39.7713
2.3667	40.4258
2.3603	39.7196
2.3538	38.6193
2.3474	38.5364
2.3411	38.5433
2.3347	39.0567
2.3285	39.9394
2.3222	40.1967
2.316	41.1501
2.3098	40.9265
2.3036	41.3055
2.2975	41.2034
2.2914	40.8635
2.2854	41.7457
2.2793	41.3779
2.2733	41.6282
2.2674	40.9352
2.2614	41.1705
2.2555	39.8175
2.2497	40.5682
2.2438	41.0446
2.238	41.4081
2.2322	41.0406
2.2265	41.459
2.2208	42.2718
2.2151	41.4319
2.2094	40.7925
2.2038	41.3254
2.1982	40.8899
2.1926	41.2586
2.187	41.2315
2.1815	41.6958
2.176	42.0601
2.1706	41.714
2.1651	40.9097
2.1597	41.5321
2.1543	40.5721
2.149	41.5582
2.1436	40.9131
2.1383	41.2603
2.1331	40.5475
2.1278	41.1851
2.1226	40.4601
2.1174	40.1174
2.1122	40.6499
2.1071	40.8102
2.1019	40.1241
2.0968	39.6898
2.0918	40.979
2.0867	40.1294
2.0817	40.2968
2.0767	40.3652
2.0717	40.1946
2.0667	39.9588
2.0618	39.0214
2.0569	40.7368
2.052	38.7616
2.0472	40.4064
2.0423	39.6164
2.0375	39.3463
2.0327	39.5914
2.028	37.8842
2.0232	41.1436
2.0185	40.466
2.0138	39.3134
2.0091	37.8341
2.0044	40.1012
1.9998	38.7354
