Name: Glauconitic Sandstone
Type: rock
Class: Sedimentary
Subclass: Sandstone
Particle Size: Coarse
Sample No.: sandstone_2
Owner: JHU
Wavelength Range: All
Origin: Sample No. 364,  The Hunt and Salisbury Collection at the U.S.Geological Survey, Denver, Co.
Description: The sample is a well-sorted, medium fine-grained, somewhat compacted sandstone. The strain-free, angular to subangular quartz grains are in a matrix of sericite, glauconite (mostly as autochthonous microcrystalline masses), a yellowish-brown microcrystalline material (clay and/or glauconite?), with some muscovite, biotite, carbonate and minor microcline and opaques. Particle size was 500 - 1500 Micrometers. Original ASTER Spectral Library name was jhu.becknic.rock.sedimentary.sandstone.coarse.sandst2.spectrum.txt
Measurement: Directional (10 Degree) Hemispherical Reflectance
X Units: Wavelength (micrometers)
Y Units: Reflectance (percent)
wavelength	value
14.0112	1.9198
13.7147	2.0576
13.4304	2.2364
13.1577	2.3438
12.8959	2.9969
12.6443	2.6258
12.4023	2.1598
12.1694	1.6617
11.945	1.9588
11.7289	2.3048
11.5203	2.5632
11.3191	2.8685
11.1248	2.934
10.937	3.0199
10.7555	3.0909
10.5799	3.3347
10.4099	3.7698
10.2454	4.2616
10.0859	4.7921
9.9313	5.3548
9.7814	5.9101
9.636	7.1153
9.4948	7.6697
9.3577	9.6553
9.2245	10.9613
9.095	11.141
8.9691	11.067
8.8467	10.8618
8.7275	10.0962
8.6116	7.9656
8.4986	10.0091
8.3886	10.2737
8.2814	11.0374
8.1769	11.5922
8.075	8.1763
7.9756	5.4921
7.8786	3.5087
7.784	2.741
7.6916	2.3572
7.6014	2.0203
7.5133	1.8602
7.4272	1.7102
7.343	1.6468
7.2607	1.6583
7.1803	1.6624
7.1016	1.632
7.0246	1.6059
6.9493	1.6471
6.8755	1.7028
6.8034	1.8277
6.7327	1.8695
6.6634	1.914
6.5956	1.9519
6.5292	2.011
6.464	2.1911
6.4002	2.0385
6.3376	1.8164
6.2762	1.6788
6.216	1.5802
6.157	1.6348
6.099	1.7516
6.0421	1.7899
5.9863	1.8401
5.9315	1.8564
5.8777	2.003
5.8249	2.2588
5.773	2.4608
5.722	2.5821
5.6719	2.5483
5.6227	2.2772
5.5744	2.1897
5.5268	2.3495
5.4801	2.5481
5.4341	2.6117
5.3889	2.3672
5.3445	2.2526
5.3008	2.3043
5.2578	2.5355
5.2154	2.94
5.1738	3.0743
5.1328	3.1158
5.0925	3.1093
5.0528	3.0393
5.0137	3.0446
4.9752	3.2577
4.9373	3.7218
4.9	4.4655
4.8632	5.6417
4.827	6.2987
4.7913	6.7267
4.7561	7.1502
4.7215	7.4749
4.6873	7.3062
4.6536	7.8862
4.6205	8.6255
4.5877	9.1246
4.5555	9.3152
4.5237	9.0114
4.4923	8.3798
4.4614	8.3762
4.4309	8.9798
4.4008	9.6066
4.3711	10.3677
4.3418	10.9769
4.3129	11.1427
4.2844	11.1446
4.2563	11.408
4.2285	11.6154
4.2011	11.8018
4.174	12.0299
4.1473	12.2731
4.1209	12.498
4.0949	12.6796
4.0692	12.7364
4.0438	12.5807
4.0187	12.255
3.994	12.0918
3.9695	12.0782
3.9453	12.3139
3.9214	12.5232
3.8979	12.4615
3.8746	12.3564
3.8515	12.2538
3.8288	12.2918
3.8063	12.3883
3.7841	12.4182
3.7621	12.1806
3.7404	11.9239
3.7189	11.7361
3.6977	11.614
3.6767	11.3841
3.656	11.1606
3.6355	10.8542
3.6152	10.5043
3.5951	10.1074
3.5753	9.6265
3.5557	9.1777
3.5363	8.858
3.5171	8.5525
3.4981	8.3771
3.4793	8.2178
3.4607	8.0395
3.4423	7.778
3.4241	7.5285
3.4061	7.1938
3.3883	6.9359
3.3707	6.6274
3.3533	6.3791
3.336	6.2147
3.3189	6.0304
3.302	5.8626
3.2853	5.6759
3.2687	5.5872
3.2523	5.4637
3.2361	5.3601
3.22	5.1761
3.204	5.0034
3.1883	4.8376
3.1727	4.7035
3.1572	4.6026
3.1419	4.4418
3.1268	4.321
3.1117	4.2042
3.0969	4.1092
3.0821	4.0399
3.0675	3.8877
3.0531	3.8609
3.0388	3.7846
3.0246	3.7288
3.0105	3.6654
2.9966	3.653
2.9828	3.5991
2.9692	3.5544
2.9556	3.5006
2.9422	3.5092
2.9289	3.5054
2.9157	3.5544
2.9027	3.6032
2.8897	3.7152
2.8769	3.7462
2.8642	3.7681
2.8516	3.7643
2.8391	3.7417
2.8267	3.6101
2.8144	3.5824
2.8022	3.4771
2.7902	3.3938
2.7782	3.1613
2.7664	2.8421
2.7546	2.7375
2.7429	3.0481
2.7314	3.6259
2.7199	5.0753
2.7085	8.0058
2.6973	10.4347
2.6861	13.2405
2.675	14.7035
2.664	15.5534
2.6531	16.5216
2.6423	16.9932
2.6315	16.926
2.6209	17.0564
2.6103	17.3036
2.5999	17.5072
2.5895	17.7562
2.5792	18.0122
2.569	18.1747
2.5588	18.3628
2.5487	18.4816
2.5388	18.5848
2.5289	18.6422
2.519	18.6182
2.5093	18.5975
2.4996	18.5269
2.49	18.5757
2.4805	18.6345
2.471	18.647
2.4616	18.6157
2.4523	18.5862
2.4431	18.5776
2.4339	18.6867
2.4248	18.9776
2.4157	19.2714
2.4068	19.6055
2.3979	19.689
2.389	19.6141
2.3802	19.4457
2.3715	19.2983
2.3629	19.1518
2.3543	18.9882
2.3458	19.032
2.3373	19.4621
2.3289	19.9773
2.3206	20.5488
2.3123	20.9893
2.3041	21.3525
2.2959	21.533
2.2878	21.6507
2.2798	21.6437
2.2718	21.4573
2.2638	21.153
2.2559	21.0669
2.2481	21.1114
2.2403	21.2173
2.2326	21.168
2.225	20.8113
2.2173	20.4826
2.2098	20.1323
2.2023	20.1103
2.1948	20.5251
2.1874	21.3059
2.18	22.0623
2.1727	22.6282
2.1655	22.9881
2.1583	23.1816
2.1511	23.2563
2.144	23.3318
2.1369	23.208
2.1299	23.2623
2.1229	23.29
2.116	23.328
2.1091	23.2865
2.1023	23.3489
2.0955	23.4893
2.0887	23.5776
2.082	23.5738
2.06	23.6272
2.028	23.481
1.996	22.9893
1.964	22.9376
1.932	22.6141
1.9	22.4403
1.868	23.8289
1.836	24.2189
1.804	24.1439
1.772	24.1343
1.74	23.8749
1.708	23.5539
1.676	23.3285
1.644	23.1967
1.612	22.8826
1.58	22.4343
1.548	22.073
1.516	21.641
1.484	21.135
1.452	20.8007
1.42	19.8627
1.388	19.5144
1.356	19.5662
1.324	19.0781
1.292	18.6706
1.26	17.8747
1.228	17.4357
1.196	16.872
1.164	16.3997
1.132	16.0059
1.1	15.7722
1.068	15.6136
1.036	15.6821
1.004	15.7058
0.972	15.6324
0.94	15.4127
0.908	15.3258
0.876	15.595
0.844	16.0693
0.812	16.2566
0.795	16.3205
0.787	16.2746
0.779	16.1414
0.771	16.0038
0.763	15.8241
0.755	15.844
0.747	15.7469
0.739	15.738
0.731	15.5166
0.723	15.5647
0.715	15.6569
0.707	15.5511
0.699	15.5612
0.691	15.4974
0.683	15.5911
0.675	15.6198
0.667	15.8168
0.659	15.7816
0.651	15.8175
0.643	15.9474
0.635	15.9325
0.627	16.0184
0.619	16.1277
0.611	16.2999
0.603	16.3185
0.595	16.1795
0.587	16.2631
0.579	16.3721
0.571	16.2837
0.563	16.3222
0.555	16.0423
0.547	15.83
0.539	15.6776
0.531	15.2691
0.523	14.8786
0.515	14.5182
0.507	14.1026
0.499	13.4817
0.491	13.0868
0.483	12.5001
0.475	12.1058
0.467	11.7177
0.459	11.375
0.451	11.1042
0.443	10.6028
0.435	9.9687
0.427	9.333
0.419	8.4548
0.411	7.9934
0.403	7.5361
