Name: Augite-Mica Peridotie
Type: Rock
Class: Igneous
Subclass: Ultramafic
Particle Size: Solid
Sample No.: Ward46
Owner: JPL
Wavelength Range: VSWIR
Origin: Ward's Collection of American Rocks.  Sample locality - Murfreesboro, Pike County, Arkansas.
Description: A dense greenish black rock with porphyritic texture.  Thephenocrysts are olivine more or less altered to serpentine.Geologic age - Post-Lower Cretaceous.Collected by:  Ward's Natural Science Original ASTER Spectral Library name was jpl.perkin.rock.igneous.ultramafic.solid.ward46.spectrum.txt
Measurement: Hemispherical reflectance
X Units: Wavelength (micrometers)
Y Units: Reflectance (percent)
wavelength	value
2.5	7.8084
2.494	7.7444
2.488	7.8658
2.482	8.017
2.476	7.9677
2.47	7.932
2.464	8.0298
2.458	7.975
2.452	8.0977
2.446	8.1347
2.44	8.2517
2.434	8.1947
2.428	8.2925
2.422	8.2536
2.416	8.3123
2.41	8.3292
2.404	8.2923
2.398	8.2909
2.392	8.2591
2.386	8.2561
2.38	8.37
2.374	8.3829
2.368	8.521
2.362	8.5514
2.356	8.691
2.35	8.6058
2.344	8.5062
2.338	8.3185
2.332	8.282
2.326	8.1701
2.32	8.092
2.314	8.22
2.308	8.2759
2.302	8.5184
2.296	8.6862
2.29	8.8378
2.284	9.0763
2.278	9.2127
2.272	9.4952
2.266	9.6013
2.26	9.8067
2.254	9.8798
2.248	10.0375
2.242	10.1733
2.236	10.123
2.23	10.3239
2.224	10.4112
2.218	10.5079
2.212	10.6492
2.206	10.6128
2.2	10.7205
2.194	10.7175
2.188	10.8454
2.182	10.7559
2.176	10.8559
2.17	10.8796
2.164	10.8685
2.158	10.9942
2.152	10.9528
2.146	10.9535
2.14	10.8781
2.134	10.8862
2.128	10.8559
2.122	10.797
2.116	10.7516
2.11	10.77
2.104	10.6708
2.098	10.5947
2.092	10.6207
2.086	10.6132
2.08	10.6402
2.074	10.6466
2.068	10.6494
2.062	10.6327
2.056	10.5825
2.05	10.5287
2.044	10.554
2.038	10.5281
2.032	10.4825
2.026	10.3974
2.02	10.313
2.014	10.2674
2.008	10.1676
2.002	10.139
1.996	10.0726
1.99	9.9395
1.984	9.9032
1.978	9.8478
1.972	9.8042
1.966	9.7718
1.96	9.6033
1.954	9.6295
1.948	9.6352
1.942	9.4749
1.936	9.4024
1.93	9.2856
1.924	9.3156
1.918	9.1917
1.912	9.2341
1.906	9.3685
1.9	9.7898
1.894	10.3879
1.888	10.7025
1.882	11.0708
1.876	11.2194
1.87	11.4264
1.864	11.5643
1.858	11.5672
1.852	11.5823
1.846	11.6176
1.84	11.599
1.834	11.6115
1.828	11.6085
1.822	11.6095
1.816	11.6399
1.81	11.5716
1.804	11.5763
1.798	11.527
1.792	11.5537
1.786	11.5543
1.78	11.5595
1.774	11.5442
1.768	11.5433
1.762	11.538
1.756	11.466
1.75	11.5139
1.744	11.5343
1.738	11.4844
1.732	11.5167
1.726	11.5193
1.72	11.4925
1.714	11.4508
1.708	11.4634
1.702	11.4424
1.696	11.3274
1.69	11.4025
1.684	11.3487
1.678	11.3945
1.672	11.3405
1.666	11.3074
1.66	11.2895
1.654	11.22
1.648	11.2248
1.642	11.2013
1.636	11.1564
1.63	11.1027
1.624	11.0625
1.618	11.0316
1.612	11.0454
1.606	10.9876
1.6	11.0033
1.594	10.9833
1.588	10.8916
1.582	10.8188
1.576	10.9044
1.57	10.7944
1.564	10.7761
1.558	10.7862
1.552	10.695
1.546	10.7771
1.54	10.6533
1.534	10.6031
1.528	10.616
1.522	10.4885
1.516	10.4792
1.51	10.4381
1.504	10.4008
1.498	10.3483
1.492	10.2921
1.486	10.2202
1.48	10.2273
1.474	10.1369
1.468	10.0664
1.462	10.0326
1.456	9.898
1.45	9.8719
1.444	9.838
1.438	9.8003
1.432	9.7342
1.426	9.6548
1.42	9.667
1.414	9.5244
1.408	9.4206
1.402	9.3567
1.396	9.2087
1.39	9.0637
1.384	9.2506
1.378	9.5178
1.372	9.6214
1.366	9.668
1.36	9.6736
1.354	9.7065
1.348	9.5873
1.342	9.6308
1.336	9.4846
1.33	9.4497
1.324	9.4402
1.318	9.3291
1.312	9.3389
1.306	9.2408
1.3	9.2203
1.294	9.1429
1.288	9.0727
1.282	9.009
1.276	9.0261
1.27	8.8977
1.264	8.8816
1.258	8.8417
1.252	8.8094
1.246	8.7041
1.24	8.6908
1.234	8.5918
1.228	8.5823
1.222	8.6008
1.216	8.5515
1.21	8.4805
1.204	8.4111
1.198	8.3511
1.192	8.3691
1.186	8.2885
1.18	8.2287
1.174	8.2307
1.168	8.244
1.162	8.1467
1.156	8.1165
1.15	8.0679
1.144	8.007
1.138	8.0747
1.132	8.0323
1.126	7.9838
1.12	8.0129
1.114	7.9471
1.108	7.9056
1.102	7.8678
1.096	7.9462
1.09	7.9397
1.084	7.8733
1.078	7.9005
1.072	7.843
1.066	7.8499
1.06	7.8575
1.054	7.8417
1.048	7.7849
1.042	7.8832
1.036	7.8767
1.03	7.8771
1.024	7.8969
1.018	7.8057
1.012	7.8066
1.006	7.8875
1	7.7564
0.994	7.7411
0.988	7.8066
0.982	7.8417
0.976	7.82
0.97	7.773
0.964	7.8037
0.958	7.7448
0.952	7.7099
0.946	7.736
0.94	7.6833
0.934	7.7186
0.928	7.72
0.922	7.7009
0.916	7.6755
0.91	7.6865
0.904	7.6974
0.898	7.7135
0.892	7.7327
0.886	7.7745
0.88	7.7914
0.874	7.8577
0.868	7.8519
0.862	7.9294
0.856	7.9904
0.85	8.0234
0.844	8.0461
0.838	8.0913
0.832	8.0947
0.826	8.1082
0.82	8.1207
0.814	8.1068
0.808	8.0978
0.802	8.0651
0.796	8.0341
0.79	8
0.784	7.9525
0.778	7.9084
0.772	7.8542
0.766	7.7983
0.76	7.7499
0.754	7.6982
0.748	7.6433
0.742	7.6053
0.736	7.5669
0.73	7.537
0.724	7.4987
0.718	7.4776
0.712	7.459
0.706	7.4376
0.7	7.4297
0.694	7.41
0.688	7.4055
0.682	7.4037
0.676	7.4023
0.67	7.399
0.664	7.394
0.658	7.3987
0.652	7.3978
0.646	7.4048
0.64	7.403
0.634	7.4108
0.628	7.4117
0.622	7.4159
0.616	7.4141
0.61	7.4105
0.604	7.4036
0.598	7.3971
0.592	7.3831
0.586	7.3673
0.58	7.342
0.574	7.3126
0.568	7.2805
0.562	7.2435
0.556	7.1802
0.55	7.1264
0.544	7.0652
0.538	7.0078
0.532	6.9513
0.526	6.8982
0.52	6.8337
0.514	6.7626
0.508	6.6678
0.502	6.5617
0.496	6.4341
0.49	6.3368
0.484	6.2405
0.478	6.1441
0.472	6.0373
0.466	5.9264
0.46	5.827
0.454	5.744
0.448	5.6663
0.442	5.5958
0.436	5.526
0.43	5.4649
0.424	5.4025
0.418	5.3389
0.412	5.2769
0.406	5.2299
0.4	5.182
