Name: Limestone Conglomerate-Breccia
Type: Rock
Class: Sedimentary
Subclass: Conglomerate
Particle Size: Solid
Sample No.: Ward50
Owner: JPL
Wavelength Range: All
Origin: Ward's Collection of American Rocks.  Sample locality - Loudoun County, Virginia.
Description: This is a reddish brown conglomerate-breccia composed oangular to rounded fragments of limestone of various shades of gray andbuff with a chocolate colored calcareous cement.  The degree of roundnessof the pebbles varies witht he specimen.Geologic age - Triassic (Newark).Collected by:  Ward's Natural Science Original ASTER Spectral Library name was jpl.nicolet.rock.sedimentary.conglomerate.solid.ward50.spectrum.txt
Measurement: Hemispherical reflectance
X Units: Wavelength (micrometers)
Y Units: Reflectance (percent)
wavelength	value
15.3871	3.2768
15.118	4.218
14.8581	4.0066
14.6069	4.4206
14.3642	4.2646
14.1293	4.3159
13.9021	3.5256
13.682	3.8999
13.4687	3.7659
13.2621	4.5091
13.0616	4.983
12.8672	5.1952
12.6784	5.4325
12.4951	5.7155
12.317	4.8891
12.1439	5.0083
11.9757	5.2903
11.812	5.3055
11.6527	6.0582
11.4977	8.231
11.3468	15.4141
11.1997	14.8183
11.0564	7.8264
10.9168	6.58
10.7806	6.111
10.6478	6.2459
10.5182	6.3594
10.3917	6.8235
10.2683	6.8752
10.1477	7.1517
10.0299	7.469
9.9148	7.642
9.8024	7.9041
9.6925	8.5754
9.585	8.9771
9.4798	9.4482
9.377	10.3183
9.2763	11.3421
9.1778	11.1169
9.0814	10.9791
8.987	11.3581
8.8945	11.2611
8.8039	11.4893
8.7151	10.8598
8.6281	9.7059
8.5428	10.7646
8.4592	10.6008
8.3772	10.873
8.2967	11.6779
8.2179	11.7009
8.1404	10.716
8.0645	9.7485
7.9899	9.6705
7.9167	9.263
7.8449	9.1334
7.7743	8.9406
7.705	8.8625
7.6369	8.8992
7.57	8.8206
7.5043	9.1448
7.4397	9.4556
7.3762	9.8694
7.3138	10.4764
7.2524	11.2661
7.1921	13.3237
7.1327	15.8976
7.0743	19.7259
7.0169	22.9622
6.9604	23.3981
6.9047	23.8712
6.85	24.903
6.7962	26.3393
6.7431	27.6705
6.6909	30.0708
6.6395	33.2155
6.5889	35.4937
6.539	37.2239
6.49	38.528
6.4416	34.6003
6.3939	26.921
6.347	18.2768
6.3007	8.955
6.2551	5.4046
6.2101	3.6476
6.1658	2.8951
6.1222	2.639
6.0791	2.1101
6.0366	1.8776
5.9948	2.1444
5.9535	2.0256
5.9127	2.0798
5.8726	2.0849
5.8329	2.1969
5.7938	2.1885
5.7552	2.2081
5.7172	2.3056
5.6796	2.3552
5.6425	2.4853
5.6059	2.3846
5.5698	2.1257
5.5341	2.2193
5.4989	2.4056
5.4641	2.6438
5.4298	3.1162
5.3959	3.5619
5.3624	3.7714
5.3294	3.8249
5.2967	4.0926
5.2644	4.3684
5.2326	4.6513
5.2011	5.0106
5.17	5.2515
5.1392	5.3336
5.1088	5.2886
5.0788	5.4453
5.0491	5.4725
5.0198	5.8276
4.9908	5.8414
4.9622	6.1323
4.9338	6.3148
4.9058	6.5094
4.8781	6.7126
4.8508	6.8083
4.8237	7.1703
4.7969	7.3301
4.7704	7.4288
4.7443	7.3403
4.7184	7.0376
4.6927	6.2255
4.6674	5.8634
4.6423	5.8005
4.6175	6.2816
4.593	6.5942
4.5687	7.0321
4.5447	7.3366
4.5209	7.4368
4.4974	7.8841
4.4741	8.2889
4.451	8.0233
4.4282	8.2817
4.4057	8.8125
4.3833	9.515
4.3612	9.8701
4.3393	9.3826
4.3176	8.9855
4.2962	8.683
4.2749	8.2808
4.2539	8.9303
4.233	8.763
4.2124	9.4685
4.192	9.8553
4.1717	9.8466
4.1517	9.3278
4.1319	9.1327
4.1122	8.7698
4.0927	8.4229
4.0734	7.8059
4.0543	7.1949
4.0354	6.2087
4.0166	5.2519
3.9981	4.4929
3.9796	3.9585
3.9614	3.6468
3.9433	3.8859
3.9254	4.0344
3.9077	4.4064
3.8901	4.6014
3.8726	4.5129
3.8554	4.8369
3.8382	5.224
3.8213	5.2367
3.8045	5.3742
3.7878	6.1543
3.7713	7.2427
3.7549	8.0654
3.7386	9.6985
3.7225	10.4999
3.7066	10.9728
3.6907	11.4287
3.675	11.7221
3.6595	11.7553
3.644	11.6758
3.6287	11.5845
3.6136	11.4653
3.5985	11.2773
3.5836	10.5059
3.5688	9.8961
3.5541	9.2085
3.5396	8.6213
3.5251	7.3802
3.5108	5.9119
3.4966	5.1082
3.4825	4.7764
3.4685	4.932
3.4547	4.6864
3.4409	4.7968
3.4273	5.0088
3.4137	5.3026
3.4003	5.3123
3.387	5.5554
3.3738	5.6643
3.3606	5.3904
3.3476	4.8492
3.3347	5.8098
3.3219	6.2174
3.3092	6.291
3.2965	6.633
3.284	8.0301
3.2716	8.3242
3.2593	8.4116
3.247	8.507
3.2348	8.3282
3.2228	8.0582
3.2108	8.3572
3.1989	7.8424
3.1871	7.8139
3.1754	7.7716
3.1638	7.2935
3.1523	7.4778
3.1408	7.4376
3.1294	6.947
3.1181	6.8695
3.1069	6.4192
3.0958	6.9709
3.0848	6.3858
3.0738	6.4874
3.0629	6.3636
3.0521	6.447
3.0413	5.9737
3.0307	6.4896
3.0201	6.4624
3.0096	6.2942
2.9991	6.1415
2.9887	5.8394
2.9784	6.0011
2.9682	6.1344
2.9581	5.9916
2.948	5.6488
2.9379	6.1071
2.928	6.51
2.9181	6.2858
2.9083	6.4214
2.8985	6.2569
2.8888	6.2184
2.8792	6.6135
2.8697	6.2243
2.8602	6.1993
2.8507	6.2147
2.8413	6.6265
2.832	6.4561
2.8228	6.6299
2.8136	6.6015
2.8045	6.4475
2.7954	6.6985
2.7864	5.446
2.7774	6.8004
2.7685	5.7206
2.7597	7.0339
2.7509	7.0858
2.7422	7.3729
2.7335	7.9946
2.7249	8.6851
2.7163	9.8298
2.7078	12.1161
2.6994	15.4972
2.691	17.9105
2.6826	20.1151
2.6743	21.4567
2.666	22.2072
2.6578	22.8434
2.6497	23.3939
2.6416	23.7684
2.6336	23.7923
2.6256	23.6681
2.6176	23.8404
2.6097	23.7335
2.6018	23.7948
2.594	24.3075
2.5863	24.5198
2.5785	23.6042
2.5709	23.7885
2.5633	22.5089
2.5557	20.8754
2.5481	19.855
2.5406	17.4734
2.5332	17.0269
2.5258	17.1161
2.5184	17.2768
2.5111	17.6114
2.5038	18.1048
2.4966	17.8285
2.4894	18.2721
2.4823	19.2122
2.4752	20.6467
2.4681	20.1137
2.4611	20.6644
2.4541	21.7411
2.4471	21.9898
2.4402	23.355
2.4333	23.7179
2.4265	24.1915
2.4197	24.8907
2.413	25.8253
2.4063	25.6871
2.3996	26.1274
2.3929	25.8285
2.3863	26.3465
2.3798	26.2481
2.3732	26.1665
2.3667	25.7121
2.3603	24.1192
2.3538	24.2166
2.3474	21.8723
2.3411	22.2687
2.3347	21.1649
2.3285	20.9427
2.3222	21.862
2.316	22.502
2.3098	22.4513
2.3036	22.7862
2.2975	23.3424
2.2914	23.6673
2.2854	24.2227
2.2793	24.702
2.2733	26.2436
2.2674	26.446
2.2614	25.5908
2.2555	25.6101
2.2497	26.464
2.2438	26.9349
2.238	28.1668
2.2322	26.4745
2.2265	27.857
2.2208	26.5834
2.2151	27.4957
2.2094	27.3084
2.2038	27.9333
2.1982	27.5332
2.1926	28.5526
2.187	29.2311
2.1815	28.5725
2.176	29.2729
2.1706	29.4624
2.1651	28.6239
2.1597	28.9391
2.1543	28.7131
2.149	28.9826
2.1436	29.4099
2.1383	29.5034
2.1331	29.3954
2.1278	30.5471
2.1226	29.7848
2.1174	29.4252
2.1122	29.265
2.1071	29.6936
2.1019	30.0798
2.0968	29.7574
2.0918	30.9163
2.0867	30.1022
2.0817	28.5321
2.0767	29.92
2.0717	28.9614
2.0667	29.5404
2.0618	29.9619
2.0569	28.9641
2.052	31.4151
2.0472	29.2017
2.0423	28.4259
2.0375	29.6734
2.0327	29.2023
2.028	30.0046
2.0232	29.5115
2.0185	30.0467
2.0138	30.117
2.0091	30.8432
2.0044	29.8208
1.9998	30.0669
