Name: Verde Antique
Type: Rock
Class: Metamorphic
Subclass: Marble
Particle Size: Solid
Sample No.: Ward98
Owner: JPL
Wavelength Range: All
Origin: Ward's Collection of American Rocks.  Sample locality - Roxbury, Washington County, Vermont.  Collected by - JPL.
Description: A massive, grayish green rock with veins of magnesite andfibrous serpentine.Collected by:  Ward's Natural Science Original ASTER Spectral Library name was jpl.nicolet.rock.metamorphic.serpentinite.solid.ward98.spectrum.txt
Measurement: Hemispherical reflectance
X Units: Wavelength (micrometers)
Y Units: Reflectance (percent)
wavelength	value
15.3871	17.4501
15.118	18.0653
14.8581	18.8972
14.6069	14.187
14.3642	5.9832
14.1293	3.9917
13.9021	2.6361
13.682	2.1116
13.4687	1.7365
13.2621	1.9362
13.0616	2.4088
12.8672	2.4922
12.6784	2.7457
12.4951	3.0285
12.317	3.664
12.1439	3.9287
11.9757	4.3143
11.812	4.6789
11.6527	5.2963
11.4977	5.7185
11.3468	6.5017
11.1997	6.9362
11.0564	7.5748
10.9168	8.3838
10.7806	9.8261
10.6478	11.7591
10.5182	14.7349
10.3917	17.5671
10.2683	19.8941
10.1477	23.1208
10.0299	23.7902
9.9148	26.4627
9.8024	28.2354
9.6925	29.6943
9.585	34.107
9.4798	28.8917
9.377	17.1282
9.2763	11.999
9.1778	9.0242
9.0814	6.425
8.987	3.914
8.8945	2.601
8.8039	2.067
8.7151	1.9975
8.6281	2.1065
8.5428	1.7559
8.4592	1.9552
8.3772	1.891
8.2967	1.8783
8.2179	2.1525
8.1404	2.2494
8.0645	2.3331
7.9899	2.489
7.9167	2.6686
7.8449	3.0154
7.7743	3.0383
7.705	2.9822
7.6369	3.1305
7.57	3.1329
7.5043	2.9406
7.4397	3.2466
7.3762	3.3657
7.3138	3.3306
7.2524	3.3649
7.1921	3.7114
7.1327	3.7315
7.0743	3.9223
7.0169	4.2262
6.9604	4.0286
6.9047	4.4141
6.85	4.2406
6.7962	4.3616
6.7431	4.3778
6.6909	4.5617
6.6395	4.5658
6.5889	4.7767
6.539	4.7857
6.49	4.8715
6.4416	4.8073
6.3939	4.6602
6.347	4.7043
6.3007	4.5606
6.2551	4.4619
6.2101	4.0681
6.1658	4.2349
6.1222	4.0158
6.0791	4.0425
6.0366	4.2372
5.9948	4.1129
5.9535	3.9512
5.9127	4.1837
5.8726	4.1342
5.8329	4.1078
5.7938	4.3446
5.7552	4.5132
5.7172	4.6391
5.6796	4.8333
5.6425	4.8399
5.6059	5.0782
5.5698	5.2971
5.5341	5.2969
5.4989	5.3727
5.4641	5.5085
5.4298	5.5754
5.3959	5.5103
5.3624	5.7008
5.3294	5.7341
5.2967	5.8546
5.2644	5.8835
5.2326	6.0979
5.2011	6.2327
5.17	6.3859
5.1392	6.3319
5.1088	6.5245
5.0788	6.4051
5.0491	6.4903
5.0198	6.626
4.9908	6.7797
4.9622	6.7107
4.9338	6.6635
4.9058	6.7916
4.8781	6.7317
4.8508	6.993
4.8237	7.0674
4.7969	7.073
4.7704	7.1842
4.7443	7.2599
4.7184	7.3306
4.6927	7.4032
4.6674	7.7875
4.6423	7.6663
4.6175	7.6431
4.593	7.8434
4.5687	7.7811
4.5447	7.9344
4.5209	8.1171
4.4974	8.0687
4.4741	8.1037
4.451	8.1676
4.4282	8.217
4.4057	8.2473
4.3833	8.2165
4.3612	8.3698
4.3393	8.4197
4.3176	8.7193
4.2962	8.4569
4.2749	8.7697
4.2539	8.6404
4.233	8.6618
4.2124	8.6892
4.192	8.7871
4.1717	8.9383
4.1517	8.774
4.1319	8.7823
4.1122	9.2093
4.0927	8.834
4.0734	8.8719
4.0543	9.1526
4.0354	9.2401
4.0166	9.2069
3.9981	9.2205
3.9796	8.9727
3.9614	9.0729
3.9433	9.3027
3.9254	9.0977
3.9077	9.1994
3.8901	9.2969
3.8726	9.5664
3.8554	9.2395
3.8382	9.1877
3.8213	9.5443
3.8045	9.1964
3.7878	9.2534
3.7713	9.3189
3.7549	9.2044
3.7386	9.5249
3.7225	9.2106
3.7066	9.2074
3.6907	9.258
3.675	9.4219
3.6595	9.414
3.644	9.1753
3.6287	9.5264
3.6136	9.3617
3.5985	9.1589
3.5836	9.1179
3.5688	9.0469
3.5541	9.5357
3.5396	8.9995
3.5251	9.257
3.5108	8.6944
3.4966	8.8346
3.4825	8.8633
3.4685	8.7745
3.4547	9.0031
3.4409	8.6412
3.4273	8.7417
3.4137	8.2875
3.4003	8.124
3.387	8.4579
3.3738	8.4886
3.3606	8.3205
3.3476	8.4021
3.3347	8.0641
3.3219	8.4542
3.3092	8.1695
3.2965	8.5876
3.284	8.22
3.2716	7.908
3.2593	7.972
3.247	7.8647
3.2348	8.0561
3.2228	7.936
3.2108	8.4801
3.1989	8.266
3.1871	7.7825
3.1754	7.4377
3.1638	7.9206
3.1523	8.0813
3.1408	7.53
3.1294	7.6352
3.1181	7.601
3.1069	7.4482
3.0958	7.1746
3.0848	7.5873
3.0738	6.9608
3.0629	7.3592
3.0521	6.6732
3.0413	6.9077
3.0307	7.0251
3.0201	6.4516
3.0096	6.7307
2.9991	6.6685
2.9887	6.891
2.9784	6.5369
2.9682	6.3756
2.9581	5.1845
2.948	6.0617
2.9379	5.6969
2.928	6.306
2.9181	5.5201
2.9083	5.2031
2.8985	5.4483
2.8888	5.4604
2.8792	5.865
2.8697	6.2075
2.8602	5.983
2.8507	6.1648
2.8413	5.6065
2.832	5.6675
2.8228	5.8053
2.8136	5.2635
2.8045	5.377
2.7954	5.6251
2.7864	6.6274
2.7774	5.8165
2.7685	6.3229
2.7597	4.9305
2.7509	5.7083
2.7422	5.0565
2.7335	5.0441
2.7249	4.8143
2.7163	5.0292
2.7078	6.0737
2.6994	6.116
2.691	7.9388
2.6826	9.4259
2.6743	9.9687
2.666	10.5726
2.6578	10.2095
2.6497	10.6001
2.6416	10.1342
2.6336	9.911
2.6256	10.3612
2.6176	10.6601
2.6097	9.8893
2.6018	9.4014
2.594	9.9085
2.5863	9.4482
2.5785	9.0521
2.5709	9.0027
2.5633	9.5523
2.5557	9.4442
2.5481	9.315
2.5406	9.3226
2.5332	10.2598
2.5258	9.4654
2.5184	9.6797
2.5111	9.8293
2.5038	9.0459
2.4966	9.2054
2.4894	9.6724
2.4823	8.918
2.4752	9.4463
2.4681	10.4047
2.4611	9.598
2.4541	8.9058
2.4471	9.5793
2.4402	10.2004
2.4333	10.0665
2.4265	10.1483
2.4197	10.5364
2.413	10.46
2.4063	9.8589
2.3996	10.127
2.3929	10.0067
2.3863	10.1442
2.3798	9.4338
2.3732	10.425
2.3667	9.8403
2.3603	9.8347
2.3538	9.575
2.3474	10.6876
2.3411	9.0274
2.3347	9.2795
2.3285	9.1122
2.3222	8.8444
2.316	9.9863
2.3098	10.6579
2.3036	9.5368
2.2975	9.6753
2.2914	9.8627
2.2854	10.5754
2.2793	10.9848
2.2733	10.0918
2.2674	11.1786
2.2614	12.5631
2.2555	10.6957
2.2497	11.0784
2.2438	10.668
2.238	11.8315
2.2322	11.3989
2.2265	12.1227
2.2208	11.7247
2.2151	12.9737
2.2094	13.3497
2.2038	11.6864
2.1982	13.4792
2.1926	12.4421
2.187	13.497
2.1815	12.0126
2.176	11.7078
2.1706	12.8237
2.1651	12.5598
2.1597	12.8365
2.1543	13.1364
2.149	10.6357
2.1436	12.0111
2.1383	13.1538
2.1331	12.8034
2.1278	12.4185
2.1226	13.0336
2.1174	12.049
2.1122	11.0389
2.1071	13.4568
2.1019	13.0432
2.0968	11.6021
2.0918	12.3292
2.0867	11.9664
2.0817	11.7507
2.0767	13.6184
2.0717	11.5388
2.0667	13.4336
2.0618	11.9891
2.0569	12.7884
2.052	10.8259
2.0472	12.167
2.0423	12.7723
2.0375	10.3619
2.0327	12.1729
2.028	12.2247
2.0232	13.1635
2.0185	13.9829
2.0138	11.8323
2.0091	12.416
2.0044	10.92
1.9998	11.293
