Name: Glauconitic Sandstone
Type: Rock
Class: Sedimentary
Subclass: Sandstone
Particle Size: Solid
Sample No.: Ward64
Owner: JPL
Wavelength Range: VSWIR
Origin: Ward's Collection of American Rocks.  Sample locality - Hazlet, Monmouth County, New Jersey.
Description: A greenish rock with brown seams, the whole showing atexture resembling oolitic.  Fossils are sometimes present.Geologic age - Cretaceous.Collected by:  Ward's Natural Science Original ASTER Spectral Library name was jpl.perkin.rock.sedimentary.sandstone.solid.ward64.spectrum.txt
Measurement: Hemispherical reflectance
X Units: Wavelength (micrometers)
Y Units: Reflectance (percent)
wavelength	value
2.5	19.546
2.494	19.4788
2.488	19.6187
2.482	19.8531
2.476	19.9474
2.47	20.3268
2.464	20.7195
2.458	20.8154
2.452	21.025
2.446	21.32
2.44	21.4608
2.434	21.7556
2.428	21.8241
2.422	22.1357
2.416	22.2626
2.41	22.4376
2.404	22.5753
2.398	22.8234
2.392	22.9189
2.386	23.0131
2.38	23.1111
2.374	23.2678
2.368	23.4
2.362	23.6939
2.356	23.9547
2.35	24.2395
2.344	24.5619
2.338	24.7773
2.332	24.8986
2.326	24.9846
2.32	24.9235
2.314	24.7035
2.308	24.644
2.302	24.6784
2.296	24.8334
2.29	25.1513
2.284	25.4483
2.278	25.7645
2.272	26.1097
2.266	26.2758
2.26	26.543
2.254	26.8423
2.248	27.0663
2.242	27.3861
2.236	27.7312
2.23	27.9836
2.224	28.2676
2.218	28.5041
2.212	28.7409
2.206	28.8401
2.2	29.1753
2.194	29.3471
2.188	29.5297
2.182	29.7478
2.176	29.8659
2.17	30.0754
2.164	30.2065
2.158	30.2691
2.152	30.3132
2.146	30.4267
2.14	30.4182
2.134	30.3804
2.128	30.2471
2.122	30.1717
2.116	29.9996
2.11	29.8776
2.104	29.7743
2.098	29.5853
2.092	29.5565
2.086	29.5095
2.08	29.4809
2.074	29.3834
2.068	29.3188
2.062	29.2417
2.056	29.102
2.05	29.0108
2.044	28.875
2.038	28.7293
2.032	28.5216
2.026	28.3907
2.02	28.133
2.014	27.9247
2.008	27.745
2.002	27.4143
1.996	27.1519
1.99	26.8768
1.984	26.595
1.978	26.3358
1.972	26.0879
1.966	25.8377
1.96	25.5675
1.954	25.3403
1.948	25.1638
1.942	24.8853
1.936	24.7013
1.93	24.5343
1.924	24.2808
1.918	24.2539
1.912	24.3401
1.906	24.8772
1.9	25.8279
1.894	27.0538
1.888	28.0026
1.882	28.6175
1.876	29.0982
1.87	29.2177
1.864	29.4865
1.858	29.6093
1.852	29.5354
1.846	29.5453
1.84	29.5631
1.834	29.4198
1.828	29.4087
1.822	29.3937
1.816	29.2437
1.81	29.1384
1.804	29.1294
1.798	28.9864
1.792	28.9032
1.786	28.8021
1.78	28.7411
1.774	28.6345
1.768	28.5343
1.762	28.4288
1.756	28.3893
1.75	28.2883
1.744	28.1972
1.738	28.1188
1.732	28.0306
1.726	27.9929
1.72	27.8401
1.714	27.7691
1.708	27.6487
1.702	27.6248
1.696	27.4614
1.69	27.3951
1.684	27.3373
1.678	27.0976
1.672	27.0727
1.666	26.9187
1.66	26.8584
1.654	26.6604
1.648	26.5703
1.642	26.5338
1.636	26.3673
1.63	26.1707
1.624	26.1387
1.618	25.9927
1.612	25.8427
1.606	25.8005
1.6	25.6128
1.594	25.4961
1.588	25.2721
1.582	25.1368
1.576	25.0263
1.57	24.8454
1.564	24.7027
1.558	24.5842
1.552	24.4044
1.546	24.2493
1.54	24.0875
1.534	23.9684
1.528	23.702
1.522	23.5564
1.516	23.4303
1.51	23.2283
1.504	23.0831
1.498	22.8826
1.492	22.7034
1.486	22.513
1.48	22.3041
1.474	22.1631
1.468	21.963
1.462	21.7634
1.456	21.582
1.45	21.3123
1.444	21.1537
1.438	20.9717
1.432	20.8562
1.426	20.6976
1.42	20.5643
1.414	20.3177
1.408	20.4439
1.402	20.4379
1.396	20.3814
1.39	20.3008
1.384	20.2119
1.378	20.0842
1.372	19.9766
1.366	19.8162
1.36	19.5966
1.354	19.5708
1.348	19.3803
1.342	19.1733
1.336	19.08
1.33	18.941
1.324	18.8281
1.318	18.7358
1.312	18.6458
1.306	18.5413
1.3	18.3637
1.294	18.26
1.288	18.1698
1.282	18.0882
1.276	17.9563
1.27	17.826
1.264	17.6777
1.258	17.6175
1.252	17.5455
1.246	17.3902
1.24	17.3266
1.234	17.2713
1.228	17.0879
1.222	17.07
1.216	16.9412
1.21	16.8954
1.204	16.7982
1.198	16.7202
1.192	16.6258
1.186	16.6308
1.18	16.4885
1.174	16.4115
1.168	16.3608
1.162	16.2517
1.156	16.2379
1.15	16.1225
1.144	16.0657
1.138	16.052
1.132	16.0344
1.126	15.9596
1.12	15.8739
1.114	15.8478
1.108	15.8009
1.102	15.6992
1.096	15.6797
1.09	15.7189
1.084	15.5733
1.078	15.5609
1.072	15.5169
1.066	15.491
1.06	15.4653
1.054	15.4717
1.048	15.4163
1.042	15.3755
1.036	15.4448
1.03	15.3804
1.024	15.3247
1.018	15.2816
1.012	15.3023
1.006	15.317
1	15.2164
0.994	15.2373
0.988	15.1998
0.982	15.2593
0.976	15.1108
0.97	15.1679
0.964	15.1549
0.958	15.114
0.952	15.1146
0.946	15.1628
0.94	15.142
0.934	15.0909
0.928	15.0954
0.922	15.1649
0.916	15.134
0.91	15.127
0.904	15.132
0.898	15.1494
0.892	15.1866
0.886	15.1881
0.88	15.2551
0.874	15.2565
0.868	15.26
0.862	15.3052
0.856	15.3681
0.85	15.4813
0.844	15.601
0.838	15.6707
0.832	15.7274
0.826	15.7673
0.82	15.78
0.814	15.8238
0.808	15.8105
0.802	15.793
0.796	15.7586
0.79	15.7293
0.784	15.6799
0.778	15.6378
0.772	15.5864
0.766	15.5296
0.76	15.4681
0.754	15.4115
0.748	15.3579
0.742	15.3041
0.736	15.2494
0.73	15.1974
0.724	15.1445
0.718	15.0989
0.712	15.0473
0.706	15.0079
0.7	14.9648
0.694	14.9225
0.688	14.8833
0.682	14.8532
0.676	14.8237
0.67	14.7845
0.664	14.7547
0.658	14.7177
0.652	14.6783
0.646	14.6403
0.64	14.5899
0.634	14.5385
0.628	14.4831
0.622	14.4161
0.616	14.3431
0.61	14.2553
0.604	14.1538
0.598	14.0461
0.592	13.9169
0.586	13.7531
0.58	13.5713
0.574	13.3518
0.568	13.1021
0.562	12.8141
0.556	12.4598
0.55	12.0808
0.544	11.6783
0.538	11.2413
0.532	10.7929
0.526	10.3408
0.52	9.9017
0.514	9.4814
0.508	9.0735
0.502	8.7227
0.496	8.3775
0.49	8.0753
0.484	7.8159
0.478	7.6223
0.472	7.4605
0.466	7.3292
0.46	7.2053
0.454	7.0539
0.448	6.8485
0.442	6.6041
0.436	6.3291
0.43	6.0491
0.424	5.7977
0.418	5.5949
0.412	5.431
0.406	5.2792
0.4	5.1457
