Name: Diorite Gneiss
Type: rock
Class: Metamorphic
Subclass: Gneis
Particle Size: Coarse
Sample No.: gneiss7
Owner: JHU
Wavelength Range: All
Origin: Sample No. 464, The Hunt and Salisbury Collection at the U.S.Geological Survey, Denver, Co.
Description: This is a coarse-grained sample composed of hornblende euhedra assocciated with biotite, with anhedra and subhedra of alkali feldspars (oligoclase and orthoclase)  which are slightly sericitized.  Zircon and pyrite crystals occur throughout the section.  There may be a trace of quartz present as well.  Some carbonate (?), or zircon masses (high relief, colorless, perhaps 3rd order B.R.) occur in this rock, often associated with the amphibole or opaques. Particle size was 500-1500 Micrometer. Original ASTER Spectral Library name was jhu.becknic.rock.metamorphic.gneiss.coarse.gneiss7.spectrum.txt
Measurement: Directional (10 Degree) Hemispherical Reflectance
X Units: Wavelength (micrometers)
Y Units: Reflectance (percent)
wavelength	value
14.9831	6.0808
14.6445	6.5013
14.3209	6.5279
14.0112	6.628
13.7147	6.7869
13.4304	6.9096
13.1577	6.7611
12.8959	6.7644
12.6443	6.8445
12.4023	7.0526
12.1694	7.6122
11.945	8.0781
11.7289	8.465
11.5203	8.8084
11.3191	9.2032
11.1248	9.728
10.937	10.281
10.7555	11.04
10.5799	11.934
10.4099	12.618
10.2454	13.303
10.0859	14.083
9.9313	14.676
9.7814	14.154
9.636	13.765
9.4948	12.719
9.3577	11.16
9.2245	10.019
9.095	9.4866
8.9691	9.2591
8.8467	9.6304
8.7275	10.065
8.6116	9.3242
8.4986	8.9654
8.3886	8.8479
8.2814	7.8398
8.1769	6.1262
8.075	5.483
7.9756	5.3296
7.8786	5.3301
7.784	5.42
7.6916	5.5266
7.6014	5.6358
7.5133	5.8006
7.4272	5.9413
7.343	6.0954
7.2607	6.2664
7.1803	6.4492
7.1016	6.6569
7.0246	6.8317
6.9493	6.9511
6.8755	7.0761
6.8034	7.2369
6.7327	7.3757
6.6634	7.4538
6.5956	7.4796
6.5292	7.4803
6.464	7.4188
6.4002	7.271
6.3376	7.1879
6.2762	7.1419
6.216	7.0875
6.157	7.0993
6.099	7.1786
6.0421	7.2286
5.9863	7.352
5.9315	7.446
5.8777	7.5151
5.8249	7.6719
5.773	7.8121
5.722	7.9222
5.6719	8.0875
5.6227	8.3243
5.5744	8.5751
5.5268	8.9223
5.4801	9.2531
5.4341	9.5754
5.3889	9.8537
5.3445	10.103
5.3008	10.438
5.2578	10.759
5.2154	11.14
5.1738	11.568
5.1328	12.046
5.0925	12.638
5.0528	13.32
5.0137	13.985
4.9752	14.622
4.9373	15.255
4.9	15.892
4.8632	16.582
4.827	17.336
4.7913	18.071
4.7561	18.879
4.7215	19.836
4.6873	20.901
4.6536	22.162
4.6205	23.524
4.5877	24.937
4.5555	26.348
4.5237	27.62
4.4923	28.671
4.4614	29.778
4.4309	31.085
4.4008	32.476
4.3711	33.794
4.3418	34.986
4.3129	36.163
4.2844	37.33
4.2563	38.076
4.2285	39.188
4.2011	39.487
4.174	40.044
4.1473	40.549
4.1209	40.948
4.0949	41.303
4.0692	41.603
4.0438	41.813
4.0187	41.716
3.994	41.119
3.9695	41.125
3.9453	42.237
3.9214	42.909
3.8979	43.252
3.8746	43.518
3.8515	43.76
3.8288	44.125
3.8063	44.53
3.7841	44.833
3.7621	44.95
3.7404	44.947
3.7189	44.958
3.6977	44.945
3.6767	44.871
3.656	44.766
3.6355	44.6
3.6152	44.391
3.5951	44.095
3.5753	43.735
3.5557	43.339
3.5363	42.835
3.5171	42.007
3.4981	41.116
3.4793	40.684
3.4607	40.491
3.4423	39.849
3.4241	39.126
3.4061	38.481
3.3883	38.004
3.3707	37.433
3.3533	36.824
3.336	36.659
3.3189	36.284
3.302	35.682
3.2853	34.968
3.2687	34.132
3.2523	33.254
3.2361	32.437
3.22	31.677
3.204	30.915
3.1883	30.115
3.1727	29.289
3.1572	28.391
3.1419	27.472
3.1268	26.597
3.1117	25.78
3.0969	25.077
3.0821	24.444
3.0675	23.881
3.0531	23.288
3.0388	22.753
3.0246	22.142
3.0105	21.517
2.9966	20.896
2.9828	20.362
2.9692	19.914
2.9556	19.576
2.9422	19.327
2.9289	19.183
2.9157	19.131
2.9027	19.057
2.8897	18.969
2.8769	18.82
2.8642	18.686
2.8516	18.603
2.8391	18.354
2.8267	17.862
2.8144	17.38
2.8022	16.959
2.7902	16.13
2.7782	13.877
2.7664	12.728
2.7546	12.65
2.7429	13.353
2.7314	14.376
2.7199	15.703
2.7085	17.268
2.6973	22.014
2.6861	31.045
2.675	41.041
2.664	42.529
2.6531	43.764
2.6423	44.785
2.6315	44.798
2.6209	44.96
2.6103	45.389
2.5999	45.727
2.5895	45.905
2.5792	45.971
2.569	45.982
2.5588	46.055
2.5487	46.131
2.5388	46.14
2.5289	46.123
2.519	46.058
2.5093	46.01
2.4996	45.996
2.49	46.02
2.4805	46.118
2.471	46.136
2.4616	46.264
2.4523	46.288
2.4431	46.155
2.4339	45.847
2.4248	45.293
2.4157	44.437
2.4068	43.375
2.3979	42.656
2.389	42.639
2.3802	43.277
2.3715	44
2.3629	43.757
2.3543	42.677
2.3458	41.463
2.3373	40.845
2.3289	40.742
2.3206	40.968
2.3123	41.614
2.3041	42.467
2.2959	43.866
2.2878	46.271
2.2798	48.363
2.2718	49.206
2.2638	49.085
2.2559	48.635
2.2481	48.925
2.2403	49.822
2.2326	50.35
2.225	50.461
2.2173	50.308
2.2098	50.005
2.2023	49.956
2.1948	49.977
2.1874	50.168
2.18	50.347
2.1727	50.43
2.1655	50.437
2.1583	50.435
2.1511	50.339
2.144	50.319
2.1369	50.23
2.1299	50.164
2.1229	50.105
2.116	50.093
2.1091	50.108
2.1023	50.135
2.0955	50.148
2.0887	50.247
2.082	50.078
2.06	49.698
2.028	49.754
1.996	48.695
1.964	48.376
1.932	47.679
1.9	46.43
1.868	48.136
1.836	48.235
1.804	47.316
1.772	46.622
1.74	46.016
1.708	45.174
1.676	44.429
1.644	43.484
1.612	42.596
1.58	41.831
1.548	40.384
1.516	38.802
1.484	37.72
1.452	35.994
1.42	34.066
1.388	32.175
1.356	31.16
1.324	29.343
1.292	27.311
1.26	25.554
1.228	23.636
1.196	21.638
1.164	19.907
1.132	18.597
1.1	17.443
1.068	16.201
1.036	15.459
1.004	14.565
0.972	13.359
0.94	12.171
0.908	11.286
0.876	11.078
0.844	11.087
0.812	11.314
0.795	11.064
0.787	10.81
0.779	10.416
0.771	10.136
0.763	9.956
0.755	9.6399
0.747	9.1216
0.739	9.1054
0.731	8.6133
0.723	8.5329
0.715	8.4901
0.707	8.239
0.699	8.2333
0.691	8.1437
0.683	7.9371
0.675	7.8657
0.667	8.0987
0.659	8.0455
0.651	8.0191
0.643	8.2498
0.635	8.1311
0.627	8.3917
0.619	8.3442
0.611	8.6631
0.603	8.6103
0.595	8.8249
0.587	8.849
0.579	9.1652
0.571	9.1759
0.563	9.3182
0.555	9.2326
0.547	9.2633
0.539	9.2605
0.531	9.23
0.523	9.0668
0.515	9.0259
0.507	8.7572
0.499	8.2693
0.491	7.8077
0.483	7.8119
0.475	7.2008
0.467	6.5509
0.459	5.6583
0.451	5.1315
0.443	4.3437
0.435	4.0838
0.427	3.38
0.419	2.5214
0.411	1.7654
0.403	1.1091
