Name: Quartz Monzonite Porphyry
Type: Rock
Class: Igneous
Subclass: Intermediate
Particle Size: Solid
Sample No.: Ward25
Owner: JPL
Wavelength Range: All
Origin: Ward's Collection of American Rocks.  Sample locality - Garfield, Chaffee County, Colorado.
Description: A gray pseudo-porphyritic rock.  Phenocrysts of pink feldsparmay be an inch long.  Smaller phenocrysts of white feldspar, quartz,hornblende and mica are in a granular groundmass.Geologic age - Tertiary.Collected by:  Ward's Natural Science Original ASTER Spectral Library name was jpl.nicolet.rock.igneous.intermediate.solid.ward25.spectrum.txt
Measurement: Hemispherical reflectance
X Units: Wavelength (micrometers)
Y Units: Reflectance (percent)
wavelength	value
15.3871	4.9601
15.118	3.8632
14.8581	3.4185
14.6069	4.3462
14.3642	4.2961
14.1293	3.8215
13.9021	4.4702
13.682	4.8916
13.4687	4.8103
13.2621	5.0723
13.0616	5.4464
12.8672	6.5728
12.6784	5.857
12.4951	6.3908
12.317	3.5972
12.1439	4.0136
11.9757	4.6576
11.812	5.2526
11.6527	5.6836
11.4977	6.1664
11.3468	6.5556
11.1997	7.1134
11.0564	7.5782
10.9168	8.0605
10.7806	8.5246
10.6478	9.3515
10.5182	9.9962
10.3917	10.7775
10.2683	12.1502
10.1477	13.7716
10.0299	15.132
9.9148	16.5081
9.8024	16.9237
9.6925	18.2734
9.585	19.3475
9.4798	19.8056
9.377	21.2714
9.2763	22.7511
9.1778	22.0856
9.0814	21.5074
8.987	21.1862
8.8945	21.3969
8.8039	21.8863
8.7151	21.4512
8.6281	18.0588
8.5428	21.8357
8.4592	22.0899
8.3772	21.4097
8.2967	20.155
8.2179	17.7933
8.1404	13.8243
8.0645	9.0712
7.9899	6.1721
7.9167	3.896
7.8449	2.6342
7.7743	2.1237
7.705	1.7571
7.6369	1.5655
7.57	1.3687
7.5043	1.291
7.4397	1.2826
7.3762	1.3057
7.3138	1.3218
7.2524	1.3921
7.1921	1.5778
7.1327	1.6921
7.0743	1.8112
7.0169	1.7182
6.9604	1.705
6.9047	1.8196
6.85	1.8359
6.7962	2.0272
6.7431	2.0104
6.6909	2.0776
6.6395	2.2207
6.5889	2.1859
6.539	2.324
6.49	2.4486
6.4416	2.4865
6.3939	2.437
6.347	2.4666
6.3007	2.3864
6.2551	2.5235
6.2101	2.4547
6.1658	2.479
6.1222	2.6092
6.0791	2.6307
6.0366	2.6493
5.9948	2.4826
5.9535	2.5622
5.9127	2.644
5.8726	2.696
5.8329	2.8161
5.7938	2.8339
5.7552	2.9473
5.7172	2.9702
5.6796	3.103
5.6425	3.0329
5.6059	3.1034
5.5698	3.0618
5.5341	3.329
5.4989	3.3012
5.4641	3.4371
5.4298	3.5722
5.3959	3.5313
5.3624	3.5271
5.3294	3.5938
5.2967	3.6202
5.2644	3.6946
5.2326	3.8818
5.2011	4.0896
5.17	4.245
5.1392	4.3835
5.1088	4.403
5.0788	4.3721
5.0491	4.4626
5.0198	4.6205
4.9908	4.6748
4.9622	4.9092
4.9338	5.128
4.9058	5.3694
4.8781	5.5811
4.8508	5.9254
4.8237	6.2575
4.7969	6.2493
4.7704	6.3189
4.7443	6.4749
4.7184	6.7812
4.6927	6.7161
4.6674	6.8725
4.6423	7.2021
4.6175	7.3967
4.593	7.7867
4.5687	8.1066
4.5447	8.2875
4.5209	8.4479
4.4974	8.5333
4.4741	8.5691
4.451	8.8637
4.4282	9.3091
4.4057	9.537
4.3833	9.9314
4.3612	10.5052
4.3393	10.9316
4.3176	11.1069
4.2962	11.3345
4.2749	11.6736
4.2539	12.0103
4.233	12.0292
4.2124	12.5062
4.192	12.7127
4.1717	12.9877
4.1517	13.2728
4.1319	13.4811
4.1122	13.7648
4.0927	13.9288
4.0734	14.1866
4.0543	14.2774
4.0354	14.5342
4.0166	14.5193
3.9981	14.5447
3.9796	14.6952
3.9614	14.8873
3.9433	15.0964
3.9254	15.0827
3.9077	15.2036
3.8901	15.1679
3.8726	15.4706
3.8554	15.3445
3.8382	15.3028
3.8213	15.5963
3.8045	15.5213
3.7878	15.3734
3.7713	15.3319
3.7549	15.3506
3.7386	15.321
3.7225	15.1917
3.7066	15.1714
3.6907	14.9871
3.675	15.4349
3.6595	15.0292
3.644	15.1582
3.6287	15.0132
3.6136	14.7616
3.5985	14.5168
3.5836	14.4712
3.5688	14.1575
3.5541	13.9733
3.5396	13.5275
3.5251	13.1533
3.5108	12.8973
3.4966	12.8187
3.4825	12.3727
3.4685	12.5527
3.4547	12.1826
3.4409	11.7651
3.4273	11.6101
3.4137	11.2454
3.4003	11.0475
3.387	10.9521
3.3738	10.3529
3.3606	10.5301
3.3476	10.173
3.3347	10.2733
3.3219	9.7949
3.3092	9.9759
3.2965	9.6955
3.284	9.1499
3.2716	8.8277
3.2593	8.7823
3.247	8.4743
3.2348	8.3892
3.2228	8.2437
3.2108	7.9552
3.1989	7.9559
3.1871	7.6581
3.1754	7.8792
3.1638	7.5543
3.1523	7.0834
3.1408	7.512
3.1294	6.6904
3.1181	6.7727
3.1069	7.065
3.0958	6.8026
3.0848	6.5456
3.0738	6.2949
3.0629	6.4279
3.0521	6.3136
3.0413	6.3556
3.0307	6.7046
3.0201	6.5862
3.0096	6.1783
2.9991	5.8707
2.9887	6.289
2.9784	6.0659
2.9682	5.7677
2.9581	6.1611
2.948	5.6105
2.9379	6.6139
2.928	5.9583
2.9181	6.3769
2.9083	5.4266
2.8985	6.2237
2.8888	5.9596
2.8792	6.4798
2.8697	5.629
2.8602	6.113
2.8507	6.5367
2.8413	6.7405
2.832	6.5341
2.8228	6.5395
2.8136	6.3237
2.8045	6.5105
2.7954	6.2945
2.7864	6.8545
2.7774	7.2496
2.7685	6.7263
2.7597	6.8494
2.7509	7.2375
2.7422	6.8261
2.7335	8.2748
2.7249	8.2082
2.7163	8.9505
2.7078	9.9213
2.6994	11.2521
2.691	13.7425
2.6826	16.4204
2.6743	17.7253
2.666	18.5107
2.6578	19.4365
2.6497	20.1659
2.6416	20.2747
2.6336	20.7357
2.6256	20.2576
2.6176	20.6763
2.6097	21.188
2.6018	21.0408
2.594	21.6893
2.5863	21.2224
2.5785	21.2568
2.5709	21.1058
2.5633	21.9258
2.5557	21.3263
2.5481	22.3231
2.5406	21.534
2.5332	22.1309
2.5258	21.9172
2.5184	22.1799
2.5111	22.2523
2.5038	22.0353
2.4966	22.7271
2.4894	22.3293
2.4823	22.407
2.4752	22.8357
2.4681	22.7782
2.4611	23.3219
2.4541	23.2936
2.4471	23.0824
2.4402	23.621
2.4333	23.2172
2.4265	23.9239
2.4197	24.7361
2.413	23.6909
2.4063	23.887
2.3996	24.3749
2.3929	24.1052
2.3863	24.5821
2.3798	24.7181
2.3732	24.9332
2.3667	23.8084
2.3603	23.6215
2.3538	23.2019
2.3474	23.3715
2.3411	24.0345
2.3347	23.9796
2.3285	24.4069
2.3222	24.1718
2.316	25.0262
2.3098	25.0774
2.3036	25.8204
2.2975	26.327
2.2914	26.7314
2.2854	26.3195
2.2793	26.7849
2.2733	26.2933
2.2674	26.9152
2.2614	26.3216
2.2555	25.8274
2.2497	26.5965
2.2438	27.0589
2.238	26.2055
2.2322	27.1076
2.2265	27.3863
2.2208	26.5981
2.2151	26.1497
2.2094	26.0987
2.2038	25.8013
2.1982	26.863
2.1926	27.483
2.187	27.0152
2.1815	27.6414
2.176	28.1586
2.1706	28.6504
2.1651	27.4901
2.1597	28.5196
2.1543	29.217
2.149	28.5094
2.1436	29.3222
2.1383	29.2796
2.1331	29.228
2.1278	29.4258
2.1226	29.2047
2.1174	28.9409
2.1122	29.3756
2.1071	28.6054
2.1019	28.9292
2.0968	30.4655
2.0918	29.9089
2.0867	28.8264
2.0817	29.0592
2.0767	30.1452
2.0717	28.3592
2.0667	27.8804
2.0618	29.7941
2.0569	30.0228
2.052	29.3204
2.0472	29.2237
2.0423	27.6412
2.0375	28.2889
2.0327	28.9071
2.028	29.6332
2.0232	29.8742
2.0185	29.4686
2.0138	28.4575
2.0091	28.7997
2.0044	28.704
1.9998	28.8854
