Name: Nepheline-Sodalite Syenite
Type: Rock
Class: Igneous
Subclass: Alkalic
Particle Size: Solid
Sample No.: Ward23
Owner: JPL
Wavelength Range: All
Origin: Ward's Collection of American Rocks.  Sample locality - Near Red Hill, Carroll County, New Hampshire.
Description: A gray granular rock composed of feldspar showing twinning,nepheline, sodalite and hornblende.  The sodalite is grayish to bluish-gray and can easily be distinguised in the hand specimen by its orange fluorscence in ultra-violet light. Geologic age - Late Devonian or late Carboniferous.Collected by:  Ward's Natural Science Original ASTER Spectral Library name was jpl.nicolet.rock.igneous.alkalic.solid.ward23.spectrum.txt
Measurement: Hemispherical reflectance
X Units: Wavelength (micrometers)
Y Units: Reflectance (percent)
wavelength	value
15.3871	5.5109
15.118	4.0928
14.8581	3.4616
14.6069	3.9581
14.3642	4.5495
14.1293	4.9456
13.9021	5.9879
13.682	4.968
13.4687	5.2113
13.2621	4.4878
13.0616	4.5215
12.8672	3.7565
12.6784	3.7668
12.4951	3.5114
12.317	4.2096
12.1439	4.9701
11.9757	5.4656
11.812	5.9522
11.6527	6.5119
11.4977	6.9003
11.3468	7.5563
11.1997	7.8467
11.0564	8.4896
10.9168	9.6356
10.7806	10.33
10.6478	11.6222
10.5182	12.8575
10.3917	15.0319
10.2683	18.0944
10.1477	20.6665
10.0299	21.8346
9.9148	24.8445
9.8024	23.5471
9.6925	25.0744
9.585	26.5275
9.4798	23.4633
9.377	18.8884
9.2763	15.9424
9.1778	15.3721
9.0814	12.4672
8.987	10.57
8.8945	11.3231
8.8039	14.3429
8.7151	15.2344
8.6281	14.5895
8.5428	14.6155
8.4592	14.0361
8.3772	12.6322
8.2967	9.7576
8.2179	6.6476
8.1404	3.7268
8.0645	2.0247
7.9899	1.0943
7.9167	0.6858
7.8449	0.7277
7.7743	0.7228
7.705	0.7332
7.6369	0.6777
7.57	0.8425
7.5043	0.9149
7.4397	1.0374
7.3762	1.1451
7.3138	1.0428
7.2524	1.212
7.1921	1.291
7.1327	1.5556
7.0743	1.4386
7.0169	1.571
6.9604	1.6212
6.9047	1.6719
6.85	1.694
6.7962	1.6559
6.7431	1.8219
6.6909	1.8954
6.6395	1.9584
6.5889	2.049
6.539	2.0254
6.49	2.1376
6.4416	2.1521
6.3939	2.0818
6.347	2.1602
6.3007	2.1087
6.2551	2.3201
6.2101	2.1811
6.1658	2.2312
6.1222	2.2793
6.0791	2.177
6.0366	2.3401
5.9948	2.2695
5.9535	2.4036
5.9127	2.4623
5.8726	2.5198
5.8329	2.6481
5.7938	2.3841
5.7552	2.4743
5.7172	2.5012
5.6796	2.5242
5.6425	2.6351
5.6059	2.7296
5.5698	2.7458
5.5341	2.8299
5.4989	2.9128
5.4641	2.9947
5.4298	2.9796
5.3959	3.1074
5.3624	3.1953
5.3294	3.2471
5.2967	3.2343
5.2644	3.3625
5.2326	3.4104
5.2011	3.4957
5.17	3.5548
5.1392	3.7156
5.1088	3.7825
5.0788	3.886
5.0491	4.0049
5.0198	3.9874
4.9908	4.0564
4.9622	4.2128
4.9338	4.2631
4.9058	4.2324
4.8781	4.1708
4.8508	4.4407
4.8237	4.4913
4.7969	4.4319
4.7704	4.5167
4.7443	4.4888
4.7184	4.6559
4.6927	4.853
4.6674	4.8781
4.6423	5.0524
4.6175	5.1894
4.593	5.4246
4.5687	5.6136
4.5447	5.7446
4.5209	5.8887
4.4974	6.1781
4.4741	6.3717
4.451	6.5165
4.4282	6.7859
4.4057	6.9328
4.3833	7.1694
4.3612	7.487
4.3393	7.763
4.3176	7.8981
4.2962	8.071
4.2749	8.0551
4.2539	8.4132
4.233	8.6756
4.2124	9.1639
4.192	9.3358
4.1717	9.4649
4.1517	9.6577
4.1319	9.7445
4.1122	9.6973
4.0927	9.9884
4.0734	9.9715
4.0543	10.0065
4.0354	10.0771
4.0166	10.1467
3.9981	10.1495
3.9796	10.1304
3.9614	10.1007
3.9433	10.2339
3.9254	10.4113
3.9077	10.5643
3.8901	10.3732
3.8726	10.4895
3.8554	10.5173
3.8382	10.6549
3.8213	10.5767
3.8045	10.5777
3.7878	10.6241
3.7713	10.4717
3.7549	10.5486
3.7386	10.7244
3.7225	10.4224
3.7066	10.3437
3.6907	10.2315
3.675	10.1375
3.6595	10.0393
3.644	9.9799
3.6287	9.8567
3.6136	9.7891
3.5985	9.3186
3.5836	9.2696
3.5688	9.1634
3.5541	9.0064
3.5396	8.8195
3.5251	8.6
3.5108	8.4273
3.4966	7.8086
3.4825	7.9736
3.4685	7.9593
3.4547	7.9211
3.4409	7.464
3.4273	7.3214
3.4137	7.0299
3.4003	7.1278
3.387	7.1867
3.3738	6.6733
3.3606	6.7532
3.3476	6.7142
3.3347	6.7662
3.3219	6.6043
3.3092	6.5098
3.2965	6.3944
3.284	6.4697
3.2716	6.2197
3.2593	5.9911
3.247	6.1077
3.2348	5.8692
3.2228	5.8556
3.2108	5.6139
3.1989	5.7261
3.1871	5.1623
3.1754	5.47
3.1638	5.0518
3.1523	5.1696
3.1408	5.0971
3.1294	4.8927
3.1181	4.7965
3.1069	5.1151
3.0958	4.8261
3.0848	4.8743
3.0738	4.6425
3.0629	5.0603
3.0521	4.56
3.0413	4.3988
3.0307	4.5426
3.0201	4.667
3.0096	4.1912
2.9991	4.0569
2.9887	4.5619
2.9784	4.4842
2.9682	4.3702
2.9581	3.9864
2.948	4.4779
2.9379	4.1741
2.928	4.5229
2.9181	5.2477
2.9083	4.7884
2.8985	4.2198
2.8888	4.5129
2.8792	4.608
2.8697	4.277
2.8602	4.4867
2.8507	4.5631
2.8413	4.4567
2.832	4.7357
2.8228	4.4265
2.8136	4.5541
2.8045	5.104
2.7954	4.087
2.7864	5.2322
2.7774	4.9923
2.7685	5.2863
2.7597	5.5261
2.7509	5.5762
2.7422	6.6956
2.7335	7.1345
2.7249	8.2324
2.7163	8.9122
2.7078	10.0399
2.6994	11.1512
2.691	12.4014
2.6826	13.4809
2.6743	14.5966
2.666	15.0407
2.6578	15.0428
2.6497	15.3914
2.6416	15.3211
2.6336	15.6652
2.6256	15.7523
2.6176	16.2799
2.6097	16.097
2.6018	16.5982
2.594	16.3773
2.5863	16.2338
2.5785	16.1411
2.5709	16.1959
2.5633	16.5927
2.5557	15.7232
2.5481	15.7929
2.5406	15.3987
2.5332	15.4039
2.5258	15.8445
2.5184	16.0903
2.5111	15.8877
2.5038	15.619
2.4966	16.0034
2.4894	16.1445
2.4823	16.2168
2.4752	16.4081
2.4681	16.6215
2.4611	16.7011
2.4541	16.6671
2.4471	17.1338
2.4402	17.5204
2.4333	17.2095
2.4265	17.0704
2.4197	17.9108
2.413	17.7123
2.4063	17.6242
2.3996	18.1358
2.3929	18.0269
2.3863	18.0327
2.3798	17.4161
2.3732	17.9521
2.3667	18.264
2.3603	18.1397
2.3538	18.6912
2.3474	18.1332
2.3411	17.9275
2.3347	18.7295
2.3285	18.2813
2.3222	18.3136
2.316	19.6429
2.3098	18.9779
2.3036	18.7277
2.2975	19.2755
2.2914	18.8465
2.2854	18.8035
2.2793	19.4763
2.2733	19.4901
2.2674	19.3122
2.2614	19.4461
2.2555	19.3898
2.2497	18.3306
2.2438	19.3995
2.238	18.6437
2.2322	18.9724
2.2265	19.0163
2.2208	18.1504
2.2151	19.1631
2.2094	18.88
2.2038	17.8493
2.1982	18.9135
2.1926	18.7992
2.187	18.2218
2.1815	18.3693
2.176	18.8099
2.1706	18.3179
2.1651	19.2676
2.1597	19.6892
2.1543	19.3271
2.149	19.326
2.1436	18.5233
2.1383	19.722
2.1331	18.9103
2.1278	19.4619
2.1226	18.2643
2.1174	18.5295
2.1122	19.6532
2.1071	20.197
2.1019	19.5341
2.0968	19.3491
2.0918	19.0259
2.0867	19.8485
2.0817	19.5273
2.0767	19.7355
2.0717	19.4502
2.0667	17.5139
2.0618	18.5592
2.0569	18.9854
2.052	20.0143
2.0472	19.2771
2.0423	18.142
2.0375	19.5424
2.0327	19.1455
2.028	18.8601
2.0232	20.76
2.0185	17.9261
2.0138	18.6793
2.0091	18.1285
2.0044	20.4042
1.9998	18.5487
