Name: Olivine Gabbro
Type: Rock
Class: Igneous
Subclass: Mafic
Particle Size: Solid
Sample No.: Ward39
Owner: JPL
Wavelength Range: All
Origin: Ward's Collection of American Rocks.  Sample locality - Wichita Mountains, Oklahoma.
Description: The hand specimen is a medium grained dark gray rockconsisting of about 65% of well twinned plagioclase and 35% brownisholivine.  Minor pyroxene and small grains of magnetite are noted.Collected by:  Ward's Natural Science Original ASTER Spectral Library name was jpl.nicolet.rock.igneous.mafic.solid.ward39.spectrum.txt
Measurement: Hemispherical reflectance
X Units: Wavelength (micrometers)
Y Units: Reflectance (percent)
wavelength	value
15.3871	5.2523
15.118	4.3041
14.8581	4.5059
14.6069	3.9124
14.3642	4.1239
14.1293	4.22
13.9021	4.471
13.682	4.7737
13.4687	4.822
13.2621	4.5595
13.0616	4.3489
12.8672	4.5568
12.6784	4.3854
12.4951	5.0877
12.317	6.0987
12.1439	6.5252
11.9757	7.3187
11.812	7.5984
11.6527	8.7133
11.4977	9.8319
11.3468	11.4553
11.1997	12.5604
11.0564	13.8438
10.9168	14.8259
10.7806	15.7897
10.6478	15.9276
10.5182	15.2639
10.3917	14.7931
10.2683	14.3945
10.1477	14.26
10.0299	14.9867
9.9148	14.7847
9.8024	14.8415
9.6925	14.3335
9.585	13.1819
9.4798	11.6519
9.377	9.8971
9.2763	8.5658
9.1778	8.3375
9.0814	9.1029
8.987	9.6666
8.8945	9.2545
8.8039	8.8641
8.7151	8.1824
8.6281	7.3393
8.5428	6.5677
8.4592	5.9773
8.3772	5.08
8.2967	3.5045
8.2179	2.0835
8.1404	1.429
8.0645	1.4084
7.9899	1.3003
7.9167	1.22
7.8449	1.3982
7.7743	1.34
7.705	1.5967
7.6369	1.5317
7.57	1.7106
7.5043	1.7535
7.4397	1.9411
7.3762	1.9055
7.3138	2.1698
7.2524	2.1706
7.1921	2.3248
7.1327	2.3643
7.0743	2.4914
7.0169	2.4674
6.9604	2.5718
6.9047	2.6372
6.85	2.6919
6.7962	2.6445
6.7431	2.8234
6.6909	2.9521
6.6395	2.9866
6.5889	3.0218
6.539	3.022
6.49	3.2921
6.4416	3.1776
6.3939	3.1605
6.347	3.1749
6.3007	3.2134
6.2551	3.2625
6.2101	3.3029
6.1658	3.2204
6.1222	3.2006
6.0791	3.4035
6.0366	3.2902
5.9948	3.1822
5.9535	3.3723
5.9127	3.2496
5.8726	3.2662
5.8329	3.4475
5.7938	3.4963
5.7552	3.6809
5.7172	3.6587
5.6796	3.7151
5.6425	3.8582
5.6059	3.7748
5.5698	3.8297
5.5341	3.9547
5.4989	3.9143
5.4641	4.0796
5.4298	4.1277
5.3959	4.1475
5.3624	4.1648
5.3294	4.2966
5.2967	4.3402
5.2644	4.4394
5.2326	4.4351
5.2011	4.4782
5.17	4.5794
5.1392	4.6641
5.1088	4.6757
5.0788	4.8641
5.0491	4.843
5.0198	4.8478
4.9908	4.969
4.9622	5.1651
4.9338	5.1826
4.9058	5.1794
4.8781	5.1157
4.8508	5.2751
4.8237	5.3729
4.7969	5.3894
4.7704	5.5175
4.7443	5.5432
4.7184	5.666
4.6927	5.5086
4.6674	5.7569
4.6423	5.7502
4.6175	5.9024
4.593	6.0279
4.5687	6.1934
4.5447	6.136
4.5209	6.272
4.4974	6.4401
4.4741	6.3275
4.451	6.5381
4.4282	6.6247
4.4057	6.5526
4.3833	6.7445
4.3612	6.4903
4.3393	6.6749
4.3176	6.9773
4.2962	6.9722
4.2749	7.0279
4.2539	7.2644
4.233	7.2808
4.2124	7.4278
4.192	7.4422
4.1717	7.3768
4.1517	7.6525
4.1319	7.5874
4.1122	7.6228
4.0927	7.6856
4.0734	7.8249
4.0543	7.9199
4.0354	7.904
4.0166	7.8317
3.9981	7.631
3.9796	7.9486
3.9614	8.0368
3.9433	8.0075
3.9254	8.0139
3.9077	8.0095
3.8901	7.9385
3.8726	7.9447
3.8554	7.9612
3.8382	8.0345
3.8213	7.7316
3.8045	7.9534
3.7878	7.83
3.7713	8.0113
3.7549	7.916
3.7386	8.0094
3.7225	7.8312
3.7066	7.9517
3.6907	7.8497
3.675	7.8948
3.6595	7.9433
3.644	7.8228
3.6287	7.8425
3.6136	7.815
3.5985	7.8578
3.5836	7.6188
3.5688	7.7847
3.5541	7.8396
3.5396	7.6267
3.5251	7.6171
3.5108	7.5832
3.4966	7.5053
3.4825	7.4208
3.4685	7.3978
3.4547	7.2964
3.4409	7.4656
3.4273	6.7767
3.4137	7.246
3.4003	6.9207
3.387	7.243
3.3738	7.1342
3.3606	6.9417
3.3476	6.8836
3.3347	6.8417
3.3219	6.9493
3.3092	6.8753
3.2965	6.9307
3.284	6.7515
3.2716	6.6071
3.2593	6.7898
3.247	6.4692
3.2348	6.332
3.2228	6.2123
3.2108	6.2911
3.1989	6.2614
3.1871	6.311
3.1754	6.0631
3.1638	6.002
3.1523	6.0969
3.1408	6.3032
3.1294	5.8619
3.1181	5.9541
3.1069	5.4369
3.0958	5.9872
3.0848	5.5618
3.0738	5.6563
3.0629	5.5915
3.0521	5.8844
3.0413	5.4133
3.0307	5.7929
3.0201	5.6969
3.0096	5.6267
2.9991	5.436
2.9887	5.5274
2.9784	5.652
2.9682	5.5201
2.9581	5.5192
2.948	5.2859
2.9379	5.4023
2.928	5.7964
2.9181	4.7755
2.9083	5.1944
2.8985	5.5811
2.8888	5.5536
2.8792	5.4621
2.8697	5.398
2.8602	5.2108
2.8507	5.44
2.8413	5.385
2.832	5.2953
2.8228	5.4286
2.8136	4.946
2.8045	5.8622
2.7954	6.0313
2.7864	4.9888
2.7774	5.7737
2.7685	5.4834
2.7597	5.823
2.7509	5.6898
2.7422	5.6983
2.7335	6.1653
2.7249	6.4111
2.7163	6.5732
2.7078	7.5676
2.6994	8.3293
2.691	9.1525
2.6826	9.719
2.6743	9.7102
2.666	9.6332
2.6578	10.1657
2.6497	10.4105
2.6416	10.1567
2.6336	10.929
2.6256	10.1412
2.6176	10.2141
2.6097	10.4396
2.6018	10.4866
2.594	10.498
2.5863	10.5704
2.5785	9.972
2.5709	10.3664
2.5633	9.9898
2.5557	9.8639
2.5481	10.3859
2.5406	10.0011
2.5332	9.907
2.5258	10.4532
2.5184	10.2451
2.5111	10.4506
2.5038	10.0675
2.4966	10.6494
2.4894	9.8274
2.4823	10.0178
2.4752	11.215
2.4681	10.3818
2.4611	10.7927
2.4541	10.0005
2.4471	10.491
2.4402	10.8703
2.4333	10.2746
2.4265	11.2131
2.4197	10.7647
2.413	10.8599
2.4063	11.5465
2.3996	11.291
2.3929	11.495
2.3863	11.1642
2.3798	11.2662
2.3732	11.7777
2.3667	10.9519
2.3603	11.5598
2.3538	11.759
2.3474	11.0512
2.3411	10.9019
2.3347	11.9167
2.3285	11.2974
2.3222	10.8452
2.316	11.7199
2.3098	10.9353
2.3036	11.5866
2.2975	11.3218
2.2914	11.4746
2.2854	11.962
2.2793	11.963
2.2733	11.2789
2.2674	11.5607
2.2614	11.8169
2.2555	11.3353
2.2497	11.7414
2.2438	12.2449
2.238	11.5409
2.2322	11.5958
2.2265	11.8686
2.2208	11.6705
2.2151	11.0744
2.2094	11.988
2.2038	12.131
2.1982	11.7087
2.1926	11.4312
2.187	12.4642
2.1815	12.0121
2.176	11.2001
2.1706	12.0316
2.1651	11.2786
2.1597	11.711
2.1543	12.199
2.149	11.3342
2.1436	12.159
2.1383	11.6508
2.1331	12.2616
2.1278	12.3796
2.1226	10.8609
2.1174	11.8989
2.1122	11.6923
2.1071	11.9513
2.1019	12.7965
2.0968	12.577
2.0918	12.1209
2.0867	10.9565
2.0817	11.4998
2.0767	11.085
2.0717	10.8585
2.0667	10.3875
2.0618	11.9345
2.0569	12.9566
2.052	12.4525
2.0472	12.7227
2.0423	12.0989
2.0375	11.7283
2.0327	11.4682
2.028	10.2461
2.0232	10.9299
2.0185	11.9039
2.0138	11.4534
2.0091	12.5102
2.0044	12.7471
1.9998	10.2612
