Name: Hornblende Schist
Type: rock
Class: Metamorphic
Subclass: Schist
Particle Size: Coarse
Sample No.: schist2
Owner: JHU
Wavelength Range: All
Origin: Sample No. 241, The Hunt and Salisbury Collection at the U.S.Geological Survey, Denver, Co.
Description: Coarse grains of euhedral to subhedral hornblende with lesser amounts of anhedral alkali feldspar characterize this sample.  Modes were 78.4% hornblende and 21.6% feldspar.    Particle size was 500-1500 Micrometer. Original ASTER Spectral Library name was jhu.becknic.rock.metamorphic.schist.coarse.schist2.spectrum.txt
Measurement: Directional (10 Degree) Hemispherical Reflectance
X Units: Wavelength (micrometers)
Y Units: Reflectance (percent)
wavelength	value
14.9831	1.4031
14.6445	2.5785
14.3209	2.0991
14.0112	2.1858
13.7147	2.4915
13.4304	3.152
13.1577	3.8575
12.8959	2.2263
12.6443	2.7366
12.4023	3.2415
12.1694	3.7836
11.945	4.4391
11.7289	5.424
11.5203	6.4741
11.3191	7.5153
11.1248	8.7769
10.937	10.4654
10.7555	9.4653
10.5799	12.3822
10.4099	15.4908
10.2454	16.9283
10.0859	18.074
9.9313	16.0649
9.7814	11.1244
9.636	10.9032
9.4948	11.4216
9.3577	12.5467
9.2245	11.308
9.095	8.7366
8.9691	8.0193
8.8467	7.9975
8.7275	8.0491
8.6116	4.1144
8.4986	1.4609
8.3886	0.8251
8.2814	0.5532
8.1769	0.4971
8.075	0.5108
7.9756	0.5738
7.8786	0.6167
7.784	0.7024
7.6916	0.75
7.6014	0.8352
7.5133	0.8828
7.4272	0.9622
7.343	1.0375
7.2607	1.0929
7.1803	1.1822
7.1016	1.3008
7.0246	1.3733
6.9493	1.4159
6.8755	1.4334
6.8034	1.5095
6.7327	1.6096
6.6634	1.6556
6.5956	1.7001
6.5292	1.7034
6.464	1.7138
6.4002	1.7051
6.3376	1.6748
6.2762	1.6392
6.216	1.6236
6.157	1.6722
6.099	1.7027
6.0421	1.7891
5.9863	1.8367
5.9315	1.9388
5.8777	2.0572
5.8249	2.1804
5.773	2.3059
5.722	2.3949
5.6719	2.4577
5.6227	2.5507
5.5744	2.6085
5.5268	2.6642
5.4801	2.5979
5.4341	2.5879
5.3889	2.6
5.3445	2.618
5.3008	2.6549
5.2578	2.7369
5.2154	2.9161
5.1738	2.8508
5.1328	2.7546
5.0925	2.7409
5.0528	2.829
5.0137	3.0391
4.9752	3.2278
4.9373	3.4236
4.9	3.6531
4.8632	3.8672
4.827	4.1249
4.7913	4.5282
4.7561	5.1477
4.7215	5.914
4.6873	6.8831
4.6536	7.8133
4.6205	9.1787
4.5877	10.6427
4.5555	12.282
4.5237	13.7564
4.4923	14.7759
4.4614	15.5983
4.4309	16.3746
4.4008	17.1097
4.3711	17.8062
4.3418	18.4674
4.3129	19.2046
4.2844	20.0498
4.2563	20.773
4.2285	21.4719
4.2011	21.8846
4.174	22.3836
4.1473	22.8771
4.1209	23.3905
4.0949	23.9163
4.0692	24.4055
4.0438	24.8197
4.0187	25.1468
3.994	25.3433
3.9695	25.6041
3.9453	26.0827
3.9214	26.4384
3.8979	26.7007
3.8746	26.8893
3.8515	26.9816
3.8288	27.0863
3.8063	27.1637
3.7841	27.2066
3.7621	27.1831
3.7404	27.0913
3.7189	26.9385
3.6977	26.7102
3.6767	26.7159
3.656	26.4905
3.6355	26.3273
3.6152	26.0836
3.5951	25.7457
3.5753	25.3994
3.5557	24.9926
3.5363	24.4976
3.5171	23.8398
3.4981	23.0431
3.4793	22.6074
3.4607	21.9824
3.4423	21.0245
3.4241	19.8054
3.4061	18.8018
3.3883	17.8268
3.3707	16.9726
3.3533	16.0777
3.336	15.7752
3.3189	15.7698
3.302	15.7743
3.2853	16.1099
3.2687	15.9848
3.2523	15.3805
3.2361	14.6392
3.22	13.8812
3.204	13.104
3.1883	12.3248
3.1727	11.7719
3.1572	11.5573
3.1419	11.3522
3.1268	11.0048
3.1117	10.6768
3.0969	10.4339
3.0821	10.1049
3.0675	9.8719
3.0531	9.6403
3.0388	9.4847
3.0246	9.4866
3.0105	9.2481
2.9966	8.9677
2.9828	8.6703
2.9692	8.4797
2.9556	8.2644
2.9422	8.0754
2.9289	8.0148
2.9157	8.0456
2.9027	8.079
2.8897	8.0915
2.8769	8.0205
2.8642	8.0025
2.8516	8.168
2.8391	8.329
2.8267	8.3762
2.8144	8.5256
2.8022	8.6322
2.7902	7.6657
2.7782	5.4593
2.7664	4.46
2.7546	4.1244
2.7429	4.1038
2.7314	4.2651
2.7199	5.3485
2.7085	7.607
2.6973	9.3092
2.6861	14.096
2.675	23.5731
2.664	26.6944
2.6531	26.5764
2.6423	26.4646
2.6315	26.4838
2.6209	26.377
2.6103	26.2541
2.5999	26.0817
2.5895	25.7582
2.5792	25.2952
2.569	24.7212
2.5588	24.7461
2.5487	24.9992
2.5388	24.7809
2.5289	24.3591
2.519	23.6491
2.5093	23.2004
2.4996	22.8253
2.49	22.7097
2.4805	22.4101
2.471	22.3907
2.4616	22.1589
2.4523	22.5233
2.4431	22.5079
2.4339	22.7734
2.4248	21.9524
2.4157	20.9376
2.4068	19.597
2.3979	17.5149
2.389	16.4523
2.3802	18.1195
2.3715	20.8817
2.3629	22.1188
2.3543	21.9254
2.3458	20.796
2.3373	18.6398
2.3289	15.9299
2.3206	14.3818
2.3123	14.7932
2.3041	15.524
2.2959	16.4021
2.2878	19.6631
2.2798	22.2297
2.2718	24.9332
2.2638	26.2979
2.2559	25.8818
2.2481	26.0306
2.2403	28.7563
2.2326	30.4877
2.225	31.052
2.2173	31.2253
2.2098	31.331
2.2023	31.4319
2.1948	31.6258
2.1874	31.9441
2.18	32.1923
2.1727	32.5506
2.1655	32.7076
2.1583	32.7528
2.1511	32.7744
2.144	32.8535
2.1369	32.7204
2.1299	32.6065
2.1229	32.7893
2.116	33.0592
2.1091	33.9925
2.1023	35.129
2.0955	35.4729
2.0887	35.8572
2.082	36.3593
2.06	38.0211
2.028	39.2034
1.996	39.651
1.964	40.131
1.932	40.2828
1.9	41.14
1.868	43.0428
1.836	43.5109
1.804	42.9093
1.772	42.1325
1.74	40.9867
1.708	39.4254
1.676	37.934
1.644	36.4384
1.612	34.4728
1.58	32.4763
1.548	30.5542
1.516	28.6754
1.484	26.4186
1.452	24.2158
1.42	21.7699
1.388	15.6412
1.356	17.509
1.324	15.499
1.292	13.7655
1.26	12.1044
1.228	10.7624
1.196	9.7469
1.164	8.8716
1.132	8.0214
1.1	7.3828
1.068	6.868
1.036	6.6119
1.004	6.5588
0.972	6.537
0.94	6.7485
0.908	6.7938
0.876	7.1911
0.844	7.3989
0.812	7.5705
0.795	7.6655
0.787	7.6381
0.779	7.5881
0.771	7.6038
0.763	7.6446
0.755	7.6312
0.747	7.5819
0.739	7.6697
0.731	7.7781
0.723	7.7353
0.715	7.725
0.707	7.7173
0.699	7.8284
0.691	7.7079
0.683	7.7533
0.675	7.762
0.667	7.7926
0.659	7.8631
0.651	7.7734
0.643	7.7869
0.635	7.8825
0.627	7.8597
0.619	8.0706
0.611	8.2141
0.603	8.2552
0.595	8.2727
0.587	8.229
0.579	8.3015
0.571	8.3345
0.563	8.4114
0.555	8.3771
0.547	8.3648
0.539	8.3131
0.531	8.347
0.523	8.1576
0.515	8.1816
0.507	8.0368
0.499	7.9259
0.491	7.8399
0.483	7.7863
0.475	7.7105
0.467	7.5894
0.459	7.2572
0.451	7.4144
0.443	7.1544
0.435	7.2103
0.427	7.0132
0.419	6.8635
0.411	6.6926
0.403	6.5861
