Name: Monzonite
Type: Rock
Class: Igneous
Subclass: Intermediate
Particle Size: Solid
Sample No.: Ward24
Owner: JPL
Wavelength Range: VSWIR
Origin: Ward's Collection of American Rocks.  Sample locality - Near Silverton, San Juan County, Colorado.
Description: A purplish gray rock consisting chiefly of plagioclase,orthoclase, and greenish hornblende with small amounts of quartz.Geologic age - Tertiary (Miocene).Collected by:  Ward's Natural Science Original ASTER Spectral Library name was jpl.perkin.rock.igneous.intermediate.solid.ward24.spectrum.txt
Measurement: Hemispherical reflectance
X Units: Wavelength (micrometers)
Y Units: Reflectance (percent)
wavelength	value
2.5	18.29
2.494	18.1795
2.488	18.3373
2.482	18.5488
2.476	18.6469
2.47	18.6508
2.464	18.8294
2.458	18.9026
2.452	18.9582
2.446	19.0467
2.44	19.1881
2.434	19.2289
2.428	19.4051
2.422	19.4755
2.416	19.6868
2.41	19.6678
2.404	19.7961
2.398	19.6695
2.392	19.8949
2.386	19.9121
2.38	19.8974
2.374	19.9649
2.368	19.9588
2.362	19.8354
2.356	19.8113
2.35	19.7208
2.344	19.6627
2.338	19.7398
2.332	19.7851
2.326	19.9643
2.32	20.0935
2.314	20.2837
2.308	20.4855
2.302	20.6395
2.296	20.7971
2.29	20.9274
2.284	21.1674
2.278	21.2218
2.272	21.3503
2.266	21.3134
2.26	21.3494
2.254	21.2661
2.248	21.2467
2.242	21.3489
2.236	21.5223
2.23	21.6981
2.224	21.6344
2.218	21.6429
2.212	21.7591
2.206	21.759
2.2	21.8638
2.194	22.22
2.188	22.2295
2.182	22.5516
2.176	22.6317
2.17	22.818
2.164	22.9658
2.158	23.1288
2.152	23.1467
2.146	23.2121
2.14	23.2443
2.134	23.203
2.128	23.091
2.122	23.1088
2.116	22.965
2.11	22.8897
2.104	22.8157
2.098	22.7302
2.092	22.7562
2.086	22.7948
2.08	22.8176
2.074	22.7953
2.068	22.8185
2.062	22.7355
2.056	22.7407
2.05	22.6958
2.044	22.7021
2.038	22.6363
2.032	22.6207
2.026	22.4795
2.02	22.4549
2.014	22.3663
2.008	22.3679
2.002	22.2063
1.996	22.1674
1.99	22.1231
1.984	22.0489
1.978	22.0309
1.972	21.9784
1.966	21.9445
1.96	21.8536
1.954	21.8856
1.948	21.8138
1.942	21.8026
1.936	21.8129
1.93	21.7456
1.924	21.6836
1.918	21.6534
1.912	21.7146
1.906	21.8872
1.9	22.2171
1.894	22.7448
1.888	23.1661
1.882	23.3935
1.876	23.642
1.87	23.7253
1.864	23.8122
1.858	23.7883
1.852	23.8678
1.846	23.8987
1.84	23.8843
1.834	23.8993
1.828	23.8532
1.822	23.9482
1.816	23.9004
1.81	23.8613
1.804	23.9391
1.798	23.9319
1.792	23.8745
1.786	23.8839
1.78	23.9617
1.774	23.9857
1.768	24.0244
1.762	23.9526
1.756	24.0042
1.75	24.0784
1.744	24.0725
1.738	24.1204
1.732	24.1554
1.726	24.1501
1.72	24.1037
1.714	24.1349
1.708	24.1308
1.702	24.1361
1.696	24.0956
1.69	24.057
1.684	24.0322
1.678	24.0769
1.672	24.0567
1.666	24.0951
1.66	23.9054
1.654	24.0148
1.648	23.9727
1.642	24.0369
1.636	24.0424
1.63	23.9959
1.624	23.9786
1.618	23.9416
1.612	23.9173
1.606	24.0053
1.6	23.9577
1.594	23.9049
1.588	23.8903
1.582	23.9438
1.576	23.8796
1.57	23.825
1.564	23.8364
1.558	23.8217
1.552	23.7422
1.546	23.8104
1.54	23.7779
1.534	23.818
1.528	23.7793
1.522	23.7724
1.516	23.7152
1.51	23.7218
1.504	23.6618
1.498	23.625
1.492	23.5934
1.486	23.6302
1.48	23.5596
1.474	23.5119
1.468	23.5175
1.462	23.3681
1.456	23.441
1.45	23.3504
1.444	23.3543
1.438	23.3027
1.432	23.2346
1.426	23.1533
1.42	23.0103
1.414	22.9178
1.408	22.9458
1.402	23.021
1.396	23.1562
1.39	23.4199
1.384	23.6015
1.378	23.6926
1.372	23.6929
1.366	23.7477
1.36	23.6044
1.354	23.6792
1.348	23.6218
1.342	23.5822
1.336	23.4822
1.33	23.4644
1.324	23.5562
1.318	23.4908
1.312	23.4759
1.306	23.3901
1.3	23.3974
1.294	23.4112
1.288	23.3768
1.282	23.3973
1.276	23.3614
1.27	23.362
1.264	23.2177
1.258	23.2628
1.252	23.2102
1.246	23.2545
1.24	23.15
1.234	23.1299
1.228	23.158
1.222	23.1115
1.216	23.0893
1.21	23.0963
1.204	23.1543
1.198	23.1064
1.192	22.9921
1.186	23.0511
1.18	23.0474
1.174	23.048
1.168	23.077
1.162	22.9822
1.156	23.0173
1.15	22.9894
1.144	23.0179
1.138	23.072
1.132	23.094
1.126	22.9915
1.12	23.0482
1.114	23.1998
1.108	23.2476
1.102	23.1896
1.096	23.2267
1.09	23.2706
1.084	23.3016
1.078	23.3004
1.072	23.4672
1.066	23.4559
1.06	23.5642
1.054	23.5674
1.048	23.5494
1.042	23.6377
1.036	23.7088
1.03	23.7883
1.024	23.8359
1.018	23.8026
1.012	23.9572
1.006	23.955
1	24.004
0.994	24.0644
0.988	24.0935
0.982	24.1356
0.976	24.1536
0.97	24.2168
0.964	24.1956
0.958	24.1839
0.952	24.2233
0.946	24.2074
0.94	24.1902
0.934	24.2112
0.928	24.2347
0.922	24.2178
0.916	24.2286
0.91	24.2334
0.904	24.3288
0.898	24.2968
0.892	24.3659
0.886	24.4399
0.88	24.5553
0.874	24.639
0.868	24.7256
0.862	24.8082
0.856	25.2492
0.85	25.3373
0.844	25.4147
0.838	25.5068
0.832	25.5822
0.826	25.644
0.82	25.7266
0.814	25.7521
0.808	25.7824
0.802	25.8008
0.796	25.7636
0.79	25.7544
0.784	25.6959
0.778	25.6119
0.772	25.5451
0.766	25.4755
0.76	25.3923
0.754	25.2922
0.748	25.219
0.742	25.1287
0.736	25.0574
0.73	24.991
0.724	24.9404
0.718	24.8974
0.712	24.8725
0.706	24.849
0.7	24.8302
0.694	24.8245
0.688	24.839
0.682	24.8401
0.676	24.8534
0.67	24.8798
0.664	24.9054
0.658	24.9274
0.652	24.9544
0.646	24.9813
0.64	25.0077
0.634	25.0301
0.628	25.0597
0.622	25.0696
0.616	25.0844
0.61	25.0861
0.604	25.0754
0.598	25.0555
0.592	25.0239
0.586	24.9467
0.58	24.8448
0.574	24.7152
0.568	24.5566
0.562	24.3673
0.556	24.156
0.55	23.9389
0.544	23.723
0.538	23.4921
0.532	23.2553
0.526	23.0155
0.52	22.7607
0.514	22.4679
0.508	22.1182
0.502	21.7361
0.496	21.3406
0.49	20.9902
0.484	20.6445
0.478	20.354
0.472	20.0984
0.466	19.8712
0.46	19.6539
0.454	19.3761
0.448	19.073
0.442	18.6816
0.436	18.2818
0.43	17.7916
0.424	17.3203
0.418	16.9141
0.412	16.5734
0.406	16.2683
0.4	15.9875
