Name: Rhyolite
Type: Rock
Class: Igneous
Subclass: Felsic
Particle Size: Solid
Sample No.: AP-936-185
Owner: United States Geological Survey, L. C. Rowan
Wavelength Range: All
Origin: Iberian Pyrite Belt, Spain
Description: Rhyolite, phyllically alteredSample was Whole Rock Chips. Original ASTER Spectral Library name was usgs.perknic.rock.igneous.felsic.solid.rhy185.spectrum.txt
Measurement: Directional Hemispherical Reflectance
X Units: Wavelength (micrometers)
Y Units: Reflectance (percent)
wavelength	value
14.051	4.5938
13.79	5.2324
13.538	5.6238
13.295	6.18
13.06	6.6641
12.834	7.7147
12.616	6.2109
12.404	4.7277
12.2	3.7492
12.002	4.4187
11.811	5.2839
11.626	6.0255
11.446	6.9525
11.272	7.5396
11.103	8.6314
10.939	9.27
10.78	9.2288
10.625	9.579
10.475	10.7326
10.329	12.5248
10.187	14.6569
10.049	16.3358
9.914	18.2722
9.783	19.4979
9.656	22.2171
9.532	24.2359
9.411	26.6461
9.293	33.1145
9.178	33.0321
9.065	31.2708
8.956	29.355
8.849	30.385
8.744	28.8915
8.642	22.3201
8.543	25.3895
8.445	24.3904
8.35	21.5167
8.257	19.7451
8.166	18.7872
8.077	14.0801
7.99	9.4966
7.905	6.4993
7.821	4.9749
7.739	4.6659
7.659	4.3878
7.581	4.0479
7.504	3.8728
7.429	3.5123
7.355	3.3681
7.283	3.3681
7.212	3.4196
7.143	3.193
7.074	3.1209
7.007	2.9767
6.942	2.9767
6.877	2.9973
6.814	2.9046
6.752	2.781
6.691	2.781
6.631	2.884
6.572	2.7501
6.514	2.9149
6.458	3.1415
6.402	3.2239
6.347	3.0282
6.293	2.8222
6.24	2.6986
6.188	2.7089
6.137	2.7501
6.086	3.0076
6.037	3.0591
5.988	2.9767
5.94	2.9046
5.893	3.0694
5.846	3.3166
5.8	3.5226
5.755	3.7183
5.711	3.7698
5.667	3.7389
5.624	3.4711
5.582	3.3887
5.54	3.4917
5.499	3.5947
5.459	3.7698
5.419	3.6874
5.379	3.3887
5.341	3.2754
5.302	3.3475
5.265	3.6153
5.227	3.9861
5.191	4.2436
5.155	4.3054
5.119	4.2642
5.084	4.2436
5.049	4.2436
5.015	4.2848
4.981	4.4393
4.948	4.7689
4.915	5.0676
4.883	5.8401
4.851	6.4581
4.819	6.9628
4.788	7.2512
4.758	7.5293
4.727	7.828
4.697	7.9207
4.668	7.931
4.638	8.5181
4.61	9.1464
4.581	9.4451
4.553	9.5275
4.525	9.3215
4.498	8.755
4.47	8.549
4.444	8.9301
4.417	9.3215
4.391	9.8365
4.365	10.5575
4.34	11.124
4.314	11.2888
4.289	11.33
4.265	11.5566
4.24	11.8141
4.216	11.845
4.192	12.1025
4.169	12.2261
4.145	12.5145
4.122	12.8647
4.099	13.0501
4.077	13.2561
4.055	13.5651
4.032	13.6784
4.011	13.5754
3.989	13.6887
3.968	13.9153
3.947	14.0801
3.926	14.1316
3.905	14.1728
3.884	14.1419
3.864	13.9977
3.844	13.8844
3.824	13.905
3.805	13.8329
3.785	13.699
3.766	13.4415
3.747	13.1943
3.728	12.875
3.709	12.9265
3.691	12.8132
3.673	12.7102
3.655	12.5145
3.637	12.4012
3.619	11.9892
3.601	11.6287
3.584	11.3506
3.567	11.1549
3.549	10.7223
3.533	10.5472
3.516	10.4339
3.499	10.0837
3.483	9.9807
3.466	9.7232
3.45	9.4966
3.434	9.27
3.418	8.858
3.403	8.6726
3.387	8.5387
3.372	8.4563
3.357	8.1885
3.341	8.0752
3.326	7.9619
3.312	7.5808
3.297	7.3954
3.282	7.3954
3.268	7.1482
3.253	7.2615
3.239	7.0246
3.225	7.0555
3.211	6.7465
3.197	6.7568
3.183	6.5817
3.17	6.3757
3.156	6.1388
3.143	6.0255
3.13	5.7989
3.117	5.7062
3.103	5.6753
3.091	5.5002
3.078	5.3972
3.065	5.3972
3.052	5.2427
3.04	5.1397
3.027	4.9749
3.015	4.9028
3.003	4.6762
2.991	4.8101
2.979	4.6968
2.967	4.5629
2.955	4.532
2.943	4.4702
2.932	4.3466
2.92	4.7586
2.909	4.3054
2.897	4.5629
2.886	4.6762
2.875	4.8307
2.864	4.635
2.853	4.5732
2.842	4.5423
2.831	4.7586
2.82	4.6247
2.809	4.5011
2.799	4.5114
2.788	4.7174
2.778	4.5835
2.767	4.0067
2.757	3.7904
2.747	3.605
2.737	3.5947
2.727	3.914
2.717	5.0367
2.707	6.0358
2.697	7.107
2.687	10.3412
2.677	12.5969
2.668	13.6784
2.658	15.2234
2.649	15.6869
2.639	16.2534
2.63	16.1298
2.62	16.9435
2.611	16.995
2.602	17.2628
2.593	17.4791
2.584	17.7675
2.575	17.7057
2.566	17.9838
2.557	18.4782
2.548	18.7975
2.54	18.8593
2.531	19.3846
2.522	19.2198
2.514	19.4567
2.505	19.1477
2.489	19.0155
2.461	18.9155
2.433	19.9155
2.405	21.8155
2.377	22.7155
2.349	22.0155
2.321	22.7155
2.293	25.3155
2.265	29.0155
2.237	29.7155
2.209	27.8155
2.181	28.7155
2.153	38.0155
2.125	41.5155
2.097	44.8155
2.069	45.8155
2.041	44.8155
2.013	41.7155
1.985	39.7155
1.957	37.6155
1.929	36.0155
1.901	38.0155
1.873	49.9155
1.845	56.1155
1.817	57.1155
1.789	57.9155
1.761	58.7155
1.733	58.7155
1.705	58.3155
1.677	58.0155
1.649	56.9155
1.621	55.8155
1.593	54.3155
1.565	52.2155
1.537	50.7155
1.509	50.3155
1.481	49.8155
1.453	47.1155
1.425	43.2155
1.397	37.7155
1.369	49.1155
1.341	49.1155
1.313	48.2155
1.285	46.9155
1.257	45.6155
1.229	43.6155
1.201	42.6155
1.173	41.6155
1.145	40.9155
1.117	39.8155
1.089	39.1155
1.061	38.8155
1.033	38.6155
1.005	38.6155
0.977	38.0155
0.949	37.5155
0.921	36.2155
0.893	35.3155
0.865	34.5155
0.837	34.2155
0.809	34.5155
0.799	35.0155
0.792	34.6155
0.785	34.6155
0.778	34.5155
0.771	34.2155
0.764	34.2155
0.757	34.1155
0.75	33.6155
0.743	33.4155
0.736	33.0155
0.729	32.7155
0.722	32.3155
0.715	32.2155
0.708	31.6155
0.701	31.3155
0.694	31.2155
0.687	30.9155
0.68	30.8155
0.673	30.7155
0.666	30.8155
0.659	30.5155
0.652	30.1155
0.645	30.2155
0.638	30.1155
0.631	30.0155
0.624	29.5155
0.617	29.8155
0.61	29.5155
0.603	29.5155
0.596	28.6155
0.589	28.5155
0.582	28.6155
0.575	28.1155
0.568	28.0155
0.561	27.9155
0.554	27.2155
0.547	26.8155
0.54	26.3155
0.533	25.7155
0.526	24.7155
0.519	24.4155
0.512	23.7155
0.505	23.4155
0.498	22.3155
0.491	21.9155
0.484	21.2155
0.477	20.9155
0.47	20.9155
0.463	21.2155
0.456	20.2155
0.449	20.1155
0.442	19.1155
0.435	18.2155
0.428	17.5155
0.421	16.9155
0.414	16.2155
0.407	16.1155
