Name: Anthophyllite Mica Schist
Type: rock
Class: Metamorphic
Subclass: Schist
Particle Size: Fine
Sample No.: schist8
Owner: JHU
Wavelength Range: All
Origin: Sample No. 396, The Hunt and Salisbury Collection at the U.S.Geological Survey, Denver, Co.
Description: This is a very coarse-grained rock consisting of acicular anthophyllite crystals and biotite, the latter containing many haloes from abundant zircon inclusions.  The modes gave 52.1% biotite and 47.9% anthophyllite.Particle size was 0-75 Micrometer. Original ASTER Spectral Library name was jhu.becknic.rock.metamorphic.schist.fine.schist8.spectrum.txt
Measurement: Directional (10 Degree) Hemispherical Reflectance
X Units: Wavelength (micrometers)
Y Units: Reflectance (percent)
wavelength	value
14.983	1.3179
14.645	1.3454
14.321	1.298
14.011	1.3548
13.715	1.5225
13.43	1.6134
13.158	1.7974
12.896	2.0594
12.644	2.1171
12.402	2.6926
12.169	3.6702
11.945	4.3015
11.729	4.5173
11.52	4.4865
11.319	4.095
11.125	3.5127
10.937	3.1738
10.755	3.3149
10.58	3.2844
10.41	3.2998
10.245	3.421
10.086	3.471
9.9313	4.0138
9.7814	4.4832
9.636	4.4315
9.4948	4.442
9.3577	4.1102
9.2245	3.5108
9.095	3.0511
8.9691	3.0102
8.8467	3.0144
8.7275	3.1198
8.6116	2.7501
8.4986	1.8244
8.3886	1.5928
8.2814	1.8164
8.1769	2.3255
8.075	2.9765
7.9756	3.7729
7.8786	4.6567
7.784	5.6222
7.6916	6.5674
7.6014	7.4962
7.5133	8.4167
7.4272	9.3452
7.343	10.303
7.2607	11.385
7.1803	12.372
7.1016	13.287
7.0246	14.304
6.9493	15.676
6.8755	17.095
6.8034	18.555
6.7327	19.825
6.6634	20.632
6.5956	21.066
6.5292	21.196
6.464	20.925
6.4002	20.081
6.3376	18.908
6.2762	17.243
6.216	14.896
6.157	13.285
6.099	12.961
6.0421	13.564
5.9863	15.216
5.9315	16.836
5.8777	18.084
5.8249	18.818
5.773	19.07
5.722	19.364
5.6719	19.783
5.6227	20.088
5.5744	20.337
5.5268	21.193
5.4801	22.239
5.4341	23.345
5.3889	24.024
5.3445	24.79
5.3008	25.344
5.2578	25.979
5.2154	27.417
5.1738	29.091
5.1328	30.278
5.0925	31.191
5.0528	31.861
5.0137	32.334
4.9752	32.802
4.9373	33.41
4.9	34.146
4.8632	34.965
4.827	35.832
4.7913	36.731
4.7561	37.786
4.7215	38.866
4.6873	39.882
4.6536	40.903
4.6205	41.875
4.5877	42.774
4.5555	43.443
4.5237	43.931
4.4923	44.305
4.4614	44.578
4.4309	44.839
4.4008	45.009
4.3711	45.156
4.3418	45.237
4.3129	45.307
4.2844	45.389
4.2563	45.46
4.2285	45.525
4.2011	45.61
4.174	45.674
4.1473	45.737
4.1209	45.768
4.0949	45.818
4.0692	45.883
4.0438	45.929
4.0187	45.957
3.994	46.011
3.9695	46.037
3.9453	46.042
3.9214	46.009
3.8979	45.988
3.8746	45.884
3.8515	45.798
3.8288	45.64
3.8063	45.453
3.7841	45.191
3.7621	44.981
3.7404	44.717
3.7189	44.446
3.6977	44.116
3.6767	43.843
3.656	43.463
3.6355	43.096
3.6152	42.664
3.5951	42.195
3.5753	41.625
3.5557	41.076
3.5363	40.503
3.5171	39.766
3.4981	39.106
3.4793	38.966
3.4607	38.493
3.4423	37.763
3.4241	37.114
3.4061	36.452
3.3883	35.847
3.3707	35.182
3.3533	34.57
3.336	34.1
3.3189	33.537
3.302	32.841
3.2853	32.113
3.2687	31.377
3.2523	30.626
3.2361	29.835
3.22	29.055
3.204	28.256
3.1883	27.455
3.1727	26.622
3.1572	25.803
3.1419	24.969
3.1268	24.226
3.1117	23.496
3.0969	22.831
3.0821	22.32
3.0675	21.769
3.0531	21.235
3.0388	20.718
3.0246	20.177
3.0105	19.626
2.9966	19.003
2.9828	18.392
2.9692	17.75
2.9556	17.17
2.9422	16.69
2.9289	16.308
2.9157	16.044
2.9027	16.039
2.8897	16.105
2.8769	16.116
2.8642	16.119
2.8516	15.778
2.8391	15.421
2.8267	14.789
2.8144	14.139
2.8022	13.484
2.7902	12.903
2.7782	12.317
2.7664	11.607
2.7546	10.787
2.7429	10.072
2.7314	8.7937
2.7199	11.596
2.7085	15.708
2.6973	17.166
2.6861	26.273
2.675	39.718
2.664	41.001
2.6531	41.488
2.6423	41.423
2.6315	41.195
2.6209	41.097
2.6103	40.977
2.5999	40.584
2.5895	40.257
2.5792	40.011
2.569	39.682
2.5588	39.474
2.5487	39.242
2.5388	38.961
2.5289	38.494
2.519	38.149
2.5093	37.716
2.4996	37.396
2.49	37.041
2.4805	36.646
2.471	36.276
2.4616	36.03
2.4523	35.771
2.4431	35.568
2.4339	35.47
2.4248	35.3
2.4157	35.047
2.4068	34.668
2.3979	34.245
2.389	33.958
2.3802	34.105
2.3715	34.552
2.3629	34.76
2.3543	34.664
2.3458	34.379
2.3373	33.937
2.3289	33.378
2.3206	33.066
2.3123	33.204
2.3041	33.835
2.2959	34.653
2.2878	35.684
2.2798	36.471
2.2718	36.85
2.2638	37.056
2.2559	36.938
2.2481	36.695
2.2403	37.724
2.2326	38.788
2.225	39.334
2.2173	39.671
2.2098	39.94
2.2023	40.134
2.1948	40.342
2.1874	40.585
2.18	40.87
2.1727	41.112
2.1655	41.245
2.1583	41.487
2.1511	41.661
2.144	41.86
2.1369	42.093
2.1299	42.288
2.1229	42.448
2.116	42.723
2.1091	43.026
2.1023	43.165
2.0955	43.366
2.0887	43.699
2.082	43.735
2.06	44.583
2.028	45.3
1.996	45.613
1.964	45.516
1.932	46.014
1.9	46.364
1.868	49.264
1.836	50.586
1.804	50.235
1.772	50.164
1.74	50.263
1.708	50.603
1.676	50.522
1.644	50.105
1.612	49.184
1.58	49.635
1.548	48.124
1.516	47.514
1.484	46.535
1.452	45.229
1.42	44.304
1.388	40.425
1.356	42.271
1.324	40.917
1.292	39.487
1.26	38.718
1.228	37.816
1.196	36.152
1.164	34.897
1.132	34.065
1.1	33.508
1.068	32.076
1.036	30.581
1.004	27.637
0.972	24.505
0.94	22.97
0.908	22.671
0.876	23.1
0.844	24.199
0.812	25.66
0.795	26.697
0.787	26.943
0.779	27.325
0.771	26.802
0.763	26.914
0.755	26.766
0.747	26.189
0.739	25.987
0.731	25.964
0.723	25.376
0.715	25.125
0.707	24.681
0.699	24.751
0.691	24.449
0.683	24.048
0.675	23.811
0.667	23.531
0.659	23.355
0.651	23.007
0.643	22.91
0.635	22.127
0.627	21.789
0.619	22.161
0.611	21.535
0.603	21.029
0.595	20.678
0.587	19.983
0.579	19.466
0.571	18.871
0.563	18.074
0.555	17.795
0.547	17.334
0.539	17.055
0.531	16.415
0.523	16.149
0.515	15.805
0.507	15.546
0.499	15.077
0.491	14.706
0.483	14.682
0.475	13.967
0.467	13.707
0.459	13.09
0.451	12.605
0.443	11.856
0.435	11.716
0.427	10.958
0.419	10.604
0.411	10.008
0.403	9.8256
