Name: Granodiorite
Type: rock
Class: Igneous
Subclass: Intermediate
Particle Size: Fine
Sample No.: Granodior_H1
Owner: JHU
Wavelength Range: All
Origin: St. Cloud, Stearns County, Minnesota, via Ward's Scientific (Cat.No. W-7)
Description: Powder derived from a dark gray medium-grained rock consisting of gray plagioclase, pinkish potash feldspar, quartz, biotite, scattered sulfides, and a black mafic phase.Particle size was 0-75 micrometers. Original ASTER Spectral Library name was jhu.becknic.rock.igneous.intermediate.fine.granod1.spectrum.txt
Measurement: Directional (10 degree) hemispherical reflectance
X Units: Wavelength (micrometers)
Y Units: Reflectance (percent)
wavelength	value
14.011	2.25
13.715	1.7025
13.43	1.3912
13.158	1.2206
12.896	1.2979
12.644	1.245
12.402	2.314
12.169	3.7294
11.945	4.7203
11.729	4.5155
11.52	4.4545
11.319	4.3547
11.125	3.6572
10.937	3.2597
10.755	2.8575
10.58	2.7539
10.41	2.7108
10.245	2.6356
10.086	2.8697
9.9313	3.15
9.7814	3.1218
9.636	3.0103
9.4948	3.0174
9.3577	3.4193
9.2245	3.5503
9.095	3.3504
8.9691	3.2672
8.8467	3.2128
8.7275	3.2888
8.6116	3.0652
8.4986	3.6421
8.3886	3.832
8.2814	4.0641
8.1769	4.0109
8.075	2.8959
7.9756	2.1063
7.8786	1.7112
7.784	1.6439
7.6916	1.8436
7.6014	2.0742
7.5133	2.4564
7.4272	2.894
7.343	3.4045
7.2607	4.0282
7.1803	4.7171
7.1016	5.486
7.0246	6.0215
6.9493	6.5283
6.8755	6.9436
6.8034	7.1566
6.7327	7.2546
6.6634	7.6898
6.5956	8.0011
6.5292	8.2104
6.464	9.1064
6.4002	9.1854
6.3376	8.5282
6.2762	7.6741
6.216	7.2947
6.157	7.8527
6.099	8.9892
6.0421	9.5587
5.9863	9.5221
5.9315	9.3244
5.8777	10.11
5.8249	10.748
5.773	11.12
5.722	11.311
5.6719	11.057
5.6227	10.409
5.5744	10.661
5.5268	11.677
5.4801	13.135
5.4341	13.778
5.3889	12.625
5.3445	11.813
5.3008	12.589
5.2578	14.09
5.2154	16.413
5.1738	17.408
5.1328	17.946
5.0925	18.56
5.0528	18.61
5.0137	18.894
4.9752	20.129
4.9373	21.902
4.9	23.724
4.8632	25.762
4.827	26.584
4.7913	26.961
4.7561	27.623
4.7215	28.191
4.6873	28.361
4.6536	29.117
4.6205	30.172
4.5877	31.161
4.5555	31.965
4.5237	32.456
4.4923	32.592
4.4614	33.046
4.4309	33.878
4.4008	34.679
4.3711	35.495
4.3418	36.193
4.3129	36.623
4.2844	36.827
4.2563	37.257
4.2285	37.557
4.2011	37.87
4.174	38.181
4.1473	38.398
4.1209	38.585
4.0949	38.797
4.0692	38.926
4.0438	39.03
4.0187	39.041
3.994	38.969
3.9695	39.046
3.9453	39.221
3.9214	39.355
3.8979	39.363
3.8746	39.326
3.8515	39.321
3.8288	39.342
3.8063	39.369
3.7841	39.359
3.7621	39.307
3.7404	39.254
3.7189	39.221
3.6977	39.167
3.6767	39.167
3.656	39.123
3.6355	39
3.6152	38.886
3.5951	38.807
3.5753	38.679
3.5557	38.53
3.5363	38.39
3.5171	38.26
3.4981	37.98
3.4793	37.835
3.4607	37.61
3.4423	37.274
3.4241	36.964
3.4061	36.638
3.3883	36.366
3.3707	36.004
3.3533	35.617
3.336	35.195
3.3189	34.758
3.302	34.484
3.2853	34.042
3.2687	33.488
3.2523	32.894
3.2361	32.111
3.22	31.241
3.204	30.154
3.1883	29.303
3.1727	28.394
3.1572	27.767
3.1419	27.206
3.1268	26.818
3.1117	26.493
3.0969	26.216
3.0821	25.913
3.0675	25.885
3.0531	25.988
3.0388	25.848
3.0246	25.879
3.0105	25.639
2.9966	25.297
2.9828	24.94
2.9692	24.567
2.9556	24.408
2.9422	24.473
2.9289	24.476
2.9157	24.845
2.9027	25.165
2.8897	25.721
2.8769	25.982
2.8642	26.048
2.8516	26.143
2.8391	26.031
2.8267	26.066
2.8144	26.299
2.8022	26.795
2.7902	27.205
2.7782	26.908
2.7664	26.188
2.7546	25.545
2.7429	24.998
2.7314	24.688
2.7199	27.256
2.7085	30.844
2.6973	32.787
2.6861	36.38
2.675	38.947
2.664	39.524
2.6531	39.737
2.6423	39.696
2.6315	39.772
2.6209	39.901
2.6103	39.769
2.5999	39.824
2.5895	39.849
2.5792	39.89
2.569	39.764
2.5588	39.875
2.5487	39.921
2.5388	39.884
2.5289	39.981
2.519	39.878
2.5093	39.878
2.4996	39.917
2.49	39.854
2.4805	39.878
2.471	39.88
2.4616	39.929
2.4523	39.938
2.4431	39.82
2.4339	39.781
2.4248	39.767
2.4157	39.625
2.4068	39.55
2.3979	39.488
2.389	39.357
2.3802	39.475
2.3715	39.623
2.3629	39.62
2.3543	39.608
2.3458	39.505
2.3373	39.269
2.3289	39.214
2.3206	39.386
2.3123	39.399
2.3041	39.623
2.2959	39.756
2.2878	39.897
2.2798	39.915
2.2718	39.872
2.2638	39.981
2.2559	39.912
2.2481	39.883
2.2403	39.794
2.2326	39.796
2.225	39.745
2.2173	39.72
2.2098	39.788
2.2023	39.79
2.1948	39.701
2.1874	39.817
2.18	39.778
2.1727	39.739
2.1655	39.902
2.1583	39.814
2.1511	39.745
2.144	39.767
2.1369	39.671
2.1299	39.724
2.1229	39.694
2.116	39.673
2.1091	39.63
2.1023	39.703
2.0955	39.508
2.0887	39.795
2.082	39.517
2.06	39.355
2.028	39.302
1.996	38.523
1.964	37.697
1.932	37.251
1.9	36.978
1.868	36.978
1.836	37.193
1.804	36.526
1.772	35.858
1.74	36.046
1.708	35.855
1.676	35.468
1.644	35.095
1.612	34.559
1.58	33.852
1.548	33.911
1.516	33.399
1.484	32.084
1.452	32.034
1.42	31.185
1.388	30.36
1.356	30.223
1.324	29.127
1.292	28.891
1.26	28.069
1.228	27.518
1.196	26.876
1.164	26.292
1.132	26.048
1.1	25.56
1.068	25.309
1.036	24.703
1.004	24.651
0.972	24.075
0.94	23.65
0.908	23.338
0.876	23.229
0.844	23.146
0.812	23.198
0.795	23.255
0.787	23.028
0.779	22.98
0.771	22.865
0.763	22.552
0.755	22.182
0.747	21.745
0.739	21.996
0.731	21.79
0.723	21.719
0.715	21.418
0.707	21.249
0.699	21.398
0.691	21.355
0.683	21.329
0.675	21.538
0.667	21.014
0.659	20.942
0.651	21.135
0.643	21.14
0.635	20.869
0.627	21.079
0.619	21.035
0.611	21.107
0.603	20.544
0.595	20.571
0.587	20.654
0.579	20.433
0.571	20.48
0.563	20.343
0.555	19.316
0.547	18.82
0.539	18.874
0.531	18.484
0.523	18.336
0.515	17.969
0.507	17.435
0.499	17.407
0.491	16.975
0.483	16.821
0.475	16.117
0.467	15.845
0.459	16.27
0.451	15.596
0.443	15.374
0.435	15.025
0.427	14.154
0.419	13.582
0.411	13.404
0.403	13.047
