Name: Mica Schist
Type: rock
Class: Metamorphic
Subclass: Schist
Particle Size: Coarse
Sample No.: schist3
Owner: JHU
Wavelength Range: All
Origin: Sample No. 394, The Hunt and Salisbury Collection at the U.S.Geological Survey, Denver, Co.
Description: A medium-grained somewhat foliated rock.  Bands of strained quartz with pressure solution effects alternate with irregular bands of biotite which have usually been altered to chlorite, associated with abundant magnetite and ferruginous staining.  Much less muscovite, usually as sericite, is also present.  Green to slightly blue-green epidote crystals occur commonly throughout the rock.  Particle size was 500-1500 Micrometer. Original ASTER Spectral Library name was jhu.becknic.rock.metamorphic.schist.coarse.schist3.spectrum.txt
Measurement: Directional (10 Degree) Hemispherical Reflectance
X Units: Wavelength (micrometers)
Y Units: Reflectance (percent)
wavelength	value
14.9831	2.3705
14.6445	2.6639
14.3209	2.492
14.0112	2.653
13.7147	2.8146
13.4304	2.9943
13.1577	2.833
12.8959	3.4805
12.6443	3.6197
12.4023	3.3275
12.1694	3.0566
11.945	3.5698
11.7289	4.0536
11.5203	4.4405
11.3191	4.6975
11.1248	5.0899
10.937	5.2727
10.7555	5.1995
10.5799	5.6554
10.4099	6.9721
10.2454	8.6047
10.0859	9.9356
9.9313	11.2942
9.7814	12.582
9.636	15.4582
9.4948	13.7379
9.3577	15.0591
9.2245	17.5836
9.095	17.2738
8.9691	15.5699
8.8467	13.9447
8.7275	10.9785
8.6116	7.5045
8.4986	7.8694
8.3886	7.4614
8.2814	7.2714
8.1769	6.979
8.075	5.2256
7.9756	3.8381
7.8786	2.9709
7.784	2.6554
7.6916	2.5387
7.6014	2.4894
7.5133	2.5171
7.4272	2.5384
7.343	2.6104
7.2607	2.7243
7.1803	2.8288
7.1016	2.959
7.0246	3.0367
6.9493	3.1388
6.8755	3.2271
6.8034	3.3171
6.7327	3.4331
6.6634	3.5184
6.5956	3.5878
6.5292	3.6799
6.464	3.7829
6.4002	3.764
6.3376	3.7606
6.2762	3.7339
6.216	3.6444
6.157	3.556
6.099	3.5619
6.0421	3.5539
5.9863	3.6093
5.9315	3.6337
5.8777	3.7092
5.8249	3.8494
5.773	3.9044
5.722	3.9496
5.6719	3.9562
5.6227	3.9283
5.5744	3.9236
5.5268	4.0072
5.4801	4.1121
5.4341	4.2255
5.3889	4.2733
5.3445	4.346
5.3008	4.5201
5.2578	4.7673
5.2154	5.0276
5.1738	5.2478
5.1328	5.4103
5.0925	5.5079
5.0528	5.5521
5.0137	5.5844
4.9752	5.6677
4.9373	5.7939
4.9	6.0263
4.8632	6.4241
4.827	6.7066
4.7913	6.9288
4.7561	7.1507
4.7215	7.3477
4.6873	7.337
4.6536	7.6347
4.6205	8.0165
4.5877	8.2561
4.5555	8.3703
4.5237	8.2395
4.4923	8.0572
4.4614	8.1121
4.4309	8.3388
4.4008	8.5846
4.3711	8.8643
4.3418	9.0596
4.3129	9.0771
4.2844	8.9772
4.2563	9.0639
4.2285	9.2846
4.2011	9.4324
4.174	9.5463
4.1473	9.6502
4.1209	9.757
4.0949	9.874
4.0692	9.9666
4.0438	9.9934
4.0187	10.0206
3.994	10.063
3.9695	10.1329
3.9453	10.2037
3.9214	10.251
3.8979	10.2529
3.8746	10.2402
3.8515	10.2501
3.8288	10.2617
3.8063	10.2859
3.7841	10.2863
3.7621	10.2501
3.7404	10.1911
3.7189	10.2039
3.6977	10.2146
3.6767	10.2664
3.656	10.3129
3.6355	10.3214
3.6152	10.3415
3.5951	10.3304
3.5753	10.3174
3.5557	10.283
3.5363	10.2806
3.5171	10.2657
3.4981	10.2122
3.4793	10.2042
3.4607	10.157
3.4423	10.082
3.4241	10.0569
3.4061	9.9474
3.3883	9.8752
3.3707	9.781
3.3533	9.6867
3.336	9.5842
3.3189	9.5053
3.302	9.3538
3.2853	9.2472
3.2687	9.1051
3.2523	8.9651
3.2361	8.8365
3.22	8.6765
3.204	8.5446
3.1883	8.3954
3.1727	8.2824
3.1572	8.1604
3.1419	8.069
3.1268	7.9786
3.1117	7.9037
3.0969	7.8573
3.0821	7.7884
3.0675	7.7709
3.0531	7.7323
3.0388	7.6773
3.0246	7.6482
3.0105	7.6006
2.9966	7.53
2.9828	7.4538
2.9692	7.3827
2.9556	7.2818
2.9422	7.2475
2.9289	7.1945
2.9157	7.1708
2.9027	7.1774
2.8897	7.2482
2.8769	7.3316
2.8642	7.3437
2.8516	7.293
2.8391	7.1229
2.8267	6.8392
2.8144	6.3486
2.8022	5.5574
2.7902	4.7467
2.7782	4.1682
2.7664	3.7422
2.7546	3.4476
2.7429	3.6451
2.7314	4.0446
2.7199	5.353
2.7085	6.9629
2.6973	7.7372
2.6861	9.5055
2.675	10.4149
2.664	10.7659
2.6531	11.1528
2.6423	11.3283
2.6315	11.2916
2.6209	11.3548
2.6103	11.41
2.5999	11.4846
2.5895	11.5362
2.5792	11.6428
2.569	11.6973
2.5588	11.7882
2.5487	11.8536
2.5388	11.8995
2.5289	11.9062
2.519	11.8993
2.5093	11.8173
2.4996	11.8375
2.49	11.7925
2.4805	11.7771
2.471	11.7378
2.4616	11.6852
2.4523	11.6336
2.4431	11.6184
2.4339	11.6599
2.4248	11.715
2.4157	11.8377
2.4068	11.9007
2.3979	11.9019
2.389	11.8929
2.3802	11.9152
2.3715	11.9578
2.3629	11.9519
2.3543	11.9071
2.3458	11.8955
2.3373	11.9926
2.3289	12.1219
2.3206	12.2697
2.3123	12.4269
2.3041	12.5723
2.2959	12.6476
2.2878	12.726
2.2798	12.7641
2.2718	12.7573
2.2638	12.7345
2.2559	12.6398
2.2481	12.5797
2.2403	12.4984
2.2326	12.5112
2.225	12.4584
2.2173	12.2585
2.2098	11.9852
2.2023	11.8429
2.1948	12.0132
2.1874	12.384
2.18	12.722
2.1727	12.9285
2.1655	13.0379
2.1583	13.1205
2.1511	13.1575
2.144	13.2067
2.1369	13.2214
2.1299	13.2027
2.1229	13.2304
2.116	13.2465
2.1091	13.2965
2.1023	13.3237
2.0955	13.3382
2.0887	13.3476
2.082	13.4282
2.06	13.5843
2.028	13.6414
1.996	13.5525
1.964	13.3886
1.932	13.3942
1.9	13.439
1.868	13.4894
1.836	13.7502
1.804	13.7136
1.772	13.5266
1.74	13.6474
1.708	13.5457
1.676	13.5414
1.644	13.6966
1.612	13.565
1.58	13.5457
1.548	13.7622
1.516	13.6765
1.484	13.5862
1.452	13.5921
1.42	13.4797
1.388	13.2881
1.356	13.6235
1.324	13.6111
1.292	13.5956
1.26	13.7744
1.228	13.62
1.196	13.6554
1.164	13.7291
1.132	13.8952
1.1	13.8411
1.068	13.9965
1.036	14.1795
1.004	14.4397
0.972	14.6358
0.94	14.8107
0.908	15.1018
0.876	15.4123
0.844	15.9143
0.812	16.5065
0.795	16.5085
0.787	16.4719
0.779	16.5139
0.771	16.4816
0.763	16.4839
0.755	16.4878
0.747	16.4825
0.739	16.5531
0.731	16.4461
0.723	16.5027
0.715	16.3803
0.707	16.4184
0.699	16.4649
0.691	16.6532
0.683	16.669
0.675	16.614
0.667	16.5906
0.659	16.6364
0.651	16.6523
0.643	16.372
0.635	16.6258
0.627	16.5879
0.619	16.7055
0.611	16.6518
0.603	16.503
0.595	16.6102
0.587	16.5852
0.579	16.4555
0.571	16.244
0.563	16.2195
0.555	15.9098
0.547	15.7322
0.539	15.4629
0.531	15.2834
0.523	14.9973
0.515	14.7763
0.507	14.388
0.499	14.3412
0.491	14.0824
0.483	13.7943
0.475	13.5602
0.467	13.5597
0.459	13.3509
0.451	13.067
0.443	12.843
0.435	12.5999
0.427	12.2244
0.419	11.5123
0.411	11.5801
0.403	10.9655
