Name: Granodiorite
Type: Rock
Class: Igneous
Subclass: Intermediate
Particle Size: Solid
Sample No.: Ward26
Owner: JPL
Wavelength Range: All
Origin: Ward's Collection of American Rocks.  Sample locality - St. Cloud, Stearns County, Minnesota.
Description: A medium granular, gray rock, composed of plagioclase, pinkorthoclase, biotite, hornblende and quartz.Geologic age - Pre-Cambrian.Collected by:  Ward's Natural Science Original ASTER Spectral Library name was jpl.nicolet.rock.igneous.intermediate.solid.ward26.spectrum.txt
Measurement: Hemispherical reflectance
X Units: Wavelength (micrometers)
Y Units: Reflectance (percent)
wavelength	value
15.3871	6.3596
15.118	3.7398
14.8581	4.2155
14.6069	4.9194
14.3642	4.4481
14.1293	4.754
13.9021	5.6484
13.682	6.177
13.4687	5.927
13.2621	5.9958
13.0616	6.0507
12.8672	7.5507
12.6784	6.0664
12.4951	6.5821
12.317	4.1922
12.1439	5.7528
11.9757	6.3194
11.812	6.9654
11.6527	7.5482
11.4977	7.6695
11.3468	8.3568
11.1997	9.2745
11.0564	9.7046
10.9168	10.1962
10.7806	11.237
10.6478	12.1746
10.5182	13.306
10.3917	14.5808
10.2683	16.2285
10.1477	18.303
10.0299	20.3552
9.9148	22.6759
9.8024	22.5897
9.6925	22.8473
9.585	22.8891
9.4798	23.0315
9.377	23.4364
9.2763	24.9205
9.1778	24.4989
9.0814	23.6688
8.987	22.704
8.8945	23.246
8.8039	24.5057
8.7151	24.1475
8.6281	20.9526
8.5428	24.23
8.4592	24.4718
8.3772	22.7879
8.2967	20.3475
8.2179	16.3121
8.1404	12.1291
8.0645	7.6237
7.9899	4.4733
7.9167	2.7322
7.8449	1.9029
7.7743	1.8432
7.705	1.5022
7.6369	1.3789
7.57	1.0446
7.5043	1.5909
7.4397	1.0834
7.3762	1.3534
7.3138	1.8014
7.2524	1.6424
7.1921	1.8585
7.1327	1.6742
7.0743	1.9079
7.0169	2.0894
6.9604	2.0007
6.9047	2.0976
6.85	2.2991
6.7962	2.2435
6.7431	2.3699
6.6909	2.4341
6.6395	2.6341
6.5889	2.4874
6.539	2.5669
6.49	2.6899
6.4416	2.7929
6.3939	2.7194
6.347	2.6794
6.3007	2.9326
6.2551	2.6782
6.2101	2.6436
6.1658	2.8999
6.1222	2.9437
6.0791	3.1447
6.0366	3.3805
5.9948	3.0257
5.9535	2.943
5.9127	2.9664
5.8726	3.0773
5.8329	3.0206
5.7938	3.1408
5.7552	3.5006
5.7172	3.671
5.6796	3.6514
5.6425	3.353
5.6059	3.5293
5.5698	3.6982
5.5341	3.4756
5.4989	3.8135
5.4641	3.8007
5.4298	3.8354
5.3959	3.9016
5.3624	4.1287
5.3294	4.1386
5.2967	4.1013
5.2644	4.2742
5.2326	4.3735
5.2011	4.6035
5.17	4.6735
5.1392	4.7241
5.1088	4.8882
5.0788	4.9398
5.0491	5.2472
5.0198	5.2249
4.9908	5.2509
4.9622	5.3673
4.9338	5.5884
4.9058	5.5611
4.8781	5.8574
4.8508	6.442
4.8237	6.387
4.7969	6.5515
4.7704	6.6793
4.7443	6.4972
4.7184	6.5142
4.6927	7.1884
4.6674	6.9413
4.6423	7.1612
4.6175	7.2815
4.593	7.9091
4.5687	7.786
4.5447	8.1556
4.5209	8.0423
4.4974	8.2516
4.4741	8.2169
4.451	8.6876
4.4282	8.9517
4.4057	9.2884
4.3833	9.6512
4.3612	9.758
4.3393	10.2932
4.3176	10.6202
4.2962	10.5248
4.2749	10.9406
4.2539	11.5668
4.233	11.2335
4.2124	11.5353
4.192	11.7599
4.1717	12.27
4.1517	11.7605
4.1319	12.5978
4.1122	12.1441
4.0927	12.2343
4.0734	12.9305
4.0543	13.3508
4.0354	13.19
4.0166	12.9505
3.9981	12.6902
3.9796	13.0007
3.9614	13.0744
3.9433	13.0136
3.9254	13.5134
3.9077	13.4431
3.8901	13.2323
3.8726	13.6624
3.8554	13.519
3.8382	13.5345
3.8213	13.7517
3.8045	13.6655
3.7878	14.0098
3.7713	13.7689
3.7549	13.6669
3.7386	14.2763
3.7225	13.786
3.7066	14.4092
3.6907	14.0907
3.675	14.4743
3.6595	14.2344
3.644	14.6514
3.6287	14.0377
3.6136	14.8181
3.5985	14.3215
3.5836	14.5613
3.5688	14.673
3.5541	14.2626
3.5396	14.5694
3.5251	14.2494
3.5108	13.9654
3.4966	14.0694
3.4825	13.9507
3.4685	14.0381
3.4547	13.7184
3.4409	13.6866
3.4273	13.4832
3.4137	14.1047
3.4003	13.6684
3.387	13.6295
3.3738	12.6248
3.3606	13.6132
3.3476	13.1115
3.3347	13.1701
3.3219	12.8863
3.3092	13.0611
3.2965	13.0205
3.284	12.5993
3.2716	12.3317
3.2593	12.2857
3.247	12.0677
3.2348	12.3417
3.2228	11.0836
3.2108	11.4236
3.1989	11.3954
3.1871	12.0364
3.1754	10.8458
3.1638	10.6522
3.1523	10.0594
3.1408	10.7808
3.1294	11.0344
3.1181	10.0145
3.1069	9.9968
3.0958	10.1857
3.0848	9.1305
3.0738	10.7455
3.0629	9.8743
3.0521	9.6836
3.0413	9.2318
3.0307	9.204
3.0201	9.5188
3.0096	9.2975
2.9991	8.9962
2.9887	10.0604
2.9784	8.8729
2.9682	8.7622
2.9581	8.0965
2.948	8.9474
2.9379	9.3968
2.928	9.048
2.9181	8.6263
2.9083	8.3308
2.8985	10.3089
2.8888	8.8175
2.8792	9.6104
2.8697	9.9559
2.8602	9.8349
2.8507	9.7915
2.8413	10.0155
2.832	8.8637
2.8228	8.7334
2.8136	9.3226
2.8045	10.3804
2.7954	9.8505
2.7864	10.5064
2.7774	11.0793
2.7685	11.5025
2.7597	11.1564
2.7509	10.1829
2.7422	11.4144
2.7335	11.3041
2.7249	13.2691
2.7163	12.8047
2.7078	13.5087
2.6994	15.6412
2.691	15.4433
2.6826	18.8712
2.6743	19.2299
2.666	19.0334
2.6578	19.6954
2.6497	19.7421
2.6416	20.4076
2.6336	19.7654
2.6256	19.9051
2.6176	19.6968
2.6097	18.1177
2.6018	20.139
2.594	19.6282
2.5863	20.5255
2.5785	20.4
2.5709	19.7627
2.5633	20.2246
2.5557	20.2434
2.5481	19.5609
2.5406	20.2816
2.5332	19.833
2.5258	20.0672
2.5184	19.6711
2.5111	19.7481
2.5038	20.556
2.4966	20.251
2.4894	21.0855
2.4823	20.1118
2.4752	19.6006
2.4681	20.1806
2.4611	19.5863
2.4541	19.7851
2.4471	21.3853
2.4402	19.2832
2.4333	19.4872
2.4265	20.9799
2.4197	19.7394
2.413	19.5949
2.4063	20.5516
2.3996	20.2525
2.3929	19.3841
2.3863	18.7073
2.3798	20.5421
2.3732	19.6785
2.3667	20.153
2.3603	20.0501
2.3538	20.783
2.3474	21.253
2.3411	19.3766
2.3347	20.3412
2.3285	19.8104
2.3222	20.3074
2.316	19.6086
2.3098	20.406
2.3036	22.4371
2.2975	22.2865
2.2914	19.0322
2.2854	21.8513
2.2793	20.8672
2.2733	19.9965
2.2674	21.0547
2.2614	20.5332
2.2555	22.5188
2.2497	21.3687
2.2438	21.3639
2.238	19.3888
2.2322	22.1076
2.2265	20.5678
2.2208	22.0424
2.2151	21.3922
2.2094	20.727
2.2038	21.7145
2.1982	21.6895
2.1926	21.5639
2.187	23.1709
2.1815	20.536
2.176	20.1715
2.1706	20.5417
2.1651	21.3633
2.1597	21.53
2.1543	22.7657
2.149	19.7643
2.1436	24.5261
2.1383	20.43
2.1331	22.7933
2.1278	22.8805
2.1226	21.4119
2.1174	19.5501
2.1122	21.6335
2.1071	22.2993
2.1019	19.6988
2.0968	20.4275
2.0918	19.9608
2.0867	18.5787
2.0817	22.5691
2.0767	23.5059
2.0717	21.1258
2.0667	22.7962
2.0618	20.9497
2.0569	21.1201
2.052	25.4039
2.0472	22.357
2.0423	17.24
2.0375	19.334
2.0327	21.0442
2.028	18.2223
2.0232	17.6039
2.0185	22.4352
2.0138	23.6422
2.0091	19.2425
2.0044	18.7227
1.9998	26.1815
