Name: Glauconitic Sandstone
Type: Rock
Class: Sedimentary
Subclass: Sandstone
Particle Size: Solid
Sample No.: Ward64
Owner: JPL
Wavelength Range: All
Origin: Ward's Collection of American Rocks.  Sample locality - Hazlet, Monmouth County, New Jersey.
Description: A greenish rock with brown seams, the whole showing atexture resembling oolitic.  Fossils are sometimes present.Geologic age - Cretaceous.Collected by:  Ward's Natural Science Original ASTER Spectral Library name was jpl.nicolet.rock.sedimentary.sandstone.solid.ward64.spectrum.txt
Measurement: Hemispherical reflectance
X Units: Wavelength (micrometers)
Y Units: Reflectance (percent)
wavelength	value
15.3871	1.6624
15.118	1.4264
14.8581	1.2156
14.6069	1.7945
14.3642	1.3007
14.1293	1.4227
13.9021	1.4957
13.682	1.5368
13.4687	1.568
13.2621	1.4279
13.0616	1.995
12.8672	1.9614
12.6784	1.8098
12.4951	1.9149
12.317	1.7576
12.1439	1.7546
11.9757	1.8971
11.812	2.2255
11.6527	2.6561
11.4977	2.8709
11.3468	2.424
11.1997	2.3122
11.0564	2.3593
10.9168	2.5174
10.7806	2.6925
10.6478	2.7658
10.5182	3.0341
10.3917	3.146
10.2683	3.4398
10.1477	3.4476
10.0299	3.96
9.9148	4.0846
9.8024	4.2616
9.6925	4.3019
9.585	4.1716
9.4798	3.9526
9.377	3.4339
9.2763	3.4807
9.1778	2.9962
9.0814	2.6359
8.987	2.6072
8.8945	2.3455
8.8039	2.3576
8.7151	2.1901
8.6281	2.0299
8.5428	2.2835
8.4592	2.6953
8.3772	2.7792
8.2967	2.9437
8.2179	2.9308
8.1404	2.7947
8.0645	2.7442
7.9899	2.5983
7.9167	2.5574
7.8449	2.4837
7.7743	2.3447
7.705	2.4697
7.6369	2.2735
7.57	2.328
7.5043	2.3364
7.4397	2.2731
7.3762	2.3633
7.3138	2.6987
7.2524	2.7397
7.1921	3.0988
7.1327	3.2008
7.0743	3.0784
7.0169	3.0612
6.9604	3.0578
6.9047	3.0957
6.85	3.1605
6.7962	3.402
6.7431	3.4314
6.6909	3.6008
6.6395	3.7759
6.5889	3.678
6.539	3.4937
6.49	3.5207
6.4416	2.9631
6.3939	2.2466
6.347	1.8748
6.3007	1.6652
6.2551	1.6798
6.2101	1.5637
6.1658	1.5625
6.1222	1.3994
6.0791	1.4646
6.0366	1.4469
5.9948	1.6261
5.9535	1.7373
5.9127	1.9722
5.8726	2.2149
5.8329	2.439
5.7938	2.7896
5.7552	3.0625
5.7172	3.2496
5.6796	3.341
5.6425	3.3471
5.6059	3.4162
5.5698	3.3266
5.5341	3.2899
5.4989	3.5021
5.4641	3.7733
5.4298	4.0878
5.3959	4.3321
5.3624	4.6159
5.3294	4.6589
5.2967	4.8333
5.2644	5.2101
5.2326	5.2188
5.2011	5.4424
5.17	5.4156
5.1392	5.6052
5.1088	5.6121
5.0788	5.7053
5.0491	5.7809
5.0198	5.9749
4.9908	5.9833
4.9622	6.081
4.9338	6.1443
4.9058	6.1745
4.8781	6.3223
4.8508	6.4173
4.8237	6.5114
4.7969	6.5704
4.7704	6.7283
4.7443	6.6089
4.7184	6.5993
4.6927	6.7603
4.6674	6.673
4.6423	6.8076
4.6175	6.9609
4.593	6.9222
4.5687	7.048
4.5447	7.074
4.5209	7.1401
4.4974	7.2469
4.4741	7.2093
4.451	7.2203
4.4282	7.402
4.4057	7.3244
4.3833	7.2853
4.3612	7.5407
4.3393	7.4557
4.3176	7.6303
4.2962	7.5838
4.2749	7.4042
4.2539	7.4938
4.233	7.6887
4.2124	7.7843
4.192	7.7074
4.1717	7.6931
4.1517	7.7521
4.1319	7.7902
4.1122	7.7464
4.0927	7.4509
4.0734	7.533
4.0543	7.2946
4.0354	6.9104
4.0166	6.9172
3.9981	6.7277
3.9796	6.9907
3.9614	6.8288
3.9433	7.0677
3.9254	7.0521
3.9077	7.0279
3.8901	7.0314
3.8726	7.0973
3.8554	6.8884
3.8382	7.0577
3.8213	6.9835
3.8045	7.0915
3.7878	6.9647
3.7713	7.1286
3.7549	7.1868
3.7386	6.9114
3.7225	6.6346
3.7066	6.6033
3.6907	6.6271
3.675	6.3395
3.6595	6.1701
3.644	5.9197
3.6287	5.7906
3.6136	5.9157
3.5985	5.6608
3.5836	5.4418
3.5688	5.442
3.5541	5.2105
3.5396	5.1042
3.5251	4.8107
3.5108	4.9297
3.4966	4.4958
3.4825	4.2774
3.4685	4.7476
3.4547	4.3222
3.4409	4.2506
3.4273	4.2832
3.4137	4.399
3.4003	3.9609
3.387	4.1409
3.3738	3.8464
3.3606	4.1825
3.3476	3.7898
3.3347	4.0065
3.3219	3.6383
3.3092	3.298
3.2965	3.8138
3.284	3.209
3.2716	3.7137
3.2593	3.0837
3.247	3.0371
3.2348	3.2087
3.2228	3.4038
3.2108	2.8902
3.1989	2.8335
3.1871	2.8491
3.1754	2.8239
3.1638	2.6776
3.1523	2.8783
3.1408	2.2097
3.1294	2.5994
3.1181	2.556
3.1069	2.705
3.0958	2.7695
3.0848	2.4917
3.0738	2.6267
3.0629	2.3836
3.0521	2.4807
3.0413	2.3486
3.0307	2.3809
3.0201	2.1954
3.0096	2.4819
2.9991	2.6035
2.9887	2.2751
2.9784	2.5435
2.9682	1.9515
2.9581	2.4639
2.948	2.2915
2.9379	2.2558
2.928	2.5074
2.9181	2.0904
2.9083	2.1633
2.8985	1.8269
2.8888	2.4051
2.8792	2.4191
2.8697	2.3587
2.8602	2.3223
2.8507	2.304
2.8413	2.1185
2.832	2.3257
2.8228	2.6295
2.8136	1.9155
2.8045	2.7483
2.7954	2.3123
2.7864	2.0207
2.7774	2.8413
2.7685	2.2813
2.7597	2.9581
2.7509	3.3724
2.7422	3.9219
2.7335	4.1192
2.7249	5.5686
2.7163	6.5
2.7078	7.6452
2.6994	9.0499
2.691	11.3981
2.6826	13.6451
2.6743	15.0831
2.666	16.4392
2.6578	16.9754
2.6497	17.5284
2.6416	17.8579
2.6336	19.1768
2.6256	19.1964
2.6176	19.8802
2.6097	20.0068
2.6018	20.2413
2.594	20.8013
2.5863	20.6687
2.5785	20.5865
2.5709	21.0459
2.5633	20.6876
2.5557	20.2274
2.5481	20.5442
2.5406	21.3943
2.5332	21.1003
2.5258	21.1553
2.5184	21.5062
2.5111	21.5936
2.5038	21.6291
2.4966	21.7073
2.4894	21.9417
2.4823	22.6079
2.4752	22.7307
2.4681	22.6512
2.4611	23.2338
2.4541	23.6531
2.4471	23.6612
2.4402	24.1598
2.4333	24.4658
2.4265	24.2865
2.4197	24.3404
2.413	24.7036
2.4063	24.815
2.3996	25.0691
2.3929	24.7775
2.3863	25.2423
2.3798	25.551
2.3732	25.3682
2.3667	25.7098
2.3603	25.7969
2.3538	26.5946
2.3474	26.6583
2.3411	27.3419
2.3347	26.7718
2.3285	27.5532
2.3222	26.878
2.316	26.9521
2.3098	26.3116
2.3036	27.0149
2.2975	27.2279
2.2914	27.7205
2.2854	27.7623
2.2793	28.649
2.2733	29.1324
2.2674	29.3782
2.2614	29.0376
2.2555	28.7705
2.2497	30.5868
2.2438	30.1146
2.238	30.9592
2.2322	31.3868
2.2265	31.164
2.2208	31.6184
2.2151	32.3597
2.2094	32.5927
2.2038	31.9684
2.1982	32.9952
2.1926	32.0429
2.187	32.431
2.1815	33.4627
2.176	33.2263
2.1706	33.6008
2.1651	34.249
2.1597	33.407
2.1543	33.5169
2.149	33.7838
2.1436	33.3002
2.1383	33.4683
2.1331	33.6856
2.1278	34.1143
2.1226	33.6878
2.1174	33.8996
2.1122	33.7043
2.1071	34.3283
2.1019	33.0979
2.0968	34.0101
2.0918	32.9646
2.0867	32.5958
2.0817	32.2467
2.0767	34.4413
2.0717	32.5994
2.0667	33.4765
2.0618	32.2403
2.0569	33.7604
2.052	30.2455
2.0472	33.1679
2.0423	32.5645
2.0375	32.5041
2.0327	30.8361
2.028	31.2585
2.0232	30.2384
2.0185	31.4895
2.0138	31.7839
2.0091	30.2832
2.0044	30.5923
1.9998	30.541
