Name: Quartz Conglomerate
Type: Rock
Class: Sedimentary
Subclass: Conglomerate
Particle Size: Solid
Sample No.: Ward49
Owner: JPL
Wavelength Range: VSWIR
Origin: Ward's Collection of American Rocks.  Sample locality - near Olean, Cattaraugus County, New York.
Description: The rock is composed principally of sub-angular and roundedpebbles of milky quartz of various size, cemented by a siliceous cementwhich is usually coated with clay material.Geologic age - Pennsylvanian.Collected by:  Ward's Natural Science Original ASTER Spectral Library name was jpl.perkin.rock.sedimentary.conglomerate.solid.ward49.spectrum.txt
Measurement: Hemispherical reflectance
X Units: Wavelength (micrometers)
Y Units: Reflectance (percent)
wavelength	value
2.5	47.6232
2.494	47.8251
2.488	47.9402
2.482	48.3295
2.476	48.7392
2.47	49.1387
2.464	49.5679
2.458	49.9183
2.452	50.3279
2.446	50.5836
2.44	50.9261
2.434	51.4748
2.428	51.952
2.422	52.528
2.416	52.9998
2.41	53.3708
2.404	53.672
2.398	53.7897
2.392	53.9951
2.386	54.0527
2.38	54.3842
2.374	54.7903
2.368	55.1727
2.362	55.4497
2.356	55.7209
2.35	56.0813
2.344	56.3693
2.338	56.7741
2.332	57.1097
2.326	57.4238
2.32	57.7774
2.314	58.0429
2.308	58.3154
2.302	58.627
2.296	58.9913
2.29	59.4823
2.284	59.8232
2.278	60.1995
2.272	60.3852
2.266	60.6002
2.26	60.6001
2.254	60.7029
2.248	60.8056
2.242	60.9826
2.236	60.8777
2.23	60.6408
2.224	59.9948
2.218	59.1258
2.212	57.7054
2.206	57.4091
2.2	58.3018
2.194	59.0164
2.188	59.3144
2.182	59.5911
2.176	59.9281
2.17	60.5352
2.164	61.2786
2.158	61.8632
2.152	62.5573
2.146	62.9826
2.14	63.3364
2.134	63.5257
2.128	63.6182
2.122	63.4838
2.116	63.1253
2.11	63.0249
2.104	62.8564
2.098	62.7248
2.092	62.7197
2.086	62.712
2.08	62.7
2.074	62.6504
2.068	62.504
2.062	62.3708
2.056	62.2497
2.05	62.0774
2.044	61.9375
2.038	61.6567
2.032	61.3823
2.026	61.0824
2.02	60.6562
2.014	60.2027
2.008	59.8188
2.002	59.3229
1.996	58.9067
1.99	58.304
1.984	57.7459
1.978	57.2045
1.972	56.607
1.966	56.0639
1.96	55.53
1.954	55.0771
1.948	54.6428
1.942	54.2756
1.936	54.1586
1.93	54.1124
1.924	54.1192
1.918	54.6076
1.912	55.2574
1.906	56.4262
1.9	58.2139
1.894	60.4522
1.888	62.9156
1.882	64.9913
1.876	66.6143
1.87	67.5772
1.864	68.5166
1.858	68.9843
1.852	69.2323
1.846	69.2965
1.84	69.4467
1.834	69.5285
1.828	69.4924
1.822	69.6946
1.816	69.6174
1.81	69.6367
1.804	69.6928
1.798	69.7517
1.792	69.8011
1.786	69.8503
1.78	69.9543
1.774	69.9401
1.768	70.0559
1.762	70.1009
1.756	70.209
1.75	70.3095
1.744	70.3485
1.738	70.4971
1.732	70.5729
1.726	70.6043
1.72	70.7488
1.714	70.7746
1.708	70.8005
1.702	70.7237
1.696	70.9048
1.69	70.8806
1.684	70.8658
1.678	70.8924
1.672	70.7962
1.666	70.8971
1.66	70.8966
1.654	70.9142
1.648	70.9018
1.642	70.9278
1.636	70.9154
1.63	70.8305
1.624	70.8423
1.618	70.8901
1.612	70.8777
1.606	70.7798
1.6	70.8045
1.594	70.688
1.588	70.6663
1.582	70.5582
1.576	70.4804
1.57	70.4305
1.564	70.3295
1.558	70.2235
1.552	70.0775
1.546	69.9513
1.54	69.826
1.534	69.6183
1.528	69.4531
1.522	69.2649
1.516	69.0977
1.51	68.8904
1.504	68.6681
1.498	68.4224
1.492	68.2345
1.486	67.9013
1.48	67.6557
1.474	67.3957
1.468	67.2342
1.462	67.0787
1.456	66.9804
1.45	66.9014
1.444	66.8987
1.438	66.9273
1.432	66.8522
1.426	66.4372
1.42	65.3624
1.414	63.9703
1.408	66.1295
1.402	67.1475
1.396	68.087
1.39	68.7734
1.384	68.8878
1.378	69.36
1.372	70.1734
1.366	70.4751
1.36	70.4085
1.354	70.656
1.348	70.8623
1.342	70.9942
1.336	71.0816
1.33	70.9546
1.324	71.0692
1.318	71.0382
1.312	70.9878
1.306	71.0098
1.3	71.0185
1.294	71.0507
1.288	70.9932
1.282	71.1716
1.276	71.1832
1.27	71.1315
1.264	71.0557
1.258	70.8979
1.252	70.8886
1.246	70.7958
1.24	70.7522
1.234	70.7032
1.228	70.6639
1.222	70.616
1.216	70.554
1.21	70.4386
1.204	70.413
1.198	70.2617
1.192	70.2742
1.186	70.179
1.18	70.0652
1.174	69.935
1.168	69.8989
1.162	69.7485
1.156	69.7081
1.15	69.6518
1.144	69.5584
1.138	69.464
1.132	69.2847
1.126	69.2473
1.12	69.0707
1.114	68.9619
1.108	68.8835
1.102	68.6869
1.096	68.6864
1.09	68.5489
1.084	68.3609
1.078	68.2254
1.072	68.0274
1.066	67.8779
1.06	67.7878
1.054	67.5747
1.048	67.453
1.042	67.3242
1.036	67.1144
1.03	66.9864
1.024	66.7637
1.018	66.5407
1.012	66.4453
1.006	66.2292
1	66.0441
0.994	65.8789
0.988	65.6083
0.982	65.4219
0.976	65.2787
0.97	65.0252
0.964	64.8354
0.958	64.8357
0.952	64.5868
0.946	64.4477
0.94	64.2909
0.934	64.1281
0.928	63.991
0.922	63.8905
0.916	63.6948
0.91	63.5123
0.904	63.4026
0.898	63.3463
0.892	63.2108
0.886	63.028
0.88	62.99
0.874	62.9238
0.868	62.8716
0.862	62.7542
0.856	62.3167
0.85	62.2407
0.844	62.2026
0.838	62.177
0.832	62.0897
0.826	62.0593
0.82	61.9181
0.814	61.7744
0.808	61.632
0.802	61.4765
0.796	61.2811
0.79	61.0462
0.784	60.8513
0.778	60.6665
0.772	60.396
0.766	60.2002
0.76	59.9535
0.754	59.7292
0.748	59.4309
0.742	59.1916
0.736	58.8961
0.73	58.6483
0.724	58.3568
0.718	58.0658
0.712	57.779
0.706	57.4888
0.7	57.1981
0.694	56.8955
0.688	56.6083
0.682	56.3442
0.676	56.0561
0.67	55.7597
0.664	55.5051
0.658	55.2387
0.652	54.9638
0.646	54.6925
0.64	54.4045
0.634	54.098
0.628	53.798
0.622	53.4509
0.616	53.0861
0.61	52.6862
0.604	52.2053
0.598	51.7009
0.592	51.1031
0.586	50.3939
0.58	49.6261
0.574	48.768
0.568	47.9012
0.562	46.9767
0.556	45.9046
0.55	44.8585
0.544	43.7619
0.538	42.6552
0.532	41.5435
0.526	40.46
0.52	39.421
0.514	38.3888
0.508	37.3952
0.502	36.434
0.496	35.5221
0.49	34.6584
0.484	33.8732
0.478	33.405
0.472	33.071
0.466	32.744
0.46	32.3194
0.454	31.8155
0.448	31.1565
0.442	30.3119
0.436	29.3895
0.43	28.4137
0.424	27.5078
0.418	26.7138
0.412	25.9738
0.406	25.2904
0.4	24.6073
