Name: Black Shale
Type: rock
Class: Sedimentary
Subclass: Shale
Particle Size: Fine
Sample No.: shale_4
Owner: JHU
Wavelength Range: All
Origin: Sample No. 385,  The Hunt and Salisbury Collection at the U.S.Geological Survey, Denver, Co.
Description: This is very similar to shale.6, but with more clay in the matrix and fewer forams (mostly uniserial, some biserial and plani/trocho spiral types). There is possibly more quartz than carbonate in the groundmass, while again both opaques and carbonaceous material are present here.Particle size was 0 - 75 Micrometers. Original ASTER Spectral Library name was jhu.becknic.rock.sedimentary.shale.fine.shale4.spectrum.txt
Measurement: Directional (10 Degree) Hemispherical Reflectance
X Units: Wavelength (micrometers)
Y Units: Reflectance (percent)
wavelength	value
14.983	3.2306
14.645	4.1211
14.321	3.0317
14.011	2.9469
13.715	4.2916
13.43	4.7245
13.158	4.6065
12.896	3.2915
12.644	2.8856
12.402	2.3625
12.169	4.1767
11.945	5.1934
11.729	6.5705
11.52	5.285
11.319	3.454
11.125	4.6873
10.937	3.4968
10.755	3.4154
10.58	3.5139
10.41	3.4263
10.245	2.771
10.086	2.3698
9.9313	2.2303
9.7814	2.2128
9.636	2.2621
9.4948	2.3767
9.3577	2.9083
9.2245	3.3708
9.095	3.3166
8.9691	3.1501
8.8467	3.1501
8.7275	3.1816
8.6116	3.0504
8.4986	3.6377
8.3886	4.2835
8.2814	5.7797
8.1769	8.3331
8.075	9.4127
7.9756	10.424
7.8786	10.595
7.784	11.177
7.6916	11.905
7.6014	11.481
7.5133	11.487
7.4272	10.82
7.343	9.106
7.2607	6.3969
7.1803	4.091
7.1016	3.4601
7.0246	2.9564
6.9493	2.4371
6.8755	2.2531
6.8034	2.1832
6.7327	2.3513
6.6634	2.6419
6.5956	3.3258
6.5292	4.1926
6.464	5.8006
6.4002	7.4479
6.3376	7.0017
6.2762	6.1494
6.216	5.6964
6.157	5.8389
6.099	6.5409
6.0421	7.3171
5.9863	8.2684
5.9315	8.9384
5.8777	10.458
5.8249	11.743
5.773	12.485
5.722	13.319
5.6719	13.866
5.6227	12.989
5.5744	6.3711
5.5268	11.82
5.4801	14.639
5.4341	16.575
5.3889	15.263
5.3445	13.9
5.3008	14.91
5.2578	17.051
5.2154	19.795
5.1738	20.636
5.1328	20.877
5.0925	20.794
5.0528	20.688
5.0137	20.784
4.9752	21.829
4.9373	23.339
4.9	24.829
4.8632	26.067
4.827	26.595
4.7913	26.881
4.7561	27.087
4.7215	27.024
4.6873	26.197
4.6536	26.409
4.6205	27.399
4.5877	27.833
4.5555	28.065
4.5237	28.103
4.4923	28.08
4.4614	28.248
4.4309	28.547
4.4008	28.84
4.3711	29.102
4.3418	29.138
4.3129	29.171
4.2844	29.204
4.2563	29.257
4.2285	29.356
4.2011	29.394
4.174	29.368
4.1473	29.262
4.1209	29.083
4.0949	28.787
4.0692	28.122
4.0438	26.287
4.0187	22.365
3.994	15.37
3.9695	13.42
3.9453	17.482
3.9214	20.257
3.8979	21.456
3.8746	22.019
3.8515	22.732
3.8288	23.997
3.8063	25.731
3.7841	27.674
3.7621	28.312
3.7404	28.492
3.7189	28.462
3.6977	28.312
3.6767	28.025
3.656	27.758
3.6355	27.477
3.6152	26.994
3.5951	26.319
3.5753	25.365
3.5557	24.393
3.5363	22.96
3.5171	19.346
3.4981	16.952
3.4793	15.886
3.4607	17.492
3.4423	17.091
3.4241	15.725
3.4061	16.029
3.3883	16.088
3.3707	16.513
3.3533	16.442
3.336	18.32
3.3189	18.626
3.302	18.663
3.2853	18.764
3.2687	18.811
3.2523	19.101
3.2361	19.17
3.22	18.952
3.204	18.607
3.1883	18.233
3.1727	17.836
3.1572	17.359
3.1419	16.94
3.1268	16.434
3.1117	15.912
3.0969	15.414
3.0821	14.97
3.0675	14.585
3.0531	14.266
3.0388	13.97
3.0246	13.757
3.0105	13.679
2.9966	13.755
2.9828	14.002
2.9692	14.179
2.9556	14.25
2.9422	14.365
2.9289	14.413
2.9157	14.548
2.9027	14.684
2.8897	14.907
2.8769	15.078
2.8642	15.179
2.8516	15.167
2.8391	15.024
2.8267	14.739
2.8144	14.187
2.8022	13.385
2.7902	11.914
2.7782	9.4021
2.7664	7.347
2.7546	6.6652
2.7429	7.6214
2.7314	9.3829
2.7199	14.2
2.7085	20.901
2.6973	24.851
2.6861	27.154
2.675	27.83
2.664	28.137
2.6531	28.622
2.6423	28.735
2.6315	28.581
2.6209	28.609
2.6103	28.666
2.5999	28.67
2.5895	28.691
2.5792	28.728
2.569	28.733
2.5588	28.688
2.5487	28.623
2.5388	28.479
2.5289	28.491
2.519	28.554
2.5093	28.577
2.4996	28.515
2.49	28.536
2.4805	28.522
2.471	28.548
2.4616	28.491
2.4523	28.515
2.4431	28.468
2.4339	28.518
2.4248	28.539
2.4157	28.567
2.4068	28.598
2.3979	28.613
2.389	28.595
2.3802	28.496
2.3715	28.525
2.3629	28.424
2.3543	28.279
2.3458	28.194
2.3373	28.21
2.3289	28.273
2.3206	28.347
2.3123	28.333
2.3041	28.392
2.2959	28.403
2.2878	28.447
2.2798	28.411
2.2718	28.434
2.2638	28.388
2.2559	28.323
2.2481	28.306
2.2403	28.199
2.2326	28.171
2.225	28.079
2.2173	27.927
2.2098	27.819
2.2023	27.833
2.1948	27.822
2.1874	27.918
2.18	27.992
2.1727	27.993
2.1655	28.025
2.1583	27.995
2.1511	28.016
2.144	27.952
2.1369	27.966
2.1299	27.906
2.1229	27.891
2.116	27.841
2.1091	27.768
2.1023	27.832
2.0955	27.82
2.0887	27.759
2.082	27.74
2.06	27.781
2.028	27.407
1.996	27.05
1.964	26.448
1.932	25.831
1.9	26.212
1.868	25.378
1.836	25.745
1.804	25.6
1.772	25.292
1.74	24.898
1.708	24.898
1.676	24.416
1.644	24.191
1.612	23.79
1.58	23.887
1.548	23.652
1.516	23.194
1.484	22.731
1.452	22.322
1.42	21.982
1.388	21.767
1.356	21.373
1.324	20.976
1.292	20.54
1.26	20.4
1.228	19.863
1.196	19.534
1.164	18.834
1.132	18.393
1.1	18.023
1.068	17.601
1.036	16.974
1.004	16.472
0.972	15.955
0.94	15.515
0.908	14.984
0.876	14.457
0.844	14.112
0.812	13.859
0.795	13.452
0.787	13.186
0.779	13.012
0.771	12.617
0.763	12.614
0.755	12.421
0.747	12.436
0.739	12.221
0.731	12.275
0.723	11.707
0.715	11.693
0.707	11.381
0.699	12.004
0.691	11.213
0.683	11.144
0.675	11.144
0.667	10.812
0.659	10.49
0.651	10.558
0.643	10.289
0.635	10.087
0.627	10.014
0.619	9.7562
0.611	9.5087
0.603	9.4584
0.595	9.4055
0.587	9.2757
0.579	8.8797
0.571	8.7238
0.563	8.521
0.555	8.4554
0.547	8.3075
0.539	8.2088
0.531	8.0402
0.523	7.9282
0.515	7.7237
0.507	7.4312
0.499	7.4499
0.491	7.4264
0.483	7.2304
0.475	7.0478
0.467	6.9261
0.459	6.6343
0.451	6.4987
0.443	6.4077
0.435	6.0081
0.427	6.1249
0.419	5.9089
0.411	5.8856
0.403	5.5671
