Name: Sandstone (Red)
Type: rock
Class: Sedimentary
Subclass: Sandstone
Particle Size: Fine
Sample No.: sandstone_7
Owner: JHU
Wavelength Range: All
Origin: Sample No. 365,  The Hunt and Salisbury Collection at the U.S.Geological Survey, Denver, Co.
Description: This is a well-sorted, fine-grained sandstone with slight porosity and good compaction. The well-rounded to subrounded quartz grains are all stained with ferruginous material which, along with some sericite, makes up the scant matrix.  The quartz is usually strain-free with moderate amounts of fluid inclusions and there are minor amounts of microcline and a few areas of silica redeposition. Particle size was 0-75 Micrometers. Original ASTER Spectral Library name was jhu.becknic.rock.sedimentary.sandstone.fine.sandst7.spectrum.txt
Measurement: Directional (10 Degree) Hemispherical Reflectance
X Units: Wavelength (micrometers)
Y Units: Reflectance (percent)
wavelength	value
14.983	2.5237
14.645	3.135
14.321	1.7437
14.011	3.1884
13.715	3.525
13.43	3.5691
13.158	3.0759
12.896	2.8387
12.644	2.3564
12.402	2.7227
12.169	3.8798
11.945	5.6327
11.729	6.1394
11.52	6.1701
11.319	5.9913
11.125	5.0998
10.937	4.5801
10.755	4.3626
10.58	4.2129
10.41	4.1578
10.245	4.2473
10.086	4.5075
9.9313	4.8075
9.7814	4.7993
9.636	4.6369
9.4948	4.9411
9.3577	6.8395
9.2245	7.4911
9.095	7.2173
8.9691	6.9937
8.8467	6.7324
8.7275	6.2484
8.6116	5.1218
8.4986	6.7434
8.3886	7.1412
8.2814	8.1436
8.1769	9.0384
8.075	6.968
7.9756	5.2884
7.8786	3.9998
7.784	3.5812
7.6916	3.6455
7.6014	3.7959
7.5133	4.2745
7.4272	4.6983
7.343	5.2205
7.2607	6.0094
7.1803	6.8395
7.1016	7.6917
7.0246	8.2737
6.9493	8.955
6.8755	9.3075
6.8034	9.4748
6.7327	9.15
6.6634	9.6619
6.5956	9.7036
6.5292	10.052
6.464	12.172
6.4002	12.372
6.3376	10.931
6.2762	9.3731
6.216	8.5003
6.157	9.742
6.099	11.926
6.0421	12.42
5.9863	12.174
5.9315	11.412
5.8777	12.913
5.8249	14.663
5.773	16.157
5.722	17.234
5.6719	16.861
5.6227	14.592
5.5744	13.984
5.5268	15.447
5.4801	17.63
5.4341	18.368
5.3889	14.651
5.3445	12.492
5.3008	13.342
5.2578	15.913
5.2154	20.144
5.1738	21.366
5.1328	21.376
5.0925	21.247
5.0528	20.477
5.0137	20.511
4.9752	22.286
4.9373	25.689
4.9	30.045
4.8632	34.578
4.827	36.758
4.7913	38.289
4.7561	39.898
4.7215	41.338
4.6873	41.648
4.6536	43.48
4.6205	45.395
4.5877	47.027
4.5555	48.124
4.5237	47.971
4.4923	46.777
4.4614	46.995
4.4309	48.584
4.4008	50.218
4.3711	52.036
4.3418	53.437
4.3129	54.035
4.2844	54.276
4.2563	55.171
4.2285	55.253
4.2011	55.859
4.174	56.378
4.1473	56.831
4.1209	57.261
4.0949	57.709
4.0692	57.977
4.0438	57.947
4.0187	57.671
3.994	57.089
3.9695	56.631
3.9453	57.104
3.9214	57.568
3.8979	57.739
3.8746	57.676
3.8515	57.637
3.8288	57.748
3.8063	57.538
3.7841	57.606
3.7621	57.45
3.7404	57.361
3.7189	57.201
3.6977	57.139
3.6767	57.032
3.656	56.815
3.6355	56.412
3.6152	56.023
3.5951	55.497
3.5753	54.921
3.5557	54.352
3.5363	53.782
3.5171	53.021
3.4981	52.173
3.4793	51.565
3.4607	51.205
3.4423	50.519
3.4241	49.976
3.4061	49.286
3.3883	48.949
3.3707	48.294
3.3533	47.713
3.336	47.107
3.3189	46.433
3.302	45.617
3.2853	45.043
3.2687	44.207
3.2523	43.271
3.2361	42.143
3.22	41.207
3.204	39.943
3.1883	38.606
3.1727	37.143
3.1572	35.562
3.1419	34.006
3.1268	32.418
3.1117	30.746
3.0969	29.185
3.0821	27.758
3.0675	26.225
3.0531	24.966
3.0388	23.762
3.0246	22.654
3.0105	21.829
2.9966	20.983
2.9828	20.124
2.9692	19.382
2.9556	18.833
2.9422	18.344
2.9289	18.017
2.9157	18.078
2.9027	18.429
2.8897	18.973
2.8769	19.401
2.8642	19.712
2.8516	19.413
2.8391	18.972
2.8267	18.335
2.8144	17.846
2.8022	18.056
2.7902	19.121
2.7782	21.179
2.7664	23.08
2.7546	23.617
2.7429	25.379
2.7314	28.093
2.7199	32.661
2.7085	38.65
2.6973	45.719
2.6861	55.149
2.675	59.385
2.664	60.058
2.6531	61.222
2.6423	61.842
2.6315	61.594
2.6209	61.621
2.6103	62.293
2.5999	62.556
2.5895	62.526
2.5792	62.839
2.569	62.556
2.5588	63.001
2.5487	63.128
2.5388	63.247
2.5289	63.353
2.519	63.585
2.5093	63.666
2.4996	63.696
2.49	63.812
2.4805	63.973
2.471	64.18
2.4616	64.413
2.4523	64.585
2.4431	64.732
2.4339	64.814
2.4248	64.864
2.4157	64.575
2.4068	64.321
2.3979	64.219
2.389	63.989
2.3802	63.568
2.3715	62.861
2.3629	62.185
2.3543	61.626
2.3458	61.542
2.3373	61.799
2.3289	62.41
2.3206	63.2
2.3123	63.634
2.3041	64.386
2.2959	64.702
2.2878	64.984
2.2798	65.038
2.2718	64.455
2.2638	63.433
2.2559	62.764
2.2481	63.63
2.2403	65.594
2.2326	66.746
2.225	67.369
2.2173	67.592
2.2098	67.602
2.2023	68.02
2.1948	68.156
2.1874	68.241
2.18	68.299
2.1727	68.405
2.1655	68.418
2.1583	68.528
2.1511	68.468
2.144	68.542
2.1369	68.405
2.1299	68.445
2.1229	68.572
2.116	68.533
2.1091	68.491
2.1023	68.557
2.0955	68.608
2.0887	68.722
2.082	68.588
2.06	68.741
2.028	68.16
1.996	66.439
1.964	65.008
1.932	62.702
1.9	61.497
1.868	66.566
1.836	68.275
1.804	68.517
1.772	67.957
1.74	68.635
1.708	68.459
1.676	68.342
1.644	68.09
1.612	67.766
1.58	67.613
1.548	67.793
1.516	67.258
1.484	66.557
1.452	65.756
1.42	64.802
1.388	63.768
1.356	66.161
1.324	65.989
1.292	66.058
1.26	66.483
1.228	66.772
1.196	66.302
1.164	65.535
1.132	65.283
1.1	64.782
1.068	64.758
1.036	63.443
1.004	62.336
0.972	61.154
0.94	59.871
0.908	58.803
0.876	58.046
0.844	56.663
0.812	56.144
0.795	55.525
0.787	55.346
0.779	55.743
0.771	55.304
0.763	55.204
0.755	54.818
0.747	55.017
0.739	54.424
0.731	54.115
0.723	53.298
0.715	53.435
0.707	52.261
0.699	54.047
0.691	52.49
0.683	52.153
0.675	51.852
0.667	51.322
0.659	50.308
0.651	50.882
0.643	49.502
0.635	49.301
0.627	48.445
0.619	48.498
0.611	47.029
0.603	45.801
0.595	44.368
0.587	41.954
0.579	39.667
0.571	36.733
0.563	33.285
0.555	29.32
0.547	27.472
0.539	25.302
0.531	24.124
0.523	22.986
0.515	21.974
0.507	21.089
0.499	20.464
0.491	19.785
0.483	19.194
0.475	18.35
0.467	17.567
0.459	17.78
0.451	17.162
0.443	16.204
0.435	15.278
0.427	14.549
0.419	13.732
0.411	13.155
0.403	12.535
