Name: Rhyolite
Type: Rock
Class: Igneous
Subclass: Felsic
Particle Size: Solid
Sample No.: AP-936-193b
Owner: United States Geological Survey, L. C. Rowan
Wavelength Range: All
Origin: Iberian Pyrite Belt, Spain
Description: Rhyolite, alteredSample was Whole Rock Chips. Original ASTER Spectral Library name was usgs.perknic.rock.igneous.felsic.solid.rhy193b.spectrum.txt
Measurement: Directional Hemispherical Reflectance
X Units: Wavelength (micrometers)
Y Units: Reflectance (percent)
wavelength	value
14.051	4.9234
13.79	5.4899
13.538	5.3457
13.295	5.6341
13.06	6.5817
12.834	8.7035
12.616	6.6641
12.404	6.1491
12.2	2.987
12.002	3.9964
11.811	4.7174
11.626	5.0161
11.446	5.8195
11.272	6.0255
11.103	6.7362
10.939	7.1997
10.78	7.9207
10.625	8.7138
10.475	9.8365
10.329	11.3918
10.187	13.5136
10.049	15.5736
9.914	17.5615
9.783	18.3958
9.656	21.2386
9.532	22.5158
9.411	25.2041
9.293	31.0339
9.178	30.8794
9.065	29.9318
8.956	28.3971
8.849	27.1817
8.744	26.9139
8.642	23.9269
8.543	26.2753
8.445	26.059
8.35	24.4213
8.257	22.3201
8.166	19.4052
8.077	11.5463
7.99	6.4684
7.905	3.6359
7.821	2.3999
7.739	1.854
7.659	1.6377
7.581	1.3699
7.504	1.236
7.429	1.1948
7.355	1.1639
7.283	1.2257
7.212	1.2154
7.143	1.2154
7.074	1.3184
7.007	1.3596
6.942	1.4214
6.877	1.4523
6.814	1.3802
6.752	1.4111
6.691	1.442
6.631	1.4832
6.572	1.4729
6.514	1.5862
6.458	1.648
6.402	1.7098
6.347	1.6171
6.293	1.6068
6.24	1.6068
6.188	1.5553
6.137	1.6377
6.086	1.751
6.037	1.8128
5.988	1.8025
5.94	1.8231
5.893	1.8643
5.846	1.9055
5.8	2.0085
5.755	2.0188
5.711	2.0394
5.667	1.9982
5.624	1.9055
5.582	1.9467
5.54	1.9776
5.499	2.1424
5.459	2.1527
5.419	2.2042
5.379	2.0291
5.341	2.06
5.302	2.06
5.265	2.1733
5.227	2.2557
5.191	2.3999
5.155	2.4823
5.119	2.4823
5.084	2.4926
5.049	2.472
5.015	2.4617
4.981	2.4308
4.948	2.7604
4.915	2.8737
4.883	3.3784
4.851	3.7801
4.819	3.9861
4.788	3.9964
4.758	4.1097
4.727	4.2333
4.697	4.2127
4.668	4.1509
4.638	4.4599
4.61	4.6247
4.581	4.9337
4.553	5.0985
4.525	5.0882
4.498	4.841
4.47	4.7174
4.444	5.0264
4.417	5.253
4.391	5.6444
4.365	6.1079
4.34	6.4684
4.314	6.6847
4.289	6.8186
4.265	6.9319
4.24	7.1276
4.216	7.107
4.192	7.2924
4.169	7.3954
4.145	7.4675
4.122	7.622
4.099	7.7868
4.077	7.8074
4.055	7.9413
4.032	7.7868
4.011	7.9207
3.989	7.8795
3.968	7.9001
3.947	7.9825
3.926	8.1473
3.905	8.0855
3.884	8.0855
3.864	8.0443
3.844	8.0546
3.824	8.0958
3.805	8.1061
3.785	8.0237
3.766	7.9104
3.747	7.9207
3.728	7.828
3.709	7.9722
3.691	8.034
3.673	7.9928
3.655	8.0443
3.637	7.9413
3.619	7.9104
3.601	7.8589
3.584	7.7868
3.567	7.7147
3.549	7.622
3.533	7.6323
3.516	7.3748
3.499	7.519
3.483	7.3027
3.466	7.2203
3.45	7.1173
3.434	6.9731
3.418	7.0349
3.403	6.7877
3.387	6.6744
3.372	6.4993
3.357	6.4169
3.341	6.2315
3.326	6.1903
3.312	6.1182
3.297	5.9843
3.282	5.9534
3.268	5.6753
3.253	5.665
3.239	5.5208
3.225	5.4384
3.211	5.1912
3.197	5.1088
3.183	5.0676
3.17	4.9955
3.156	5.0573
3.143	4.841
3.13	4.6659
3.117	4.6968
3.103	4.6144
3.091	4.3878
3.078	4.3569
3.065	4.3672
3.052	4.3466
3.04	4.2333
3.027	4.2127
3.015	4.4496
3.003	4.3054
2.991	4.1406
2.979	4.1612
2.967	4.1715
2.955	4.0891
2.943	4.2745
2.932	4.3672
2.92	4.0685
2.909	4.2539
2.897	4.1406
2.886	4.1921
2.875	4.2436
2.864	4.3569
2.853	4.4805
2.842	4.6659
2.831	4.7071
2.82	4.3363
2.809	4.2951
2.799	3.8625
2.788	3.5226
2.778	3.5432
2.767	3.4608
2.757	3.4814
2.747	4.0788
2.737	4.3775
2.727	5.562
2.717	6.0564
2.707	5.9946
2.697	6.4066
2.687	7.416
2.677	7.6941
2.668	7.7147
2.658	7.6838
2.649	7.8589
2.639	7.5808
2.63	7.9928
2.62	7.7353
2.611	8.0031
2.602	7.6426
2.593	7.7353
2.584	7.8177
2.575	7.9619
2.566	7.8589
2.557	8.0134
2.548	7.9722
2.54	8.0752
2.531	8.2709
2.522	7.8383
2.514	7.5808
2.505	8.0443
2.489	7.7722
2.461	7.3722
2.433	8.5722
2.405	11.4722
2.377	12.3722
2.349	11.6722
2.321	14.3722
2.293	20.8722
2.265	23.2722
2.237	17.5722
2.209	12.5722
2.181	20.1722
2.153	28.1722
2.125	30.3722
2.097	31.9722
2.069	32.5722
2.041	31.5722
2.013	28.7722
1.985	25.0722
1.957	21.6722
1.929	18.8722
1.901	17.7722
1.873	36.0722
1.845	45.3722
1.817	47.1722
1.789	47.6722
1.761	48.5722
1.733	49.6722
1.705	49.6722
1.677	50.1722
1.649	49.5722
1.621	49.3722
1.593	48.2722
1.565	46.5722
1.537	45.3722
1.509	43.0722
1.481	40.7722
1.453	38.1722
1.425	29.9722
1.397	28.9722
1.369	42.4722
1.341	44.6722
1.313	44.7722
1.285	43.8722
1.257	41.3722
1.229	40.2722
1.201	39.0722
1.173	38.1722
1.145	37.1722
1.117	36.6722
1.089	36.4722
1.061	36.6722
1.033	36.3722
1.005	36.4722
0.977	35.9722
0.949	35.2722
0.921	34.7722
0.893	34.1722
0.865	34.1722
0.837	34.4722
0.809	34.4722
0.799	33.7722
0.792	33.8722
0.785	33.6722
0.778	33.1722
0.771	33.1722
0.764	33.2722
0.757	32.6722
0.75	32.6722
0.743	32.5722
0.736	32.6722
0.729	32.2722
0.722	32.2722
0.715	32.1722
0.708	31.6722
0.701	31.4722
0.694	31.4722
0.687	31.1722
0.68	30.9722
0.673	31.3722
0.666	30.9722
0.659	30.8722
0.652	30.2722
0.645	30.5722
0.638	29.9722
0.631	29.4722
0.624	29.7722
0.617	29.4722
0.61	28.9722
0.603	28.2722
0.596	27.8722
0.589	27.7722
0.582	27.5722
0.575	26.9722
0.568	26.7722
0.561	26.0722
0.554	24.9722
0.547	25.2722
0.54	24.7722
0.533	23.7722
0.526	23.0722
0.519	22.3722
0.512	21.6722
0.505	20.5722
0.498	19.4722
0.491	18.7722
0.484	17.8722
0.477	17.2722
0.47	16.8722
0.463	16.1722
0.456	14.9722
0.449	14.3722
0.442	13.3722
0.435	12.0722
0.428	11.7722
0.421	10.6722
0.414	9.8722
0.407	8.9722
