Name: Andesite Porphyry
Type: Rock
Class: Igneous
Subclass: Intermediate
Particle Size: Solid
Sample No.: Ward30
Owner: JPL
Wavelength Range: All
Origin: Ward's Collection of American Rocks.  Sample locality - Near Ward, Boulder county, Colorado.
Description: A light gray, porphyritic rock with phenocrysts of plagioclaseand hornblende in a fine crystalline groundmass.Geologic age - Tertiary (Eocene).Collected by:  Ward's Natural Science Original ASTER Spectral Library name was jpl.nicolet.rock.igneous.intermediate.solid.ward30.spectrum.txt
Measurement: Hemispherical reflectance
X Units: Wavelength (micrometers)
Y Units: Reflectance (percent)
wavelength	value
15.3871	4.505
15.118	3.4793
14.8581	4.3634
14.6069	3.5553
14.3642	3.5083
14.1293	4.0811
13.9021	4.3143
13.682	4.126
13.4687	4.5574
13.2621	5.198
13.0616	5.1016
12.8672	6.124
12.6784	5.1661
12.4951	4.9287
12.317	3.3838
12.1439	3.7289
11.9757	4.681
11.812	4.9421
11.6527	5.376
11.4977	5.8513
11.3468	6.5762
11.1997	7.0168
11.0564	6.9315
10.9168	7.6784
10.7806	8.5799
10.6478	9.3813
10.5182	10.1655
10.3917	11.6269
10.2683	12.4614
10.1477	14.5478
10.0299	15.9898
9.9148	17.3869
9.8024	17.25
9.6925	18.6655
9.585	19.3223
9.4798	18.8781
9.377	19.5864
9.2763	20.6258
9.1778	19.9524
9.0814	19.6144
8.987	19.1622
8.8945	18.7913
8.8039	19.5657
8.7151	19.1812
8.6281	16.3811
8.5428	19.3891
8.4592	19.8068
8.3772	19.4872
8.2967	17.9281
8.2179	15.3346
8.1404	11.6717
8.0645	7.4906
7.9899	4.8726
7.9167	2.9897
7.8449	1.9858
7.7743	1.8526
7.705	1.6371
7.6369	1.5495
7.57	1.4401
7.5043	1.6256
7.4397	1.2413
7.3762	1.5567
7.3138	1.6732
7.2524	1.787
7.1921	1.8162
7.1327	1.7344
7.0743	1.6674
7.0169	2.0106
6.9604	2.2696
6.9047	2.1334
6.85	1.8819
6.7962	2.0853
6.7431	1.9943
6.6909	1.9773
6.6395	1.8208
6.5889	2.1374
6.539	2.0789
6.49	2.0164
6.4416	2.1312
6.3939	2.3096
6.347	2.3488
6.3007	2.3662
6.2551	2.122
6.2101	2.14
6.1658	2.2359
6.1222	2.0522
6.0791	2.3975
6.0366	2.2632
5.9948	2.4464
5.9535	2.1712
5.9127	2.3279
5.8726	2.1737
5.8329	2.3581
5.7938	2.4397
5.7552	2.5818
5.7172	2.6275
5.6796	2.5561
5.6425	2.8355
5.6059	2.7845
5.5698	2.8811
5.5341	2.8644
5.4989	2.7394
5.4641	3.1599
5.4298	3.1503
5.3959	3.3409
5.3624	2.9897
5.3294	3.039
5.2967	3.2804
5.2644	3.2142
5.2326	3.3133
5.2011	3.4096
5.17	3.6048
5.1392	3.816
5.1088	3.6123
5.0788	3.7665
5.0491	3.9438
5.0198	4.0927
4.9908	3.7959
4.9622	4.2015
4.9338	4.5515
4.9058	4.5089
4.8781	5.083
4.8508	5.2001
4.8237	5.2027
4.7969	5.2927
4.7704	5.6521
4.7443	5.7151
4.7184	5.6957
4.6927	5.7909
4.6674	5.923
4.6423	6.4502
4.6175	6.3305
4.593	6.8135
4.5687	6.8131
4.5447	7.0808
4.5209	7.4449
4.4974	7.3958
4.4741	7.4437
4.451	7.7325
4.4282	8.1154
4.4057	8.3318
4.3833	8.9011
4.3612	9.1672
4.3393	9.3145
4.3176	9.2958
4.2962	9.4827
4.2749	9.1638
4.2539	9.7854
4.233	9.7762
4.2124	10.6008
4.192	11.1813
4.1717	11.2138
4.1517	11.3632
4.1319	11.6988
4.1122	11.892
4.0927	12.0782
4.0734	12.0088
4.0543	12.3524
4.0354	12.4384
4.0166	12.3493
3.9981	12.2545
3.9796	12.2015
3.9614	12.4793
3.9433	12.4843
3.9254	13.0216
3.9077	12.7121
3.8901	12.6333
3.8726	12.5353
3.8554	12.6036
3.8382	13.2172
3.8213	13.084
3.8045	12.7317
3.7878	13.1385
3.7713	12.8194
3.7549	12.996
3.7386	12.9514
3.7225	12.5983
3.7066	12.3551
3.6907	12.6928
3.675	12.9409
3.6595	12.3676
3.644	12.4721
3.6287	12.4075
3.6136	12.1839
3.5985	12.0918
3.5836	11.5303
3.5688	11.8369
3.5541	11.3747
3.5396	11.4184
3.5251	10.6722
3.5108	10.4006
3.4966	10.3993
3.4825	9.6834
3.4685	10.0551
3.4547	9.829
3.4409	9.3846
3.4273	9.6731
3.4137	9.0122
3.4003	8.7097
3.387	8.4851
3.3738	8.4335
3.3606	8.3013
3.3476	8.4158
3.3347	7.9504
3.3219	7.6026
3.3092	8.1161
3.2965	7.4109
3.284	6.6672
3.2716	7.5547
3.2593	7.1226
3.247	7.5174
3.2348	6.4484
3.2228	6.6934
3.2108	6.1551
3.1989	6.0317
3.1871	6.6626
3.1754	5.7721
3.1638	5.971
3.1523	5.2931
3.1408	5.3648
3.1294	5.5719
3.1181	5.054
3.1069	5.5258
3.0958	5.4663
3.0848	4.4457
3.0738	6.1932
3.0629	4.8417
3.0521	4.7417
3.0413	4.7645
3.0307	4.5856
3.0201	4.6306
3.0096	4.6038
2.9991	4.8985
2.9887	5.4022
2.9784	4.7072
2.9682	4.2629
2.9581	4.8161
2.948	4.0641
2.9379	4.5181
2.928	5.2828
2.9181	4.8548
2.9083	5.3236
2.8985	4.7204
2.8888	4.6345
2.8792	5.5434
2.8697	4.8306
2.8602	4.399
2.8507	4.7101
2.8413	4.5255
2.832	6.1805
2.8228	4.5817
2.8136	5.0199
2.8045	5.6383
2.7954	5.833
2.7864	5.0348
2.7774	5.1723
2.7685	5.0373
2.7597	4.355
2.7509	5.1339
2.7422	6.4738
2.7335	5.8345
2.7249	6.6101
2.7163	5.8561
2.7078	6.9162
2.6994	7.4493
2.691	10.6997
2.6826	12.342
2.6743	14.9684
2.666	15.7197
2.6578	16.6934
2.6497	16.802
2.6416	17.9968
2.6336	17.7453
2.6256	17.4935
2.6176	18.563
2.6097	19.0699
2.6018	18.2038
2.594	17.9851
2.5863	18.773
2.5785	18.1478
2.5709	17.5393
2.5633	18.5339
2.5557	18.9401
2.5481	17.6806
2.5406	18.8294
2.5332	19.0777
2.5258	18.0837
2.5184	18.9848
2.5111	19.1223
2.5038	18.9292
2.4966	19.0345
2.4894	18.4786
2.4823	20.0572
2.4752	19.3256
2.4681	20.1005
2.4611	19.8942
2.4541	20.5209
2.4471	19.8878
2.4402	19.6389
2.4333	20.4011
2.4265	21.3239
2.4197	20.7709
2.413	22.1989
2.4063	20.9386
2.3996	19.5416
2.3929	21.5667
2.3863	20.8449
2.3798	20.6177
2.3732	20.4269
2.3667	21.7695
2.3603	20.1947
2.3538	19.2159
2.3474	21.18
2.3411	20.8104
2.3347	19.6345
2.3285	22.2557
2.3222	20.8093
2.316	22.2726
2.3098	21.6642
2.3036	22.2111
2.2975	23.082
2.2914	23.5464
2.2854	23.5945
2.2793	24.0884
2.2733	21.739
2.2674	23.0081
2.2614	22.8653
2.2555	22.5654
2.2497	23.6912
2.2438	23.035
2.238	24.0281
2.2322	24.3185
2.2265	23.7597
2.2208	24.838
2.2151	24.5069
2.2094	22.7827
2.2038	22.8728
2.1982	24.257
2.1926	23.9577
2.187	23.3265
2.1815	23.7128
2.176	24.6425
2.1706	23.3877
2.1651	25.6716
2.1597	25.7524
2.1543	25.3663
2.149	25.149
2.1436	24.3902
2.1383	25.3268
2.1331	26.0932
2.1278	28.0419
2.1226	25.7862
2.1174	25.2568
2.1122	25.2548
2.1071	26.7387
2.1019	25.4839
2.0968	26.2646
2.0918	25.0528
2.0867	26.1312
2.0817	26.7814
2.0767	27.7707
2.0717	27.6852
2.0667	27.7818
2.0618	26.0419
2.0569	26.1588
2.052	25.9647
2.0472	26.9813
2.0423	27.8634
2.0375	23.2039
2.0327	24.3431
2.028	25.2915
2.0232	26.8595
2.0185	25.6816
2.0138	26.6697
2.0091	27.3131
2.0044	24.3788
1.9998	27.0959
