Name: Ferruginous Sandstone
Type: rock
Class: Sedimentary
Subclass: Sandstone
Particle Size: Coarse
Sample No.: sandstone_4
Owner: JHU
Wavelength Range: All
Origin: Sample No. 452,  The Hunt and Salisbury Collection at the U.S.Geological Survey, Denver, Co.
Description: Poorly sorted, low porosity sandstone containing medium-grained, well-rounded to subrounded quartz grains coated with ferruginous material (clay) and some carbonate. Sample displays quartz redeposition and pressure solution of the quartz, recrystallization of carbonate as scattered large anhedra, and silica recrystallization; also, some microcline and carbonaceous material. Particle size was 500 - 1500 Micrometers. Original ASTER Spectral Library name was jhu.becknic.rock.sedimentary.sandstone.coarse.sandst4.spectrum.txt
Measurement: Directional (10 Degree) Hemispherical Reflectance
X Units: Wavelength (micrometers)
Y Units: Reflectance (percent)
wavelength	value
14.0112	2.3785
13.7147	2.7697
13.4304	3.1976
13.1577	3.641
12.8959	5.6793
12.6443	4.8947
12.4023	4.0241
12.1694	1.7643
11.945	2.3139
11.7289	2.5868
11.5203	3.262
11.3191	4.8296
11.1248	3.6642
10.937	3.7082
10.7555	3.8166
10.5799	3.999
10.4099	4.3391
10.2454	4.7344
10.0859	5.2098
9.9313	5.7998
9.7814	6.6348
9.636	7.9429
9.4948	10.2435
9.3577	17.3706
9.2245	20.953
9.095	20.9728
8.9691	20.9996
8.8467	20.3847
8.7275	18.7666
8.6116	14.5842
8.4986	19.4631
8.3886	20.6639
8.2814	22.2796
8.1769	22.1873
8.075	15.4963
7.9756	10.4761
7.8786	6.777
7.784	5.2282
7.6916	4.3853
7.6014	3.6343
7.5133	3.3377
7.4272	3.1972
7.343	3.1098
7.2607	2.9933
7.1803	3.1922
7.1016	3.9987
7.0246	4.3107
6.9493	4.3705
6.8755	4.5155
6.8034	4.6059
6.7327	4.7909
6.6634	5.1768
6.5956	5.5747
6.5292	5.707
6.464	5.5606
6.4002	3.802
6.3376	2.4615
6.2762	1.9105
6.216	1.6882
6.157	1.6128
6.099	1.6406
6.0421	1.6968
5.9863	1.722
5.9315	1.6982
5.8777	1.8103
5.8249	1.8894
5.773	1.9927
5.722	2.0954
5.6719	2.0581
5.6227	1.9165
5.5744	1.7224
5.5268	1.9628
5.4801	2.2533
5.4341	2.3937
5.3889	2.3691
5.3445	2.3919
5.3008	2.4837
5.2578	2.6007
5.2154	2.8713
5.1738	2.9807
5.1328	3.0029
5.0925	2.8965
5.0528	2.9931
5.0137	2.9759
4.9752	3.0706
4.9373	3.3249
4.9	4.0382
4.8632	5.8874
4.827	7.4093
4.7913	8.5549
4.7561	9.3714
4.7215	9.1894
4.6873	7.1535
4.6536	8.1843
4.6205	10.5974
4.5877	11.5808
4.5555	11.3312
4.5237	9.517
4.4923	7.5488
4.4614	7.3923
4.4309	8.3601
4.4008	9.4986
4.3711	11.1463
4.3418	12.261
4.3129	12.3318
4.2844	11.9526
4.2563	12.4145
4.2285	12.54
4.2011	12.8209
4.174	13.0737
4.1473	13.2558
4.1209	13.2116
4.0949	13.1517
4.0692	12.6194
4.0438	11.2687
4.0187	9.7945
3.994	8.9571
3.9695	8.8472
3.9453	9.6648
3.9214	10.2827
3.8979	10.378
3.8746	10.3325
3.8515	10.3486
3.8288	10.8675
3.8063	12.1763
3.7841	14.2263
3.7621	14.6871
3.7404	14.7854
3.7189	15.167
3.6977	15.5756
3.6767	15.9386
3.656	16.064
3.6355	15.9328
3.6152	15.6726
3.5951	15.1857
3.5753	14.1856
3.5557	13.6699
3.5363	12.5211
3.5171	10.896
3.4981	10.3551
3.4793	9.9773
3.4607	10.4699
3.4423	10.7192
3.4241	10.6802
3.4061	10.5015
3.3883	10.2268
3.3707	10.0502
3.3533	9.7179
3.336	10.8663
3.3189	12.0102
3.302	12.2394
3.2853	12.2002
3.2687	12.1028
3.2523	11.849
3.2361	11.5454
3.22	11.2336
3.204	10.8716
3.1883	10.5211
3.1727	10.127
3.1572	9.6176
3.1419	9.2803
3.1268	9.0222
3.1117	8.6298
3.0969	8.4525
3.0821	8.4321
3.0675	8.2299
3.0531	8.0888
3.0388	7.8966
3.0246	7.7912
3.0105	7.6594
2.9966	7.6251
2.9828	7.5165
2.9692	7.2445
2.9556	7.0667
2.9422	7.2791
2.9289	7.3282
2.9157	7.3749
2.9027	7.5605
2.8897	7.6342
2.8769	7.767
2.8642	7.9235
2.8516	8.0656
2.8391	8.2291
2.8267	8.24
2.8144	8.2802
2.8022	8.2582
2.7902	8.0483
2.7782	7.8148
2.7664	7.8332
2.7546	8.207
2.7429	9.298
2.7314	10.8776
2.7199	13.1041
2.7085	15.021
2.6973	16.2004
2.6861	16.7887
2.675	16.9562
2.664	17.0913
2.6531	17.1899
2.6423	17.1968
2.6315	17.1605
2.6209	17.1482
2.6103	17.0763
2.5999	17.0889
2.5895	16.9925
2.5792	16.9263
2.569	16.8202
2.5588	16.5657
2.5487	16.1035
2.5388	15.6958
2.5289	15.7562
2.519	15.9841
2.5093	16.0437
2.4996	16.1006
2.49	16.136
2.4805	16.2286
2.471	16.3441
2.4616	16.465
2.4523	16.5447
2.4431	16.5666
2.4339	16.5822
2.4248	16.5595
2.4157	16.6011
2.4068	16.582
2.3979	16.5448
2.389	16.5946
2.3802	16.4506
2.3715	16.4437
2.3629	16.2728
2.3543	16.0357
2.3458	15.9199
2.3373	15.801
2.3289	15.9388
2.3206	15.9821
2.3123	16.0334
2.3041	16.0465
2.2959	16.0195
2.2878	16.0107
2.2798	16.1362
2.2718	16.0937
2.2638	16.1425
2.2559	16.1147
2.2481	16.1025
2.2403	16.0685
2.2326	16.0221
2.225	15.9728
2.2173	15.9958
2.2098	15.9367
2.2023	15.9305
2.1948	16.014
2.1874	15.9216
2.18	15.9922
2.1727	16.0321
2.1655	15.8097
2.1583	15.901
2.1511	15.846
2.144	15.8687
2.1369	15.7716
2.1299	15.7285
2.1229	15.8206
2.116	15.766
2.1091	15.7532
2.1023	15.723
2.0955	15.6922
2.0887	15.6651
2.082	15.6438
2.06	15.51
2.028	15.2697
1.996	15.0676
1.964	15.0509
1.932	14.9212
1.9	14.7943
1.868	14.935
1.836	14.9212
1.804	15.0028
1.772	14.7232
1.74	15.0371
1.708	15.0165
1.676	14.817
1.644	14.8694
1.612	14.5609
1.58	14.7679
1.548	14.9367
1.516	14.9799
1.484	15.0964
1.452	15.1805
1.42	15.1944
1.388	15.3576
1.356	15.6558
1.324	15.8763
1.292	16.2956
1.26	16.5316
1.228	16.7149
1.196	17.1593
1.164	17.6157
1.132	18.2706
1.1	18.921
1.068	19.215
1.036	19.7902
1.004	20.9227
0.972	21.0025
0.94	21.0995
0.908	20.8429
0.876	20.8432
0.844	21.2812
0.812	21.2957
0.795	21.3042
0.787	21.1675
0.779	21.2428
0.771	20.8521
0.763	20.8643
0.755	20.6263
0.747	20.4756
0.739	19.8019
0.731	19.556
0.723	19.3306
0.715	18.7184
0.707	18.3748
0.699	17.9343
0.691	17.5861
0.683	17.0476
0.675	16.903
0.667	16.8597
0.659	16.6024
0.651	16.5013
0.643	15.9958
0.635	16.1885
0.627	15.5835
0.619	15.7549
0.611	15.1811
0.603	14.8752
0.595	14.8396
0.587	14.2398
0.579	14.0793
0.571	13.0501
0.563	12.6277
0.555	11.6726
0.547	11.0176
0.539	10.8194
0.531	10.0853
0.523	10.2647
0.515	10.007
0.507	9.8635
0.499	9.579
0.491	9.3958
0.483	9.512
0.475	9.4539
0.467	9.0302
0.459	9.234
0.451	8.5228
0.443	8.6676
0.435	8.2014
0.427	8.1301
0.419	8.0517
0.411	7.3856
0.403	7.0822
