Name: Gray Quartzite
Type: rock
Class: Metamorphic
Subclass: Quartzite
Particle Size: Fine
Sample No.: qrtzit5
Owner: JHU
Wavelength Range: All
Origin: Sample No. 382, The Hunt and Salisbury Collection at the U.S.Geological Survey, Denver, Co.
Description: This is a sample much like the previous one in composition.  It is a fine-grained slightly metamorphosed well-compacted sandstone with some secondary quartz deposition, and much more silica/chalcedony deposition.  The quartz grains, unlike the previous rock, show evidence of only weak strain and fewer fluid inclusions.  In addition there are scattered detrital green and brown tourmaline and zircon. Particle size was 0-75 Micrometer.   Original ASTER Spectral Library name was jhu.becknic.rock.metamorphic.quartzite.fine.qrtzit5.spectrum.txt
Measurement: Directional (10 Degree) Hemispherical Reflectance
X Units: Wavelength (micrometers)
Y Units: Reflectance (percent)
wavelength	value
14.983	8.5301
14.645	6.3348
14.321	2.3708
14.011	7.1322
13.715	8.6743
13.43	8.1746
13.158	5.9803
12.896	4.4348
12.644	3.4982
12.402	2.6052
12.169	2.3104
11.945	6.1608
11.729	8.7984
11.52	10.005
11.319	10.859
11.125	10.974
10.937	11.181
10.755	10.642
10.58	9.6694
10.41	9.1015
10.245	8.3956
10.086	7.3768
9.9313	7.0081
9.7814	6.6855
9.636	6.3303
9.4948	7.3787
9.3577	12.99
9.2245	14.922
9.095	14.484
8.9691	14.14
8.8467	13.473
8.7275	12.197
8.6116	9.1821
8.4986	12.491
8.3886	12.279
8.2814	13.224
8.1769	15.11
8.075	11.221
7.9756	7.5589
7.8786	4.2871
7.784	2.703
7.6916	1.8559
7.6014	1.0436
7.5133	0.6375
7.4272	0.5006
7.343	0.5506
7.2607	0.7424
7.1803	1.127
7.1016	1.7032
7.0246	2.2798
6.9493	3.0732
6.8755	3.6209
6.8034	3.7298
6.7327	3.3997
6.6634	3.9098
6.5956	4.1021
6.5292	4.5407
6.464	8.1839
6.4002	8.7854
6.3376	6.3921
6.2762	4.1646
6.216	3.0909
6.157	4.2395
6.099	7.1009
6.0421	8.2504
5.9863	7.5402
5.9315	6.498
5.8777	9.4833
5.8249	13.244
5.773	16.511
5.722	18.794
5.6719	16.339
5.6227	10.084
5.5744	8.684
5.5268	10.392
5.4801	13.667
5.4341	13.684
5.3889	7.2949
5.3445	4.782
5.3008	5.3023
5.2578	7.7619
5.2154	13.481
5.1738	14.78
5.1328	14.011
5.0925	13.082
5.0528	11.595
5.0137	11.365
4.9752	13.573
4.9373	18.281
4.9	26.438
4.8632	38.04
4.827	43.72
4.7913	47.193
4.7561	49.496
4.7215	50.331
4.6873	47.166
4.6536	50.348
4.6205	54.087
4.5877	55.332
4.5555	54.638
4.5237	50.605
4.4923	44.996
4.4614	43.968
4.4309	46.468
4.4008	49.342
4.3711	53.137
4.3418	55.959
4.3129	56.673
4.2844	56.657
4.2563	57.967
4.2285	58.183
4.2011	58.498
4.174	59.435
4.1473	60.499
4.1209	61.613
4.0949	62.825
4.0692	63.696
4.0438	63.81
4.0187	63.519
3.994	63.359
3.9695	63.73
3.9453	64.491
3.9214	64.803
3.8979	64.502
3.8746	63.824
3.8515	63.346
3.8288	63.236
3.8063	63.172
3.7841	62.682
3.7621	61.839
3.7404	61.207
3.7189	61.026
3.6977	61.123
3.6767	61.163
3.656	60.858
3.6355	60.236
3.6152	59.497
3.5951	58.722
3.5753	57.881
3.5557	56.903
3.5363	55.704
3.5171	54.403
3.4981	53.271
3.4793	52.914
3.4607	52.075
3.4423	51.21
3.4241	50.041
3.4061	49.223
3.3883	48.739
3.3707	47.855
3.3533	47.426
3.336	46.812
3.3189	45.868
3.302	44.741
3.2853	43.593
3.2687	42.419
3.2523	41.34
3.2361	40.335
3.22	39.228
3.204	38.213
3.1883	37.169
3.1727	36.168
3.1572	35.171
3.1419	34.21
3.1268	33.289
3.1117	32.535
3.0969	31.91
3.0821	31.267
3.0675	30.726
3.0531	30.261
3.0388	29.772
3.0246	29.323
3.0105	28.934
2.9966	28.582
2.9828	28.215
2.9692	27.669
2.9556	27.33
2.9422	27.214
2.9289	27.227
2.9157	27.189
2.9027	27.527
2.8897	27.972
2.8769	28.481
2.8642	29.289
2.8516	30.183
2.8391	30.932
2.8267	31.714
2.8144	32.332
2.8022	32.672
2.7902	31.83
2.7782	32.952
2.7664	34.101
2.7546	37.01
2.7429	40.671
2.7314	45.662
2.7199	51.17
2.7085	56.423
2.6973	62.052
2.6861	66.023
2.675	67.882
2.664	69.366
2.6531	71.034
2.6423	71.946
2.6315	72.108
2.6209	72.532
2.6103	73.001
2.5999	73.078
2.5895	73.177
2.5792	73.401
2.569	73.536
2.5588	73.665
2.5487	73.905
2.5388	74.162
2.5289	74.437
2.519	74.647
2.5093	74.921
2.4996	75.173
2.49	75.534
2.4805	75.767
2.471	76.168
2.4616	76.462
2.4523	76.849
2.4431	77.243
2.4339	77.634
2.4248	77.995
2.4157	78.389
2.4068	78.725
2.3979	78.952
2.389	79.235
2.3802	79.386
2.3715	79.576
2.3629	79.875
2.3543	79.979
2.3458	80.045
2.3373	80.229
2.3289	80.209
2.3206	80.239
2.3123	80.247
2.3041	80.164
2.2959	80.065
2.2878	80.194
2.2798	80.256
2.2718	80.246
2.2638	80.255
2.2559	80.231
2.2481	80.266
2.2403	80.349
2.2326	80.505
2.225	80.562
2.2173	80.568
2.2098	80.633
2.2023	80.654
2.1948	80.865
2.1874	81.021
2.18	81.362
2.1727	81.406
2.1655	81.586
2.1583	81.649
2.1511	81.669
2.144	81.799
2.1369	81.853
2.1299	81.749
2.1229	81.783
2.116	81.68
2.1091	81.633
2.1023	81.66
2.0955	81.724
2.0887	81.664
2.082	81.626
2.06	81.353
2.028	80.188
1.996	78.58
1.964	76.936
1.932	74.19
1.9	73.35
1.868	79.015
1.836	80.335
1.804	79.674
1.772	79.422
1.74	79.833
1.708	79.952
1.676	80.048
1.644	80.015
1.612	78.997
1.58	79.999
1.548	78.873
1.516	78.216
1.484	78.119
1.452	77.643
1.42	77.357
1.388	77.485
1.356	78.139
1.324	78.016
1.292	77.837
1.26	78.296
1.228	78.209
1.196	76.912
1.164	76.286
1.132	76.788
1.1	76.696
1.068	75.783
1.036	76.47
1.004	75.807
0.972	74.998
0.94	74.429
0.908	74.377
0.876	73.667
0.844	72.645
0.812	73.071
0.795	73.608
0.787	73.58
0.779	73.731
0.771	73.109
0.763	73.416
0.755	73.638
0.747	72.904
0.739	72.762
0.731	73.123
0.723	72.695
0.715	72.816
0.707	71.867
0.699	73.025
0.691	72.601
0.683	72.1
0.675	72.793
0.667	71.851
0.659	72.74
0.651	71.874
0.643	71.905
0.635	71.237
0.627	70.614
0.619	71.084
0.611	70.718
0.603	70.111
0.595	69.76
0.587	69.167
0.579	69.58
0.571	69.649
0.563	68.491
0.555	67.361
0.547	66.727
0.539	66.672
0.531	65.128
0.523	64.721
0.515	63.982
0.507	63.283
0.499	62.366
0.491	62.122
0.483	61.711
0.475	60.69
0.467	59.987
0.459	61.287
0.451	60.005
0.443	59.128
0.435	59.19
0.427	57.515
0.419	56.864
0.411	55.904
0.403	55.276
