Name: Basalt
Type: Rock
Class: Igneous
Subclass: Mafic
Particle Size: Solid
Sample No.: Ward35
Owner: JPL
Wavelength Range: All
Origin: Ward's Collection of American Rocks.  Sample locality - Chimney Rock, Somerset County, New Jersey.
Description: A greenish-black rock with aphanitic texture, and occasionalred bands due to iron oxide stain.Geologic Age - Upper Triassic.Collected by:  Ward's Natural Science Original ASTER Spectral Library name was jpl.nicolet.rock.igneous.mafic.solid.ward35.spectrum.txt
Measurement: Hemispherical reflectance
X Units: Wavelength (micrometers)
Y Units: Reflectance (percent)
wavelength	value
15.3871	2.8159
15.118	3.1288
14.8581	3.3014
14.6069	3.879
14.3642	2.6787
14.1293	2.8452
13.9021	3.0338
13.682	3.0615
13.4687	3.1367
13.2621	3.3672
13.0616	3.1622
12.8672	3.2675
12.6784	3.9065
12.4951	4.0742
12.317	3.4426
12.1439	4.4287
11.9757	5.021
11.812	4.7495
11.6527	5.5991
11.4977	6.0867
11.3468	6.5812
11.1997	6.5055
11.0564	6.7315
10.9168	7.4055
10.7806	7.8968
10.6478	7.6216
10.5182	8.5009
10.3917	8.948
10.2683	9.7715
10.1477	10.7491
10.0299	12.2805
9.9148	13.3715
9.8024	14.5442
9.6925	15.175
9.585	14.5674
9.4798	13.4961
9.377	11.5873
9.2763	9.6211
9.1778	8.2088
9.0814	6.7029
8.987	6.0399
8.8945	5.041
8.8039	3.8955
8.7151	3.7359
8.6281	2.9546
8.5428	3.1063
8.4592	3.6338
8.3772	2.9585
8.2967	2.6431
8.2179	2.6334
8.1404	2.1315
8.0645	2.1127
7.9899	2.0054
7.9167	1.8942
7.8449	1.9318
7.7743	1.955
7.705	2.137
7.6369	1.9326
7.57	2.2863
7.5043	2.0493
7.4397	2.1474
7.3762	2.2791
7.3138	2.6409
7.2524	2.4695
7.1921	2.4789
7.1327	2.6094
7.0743	2.7161
7.0169	2.745
6.9604	2.7822
6.9047	2.6629
6.85	2.879
6.7962	2.8656
6.7431	2.7399
6.6909	2.9997
6.6395	2.9299
6.5889	2.8178
6.539	2.9656
6.49	2.9836
6.4416	2.8297
6.3939	2.7494
6.347	2.6344
6.3007	2.5488
6.2551	2.4637
6.2101	2.3662
6.1658	2.5459
6.1222	2.3193
6.0791	2.691
6.0366	2.4841
5.9948	2.2698
5.9535	2.298
5.9127	2.4098
5.8726	2.5248
5.8329	2.4335
5.7938	2.6121
5.7552	2.6408
5.7172	2.747
5.6796	2.6964
5.6425	2.7963
5.6059	3.0305
5.5698	2.964
5.5341	2.8097
5.4989	2.9255
5.4641	3.139
5.4298	3.2948
5.3959	2.9328
5.3624	3.2404
5.3294	3.3055
5.2967	3.0599
5.2644	3.1895
5.2326	3.2418
5.2011	3.4314
5.17	3.553
5.1392	3.3679
5.1088	3.2749
5.0788	3.5215
5.0491	3.5081
5.0198	3.5718
4.9908	3.6086
4.9622	3.3753
4.9338	3.5262
4.9058	3.5041
4.8781	3.7142
4.8508	3.6829
4.8237	3.6677
4.7969	3.5753
4.7704	3.5454
4.7443	3.7457
4.7184	3.909
4.6927	3.5518
4.6674	3.8278
4.6423	4.1711
4.6175	3.6582
4.593	4.1765
4.5687	3.8619
4.5447	4.0703
4.5209	3.939
4.4974	4.0952
4.4741	4.1074
4.451	4.0897
4.4282	4.3308
4.4057	4.2406
4.3833	4.3868
4.3612	4.2431
4.3393	4.5285
4.3176	4.3265
4.2962	4.2845
4.2749	4.1575
4.2539	4.2459
4.233	4.2879
4.2124	4.2624
4.192	4.1657
4.1717	4.6241
4.1517	4.4346
4.1319	4.6935
4.1122	4.7878
4.0927	4.6476
4.0734	4.9063
4.0543	4.4188
4.0354	4.3308
4.0166	4.6639
3.9981	4.4271
3.9796	4.634
3.9614	4.5803
3.9433	4.563
3.9254	4.7183
3.9077	4.0668
3.8901	4.8078
3.8726	4.4773
3.8554	4.7157
3.8382	4.3923
3.8213	4.6686
3.8045	4.5284
3.7878	4.6378
3.7713	4.4711
3.7549	4.5856
3.7386	4.6674
3.7225	4.0787
3.7066	4.4195
3.6907	4.2907
3.675	4.7546
3.6595	4.2062
3.644	4.507
3.6287	4.5696
3.6136	4.5741
3.5985	4.2642
3.5836	4.1211
3.5688	4.2472
3.5541	4.358
3.5396	4.4157
3.5251	4.352
3.5108	4.0898
3.4966	4.0112
3.4825	4.3473
3.4685	4.7778
3.4547	4.1194
3.4409	3.7184
3.4273	4.8612
3.4137	4.2167
3.4003	2.9182
3.387	4.1205
3.3738	4.0837
3.3606	3.5666
3.3476	4.5059
3.3347	4.1984
3.3219	3.667
3.3092	3.9291
3.2965	4.1106
3.284	3.8201
3.2716	3.4552
3.2593	3.8189
3.247	3.9298
3.2348	3.8959
3.2228	3.8201
3.2108	4.3736
3.1989	3.9238
3.1871	3.4201
3.1754	3.9743
3.1638	3.7419
3.1523	3.9988
3.1408	3.8352
3.1294	2.9844
3.1181	3.1152
3.1069	3.3187
3.0958	3.5831
3.0848	2.9042
3.0738	3.2879
3.0629	2.8395
3.0521	3.884
3.0413	3.3341
3.0307	2.9105
3.0201	3.6164
3.0096	3.1283
2.9991	2.6799
2.9887	2.7039
2.9784	3.4577
2.9682	3.3212
2.9581	2.8681
2.948	3.0068
2.9379	3.162
2.928	2.9053
2.9181	2.4458
2.9083	3.0933
2.8985	3.7807
2.8888	3.0289
2.8792	2.9384
2.8697	2.4243
2.8602	4.0537
2.8507	2.8772
2.8413	3.7062
2.832	3.2769
2.8228	2.5679
2.8136	2.9045
2.8045	3.0855
2.7954	1.7605
2.7864	3.0402
2.7774	3.2462
2.7685	3.1584
2.7597	2.653
2.7509	2.4462
2.7422	3.0716
2.7335	2.4049
2.7249	3.1275
2.7163	4.2267
2.7078	4.2168
2.6994	5.5668
2.691	5.2216
2.6826	5.0607
2.6743	4.6412
2.666	4.3567
2.6578	4.871
2.6497	5.0701
2.6416	4.9218
2.6336	5.3252
2.6256	5.7296
2.6176	4.9295
2.6097	4.4966
2.6018	4.1854
2.594	4.2886
2.5863	5.4099
2.5785	5.8355
2.5709	4.2878
2.5633	5.0161
2.5557	4.6737
2.5481	4.5216
2.5406	6.3831
2.5332	4.5665
2.5258	4.4597
2.5184	6.4021
2.5111	4.7818
2.5038	4.9921
2.4966	4.3163
2.4894	4.4768
2.4823	5.0155
2.4752	6.4508
2.4681	5.3159
2.4611	6.3197
2.4541	4.654
2.4471	4.6846
2.4402	6.322
2.4333	5.0966
2.4265	6.0442
2.4197	5.1761
2.413	5.0576
2.4063	5.1761
2.3996	4.8325
2.3929	3.863
2.3863	4.8191
2.3798	5.329
2.3732	4.7103
2.3667	4.0949
2.3603	3.6328
2.3538	3.6604
2.3474	4.8319
2.3411	4.3758
2.3347	5.5558
2.3285	4.9079
2.3222	6.5623
2.316	3.7746
2.3098	6.2376
2.3036	4.8305
2.2975	3.7385
2.2914	5.1266
2.2854	5.3481
2.2793	4.3789
2.2733	4.4065
2.2674	4.6066
2.2614	4.0958
2.2555	5.6019
2.2497	4.3672
2.2438	3.9448
2.238	7.6561
2.2322	6.5073
2.2265	5.2791
2.2208	5.3144
2.2151	3.79
2.2094	5.367
2.2038	4.9253
2.1982	5.568
2.1926	4.9631
2.187	3.5999
2.1815	5.9409
2.176	3.4818
2.1706	1.3477
2.1651	7.0405
2.1597	4.5516
2.1543	2.8112
2.149	1.9331
2.1436	3.8959
2.1383	5.1581
2.1331	7.8342
2.1278	5.3914
2.1226	3.559
2.1174	4.7305
2.1122	6.2551
2.1071	5.998
2.1019	6.889
2.0968	3.9522
2.0918	4.5608
2.0867	4.6366
2.0817	3.7312
2.0767	5.1654
2.0717	7.6986
2.0667	6.0819
2.0618	5.3028
2.0569	3.0824
2.052	6.3541
2.0472	2.2104
2.0423	3.4082
2.0375	6.75
2.0327	8.0545
2.028	6.6134
2.0232	5.346
2.0185	4.6083
2.0138	7.8884
2.0091	4.1945
2.0044	4.2912
1.9998	2.01
