Name: Spotted Hornfels
Type: rock
Class: Metamorphic
Subclass: Hornfel
Particle Size: Fine
Sample No.: hornfel3
Owner: JHU
Wavelength Range: All
Origin: Sample No. 472, The Hunt and Salisbury Collection at the U.S.Geological Survey, Denver, Co.
Description: This rock consists of a fine-grained to microcrystalline groundmass with a pleochroic brown phase (biotite?), opaques, cordierite and possibly some feldpsar.  Large porphyroblasts of cordierite with heavy concentrations of tiny sillimanite needles are rimmed with cordierite and opaque granules.Particle size was 0-75 Micrometer. Original ASTER Spectral Library name was jhu.becknic.rock.metamorphic.hornfels.fine.hornfe3.spectrum.txt
Measurement: Directional (10 Degree) Hemispherical Reflectance
X Units: Wavelength (micrometers)
Y Units: Reflectance (percent)
wavelength	value
14.983	1.8626
14.645	2.7857
14.321	2.6071
14.011	2.7213
13.715	2.416
13.43	2.4105
13.158	2.3812
12.896	2.2436
12.644	2.3291
12.402	3.4492
12.169	5.8988
11.945	7.6354
11.729	7.975
11.52	7.1672
11.319	6.1207
11.125	5.2173
10.937	4.6908
10.755	4.4701
10.58	4.2677
10.41	3.9276
10.245	3.4928
10.086	3.4416
9.9313	3.6522
9.7814	3.7519
9.636	3.8445
9.4948	3.8639
9.3577	4.1587
9.2245	4.3593
9.095	4.0983
8.9691	3.8293
8.8467	3.6984
8.7275	3.749
8.6116	3.6832
8.4986	4.3955
8.3886	4.6271
8.2814	5.0243
8.1769	5.2786
8.075	4.1961
7.9756	3.3888
7.8786	2.8944
7.784	2.9431
7.6916	3.3315
7.6014	3.8371
7.5133	4.5059
7.4272	5.2088
7.343	6.0577
7.2607	7.1966
7.1803	8.5254
7.1016	9.937
7.0246	11.052
6.9493	12.205
6.8755	12.804
6.8034	13.176
6.7327	13.651
6.6634	14.381
6.5956	14.893
6.5292	15.581
6.464	16.457
6.4002	15.91
6.3376	15.369
6.2762	14.449
6.216	13.783
6.157	14.053
6.099	14.479
6.0421	15.822
5.9863	16.796
5.9315	17.076
5.8777	18.186
5.8249	19.111
5.773	19.562
5.722	19.865
5.6719	19.533
5.6227	18.837
5.5744	19.225
5.5268	20.773
5.4801	22.451
5.4341	23.289
5.3889	21.888
5.3445	20.613
5.3008	21.909
5.2578	24.593
5.2154	28.241
5.1738	30.44
5.1328	31.882
5.0925	32.898
5.0528	33.278
5.0137	33.778
4.9752	35.24
4.9373	37.168
4.9	39.164
4.8632	40.951
4.827	41.724
4.7913	42.286
4.7561	42.918
4.7215	43.399
4.6873	43.483
4.6536	44.211
4.6205	45.148
4.5877	46.081
4.5555	47.069
4.5237	47.724
4.4923	47.879
4.4614	48.243
4.4309	49.142
4.4008	49.867
4.3711	50.535
4.3418	50.987
4.3129	51.445
4.2844	51.671
4.2563	45.224
4.2285	53.111
4.2011	53.027
4.174	53.275
4.1473	53.824
4.1209	54.042
4.0949	54.232
4.0692	54.38
4.0438	54.507
4.0187	54.591
3.994	54.706
3.9695	54.813
3.9453	54.919
3.9214	55.009
3.8979	54.965
3.8746	54.895
3.8515	54.8
3.8288	54.693
3.8063	54.648
3.7841	54.516
3.7621	54.321
3.7404	54.065
3.7189	53.811
3.6977	53.631
3.6767	53.419
3.656	53.164
3.6355	52.897
3.6152	52.623
3.5951	52.301
3.5753	51.968
3.5557	51.586
3.5363	51.143
3.5171	50.727
3.4981	50.23
3.4793	49.769
3.4607	49.372
3.4423	48.879
3.4241	48.383
3.4061	47.733
3.3883	47.184
3.3707	46.548
3.3533	45.9
3.336	45.245
3.3189	44.594
3.302	43.904
3.2853	43.22
3.2687	42.5
3.2523	41.772
3.2361	41.07
3.22	40.331
3.204	39.672
3.1883	39.005
3.1727	38.315
3.1572	37.587
3.1419	36.943
3.1268	36.292
3.1117	35.711
3.0969	35.161
3.0821	34.696
3.0675	34.343
3.0531	34.013
3.0388	33.676
3.0246	33.293
3.0105	32.883
2.9966	32.448
2.9828	31.932
2.9692	31.487
2.9556	31.07
2.9422	30.707
2.9289	30.406
2.9157	30.257
2.9027	30.077
2.8897	29.936
2.8769	29.711
2.8642	29.448
2.8516	29.057
2.8391	28.558
2.8267	27.687
2.8144	26.178
2.8022	23.877
2.7902	20.667
2.7782	17.442
2.7664	15.608
2.7546	14.778
2.7429	15.886
2.7314	18.585
2.7199	25.347
2.7085	29.394
2.6973	40.808
2.6861	49.898
2.675	52.671
2.664	53.955
2.6531	55.311
2.6423	55.786
2.6315	55.536
2.6209	55.722
2.6103	56.119
2.5999	56.251
2.5895	56.375
2.5792	56.724
2.569	56.923
2.5588	57.165
2.5487	57.4
2.5388	57.56
2.5289	57.731
2.519	57.735
2.5093	57.701
2.4996	57.673
2.49	57.649
2.4805	57.619
2.471	57.555
2.4616	57.459
2.4523	57.356
2.4431	57.295
2.4339	57.321
2.4248	57.499
2.4157	57.527
2.4068	57.724
2.3979	57.694
2.389	57.709
2.3802	57.744
2.3715	57.724
2.3629	57.653
2.3543	57.498
2.3458	57.496
2.3373	57.647
2.3289	58.067
2.3206	58.507
2.3123	58.9
2.3041	59.033
2.2959	59.311
2.2878	59.32
2.2798	59.338
2.2718	59.245
2.2638	58.854
2.2559	58.616
2.2481	58.635
2.2403	58.782
2.2326	58.895
2.225	58.813
2.2173	58.516
2.2098	57.854
2.2023	57.487
2.1948	57.683
2.1874	58.47
2.18	59.06
2.1727	59.321
2.1655	59.52
2.1583	59.616
2.1511	59.686
2.144	59.706
2.1369	59.732
2.1299	59.631
2.1229	59.541
2.116	59.495
2.1091	59.615
2.1023	59.501
2.0955	59.606
2.0887	59.498
2.082	59.628
2.06	59.514
2.028	58.64
1.996	58.119
1.964	56.825
1.932	56.584
1.9	55.49
1.868	56.776
1.836	56.6
1.804	55.673
1.772	54.873
1.74	54.43
1.708	54.695
1.676	54.247
1.644	53.39
1.612	52.184
1.58	51.935
1.548	50.592
1.516	49.981
1.484	49.187
1.452	48.419
1.42	46.96
1.388	45.983
1.356	44.944
1.324	44.103
1.292	43.12
1.26	42.398
1.228	41.217
1.196	40.437
1.164	39.514
1.132	39.078
1.1	38.892
1.068	38.411
1.036	38.694
1.004	38.185
0.972	37.65
0.94	37.415
0.908	36.949
0.876	36.355
0.844	36.078
0.812	35.697
0.795	35.296
0.787	34.848
0.779	35.06
0.771	34.574
0.763	34.716
0.755	34.386
0.747	34.173
0.739	33.899
0.731	33.845
0.723	33.671
0.715	33.628
0.707	33.587
0.699	34.079
0.691	33.546
0.683	33.446
0.675	33.534
0.667	33.563
0.659	33.843
0.651	33.388
0.643	33.581
0.635	32.917
0.627	32.96
0.619	33.266
0.611	32.832
0.603	32.528
0.595	32.012
0.587	32.213
0.579	32.006
0.571	31.831
0.563	31.148
0.555	31.283
0.547	31.034
0.539	31.054
0.531	30.247
0.523	30.106
0.515	29.417
0.507	29.204
0.499	28.667
0.491	28.24
0.483	27.888
0.475	27.071
0.467	26.646
0.459	27.201
0.451	27.056
0.443	26.239
0.435	26.423
0.427	25.746
0.419	25.374
0.411	24.67
0.403	24.183
