Name: Micaceous Sandstone (Brownstone)
Type: Rock
Class: Sedimentary
Subclass: Sandstone
Particle Size: Solid
Sample No.: Ward60
Owner: JPL
Wavelength Range: VSWIR
Origin: Ward's Collection of American Rocks.  Sample locality - Portland, Middlesex County, Connecticut.
Description: A dark reddish-brown sandstone composed of grains of quartzfeldspar and muscovite with a ferruginous cement.Geologic age - Upper Triassic.Collected by:  Ward's Natural Science Original ASTER Spectral Library name was jpl.perkin.rock.sedimentary.sandstone.solid.ward60.spectrum.txt
Measurement: Hemispherical reflectance
X Units: Wavelength (micrometers)
Y Units: Reflectance (percent)
wavelength	value
2.5	14.0177
2.494	14.0112
2.488	14.1505
2.482	14.1672
2.476	14.0647
2.47	14.074
2.464	14.2734
2.458	14.0769
2.452	14.143
2.446	14.1452
2.44	14.1493
2.434	14.1735
2.428	14.0793
2.422	14.2099
2.416	14.2328
2.41	14.3543
2.404	14.3614
2.398	14.3898
2.392	14.2756
2.386	14.4287
2.38	14.3804
2.374	14.3778
2.368	14.3964
2.362	14.312
2.356	14.2679
2.35	14.2875
2.344	14.2029
2.338	14.2044
2.332	14.3123
2.326	14.3345
2.32	14.3478
2.314	14.4604
2.308	14.5072
2.302	14.5803
2.296	14.6363
2.29	14.5984
2.284	14.6449
2.278	14.6772
2.272	14.6372
2.266	14.5431
2.26	14.5582
2.254	14.5453
2.248	14.4732
2.242	14.5626
2.236	14.5101
2.23	14.5674
2.224	14.5287
2.218	14.3775
2.212	14.3677
2.206	14.1577
2.2	14.1247
2.194	14.2032
2.188	14.3416
2.182	14.4803
2.176	14.6277
2.17	14.7078
2.164	14.8256
2.158	14.8418
2.152	14.9103
2.146	14.9069
2.14	14.9205
2.134	14.8902
2.128	14.8179
2.122	14.7098
2.116	14.7281
2.11	14.5995
2.104	14.577
2.098	14.5737
2.092	14.5093
2.086	14.541
2.08	14.4663
2.074	14.4862
2.068	14.4342
2.062	14.4584
2.056	14.4911
2.05	14.4954
2.044	14.4617
2.038	14.4234
2.032	14.4028
2.026	14.3825
2.02	14.3652
2.014	14.3495
2.008	14.3057
2.002	14.2827
1.996	14.2442
1.99	14.1941
1.984	14.2436
1.978	14.121
1.972	14.1245
1.966	14.163
1.96	14.2006
1.954	14.1645
1.948	14.164
1.942	14.0453
1.936	14.0826
1.93	14.0505
1.924	13.98
1.918	14.0254
1.912	14.0118
1.906	13.9494
1.9	14.0342
1.894	14.1564
1.888	14.2462
1.882	14.2785
1.876	14.315
1.87	14.201
1.864	14.2757
1.858	14.2393
1.852	14.238
1.846	14.2627
1.84	14.2581
1.834	14.1888
1.828	14.1699
1.822	14.1291
1.816	14.1747
1.81	14.1383
1.804	14.1322
1.798	14.0757
1.792	14.1492
1.786	14.1055
1.78	14.1353
1.774	14.0557
1.768	14.0977
1.762	14.1464
1.756	14.0265
1.75	14.082
1.744	14.0403
1.738	14.0577
1.732	14.1242
1.726	14.0802
1.72	13.9998
1.714	14.0151
1.708	13.9107
1.702	14.0783
1.696	13.8955
1.69	13.9267
1.684	14.0076
1.678	13.9438
1.672	13.9561
1.666	13.9131
1.66	13.8985
1.654	13.9625
1.648	13.9463
1.642	14.0388
1.636	13.884
1.63	13.9189
1.624	13.9136
1.618	13.8954
1.612	13.919
1.606	13.9125
1.6	13.9268
1.594	13.8425
1.588	13.9511
1.582	13.8586
1.576	13.9189
1.57	13.8473
1.564	13.8862
1.558	13.9153
1.552	13.8735
1.546	13.9506
1.54	13.9016
1.534	13.9304
1.528	13.9493
1.522	13.9279
1.516	13.9662
1.51	13.933
1.504	14.0053
1.498	13.9216
1.492	13.9628
1.486	13.9431
1.48	13.9306
1.474	13.9808
1.468	13.9156
1.462	13.9002
1.456	13.9059
1.45	13.9994
1.444	14.0003
1.438	13.9653
1.432	14.0265
1.426	13.937
1.42	13.9035
1.414	13.6994
1.408	13.8153
1.402	13.9106
1.396	14.0562
1.39	14.3013
1.384	14.2102
1.378	14.2882
1.372	14.2772
1.366	14.3049
1.36	14.2434
1.354	14.3265
1.348	14.3594
1.342	14.3531
1.336	14.2985
1.33	14.434
1.324	14.4018
1.318	14.4145
1.312	14.4599
1.306	14.5049
1.3	14.4855
1.294	14.5844
1.288	14.4595
1.282	14.5681
1.276	14.6211
1.27	14.6266
1.264	14.6527
1.258	14.6411
1.252	14.6272
1.246	14.687
1.24	14.7398
1.234	14.7121
1.228	14.7416
1.222	14.8205
1.216	14.8238
1.21	14.849
1.204	14.8799
1.198	14.909
1.192	14.9465
1.186	14.9657
1.18	15.0751
1.174	15.0392
1.168	15.15
1.162	15.1541
1.156	15.2079
1.15	15.178
1.144	15.2485
1.138	15.273
1.132	15.324
1.126	15.3944
1.12	15.4984
1.114	15.5222
1.108	15.5601
1.102	15.5372
1.096	15.6635
1.09	15.7081
1.084	15.7784
1.078	15.893
1.072	16.0063
1.066	16.073
1.06	16.111
1.054	16.201
1.048	16.2195
1.042	16.3377
1.036	16.3094
1.03	16.3557
1.024	16.5131
1.018	16.5677
1.012	16.5993
1.006	16.6852
1	16.6958
0.994	16.6624
0.988	16.7365
0.982	16.7923
0.976	16.772
0.97	16.8303
0.964	16.7497
0.958	16.7468
0.952	16.782
0.946	16.7299
0.94	16.745
0.934	16.7056
0.928	16.6808
0.922	16.748
0.916	16.6175
0.91	16.6316
0.904	16.6662
0.898	16.7084
0.892	16.6701
0.886	16.7139
0.88	16.696
0.874	16.7326
0.868	16.7883
0.862	16.7991
0.856	16.8206
0.85	16.9071
0.844	16.9615
0.838	17.0205
0.832	17.0535
0.826	17.1074
0.82	17.1604
0.814	17.203
0.808	17.1878
0.802	17.1815
0.796	17.15
0.79	17.1092
0.784	17.0697
0.778	17.0339
0.772	16.9415
0.766	16.8669
0.76	16.7545
0.754	16.6219
0.748	16.4813
0.742	16.3637
0.736	16.207
0.73	16.0519
0.724	15.8881
0.718	15.7068
0.712	15.5494
0.706	15.3818
0.7	15.216
0.694	15.0639
0.688	14.9137
0.682	14.7621
0.676	14.6199
0.67	14.484
0.664	14.3536
0.658	14.2268
0.652	14.1025
0.646	13.9821
0.64	13.8619
0.634	13.7444
0.628	13.6202
0.622	13.4893
0.616	13.3488
0.61	13.1956
0.604	13.0282
0.598	12.8353
0.592	12.6154
0.586	12.3434
0.58	12.0329
0.574	11.6832
0.568	11.3177
0.562	10.9518
0.556	10.5771
0.55	10.2682
0.544	10.0133
0.538	9.8173
0.532	9.6644
0.526	9.5512
0.52	9.4684
0.514	9.3977
0.508	9.3326
0.502	9.2612
0.496	9.1859
0.49	9.1155
0.484	9.0429
0.478	9.022
0.472	8.9938
0.466	8.9661
0.46	8.933
0.454	8.8986
0.448	8.8402
0.442	8.7722
0.436	8.7167
0.43	8.6553
0.424	8.6052
0.418	8.5578
0.412	8.5309
0.406	8.5017
0.4	8.4919
