Name: Basalt
Type: Rock
Class: Igneous
Subclass: Mafic
Particle Size: Solid
Sample No.: ba9c2f
Owner: Larry Rowan, USGS
Wavelength Range: All
Origin: Wadi Salima, Jordan
Description: dark gray vesicular basalt Sample was Whole rock chips. Original ASTER Spectral Library name was usgs.perknic.rock.igneous.mafic.solid.ba9c2f.spectrum.txt
Measurement: Reflectance
X Units: Wavelength (micrometers)
Y Units: Reflectance (percent)
wavelength	value
0.4	0.122
0.408	0.122
0.416	0.122
0.424	0.118
0.432	0.115
0.44	0.112
0.448	0.111
0.456	0.104
0.464	0.102
0.472	0.101
0.48	0.098
0.488	0.1
0.496	0.097
0.504	0.098
0.512	0.098
0.52	0.093
0.528	0.097
0.536	0.096
0.544	0.094
0.552	0.096
0.56	0.097
0.568	0.096
0.576	0.097
0.584	0.096
0.592	0.097
0.6	0.096
0.608	0.097
0.616	0.097
0.624	0.097
0.632	0.097
0.64	0.098
0.648	0.096
0.656	0.098
0.664	0.098
0.672	0.098
0.68	0.097
0.688	0.097
0.696	0.097
0.704	0.097
0.712	0.098
0.72	0.1
0.728	0.1
0.736	0.098
0.744	0.1
0.752	0.1
0.76	0.1
0.768	0.101
0.776	0.1
0.784	0.1
0.792	0.101
0.8	0.096
0.832	0.096
0.864	0.098
0.896	0.099
0.928	0.1
0.96	0.099
0.992	0.099
1.024	0.1
1.056	0.099
1.088	0.099
1.12	0.099
1.152	0.098
1.184	0.098
1.216	0.095
1.248	0.094
1.28	0.093
1.312	0.093
1.344	0.094
1.376	0.09
1.408	0.09
1.44	0.09
1.472	0.088
1.504	0.089
1.536	0.089
1.568	0.089
1.6	0.088
1.632	0.088
1.664	0.088
1.696	0.088
1.728	0.087
1.76	0.084
1.792	0.084
1.824	0.084
1.856	0.082
1.888	0.079
1.92	0.077
1.952	0.076
1.984	0.078
2.016	0.079
2.048	0.081
2.08	0.081
2.1021	0.0836
2.109	0.0831
2.1159	0.0817
2.1228	0.0833
2.1298	0.0815
2.1368	0.0825
2.1438	0.0809
2.1509	0.0795
2.1581	0.0813
2.1653	0.0818
2.1726	0.082
2.1799	0.0808
2.1872	0.082
2.1946	0.0803
2.2021	0.078
2.2096	0.0781
2.2172	0.0768
2.2248	0.0782
2.2324	0.0782
2.2401	0.0778
2.2479	0.079
2.2557	0.0806
2.2636	0.0781
2.2715	0.0804
2.2795	0.0795
2.2876	0.0781
2.2957	0.0785
2.3038	0.0761
2.3121	0.0786
2.3203	0.0789
2.3287	0.0778
2.3371	0.0775
2.3455	0.0756
2.354	0.0768
2.3626	0.0766
2.3712	0.0764
2.38	0.0773
2.3887	0.0782
2.3976	0.0749
2.4065	0.0756
2.4154	0.0758
2.4245	0.0753
2.4336	0.0737
2.4427	0.0731
2.452	0.0729
2.4613	0.0731
2.4707	0.0723
2.4801	0.0721
2.4896	0.0711
2.4992	0.0714
2.5089	0.0696
2.5187	0.07
2.5285	0.0689
2.5384	0.0681
2.5484	0.0668
2.5584	0.0675
2.5686	0.0667
2.5788	0.0686
2.5891	0.0647
2.5995	0.0665
2.6099	0.065
2.6205	0.0611
2.6311	0.062
2.6418	0.0645
2.6526	0.0604
2.6635	0.0568
2.6745	0.0549
2.6856	0.0477
2.6968	0.0428
2.708	0.0347
2.7194	0.0315
2.7309	0.0318
2.7424	0.0305
2.7541	0.025
2.7658	0.0305
2.7777	0.0287
2.7896	0.0288
2.8017	0.03
2.8138	0.0313
2.8261	0.0315
2.8385	0.0315
2.851	0.0326
2.8636	0.0319
2.8763	0.0332
2.8891	0.0325
2.902	0.0323
2.915	0.0336
2.9282	0.0321
2.9415	0.0321
2.9549	0.0338
2.9684	0.0339
2.9821	0.0344
2.9959	0.0326
3.0098	0.0366
3.0238	0.035
3.038	0.0351
3.0523	0.0347
3.0667	0.0343
3.0813	0.0359
3.096	0.0358
3.1109	0.0357
3.1259	0.0355
3.141	0.0357
3.1563	0.0374
3.1718	0.0375
3.1874	0.038
3.2031	0.0392
3.219	0.0399
3.2351	0.0401
3.2513	0.0413
3.2677	0.0409
3.2843	0.0423
3.301	0.0421
3.3179	0.0434
3.3349	0.0435
3.3522	0.0427
3.3696	0.0442
3.3872	0.0455
3.405	0.0468
3.423	0.048
3.4412	0.0479
3.4595	0.0485
3.4781	0.0482
3.4968	0.049
3.5158	0.0503
3.535	0.0524
3.5544	0.0536
3.574	0.0543
3.5938	0.055
3.6138	0.0559
3.6341	0.0557
3.6545	0.0559
3.6753	0.0575
3.6962	0.0575
3.7174	0.0576
3.7389	0.0578
3.7605	0.0575
3.7825	0.0574
3.8047	0.0564
3.8272	0.0552
3.8499	0.0544
3.8729	0.0541
3.8962	0.0538
3.9197	0.0535
3.9436	0.0517
3.9677	0.0507
3.9921	0.0513
4.0169	0.0542
4.0419	0.0564
4.0673	0.0573
4.093	0.0572
4.119	0.058
4.1453	0.0575
4.172	0.0571
4.199	0.0562
4.2264	0.0508
4.2541	0.0543
4.2822	0.0512
4.3107	0.0534
4.3395	0.0541
4.3688	0.055
4.3984	0.0542
4.4285	0.0544
4.4589	0.0537
4.4898	0.0532
4.5211	0.0522
4.5529	0.0519
4.5851	0.0515
4.6177	0.0507
4.6509	0.0497
4.6845	0.049
4.7186	0.0497
4.7532	0.0492
4.7883	0.0486
4.8239	0.0476
4.8601	0.0475
4.8968	0.0467
4.9341	0.0471
4.9719	0.0464
5.0103	0.0463
5.0493	0.0455
5.089	0.045
5.1292	0.0454
5.1702	0.0449
5.2117	0.0442
5.254	0.0455
5.2969	0.0451
5.3405	0.0435
5.3849	0.0434
5.43	0.0426
5.4759	0.0401
5.5225	0.0394
5.57	0.0353
5.6182	0.0386
5.6673	0.0371
5.7173	0.0351
5.7682	0.0332
5.82	0.0297
5.8727	0.0271
5.9264	0.0263
5.9811	0.0232
6.0368	0.0204
6.0935	0.0231
6.1513	0.024
6.2103	0.0291
6.2703	0.0346
6.3316	0.0387
6.394	0.0548
6.4577	0.0775
6.5227	0.0753
6.589	0.0677
6.6566	0.0684
6.7257	0.0669
6.7962	0.0634
6.8682	0.0609
6.9418	0.0607
7.0169	0.0615
7.0937	0.0598
7.1722	0.0483
7.2524	0.0423
7.3345	0.0387
7.4184	0.0389
7.5043	0.0373
7.5922	0.0366
7.6821	0.0379
7.7743	0.0376
7.8686	0.0365
7.9653	0.0352
8.0644	0.0341
8.166	0.0343
8.2701	0.0329
8.377	0.033
8.4867	0.035
8.5992	0.041
8.7149	0.0526
8.8336	0.0654
8.9556	0.0792
9.0811	0.0949
9.2101	0.1036
9.3428	0.1192
9.4795	0.1288
9.6201	0.1186
9.765	0.1018
9.9144	0.0898
10.0684	0.0793
10.2272	0.073
10.3911	0.0666
10.5604	0.0599
10.7353	0.0587
10.9161	0.062
11.103	0.0611
11.2965	0.0811
11.4968	0.0581
11.7044	0.0489
11.9196	0.0427
12.1429	0.0395
12.3747	0.0351
12.6155	0.0328
12.8659	0.0299
13.1264	0.0298
13.3977	0.0296
13.6804	0.0284
13.9753	0.0309
