Name: Basanite
Type: Rock
Class: Igneous
Subclass: Mafic
Particle Size: Solid
Sample No.: Mewy327
Owner: Lawrence Rowan, USGS Reston
Wavelength Range: All
Origin: Yizriel Valley, Middle East
Description: Basanite, cut surface, Middle MioceneSample was Whole rock chips. Original ASTER Spectral Library name was usgs.perknic.rock.igneous.mafic.solid.mewy327.spectrum.txt
Measurement: Directional Hemispherical Reflectance
X Units: Wavelength (micrometers)
Y Units: Reflectance (percent)
wavelength	value
14.051	3.4814
13.826	3.7698
13.609	3.6462
13.398	3.6977
13.193	3.7801
12.995	3.9758
12.802	4.0788
12.616	4.1612
12.434	4.429
12.258	4.8822
12.086	5.6238
11.92	6.1594
11.757	6.7671
11.6	7.7559
11.446	8.8683
11.297	9.8571
11.151	10.2794
11.009	11.0416
10.87	11.5978
10.735	11.7214
10.604	11.8244
10.475	11.6493
10.35	12.4012
10.227	12.6999
10.108	12.669
9.991	13.2149
9.877	13.5857
9.765	13.9668
9.656	14.1007
9.549	14.008
9.445	13.4209
9.343	12.2261
9.243	11.227
9.145	10.9901
9.049	10.9386
8.956	10.2073
8.864	8.8065
8.774	7.9928
8.686	7.4778
8.599	6.9216
8.515	6.4581
8.431	5.9225
8.35	5.459
8.27	4.4908
8.192	3.605
8.115	3.0797
8.039	3.0694
7.965	2.8531
7.893	2.9355
7.821	2.9046
7.751	2.987
7.682	2.9664
7.614	2.987
7.548	2.9767
7.483	3.1106
7.418	3.2239
7.355	3.1724
7.293	3.2445
7.232	3.1724
7.172	3.4402
7.113	3.3681
7.055	3.4505
6.998	3.4917
6.942	3.4402
6.886	3.4917
6.832	3.4505
6.778	3.5844
6.726	3.4505
6.674	3.5432
6.623	3.5535
6.572	3.605
6.523	3.5329
6.474	3.5741
6.426	3.5329
6.378	3.4505
6.332	3.5123
6.286	3.3681
6.24	3.3269
6.195	3.296
6.151	3.2033
6.108	3.2136
6.065	3.1209
6.023	3.1209
5.981	3.2548
5.94	3.399
5.899	3.5535
5.859	3.5844
5.82	3.8007
5.781	3.7595
5.743	3.8522
5.705	3.8625
5.667	3.8934
5.63	3.9552
5.594	3.8934
5.558	3.9552
5.523	4.0479
5.487	3.9964
5.453	4.1097
5.419	4.12
5.385	4.223
5.352	4.1715
5.319	4.2436
5.286	4.1715
5.254	4.223
5.222	4.3363
5.191	4.223
5.16	4.2951
5.129	4.2642
5.099	4.3157
5.069	4.2745
5.04	4.2642
5.01	4.3363
4.981	4.3054
4.953	4.326
4.925	4.429
4.897	4.3466
4.869	4.429
4.842	4.4599
4.815	4.5217
4.788	4.4599
4.762	4.4805
4.736	4.5011
4.71	4.4393
4.684	4.4908
4.659	4.5423
4.634	4.6453
4.61	4.5835
4.585	4.6041
4.561	4.5732
4.537	4.6968
4.513	4.6762
4.49	4.6865
4.467	4.8101
4.444	4.6865
4.421	4.8101
4.398	4.7998
4.376	4.6865
4.354	4.7689
4.332	4.8616
4.311	4.8307
4.289	4.8925
4.268	4.8925
4.247	4.738
4.226	4.9749
4.206	4.9234
4.185	4.7998
4.165	4.9234
4.145	4.7586
4.126	4.7689
4.106	4.7071
4.086	4.7998
4.067	4.8925
4.048	4.8204
4.029	4.9955
4.011	4.7277
3.992	4.7277
3.974	4.841
3.956	4.8204
3.938	4.9543
3.92	4.9234
3.902	4.7895
3.884	4.7277
3.867	4.7895
3.85	4.7895
3.833	4.7895
3.816	4.7071
3.799	4.6556
3.782	4.841
3.766	4.8513
3.75	4.7689
3.733	4.6865
3.717	4.7998
3.702	4.7792
3.686	4.8101
3.67	4.7174
3.655	4.7998
3.639	4.7689
3.624	4.8616
3.609	4.7174
3.594	4.7586
3.579	4.738
3.564	4.6762
3.549	4.6762
3.535	4.7483
3.521	4.7586
3.506	4.6968
3.492	4.5835
3.478	4.5629
3.464	4.6762
3.45	4.6968
3.437	4.7277
3.423	4.4084
3.409	4.3775
3.396	4.5835
3.383	4.6247
3.37	4.5011
3.357	4.6762
3.344	4.4805
3.331	4.6041
3.318	4.3672
3.305	4.5114
3.293	4.3363
3.28	4.5011
3.268	4.4187
3.255	4.2642
3.243	4.4702
3.231	4.2951
3.219	4.3878
3.207	4.223
3.195	4.1715
3.183	4.3466
3.172	4.0479
3.16	4.2436
3.149	4.3981
3.137	4.2642
3.126	4.2951
3.115	4.3466
3.103	4.2024
3.092	3.9037
3.081	4.2642
3.07	4.0479
3.06	4.2436
3.049	4.2848
3.038	4.0685
3.027	4.223
3.017	4.1818
3.006	4.0376
2.996	4.2127
2.986	3.914
2.975	4.1818
2.965	4.2333
2.955	4.1406
2.945	4.12
2.935	4.0994
2.925	4.2127
2.915	4.2745
2.905	3.9655
2.896	4.2436
2.886	4.326
2.876	4.2642
2.867	3.9861
2.857	4.0685
2.848	4.4908
2.838	4.3878
2.829	4.2436
2.82	4.429
2.811	4.3466
2.802	4.5835
2.793	4.1818
2.784	4.2848
2.775	4.3569
2.766	4.4084
2.757	4.429
2.748	4.3981
2.74	4.8822
2.731	4.5217
2.722	5.0058
2.714	4.9028
2.705	5.1294
2.697	5.3869
2.688	5.5929
2.68	5.7474
2.672	5.3869
2.664	5.8607
2.655	5.8195
2.647	5.665
2.639	5.7577
2.631	5.768
2.623	5.6959
2.615	5.9843
2.607	5.6444
2.599	6.0255
2.592	6.0667
2.584	6.0461
2.576	5.5517
2.569	5.974
2.561	5.7577
2.553	5.8607
2.546	5.1603
2.538	5.6341
2.531	5.9019
2.524	5.7783
2.516	5.7371
2.509	5.8092
2.502	6.2109
2.48	5.8614
2.456	5.6178
2.432	6.5097
2.408	6.3136
2.384	6.0504
2.36	6.4633
2.336	6.0674
2.312	6.374
2.288	6.4574
2.264	6.5199
2.24	6.4662
2.216	6.8118
2.192	6.7367
2.168	6.8286
2.144	6.8912
2.12	6.8014
2.096	6.8085
2.072	6.8954
2.048	6.9094
2.024	7.053
2	7.0801
1.976	7.1736
1.952	7.1522
1.928	7.0561
1.904	6.9179
1.88	7.065
1.856	7.1496
1.832	7.2242
1.808	7.2795
1.784	7.3812
1.76	7.3901
1.736	7.41
1.712	7.4456
1.688	7.4961
1.664	7.4951
1.64	7.4869
1.616	7.4666
1.592	7.4446
1.568	7.4478
1.544	7.5091
1.52	7.54
1.496	7.5489
1.472	7.5582
1.448	7.5855
1.424	7.5968
1.4	7.6109
1.376	7.6035
1.352	7.5826
1.328	7.6881
1.304	7.6687
1.28	7.6874
1.256	7.8052
1.232	7.7595
1.208	7.7895
1.184	7.855
1.16	7.9276
1.136	7.9821
1.112	8.0258
1.088	8.1153
1.064	8.1634
1.04	8.2686
1.016	8.424
0.992	8.5317
0.968	8.7645
0.944	9.0889
0.92	9.5482
0.896	9.7644
0.872	9.9911
0.848	9.8547
0.824	10.0917
0.8	10.1509
0.776	10.2834
0.752	10.3908
0.728	10.5378
0.704	10.6601
0.68	10.7889
0.656	10.9222
0.632	11.0861
0.608	11.2686
0.584	11.4613
0.56	11.6843
0.536	11.9425
0.512	12.1765
0.488	12.3491
0.464	12.6667
0.44	12.9635
0.416	13.2226
