Name: Serpentine Marble
Type: rock
Class: Metamorphic
Subclass: Marble
Particle Size: Coarse
Sample No.: marble2
Owner: JHU
Wavelength Range: All
Origin: Sample No. 460, The Hunt and Salisbury Collection at the U.S.Geological Survey, Denver, Co.
Description: This sample consists of coarse-grained anhedral carbonate with numerous regions of serpentine (possibly brucite--MgOH2, at least in part) as an alteration/reaction of the carbonate.  There are scattered subhedra of monticellite, tremolite, and phlogopite, with a few grains of idocrase (?) also noted in this section.Particle size was 500-1500 Micrometer. Original ASTER Spectral Library name was jhu.becknic.rock.metamorphic.marble.coarse.marble2.spectrum.txt
Measurement: Directional (10 Degree) Hemispherical Reflectance
X Units: Wavelength (micrometers)
Y Units: Reflectance (percent)
wavelength	value
14.9831	4.31
14.6445	4.185
14.3209	3.2671
14.0112	2.46
13.7147	2.6142
13.4304	4.7676
13.1577	4.6359
12.8959	4.0053
12.6443	4.204
12.4023	4.5909
12.1694	4.6953
11.945	4.625
11.7289	3.9922
11.5203	4.8926
11.3191	12.7374
11.1248	5.9872
10.937	4.9641
10.7555	4.2158
10.5799	4.1199
10.4099	4.6011
10.2454	4.5369
10.0859	4.374
9.9313	4.3863
9.7814	4.719
9.636	5.3177
9.4948	5.6265
9.3577	5.4835
9.2245	4.9241
9.095	5.6206
8.9691	5.5166
8.8467	5.1872
8.7275	4.7974
8.6116	4.3531
8.4986	4.364
8.3886	4.4536
8.2814	4.6608
8.1769	4.7891
8.075	4.7673
7.9756	4.8623
7.8786	4.9412
7.784	5.1143
7.6916	5.2898
7.6014	5.4326
7.5133	5.7698
7.4272	6.1579
7.343	6.6384
7.2607	7.1985
7.1803	8.6935
7.1016	11.8017
7.0246	13.4092
6.9493	13.7275
6.8755	14.7723
6.8034	16.144
6.7327	18.0806
6.6634	20.8703
6.5956	23.9238
6.5292	26.9809
6.464	27.3349
6.4002	14.6707
6.3376	6.1565
6.2762	2.4994
6.216	1.3181
6.157	0.9646
6.099	0.8798
6.0421	0.9089
5.9863	1.0036
5.9315	1.0827
5.8777	1.1516
5.8249	1.2475
5.773	1.2876
5.722	1.3425
5.6719	1.4687
5.6227	1.5744
5.5744	1.2902
5.5268	1.4855
5.4801	2.012
5.4341	2.905
5.3889	4.1291
5.3445	5.5602
5.3008	7.0379
5.2578	8.3802
5.2154	9.5955
5.1738	10.6461
5.1328	11.3574
5.0925	8.4771
5.0528	12.3793
5.0137	12.9908
4.9752	12.9609
4.9373	12.8986
4.9	13.0872
4.8632	13.3185
4.827	13.4814
4.7913	13.4483
4.7561	12.2706
4.7215	8.7807
4.6873	5.1503
4.6536	4.8808
4.6205	7.2219
4.5877	8.7501
4.5555	9.2732
4.5237	9.5093
4.4923	10.2214
4.4614	11.6547
4.4309	12.9931
4.4008	14.1651
4.3711	14.5035
4.3418	13.2605
4.3129	12.9121
4.2844	13.2586
4.2563	13.086
4.2285	12.6045
4.2011	12.1716
4.174	11.2525
4.1473	9.9967
4.1209	8.4692
4.0949	6.9925
4.0692	5.4674
4.0438	4.0403
4.0187	3.0852
3.994	2.5756
3.9695	2.3845
3.9453	2.5687
3.9214	2.816
3.8979	2.9308
3.8746	2.9737
3.8515	3.0734
3.8288	3.3164
3.8063	4.0259
3.7841	6.8582
3.7621	9.2671
3.7404	11.0718
3.7189	12.5003
3.6977	13.2472
3.6767	13.5385
3.656	13.3562
3.6355	12.803
3.6152	12.0094
3.5951	10.4602
3.5753	7.7287
3.5557	6.6323
3.5363	5.0134
3.5171	3.5584
3.4981	3.112
3.4793	2.8562
3.4607	3.1388
3.4423	3.2565
3.4241	3.3254
3.4061	3.3261
3.3883	3.2837
3.3707	3.2602
3.3533	3.1328
3.336	3.8397
3.3189	5.4693
3.302	6.8968
3.2853	8.7927
3.2687	10.2068
3.2523	11.2817
3.2361	12.152
3.22	12.9214
3.204	13.5596
3.1883	13.8049
3.1727	13.4282
3.1572	11.8792
3.1419	11.6037
3.1268	11.9628
3.1117	10.9632
3.0969	11.3226
3.0821	12.3987
3.0675	13.0725
3.0531	13.6065
3.0388	14.0863
3.0246	14.4372
3.0105	14.7577
2.9966	14.8725
2.9828	14.8379
2.9692	14.845
2.9556	14.6916
2.9422	14.7394
2.9289	14.8559
2.9157	14.9464
2.9027	15.1313
2.8897	15.321
2.8769	15.614
2.8642	15.8588
2.8516	16.0431
2.8391	16.1423
2.8267	15.7802
2.8144	15.1148
2.8022	13.8054
2.7902	11.832
2.7782	12.8515
2.7664	15.5936
2.7546	17.5466
2.7429	18.6182
2.7314	19.5392
2.7199	20.6473
2.7085	22.0532
2.6973	23.3484
2.6861	24.4697
2.675	25.2164
2.664	25.5941
2.6531	25.8042
2.6423	25.8861
2.6315	25.8591
2.6209	25.8001
2.6103	25.6455
2.5999	25.3566
2.5895	24.6615
2.5792	23.8211
2.569	22.681
2.5588	20.2712
2.5487	16.445
2.5388	13.6145
2.5289	13.7356
2.519	15.2855
2.5093	16.2266
2.4996	16.7642
2.49	17.3444
2.4805	18.3215
2.471	19.8127
2.4616	21.42
2.4523	22.6806
2.4431	23.7029
2.4339	24.4574
2.4248	25.21
2.4157	25.6945
2.4068	25.9178
2.3979	25.8792
2.389	25.9721
2.3802	25.6988
2.3715	24.9604
2.3629	23.6839
2.3543	21.3269
2.3458	19.4431
2.3373	18.8325
2.3289	19.3317
2.3206	20.316
2.3123	20.9165
2.3041	21.3305
2.2959	21.8233
2.2878	22.5188
2.2798	23.3695
2.2718	24.3238
2.2638	24.9575
2.2559	25.5941
2.2481	26.0261
2.2403	26.4282
2.2326	26.7195
2.225	27.0122
2.2173	27.2196
2.2098	27.3823
2.2023	27.5388
2.1948	27.6061
2.1874	27.6307
2.18	27.6265
2.1727	27.5294
2.1655	27.4285
2.1583	27.3608
2.1511	27.375
2.144	27.6478
2.1369	27.7742
2.1299	27.8609
2.1229	27.9083
2.116	28.0456
2.1091	28.1512
2.1023	28.1683
2.0955	28.2521
2.0887	28.3047
2.082	28.4456
2.06	28.6104
2.028	28.7154
1.996	28.2241
1.964	28.5242
1.932	28.8906
1.9	28.842
1.868	28.3745
1.836	29.0082
1.804	29.3818
1.772	29.3251
1.74	29.4277
1.708	29.4553
1.676	29.7178
1.644	29.8308
1.612	29.793
1.58	29.6975
1.548	29.7326
1.516	29.9041
1.484	29.9151
1.452	29.7154
1.42	29.7894
1.388	30.1554
1.356	30.2903
1.324	30.081
1.292	30.132
1.26	30.2757
1.228	30.6996
1.196	30.7467
1.164	30.6786
1.132	30.8805
1.1	30.9939
1.068	31.0104
1.036	31.0536
1.004	31.4536
0.972	31.7872
0.94	32.0119
0.908	32.4757
0.876	33.0384
0.844	33.5594
0.812	34.2072
0.795	34.6125
0.787	34.7329
0.779	34.6107
0.771	34.8026
0.763	34.647
0.755	34.9197
0.747	34.9366
0.739	34.9554
0.731	34.7222
0.723	35.0809
0.715	35.2073
0.707	35.4047
0.699	35.4003
0.691	34.9633
0.683	34.883
0.675	35.076
0.667	35.1549
0.659	35.3499
0.651	34.9626
0.643	35.2981
0.635	35.4297
0.627	35.372
0.619	35.2841
0.611	35.4879
0.603	35.3059
0.595	35.9204
0.587	35.7592
0.579	35.642
0.571	36.2681
0.563	36.1587
0.555	36.4793
0.547	36.2084
0.539	36.4125
0.531	36.8136
0.523	36.3452
0.515	36.8081
0.507	36.6936
0.499	36.594
0.491	36.5438
0.483	36.8257
0.475	36.9751
0.467	36.7254
0.459	36.8918
0.451	36.4796
0.443	36.5238
0.435	36.7145
0.427	36.4957
0.419	36.5191
0.411	36.3326
0.403	35.9703
