Name: Ijolite
Type: rock
Class: Igneous
Subclass: Ultramafic
Particle Size: Fine
Sample No.: Ijolite_H1
Owner: JHU
Wavelength Range: All
Origin: from McClure Mountains, Colorado, via Ward's Scientific (Cat. No.W-19)
Description: The sample from which the powder was derived is a dark gray to black, medium- to coarse-grained rock composed of nepheline, biotite, a black mafic mineral and opaques.Particle size was 0-75 micrometers. Original ASTER Spectral Library name was jhu.becknic.rock.igneous.ultramafic.fine.ijolit1.spectrum.txt
Measurement: Directional (10 degree) hemispherical reflectance
X Units: Wavelength (micrometers)
Y Units: Reflectance (percent)
wavelength	value
14.011	2.3571
13.715	1.7859
13.43	2.0264
13.158	2.1862
12.896	2.6688
12.644	3.2925
12.402	4.0547
12.169	4.5553
11.945	4.5492
11.729	4.3406
11.52	4.2844
11.319	3.9539
11.125	3.7092
10.937	3.5229
10.755	3.3202
10.58	3.289
10.41	3.0473
10.245	2.8735
10.086	2.8303
9.9313	3.2721
9.7814	3.3054
9.636	3.1579
9.4948	3.2901
9.3577	3.4076
9.2245	3.487
9.095	3.7898
8.9691	3.5616
8.8467	2.6363
8.7275	1.6057
8.6116	0.9621
8.4986	1.0589
8.3886	1.4032
8.2814	2.0988
8.1769	2.9777
8.075	3.9729
7.9756	5.1166
7.8786	6.3909
7.784	7.6202
7.6916	8.8462
7.6014	9.8913
7.5133	10.904
7.4272	11.697
7.343	12.254
7.2607	12.384
7.1803	12.402
7.1016	12.485
7.0246	12.626
6.9493	13.095
6.8755	13.095
6.8034	13.278
6.7327	13.331
6.6634	13.397
6.5956	14.178
6.5292	15.156
6.464	16.16
6.4002	16.948
6.3376	17.227
6.2762	17.19
6.216	17.109
6.157	15.88
6.099	15.285
6.0421	16.401
5.9863	18.16
5.9315	20.461
5.8777	22.156
5.8249	23.812
5.773	25.598
5.722	27.132
5.6719	28.439
5.6227	29.404
5.5744	29.363
5.5268	31.001
5.4801	31.868
5.4341	32.4
5.3889	32.876
5.3445	33.133
5.3008	33.339
5.2578	33.482
5.2154	32.912
5.1738	31.722
5.1328	30.538
5.0925	30.133
5.0528	30.954
5.0137	32.046
4.9752	33.037
4.9373	33.552
4.9	34.002
4.8632	35.119
4.827	36.751
4.7913	38.484
4.7561	40.439
4.7215	42.507
4.6873	44.199
4.6536	45.881
4.6205	47.841
4.5877	49.747
4.5555	51.415
4.5237	52.93
4.4923	53.923
4.4614	54.622
4.4309	55.136
4.4008	55.565
4.3711	55.869
4.3418	56.134
4.3129	56.484
4.2844	56.695
4.2563	57.033
4.2285	57.249
4.2011	57.669
4.174	57.85
4.1473	57.995
4.1209	58.18
4.0949	58.302
4.0692	58.331
4.0438	58.209
4.0187	57.66
3.994	56.132
3.9695	55.881
3.9453	56.981
3.9214	57.533
3.8979	57.563
3.8746	57.469
3.8515	57.397
3.8288	57.377
3.8063	57.456
3.7841	57.283
3.7621	56.995
3.7404	56.596
3.7189	56.12
3.6977	55.647
3.6767	55.239
3.656	54.719
3.6355	54.167
3.6152	53.637
3.5951	52.868
3.5753	52.13
3.5557	51.543
3.5363	50.797
3.5171	49.621
3.4981	48.515
3.4793	47.825
3.4607	47.635
3.4423	46.969
3.4241	46.053
3.4061	45.386
3.3883	44.917
3.3707	44.292
3.3533	43.717
3.336	43.417
3.3189	42.751
3.302	42.042
3.2853	41.199
3.2687	40.368
3.2523	39.596
3.2361	38.748
3.22	37.971
3.2041	37.213
3.1883	36.452
3.1727	35.667
3.1572	34.906
3.1419	34.113
3.1268	33.461
3.1117	32.772
3.0969	32.203
3.0821	31.72
3.0675	31.219
3.0531	30.676
3.0388	30.117
3.0246	29.54
3.0105	28.829
2.9966	28.477
2.9828	28.041
2.9692	27.592
2.9556	27.145
2.9422	26.629
2.9289	26.274
2.9157	25.909
2.9027	25.736
2.8897	25.497
2.8769	25.059
2.8642	24.833
2.8516	24.913
2.8391	24.438
2.8267	23.751
2.8144	23.996
2.8022	24.685
2.7902	25.467
2.7782	26.024
2.7664	26.025
2.7546	25.81
2.7429	26.013
2.7314	26.269
2.7199	26.877
2.7085	27.652
2.6973	31.036
2.6861	43.826
2.675	55.66
2.664	57.359
2.6531	58.103
2.6423	58.548
2.6315	58.685
2.6209	58.963
2.6103	59.166
2.5999	59.309
2.5895	59.209
2.5792	59.162
2.569	59.057
2.5588	58.868
2.5487	58.819
2.5388	58.604
2.5289	58.484
2.519	58.395
2.5093	58.261
2.4996	58.236
2.49	58.171
2.4805	58.002
2.471	57.924
2.4616	57.776
2.4523	57.683
2.4431	57.546
2.4339	57.513
2.4248	57.41
2.4157	57.121
2.4068	56.808
2.3979	56.434
2.389	56.095
2.3802	56.277
2.3715	56.627
2.3629	56.616
2.3543	56.186
2.3458	55.508
2.3373	55.062
2.3289	54.971
2.3206	55.549
2.3123	56.06
2.3041	56.539
2.2959	56.853
2.2878	57.182
2.2798	57.279
2.2718	57.259
2.2638	57.072
2.2559	56.724
2.2481	56.634
2.2403	56.946
2.2326	57.113
2.225	57.059
2.2173	57.008
2.2098	56.738
2.2023	56.658
2.1948	56.63
2.1874	56.5
2.18	56.555
2.1727	56.429
2.1655	56.404
2.1583	56.336
2.1511	56.155
2.144	56.111
2.1369	55.956
2.1299	55.929
2.1229	55.728
2.116	55.63
2.1091	55.515
2.1023	55.533
2.0955	55.431
2.0887	55.33
2.082	54.967
2.06	54.822
2.028	53.737
1.996	52.307
1.964	50.932
1.932	49.482
1.9	48.398
1.868	47.853
1.836	46.938
1.804	45.781
1.772	44.492
1.74	43.687
1.708	42.447
1.676	41.458
1.644	40.266
1.612	38.968
1.58	37.418
1.548	36.636
1.516	35.349
1.484	33.552
1.452	32.388
1.42	31.033
1.388	29.829
1.356	28.787
1.324	27.546
1.292	26.448
1.26	25.117
1.228	24.588
1.196	23.588
1.164	22.956
1.132	22.94
1.1	22.786
1.068	22.663
1.036	22.311
1.004	22.018
0.972	21.33
0.94	20.98
0.908	20.731
0.876	20.622
0.844	20.359
0.812	20.166
0.795	19.527
0.787	19.369
0.779	19.198
0.771	19.232
0.763	19.224
0.755	18.701
0.747	18.673
0.739	18.846
0.731	18.885
0.723	18.904
0.715	18.942
0.707	18.857
0.699	18.7
0.691	19.191
0.683	18.979
0.675	19.336
0.667	19.42
0.659	19.336
0.651	19.445
0.643	19.534
0.635	19.45
0.627	19.613
0.619	19.545
0.611	19.329
0.603	19.407
0.595	19.396
0.587	19.138
0.579	19.013
0.571	18.814
0.563	18.403
0.555	17.74
0.547	17.459
0.539	16.954
0.531	16.713
0.523	16.538
0.515	16.21
0.507	15.7
0.499	15.636
0.491	15.177
0.483	14.853
0.475	14.554
0.467	14.369
0.459	14.388
0.451	14.07
0.443	14.085
0.435	13.7
0.427	13.203
0.419	12.87
0.411	13.006
0.403	12.652
