Name: Sandstone (Micaceous Red)
Type: rock
Class: Sedimentary
Subclass: Sandstone
Particle Size: Coarse
Sample No.: sandstone_3
Owner: JHU
Wavelength Range: All
Origin: Sample No. 363,  The Hunt and Salisbury Collection at the U.S.Geological Survey, Denver, Co.
Description: Sample consists of subangular to subrounded quartz grains, many (~50%) coated with ferruginous material with adhering, interstitial muscovite and green biotite mica. Interstitial carbonate, as well as larger carbonate crystals, scattered opaques and minor microcline, are present. Brown clay may be present in small amounts around the grains. Particle size was 500 - 1500 Micrometers. Original ASTER Spectral Library name was jhu.becknic.rock.sedimentary.sandstone.coarse.sandst3.spectrum.txt
Measurement: Directional (10 Degree) Hemispherical Reflectance
X Units: Wavelength (micrometers)
Y Units: Reflectance (percent)
wavelength	value
14.0112	2.0679
13.7147	2.3014
13.4304	2.326
13.1577	2.6198
12.8959	3.3716
12.6443	3.1091
12.4023	2.6885
12.1694	2.1054
11.945	2.4138
11.7289	2.7201
11.5203	3.1405
11.3191	4.0599
11.1248	4.0543
10.937	3.6936
10.7555	3.6594
10.5799	3.8518
10.4099	4.5387
10.2454	5.5422
10.0859	6.5176
9.9313	7.483
9.7814	8.5778
9.636	10.1421
9.4948	11.0819
9.3577	12.3959
9.2245	13.3281
9.095	13.0249
8.9691	12.5706
8.8467	12.255
8.7275	11.3178
8.6116	9.3143
8.4986	10.8907
8.3886	11.1178
8.2814	11.5011
8.1769	11.1402
8.075	8.0483
7.9756	5.5491
7.8786	3.8145
7.784	3.0491
7.6916	2.6764
7.6014	2.4241
7.5133	2.2739
7.4272	2.1914
7.343	2.1325
7.2607	2.2457
7.1803	2.3926
7.1016	2.7773
7.0246	3.5133
6.9493	3.6041
6.8755	3.6499
6.8034	3.7769
6.7327	3.8793
6.6634	4.0925
6.5956	4.4188
6.5292	4.7167
6.464	5.1098
6.4002	4.8924
6.3376	3.718
6.2762	2.4424
6.216	1.9593
6.157	1.7729
6.099	1.7128
6.0421	1.6672
5.9863	1.7024
5.9315	1.721
5.8777	1.8403
5.8249	2.0304
5.773	2.1409
5.722	2.2466
5.6719	2.1564
5.6227	2.0065
5.5744	1.9251
5.5268	1.964
5.4801	2.0576
5.4341	2.2672
5.3889	2.1902
5.3445	2.1328
5.3008	2.2342
5.2578	2.4347
5.2154	2.8245
5.1738	3.0371
5.1328	3.0944
5.0925	3.1407
5.0528	3.0459
5.0137	3.146
4.9752	3.3642
4.9373	3.8085
4.9	4.7304
4.8632	6.4164
4.827	7.4557
4.7913	8.1738
4.7561	8.736
4.7215	8.9843
4.6873	8.1647
4.6536	8.3819
4.6205	9.1334
4.5877	9.9112
4.5555	10.4036
4.5237	9.8375
4.4923	8.8365
4.4614	8.6613
4.4309	9.2882
4.4008	10.3474
4.3711	11.6808
4.3418	12.4402
4.3129	12.2689
4.2844	11.9215
4.2563	12.2684
4.2285	12.8524
4.2011	13.2393
4.174	13.536
4.1473	13.6759
4.1209	14.0162
4.0949	14.137
4.0692	13.8171
4.0438	12.8675
4.0187	11.2118
3.994	9.1085
3.9695	7.6624
3.9453	7.7318
3.9214	7.9967
3.8979	8.6967
3.8746	8.946
3.8515	10.0543
3.8288	10.2993
3.8063	9.188
3.7841	10.129
3.7621	11.7009
3.7404	13.5657
3.7189	14.2808
3.6977	14.6693
3.6767	14.9275
3.656	14.9
3.6355	14.7024
3.6152	14.3581
3.5951	14.0143
3.5753	13.5987
3.5557	12.8144
3.5363	12.172
3.5171	10.8721
3.4981	9.0841
3.4793	8.0374
3.4607	7.5622
3.4423	7.4512
3.4241	7.8742
3.4061	7.8744
3.3883	7.8457
3.3707	7.7541
3.3533	7.3088
3.336	7.0679
3.3189	6.8233
3.302	6.7375
3.2853	7.6074
3.2687	7.6163
3.2523	7.4503
3.2361	7.2184
3.22	6.9875
3.204	6.6837
3.1883	6.3647
3.1727	6.0898
3.1572	5.8201
3.1419	5.5764
3.1268	5.3713
3.1117	5.2058
3.0969	5.0321
3.0821	4.8997
3.0675	4.8248
3.0531	4.7557
3.0388	4.6402
3.0246	4.5994
3.0105	4.5347
2.9966	4.4122
2.9828	4.3585
2.9692	4.2507
2.9556	4.2047
2.9422	4.1624
2.9289	4.1698
2.9157	4.1622
2.9027	4.2705
2.8897	4.4069
2.8769	4.378
2.8642	4.5775
2.8516	4.5715
2.8391	4.6153
2.8267	4.5201
2.8144	4.3396
2.8022	3.9666
2.7902	3.5125
2.7782	3.0622
2.7664	2.7433
2.7546	2.6132
2.7429	2.8776
2.7314	3.5113
2.7199	5.033
2.7085	8.0432
2.6973	11.2149
2.6861	13.771
2.675	14.744
2.664	15.3663
2.6531	16.1104
2.6423	16.4293
2.6315	16.2977
2.6209	16.3131
2.6103	16.5047
2.5999	16.5495
2.5895	16.6286
2.5792	16.8076
2.569	16.8167
2.5588	16.8736
2.5487	16.8378
2.5388	16.6373
2.5289	16.3121
2.519	16.1259
2.5093	16.0163
2.4996	16.0535
2.49	16.1229
2.4805	16.2422
2.471	16.1778
2.4616	16.1006
2.4523	16.1379
2.4431	16.1755
2.4339	16.3037
2.4248	16.5063
2.4157	16.6961
2.4068	16.8516
2.3979	16.8622
2.389	16.8547
2.3802	16.9074
2.3715	16.8487
2.3629	16.9004
2.3543	16.7315
2.3458	16.6449
2.3373	16.6607
2.3289	16.7844
2.3206	16.9966
2.3123	17.1822
2.3041	17.2607
2.2959	17.3479
2.2878	17.4505
2.2798	17.4883
2.2718	17.444
2.2638	17.4232
2.2559	17.2845
2.2481	17.1995
2.2403	17.0559
2.2326	16.8863
2.225	16.6925
2.2173	16.3774
2.2098	16.2291
2.2023	16.1207
2.1948	16.4021
2.1874	16.7023
2.18	17.0365
2.1727	17.2806
2.1655	17.4943
2.1583	17.5361
2.1511	17.5706
2.144	17.6282
2.1369	17.601
2.1299	17.5371
2.1229	17.4966
2.116	17.5024
2.1091	17.489
2.1023	17.4614
2.0955	17.438
2.0887	17.4662
2.082	17.3547
2.06	17.5348
2.028	17.311
1.996	17.0567
1.964	16.641
1.932	16.4924
1.9	16.1116
1.868	16.7262
1.836	17.0342
1.804	16.948
1.772	16.8937
1.74	16.8839
1.708	16.965
1.676	16.6621
1.644	16.5165
1.612	16.533
1.58	16.3331
1.548	16.5992
1.516	16.4485
1.484	16.4804
1.452	16.4619
1.42	16.4785
1.388	16.3512
1.356	16.8992
1.324	17.2892
1.292	17.6261
1.26	17.7932
1.228	17.8778
1.196	18.1921
1.164	18.7461
1.132	18.9916
1.1	19.5441
1.068	20.0817
1.036	20.422
1.004	20.986
0.972	20.5939
0.94	20.2232
0.908	19.3694
0.876	18.5238
0.844	18.5719
0.812	18.4657
0.795	18.9696
0.787	18.8312
0.779	19.152
0.771	18.7622
0.763	18.769
0.755	18.6567
0.747	18.5038
0.739	18.3234
0.731	17.8308
0.723	17.7273
0.715	17.2395
0.707	16.6461
0.699	16.3295
0.691	15.9767
0.683	15.566
0.675	15.1648
0.667	14.9907
0.659	14.4759
0.651	14.3753
0.643	13.998
0.635	13.9293
0.627	13.33
0.619	13.2372
0.611	13.0571
0.603	12.4847
0.595	11.8933
0.587	11.2966
0.579	10.5883
0.571	9.3763
0.563	8.2944
0.555	7.1964
0.547	6.6039
0.539	6.2579
0.531	5.6599
0.523	5.7053
0.515	5.562
0.507	5.6815
0.499	5.3934
0.491	5.2174
0.483	5.3046
0.475	5.2355
0.467	4.8118
0.459	4.9216
0.451	4.4415
0.443	4.3209
0.435	4.2111
0.427	4.1277
0.419	4.0406
0.411	3.6542
0.403	3.332
