Name: Rhyolite
Type: Rock
Class: Igneous
Subclass: Felsic
Particle Size: Solid
Sample No.: AP-936-10
Owner: United States Geological Survey, L. C. Rowan
Wavelength Range: All
Origin: Iberian Pyrite Belt, Spain
Description: Rhyolite, freshSample was Whole Rock Chips. Original ASTER Spectral Library name was usgs.perknic.rock.igneous.felsic.solid.rhy10.spectrum.txt
Measurement: Directional Hemispherical Reflectance
X Units: Wavelength (micrometers)
Y Units: Reflectance (percent)
wavelength	value
14.051	2.5235
13.79	2.6471
13.538	2.8016
13.295	2.9973
13.06	3.5844
12.834	4.4702
12.616	3.7492
12.404	3.3372
12.2	2.0703
12.002	2.5853
11.811	3.2342
11.626	3.4711
11.446	3.8213
11.272	4.2024
11.103	4.3157
10.939	4.4599
10.78	4.429
10.625	4.5835
10.475	4.8822
10.329	5.2633
10.187	5.6959
10.049	6.18
9.914	6.7465
9.783	7.0761
9.656	8.2915
9.532	9.1155
9.411	10.7841
9.293	13.9153
9.178	13.4724
9.065	12.5351
8.956	11.6493
8.849	11.2682
8.744	10.5369
8.642	9.2597
8.543	10.403
8.445	10.8665
8.35	11.5772
8.257	12.5969
8.166	12.7514
8.077	8.5593
7.99	5.0985
7.905	3.1724
7.821	2.1115
7.739	1.7304
7.659	1.4523
7.581	1.2154
7.504	1.133
7.429	1.0403
7.355	1.1227
7.283	1.1948
7.212	1.2051
7.143	1.3081
7.074	1.3184
7.007	1.4317
6.942	1.4626
6.877	1.5965
6.814	1.6171
6.752	1.6583
6.691	1.6995
6.631	1.7201
6.572	1.7201
6.514	1.8128
6.458	2.1115
6.402	2.0806
6.347	2.0394
6.293	1.8952
6.24	1.7304
6.188	1.751
6.137	1.8334
6.086	2.0085
6.037	2.0806
5.988	2.163
5.94	2.0394
5.893	2.2557
5.846	2.575
5.8	2.8428
5.755	3.0076
5.711	3.1003
5.667	3.0797
5.624	2.8016
5.582	2.7295
5.54	2.8634
5.499	3.193
5.459	3.502
5.419	3.4505
5.379	2.987
5.341	2.6986
5.302	2.9252
5.265	3.1518
5.227	3.8419
5.191	4.3981
5.155	4.5114
5.119	4.6247
5.084	4.6453
5.049	4.5732
5.015	4.5423
4.981	4.8513
4.948	5.7268
4.915	6.3345
4.883	8.24
4.851	9.7026
4.819	10.4751
4.788	10.9489
4.758	11.433
4.727	11.845
4.697	11.9377
4.668	11.948
4.638	12.9986
4.61	13.9359
4.581	14.6775
4.553	15.1307
4.525	14.9453
4.498	14.1007
4.47	14.008
4.444	14.9144
4.417	15.8311
4.391	17.0877
4.365	18.5709
4.34	19.776
4.314	20.6309
4.289	21.0017
4.265	21.7639
4.24	22.4025
4.216	22.6703
4.192	22.7939
4.169	23.3501
4.145	23.9578
4.122	24.5243
4.099	25.0393
4.077	25.544
4.055	25.7912
4.032	25.9045
4.011	25.9663
3.989	25.9663
3.968	26.2856
3.947	26.8624
3.926	27.0169
3.905	27.1199
3.884	27.0581
3.864	26.8521
3.844	26.7594
3.824	26.8521
3.805	26.8212
3.785	26.6976
3.766	26.3165
3.747	26.0075
3.728	25.7191
3.709	25.647
3.691	25.5543
3.673	25.3586
3.655	25.2247
3.637	24.6994
3.619	24.4728
3.601	23.8857
3.584	23.3398
3.567	22.7836
3.549	22.1553
3.533	21.5064
3.516	20.8987
3.499	20.1983
3.483	20.0129
3.466	19.7657
3.45	19.3022
3.434	18.6224
3.418	17.6954
3.403	17.407
3.387	17.1083
3.372	16.7478
3.357	16.4182
3.341	16.1298
3.326	15.7281
3.312	15.2852
3.297	14.832
3.282	14.3891
3.268	13.9668
3.253	13.5857
3.239	13.3282
3.225	12.978
3.211	12.6278
3.197	12.4012
3.183	11.845
3.17	11.4639
3.156	11.0416
3.143	10.6605
3.13	10.2794
3.117	9.9086
3.103	9.4966
3.091	9.27
3.078	8.9198
3.065	8.8065
3.052	8.9507
3.04	8.4872
3.027	8.5593
3.015	8.4254
3.003	8.5696
2.991	8.5284
2.979	8.1988
2.967	8.1576
2.955	8.0134
2.943	7.7559
2.932	7.7868
2.92	8.1267
2.909	8.2297
2.897	8.4666
2.886	8.4769
2.875	8.7138
2.864	8.4357
2.853	8.755
2.842	8.6726
2.831	8.5902
2.82	8.0855
2.809	7.6426
2.799	7.3542
2.788	6.7362
2.778	5.9843
2.767	5.6135
2.757	5.2015
2.747	6.077
2.737	6.4581
2.727	7.6632
2.717	9.7335
2.707	9.8983
2.697	12.2261
2.687	21.4858
2.677	28.0778
2.668	32.0433
2.658	34.9788
2.649	36.5959
2.639	37.3272
2.63	37.8731
2.62	38.5529
2.611	39.346
2.602	39.3769
2.593	39.9022
2.584	40.1803
2.575	40.9322
2.566	40.994
2.557	41.8386
2.548	41.3854
2.54	42.5184
2.531	42.6111
2.522	42.4566
2.514	42.3639
2.505	42.8068
2.489	42.333
2.461	42.633
2.433	43.833
2.405	45.733
2.377	46.733
2.349	46.933
2.321	48.633
2.293	51.133
2.265	54.033
2.237	52.633
2.209	50.433
2.181	55.433
2.153	60.333
2.125	62.233
2.097	63.833
2.069	63.533
2.041	62.533
2.013	60.733
1.985	58.333
1.957	55.433
1.929	52.333
1.901	54.333
1.873	66.833
1.845	72.533
1.817	73.433
1.789	74.433
1.761	75.833
1.733	74.533
1.705	74.933
1.677	75.033
1.649	76.133
1.621	74.933
1.593	74.933
1.565	74.533
1.537	73.233
1.509	71.933
1.481	70.133
1.453	68.333
1.425	64.533
1.397	63.633
1.369	71.733
1.341	71.733
1.313	70.733
1.285	70.033
1.257	69.033
1.229	67.533
1.201	65.733
1.173	64.533
1.145	62.833
1.117	61.233
1.089	59.833
1.061	58.633
1.033	57.033
1.005	57.033
0.977	56.333
0.949	55.833
0.921	55.833
0.893	56.133
0.865	56.933
0.837	57.933
0.809	59.233
0.799	59.633
0.792	59.833
0.785	59.833
0.778	60.033
0.771	60.033
0.764	59.733
0.757	59.633
0.75	59.033
0.743	59.133
0.736	59.133
0.729	58.333
0.722	57.933
0.715	57.233
0.708	56.933
0.701	55.433
0.694	55.133
0.687	55.133
0.68	55.133
0.673	54.233
0.666	54.633
0.659	53.933
0.652	53.733
0.645	53.933
0.638	53.933
0.631	53.433
0.624	53.133
0.617	53.333
0.61	52.533
0.603	52.333
0.596	51.233
0.589	50.933
0.582	51.233
0.575	50.133
0.568	49.733
0.561	50.633
0.554	49.133
0.547	47.633
0.54	46.333
0.533	44.633
0.526	43.233
0.519	42.133
0.512	41.233
0.505	39.733
0.498	38.733
0.491	38.133
0.484	37.533
0.477	37.533
0.47	37.533
0.463	37.733
0.456	37.333
0.449	37.033
0.442	36.433
0.435	35.733
0.428	35.133
0.421	34.433
0.414	34.333
0.407	34.033
