Name: Gypsum
Type: Rock
Class: Sedimentary
Subclass: Chemical precipitate
Particle Size: Solid
Sample No.: Ward75
Owner: JPL
Wavelength Range: All
Origin: Ward's Collection of American Rocks.  Sample locality - Grand Rapids, Kent County, Michigan.
Description: A soft, fine-granular, pink or medium gray rock with occasionalcleavable selenite.Geologic age - Mississippian.Collected by:  Ward's Natural Science Original ASTER Spectral Library name was jpl.nicolet.rock.sedimentary.chemical.solid.ward75.spectrum.txt
Measurement: Hemispherical reflectance
X Units: Wavelength (micrometers)
Y Units: Reflectance (percent)
wavelength	value
15.3871	2.3127
15.118	3.6957
14.8581	9.9735
14.6069	7.2453
14.3642	1.937
14.1293	1.1999
13.9021	1.4233
13.682	1.693
13.4687	1.8457
13.2621	1.6593
13.0616	2.082
12.8672	2.1253
12.6784	2.3527
12.4951	2.4812
12.317	2.4141
12.1439	2.7091
11.9757	2.4998
11.812	2.7052
11.6527	2.85
11.4977	3.088
11.3468	3.0677
11.1997	3.1441
11.0564	3.3669
10.9168	3.2863
10.7806	3.4529
10.6478	3.5642
10.5182	3.7752
10.3917	3.8559
10.2683	3.8732
10.1477	3.9511
10.0299	4.3317
9.9148	4.6201
9.8024	4.8696
9.6925	5.1661
9.585	5.5651
9.4798	6.1658
9.377	6.7688
9.2763	7.7448
9.1778	9.9227
9.0814	13.1613
8.987	20.17
8.8945	27.493
8.8039	33.3116
8.7151	37.4878
8.6281	39.2851
8.5428	37.4622
8.4592	27.4194
8.3772	19.8114
8.2967	13.2924
8.2179	5.7364
8.1404	2.2718
8.0645	1.0456
7.9899	0.5858
7.9167	0.5956
7.8449	0.5041
7.7743	0.5434
7.705	0.6909
7.6369	0.7908
7.57	0.9286
7.5043	0.9309
7.4397	1.1483
7.3762	1.2823
7.3138	1.4103
7.2524	1.5712
7.1921	1.7471
7.1327	1.8211
7.0743	2.0248
7.0169	2.0789
6.9604	2.2528
6.9047	2.3869
6.85	2.388
6.7962	2.5779
6.7431	2.6669
6.6909	2.7406
6.6395	2.7964
6.5889	2.8678
6.539	2.7075
6.49	2.8228
6.4416	2.8021
6.3939	2.8362
6.347	2.9003
6.3007	2.6917
6.2551	2.7553
6.2101	3.0008
6.1658	4.0515
6.1222	1.7571
6.0791	1.7666
6.0366	2.0406
5.9948	2.1059
5.9535	1.9385
5.9127	1.7623
5.8726	2.0651
5.8329	2.4407
5.7938	2.6748
5.7552	2.8539
5.7172	3.1932
5.6796	3.3878
5.6425	3.5865
5.6059	3.7244
5.5698	3.9367
5.5341	4.0382
5.4989	4.2611
5.4641	4.4495
5.4298	4.5183
5.3959	4.7287
5.3624	4.8302
5.3294	5.0366
5.2967	4.9708
5.2644	5.2374
5.2326	5.1231
5.2011	5.2796
5.17	5.2275
5.1392	5.1062
5.1088	5.2073
5.0788	5.1834
5.0491	5.0996
5.0198	5.1596
4.9908	5.0883
4.9622	5.1323
4.9338	5.1164
4.9058	5.0886
4.8781	5.0624
4.8508	4.9419
4.8237	4.7227
4.7969	4.5388
4.7704	3.9276
4.7443	3.4805
4.7184	3.1434
4.6927	3.2969
4.6674	3.2769
4.6423	3.3887
4.6175	3.3808
4.593	3.319
4.5687	2.9385
4.5447	2.9648
4.5209	2.9958
4.4974	2.9909
4.4741	2.7548
4.451	2.8704
4.4282	3.0784
4.4057	3.0131
4.3833	3.2231
4.3612	3.2795
4.3393	3.5293
4.3176	3.6307
4.2962	4.053
4.2749	4.1711
4.2539	4.5747
4.233	4.7248
4.2124	5.2189
4.192	5.6213
4.1717	5.945
4.1517	6.0586
4.1319	6.4063
4.1122	6.5205
4.0927	6.8474
4.0734	7.1594
4.0543	7.421
4.0354	7.6774
4.0166	7.7274
3.9981	8.0199
3.9796	7.8866
3.9614	8.2705
3.9433	8.6172
3.9254	8.7737
3.9077	8.9308
3.8901	8.9323
3.8726	8.6165
3.8554	8.9928
3.8382	9.286
3.8213	9.2776
3.8045	9.4608
3.7878	9.4353
3.7713	9.6128
3.7549	9.5481
3.7386	9.6009
3.7225	9.4984
3.7066	9.4279
3.6907	9.4758
3.675	9.5031
3.6595	9.2867
3.644	9.3439
3.6287	9.018
3.6136	8.9096
3.5985	8.9839
3.5836	8.8031
3.5688	8.8238
3.5541	8.5085
3.5396	8.5672
3.5251	8.3919
3.5108	8.1742
3.4966	8.0685
3.4825	7.8705
3.4685	7.8913
3.4547	7.8739
3.4409	7.7838
3.4273	7.2296
3.4137	7.4351
3.4003	7.5407
3.387	7.3772
3.3738	7.0352
3.3606	6.8094
3.3476	6.7694
3.3347	6.529
3.3219	6.1748
3.3092	5.9531
3.2965	5.9169
3.284	5.8486
3.2716	5.4086
3.2593	5.4371
3.247	5.4847
3.2348	4.9604
3.2228	5.018
3.2108	4.5564
3.1989	4.7521
3.1871	4.4764
3.1754	4.2564
3.1638	4.0795
3.1523	3.587
3.1408	3.7289
3.1294	3.4209
3.1181	3.6137
3.1069	3.5871
3.0958	3.3559
3.0848	3.1721
3.0738	2.8754
3.0629	3.6195
3.0521	3.1585
3.0413	3.0684
3.0307	3.5642
3.0201	3.3525
3.0096	3.3773
2.9991	3.0723
2.9887	3.2423
2.9784	3.3101
2.9682	3.386
2.9581	4.2984
2.948	4.2063
2.9379	5.9045
2.928	5.6421
2.9181	3.5797
2.9083	3.0031
2.8985	2.1954
2.8888	2.5533
2.8792	2.4401
2.8697	2.3746
2.8602	2.2001
2.8507	2.5238
2.8413	3.08
2.832	3.6143
2.8228	3.5868
2.8136	3.2611
2.8045	1.9934
2.7954	2.1767
2.7864	2.1534
2.7774	1.1762
2.7685	1.937
2.7597	2.1367
2.7509	1.8492
2.7422	1.9648
2.7335	2.285
2.7249	3.279
2.7163	3.0808
2.7078	3.1106
2.6994	3.268
2.691	3.9688
2.6826	3.9975
2.6743	4.4987
2.666	5.0277
2.6578	5.2875
2.6497	5.5253
2.6416	5.7088
2.6336	5.1575
2.6256	5.6366
2.6176	5.6904
2.6097	5.569
2.6018	6.0595
2.594	5.9566
2.5863	6.3874
2.5785	5.9256
2.5709	5.8449
2.5633	6.3884
2.5557	6.0981
2.5481	6.2552
2.5406	6.4092
2.5332	6.7847
2.5258	6.1
2.5184	6.6839
2.5111	6.5936
2.5038	6.5932
2.4966	6.6109
2.4894	6.504
2.4823	6.2185
2.4752	6.3597
2.4681	6.4659
2.4611	6.5855
2.4541	7.0575
2.4471	6.4028
2.4402	6.8323
2.4333	6.9144
2.4265	6.6937
2.4197	7.0669
2.413	6.9151
2.4063	8.1366
2.3996	7.7092
2.3929	8.6585
2.3863	9.0011
2.3798	10.2448
2.3732	9.8046
2.3667	10.2369
2.3603	10.0646
2.3538	10.9168
2.3474	12.0684
2.3411	11.7587
2.3347	11.5404
2.3285	12.2515
2.3222	12.1297
2.316	12.2055
2.3098	11.7365
2.3036	12.0483
2.2975	11.7709
2.2914	12.2256
2.2854	11.6998
2.2793	11.6048
2.2733	10.9747
2.2674	11.2188
2.2614	10.6493
2.2555	11.4879
2.2497	10.5331
2.2438	11.5649
2.238	11.3243
2.2322	11.0049
2.2265	11.1957
2.2208	9.2196
2.2151	10.3891
2.2094	10.8243
2.2038	11.1075
2.1982	10.0005
2.1926	10.6174
2.187	11.1193
2.1815	11.3077
2.176	11.3443
2.1706	11.4169
2.1651	12.0869
2.1597	11.7652
2.1543	11.5966
2.149	11.4231
2.1436	13.4551
2.1383	11.9822
2.1331	12.7333
2.1278	13.0457
2.1226	13.6675
2.1174	12.0707
2.1122	13.8215
2.1071	12.6725
2.1019	12.7554
2.0968	15.5087
2.0918	14.3781
2.0867	13.3485
2.0817	14.9261
2.0767	14.8075
2.0717	14.2795
2.0667	13.867
2.0618	16.04
2.0569	13.1139
2.052	16.3557
2.0472	15.8635
2.0423	13.5187
2.0375	15.3927
2.0327	13.2545
2.028	14.3691
2.0232	14.1523
2.0185	14.7859
2.0138	11.6057
2.0091	10.9173
2.0044	10.6391
1.9998	11.0634
