Name: Hornblende Gneiss
Type: rock
Class: Metamorphic
Subclass: Gneis
Particle Size: Coarse
Sample No.: gneiss6
Owner: JHU
Wavelength Range: All
Origin: Sample No. 465, The Hunt and Salisbury Collection at the U.S.Geological Survey, Denver, Co.
Description: Coarse grains of slightly lineated hornblende euhedra with anhedra of alkali feldspar make up the bulk of this rock.  There are scattered grains of pyrite and possibly a trace of quartz as well.  The modes were 69% hornblende, 30.4% feldspar and 0.6% opaques.  Particle size was 500-1500 Micrometer. Original ASTER Spectral Library name was jhu.becknic.rock.metamorphic.gneiss.coarse.gneiss6.spectrum.txt
Measurement: Directional (10 Degree) Hemispherical Reflectance
X Units: Wavelength (micrometers)
Y Units: Reflectance (percent)
wavelength	value
14.983	2.6966
14.645	2.4068
14.321	2.313
14.011	2.3956
13.715	2.5758
13.43	2.8659
13.158	2.7139
12.896	2.5877
12.644	2.74
12.402	2.9439
12.169	3.2745
11.945	3.8265
11.729	4.3288
11.52	4.6837
11.319	5.1304
11.125	5.8889
10.937	6.781
10.755	7.482
10.58	9.1425
10.41	10.615
10.245	11.814
10.086	12.471
9.9313	11.702
9.7814	10.436
9.636	10.602
9.4948	9.7651
9.3577	8.3115
9.2245	6.7443
9.095	5.8714
8.9691	5.797
8.8467	6.1937
8.7275	6.5664
8.6116	4.4614
8.4986	3.9112
8.3886	3.718
8.2814	3.0949
8.1769	1.9781
8.075	1.2698
7.9756	0.943
7.8786	0.8123
7.784	0.781
7.6916	0.8367
7.6014	0.8594
7.5133	0.8921
7.4272	0.9617
7.343	1.01
7.2607	1.1017
7.1803	1.1879
7.1016	1.2627
7.0246	1.3205
6.9493	1.3747
6.8755	1.3918
6.8034	1.4436
6.7327	1.5128
6.6634	1.5845
6.5956	1.6023
6.5292	1.5893
6.464	1.5921
6.4002	1.6191
6.3376	1.5926
6.2762	1.5871
6.216	1.5668
6.157	1.6369
6.099	1.6579
6.0421	1.7252
5.9863	1.7335
5.9315	1.7842
5.8777	1.8462
5.8249	1.8794
5.773	1.8846
5.722	1.9395
5.6719	1.9722
5.6227	2.0501
5.5744	2.1065
5.5268	2.1664
5.4801	2.2223
5.4341	2.2914
5.3889	2.3203
5.3445	2.384
5.3008	2.4139
5.2578	2.4998
5.2154	2.6092
5.1738	2.6708
5.1328	2.7395
5.0925	2.8243
5.0528	2.9633
5.0137	3.0841
4.9752	3.2285
4.9373	3.4405
4.9	3.704
4.8632	4.0031
4.827	4.2999
4.7913	4.635
4.7561	5.0617
4.7215	5.5401
4.6873	6.0847
4.6536	6.7616
4.6205	7.5516
4.5877	8.3951
4.5555	9.2015
4.5237	9.7419
4.4923	10.119
4.4614	10.721
4.4309	11.61
4.4008	12.497
4.3711	13.289
4.3418	13.962
4.3129	14.568
4.2844	15.126
4.2563	15.626
4.2285	16.158
4.2011	16.531
4.174	16.888
4.1473	17.302
4.1209	17.67
4.0949	18.021
4.0692	18.358
4.0438	18.622
4.0187	18.857
3.994	18.966
3.9695	19.18
3.9453	19.577
3.9214	19.948
3.8979	20.181
3.8746	20.359
3.8515	20.543
3.8288	20.76
3.8063	20.932
3.7841	21.101
3.7621	21.191
3.7404	21.256
3.7189	21.298
3.6977	21.362
3.6767	21.407
3.656	21.414
3.6355	21.417
3.6152	21.274
3.5951	21.138
3.5753	20.928
3.5557	20.707
3.5363	20.409
3.5171	19.959
3.4981	19.542
3.4793	19.217
3.4607	18.702
3.4423	18.088
3.4241	17.524
3.4061	16.92
3.3883	16.376
3.3707	15.871
3.3533	15.444
3.336	15.261
3.3189	15.113
3.302	14.958
3.2853	14.662
3.2687	14.277
3.2523	13.73
3.2361	13.143
3.22	12.556
3.204	11.98
3.1883	11.379
3.1727	10.944
3.1572	10.557
3.1419	10.165
3.1268	9.7795
3.1117	9.4177
3.0969	9.1023
3.0821	8.7683
3.0675	8.4186
3.0531	8.1349
3.0388	7.8218
3.0246	7.5367
3.0105	7.203
2.9966	6.9053
2.9828	6.5266
2.9692	6.2986
2.9556	6.1404
2.9422	6.0469
2.9289	6.012
2.9157	6.062
2.9027	6.2716
2.8897	6.4044
2.8769	6.3559
2.8642	6.3552
2.8516	6.3426
2.8391	6.2363
2.8267	6.1795
2.8144	6.1904
2.8022	6.3275
2.7902	6.1963
2.7782	4.8244
2.7664	4.2546
2.7546	4.023
2.7429	4.1604
2.7314	4.5454
2.7199	5.385
2.7085	6.3074
2.6973	7.5085
2.6861	11.301
2.675	19.493
2.664	21.004
2.6531	21.186
2.6423	21.752
2.6315	21.978
2.6209	21.9
2.6103	22.117
2.5999	22.323
2.5895	22.422
2.5792	22.292
2.569	22.184
2.5588	22.157
2.5487	22.196
2.5388	22.148
2.5289	21.965
2.519	21.778
2.5093	21.601
2.4996	21.485
2.49	21.502
2.4805	21.522
2.471	21.587
2.4616	21.701
2.4523	21.813
2.4431	21.676
2.4339	21.328
2.4248	20.564
2.4157	19.572
2.4068	18.383
2.3979	17.361
2.389	17.222
2.3802	18.103
2.3715	19.268
2.3629	19.48
2.3543	18.71
2.3458	17.567
2.3373	16.531
2.3289	15.903
2.3206	15.825
2.3123	16.401
2.3041	17.114
2.2959	18.349
2.2878	20.537
2.2798	22.665
2.2718	23.808
2.2638	23.94
2.2559	23.684
2.2481	24.164
2.2403	25.174
2.2326	25.546
2.225	25.655
2.2173	25.644
2.2098	25.511
2.2023	25.4
2.1948	25.34
2.1874	25.409
2.18	25.53
2.1727	25.526
2.1655	25.451
2.1583	25.329
2.1511	25.142
2.144	25.047
2.1369	24.859
2.1299	24.844
2.1229	24.816
2.116	24.823
2.1091	24.975
2.1023	25.031
2.0955	25.171
2.0887	25.191
2.082	25.29
2.06	25.504
2.028	25.281
1.996	24.613
1.964	24.078
1.932	23.217
1.9	22.215
1.868	21.854
1.836	21.078
1.804	20.338
1.772	19.418
1.74	18.373
1.708	17.333
1.676	16.302
1.644	15.366
1.612	14.552
1.58	13.596
1.548	12.572
1.516	11.631
1.484	10.944
1.452	10.279
1.42	9.4447
1.388	8.3118
1.356	8.3225
1.324	7.9088
1.292	7.3331
1.26	7.0531
1.228	6.891
1.196	6.6144
1.164	6.3168
1.132	6.2543
1.1	6.0816
1.068	5.9568
1.036	6.0222
1.004	6.0466
0.972	6.0127
0.94	5.872
0.908	5.9088
0.876	6.2366
0.844	6.3644
0.812	6.3423
0.795	6.0974
0.787	6.1483
0.779	6.2705
0.771	5.9869
0.763	6.0287
0.755	6.1859
0.747	5.9812
0.739	6.0865
0.731	5.9549
0.723	5.9787
0.715	6.247
0.707	6.2354
0.699	6.0719
0.691	6.2896
0.683	6.3943
0.675	6.3254
0.667	6.4187
0.659	6.3449
0.651	6.3872
0.643	6.2879
0.635	6.2287
0.627	6.3644
0.619	6.441
0.611	6.6645
0.603	6.4963
0.595	6.5575
0.587	6.6417
0.579	6.7554
0.571	6.6268
0.563	6.7129
0.555	6.6356
0.547	6.5932
0.539	6.4906
0.531	6.7634
0.523	6.7291
0.515	6.3903
0.507	6.6102
0.499	6.8251
0.491	6.6587
0.483	6.6759
0.475	6.6528
0.467	6.5126
0.459	6.4781
0.451	6.3465
0.443	6.052
0.435	6.3129
0.427	6.1867
0.419	5.7115
0.411	6.043
0.403	5.7913
