Name: Serpentine
Type: Rock
Class: Metamorphic
Subclass: Serpentinite
Particle Size: Solid
Sample No.: Ward99
Owner: JPL
Wavelength Range: All
Origin: Ward's Collection of American Rocks.  Sample locality - Cardiff, harford County, Maryland.  Collected by - JPL.
Description: A dark greenish gray serpentine rock with bright green areasmottled with dark gray.  Slicken-sides are common.  Magnesite isabundant.  Picrolite is sometimes present.  Magnetite, pyrite andpyrrhotite are often present.  Geologic age - Pre-CambrianCollected by:  Ward's Natural Science Original ASTER Spectral Library name was jpl.nicolet.rock.metamorphic.serpentinite.solid.ward99.spectrum.txt
Measurement: Hemispherical reflectance
X Units: Wavelength (micrometers)
Y Units: Reflectance (percent)
wavelength	value
15.3871	15.4524
15.118	15.0019
14.8581	16.4662
14.6069	12.4456
14.3642	4.7896
14.1293	2.6038
13.9021	2.2085
13.682	1.7234
13.4687	1.849
13.2621	1.893
13.0616	2.0426
12.8672	3.1374
12.6784	3.0903
12.4951	3.4174
12.317	3.8976
12.1439	4.4004
11.9757	4.7946
11.812	5.2284
11.6527	5.9661
11.4977	6.5461
11.3468	7.7757
11.1997	9.6038
11.0564	9.6722
10.9168	9.6628
10.7806	10.899
10.6478	13.1315
10.5182	16.2436
10.3917	19.2764
10.2683	21.0966
10.1477	22.8626
10.0299	24.9608
9.9148	27.1996
9.8024	30.6532
9.6925	32.9925
9.585	35.849
9.4798	31.1497
9.377	22.9363
9.2763	18.5291
9.1778	16.9009
9.0814	14.069
8.987	11.0614
8.8945	8.84
8.8039	7.5578
8.7151	6.379
8.6281	4.6903
8.5428	3.4369
8.4592	2.9294
8.3772	2.6892
8.2967	2.5981
8.2179	2.5604
8.1404	2.8436
8.0645	2.6883
7.9899	2.7675
7.9167	3.1859
7.8449	3.3051
7.7743	3.3372
7.705	3.3401
7.6369	3.6118
7.57	3.5651
7.5043	3.6826
7.4397	3.8961
7.3762	4.0811
7.3138	4.2043
7.2524	4.4518
7.1921	4.7172
7.1327	5.0138
7.0743	5.7854
7.0169	7.2314
6.9604	7.6538
6.9047	7.8352
6.85	8.0527
6.7962	8.3686
6.7431	8.7688
6.6909	9.1927
6.6395	9.7517
6.5889	10.0878
6.539	10.4314
6.49	10.8659
6.4416	10.8048
6.3939	10.5858
6.347	9.8509
6.3007	8.4049
6.2551	5.8834
6.2101	4.5202
6.1658	3.9098
6.1222	3.6794
6.0791	3.2605
6.0366	3.1239
5.9948	3.2732
5.9535	3.0618
5.9127	3.0761
5.8726	3.1712
5.8329	3.2243
5.7938	3.2901
5.7552	3.3349
5.7172	3.3217
5.6796	3.3985
5.6425	3.5992
5.6059	3.5381
5.5698	3.6408
5.5341	3.5865
5.4989	3.6821
5.4641	3.6814
5.4298	3.8618
5.3959	3.9158
5.3624	4.1075
5.3294	4.2557
5.2967	4.3317
5.2644	4.4502
5.2326	4.5804
5.2011	4.603
5.17	4.8508
5.1392	4.871
5.1088	5.0253
5.0788	5.0931
5.0491	5.1435
5.0198	5.2215
4.9908	5.4285
4.9622	5.4304
4.9338	5.5144
4.9058	5.5346
4.8781	5.6091
4.8508	5.7089
4.8237	5.8446
4.7969	5.93
4.7704	5.9676
4.7443	6.1084
4.7184	6.194
4.6927	6.2714
4.6674	6.3471
4.6423	6.37
4.6175	6.29
4.593	6.3614
4.5687	6.4339
4.5447	6.4418
4.5209	6.7306
4.4974	6.8223
4.4741	6.7991
4.451	6.852
4.4282	6.9309
4.4057	7.0174
4.3833	6.9455
4.3612	7.1166
4.3393	7.2995
4.3176	7.224
4.2962	7.4214
4.2749	7.3953
4.2539	7.4827
4.233	7.5629
4.2124	7.6404
4.192	7.543
4.1717	7.7828
4.1517	7.7143
4.1319	7.7473
4.1122	7.8833
4.0927	7.9601
4.0734	7.8732
4.0543	7.9094
4.0354	7.8371
4.0166	7.6359
3.9981	7.342
3.9796	7.3309
3.9614	6.9946
3.9433	6.9867
3.9254	7.1631
3.9077	7.1097
3.8901	7.1822
3.8726	7.309
3.8554	7.5199
3.8382	7.6049
3.8213	7.4248
3.8045	7.4242
3.7878	7.4004
3.7713	7.5555
3.7549	7.6715
3.7386	7.8448
3.7225	8.152
3.7066	8.0998
3.6907	8.0927
3.675	8.3162
3.6595	8.4433
3.644	8.2612
3.6287	8.3143
3.6136	8.3906
3.5985	8.1245
3.5836	8.295
3.5688	8.3169
3.5541	8.02
3.5396	7.775
3.5251	7.6517
3.5108	7.4821
3.4966	7.0996
3.4825	6.9542
3.4685	6.8563
3.4547	6.7226
3.4409	6.7093
3.4273	6.5714
3.4137	6.6555
3.4003	6.6924
3.387	6.6751
3.3738	6.5914
3.3606	6.5364
3.3476	6.739
3.3347	6.618
3.3219	6.6092
3.3092	6.5884
3.2965	6.7486
3.284	6.7412
3.2716	6.4932
3.2593	6.8403
3.247	7.0987
3.2348	6.9322
3.2228	6.9438
3.2108	7.2265
3.1989	6.9039
3.1871	7.2999
3.1754	7.005
3.1638	6.6013
3.1523	6.9069
3.1408	6.368
3.1294	6.2829
3.1181	6.4154
3.1069	6.5449
3.0958	6.4864
3.0848	6.6657
3.0738	6.3373
3.0629	6.3803
3.0521	6.6612
3.0413	6.3708
3.0307	6.1758
3.0201	6.2751
3.0096	6.247
2.9991	6.3862
2.9887	6.0854
2.9784	6.3051
2.9682	5.395
2.9581	5.6391
2.948	5.9082
2.9379	5.2747
2.928	6.1692
2.9181	5.8363
2.9083	5.6119
2.8985	5.9345
2.8888	5.8539
2.8792	6.1049
2.8697	6.3279
2.8602	6.178
2.8507	5.8216
2.8413	5.3555
2.832	6.1357
2.8228	5.5749
2.8136	5.4858
2.8045	5.8958
2.7954	5.2946
2.7864	5.3947
2.7774	5.8753
2.7685	5.3035
2.7597	5.4159
2.7509	5.1016
2.7422	5.2655
2.7335	5.1358
2.7249	4.7635
2.7163	5.17
2.7078	5.1044
2.6994	6.1876
2.691	7.3724
2.6826	9.3798
2.6743	10.1821
2.666	10.5368
2.6578	10.3823
2.6497	10.4844
2.6416	10.7095
2.6336	10.9547
2.6256	10.9657
2.6176	10.8349
2.6097	10.6838
2.6018	10.2881
2.594	10.4263
2.5863	10.2073
2.5785	10.1905
2.5709	10.3031
2.5633	9.8627
2.5557	9.7155
2.5481	10.3048
2.5406	9.9445
2.5332	10.327
2.5258	9.7905
2.5184	10.0711
2.5111	9.5931
2.5038	9.8322
2.4966	9.6764
2.4894	10.0772
2.4823	10.2862
2.4752	10.1671
2.4681	10.1541
2.4611	10.0472
2.4541	10.2848
2.4471	9.8983
2.4402	10.912
2.4333	10.1684
2.4265	10.7371
2.4197	10.712
2.413	10.7445
2.4063	10.3255
2.3996	10.9204
2.3929	10.7212
2.3863	10.8171
2.3798	10.2551
2.3732	11.3994
2.3667	11.734
2.3603	11.6757
2.3538	11.2869
2.3474	10.6029
2.3411	9.7524
2.3347	10.3301
2.3285	10.2318
2.3222	9.2995
2.316	9.9332
2.3098	10.4748
2.3036	10.6264
2.2975	10.3885
2.2914	10.8542
2.2854	10.5921
2.2793	11.9975
2.2733	11.7488
2.2674	11.6921
2.2614	12.578
2.2555	12.4975
2.2497	12.5274
2.2438	12.5401
2.238	12.9807
2.2322	13.7297
2.2265	14.319
2.2208	15.235
2.2151	14.9444
2.2094	15.1404
2.2038	15.2278
2.1982	15.8109
2.1926	15.7467
2.187	15.966
2.1815	15.4927
2.176	16.3704
2.1706	15.9493
2.1651	15.2065
2.1597	15.1899
2.1543	14.7138
2.149	15.2247
2.1436	15.1713
2.1383	14.635
2.1331	14.4655
2.1278	14.7244
2.1226	14.7467
2.1174	14.5881
2.1122	15.4807
2.1071	14.7642
2.1019	15.0408
2.0968	15.0966
2.0918	15.0085
2.0867	15.7195
2.0817	14.8298
2.0767	15.468
2.0717	15.5437
2.0667	15.5321
2.0618	16.5266
2.0569	16.1077
2.052	15.5704
2.0472	15.8557
2.0423	16.3086
2.0375	16.2163
2.0327	15.4014
2.028	14.7052
2.0232	14.8113
2.0185	15.8875
2.0138	14.9164
2.0091	15.2404
2.0044	14.6522
1.9998	14.8151
