Name: Rhyolite Porphyry
Type: Rock
Class: Igneous
Subclass: Feslic
Particle Size: Solid
Sample No.: Ward08
Owner: JPL
Wavelength Range: VSWIR
Origin: Ward's Collection of American Rocks.  Sample locality - Chaffee County, Colorado.
Description: A gray, prophyritic rock, occasionally vesicular, prominentphenocrysts of smoky quartz averaging 5mm in width.  Subhedral to euhedralphenocrysts of glassy feldspar averaging 4mm in length.  Tiny garnet andtopaz crystals in some vesicles.Geologic age - Tertiary (Eocene).Collected by:  Ward's Natural Science Original ASTER Spectral Library name was jpl.perkin.rock.igneous.felsic.solid.ward08.spectrum.txt
Measurement: Hemispherical reflectance
X Units: Wavelength (micrometers)
Y Units: Reflectance (percent)
wavelength	value
2.5	32.5479
2.494	32.5174
2.488	32.4432
2.482	32.5186
2.476	32.6197
2.47	32.7138
2.464	32.7653
2.458	32.8413
2.452	32.8893
2.446	32.8962
2.44	32.9948
2.434	32.9967
2.428	33.1107
2.422	33.2369
2.416	33.2794
2.41	33.2963
2.404	33.345
2.398	33.3532
2.392	33.302
2.386	33.4516
2.38	33.4087
2.374	33.5292
2.368	33.5856
2.362	33.5873
2.356	33.656
2.35	33.7217
2.344	33.7756
2.338	33.7198
2.332	33.6824
2.326	33.7377
2.32	33.7314
2.314	33.683
2.308	33.6591
2.302	33.6517
2.296	33.6951
2.29	33.6324
2.284	33.6683
2.278	33.6534
2.272	33.6027
2.266	33.5751
2.26	33.6285
2.254	33.5473
2.248	33.5758
2.242	33.5966
2.236	33.5688
2.23	33.5685
2.224	33.6636
2.218	33.5837
2.212	33.5852
2.206	33.659
2.2	33.6803
2.194	33.781
2.188	33.8486
2.182	33.9441
2.176	33.9312
2.17	33.986
2.164	34.0125
2.158	34.1984
2.152	34.1752
2.146	34.2333
2.14	34.2674
2.134	34.2257
2.128	34.072
2.122	34.0141
2.116	33.9818
2.11	33.7906
2.104	33.7015
2.098	33.6525
2.092	33.6873
2.086	33.7271
2.08	33.7047
2.074	33.8356
2.068	33.8201
2.062	33.823
2.056	33.8193
2.05	33.8503
2.044	33.8769
2.038	33.9519
2.032	33.8704
2.026	33.9285
2.02	33.8808
2.014	33.8734
2.008	33.8692
2.002	33.8004
1.996	33.7642
1.99	33.7026
1.984	33.6795
1.978	33.6059
1.972	33.55
1.966	33.5334
1.96	33.4751
1.954	33.4238
1.948	33.4387
1.942	33.4267
1.936	33.4025
1.93	33.3673
1.924	33.2853
1.918	33.1576
1.912	33.1637
1.906	33.3067
1.9	33.558
1.894	33.7644
1.888	34.0036
1.882	34.0555
1.876	34.1468
1.87	34.1281
1.864	34.2864
1.858	34.252
1.852	34.2507
1.846	34.3469
1.84	34.3141
1.834	34.3452
1.828	34.3612
1.822	34.4007
1.816	34.3717
1.81	34.3728
1.804	34.4439
1.798	34.4557
1.792	34.4003
1.786	34.4549
1.78	34.3889
1.774	34.4428
1.768	34.47
1.762	34.4486
1.756	34.447
1.75	34.4226
1.744	34.5541
1.738	34.5341
1.732	34.4956
1.726	34.5161
1.72	34.5018
1.714	34.5786
1.708	34.5157
1.702	34.528
1.696	34.565
1.69	34.5773
1.684	34.5875
1.678	34.5793
1.672	34.6246
1.666	34.639
1.66	34.5929
1.654	34.6381
1.648	34.691
1.642	34.7403
1.636	34.663
1.63	34.6096
1.624	34.6744
1.618	34.7209
1.612	34.7361
1.606	34.6903
1.6	34.7419
1.594	34.7266
1.588	34.7848
1.582	34.7417
1.576	34.7667
1.57	34.7766
1.564	34.8161
1.558	34.7636
1.552	34.8385
1.546	34.828
1.54	34.8103
1.534	34.8988
1.528	34.8245
1.522	34.8565
1.516	34.9097
1.51	34.9286
1.504	34.8261
1.498	34.9051
1.492	34.8847
1.486	34.9212
1.48	34.8755
1.474	34.9219
1.468	34.9324
1.462	34.9164
1.456	34.9756
1.45	34.9498
1.444	34.9601
1.438	35.0027
1.432	34.9649
1.426	35.0364
1.42	34.9353
1.414	34.9737
1.408	35.0044
1.402	35.1052
1.396	35.2376
1.39	35.3064
1.384	35.3403
1.378	35.3789
1.372	35.3605
1.366	35.3973
1.36	35.427
1.354	35.4921
1.348	35.4375
1.342	35.5018
1.336	35.5288
1.33	35.5116
1.324	35.5602
1.318	35.5563
1.312	35.5639
1.306	35.6177
1.3	35.6797
1.294	35.6781
1.288	35.6843
1.282	35.7366
1.276	35.7655
1.27	35.8065
1.264	35.8253
1.258	35.8701
1.252	35.9179
1.246	35.9719
1.24	36.0312
1.234	36.01
1.228	36.0897
1.222	36.1188
1.216	36.187
1.21	36.2486
1.204	36.2992
1.198	36.257
1.192	36.3535
1.186	36.4482
1.18	36.4775
1.174	36.5538
1.168	36.6602
1.162	36.6692
1.156	36.7309
1.15	36.7944
1.144	36.861
1.138	36.9366
1.132	37.0419
1.126	37.049
1.12	37.1501
1.114	37.1673
1.108	37.2104
1.102	37.3042
1.096	37.3055
1.09	37.4398
1.084	37.404
1.078	37.4617
1.072	37.5974
1.066	37.5913
1.06	37.7364
1.054	37.718
1.048	37.8026
1.042	37.8014
1.036	37.8792
1.03	37.9086
1.024	37.9766
1.018	37.9904
1.012	38.0366
1.006	37.9685
1	38.1006
0.994	38.14
0.988	38.1601
0.982	38.1594
0.976	38.1528
0.97	38.2253
0.964	38.241
0.958	38.1655
0.952	38.2383
0.946	38.2917
0.94	38.3294
0.934	38.2598
0.928	38.2824
0.922	38.3317
0.916	38.3376
0.91	38.3494
0.904	38.3443
0.898	38.3544
0.892	38.4626
0.886	38.5013
0.88	38.4924
0.874	38.508
0.868	38.5062
0.862	38.5109
0.856	38.4393
0.85	38.5129
0.844	38.5394
0.838	38.5536
0.832	38.5737
0.826	38.5665
0.82	38.5598
0.814	38.5671
0.808	38.5326
0.802	38.4907
0.796	38.4245
0.79	38.4124
0.784	38.3175
0.778	38.2389
0.772	38.1702
0.766	38.0794
0.76	38.0019
0.754	37.8927
0.748	37.7877
0.742	37.673
0.736	37.5492
0.73	37.4424
0.724	37.3091
0.718	37.1841
0.712	37.0217
0.706	36.8755
0.7	36.7344
0.694	36.5785
0.688	36.4096
0.682	36.2528
0.676	36.0866
0.67	35.9074
0.664	35.7632
0.658	35.6038
0.652	35.448
0.646	35.2907
0.64	35.1502
0.634	34.9938
0.628	34.8527
0.622	34.6988
0.616	34.5485
0.61	34.3995
0.604	34.2431
0.598	34.1094
0.592	33.9737
0.586	33.8365
0.58	33.6948
0.574	33.5553
0.568	33.4348
0.562	33.3059
0.556	33.1771
0.55	33.0495
0.544	32.9302
0.538	32.8179
0.532	32.7102
0.526	32.6015
0.52	32.4996
0.514	32.3931
0.508	32.3503
0.502	32.2632
0.496	32.1994
0.49	32.1197
0.484	32.0236
0.478	31.958
0.472	31.8822
0.466	31.7743
0.46	31.6547
0.454	31.4954
0.448	31.3111
0.442	31.1331
0.436	30.9558
0.43	30.7743
0.424	30.6015
0.418	30.4345
0.412	30.287
0.406	30.1046
0.4	29.892
