Name: Garnet Gneiss
Type: rock
Class: Metamorphic
Subclass: Gneis
Particle Size: Coarse
Sample No.: gneiss2
Owner: JHU
Wavelength Range: All
Origin: Sample No. 466, The Hunt and Salisbury Collection at the U.S.Geological Survey, Denver, Co.
Description: This is a very coarse-grained rock composed of porphyroblasts of garnet frequently enclosing embayed remnants of tectosilicates and opaques.  Larger grains of heavily altered alkali feldspar (oligoclase and K-spar) and quartz make up the bulk of the remainder of this rock.Particle size was 500-1500 Micrometer. Original ASTER Spectral Library name was jhu.becknic.rock.metamorphic.gneiss.coarse.gneiss2.spectrum.txt
Measurement: Directional (10 Degree) Hemispherical Reflectance
X Units: Wavelength (micrometers)
Y Units: Reflectance (percent)
wavelength	value
14.9831	2.3615
14.6445	2.9926
14.3209	3.1913
14.0112	3.3512
13.7147	3.5027
13.4304	3.5226
13.1578	3.6152
12.8959	4.1346
12.6443	3.9816
12.4023	3.8487
12.1694	3.4405
11.945	3.8196
11.7289	4.3354
11.5203	5.2957
11.3191	5.343
11.1248	5.9389
10.937	6.0755
10.7555	5.0683
10.5799	5.2753
10.4099	6.9854
10.2454	8.4157
10.0859	9.519
9.9313	10.3737
9.7814	10.5205
9.636	10.7417
9.4948	10.3029
9.3577	11.011
9.2245	11.6234
9.095	11.2154
8.9691	10.8147
8.8467	10.7474
8.7275	10.1568
8.6116	8.5737
8.4986	10.0204
8.3886	9.7158
8.2814	9.0793
8.1769	7.9118
8.075	5.2234
7.9756	3.3689
7.8786	2.2933
7.784	1.9064
7.6916	1.7138
7.6014	1.5845
7.5133	1.5606
7.4272	1.5639
7.343	1.5762
7.2607	1.603
7.1803	1.6688
7.1016	1.7396
7.0246	1.805
6.9493	1.8446
6.8755	1.8656
6.8034	1.8962
6.7327	1.9319
6.6634	1.9653
6.5956	2.0068
6.5292	2.0342
6.464	2.0946
6.4002	2.11
6.3376	2.0937
6.2762	2.088
6.216	2.0958
6.157	2.1169
6.099	2.1789
6.0421	2.2346
5.9863	2.2699
5.9315	2.2879
5.8777	2.3288
5.8249	2.3544
5.773	2.3532
5.722	2.3535
5.6719	2.3535
5.6227	2.3435
5.5744	2.3331
5.5268	2.3776
5.4801	2.4577
5.4341	2.5332
5.3889	2.5507
5.3445	2.5773
5.3008	2.6095
5.2578	2.6871
5.2154	2.8205
5.1738	2.9223
5.1328	3.0277
5.0925	3.143
5.0528	3.2477
5.0137	3.3675
4.9752	3.5205
4.9373	3.6837
4.9	3.9475
4.8632	4.424
4.827	4.8111
4.7913	5.1245
4.7561	5.4432
4.7215	5.7148
4.6873	5.6959
4.6536	6.1423
4.6205	6.8203
4.5877	7.3361
4.5555	7.6821
4.5237	7.6335
4.4923	7.4171
4.4614	7.6368
4.4309	8.24
4.4008	8.846
4.3711	9.5373
4.3418	9.9941
4.3129	10.4815
4.2844	10.8277
4.2563	11.4283
4.2285	11.9493
4.2011	12.3672
4.174	12.7679
4.1473	13.1871
4.1209	13.575
4.0949	13.9837
4.0692	14.3108
4.0438	14.4943
4.0187	14.5774
3.994	14.6911
3.9695	14.9199
3.9453	15.2355
3.9214	15.4439
3.8979	15.4615
3.8746	15.3705
3.8515	15.2966
3.8288	15.345
3.8063	15.3753
3.7841	15.2919
3.7621	15.1193
3.7404	14.9258
3.7189	14.949
3.6977	15.0821
3.6767	15.1787
3.656	15.2159
3.6355	15.1415
3.6152	14.9774
3.5951	14.7991
3.5753	14.5699
3.5557	14.3544
3.5363	14.1187
3.5171	13.8587
3.4981	13.5705
3.4793	13.3602
3.4607	13.0983
3.4423	12.718
3.4241	12.3173
3.4061	11.9085
3.3883	11.5391
3.3707	11.1379
3.3533	10.7289
3.336	10.3041
3.3189	9.9148
3.302	9.5029
3.2853	9.0771
3.2687	8.6547
3.2523	8.2829
3.2361	7.8656
3.22	7.4955
3.2041	7.1106
3.1883	6.7405
3.1727	6.3644
3.1572	6.0227
3.1419	5.6769
3.1268	5.3802
3.1117	5.1685
3.0969	4.9397
3.0821	4.7591
3.0675	4.6099
3.0531	4.4303
3.0388	4.2913
3.0246	4.2137
3.0105	4.0602
2.9966	4.0067
2.9828	3.8959
2.9692	3.7902
2.9556	3.7351
2.9422	3.7263
2.9289	3.7227
2.9157	3.7507
2.9027	3.7729
2.8897	3.8213
2.8769	3.8599
2.8642	3.9058
2.8516	3.9207
2.8391	3.8982
2.8267	3.9129
2.8144	3.8992
2.8022	3.8843
2.7902	3.8125
2.7782	3.5968
2.7664	3.4736
2.7546	3.3886
2.7429	3.677
2.7314	4.2433
2.7199	5.5602
2.7085	7.5544
2.6973	9.2713
2.6861	11.9497
2.675	13.5762
2.664	14.3634
2.6531	14.9525
2.6423	15.2396
2.6315	15.2519
2.6209	15.2244
2.6103	15.2727
2.5999	15.4063
2.5895	15.5995
2.5792	15.6758
2.569	15.794
2.5588	15.8816
2.5487	15.9848
2.5388	16.0414
2.5289	16.0069
2.519	15.8802
2.5093	15.7307
2.4996	15.6509
2.49	15.5605
2.4805	15.5332
2.471	15.4771
2.4616	15.3556
2.4523	15.218
2.4431	15.1062
2.4339	15.1972
2.4248	15.4174
2.4157	15.7201
2.4068	15.963
2.3979	16.0921
2.389	16.0208
2.3802	15.8667
2.3715	15.7061
2.3629	15.5148
2.3543	15.2689
2.3458	15.2817
2.3373	15.6166
2.3289	16.1482
2.3206	16.6976
2.3123	17.2516
2.3041	17.7837
2.2959	18.0683
2.2878	18.231
2.2798	18.2441
2.2718	18.0878
2.2638	17.8355
2.2559	17.6755
2.2481	17.8022
2.2403	18.0286
2.2326	17.8438
2.225	17.3077
2.2173	16.7471
2.2098	16.3332
2.2023	16.1783
2.1948	16.4864
2.1874	17.3233
2.18	18.3338
2.1727	19.0748
2.1655	19.5676
2.1583	19.9498
2.1511	20.1563
2.144	20.2764
2.1369	20.4097
2.1299	20.3965
2.1229	20.4147
2.116	20.4827
2.1091	20.6307
2.1023	20.7136
2.0955	20.8322
2.0887	20.9047
2.082	21.0245
2.06	20.9609
2.028	20.9866
1.996	20.6177
1.964	20.6717
1.932	20.5305
1.9	20.434
1.868	21.2281
1.836	21.3419
1.804	21.33
1.772	21.0898
1.74	20.8801
1.708	21.051
1.676	21.1613
1.644	21.11
1.612	21.2321
1.58	21.177
1.548	21.1325
1.516	21.2343
1.484	20.8077
1.452	20.4347
1.42	19.8234
1.388	18.9609
1.356	19.6557
1.324	19.3638
1.292	19.1986
1.26	18.9823
1.228	18.6202
1.196	18.8444
1.164	18.8879
1.132	19.1586
1.1	19.6831
1.068	20.1946
1.036	20.9319
1.004	21.6286
0.972	21.9167
0.94	21.7282
0.908	21.4379
0.876	21.1657
0.844	21.102
0.812	21.5841
0.795	22.0454
0.787	22.0325
0.779	22.1631
0.771	22.1624
0.763	22.2301
0.755	22.1567
0.747	22.163
0.739	22.0896
0.731	22.2406
0.723	21.9663
0.715	21.9913
0.707	21.8859
0.699	21.9207
0.691	21.873
0.683	21.9814
0.675	21.9098
0.667	21.9878
0.659	22.1806
0.651	22.1671
0.643	22.1089
0.635	22.1782
0.627	21.9059
0.619	21.8274
0.611	21.7092
0.603	21.5894
0.595	21.4996
0.587	21.3641
0.579	21.0025
0.571	20.9023
0.563	20.9669
0.555	21.1189
0.547	20.9302
0.539	20.9182
0.531	20.6534
0.523	20.201
0.515	20.1525
0.507	19.9008
0.499	19.7979
0.491	19.8036
0.483	19.7479
0.475	19.7848
0.467	19.4396
0.459	19.424
0.451	18.9931
0.443	18.8214
0.435	18.3224
0.427	18.0915
0.419	17.5516
0.411	17.3872
0.403	16.8712
