Name: Illite-bearing Shale
Type: rock
Class: Sedimentary
Subclass: Shale
Particle Size: Fine
Sample No.: shale_5
Owner: JHU
Wavelength Range: All
Origin: Sample No. 449,  The Hunt and Salisbury Collection at the U.S.Geological Survey, Denver, Co.
Description: Sample is very homogeneously fine grained to microcrystalline, consisting of a yellowish-brown to cloudy material (clay) and some very fine grained quartz. There is also, scattered throughout, a reddish brown opaque phase (hematite?), and perhaps carbonaceous material as well.Particle size was 0 - 75 Micrometers. Original ASTER Spectral Library name was jhu.becknic.rock.sedimentary.shale.fine.shale5.spectrum.txt
Measurement: Directional (10 Degree) Hemispherical Reflectance
X Units: Wavelength (micrometers)
Y Units: Reflectance (percent)
wavelength	value
14.983	1.5909
14.645	1.3979
14.321	1.3049
14.011	2.4451
13.715	2.9069
13.43	2.8837
13.158	2.9827
12.896	2.6066
12.644	2.2336
12.402	1.6463
12.169	2.1977
11.945	2.6256
11.729	3.6898
11.52	3.9413
11.319	3.6391
11.125	3.0052
10.937	2.3502
10.755	2.4934
10.58	2.6687
10.41	2.4631
10.245	2.1387
10.086	2.0297
9.9313	2.0184
9.7814	2.1382
9.636	2.4139
9.4948	2.5564
9.3577	2.8501
9.2245	3.0869
9.095	3.2884
8.9691	3.3573
8.8467	3.413
8.7275	3.4113
8.6116	2.9595
8.4986	3.5262
8.3886	3.548
8.2814	4.0972
8.1769	5.0648
8.075	4.4656
7.9756	3.921
7.8786	3.3453
7.784	3.3978
7.6916	3.8816
7.6014	4.2845
7.5133	4.8346
7.4272	5.3435
7.343	5.7932
7.2607	6.2283
7.1803	6.3021
7.1016	5.7087
7.0246	5.5796
6.9493	6.174
6.8755	7.5509
6.8034	8.8991
6.7327	9.7253
6.6634	10.834
6.5956	11.762
6.5292	12.967
6.464	15.66
6.4002	16.273
6.3376	15.058
6.2762	12.821
6.216	10.904
6.157	10.781
6.099	11.708
6.0421	12.562
5.9863	13.189
5.9315	13.472
5.8777	15.484
5.8249	17.558
5.773	18.862
5.722	19.605
5.6719	19.187
5.6227	17.253
5.5744	16.46
5.5268	17.124
5.4801	18.785
5.4341	19.792
5.3889	17.378
5.3445	15.375
5.3008	16.66
5.2578	19.901
5.2154	24.365
5.1738	26.096
5.1328	26.751
5.0925	26.943
5.0528	26.431
5.0137	26.644
4.9752	28.68
4.9373	31.613
4.9	35.004
4.8632	38.155
4.827	39.595
4.7913	40.634
4.7561	41.715
4.7215	42.718
4.6873	43.177
4.6536	44.389
4.6205	45.703
4.5877	46.771
4.5555	47.563
4.5237	47.831
4.4923	47.584
4.4614	48.015
4.4309	49.073
4.4008	50.072
4.3711	51.05
4.3418	51.625
4.3129	51.744
4.2844	50.957
4.2563	49.877
4.2285	52.15
4.2011	52.891
4.174	53.218
4.1473	53.578
4.1209	53.934
4.0949	54.198
4.0692	54.347
4.0438	54.271
4.0187	53.801
3.994	52.581
3.9695	51.373
3.9453	51.623
3.9214	52.162
3.8979	52.891
3.8746	53.086
3.8515	53.431
3.8288	53.003
3.8063	52.581
3.7841	52.717
3.7621	52.588
3.7404	52.201
3.7189	51.673
3.6977	51.136
3.6767	50.619
3.656	49.95
3.6355	49.226
3.6152	48.262
3.5951	47.153
3.5753	45.819
3.5557	44.353
3.5363	43.231
3.5171	42.643
3.4981	42.024
3.4793	41.558
3.4607	40.693
3.4423	39.798
3.4241	38.768
3.4061	37.601
3.3883	36.49
3.3707	35.211
3.3533	34.009
3.336	32.974
3.3189	31.995
3.302	31.285
3.2853	30.712
3.2687	30.24
3.2523	29.983
3.2361	29.493
3.22	28.718
3.204	27.836
3.1883	26.904
3.1727	25.956
3.1572	25.011
3.1419	24.013
3.1268	22.983
3.1117	21.908
3.0969	20.774
3.0821	19.79
3.0675	18.908
3.0531	18.128
3.0388	17.448
3.0246	16.977
3.0105	16.608
2.9966	16.355
2.9828	16.216
2.9692	15.878
2.9556	15.527
2.9422	15.215
2.9289	15.095
2.9157	15.184
2.9027	15.401
2.8897	15.714
2.8769	15.868
2.8642	15.613
2.8516	14.824
2.8391	13.468
2.8267	11.772
2.8144	10.19
2.8022	8.5609
2.7902	6.741
2.7782	4.9684
2.7664	4.0105
2.7546	3.996
2.7429	5.3639
2.7314	8.3681
2.7199	15.874
2.7085	27.789
2.6973	37.507
2.6861	46.117
2.675	50.968
2.664	53.563
2.6531	55.501
2.6423	56.301
2.6315	56.18
2.6209	56.252
2.6103	56.472
2.5999	56.757
2.5895	57.308
2.5792	57.94
2.569	58.353
2.5588	58.712
2.5487	59.035
2.5388	59.12
2.5289	59.143
2.519	59.051
2.5093	58.905
2.4996	58.737
2.49	58.544
2.4805	58.293
2.471	58.042
2.4616	57.775
2.4523	57.528
2.4431	57.461
2.4339	57.744
2.4248	58.361
2.4157	58.966
2.4068	59.458
2.3979	59.609
2.389	59.544
2.3802	59.235
2.3715	58.891
2.3629	58.351
2.3543	57.784
2.3458	57.61
2.3373	58.296
2.3289	59.421
2.3206	60.499
2.3123	61.528
2.3041	62.381
2.2959	62.961
2.2878	63.258
2.2798	63.124
2.2718	62.382
2.2638	61.589
2.2559	60.879
2.2481	60.551
2.2403	60.204
2.2326	59.268
2.225	58.167
2.2173	57.788
2.2098	58.251
2.2023	59.201
2.1948	60.435
2.1874	61.82
2.18	63.073
2.1727	63.973
2.1655	64.613
2.1583	64.912
2.1511	65.081
2.144	65.049
2.1369	65.043
2.1299	65.013
2.1229	64.977
2.116	65.059
2.1091	65.038
2.1023	65.257
2.0955	65.476
2.0887	65.643
2.082	65.586
2.06	66.607
2.028	65.05
1.996	64.035
1.964	62.617
1.932	60.728
1.9	60.392
1.868	62.17
1.836	63.163
1.804	63.033
1.772	61.867
1.74	61.324
1.708	60.882
1.676	59.901
1.644	58.445
1.612	58.012
1.58	56.57
1.548	55.902
1.516	54.686
1.484	52.799
1.452	51.23
1.42	48.872
1.388	48.384
1.356	46.891
1.324	46.018
1.292	44.352
1.26	43.17
1.228	42.006
1.196	40.06
1.164	38.35
1.132	37.845
1.1	37.103
1.068	36.875
1.036	36.477
1.004	36.177
0.972	36.028
0.94	35.693
0.908	35.488
0.876	35.569
0.844	35.754
0.812	35.733
0.795	35.351
0.787	34.93
0.779	34.698
0.771	34.284
0.763	33.991
0.755	33.798
0.747	33.85
0.739	33.791
0.731	33.94
0.723	33.413
0.715	33.746
0.707	33.686
0.699	33.945
0.691	34.063
0.683	34.357
0.675	34.759
0.667	34.982
0.659	35.321
0.651	35.55
0.643	35.624
0.635	36.028
0.627	36.128
0.619	36.296
0.611	36.532
0.603	36.735
0.595	37.123
0.587	37.327
0.579	37.502
0.571	37.547
0.563	37.344
0.555	36.914
0.547	36.988
0.539	36.988
0.531	37.023
0.523	36.463
0.515	36.233
0.507	35.644
0.499	35.443
0.491	34.726
0.483	34.135
0.475	33.112
0.467	32.381
0.459	31.599
0.451	30.814
0.443	29.891
0.435	29.026
0.427	28.15
0.419	27.142
0.411	26.227
0.403	24.992
