Name: Marble
Type: rock
Class: Metamorphic
Subclass: Marble
Particle Size: Fine
Sample No.: marble3
Owner: JHU
Wavelength Range: All
Origin: Sample No. 456, The Hunt and Salisbury Collection at the U.S.Geological Survey, Denver, Co.
Description: This is a medium-grained sample containing anhedral calcite with a few scattered (small) regions of recrystallized quartz.Particle size was 0-75 Micrometer. Original ASTER Spectral Library name was jhu.becknic.rock.metamorphic.marble.fine.marble3.spectrum.txt
Measurement: Directional (10 Degree) Hemispherical Reflectance
X Units: Wavelength (micrometers)
Y Units: Reflectance (percent)
wavelength	value
14.983	35.328
14.645	37.73
14.321	26.974
14.011	1.1062
13.715	30.875
13.43	42.068
13.158	39.921
12.896	33.738
12.644	35.326
12.402	38.099
12.169	39.926
11.945	38.016
11.729	21.17
11.52	8.0551
11.319	6.5816
11.125	30.96
10.937	36.622
10.755	32.577
10.58	30.906
10.41	34.141
10.245	32.329
10.086	30.172
9.9313	27.844
9.7814	28.021
9.636	33.265
9.4948	35.409
9.3577	32.901
9.2245	31.077
9.095	34.988
8.9691	34.498
8.8467	32.647
8.7275	27.724
8.6116	18.884
8.4986	17.069
8.3886	18.508
8.2814	20.786
8.1769	20.928
8.075	19
7.9756	19.263
7.8786	17.281
7.784	15.992
7.6916	14.061
7.6014	10.878
7.5133	9.9529
7.4272	8.4527
7.343	6.6541
7.2607	4.7891
7.1803	4.1459
7.1016	4.9767
7.0246	5.2744
6.9493	5.1287
6.8755	5.4337
6.8034	5.8089
6.7327	6.3701
6.6634	7.3773
6.5956	8.7826
6.5292	10.461
6.464	12.366
6.4002	9.4265
6.3376	5.4112
6.2762	3.5785
6.216	3.0869
6.157	2.8849
6.099	3.4651
6.0421	4.5419
5.9863	6.2972
5.9315	7.9009
5.8777	9.4103
5.8249	9.5323
5.773	9.1207
5.722	10.416
5.6719	13.394
5.6227	14.281
5.5744	1.737
5.5268	13.15
5.4801	27.154
5.4341	36.211
5.3889	43.761
5.3445	49.574
5.3008	54.747
5.2578	58.33
5.2154	61.182
5.1738	63.461
5.1328	65.06
5.0925	57.725
5.0528	67.78
5.0137	67.786
4.9752	67.449
4.9373	67.167
4.9	67.566
4.8632	68.106
4.827	68.534
4.7913	68.484
4.7561	65.966
4.7215	57.355
4.6873	42.063
4.6536	42.694
4.6205	54.818
4.5877	58.468
4.5555	59.091
4.5237	59.287
4.4923	60.698
4.4614	64.812
4.4309	68.183
4.4008	70.022
4.3711	70.4
4.3418	67.593
4.3129	67.338
4.2844	68.362
4.2563	67.457
4.2285	66.176
4.2011	64.87
4.174	62.678
4.1473	59.62
4.1209	54.759
4.0949	49.521
4.0692	42.562
4.0438	30.804
4.0187	16.74
3.994	6.4232
3.9695	5.048
3.9453	9.9763
3.9214	14.637
3.8979	16.129
3.8746	16.892
3.8515	17.806
3.8288	22.971
3.8063	34.899
3.7841	53.542
3.7621	60.001
3.7404	62.594
3.7189	65.077
3.6977	66.053
3.6767	66.181
3.656	65.484
3.6355	64.233
3.6152	62.374
3.5951	58.671
3.5753	49.994
3.5557	48.182
3.5363	38.527
3.5171	20.608
3.4981	14.325
3.4793	10.766
3.4607	18.277
3.4423	20.748
3.4241	20.993
3.4061	20.52
3.3883	19.529
3.3707	18.591
3.3533	15.077
3.336	31.718
3.3189	46.393
3.302	52.113
3.2853	55.774
3.2687	58.63
3.2523	60.522
3.2361	61.972
3.22	63.319
3.204	64.284
3.1883	64.836
3.1727	64.251
3.1572	60.816
3.1419	61.066
3.1268	62.19
3.1117	59.592
3.0969	61.201
3.0821	64.316
3.0675	65.754
3.0531	66.885
3.0388	67.939
3.0246	68.805
3.0105	69.428
2.9966	70.094
2.9828	70.563
2.9692	70.67
2.9556	70.753
2.9422	71.062
2.9289	71.438
2.9157	71.674
2.9027	72.066
2.8897	72.525
2.8769	72.852
2.8642	73.178
2.8516	73.223
2.8391	73.076
2.8267	71.72
2.8144	69.905
2.8022	66.317
2.7902	60.059
2.7782	62.528
2.7664	67.219
2.7546	69.827
2.7429	72.11
2.7314	75.387
2.7199	78.968
2.7085	82.57
2.6973	85.46
2.6861	87.718
2.675	88.644
2.664	89.299
2.6531	90.025
2.6423	90.139
2.6315	89.777
2.6209	89.452
2.6103	89.082
2.5999	88.178
2.5895	86.383
2.5792	84.692
2.569	82.63
2.5588	77.624
2.5487	69.54
2.5388	63.721
2.5289	65.313
2.519	69.393
2.5093	71.217
2.4996	71.983
2.49	72.767
2.4805	74.666
2.471	77.666
2.4616	80.697
2.4523	82.984
2.4431	84.71
2.4339	86.17
2.4248	87.474
2.4157	88.641
2.4068	88.79
2.3979	88.916
2.389	89.163
2.3802	88.525
2.3715	86.673
2.3629	83.124
2.3543	78.15
2.3458	74.744
2.3373	74.093
2.3289	75.814
2.3206	78.062
2.3123	79.281
2.3041	79.94
2.2959	80.735
2.2878	81.951
2.2798	83.581
2.2718	85.408
2.2638	86.71
2.2559	87.813
2.2481	88.784
2.2403	89.407
2.2326	90.003
2.225	90.35
2.2173	90.809
2.2098	91.531
2.2023	92.202
2.1948	92.585
2.1874	92.641
2.18	92.636
2.1727	92.283
2.1655	91.723
2.1583	91.48
2.1511	91.631
2.144	92.136
2.1369	92.965
2.1299	93.382
2.1229	93.501
2.116	93.699
2.1091	93.902
2.1023	94.188
2.0955	94.274
2.0887	94.517
2.082	94.624
2.06	94.93
2.028	94.04
1.996	91.491
1.964	90.928
1.932	91.56
1.9	91.519
1.868	90.362
1.836	92.196
1.804	92.192
1.772	91.273
1.74	91.307
1.708	92.202
1.676	92.078
1.644	92.096
1.612	91.045
1.58	92.841
1.548	90.674
1.516	91.332
1.484	90.685
1.452	90.757
1.42	90.246
1.388	89.105
1.356	90.578
1.324	90.125
1.292	89.857
1.26	91.212
1.228	89.999
1.196	89.134
1.164	88.663
1.132	88.308
1.1	89.151
1.068	88.84
1.036	89.763
1.004	89.259
0.972	88.777
0.94	88.6
0.908	88.732
0.876	88.083
0.844	87.362
0.812	87.061
0.795	86.892
0.787	86.639
0.779	87.046
0.771	86.366
0.763	86.556
0.755	86.906
0.747	86.498
0.739	86.809
0.731	86.702
0.723	86.531
0.715	86.198
0.707	85.963
0.699	87.306
0.691	87.335
0.683	86.835
0.675	87.479
0.667	86.656
0.659	87.549
0.651	86.973
0.643	87.688
0.635	86.354
0.627	86.394
0.619	87.733
0.611	87.145
0.603	86.134
0.595	86.256
0.587	86.732
0.579	86.732
0.571	87.372
0.563	86.134
0.555	85.81
0.547	85.391
0.539	86.217
0.531	84.245
0.523	85.388
0.515	84.668
0.507	84.774
0.499	84.01
0.491	85.216
0.483	84.243
0.475	83.222
0.467	83.273
0.459	84.993
0.451	83.282
0.443	83.043
0.435	83.284
0.427	81.761
0.419	82.104
0.411	80.562
0.403	80.335
