Name: Graphite Schist
Type: rock
Class: Metamorphic
Subclass: Schist
Particle Size: Coarse
Sample No.: schist10
Owner: JHU
Wavelength Range: All
Origin: Sample No. 397, The Hunt and Salisbury Collection at the U.S.Geological Survey, Denver, Co.
Description: This rock contains coarse, irregular bands of brown, tan and gray material.  Microscopically there are finer grains of calcite surrounded and enmeshed in a network of graphite bands and veins. There are also larger recrystallized calcite grains which are not associated with the graphite.  Modes for this rock gave 62.5% calcite and 37.5% graphite.  Particle size was 500-1500 Micrometer. Original ASTER Spectral Library name was jhu.becknic.rock.metamorphic.schist.coarse.schist10.spectrum.txt
Measurement: Directional (10 Degree) Hemispherical Reflectance
X Units: Wavelength (micrometers)
Y Units: Reflectance (percent)
wavelength	value
14.9831	2.7828
14.6445	2.8574
14.3209	2.7487
14.0112	2.282
13.7147	2.5266
13.4304	2.8437
13.1577	2.891
12.8959	2.8124
12.6443	2.8704
12.4023	2.9934
12.1694	3.1343
11.945	3.243
11.7289	3.2017
11.5203	3.9761
11.3191	8.7816
11.1248	3.3983
10.937	3.372
10.7555	3.234
10.5799	3.1873
10.4099	3.2917
10.2454	3.3036
10.0859	3.3031
9.9313	3.3033
9.7814	3.3509
9.636	3.5447
9.4948	3.6905
9.3577	3.7161
9.2245	3.8698
9.095	4.0339
8.9691	4.1611
8.8467	4.2023
8.7275	4.1047
8.6116	3.7649
8.4986	3.7393
8.3886	3.9101
8.2814	4.1246
8.1769	4.2707
8.075	4.2319
7.9756	4.4962
7.8786	4.5258
7.784	4.6504
7.6916	4.7415
7.6014	4.7489
7.5133	5.0075
7.4272	5.2902
7.343	5.6154
7.2607	5.9029
7.1803	6.8063
7.1016	8.8394
7.0246	9.386
6.9493	9.4006
6.8755	10.0078
6.8034	10.9456
6.7327	12.3355
6.6634	14.0711
6.5956	16.1376
6.5292	18.2317
6.464	17.6802
6.4002	9.4362
6.3376	4.702
6.2762	2.9048
6.216	2.168
6.157	1.7863
6.099	1.6819
6.0421	1.6679
5.9863	1.7143
5.9315	1.7579
5.8777	1.8221
5.8249	1.8301
5.773	1.8611
5.722	1.9848
5.6719	2.2121
5.6227	2.3305
5.5744	1.6999
5.5268	2.5211
5.4801	3.5271
5.4341	4.2838
5.3889	5.3156
5.3445	6.0326
5.3008	6.6986
5.2578	7.145
5.2154	7.4921
5.1738	7.8554
5.1328	8.1964
5.0925	7.3148
5.0528	8.6904
5.0137	8.6819
4.9752	8.6883
4.9373	8.6627
4.9	8.729
4.8632	8.8077
4.827	8.877
4.7913	8.8754
4.7561	8.5495
4.7215	7.3472
4.6873	5.2568
4.6536	5.4138
4.6205	7.0962
4.5877	7.5994
4.5555	7.7214
4.5237	7.7725
4.4923	8.0174
4.4614	8.6795
4.4309	9.2024
4.4008	9.4468
4.3711	9.4632
4.3418	8.9661
4.3129	8.4025
4.2844	6.9989
4.2563	6.3291
4.2285	7.108
4.2011	8.1024
4.174	8.2949
4.1473	7.9539
4.1209	7.2648
4.0949	6.5444
4.0692	5.7238
4.0438	4.5499
4.0187	3.5773
3.994	2.8098
3.9695	2.6682
3.9453	3.0369
3.9214	3.3514
3.8979	3.4464
3.8746	3.4968
3.8515	3.5738
3.8288	3.93
3.8063	4.9139
3.7841	6.8956
3.7621	7.6278
3.7404	7.9134
3.7189	8.1372
3.6977	8.1775
3.6767	8.0922
3.656	7.9336
3.6355	7.7505
3.6152	7.4924
3.5951	7.0209
3.5753	6.0826
3.5557	5.9062
3.5363	4.9956
3.5171	3.6612
3.4981	3.2823
3.4793	3.0419
3.4607	3.4637
3.4423	3.5589
3.4241	3.5361
3.4061	3.5025
3.3883	3.4596
3.3707	3.4158
3.3533	3.2617
3.336	4.2494
3.3189	5.0423
3.302	5.3357
3.2853	5.4913
3.2687	5.5758
3.2523	5.6251
3.2361	5.6556
3.22	5.6563
3.204	5.6301
3.1883	5.5758
3.1727	5.4832
3.1572	5.2774
3.1419	5.2201
3.1268	5.1879
3.1117	5.0631
3.0969	5.0541
3.0821	5.0934
3.0675	5.1005
3.0531	5.0986
3.0388	5.0816
3.0246	5.0321
3.0105	5.0174
2.9966	4.9672
2.9828	4.9189
2.9692	4.8661
2.9556	4.8263
2.9422	4.8168
2.9289	4.7967
2.9157	4.8353
2.9027	4.8711
2.8897	4.9125
2.8769	4.976
2.8642	5.0148
2.8516	5.1102
2.8391	5.2002
2.8267	5.2893
2.8144	5.3966
2.8022	5.4877
2.7902	5.6158
2.7782	6.098
2.7664	6.7635
2.7546	7.508
2.7429	8.442
2.7314	9.6782
2.7199	11.0183
2.7085	12.5138
2.6973	13.526
2.6861	14.3828
2.675	14.814
2.664	15.1276
2.6531	15.47
2.6423	15.6502
2.6315	15.6495
2.6209	15.7217
2.6103	15.779
2.5999	15.7333
2.5895	15.5524
2.5792	15.3899
2.569	15.1157
2.5588	14.2637
2.5487	12.5602
2.5388	11.3866
2.5289	11.8311
2.519	12.6962
2.5093	13.0744
2.4996	13.2491
2.49	13.4623
2.4805	13.849
2.471	14.446
2.4616	14.9959
2.4523	15.3873
2.4431	15.6791
2.4339	15.8887
2.4248	16.049
2.4157	16.1669
2.4068	16.1641
2.3979	16.1584
2.389	16.2098
2.3802	16.1307
2.3715	15.9263
2.3629	15.4245
2.3543	14.5736
2.3458	13.9072
2.3373	13.8244
2.3289	14.2009
2.3206	14.6044
2.3123	14.7863
2.3041	14.9078
2.2959	15.062
2.2878	15.295
2.2798	15.5564
2.2718	15.8503
2.2638	16.0462
2.2559	16.2238
2.2481	16.4277
2.2403	16.5295
2.2326	16.6489
2.225	16.7185
2.2173	16.7725
2.2098	16.8449
2.2023	16.862
2.1948	16.8745
2.1874	16.8539
2.18	16.8352
2.1727	16.7853
2.1655	16.7291
2.1583	16.7085
2.1511	16.731
2.144	16.767
2.1369	16.7888
2.1299	16.8333
2.1229	16.8165
2.116	16.79
2.1091	16.8134
2.1023	16.7976
2.0955	16.7682
2.0887	16.7862
2.082	16.7621
2.06	16.6437
2.028	16.4711
1.996	16.0837
1.964	16.1137
1.932	15.798
1.9	15.7236
1.868	15.8648
1.836	15.8806
1.804	15.758
1.772	15.2757
1.74	15.2488
1.708	15.0098
1.676	14.9737
1.644	14.7507
1.612	14.5527
1.58	14.4866
1.548	14.2039
1.516	13.971
1.484	13.7114
1.452	13.4509
1.42	13.309
1.388	13.0732
1.356	12.9696
1.324	12.769
1.292	12.7163
1.26	12.3763
1.228	12.1
1.196	12.1489
1.164	12.06
1.132	11.7822
1.1	11.5422
1.068	11.5513
1.036	11.3951
1.004	11.2492
0.972	11.2426
0.94	10.9641
0.908	11.0164
0.876	10.8422
0.844	10.7446
0.812	10.6239
0.795	10.7512
0.787	10.6171
0.779	10.7336
0.771	10.6278
0.763	10.6065
0.755	10.541
0.747	10.4193
0.739	10.408
0.731	10.4145
0.723	10.3278
0.715	10.3332
0.707	10.3376
0.699	10.3734
0.691	10.1875
0.683	10.2675
0.675	10.135
0.667	10.1569
0.659	10.173
0.651	10.1325
0.643	10.0701
0.635	10.1027
0.627	10.1431
0.619	10.1053
0.611	10.0155
0.603	9.912
0.595	9.9344
0.587	9.8443
0.579	9.8858
0.571	9.893
0.563	9.8626
0.555	9.707
0.547	9.5619
0.539	9.7105
0.531	9.6697
0.523	9.5091
0.515	9.5484
0.507	9.4976
0.499	9.4904
0.491	9.5384
0.483	9.4757
0.475	9.4673
0.467	9.2169
0.459	9.3118
0.451	9.1218
0.443	8.9787
0.435	8.7253
0.427	8.8324
0.419	8.5915
0.411	8.456
0.403	8.3439
