Name: Biotite Gneiss
Type: Rock
Class: Metamorphic
Subclass: Gneis
Particle Size: Solid
Sample No.: Ward79
Owner: JPL
Wavelength Range: VSWIR
Origin: Ward's Collection of American Rocks.  Sample locality - Uxbridge, Worcester County, Massachusetts.  Collected by - JPL.
Description: A banded rock.  Think bands of black mica alternate withthose of quartz and feldspar.  Geologic age - Pre-Cambrian.Collected by:  Ward's Natural Science Original ASTER Spectral Library name was jpl.perkin.rock.metamorphic.gneiss.solid.ward79.spectrum.txt
Measurement: Hemispherical reflectance
X Units: Wavelength (micrometers)
Y Units: Reflectance (percent)
wavelength	value
2.5	40.4852
2.494	40.2803
2.488	40.3543
2.482	40.2652
2.476	40.2865
2.47	40.3908
2.464	40.5196
2.458	40.5239
2.452	40.5598
2.446	40.5423
2.44	40.5143
2.434	40.5623
2.428	40.5004
2.422	40.4409
2.416	40.3665
2.41	40.3277
2.404	40.3174
2.398	40.2691
2.392	40.2746
2.386	40.3805
2.38	40.3188
2.374	40.2577
2.368	40.0431
2.362	39.7321
2.356	39.3603
2.35	39.0904
2.344	39.0069
2.338	39.0738
2.332	39.3593
2.326	39.718
2.32	40.1135
2.314	40.429
2.308	40.748
2.302	40.9704
2.296	41.2183
2.29	41.1981
2.284	41.1807
2.278	41.179
2.272	41.0281
2.266	40.7243
2.26	40.4688
2.254	40.3509
2.248	40.6497
2.242	40.92
2.236	41.239
2.23	41.4013
2.224	41.3879
2.218	41.359
2.212	41.4102
2.206	41.2745
2.2	41.277
2.194	41.2365
2.188	41.3059
2.182	41.3473
2.176	41.3249
2.17	41.3959
2.164	41.4493
2.158	41.4345
2.152	41.5455
2.146	41.4282
2.14	41.3296
2.134	41.253
2.128	41.0921
2.122	40.8345
2.116	40.6461
2.11	40.4502
2.104	40.1944
2.098	40.0074
2.092	39.9903
2.086	39.9435
2.08	39.9584
2.074	39.8533
2.068	39.7723
2.062	39.7364
2.056	39.6831
2.05	39.585
2.044	39.5231
2.038	39.4308
2.032	39.3522
2.026	39.2136
2.02	39.121
2.014	39.0513
2.008	38.9282
2.002	38.8391
1.996	38.7641
1.99	38.6376
1.984	38.4969
1.978	38.3206
1.972	38.1945
1.966	38.1678
1.96	38.0292
1.954	38.0375
1.948	37.9428
1.942	37.8387
1.936	37.76
1.93	37.6613
1.924	37.7369
1.918	37.749
1.912	37.654
1.906	37.7524
1.9	37.796
1.894	37.6759
1.888	37.6456
1.882	37.6405
1.876	37.554
1.87	37.5885
1.864	37.4306
1.858	37.3582
1.852	37.3146
1.846	37.176
1.84	37.0751
1.834	37.1119
1.828	36.9094
1.822	36.8394
1.816	36.7167
1.81	36.6347
1.804	36.587
1.798	36.5019
1.792	36.3965
1.786	36.2955
1.78	36.2313
1.774	36.1941
1.768	36.0126
1.762	35.9899
1.756	35.9337
1.75	35.841
1.744	35.8028
1.738	35.757
1.732	35.6466
1.726	35.5701
1.72	35.5376
1.714	35.4515
1.708	35.3726
1.702	35.2164
1.696	35.1387
1.69	35.0569
1.684	35.0696
1.678	34.9563
1.672	34.8332
1.666	34.7976
1.66	34.721
1.654	34.5976
1.648	34.5677
1.642	34.4915
1.636	34.3727
1.63	34.2014
1.624	34.2649
1.618	34.1795
1.612	34.0652
1.606	34.039
1.6	33.985
1.594	33.8971
1.588	33.793
1.582	33.7192
1.576	33.6309
1.57	33.6245
1.564	33.5589
1.558	33.4401
1.552	33.3902
1.546	33.3365
1.54	33.2776
1.534	33.2512
1.528	33.1239
1.522	33.0771
1.516	33.0335
1.51	32.9744
1.504	32.8765
1.498	32.8646
1.492	32.7918
1.486	32.7173
1.48	32.6364
1.474	32.5999
1.468	32.5002
1.462	32.4315
1.456	32.4278
1.45	32.3857
1.444	32.3145
1.438	32.1898
1.432	32.1358
1.426	32.0861
1.42	32.0608
1.414	31.8785
1.408	31.8061
1.402	31.6917
1.396	31.6722
1.39	31.704
1.384	31.6794
1.378	31.704
1.372	31.6667
1.366	31.689
1.36	31.5717
1.354	31.559
1.348	31.4992
1.342	31.3386
1.336	31.3923
1.33	31.3551
1.324	31.2851
1.318	31.1621
1.312	31.1484
1.306	31.1069
1.3	31.0018
1.294	30.9859
1.288	30.9463
1.282	30.9228
1.276	30.8263
1.27	30.8009
1.264	30.7804
1.258	30.7942
1.252	30.7099
1.246	30.6392
1.24	30.6557
1.234	30.5766
1.228	30.5773
1.222	30.5312
1.216	30.4882
1.21	30.509
1.204	30.48
1.198	30.4696
1.192	30.4373
1.186	30.4126
1.18	30.378
1.174	30.4089
1.168	30.4455
1.162	30.4845
1.156	30.4116
1.15	30.4198
1.144	30.3797
1.138	30.4074
1.132	30.4127
1.126	30.4416
1.12	30.4501
1.114	30.4751
1.108	30.4177
1.102	30.5238
1.096	30.455
1.09	30.5096
1.084	30.5681
1.078	30.5767
1.072	30.4944
1.066	30.6561
1.06	30.6629
1.054	30.5826
1.048	30.5728
1.042	30.7185
1.036	30.7251
1.03	30.6327
1.024	30.7254
1.018	30.7077
1.012	30.7155
1.006	30.7711
1	30.7367
0.994	30.7493
0.988	30.8
0.982	30.7706
0.976	30.7345
0.97	30.7379
0.964	30.7531
0.958	30.7097
0.952	30.7984
0.946	30.8216
0.94	30.8352
0.934	30.8014
0.928	30.807
0.922	30.7887
0.916	30.8423
0.91	30.9368
0.904	30.9514
0.898	30.9844
0.892	31.0873
0.886	31.1561
0.88	31.2514
0.874	31.3263
0.868	31.4813
0.862	31.5687
0.856	32.0366
0.85	32.0882
0.844	32.1
0.838	32.0735
0.832	32.0861
0.826	32.0838
0.82	32.049
0.814	32.0492
0.808	32.0532
0.802	32.015
0.796	31.9851
0.79	31.9639
0.784	31.9246
0.778	31.8919
0.772	31.8579
0.766	31.8347
0.76	31.8168
0.754	31.7838
0.748	31.7614
0.742	31.7409
0.736	31.734
0.73	31.7093
0.724	31.7158
0.718	31.7014
0.712	31.6831
0.706	31.6806
0.7	31.6696
0.694	31.6761
0.688	31.684
0.682	31.6957
0.676	31.6927
0.67	31.6895
0.664	31.679
0.658	31.6884
0.652	31.6788
0.646	31.6809
0.64	31.6727
0.634	31.6567
0.628	31.648
0.622	31.6174
0.616	31.5952
0.61	31.5698
0.604	31.5304
0.598	31.4999
0.592	31.4507
0.586	31.3854
0.58	31.3059
0.574	31.2034
0.568	31.0744
0.562	30.9286
0.556	30.8405
0.55	30.6926
0.544	30.5456
0.538	30.3685
0.532	30.1839
0.526	30.0009
0.52	29.7928
0.514	29.5926
0.508	29.3979
0.502	29.2184
0.496	29.0341
0.49	28.8722
0.484	28.7248
0.478	28.388
0.472	28.1708
0.466	27.9957
0.46	27.8283
0.454	27.6051
0.448	27.4592
0.442	27.2412
0.436	26.9443
0.43	26.588
0.424	26.2547
0.418	25.9071
0.412	25.5805
0.406	25.24
0.4	24.9243
