Name: Cherty Limestone
Type: Rock
Class: Sedimentary
Subclass: Limestone
Particle Size: Solid
Sample No.: Ward71
Owner: JPL
Wavelength Range: VSWIR
Origin: Ward's Collection of American Rocks.  Sample locality - Le Roy, Genesee County, New York.
Description: A compact dark gray rock with numerous irregular chert areasthat are of lighter color than the limestone.Geologic age - Devonian.Collected by:  Ward's Natural Science Original ASTER Spectral Library name was jpl.perkin.rock.sedimentary.limestone.solid.ward71.spectrum.txt
Measurement: Hemispherical reflectance
X Units: Wavelength (micrometers)
Y Units: Reflectance (percent)
wavelength	value
2.5	12.0485
2.494	12.1312
2.488	12.2475
2.482	12.7277
2.476	13.2696
2.47	13.8968
2.464	14.6787
2.458	15.321
2.452	15.9786
2.446	16.5692
2.44	17.0065
2.434	17.3509
2.428	17.7308
2.422	18.1489
2.416	18.4781
2.41	18.653
2.404	18.9174
2.398	18.9799
2.392	19.0587
2.386	19.1644
2.38	19.1082
2.374	18.7795
2.368	18.281
2.362	17.3963
2.356	16.2901
2.35	15.1776
2.344	14.3541
2.338	13.9497
2.332	14.0767
2.326	14.5739
2.32	15.1022
2.314	15.5895
2.308	15.9914
2.302	16.2175
2.296	16.5089
2.29	16.95
2.284	17.3329
2.278	17.8016
2.272	18.3104
2.266	18.7266
2.26	19.1454
2.254	19.3758
2.248	19.5939
2.242	19.8185
2.236	19.9129
2.23	20.1039
2.224	20.1523
2.218	20.2204
2.212	20.4223
2.206	20.4852
2.2	20.6912
2.194	20.9404
2.188	21.0163
2.182	21.0824
2.176	21.2978
2.17	21.3222
2.164	21.327
2.158	21.3857
2.152	21.4415
2.146	21.4735
2.14	21.6087
2.134	21.7418
2.128	21.7623
2.122	21.7697
2.116	21.7342
2.11	21.6656
2.104	21.6415
2.098	21.7018
2.092	21.7209
2.086	21.7114
2.08	21.7727
2.074	21.747
2.068	21.7868
2.062	21.7735
2.056	21.7852
2.05	21.7533
2.044	21.7114
2.038	21.6783
2.032	21.6182
2.026	21.4763
2.02	21.371
2.014	21.2146
2.008	21.0239
2.002	20.7869
1.996	20.5764
1.99	20.4909
1.984	20.5583
1.978	20.4489
1.972	20.388
1.966	20.3079
1.96	20.2891
1.954	20.2056
1.948	20.1721
1.942	20.0998
1.936	20.2236
1.93	20.0941
1.924	20.0696
1.918	20.1523
1.912	20.3113
1.906	20.6119
1.9	21.0657
1.894	21.647
1.888	21.9828
1.882	22.0563
1.876	22.1955
1.87	22.3738
1.864	22.7475
1.858	22.8079
1.852	22.9573
1.846	22.9173
1.84	22.9483
1.834	22.9828
1.828	23.0979
1.822	23.1212
1.816	23.2142
1.81	23.2107
1.804	23.2413
1.798	23.201
1.792	23.2023
1.786	23.2634
1.78	23.1976
1.774	23.1934
1.768	23.1982
1.762	23.1801
1.756	23.1251
1.75	23.2067
1.744	23.2042
1.738	23.1964
1.732	23.1442
1.726	23.2568
1.72	23.2089
1.714	23.2877
1.708	23.2508
1.702	23.2813
1.696	23.2323
1.69	23.3106
1.684	23.2862
1.678	23.2864
1.672	23.2736
1.666	23.206
1.66	23.2406
1.654	23.2495
1.648	23.2997
1.642	23.2967
1.636	23.24
1.63	23.2179
1.624	23.2041
1.618	23.1608
1.612	23.1228
1.606	23.1369
1.6	23.1415
1.594	23.1264
1.588	23.0225
1.582	23.0143
1.576	23.0263
1.57	22.9753
1.564	22.9479
1.558	22.9452
1.552	22.8822
1.546	22.8687
1.54	22.8834
1.534	22.8089
1.528	22.8029
1.522	22.7833
1.516	22.7052
1.51	22.6525
1.504	22.5784
1.498	22.5561
1.492	22.4862
1.486	22.4653
1.48	22.3649
1.474	22.3469
1.468	22.2907
1.462	22.2524
1.456	22.1886
1.45	22.1789
1.444	22.1452
1.438	22.0201
1.432	22.0265
1.426	21.9812
1.42	21.8441
1.414	21.7351
1.408	21.8417
1.402	22.0269
1.396	22.1599
1.39	22.2717
1.384	22.257
1.378	22.2182
1.372	22.2347
1.366	22.1468
1.36	22.1502
1.354	22.1101
1.348	22.0532
1.342	22.0318
1.336	21.9259
1.33	21.933
1.324	21.847
1.318	21.791
1.312	21.83
1.306	21.7727
1.3	21.7603
1.294	21.6676
1.288	21.6117
1.282	21.5795
1.276	21.5267
1.27	21.4548
1.264	21.3911
1.258	21.3655
1.252	21.2919
1.246	21.2354
1.24	21.192
1.234	21.0903
1.228	21.0953
1.222	20.971
1.216	20.9486
1.21	20.8317
1.204	20.8211
1.198	20.7911
1.192	20.7148
1.186	20.6806
1.18	20.6339
1.174	20.5104
1.168	20.4611
1.162	20.4162
1.156	20.3545
1.15	20.2912
1.144	20.2542
1.138	20.2183
1.132	20.2105
1.126	20.1558
1.12	20.0981
1.114	20.0121
1.108	19.9525
1.102	19.9021
1.096	19.8975
1.09	19.8
1.084	19.7525
1.078	19.7624
1.072	19.6695
1.066	19.6271
1.06	19.6094
1.054	19.5649
1.048	19.59
1.042	19.4855
1.036	19.5341
1.03	19.4015
1.024	19.3585
1.018	19.3523
1.012	19.2346
1.006	19.3276
1	19.2689
0.994	19.2994
0.988	19.2312
0.982	19.1552
0.976	19.1157
0.97	18.9927
0.964	19.0353
0.958	19.0442
0.952	18.8774
0.946	18.9421
0.94	18.8747
0.934	18.828
0.928	18.8498
0.922	18.7417
0.916	18.7097
0.91	18.6919
0.904	18.5795
0.898	18.6328
0.892	18.5617
0.886	18.5259
0.88	18.4882
0.874	18.5067
0.868	18.4975
0.862	18.4672
0.856	18.661
0.85	18.6545
0.844	18.6144
0.838	18.5714
0.832	18.5181
0.826	18.4757
0.82	18.4248
0.814	18.3586
0.808	18.2889
0.802	18.2075
0.796	18.1004
0.79	18.0237
0.784	17.952
0.778	17.8689
0.772	17.7728
0.766	17.6797
0.76	17.6077
0.754	17.5167
0.748	17.4355
0.742	17.3823
0.736	17.2804
0.73	17.2054
0.724	17.1236
0.718	17.0383
0.712	16.9695
0.706	16.8888
0.7	16.8099
0.694	16.7277
0.688	16.6482
0.682	16.5673
0.676	16.4897
0.67	16.4076
0.664	16.3231
0.658	16.2442
0.652	16.1559
0.646	16.0739
0.64	15.9915
0.634	15.9007
0.628	15.8197
0.622	15.7448
0.616	15.6586
0.61	15.577
0.604	15.5018
0.598	15.4235
0.592	15.3494
0.586	15.2654
0.58	15.1861
0.574	15.0947
0.568	15.019
0.562	14.9463
0.556	14.8123
0.55	14.7296
0.544	14.6471
0.538	14.566
0.532	14.4908
0.526	14.4185
0.52	14.3435
0.514	14.2628
0.508	14.1652
0.502	14.0578
0.496	13.9127
0.49	13.7762
0.484	13.6111
0.478	13.5861
0.472	13.5179
0.466	13.4458
0.46	13.3553
0.454	13.2448
0.448	13.1263
0.442	13.0124
0.436	12.9282
0.43	12.8349
0.424	12.743
0.418	12.6621
0.412	12.5791
0.406	12.4968
0.4	12.4235
