Name: Rhyolite
Type: Rock
Class: Igneous
Subclass: Felsic
Particle Size: Solid
Sample No.: AP-937-100
Owner: United States Geological Survey, L. C. Rowan
Wavelength Range: All
Origin: Iberian Pyrite Belt, Spain
Description: Rhyolite, white, argillizedSample was Whole Rock Chips. Original ASTER Spectral Library name was usgs.perknic.rock.igneous.felsic.solid.rhy100.spectrum.txt
Measurement: Directional Hemispherical Reflectance
X Units: Wavelength (micrometers)
Y Units: Reflectance (percent)
wavelength	value
14.051	1.8334
13.79	2.2042
13.538	2.575
13.295	2.7295
13.06	2.9355
12.834	3.1415
12.616	3.0282
12.404	2.8634
12.2	2.5441
12.002	2.575
11.811	2.8119
11.626	2.9561
11.446	3.3166
11.272	3.1209
11.103	3.3578
10.939	3.4917
10.78	3.0694
10.625	3.1106
10.475	3.3063
10.329	3.9655
10.187	4.8307
10.049	5.9843
9.914	6.9731
9.783	7.1585
9.656	8.3018
9.532	8.3224
9.411	8.0031
9.293	7.9825
9.178	7.6941
9.065	6.8598
8.956	6.2109
8.849	5.9225
8.744	5.356
8.642	4.8616
8.543	4.8925
8.445	4.8101
8.35	4.8822
8.257	4.8822
8.166	5.1088
8.077	4.635
7.99	4.4599
7.905	4.1715
7.821	3.914
7.739	3.7286
7.659	3.6565
7.581	3.5123
7.504	3.4299
7.429	3.2239
7.355	3.2136
7.283	3.1724
7.212	3.2033
7.143	3.0591
7.074	3.0385
7.007	2.9973
6.942	3.0797
6.877	3.0797
6.814	3.0488
6.752	3.1209
6.691	3.1003
6.631	3.1106
6.572	3.0694
6.514	3.0797
6.458	3.1003
6.402	2.9767
6.347	2.8531
6.293	2.8428
6.24	2.7398
6.188	2.6677
6.137	2.6574
6.086	2.6368
6.037	2.6265
5.988	2.6574
5.94	2.678
5.893	2.8325
5.846	2.9767
5.8	3.1312
5.755	3.2239
5.711	3.2857
5.667	3.3063
5.624	3.296
5.582	3.2651
5.54	3.2754
5.499	3.3887
5.459	3.4608
5.419	3.502
5.379	3.4608
5.341	3.4505
5.302	3.5123
5.265	3.5638
5.227	3.7492
5.191	3.9037
5.155	3.9552
5.119	3.8728
5.084	3.9449
5.049	3.9758
5.015	4.017
4.981	4.1612
4.948	4.2333
4.915	4.5114
4.883	4.7998
4.851	5.0161
4.819	5.356
4.788	5.2427
4.758	5.3972
4.727	5.5311
4.697	5.5414
4.668	5.7165
4.638	5.871
4.61	5.9843
4.581	6.2006
4.553	6.2521
4.525	6.3242
4.498	6.2006
4.47	6.2418
4.444	6.2521
4.417	6.4787
4.391	6.7053
4.365	6.8495
4.34	6.8495
4.314	7.1379
4.289	7.1482
4.265	7.2306
4.24	7.2821
4.216	7.3748
4.192	7.3027
4.169	7.3233
4.145	7.3954
4.122	7.4984
4.099	7.3748
4.077	7.3851
4.055	7.4675
4.032	7.5396
4.011	7.4057
3.989	7.3851
3.968	7.3233
3.947	7.2409
3.926	7.2306
3.905	7.2409
3.884	7.0143
3.864	7.0246
3.844	6.8392
3.824	6.7671
3.805	6.6126
3.785	6.5611
3.766	6.3448
3.747	6.2109
3.728	6.0461
3.709	5.9328
3.691	5.6959
3.673	5.5414
3.655	5.4487
3.637	5.253
3.619	5.2427
3.601	5.1809
3.584	5.0058
3.567	4.8719
3.549	4.6453
3.533	4.7792
3.516	4.4805
3.499	4.5423
3.483	4.5114
3.466	4.4393
3.45	4.2436
3.434	4.2745
3.418	4.0376
3.403	4.12
3.387	4.0994
3.372	3.8934
3.357	3.8728
3.341	3.9552
3.326	3.8934
3.312	3.7801
3.297	3.811
3.282	3.811
3.268	3.6359
3.253	3.8213
3.239	3.6462
3.225	3.5844
3.211	3.4917
3.197	3.4814
3.183	3.4711
3.17	3.4505
3.156	3.2754
3.143	3.3063
3.13	3.1827
3.117	3.296
3.103	3.1518
3.091	3.0591
3.078	3.1724
3.065	3.0076
3.052	3.1312
3.04	3.1724
3.027	2.9973
3.015	3.0591
3.003	2.987
2.991	3.0797
2.979	2.9252
2.967	3.1312
2.955	2.8943
2.943	3.0282
2.932	2.9355
2.92	3.1209
2.909	2.9355
2.897	3.296
2.886	3.2239
2.875	3.296
2.864	3.3372
2.853	3.0282
2.842	3.1621
2.831	3.3166
2.82	3.1827
2.809	3.3578
2.799	3.296
2.788	3.2754
2.778	3.1003
2.767	3.2033
2.757	2.9252
2.747	3.2445
2.737	3.3372
2.727	3.8007
2.717	4.1921
2.707	3.6462
2.697	4.3569
2.687	7.3027
2.677	9.7438
2.668	11.3506
2.658	12.8853
2.649	13.5651
2.639	14.1522
2.63	14.8526
2.62	15.6354
2.611	15.9547
2.602	16.5109
2.593	16.6551
2.584	17.0053
2.575	17.3452
2.566	17.1907
2.557	17.51
2.548	18.128
2.54	17.8396
2.531	18.4679
2.522	18.6327
2.514	18.1177
2.505	18.7975
2.489	18.6726
2.461	19.1726
2.433	20.7726
2.405	23.5726
2.377	24.1726
2.349	24.0726
2.321	26.6726
2.293	31.6726
2.265	34.5726
2.237	30.6726
2.209	24.6726
2.181	30.7726
2.153	36.2726
2.125	42.3726
2.097	46.6726
2.069	47.4726
2.041	47.6726
2.013	46.6726
1.985	44.1726
1.957	41.8726
1.929	39.1726
1.901	40.0726
1.873	52.0726
1.845	57.0726
1.817	57.2726
1.789	57.7726
1.761	58.7726
1.733	59.4726
1.705	59.0726
1.677	59.4726
1.649	59.3726
1.621	59.4726
1.593	58.8726
1.565	57.3726
1.537	56.7726
1.509	56.0726
1.481	53.9726
1.453	52.3726
1.425	45.4726
1.397	42.1726
1.369	51.0726
1.341	54.4726
1.313	53.7726
1.285	53.4726
1.257	52.1726
1.229	51.1726
1.201	50.6726
1.173	50.3726
1.145	48.7726
1.117	48.2726
1.089	48.2726
1.061	48.4726
1.033	47.6726
1.005	47.9726
0.977	47.1726
0.949	46.3726
0.921	45.9726
0.893	45.2726
0.865	44.9726
0.837	45.0726
0.809	45.1726
0.799	45.0726
0.792	45.2726
0.785	45.0726
0.778	44.9726
0.771	44.6726
0.764	44.5726
0.757	44.6726
0.75	44.3726
0.743	44.0726
0.736	44.0726
0.729	43.9726
0.722	43.5726
0.715	43.3726
0.708	43.4726
0.701	42.6726
0.694	43.2726
0.687	42.6726
0.68	42.6726
0.673	42.3726
0.666	42.7726
0.659	42.6726
0.652	42.4726
0.645	42.2726
0.638	41.8726
0.631	41.7726
0.624	41.8726
0.617	42.4726
0.61	41.5726
0.603	42.0726
0.596	41.2726
0.589	41.3726
0.582	40.9726
0.575	41.1726
0.568	41.1726
0.561	41.0726
0.554	40.1726
0.547	39.9726
0.54	39.9726
0.533	39.1726
0.526	38.8726
0.519	37.8726
0.512	37.8726
0.505	37.2726
0.498	35.4726
0.491	35.5726
0.484	34.5726
0.477	33.9726
0.47	33.4726
0.463	33.8726
0.456	31.9726
0.449	31.9726
0.442	30.5726
0.435	29.9726
0.428	29.1726
0.421	27.7726
0.414	26.2726
0.407	25.3726
