Name: Travertine
Type: rock
Class: Sedimentary
Subclass: Travertine
Particle Size: Fine
Sample No.: travertine_1
Owner: JHU
Wavelength Range: All
Origin: Sample No. 357,  The Hunt and Salisbury Collection at the U.S.Geological Survey, Denver, Co.
Description: A predominantly microcrystalline carbonate with vugs or pores often filled with larger carbonate crystals. These vugs are usually rimmed by hematitic material which also occurs as irregular bands throughout the sample.Particle size was 0 - 75 Micrometers. Original ASTER Spectral Library name was jhu.becknic.rock.sedimentary.travertine.fine.travert1.spectrum.txt
Measurement: Directional (10 Degree) Hemispherical Reflectance
X Units: Wavelength (micrometers)
Y Units: Reflectance (percent)
wavelength	value
14.812	19.104
14.481	18.141
14.164	5.849
13.861	10.209
13.571	22.338
13.293	23.788
13.026	22.779
12.769	22.728
12.522	24.35
12.285	26.109
12.056	27.154
11.836	17.158
11.624	15.266
11.419	2.784
11.221	19.738
11.03	23.858
10.846	24.482
10.667	23.879
10.494	26.049
10.327	26.545
10.165	24.624
10.008	20.929
9.856	19.658
9.708	19.582
9.565	22.222
9.426	23.89
9.291	21.771
9.159	23.14
9.032	24.284
8.908	25.038
8.787	21.862
8.669	18.604
8.555	16.227
8.443	17.405
8.335	20.946
8.229	22.361
8.126	21.376
8.025	20.761
7.927	19.44
7.831	18.207
7.737	16.597
7.646	13.27
7.557	11.318
7.47	9.796
7.385	7.718
7.302	5.221
7.22	3.868
7.141	3.741
7.063	4.057
6.987	3.763
6.912	3.768
6.839	3.946
6.768	4.139
6.698	4.469
6.629	5.105
6.562	6.267
6.496	7.574
6.432	8.835
6.369	6.188
6.307	3.586
6.246	3.311
6.186	2.959
6.128	3.157
6.07	3.74
6.014	5.005
5.959	6.422
5.904	8.267
5.851	9.611
5.799	10.096
5.747	10.648
5.697	12.81
5.647	15.384
5.598	5.77
5.551	4.632
5.503	22.778
5.457	31.737
5.411	38.378
5.367	43.549
5.322	47.587
5.279	50.424
5.237	52.437
5.194	53.96
5.153	54.978
5.113	51.79
5.073	56.569
5.033	56.95
4.994	56.954
4.956	56.803
4.919	56.743
4.881	56.847
4.845	56.878
4.809	56.706
4.774	55.984
4.739	52.951
4.704	44.444
4.67	40.437
4.637	46.25
4.604	50.587
4.572	51.624
4.54	51.914
4.508	52.296
4.477	54.079
4.446	55.788
4.416	57.042
4.386	57.373
4.356	56.812
4.327	56.379
4.299	55.964
4.27	48.567
4.242	56.17
4.215	56.162
4.188	55.405
4.161	54.001
4.134	51.547
4.108	48.1
4.082	43.365
4.056	35.793
4.031	22.276
4.006	11.458
3.982	6.333
3.957	8.441
3.933	15.637
3.91	17.959
3.886	18.959
3.863	19.679
3.84	21.994
3.817	30.081
3.795	42.451
3.773	49.162
3.751	50.5
3.73	51.366
3.708	51.505
3.687	51.152
3.666	50.419
3.646	49.369
3.625	48
3.605	46.179
3.585	42.824
3.565	39.412
3.546	35.185
3.527	25.955
3.507	17.912
3.489	13.972
3.47	15.16
3.451	20.016
3.433	20.524
3.415	20.201
3.397	19.506
3.38	18.617
3.362	17.162
3.345	18.91
3.327	29.042
3.31	31.098
3.294	31.599
3.277	31.509
3.26	31.206
3.244	30.768
3.228	30.18
3.212	29.603
3.196	28.986
3.18	28.259
3.165	27.362
3.15	26.566
3.134	26.074
3.119	25.439
3.104	24.945
3.09	24.771
3.075	24.606
3.06	24.43
3.046	24.317
3.032	24.18
3.018	23.978
3.004	23.792
2.99	23.663
2.976	23.492
2.962	23.472
2.949	23.495
2.936	23.631
2.922	23.874
2.909	24.302
2.896	24.798
2.883	25.517
2.87	26.243
2.858	27.192
2.845	28.182
2.833	29.41
2.821	30.77
2.808	32.162
2.796	33.475
2.784	35.074
2.772	37.784
2.76	38.842
2.749	44.076
2.737	46.481
2.726	52.314
2.714	55.432
2.703	54.277
2.692	67.3
2.68	72.833
2.67	74.82
2.659	76.686
2.648	77.658
2.637	78.381
2.626	78.85
2.616	79.183
2.605	79.16
2.595	78.841
2.584	78.284
2.574	77.516
2.564	75.674
2.554	71.732
2.544	66.889
2.534	65.634
2.524	68.062
2.514	70.175
2.504	71.018
2.495	71.717
2.485	72.822
2.476	74.547
2.466	76.8
2.457	78.6
2.448	79.883
2.438	81.043
2.429	81.999
2.42	82.815
2.411	83.405
2.402	83.689
2.393	84.031
2.385	84.019
2.376	83.582
2.367	82.312
2.359	79.852
2.35	77.2
2.341	75.927
2.332	76.749
2.324	78.219
2.315	79.433
2.307	79.933
2.299	80.59
2.291	81.365
2.283	82.42
2.275	83.589
2.267	84.645
2.259	85.426
2.251	86.078
2.243	86.729
2.235	87.211
2.227	87.596
2.219	87.765
2.211	87.586
2.203	87.931
2.195	88.135
2.187	88.102
2.179	88.017
2.171	87.796
2.163	87.611
2.155	87.579
2.147	87.771
2.139	88
2.131	88.089
2.123	88.177
2.115	87.996
2.107	88.122
2.099	87.995
2.091	87.93
2.083	87.95
2.06	88.17
2.028	86.345
1.996	83.289
1.964	81.631
1.932	79.462
1.9	86.721
1.868	86.799
1.836	87.491
1.804	88.431
1.772	87.748
1.74	87.95
1.708	87.95
1.676	87.887
1.644	88.023
1.612	87.558
1.58	88.024
1.548	87.885
1.516	86.874
1.484	86.49
1.452	85.725
1.42	85.385
1.388	87.201
1.356	87.633
1.324	87.195
1.292	86.814
1.26	87.288
1.228	87.751
1.196	87.032
1.164	85.748
1.132	86.545
1.1	86.293
1.068	86.377
1.036	84.826
1.004	84.528
0.972	83.717
0.94	83.337
0.908	82.481
0.876	82.191
0.844	82.087
0.812	82.304
0.795	82.328
0.787	81.71
0.779	81.861
0.771	81.304
0.763	80.914
0.755	80.914
0.747	80.866
0.739	80.037
0.731	79.93
0.723	78.848
0.715	78.959
0.707	78.81
0.699	78.152
0.691	77.864
0.683	77.49
0.675	77.089
0.667	77.014
0.659	75.35
0.651	75.77
0.643	74.847
0.635	73.94
0.627	73.754
0.619	72.9
0.611	71.631
0.603	70.732
0.595	69.876
0.587	68.427
0.579	66.807
0.571	64.947
0.563	62.918
0.555	59.695
0.547	58.467
0.539	56.889
0.531	55.325
0.523	54.034
0.515	53.094
0.507	52.012
0.499	50.774
0.491	49.695
0.483	48.118
0.475	47.224
0.467	46.122
0.459	45.07
0.451	43.915
0.443	42.744
0.435	41.258
0.427	40.066
0.419	38.772
0.411	37.817
0.403	36.491
