Name: Basalt
Type: rock
Class: Igneous
Subclass: Mafic
Particle Size: Fine
Sample No.: Basalt_H2
Owner: JHU
Wavelength Range: All
Origin: from Juan de Fuca Ridge, via Smithsonian (Cat. No. NMNH111276)
Description: The sample from which the powder was derived has a glassy rind over a more crystalline interior. This vesicular sample has small (< 1 mm) phenocrysts which make up about 10% of the rock. The phenocrysts consist of plagioclase laths and olivine, in that order of abundance.Particle size was 0-75 micrometers. Original ASTER Spectral Library name was jhu.becknic.rock.igneous.mafic.fine.basal2.spectrum.txt
Measurement: Directional (10 degree) hemispherical reflectance
X Units: Wavelength (micrometers)
Y Units: Reflectance (percent)
wavelength	value
14.011	1.3575
13.715	1.8844
13.43	1.6486
13.158	2.2278
12.896	2.161
12.644	2.4802
12.402	3.2221
12.169	3.3434
11.945	3.0317
11.729	2.8356
11.52	2.8324
11.319	2.7675
11.125	2.7806
10.937	2.7774
10.755	2.7771
10.58	2.6657
10.41	2.6037
10.245	2.4795
10.086	2.4023
9.9313	2.374
9.7814	2.2481
9.636	2.1485
9.4948	2.2385
9.3577	2.265
9.2245	2.1921
9.095	2.0196
8.9691	1.7522
8.8467	1.5036
8.7275	1.4184
8.6116	1.3425
8.4986	1.2797
8.3886	1.2959
8.2814	1.2459
8.1769	1.1948
8.075	1.455
7.9756	2.1942
7.8786	3.0732
7.784	4.1675
7.6916	5.3545
7.6014	6.4563
7.5133	7.5555
7.4272	8.6346
7.343	9.5737
7.2607	10.393
7.1803	11.174
7.1016	11.891
7.0246	12.474
6.9493	13.028
6.8755	13.489
6.8034	13.823
6.7327	13.981
6.6634	13.914
6.5956	13.827
6.5292	13.847
6.464	13.902
6.4002	14.002
6.3376	14.07
6.2762	14.106
6.216	13.661
6.157	12.946
6.099	13.26
6.0421	13.825
5.9863	14.747
5.9315	15.509
5.8777	16.143
5.8249	16.769
5.773	17.412
5.722	17.826
5.6719	17.997
5.6227	18.324
5.5744	18.654
5.5268	19.029
5.4801	19.184
5.4341	19.366
5.3889	19.525
5.3445	19.65
5.3008	19.833
5.2578	20.088
5.2154	20.402
5.1738	20.719
5.1328	21.068
5.0925	21.413
5.0528	21.843
5.0137	22.333
4.9752	22.763
4.9373	23.187
4.9	23.614
4.8632	23.954
4.827	24.293
4.7913	24.561
4.7561	24.807
4.7215	25.084
4.6873	25.346
4.6536	25.608
4.6205	25.79
4.5877	25.967
4.5555	26.088
4.5237	26.189
4.4923	26.243
4.4614	26.254
4.4309	26.233
4.4008	26.233
4.3711	26.177
4.3418	26.171
4.3129	26.038
4.2844	25.863
4.2563	25.805
4.2285	25.719
4.2011	25.84
4.174	25.757
4.1473	25.706
4.1209	25.598
4.0949	25.461
4.0692	25.365
4.0438	25.273
4.0187	25.101
3.994	25.003
3.9695	24.856
3.9453	24.753
3.9214	24.622
3.8979	24.465
3.8746	24.339
3.8515	24.229
3.8288	24.084
3.8063	23.904
3.7841	23.781
3.7621	23.616
3.7404	23.489
3.7189	23.349
3.6977	23.206
3.6767	23.053
3.656	22.933
3.6355	22.775
3.6152	22.623
3.5951	22.496
3.5753	22.343
3.5557	22.219
3.5363	22.066
3.5171	21.89
3.4981	21.733
3.4793	21.637
3.4607	21.486
3.4423	21.299
3.4241	21.13
3.4061	20.982
3.3883	20.864
3.3707	20.719
3.3533	20.632
3.336	20.473
3.3189	20.307
3.302	20.123
3.2853	19.984
3.2687	19.788
3.2523	19.623
3.2361	19.432
3.22	19.289
3.204	19.12
3.1883	18.945
3.1727	18.744
3.1572	18.58
3.1419	18.439
3.1268	18.253
3.1117	18.088
3.0969	17.946
3.0821	17.782
3.0675	17.709
3.0531	17.596
3.0388	17.485
3.0246	17.309
3.0105	17.224
2.9966	17.003
2.9828	16.912
2.9692	16.815
2.9556	16.708
2.9422	16.561
2.9289	16.511
2.9157	16.409
2.9027	16.322
2.8897	16.265
2.8769	16.176
2.8642	16.176
2.8516	16.052
2.8391	15.962
2.8267	15.844
2.8144	15.856
2.8022	15.882
2.7902	15.938
2.7782	16.115
2.7664	16.229
2.7546	16.316
2.7429	16.786
2.7314	17.285
2.7199	17.671
2.7085	18.187
2.6973	18.418
2.6861	18.494
2.675	18.379
2.664	18.346
2.6531	18.447
2.6423	18.424
2.6315	18.28
2.6209	18.078
2.6103	18.104
2.5999	18.035
2.5895	17.951
2.5792	17.9
2.569	17.868
2.5588	17.783
2.5487	17.729
2.5388	17.656
2.5289	17.651
2.519	17.553
2.5093	17.516
2.4996	17.421
2.49	17.375
2.4805	17.247
2.471	17.312
2.4616	17.237
2.4523	17.125
2.4431	17.08
2.4339	17.001
2.4248	17.006
2.4157	16.957
2.4068	16.837
2.3979	16.81
2.389	16.813
2.3802	16.774
2.3715	16.689
2.3629	16.62
2.3543	16.564
2.3458	16.513
2.3373	16.547
2.3289	16.484
2.3206	16.417
2.3123	16.494
2.3041	16.467
2.2959	16.353
2.2878	16.364
2.2798	16.406
2.2718	16.264
2.2638	16.332
2.2559	16.165
2.2481	16.148
2.2403	16.188
2.2326	16.202
2.225	16.195
2.2173	16.059
2.2098	16.128
2.2023	16.142
2.1948	16.136
2.1874	16.096
2.18	16.06
2.1727	16.116
2.1655	16.06
2.1583	16.046
2.1511	16.04
2.144	16.034
2.1369	16.023
2.1299	16.036
2.1229	16.014
2.116	16.056
2.1091	15.972
2.1023	15.968
2.0955	15.963
2.0887	16.043
2.082	15.954
2.06	15.865
2.028	15.935
1.996	15.548
1.964	15.381
1.932	15.266
1.9	15.366
1.868	15.366
1.836	15.251
1.804	15.182
1.772	15.104
1.74	15.067
1.708	15.047
1.676	15.006
1.644	14.968
1.612	14.741
1.58	14.78
1.548	14.684
1.516	14.4
1.484	14.353
1.452	14.332
1.42	14.133
1.388	14.226
1.356	14.066
1.324	13.965
1.292	13.987
1.26	13.854
1.228	13.996
1.196	13.805
1.164	13.723
1.132	13.509
1.1	13.389
1.068	12.932
1.036	12.8
1.004	12.649
0.972	12.701
0.94	12.875
0.908	13.145
0.876	13.478
0.844	13.625
0.812	13.677
0.795	13.752
0.787	13.584
0.779	13.882
0.771	13.839
0.763	13.802
0.755	13.773
0.747	13.658
0.739	13.612
0.731	13.669
0.723	13.652
0.715	13.612
0.707	13.618
0.699	13.614
0.691	13.815
0.683	13.41
0.675	13.548
0.667	13.34
0.659	13.35
0.651	13.42
0.643	13.349
0.635	13.459
0.627	13.499
0.619	13.32
0.611	13.01
0.603	13.26
0.595	13.179
0.587	13.108
0.579	13.23
0.571	13.1
0.563	13.059
0.555	12.808
0.547	12.656
0.539	12.419
0.531	12.359
0.523	12.597
0.515	12.546
0.507	12.14
0.499	12.362
0.491	12.408
0.483	12.267
0.475	11.872
0.467	12.078
0.459	12.095
0.451	11.941
0.443	11.729
0.435	11.95
0.427	11.756
0.419	11.527
0.411	11.471
0.403	11.412
