Name: Alkali Basalt
Type: Rock
Class: Igneous
Subclass: Mafic
Particle Size: Solid
Sample No.: Mewy410a
Owner: Lawrence Rowan, USGS Reston
Wavelength Range: All
Origin: South Golan, Middle East
Description: Alkali basalt, cut surface, early PlioceneSample was Whole rock chips. Original ASTER Spectral Library name was usgs.perknic.rock.igneous.mafic.solid.mewy410a.spectrum.txt
Measurement: Directional Hemispherical Reflectance
X Units: Wavelength (micrometers)
Y Units: Reflectance (percent)
wavelength	value
14.051	3.3887
13.826	3.3166
13.609	3.502
13.398	3.4917
13.193	3.4917
12.995	3.5638
12.802	3.6359
12.616	3.8625
12.434	4.0479
12.258	4.5629
12.086	5.2221
11.92	5.6238
11.757	6.18
11.6	6.9422
11.446	8.1679
11.297	9.0331
11.151	9.6305
11.009	10.1455
10.87	10.4957
10.735	10.5781
10.604	10.7841
10.475	10.3412
10.35	10.5781
10.227	10.815
10.108	10.5472
9.991	10.6605
9.877	11.0107
9.765	11.1137
9.656	11.2785
9.549	11.1034
9.445	10.6914
9.343	9.7129
9.243	8.7962
9.145	8.6623
9.049	8.8168
8.956	8.4048
8.864	7.4778
8.774	6.3654
8.686	5.8195
8.599	5.2015
8.515	4.6556
8.431	4.2745
8.35	3.8934
8.27	3.2342
8.192	2.6574
8.115	2.2763
8.039	2.1527
7.965	2.0394
7.893	1.9982
7.821	2.0909
7.751	2.0291
7.682	2.0703
7.614	2.1527
7.548	2.0703
7.483	2.1424
7.418	2.1939
7.355	2.2969
7.293	2.266
7.232	2.3175
7.172	2.3896
7.113	2.4823
7.055	2.4926
6.998	2.5132
6.942	2.5441
6.886	2.5544
6.832	2.5647
6.778	2.6265
6.726	2.6471
6.674	2.6368
6.623	2.6986
6.572	2.6883
6.523	2.7192
6.474	2.8428
6.426	2.7707
6.378	2.7604
6.332	2.6677
6.286	2.7089
6.24	2.6677
6.195	2.7192
6.151	2.678
6.108	2.5956
6.065	2.678
6.023	2.7295
5.981	2.8016
5.94	2.7501
5.899	2.8943
5.859	2.8531
5.82	2.9046
5.781	3.0282
5.743	3.0076
5.705	3.0591
5.667	3.0076
5.63	3.0385
5.594	3.0797
5.558	3.0694
5.523	3.0694
5.487	3.1518
5.453	3.2136
5.419	3.2342
5.385	3.2857
5.352	3.3063
5.319	3.3269
5.286	3.2342
5.254	3.3269
5.222	3.3372
5.191	3.4093
5.16	3.399
5.129	3.4093
5.099	3.4608
5.069	3.5329
5.04	3.502
5.01	3.5535
4.981	3.4814
4.953	3.5947
4.925	3.5638
4.897	3.6668
4.869	3.6668
4.842	3.6874
4.815	3.6771
4.788	3.6668
4.762	3.7595
4.736	3.8007
4.71	3.7698
4.684	3.8213
4.659	3.811
4.634	3.9346
4.61	3.9346
4.585	3.8934
4.561	3.9964
4.537	4.0273
4.513	3.9449
4.49	3.9861
4.467	4.0067
4.444	4.12
4.421	4.1818
4.398	4.1715
4.376	4.1921
4.354	4.1715
4.332	4.1921
4.311	4.3157
4.289	4.3775
4.268	4.2951
4.247	4.4496
4.226	4.4187
4.206	4.4393
4.185	4.3157
4.165	4.2951
4.145	4.4702
4.126	4.3981
4.106	4.3363
4.086	4.4496
4.067	4.4084
4.048	4.4908
4.029	4.4702
4.011	4.5114
3.992	4.4908
3.974	4.5114
3.956	4.4702
3.938	4.532
3.92	4.6041
3.902	4.5938
3.884	4.5835
3.867	4.5629
3.85	4.532
3.833	4.6762
3.816	4.5835
3.799	4.635
3.782	4.6247
3.766	4.6556
3.75	4.7689
3.733	4.6556
3.717	4.7998
3.702	4.4908
3.686	4.7277
3.67	4.7483
3.655	4.7792
3.639	4.7792
3.624	4.8204
3.609	4.7792
3.594	4.7792
3.579	4.738
3.564	4.7998
3.549	4.6865
3.535	4.8822
3.521	4.738
3.506	4.6556
3.492	4.7895
3.478	4.6865
3.464	4.8719
3.45	4.7998
3.437	4.8616
3.423	4.7483
3.409	4.6659
3.396	4.7586
3.383	4.7071
3.37	4.7586
3.357	4.8204
3.344	4.7483
3.331	4.6968
3.318	4.7689
3.305	4.7277
3.293	4.8101
3.28	4.7998
3.268	4.6556
3.255	4.738
3.243	4.8307
3.231	4.6865
3.219	4.6247
3.207	4.7174
3.195	4.7277
3.183	4.7998
3.172	4.635
3.16	4.8204
3.149	4.7792
3.137	4.6453
3.126	4.6762
3.115	4.7483
3.103	4.6556
3.092	4.7277
3.081	4.7277
3.07	4.5835
3.06	4.7483
3.049	4.6762
3.038	4.6659
3.027	4.6762
3.017	4.6659
3.006	4.8101
2.996	4.635
2.986	4.6453
2.975	4.7483
2.965	4.5938
2.955	4.841
2.945	4.7071
2.935	4.4702
2.925	4.944
2.915	4.7277
2.905	4.7586
2.896	4.7895
2.886	4.738
2.876	4.7174
2.867	4.7998
2.857	4.8822
2.848	4.9852
2.838	4.8101
2.829	5.0161
2.82	4.6041
2.811	5.0264
2.802	5.2942
2.793	4.9646
2.784	5.15
2.775	5.0573
2.766	5.2427
2.757	5.15
2.748	5.4693
2.74	5.5105
2.731	5.1706
2.722	5.3045
2.714	5.6238
2.705	5.8813
2.697	5.6753
2.688	5.7062
2.68	5.8607
2.672	6.3242
2.664	6.1182
2.655	6.0049
2.647	6.3242
2.639	6.2006
2.631	5.8504
2.623	6.1285
2.615	6.3345
2.607	6.5199
2.599	5.9328
2.592	6.3448
2.584	5.9431
2.576	6.4993
2.569	6.5714
2.561	6.2624
2.553	6.4169
2.546	6.2624
2.538	6.4272
2.531	6.3448
2.524	6.3139
2.516	6.2521
2.509	6.1491
2.502	6.3345
2.48	6.913
2.456	7.234
2.432	6.5588
2.408	6.894
2.384	7.6199
2.36	7.1215
2.336	7.4464
2.312	7.4345
2.288	7.4172
2.264	7.5556
2.24	7.7501
2.216	7.6588
2.192	8.0192
2.168	8.1935
2.144	8.1595
2.12	8.1919
2.096	8.1642
2.072	8.3435
2.048	8.4368
2.024	8.5356
2	8.6532
1.976	8.7111
1.952	8.8199
1.928	8.7667
1.904	8.6082
1.88	8.7988
1.856	8.8866
1.832	8.9962
1.808	9.0756
1.784	9.2611
1.76	9.277
1.736	9.3535
1.712	9.4548
1.688	9.5734
1.664	9.5784
1.64	9.6387
1.616	9.6852
1.592	9.7677
1.568	9.8349
1.544	9.8562
1.52	9.95
1.496	10.0083
1.472	10.0409
1.448	10.1489
1.424	10.1984
1.4	10.2671
1.376	10.3032
1.352	10.2544
1.328	10.438
1.304	10.5083
1.28	10.602
1.256	10.7459
1.232	10.8087
1.208	10.9347
1.184	10.9466
1.16	11.1505
1.136	11.2376
1.112	11.3086
1.088	11.4059
1.064	11.4954
1.04	11.6854
1.016	11.8947
0.992	12.1924
0.968	12.4475
0.944	12.8348
0.92	13.3846
0.896	13.6457
0.872	13.9037
0.848	14.5311
0.824	14.698
0.8	14.9229
0.776	15.2045
0.752	15.4659
0.728	15.7507
0.704	16.0507
0.68	16.2962
0.656	16.5389
0.632	16.8006
0.608	17.0976
0.584	17.3713
0.56	17.6031
0.536	17.8246
0.512	18.0794
0.488	18.2244
0.464	18.5406
0.44	18.8873
0.416	19.2852
