Name: Gray Limestone (Birdseye Limestone)
Type: Rock
Class: Sedimentary
Subclass: Limestone
Particle Size: Solid
Sample No.: Ward70
Owner: JPL
Wavelength Range: VSWIR
Origin: Ward's Collection of American Rocks.  Sample locality - Chaumont, Jefferson County, New York.
Description: A dark gray, compact limestone with conchoidal fracturcontaining small round and irregular spots of crystalline calcite.Geologic age - Ordovician.Collected by:  Ward's Natural Science Original ASTER Spectral Library name was jpl.perkin.rock.sedimentary.limestone.solid.ward70.spectrum.txt
Measurement: Hemispherical reflectance
X Units: Wavelength (micrometers)
Y Units: Reflectance (percent)
wavelength	value
2.5	12.2321
2.494	12.4766
2.488	12.6654
2.482	13.1397
2.476	13.3434
2.47	13.9967
2.464	14.5588
2.458	15.3023
2.452	15.7267
2.446	16.1457
2.44	16.5441
2.434	16.9476
2.428	17.2512
2.422	17.6814
2.416	17.7454
2.41	17.9996
2.404	18.1303
2.398	18.2277
2.392	18.3474
2.386	18.4026
2.38	18.2899
2.374	18.0797
2.368	17.7473
2.362	17.0437
2.356	16.2038
2.35	15.2155
2.344	14.4467
2.338	13.9995
2.332	14.0209
2.326	14.3199
2.32	14.7497
2.314	15.2318
2.308	15.5007
2.302	15.7347
2.296	16.0053
2.29	16.226
2.284	16.5286
2.278	17.0505
2.272	17.4021
2.266	17.7438
2.26	18.1722
2.254	18.4246
2.248	18.6653
2.242	18.8259
2.236	19.0094
2.23	19.0143
2.224	19.1908
2.218	19.2432
2.212	19.4488
2.206	19.4972
2.2	19.7157
2.194	19.7581
2.188	19.8964
2.182	19.9031
2.176	19.9124
2.17	19.9238
2.164	19.8917
2.158	19.8789
2.152	19.9737
2.146	19.9867
2.14	20.2081
2.134	20.2543
2.128	20.288
2.122	20.231
2.116	20.2854
2.11	20.1602
2.104	20.1697
2.098	20.1775
2.092	20.2378
2.086	20.1957
2.08	20.3143
2.074	20.1775
2.068	20.1812
2.062	20.2785
2.056	20.3138
2.05	20.2891
2.044	20.2895
2.038	20.2585
2.032	20.2518
2.026	20.1492
2.02	20.1041
2.014	19.9762
2.008	19.904
2.002	19.6915
1.996	19.5058
1.99	19.4807
1.984	19.472
1.978	19.5263
1.972	19.4433
1.966	19.4437
1.96	19.4191
1.954	19.3462
1.948	19.3335
1.942	19.3146
1.936	19.375
1.93	19.4036
1.924	19.5528
1.918	19.6165
1.912	19.7171
1.906	19.939
1.9	20.0759
1.894	20.2566
1.888	20.3961
1.882	20.3699
1.876	20.2976
1.87	20.2908
1.864	20.5024
1.858	20.5855
1.852	20.6013
1.846	20.6448
1.84	20.6807
1.834	20.7193
1.828	20.7339
1.822	20.8139
1.816	20.8825
1.81	20.8438
1.804	20.8679
1.798	20.9185
1.792	20.866
1.786	20.8703
1.78	20.8516
1.774	20.8329
1.768	20.8
1.762	20.8427
1.756	20.8046
1.75	20.7858
1.744	20.804
1.738	20.8663
1.732	20.8491
1.726	20.7671
1.72	20.8173
1.714	20.8895
1.708	20.8417
1.702	20.899
1.696	20.8175
1.69	20.8838
1.684	20.837
1.678	20.8316
1.672	20.829
1.666	20.8539
1.66	20.8838
1.654	20.8787
1.648	20.8018
1.642	20.9293
1.636	20.8835
1.63	20.8646
1.624	20.8558
1.618	20.8443
1.612	20.8881
1.606	20.9035
1.6	20.8562
1.594	20.8464
1.588	20.8253
1.582	20.859
1.576	20.7654
1.57	20.7944
1.564	20.7217
1.558	20.7961
1.552	20.749
1.546	20.7151
1.54	20.7371
1.534	20.7205
1.528	20.6605
1.522	20.674
1.516	20.646
1.51	20.5803
1.504	20.5625
1.498	20.5425
1.492	20.5285
1.486	20.5102
1.48	20.5179
1.474	20.4827
1.468	20.4167
1.462	20.4009
1.456	20.4114
1.45	20.3334
1.444	20.3083
1.438	20.3179
1.432	20.193
1.426	20.2562
1.42	20.2027
1.414	20.1501
1.408	20.1146
1.402	20.2021
1.396	20.2248
1.39	20.2875
1.384	20.1658
1.378	20.2945
1.372	20.1876
1.366	20.2108
1.36	20.1176
1.354	20.1228
1.348	20.0927
1.342	20.0526
1.336	19.9533
1.33	19.9748
1.324	19.8999
1.318	19.8737
1.312	19.8127
1.306	19.8137
1.3	19.7653
1.294	19.7085
1.288	19.6443
1.282	19.5752
1.276	19.6013
1.27	19.508
1.264	19.4505
1.258	19.423
1.252	19.3866
1.246	19.2963
1.24	19.3264
1.234	19.2452
1.228	19.1788
1.222	19.095
1.216	19.0954
1.21	18.9317
1.204	18.9029
1.198	18.907
1.192	18.7771
1.186	18.8023
1.18	18.7827
1.174	18.6673
1.168	18.6011
1.162	18.5221
1.156	18.4565
1.15	18.4353
1.144	18.348
1.138	18.3195
1.132	18.1967
1.126	18.1919
1.12	18.1117
1.114	18.0425
1.108	18.0509
1.102	17.9492
1.096	17.7893
1.09	17.7997
1.084	17.7729
1.078	17.8013
1.072	17.6695
1.066	17.5397
1.06	17.4903
1.054	17.4718
1.048	17.4495
1.042	17.3015
1.036	17.2995
1.03	17.2514
1.024	17.1642
1.018	17.1314
1.012	17.0823
1.006	16.9733
1	16.9274
0.994	16.9525
0.988	16.8779
0.982	16.7872
0.976	16.7644
0.97	16.6411
0.964	16.662
0.958	16.5776
0.952	16.6369
0.946	16.459
0.94	16.4488
0.934	16.377
0.928	16.3818
0.922	16.2548
0.916	16.145
0.91	16.1641
0.904	16.1687
0.898	16.1883
0.892	16.1539
0.886	16.0965
0.88	16.0815
0.874	16.0136
0.868	16.0141
0.862	15.832
0.856	15.2692
0.85	15.2444
0.844	15.2057
0.838	15.1729
0.832	15.1586
0.826	15.1157
0.82	15.0713
0.814	15.0061
0.808	14.9423
0.802	14.8865
0.796	14.811
0.79	14.7364
0.784	14.6781
0.778	14.6024
0.772	14.5257
0.766	14.4575
0.76	14.386
0.754	14.3124
0.748	14.2331
0.742	14.165
0.736	14.0879
0.73	14.0135
0.724	13.9421
0.718	13.8546
0.712	13.7769
0.706	13.7054
0.7	13.6236
0.694	13.545
0.688	13.4646
0.682	13.3827
0.676	13.3007
0.67	13.2205
0.664	13.138
0.658	13.0521
0.652	12.9718
0.646	12.8891
0.64	12.8067
0.634	12.7258
0.628	12.6435
0.622	12.5619
0.616	12.4816
0.61	12.3992
0.604	12.3201
0.598	12.241
0.592	12.1669
0.586	12.0845
0.58	12.0041
0.574	11.9195
0.568	11.8424
0.562	11.777
0.556	11.6413
0.55	11.5614
0.544	11.4847
0.538	11.4111
0.532	11.3437
0.526	11.2782
0.52	11.2148
0.514	11.1351
0.508	11.0431
0.502	10.9382
0.496	10.8111
0.49	10.6756
0.484	10.521
0.478	10.5194
0.472	10.4691
0.466	10.4035
0.46	10.3288
0.454	10.2303
0.448	10.1283
0.442	10.0339
0.436	9.962
0.43	9.8836
0.424	9.804
0.418	9.732
0.412	9.6691
0.406	9.6097
0.4	9.5503
