Name: Carbonaceous Shale
Type: Rock
Class: Sedimentary
Subclass: Shale
Particle Size: Solid
Sample No.: Ward54
Owner: JPL
Wavelength Range: VSWIR
Origin: Ward's Collection of American Rocks.  Sample locality - Mingo County, West Virginia.
Description: A dull grayish black shaly rock with numerous fern and othercoal plant impressions.  A slight amount of carbonaceous material ipresent.Geologic age - Pennsylvanian (Pottsville).Collected by:  Ward's Natural Science Original ASTER Spectral Library name was jpl.perkin.rock.sedimentary.shale.solid.ward54.spectrum.txt
Measurement: Hemispherical reflectance
X Units: Wavelength (micrometers)
Y Units: Reflectance (percent)
wavelength	value
2.5	10.8251
2.494	10.7451
2.488	10.7498
2.482	10.8588
2.476	10.9609
2.47	10.9883
2.464	11.1317
2.458	10.9689
2.452	11.0068
2.446	11.0712
2.44	11.0387
2.434	11.2106
2.428	11.3006
2.422	11.3083
2.416	11.4485
2.41	11.4254
2.404	11.5495
2.398	11.5982
2.392	11.5857
2.386	11.5769
2.38	11.5097
2.374	11.5561
2.368	11.5976
2.362	11.5693
2.356	11.6162
2.35	11.6447
2.344	11.671
2.338	11.7181
2.332	11.8957
2.326	11.8874
2.32	11.9998
2.314	12.0819
2.308	12.2134
2.302	12.2708
2.296	12.3668
2.29	12.4132
2.284	12.5178
2.278	12.4818
2.272	12.5876
2.266	12.5791
2.26	12.5226
2.254	12.4847
2.248	12.4942
2.242	12.5744
2.236	12.5017
2.23	12.5409
2.224	12.456
2.218	12.1633
2.212	11.9754
2.206	11.7641
2.2	11.9555
2.194	12.1932
2.188	12.3556
2.182	12.6388
2.176	12.7097
2.17	12.7556
2.164	12.8794
2.158	12.9898
2.152	13.1366
2.146	13.2898
2.14	13.4314
2.134	13.4658
2.128	13.5187
2.122	13.503
2.116	13.4586
2.11	13.3964
2.104	13.3767
2.098	13.3976
2.092	13.4178
2.086	13.4757
2.08	13.4814
2.074	13.513
2.068	13.5594
2.062	13.5503
2.056	13.6104
2.05	13.6287
2.044	13.5893
2.038	13.6411
2.032	13.64
2.026	13.634
2.02	13.6241
2.014	13.7171
2.008	13.6243
2.002	13.7
1.996	13.6842
1.99	13.6506
1.984	13.7015
1.978	13.7279
1.972	13.7597
1.966	13.7655
1.96	13.8319
1.954	13.8024
1.948	13.9044
1.942	13.9197
1.936	13.9431
1.93	13.9344
1.924	13.9965
1.918	13.9642
1.912	13.797
1.906	13.9616
1.9	14.0367
1.894	14.061
1.888	14.188
1.882	14.1913
1.876	14.3191
1.87	14.3218
1.864	14.3142
1.858	14.26
1.852	14.335
1.846	14.2332
1.84	14.2808
1.834	14.3272
1.828	14.276
1.822	14.305
1.816	14.2074
1.81	14.2317
1.804	14.2235
1.798	14.1996
1.792	14.2609
1.786	14.2929
1.78	14.2241
1.774	14.2988
1.768	14.3056
1.762	14.2666
1.756	14.3433
1.75	14.3096
1.744	14.4157
1.738	14.3392
1.732	14.3503
1.726	14.3745
1.72	14.3482
1.714	14.4339
1.708	14.3611
1.702	14.4377
1.696	14.3196
1.69	14.3829
1.684	14.3881
1.678	14.3633
1.672	14.3725
1.666	14.3511
1.66	14.3142
1.654	14.306
1.648	14.3669
1.642	14.3939
1.636	14.351
1.63	14.3615
1.624	14.337
1.618	14.3722
1.612	14.3535
1.606	14.3698
1.6	14.353
1.594	14.3546
1.588	14.3648
1.582	14.3434
1.576	14.3441
1.57	14.4003
1.564	14.3239
1.558	14.3216
1.552	14.4048
1.546	14.3285
1.54	14.3611
1.534	14.3674
1.528	14.3983
1.522	14.3583
1.516	14.3514
1.51	14.4061
1.504	14.3329
1.498	14.4055
1.492	14.3572
1.486	14.3879
1.48	14.3852
1.474	14.335
1.468	14.3656
1.462	14.3348
1.456	14.3663
1.45	14.3318
1.444	14.3721
1.438	14.3508
1.432	14.2366
1.426	14.1064
1.42	13.8403
1.414	13.5188
1.408	13.7735
1.402	13.9395
1.396	13.9904
1.39	14.1619
1.384	14.3396
1.378	14.3653
1.372	14.3396
1.366	14.3517
1.36	14.3778
1.354	14.3605
1.348	14.3563
1.342	14.2997
1.336	14.3061
1.33	14.2769
1.324	14.2484
1.318	14.2812
1.312	14.2825
1.306	14.2073
1.3	14.1875
1.294	14.2356
1.288	14.1936
1.282	14.2104
1.276	14.1186
1.27	14.1571
1.264	14.2022
1.258	14.1553
1.252	14.1305
1.246	14.1189
1.24	14.0961
1.234	14.0738
1.228	14.1281
1.222	14.1098
1.216	14.0306
1.21	14.0209
1.204	14.0478
1.198	13.9707
1.192	14.0512
1.186	14.0238
1.18	14.0221
1.174	14.0297
1.168	13.9872
1.162	13.9732
1.156	13.9752
1.15	13.9658
1.144	13.935
1.138	13.9758
1.132	14.0093
1.126	13.9639
1.12	14.0023
1.114	14.0116
1.108	13.9792
1.102	14.0427
1.096	13.998
1.09	13.9663
1.084	14.0004
1.078	14.0082
1.072	14.0431
1.066	13.9886
1.06	13.9709
1.054	14.0986
1.048	14.1521
1.042	14.0467
1.036	14.1839
1.03	14.194
1.024	14.1889
1.018	14.1865
1.012	14.1923
1.006	14.1677
1	14.3005
0.994	14.2264
0.988	14.2124
0.982	14.2803
0.976	14.287
0.97	14.2877
0.964	14.3577
0.958	14.3835
0.952	14.4283
0.946	14.3967
0.94	14.4663
0.934	14.4233
0.928	14.5245
0.922	14.5148
0.916	14.5118
0.91	14.6118
0.904	14.7042
0.898	14.7637
0.892	14.8692
0.886	14.9276
0.88	14.963
0.874	15.0149
0.868	15.0325
0.862	15.1185
0.856	15.3541
0.85	15.4241
0.844	15.4531
0.838	15.5057
0.832	15.5259
0.826	15.5555
0.82	15.558
0.814	15.5751
0.808	15.5982
0.802	15.5851
0.796	15.5878
0.79	15.5555
0.784	15.5528
0.778	15.5217
0.772	15.4982
0.766	15.5011
0.76	15.4781
0.754	15.4624
0.748	15.4447
0.742	15.4212
0.736	15.4084
0.73	15.3991
0.724	15.39
0.718	15.373
0.712	15.3679
0.706	15.3625
0.7	15.3574
0.694	15.3489
0.688	15.3488
0.682	15.3477
0.676	15.3473
0.67	15.3408
0.664	15.3418
0.658	15.3409
0.652	15.3357
0.646	15.3266
0.64	15.322
0.634	15.3202
0.628	15.3065
0.622	15.3035
0.616	15.2909
0.61	15.2823
0.604	15.2687
0.598	15.2577
0.592	15.2516
0.586	15.2292
0.58	15.1977
0.574	15.1763
0.568	15.1462
0.562	15.1095
0.556	15.0719
0.55	15.0341
0.544	14.9838
0.538	14.9368
0.532	14.8799
0.526	14.8277
0.52	14.7693
0.514	14.7023
0.508	14.6345
0.502	14.5671
0.496	14.4965
0.49	14.4386
0.484	14.3759
0.478	14.2858
0.472	14.217
0.466	14.1423
0.46	14.0715
0.454	13.9881
0.448	13.9075
0.442	13.8057
0.436	13.704
0.43	13.5807
0.424	13.4615
0.418	13.3386
0.412	13.2142
0.406	13.0881
0.4	12.9538
