Name: Augen Gneiss
Type: rock
Class: Metamorphic
Subclass: Gneis
Particle Size: Fine
Sample No.: gneiss8
Owner: JHU
Wavelength Range: All
Origin: Sample No. 389, The Hunt and Salisbury Collection at the U.S.Geological Survey, Denver, Co.
Description: Very large augen of microcline  enclose smaller albite and orthoclase euhedra along with anhedra of quartz and biotite euhedra.  There is minor sericitization  of the feldspars, scattered opaques (magnetite?) and some myrmeketic texture is present.  There are much lesser amounts of anhedral green amphibole in this rock along with trace amounts of zircon euhedra.  Particle size was 0-75 Micrometer. Original ASTER Spectral Library name was jhu.becknic.rock.metamorphic.gneiss.fine.gneiss8.spectrum.txt
Measurement: Directional (10 Degree) Hemispherical Reflectance
X Units: Wavelength (micrometers)
Y Units: Reflectance (percent)
wavelength	value
14.983	3.314
14.645	3.8843
14.321	2.7101
14.011	3.5501
13.715	3.3313
13.43	3.6169
13.158	3.3971
12.896	2.7897
12.644	2.5983
12.402	3.2612
12.169	5.5524
11.945	7.6397
11.729	8.123
11.52	8.1739
11.319	7.979
11.125	6.988
10.937	5.9071
10.755	5.3698
10.58	4.774
10.41	4.2868
10.245	4.0211
10.086	4.0893
9.9313	4.5348
9.7814	4.4609
9.636	4.1869
9.4948	4.594
9.3577	5.8799
9.2245	6.4634
9.095	6.0563
8.9691	5.6682
8.8467	5.6518
8.7275	5.5289
8.6116	4.9608
8.4986	6.0286
8.3886	6.1252
8.2814	6.6536
8.1769	7.2271
8.075	5.5739
7.9756	4.1116
7.8786	2.9382
7.784	2.574
7.6916	2.5964
7.6014	2.6886
7.5133	3.0078
7.4272	3.4286
7.343	3.9719
7.2607	4.8048
7.1803	5.7307
7.1016	6.714
7.0246	7.2776
6.9493	7.9873
6.8755	8.4112
6.8034	8.6104
6.7327	8.6812
6.6634	9.3921
6.5956	9.7687
6.5292	10.344
6.464	12.339
6.4002	12.436
6.3376	11.223
6.2762	9.6012
6.216	8.4131
6.157	9.2706
6.099	11.02
6.0421	12.018
5.9863	12.419
5.9315	12.262
5.8777	13.966
5.8249	15.583
5.773	16.558
5.722	17.249
5.6719	16.559
5.6227	14.613
5.5744	14.607
5.5268	16.219
5.4801	18.622
5.4341	19.197
5.3889	16.001
5.3445	13.953
5.3008	15.099
5.2578	17.849
5.2154	22.315
5.1738	24.062
5.1328	24.577
5.0925	24.935
5.0528	24.314
5.0137	24.514
4.9752	26.726
4.9373	30.007
4.9	34.474
4.8632	39.278
4.827	40.973
4.7913	41.834
4.7561	42.916
4.7215	43.66
4.6873	43.103
4.6536	44.412
4.6205	46.21
4.5877	47.695
4.5555	48.878
4.5237	49.213
4.4923	48.493
4.4614	48.965
4.4309	50.664
4.4008	52.292
4.3711	54.217
4.3418	55.78
4.3129	56.701
4.2844	57.249
4.2563	58.146
4.2285	58.613
4.2011	59.016
4.174	59.543
4.1473	60.04
4.1209	60.538
4.0949	61.03
4.0692	61.345
4.0438	61.467
4.0187	61.414
3.994	61.37
3.9695	61.531
3.9453	61.96
3.9214	62.182
3.8979	62.194
3.8746	62.065
3.8515	62.014
3.8288	62.032
3.8063	62.006
3.7841	61.801
3.7621	61.523
3.7404	61.233
3.7189	61.048
3.6977	60.903
3.6767	60.779
3.656	60.544
3.6355	60.126
3.6152	59.728
3.5951	59.286
3.5753	58.776
3.5557	58.215
3.5363	57.46
3.5171	56.341
3.4981	55.179
3.4793	55.16
3.4607	54.62
3.4423	53.582
3.4241	52.707
3.4061	51.992
3.3883	51.458
3.3707	50.868
3.3533	50.403
3.336	49.809
3.3189	49.036
3.302	48.096
3.2853	47.091
3.2687	46.08
3.2523	44.988
3.2361	43.945
3.22	42.764
3.204	41.597
3.1883	40.358
3.1727	39.249
3.1572	38.071
3.1419	37.003
3.1268	35.88
3.1117	34.852
3.0969	33.954
3.0821	33.259
3.0675	32.667
3.0531	32.067
3.0388	31.516
3.0246	30.781
3.0105	29.936
2.9966	29.126
2.9828	28.305
2.9692	27.643
2.9556	27.077
2.9422	26.714
2.9289	26.494
2.9157	26.475
2.9027	26.433
2.8897	26.505
2.8769	26.484
2.8642	26.39
2.8516	26.103
2.8391	25.598
2.8267	24.689
2.8144	23.712
2.8022	23.272
2.7902	22.461
2.7782	21.799
2.7664	20.945
2.7546	21.354
2.7429	23.009
2.7314	25.544
2.7199	29.912
2.7085	32.865
2.6973	41.756
2.6861	54.972
2.675	59.888
2.664	61.92
2.6531	63.758
2.6423	64.608
2.6315	64.636
2.6209	65.155
2.6103	65.663
2.5999	65.91
2.5895	66.032
2.5792	66.257
2.569	66.391
2.5588	66.537
2.5487	66.738
2.5388	66.865
2.5289	66.959
2.519	67.035
2.5093	67.155
2.4996	67.195
2.49	67.263
2.4805	67.358
2.471	67.418
2.4616	67.451
2.4523	67.515
2.4431	67.572
2.4339	67.662
2.4248	67.738
2.4157	67.834
2.4068	67.823
2.3979	67.821
2.389	67.793
2.3802	67.855
2.3715	67.939
2.3629	67.851
2.3543	67.834
2.3458	67.887
2.3373	68.104
2.3289	68.442
2.3206	68.705
2.3123	69.033
2.3041	69.252
2.2959	69.308
2.2878	69.453
2.2798	69.424
2.2718	69.371
2.2638	69.058
2.2559	68.851
2.2481	68.924
2.2403	69.146
2.2326	69.223
2.225	69.073
2.2173	68.846
2.2098	68.283
2.2023	68.41
2.1948	68.517
2.1874	68.871
2.18	69.081
2.1727	69.365
2.1655	69.319
2.1583	69.477
2.1511	69.562
2.144	69.512
2.1369	69.521
2.1299	69.527
2.1229	69.453
2.116	69.338
2.1091	69.442
2.1023	69.222
2.0955	69.184
2.0887	69.06
2.082	69.165
2.06	68.385
2.028	66.718
1.996	65.107
1.964	63.468
1.932	61.911
1.9	60.221
1.868	62.659
1.836	63.29
1.804	61.698
1.772	60.785
1.74	59.706
1.708	59.644
1.676	58.549
1.644	57.715
1.612	55.922
1.58	55.558
1.548	53.982
1.516	52.83
1.484	51.075
1.452	50.578
1.42	49.22
1.388	47.541
1.356	47.342
1.324	45.989
1.292	44.738
1.26	44.163
1.228	43.248
1.196	42.62
1.164	41.667
1.132	40.905
1.1	40.545
1.068	40.308
1.036	40.624
1.004	40.019
0.972	39.296
0.94	38.6
0.908	38.39
0.876	38.075
0.844	37.838
0.812	37.691
0.795	36.66
0.787	36.499
0.779	36.429
0.771	35.823
0.763	35.976
0.755	35.65
0.747	35.429
0.739	34.969
0.731	35.002
0.723	34.835
0.715	34.797
0.707	34.858
0.699	35.486
0.691	35.475
0.683	35.575
0.675	35.371
0.667	35.704
0.659	36.307
0.651	35.711
0.643	36.24
0.635	35.743
0.627	35.679
0.619	36.239
0.611	36.206
0.603	35.7
0.595	35.96
0.587	35.783
0.579	35.887
0.571	35.629
0.563	35.153
0.555	34.886
0.547	34.789
0.539	34.7
0.531	33.638
0.523	33.355
0.515	33.197
0.507	32.703
0.499	31.932
0.491	31.675
0.483	31.007
0.475	30.292
0.467	29.633
0.459	30.229
0.451	29.587
0.443	28.929
0.435	28.952
0.427	28.057
0.419	27.121
0.411	26.382
0.403	26.146
