Name: Argillaceous Sandstone
Type: Rock
Class: Sedimentary
Subclass: Sandstone
Particle Size: Solid
Sample No.: Ward63
Owner: JPL
Wavelength Range: All
Origin: Ward's Collection of American Rocks.  Sample locality - Portageville, Wyoming County, New York.
Description: A light greenish-gray, fine-grained sandstone.Geologic age - Devonian.Collected by:  Ward's Natural Science Original ASTER Spectral Library name was jpl.nicolet.rock.sedimentary.sandstone.solid.ward63.spectrum.txt
Measurement: Hemispherical reflectance
X Units: Wavelength (micrometers)
Y Units: Reflectance (percent)
wavelength	value
15.3871	3.9468
15.118	4.164
14.8581	4.6622
14.6069	4.3193
14.3642	4.0668
14.1293	4.1927
13.9021	4.4479
13.682	4.8366
13.4687	5.4691
13.2621	5.5411
13.0616	6.0624
12.8672	7.3241
12.6784	6.2013
12.4951	6.4695
12.317	4.0691
12.1439	4.5142
11.9757	4.9359
11.812	5.2535
11.6527	5.9812
11.4977	6.0227
11.3468	6.4434
11.1997	6.691
11.0564	7.0471
10.9168	7.3682
10.7806	7.5355
10.6478	8.0131
10.5182	8.7504
10.3917	9.6094
10.2683	10.7072
10.1477	11.623
10.0299	12.4468
9.9148	13.3168
9.8024	13.7804
9.6925	15.1818
9.585	16.12
9.4798	16.3193
9.377	19.2583
9.2763	20.9558
9.1778	20.4495
9.0814	19.9811
8.987	19.303
8.8945	19.1405
8.8039	18.071
8.7151	16.8249
8.6281	13.3108
8.5428	17.4603
8.4592	18.6918
8.3772	19.753
8.2967	20.735
8.2179	21.9307
8.1404	19.4988
8.0645	14.3758
7.9899	10.919
7.9167	8.1686
7.8449	6.3759
7.7743	5.8198
7.705	5.1463
7.6369	4.2546
7.57	3.7437
7.5043	3.8811
7.4397	3.9464
7.3762	3.691
7.3138	3.6024
7.2524	3.5947
7.1921	3.6746
7.1327	3.6725
7.0743	3.6601
7.0169	3.5212
6.9604	3.6265
6.9047	3.7788
6.85	4.0434
6.7962	4.0767
6.7431	4.2464
6.6909	4.5231
6.6395	4.6549
6.5889	4.6664
6.539	4.6969
6.49	4.8538
6.4416	4.8587
6.3939	4.6249
6.347	4.422
6.3007	4.165
6.2551	4.0475
6.2101	3.7994
6.1658	3.5789
6.1222	3.8375
6.0791	3.9223
6.0366	4.0045
5.9948	4.06
5.9535	3.8544
5.9127	4.186
5.8726	4.4768
5.8329	4.9347
5.7938	5.0392
5.7552	5.3396
5.7172	5.6419
5.6796	5.6755
5.6425	5.5529
5.6059	5.3537
5.5698	5.2131
5.5341	5.5604
5.4989	5.9244
5.4641	6.0862
5.4298	6.2118
5.3959	5.7656
5.3624	5.4397
5.3294	5.5278
5.2967	5.6775
5.2644	5.9044
5.2326	6.3707
5.2011	6.9154
5.17	6.9232
5.1392	6.9263
5.1088	6.9894
5.0788	6.82
5.0491	6.7127
5.0198	6.8912
4.9908	6.9162
4.9622	7.5202
4.9338	7.8821
4.9058	8.7788
4.8781	10.0678
4.8508	10.9053
4.8237	11.4528
4.7969	11.9144
4.7704	12.1261
4.7443	12.4646
4.7184	12.7353
4.6927	12.6854
4.6674	13.0266
4.6423	13.569
4.6175	14.2596
4.593	14.7445
4.5687	14.9887
4.5447	14.9656
4.5209	14.6708
4.4974	14.0223
4.4741	13.7918
4.451	14.1869
4.4282	14.5775
4.4057	15.2287
4.3833	16.0121
4.3612	16.6055
4.3393	16.976
4.3176	17.2169
4.2962	17.3348
4.2749	17.5576
4.2539	17.8029
4.233	18.0595
4.2124	18.2127
4.192	18.4096
4.1717	18.6092
4.1517	18.6948
4.1319	19.021
4.1122	19.1328
4.0927	19.4261
4.0734	19.5423
4.0543	19.6251
4.0354	19.3451
4.0166	19.0146
3.9981	18.6842
3.9796	18.4583
3.9614	18.7741
3.9433	19.1643
3.9254	19.4484
3.9077	19.3853
3.8901	19.4824
3.8726	19.4404
3.8554	19.3654
3.8382	19.5434
3.8213	19.4918
3.8045	19.6571
3.7878	19.686
3.7713	19.5367
3.7549	19.4883
3.7386	19.2535
3.7225	19.1491
3.7066	19.0272
3.6907	19.0572
3.675	18.9049
3.6595	18.6054
3.644	18.5862
3.6287	18.1306
3.6136	17.9266
3.5985	17.677
3.5836	17.3326
3.5688	16.7628
3.5541	16.2367
3.5396	15.8501
3.5251	15.3708
3.5108	14.7174
3.4966	14.3588
3.4825	14.2669
3.4685	14.168
3.4547	13.8781
3.4409	13.6265
3.4273	13.0335
3.4137	12.3267
3.4003	12.4164
3.387	12.4234
3.3738	12.0255
3.3606	12.1617
3.3476	12.2501
3.3347	12.1771
3.3219	11.6431
3.3092	11.4346
3.2965	11.1519
3.284	10.9904
3.2716	10.9475
3.2593	10.8636
3.247	10.6881
3.2348	10.2557
3.2228	10.3881
3.2108	10.0873
3.1989	9.8887
3.1871	9.7267
3.1754	9.0073
3.1638	8.7737
3.1523	9.0348
3.1408	8.3424
3.1294	8.2757
3.1181	7.5654
3.1069	7.6115
3.0958	7.6323
3.0848	7.3803
3.0738	6.8503
3.0629	6.9554
3.0521	6.4825
3.0413	6.5511
3.0307	6.2194
3.0201	6.1256
3.0096	6.1155
2.9991	5.8715
2.9887	5.893
2.9784	5.8538
2.9682	5.9763
2.9581	5.3784
2.948	5.4663
2.9379	5.1768
2.928	5.1271
2.9181	5.5612
2.9083	5.0403
2.8985	6.3788
2.8888	6.1205
2.8792	5.8299
2.8697	6.248
2.8602	5.9802
2.8507	5.7248
2.8413	5.9705
2.832	5.8548
2.8228	6.474
2.8136	6.2495
2.8045	7.1433
2.7954	6.1745
2.7864	6.514
2.7774	7.143
2.7685	6.2116
2.7597	6.268
2.7509	6.5335
2.7422	7.3175
2.7335	7.5387
2.7249	8.9397
2.7163	12.2448
2.7078	14.6062
2.6994	17.4252
2.691	20.3737
2.6826	22.4532
2.6743	23.2742
2.666	24.4343
2.6578	24.6582
2.6497	25.2473
2.6416	25.38
2.6336	25.4743
2.6256	25.8332
2.6176	25.7624
2.6097	25.8967
2.6018	26.1871
2.594	26.1881
2.5863	26.5044
2.5785	26.5613
2.5709	26.3076
2.5633	26.9542
2.5557	26.9708
2.5481	26.6523
2.5406	27.0527
2.5332	26.816
2.5258	26.7058
2.5184	26.9665
2.5111	26.5754
2.5038	26.6977
2.4966	27.1446
2.4894	27.0338
2.4823	26.8868
2.4752	26.9069
2.4681	27.0256
2.4611	26.842
2.4541	27.7221
2.4471	27.031
2.4402	27.2204
2.4333	27.4353
2.4265	26.9946
2.4197	27.5064
2.413	28.1893
2.4063	28.1395
2.3996	28.2535
2.3929	28.4975
2.3863	28.3944
2.3798	27.6448
2.3732	27.5222
2.3667	27.0029
2.3603	27.7801
2.3538	27.059
2.3474	27.9376
2.3411	27.6783
2.3347	27.7153
2.3285	28.6828
2.3222	28.6286
2.316	29.753
2.3098	29.6032
2.3036	29.5991
2.2975	30.1619
2.2914	29.9984
2.2854	29.9245
2.2793	30.34
2.2733	30.2563
2.2674	29.0608
2.2614	29.4037
2.2555	29.6861
2.2497	29.5118
2.2438	30.2322
2.238	29.9246
2.2322	30.5036
2.2265	29.7393
2.2208	29.719
2.2151	29.0169
2.2094	28.8498
2.2038	29.0761
2.1982	29.8173
2.1926	30.2816
2.187	30.5279
2.1815	31.2091
2.176	31.593
2.1706	31.8222
2.1651	31.2657
2.1597	32.087
2.1543	32.5075
2.149	31.6222
2.1436	32.4069
2.1383	32.2649
2.1331	32.4578
2.1278	32.4947
2.1226	31.3791
2.1174	31.9818
2.1122	32.7786
2.1071	32.6853
2.1019	32.6661
2.0968	32.1962
2.0918	33.2698
2.0867	32.308
2.0817	32.5098
2.0767	33.1885
2.0717	32.6295
2.0667	33.0165
2.0618	32.9556
2.0569	31.7207
2.052	32.9153
2.0472	32.6969
2.0423	32.4726
2.0375	33.5089
2.0327	32.6658
2.028	32.7801
2.0232	32.0375
2.0185	32.4642
2.0138	33.4155
2.0091	32.922
2.0044	32.6382
1.9998	32.4595
