Name: Vesicular Basalt
Type: Rock
Class: Igneous
Subclass: Mafic
Particle Size: Solid
Sample No.: Ward33
Owner: JPL
Wavelength Range: VSWIR
Origin: Ward's Collection of American Rocks.  Sample locality - Tenderfoot Mountain, 1/4 mile north of Salida, Chaffee County, Colorado.
Description: A black, semi-glassy rock containing abundant vesicles linedwith a white crust of opaline material.  A few very small phenocrysts offeldspar and augite are visible.Geologic Age - Tertiary (probably Eocene).Collected by:  Ward's Natural Science Original ASTER Spectral Library name was jpl.perkin.rock.igneous.mafic.solid.ward33.spectrum.txt
Measurement: Hemispherical reflectance
X Units: Wavelength (micrometers)
Y Units: Reflectance (percent)
wavelength	value
2.5	8.2518
2.494	8.1284
2.488	8.0228
2.482	8.1562
2.476	7.9769
2.47	8.0358
2.464	8.0112
2.458	8.0986
2.452	8.1473
2.446	8.0844
2.44	8.0538
2.434	8.169
2.428	8.1727
2.422	8.0555
2.416	8.1552
2.41	8.1281
2.404	8.0281
2.398	8.0893
2.392	8.0313
2.386	8.0505
2.38	8.0656
2.374	8.0932
2.368	8.0889
2.362	8.1098
2.356	8.0458
2.35	8.0354
2.344	8.0082
2.338	8.0024
2.332	7.987
2.326	8.007
2.32	8.0754
2.314	8.0456
2.308	8.039
2.302	8.0796
2.296	8.1407
2.29	8.1478
2.284	8.1941
2.278	8.2317
2.272	8.1705
2.266	8.2498
2.26	8.2927
2.254	8.2673
2.248	8.3205
2.242	8.37
2.236	8.4441
2.23	8.3901
2.224	8.5843
2.218	8.4866
2.212	8.614
2.206	8.5136
2.2	8.6706
2.194	8.669
2.188	8.6936
2.182	8.7195
2.176	8.7317
2.17	8.758
2.164	8.7633
2.158	8.7829
2.152	8.8929
2.146	8.8751
2.14	8.9398
2.134	8.9122
2.128	8.8977
2.122	8.8982
2.116	8.798
2.11	8.7756
2.104	8.7632
2.098	8.7743
2.092	8.8101
2.086	8.8636
2.08	8.9097
2.074	8.8656
2.068	8.8658
2.062	8.9054
2.056	8.9151
2.05	8.8714
2.044	8.9136
2.038	8.9206
2.032	8.977
2.026	8.942
2.02	8.9642
2.014	8.9316
2.008	8.9555
2.002	8.9183
1.996	9.0325
1.99	8.9178
1.984	8.9091
1.978	8.8879
1.972	8.9399
1.966	8.9288
1.96	8.9298
1.954	8.8411
1.948	8.9464
1.942	9.0287
1.936	8.9393
1.93	8.9712
1.924	8.9381
1.918	8.9598
1.912	9.0123
1.906	9.0384
1.9	9.0476
1.894	9.145
1.888	9.2072
1.882	9.2007
1.876	9.272
1.87	9.321
1.864	9.3341
1.858	9.3831
1.852	9.3076
1.846	9.3904
1.84	9.4069
1.834	9.378
1.828	9.3641
1.822	9.394
1.816	9.4521
1.81	9.4971
1.804	9.4254
1.798	9.4754
1.792	9.5355
1.786	9.473
1.78	9.4905
1.774	9.4979
1.768	9.5178
1.762	9.5451
1.756	9.5198
1.75	9.5592
1.744	9.5642
1.738	9.5797
1.732	9.5078
1.726	9.6051
1.72	9.5934
1.714	9.5457
1.708	9.6075
1.702	9.6537
1.696	9.6734
1.69	9.6483
1.684	9.5677
1.678	9.6363
1.672	9.596
1.666	9.6489
1.66	9.6452
1.654	9.6106
1.648	9.669
1.642	9.7586
1.636	9.6465
1.63	9.7801
1.624	9.6997
1.618	9.6654
1.612	9.7113
1.606	9.7341
1.6	9.7479
1.594	9.7
1.588	9.6783
1.582	9.7607
1.576	9.7084
1.57	9.7324
1.564	9.8153
1.558	9.7428
1.552	9.7375
1.546	9.742
1.54	9.7763
1.534	9.745
1.528	9.7634
1.522	9.7694
1.516	9.7867
1.51	9.7666
1.504	9.7412
1.498	9.7279
1.492	9.7503
1.486	9.7561
1.48	9.7857
1.474	9.7364
1.468	9.7897
1.462	9.7733
1.456	9.7666
1.45	9.7662
1.444	9.7338
1.438	9.7718
1.432	9.7501
1.426	9.7582
1.42	9.7199
1.414	9.7677
1.408	9.8111
1.402	9.7599
1.396	9.7958
1.39	9.866
1.384	9.8102
1.378	9.896
1.372	10.0483
1.366	10.0952
1.36	10.0943
1.354	10.1107
1.348	10.1145
1.342	10.1057
1.336	10.1679
1.33	10.1084
1.324	10.0789
1.318	10.141
1.312	10.1419
1.306	10.1086
1.3	10.1233
1.294	10.1642
1.288	10.1385
1.282	10.188
1.276	10.2037
1.27	10.1703
1.264	10.2188
1.258	10.1511
1.252	10.1594
1.246	10.1949
1.24	10.2488
1.234	10.1993
1.228	10.1993
1.222	10.2001
1.216	10.253
1.21	10.2609
1.204	10.2274
1.198	10.2016
1.192	10.2314
1.186	10.2389
1.18	10.2418
1.174	10.1689
1.168	10.1974
1.162	10.2351
1.156	10.1434
1.15	10.1684
1.144	10.0832
1.138	10.0385
1.132	9.9854
1.126	9.9436
1.12	9.9241
1.114	9.8735
1.108	9.749
1.102	9.7512
1.096	9.6634
1.09	9.5791
1.084	9.5722
1.078	9.5255
1.072	9.4135
1.066	9.3636
1.06	9.3563
1.054	9.3125
1.048	9.3826
1.042	9.2618
1.036	9.3191
1.03	9.2859
1.024	9.2752
1.018	9.2922
1.012	9.3575
1.006	9.433
1	9.3877
0.994	9.4962
0.988	9.5091
0.982	9.5392
0.976	9.6895
0.97	9.648
0.964	9.6881
0.958	9.7538
0.952	9.832
0.946	9.8447
0.94	9.9364
0.934	9.9865
0.928	10.0551
0.922	10.0899
0.916	10.173
0.91	10.2108
0.904	10.2938
0.898	10.2274
0.892	10.3333
0.886	10.3567
0.88	10.3465
0.874	10.3354
0.868	10.3599
0.862	10.4016
0.856	10.646
0.85	10.6678
0.844	10.7093
0.838	10.7331
0.832	10.7696
0.826	10.8038
0.82	10.8097
0.814	10.8489
0.808	10.8701
0.802	10.8969
0.796	10.8913
0.79	10.8903
0.784	10.8952
0.778	10.8869
0.772	10.8794
0.766	10.846
0.76	10.8218
0.754	10.7913
0.748	10.7552
0.742	10.7024
0.736	10.6549
0.73	10.6034
0.724	10.5457
0.718	10.4872
0.712	10.4253
0.706	10.3663
0.7	10.3093
0.694	10.254
0.688	10.199
0.682	10.1519
0.676	10.1113
0.67	10.0732
0.664	10.0358
0.658	10.0039
0.652	9.9694
0.646	9.9431
0.64	9.917
0.634	9.8893
0.628	9.8638
0.622	9.8295
0.616	9.7951
0.61	9.7466
0.604	9.6775
0.598	9.5899
0.592	9.4657
0.586	9.2974
0.58	9.0907
0.574	8.8497
0.568	8.6167
0.562	8.3738
0.556	8.1696
0.55	7.9917
0.544	7.8605
0.538	7.7582
0.532	7.676
0.526	7.6134
0.52	7.5502
0.514	7.4878
0.508	7.43
0.502	7.3929
0.496	7.3468
0.49	7.3106
0.484	7.275
0.478	7.2156
0.472	7.1624
0.466	7.1286
0.46	7.0893
0.454	7.0524
0.448	7.0077
0.442	6.9636
0.436	6.907
0.43	6.845
0.424	6.7869
0.418	6.7395
0.412	6.6952
0.406	6.6626
0.4	6.6268
