Name: Arkose
Type: Rock
Class: Sedimentary
Subclass: Sandstone
Particle Size: Solid
Sample No.: Ward62
Owner: JPL
Wavelength Range: All
Origin: Ward's Collection of American Rocks.  Sample locality - Mount Tom, Hampshire County, Massachusetts.
Description: A reddish-brown feldspathic sandstone composed of sub-angularpebbles and grains of feldspar and glassy quartz cemented by a siliceous,ferruginous cement.Geologic age - Triassic.Collected by:  Ward's Natural Science Original ASTER Spectral Library name was jpl.nicolet.rock.sedimentary.sandstone.solid.ward62.spectrum.txt
Measurement: Hemispherical reflectance
X Units: Wavelength (micrometers)
Y Units: Reflectance (percent)
wavelength	value
15.3871	5.5197
15.118	4.7411
14.8581	3.203
14.6069	3.6496
14.3642	3.8124
14.1293	3.7946
13.9021	4.5664
13.682	4.3617
13.4687	4.9043
13.2621	4.9699
13.0616	5.8253
12.8672	6.2327
12.6784	5.5049
12.4951	6.0568
12.317	3.1105
12.1439	3.7789
11.9757	4.5829
11.812	5.0715
11.6527	5.221
11.4977	5.5065
11.3468	6.1108
11.1997	6.5444
11.0564	6.7479
10.9168	6.9734
10.7806	7.5484
10.6478	7.9655
10.5182	8.4057
10.3917	9.3508
10.2683	10.4367
10.1477	12.4278
10.0299	14.1799
9.9148	15.7341
9.8024	14.8484
9.6925	17.1516
9.585	18.5774
9.4798	17.6451
9.377	20.0186
9.2763	21.672
9.1778	21.1164
9.0814	19.8362
8.987	19.3674
8.8945	19.9944
8.8039	20.9501
8.7151	21.0918
8.6281	18.0733
8.5428	22.1854
8.4592	23.0379
8.3772	23.0473
8.2967	21.6856
8.2179	19.8309
8.1404	15.6584
8.0645	10.4118
7.9899	7.1235
7.9167	4.7942
7.8449	3.5569
7.7743	3.0105
7.705	2.6363
7.6369	2.1999
7.57	1.9019
7.5043	1.9967
7.4397	2.0143
7.3762	1.9537
7.3138	1.8889
7.2524	1.8697
7.1921	1.9004
7.1327	2.0549
7.0743	2.3712
7.0169	2.3606
6.9604	2.4366
6.9047	2.4251
6.85	2.5918
6.7962	2.7011
6.7431	2.8087
6.6909	3.0043
6.6395	2.9626
6.5889	3.0297
6.539	3.2287
6.49	3.1447
6.4416	3.0156
6.3939	2.6533
6.347	2.459
6.3007	2.2656
6.2551	2.4132
6.2101	2.1599
6.1658	2.1553
6.1222	2.4181
6.0791	2.3969
6.0366	2.6494
5.9948	2.4422
5.9535	2.6487
5.9127	2.7682
5.8726	2.8836
5.8329	3.1204
5.7938	3.2275
5.7552	3.3985
5.7172	3.5753
5.6796	3.5063
5.6425	3.4917
5.6059	3.5787
5.5698	3.3479
5.5341	3.7613
5.4989	4.0574
5.4641	4.3296
5.4298	4.4081
5.3959	4.5315
5.3624	4.5568
5.3294	4.5309
5.2967	4.6845
5.2644	4.8
5.2326	4.963
5.2011	5.3193
5.17	5.5164
5.1392	5.5975
5.1088	5.8079
5.0788	5.9798
5.0491	6.1378
5.0198	6.2059
4.9908	6.3892
4.9622	6.7664
4.9338	7.1254
4.9058	7.343
4.8781	8.0324
4.8508	8.5711
4.8237	9.1218
4.7969	9.1287
4.7704	9.1967
4.7443	9.7364
4.7184	9.8606
4.6927	9.751
4.6674	10.0308
4.6423	10.6534
4.6175	11.3531
4.593	11.9334
4.5687	12.3124
4.5447	12.4551
4.5209	12.4788
4.4974	12.1277
4.4741	12.4212
4.451	12.9424
4.4282	13.4684
4.4057	13.9386
4.3833	14.7276
4.3612	15.4198
4.3393	16.1727
4.3176	16.3171
4.2962	15.919
4.2749	16.1261
4.2539	17.1508
4.233	16.4386
4.2124	18.0054
4.192	19.0918
4.1717	19.3125
4.1517	19.7629
4.1319	19.9694
4.1122	20.2672
4.0927	20.4973
4.0734	20.6742
4.0543	20.6825
4.0354	20.2322
4.0166	20.1223
3.9981	19.5269
3.9796	19.1181
3.9614	19.5055
3.9433	20.3971
3.9254	20.8181
3.9077	20.951
3.8901	21.0332
3.8726	21.0809
3.8554	21.1717
3.8382	21.3144
3.8213	21.5847
3.8045	22.0686
3.7878	22.2888
3.7713	22.2998
3.7549	22.1896
3.7386	22.0561
3.7225	22.2011
3.7066	22.2447
3.6907	22.4432
3.675	22.4789
3.6595	22.3409
3.644	22.3287
3.6287	21.9903
3.6136	21.9501
3.5985	21.5405
3.5836	21.3967
3.5688	20.951
3.5541	20.7208
3.5396	20.3353
3.5251	19.7003
3.5108	19.0024
3.4966	18.5938
3.4825	18.4479
3.4685	18.2278
3.4547	18.2782
3.4409	18.0279
3.4273	17.5299
3.4137	16.8651
3.4003	16.781
3.387	16.4709
3.3738	16.1728
3.3606	15.9992
3.3476	15.8845
3.3347	15.8561
3.3219	15.485
3.3092	15.15
3.2965	15.0068
3.284	14.7003
3.2716	14.1615
3.2593	13.9237
3.247	13.6342
3.2348	13.1912
3.2228	13.0791
3.2108	12.9387
3.1989	12.3416
3.1871	12.1491
3.1754	11.8518
3.1638	11.3043
3.1523	11.4745
3.1408	10.2839
3.1294	10.6958
3.1181	10.3113
3.1069	9.949
3.0958	10.3508
3.0848	10.0065
3.0738	10.0187
3.0629	9.653
3.0521	10.0164
3.0413	9.4362
3.0307	9.6202
3.0201	9.6747
3.0096	9.2374
2.9991	9.3019
2.9887	9.4585
2.9784	9.0022
2.9682	8.8164
2.9581	9.0671
2.948	8.8265
2.9379	9.2254
2.928	8.8946
2.9181	8.9927
2.9083	9.4937
2.8985	8.9669
2.8888	9.493
2.8792	9.7661
2.8697	9.1284
2.8602	9.5518
2.8507	10.0548
2.8413	9.8612
2.832	10.1632
2.8228	10.282
2.8136	10.5816
2.8045	10.4233
2.7954	11.0266
2.7864	10.998
2.7774	10.9327
2.7685	10.6957
2.7597	10.4095
2.7509	11.6196
2.7422	12.7924
2.7335	13.2055
2.7249	14.1689
2.7163	16.8568
2.7078	18.7165
2.6994	21.0061
2.691	23.7468
2.6826	25.4412
2.6743	26.1638
2.666	26.2219
2.6578	27.7597
2.6497	27.4606
2.6416	28.299
2.6336	28.2192
2.6256	28.5466
2.6176	28.2308
2.6097	28.3669
2.6018	28.6755
2.594	27.961
2.5863	28.4374
2.5785	28.4583
2.5709	28.6561
2.5633	28.6095
2.5557	28.7471
2.5481	28.5711
2.5406	28.6245
2.5332	28.4646
2.5258	28.435
2.5184	28.858
2.5111	28.8526
2.5038	29.2543
2.4966	28.8927
2.4894	28.9774
2.4823	29.3817
2.4752	29.4516
2.4681	28.8379
2.4611	29.0178
2.4541	29.0953
2.4471	29.1447
2.4402	29.296
2.4333	29.0365
2.4265	29.8206
2.4197	29.6278
2.413	29.5124
2.4063	30.1664
2.3996	30.0702
2.3929	30.4703
2.3863	29.6409
2.3798	29.2156
2.3732	29.8264
2.3667	29.7868
2.3603	30.1955
2.3538	29.6942
2.3474	29.9869
2.3411	29.7904
2.3347	30.1254
2.3285	29.8683
2.3222	30.4128
2.316	30.5211
2.3098	29.7604
2.3036	30.9118
2.2975	29.8005
2.2914	30.7258
2.2854	30.8274
2.2793	30.0555
2.2733	30.4445
2.2674	31.037
2.2614	31.0416
2.2555	30.2764
2.2497	31.0602
2.2438	30.6991
2.238	30.0679
2.2322	30.3742
2.2265	31.0608
2.2208	29.6287
2.2151	30.4708
2.2094	29.57
2.2038	30.0943
2.1982	30.017
2.1926	29.8929
2.187	30.9539
2.1815	29.5018
2.176	30.8041
2.1706	30.8748
2.1651	30.6791
2.1597	30.8157
2.1543	30.5294
2.149	30.526
2.1436	30.339
2.1383	31.5613
2.1331	30.2559
2.1278	31.4066
2.1226	30.9985
2.1174	30.4444
2.1122	30.2536
2.1071	31.0698
2.1019	30.3532
2.0968	31.0936
2.0918	30.4251
2.0867	30.8224
2.0817	30.0664
2.0767	31.4636
2.0717	30.1378
2.0667	30.6649
2.0618	30.0805
2.0569	31.5363
2.052	30.625
2.0472	32.0171
2.0423	30.3071
2.0375	32.0001
2.0327	31.0215
2.028	31.1657
2.0232	29.7745
2.0185	30.5938
2.0138	29.6029
2.0091	29.8049
2.0044	29.4284
1.9998	29.4089
