Name: Argillaceous Shale
Type: rock
Class: Sedimentary
Subclass: Shale
Particle Size: Fine
Sample No.: shale_7
Owner: JHU
Wavelength Range: All
Origin: Sample No. 386,  The Hunt and Salisbury Collection at the U.S.Geological Survey, Denver, Co.
Description: Sample contains microcrystalline brownish clay, quartz, and some carbonate, with discontinuous and irregular bands of hematite(?). There are fine-grained angular to subangular quartz grains throughout the sample, with regions of more concentrated grains rimmed by the opaque phase.Particle size was 0 - 75 Micrometers. Original ASTER Spectral Library name was jhu.becknic.rock.sedimentary.shale.fine.shale7.spectrum.txt
Measurement: Directional (10 Degree) Hemispherical Reflectance
X Units: Wavelength (micrometers)
Y Units: Reflectance (percent)
wavelength	value
14.983	1.7742
14.645	2.4454
14.321	1.5985
14.011	2.618
13.715	3.0078
13.43	3.3697
13.158	3.3341
12.896	2.5147
12.644	2.106
12.402	1.8017
12.169	2.9952
11.945	3.605
11.729	4.4192
11.52	4.5459
11.319	3.8111
11.125	3.7182
10.937	2.8034
10.755	2.8179
10.58	2.8645
10.41	2.7338
10.245	2.424
10.086	2.2623
9.9313	2.2663
9.7814	2.3757
9.636	2.5479
9.4948	2.7326
9.3577	3.117
9.2245	3.1856
9.095	2.9971
8.9691	2.9486
8.8467	2.9858
8.7275	2.9401
8.6116	2.7153
8.4986	3.1918
8.3886	3.5624
8.2814	4.4621
8.1769	5.6395
8.075	5.5893
7.9756	5.506
7.8786	5.366
7.784	5.6462
7.6916	6.3341
7.6014	6.6327
7.5133	6.9716
7.4272	7.3998
7.343	7.1741
7.2607	6.2486
7.1803	4.7804
7.1016	4.0576
7.0246	3.4914
6.9493	2.9417
6.8755	2.748
6.8034	2.8676
6.7327	3.12
6.6634	3.6946
6.5956	4.7129
6.5292	6.1702
6.464	7.9044
6.4002	8.0408
6.3376	7.2968
6.2762	6.0471
6.216	4.4834
6.157	3.6515
6.099	3.9771
6.0421	4.8147
5.9863	6.2119
5.9315	6.9292
5.8777	8.9613
5.8249	11.078
5.773	12.83
5.722	14.328
5.6719	14.781
5.6227	13.628
5.5744	11.134
5.5268	13.307
5.4801	14.7
5.4341	16.342
5.3889	14.291
5.3445	12.611
5.3008	13.705
5.2578	16.345
5.2154	19.922
5.1738	21.094
5.1328	21.297
5.0925	21.371
5.0528	21.019
5.0137	21.275
4.9752	22.992
4.9373	25.552
4.9	28.376
4.8632	30.914
4.827	31.88
4.7913	32.42
4.7561	32.601
4.7215	32.647
4.6873	32.474
4.6536	33.069
4.6205	33.96
4.5877	34.413
4.5555	34.537
4.5237	34.488
4.4923	34.29
4.4614	34.489
4.4309	35.311
4.4008	36.298
4.3711	37.242
4.3418	37.941
4.3129	38.464
4.2844	38.82
4.2563	39.277
4.2285	39.871
4.2011	40.207
4.174	40.492
4.1473	40.7
4.1209	40.854
4.0949	40.887
4.0692	40.723
4.0438	39.873
4.0187	37.577
3.994	31.952
3.9695	28.503
3.9453	31.201
3.9214	33.105
3.8979	34.838
3.8746	35.32
3.8515	36.468
3.8288	37.26
3.8063	36.735
3.7841	37.975
3.7621	38.769
3.7404	39.055
3.7189	38.865
3.6977	38.49
3.6767	38.094
3.656	37.552
3.6355	36.981
3.6152	36.296
3.5951	35.509
3.5753	34.517
3.5557	33.428
3.5363	32.355
3.5171	30.308
3.4981	28.145
3.4793	26.735
3.4607	26.776
3.4423	26.08
3.4241	25.283
3.4061	24.626
3.3883	24.417
3.3707	24.065
3.3533	23.186
3.336	23.153
3.3189	22.55
3.302	21.857
3.2853	21.741
3.2687	21.105
3.2523	20.588
3.2361	20.007
3.22	19.317
3.204	18.448
3.1883	17.59
3.1727	16.697
3.1572	15.753
3.1419	14.797
3.1268	13.91
3.1117	13.017
3.0969	12.214
3.0821	11.477
3.0675	11.128
3.0531	10.785
3.0388	10.448
3.0246	10.082
3.0105	9.7412
2.9966	9.4262
2.9828	9.0637
2.9692	8.7631
2.9556	8.3004
2.9422	7.9063
2.9289	7.8109
2.9157	8.0032
2.9027	8.1917
2.8897	8.3506
2.8769	8.4285
2.8642	8.4119
2.8516	8.407
2.8391	8.2069
2.8267	7.8578
2.8144	7.4405
2.8022	6.951
2.7902	6.2479
2.7782	5.1157
2.7664	4.2658
2.7546	3.9683
2.7429	4.7932
2.7314	6.6981
2.7199	10.149
2.7085	16.486
2.6973	23.574
2.6861	31.761
2.675	35.252
2.664	36.987
2.6531	39.139
2.6423	40.206
2.6315	39.927
2.6209	40.257
2.6103	40.724
2.5999	40.817
2.5895	40.926
2.5792	41.375
2.569	41.575
2.5588	41.72
2.5487	41.947
2.5388	42.05
2.5289	42.106
2.519	42.164
2.5093	42.224
2.4996	42.311
2.49	42.38
2.4805	42.468
2.471	42.502
2.4616	42.629
2.4523	42.695
2.4431	42.791
2.4339	43.051
2.4248	43.33
2.4157	43.648
2.4068	43.888
2.3979	44.053
2.389	44.203
2.3802	44.277
2.3715	44.323
2.3629	44.294
2.3543	44.188
2.3458	44.147
2.3373	44.301
2.3289	44.608
2.3206	44.838
2.3123	45.035
2.3041	45.24
2.2959	45.361
2.2878	45.451
2.2798	45.505
2.2718	45.495
2.2638	45.24
2.2559	45.118
2.2481	44.953
2.2403	44.782
2.2326	44.508
2.225	44.195
2.2173	43.941
2.2098	43.825
2.2023	43.979
2.1948	44.358
2.1874	44.726
2.18	45.062
2.1727	45.362
2.1655	45.478
2.1583	45.613
2.1511	45.598
2.144	45.673
2.1369	45.588
2.1299	45.569
2.1229	45.561
2.116	45.549
2.1091	45.502
2.1023	45.49
2.0955	45.527
2.0887	45.498
2.082	45.508
2.06	45.117
2.028	44.364
1.996	42.825
1.964	41.556
1.932	39.945
1.9	39.444
1.868	42.057
1.836	42.693
1.804	42.857
1.772	42.525
1.74	42.194
1.708	41.929
1.676	41.599
1.644	40.986
1.612	40.609
1.58	40.589
1.548	40.054
1.516	39.22
1.484	38.526
1.452	38.029
1.42	36.811
1.388	36.8
1.356	36.483
1.324	36.411
1.292	35.319
1.26	35.481
1.228	34.496
1.196	33.789
1.164	32.817
1.132	32.697
1.1	32.228
1.068	31.638
1.036	30.934
1.004	30.217
0.972	29.533
0.94	28.926
0.908	28.332
0.876	27.896
0.844	27.464
0.812	27.236
0.795	26.887
0.787	26.546
0.779	26.296
0.771	26.084
0.763	25.984
0.755	25.598
0.747	25.44
0.739	25.301
0.731	25.019
0.723	24.66
0.715	24.533
0.707	24.395
0.699	24.311
0.691	24.165
0.683	24.127
0.675	23.726
0.667	23.466
0.659	23.224
0.651	23.263
0.643	22.721
0.635	22.519
0.627	22.476
0.619	22.168
0.611	21.971
0.603	21.575
0.595	21.485
0.587	21.325
0.579	21.156
0.571	20.912
0.563	20.405
0.555	20.191
0.547	19.635
0.539	19.536
0.531	19.502
0.523	19.174
0.515	18.665
0.507	18.373
0.499	18.119
0.491	17.767
0.483	17.67
0.475	17.306
0.467	16.85
0.459	16.423
0.451	16.203
0.443	15.937
0.435	15.589
0.427	15.238
0.419	14.931
0.411	14.472
0.403	14.056
