Name: Diorite
Type: rock
Class: Igneous
Subclass: Intermediate
Particle Size: Fine
Sample No.: Diorite_H1
Owner: JHU
Wavelength Range: All
Origin: Near Azusa, Los Angeles County, California, via Ward's Scientific(Cat. No. W-25)
Description: Powder derived from sample: a dark gray, medium-grained rock composed of plagioclase, a dark mafic phase and minor biotite.Particle size was 0-75 micrometers. Original ASTER Spectral Library name was jhu.becknic.rock.igneous.intermediate.fine.diorite1.spectrum.txt
Measurement: Directional (10 degree) hemispherical reflectance
X Units: Wavelength (micrometers)
Y Units: Reflectance (percent)
wavelength	value
14.011	1.0237
13.715	1.9912
13.43	1.5712
13.158	0.8081
12.896	2.1328
12.644	2.1075
12.402	2.8247
12.169	4.3945
11.945	4.2958
11.729	3.8252
11.52	3.7953
11.319	3.5686
11.125	3.2747
10.937	2.9824
10.755	2.9714
10.58	3.1818
10.41	3.2226
10.245	3.4446
10.086	3.3823
9.9313	3.4324
9.7814	3.239
9.636	3.0255
9.4948	2.7639
9.3577	2.3463
9.2245	1.9608
9.095	1.9748
8.9691	2.0911
8.8467	2.1607
8.7275	2.4431
8.6116	2.4434
8.4986	2.3262
8.3886	2.5322
8.2814	2.5359
8.1769	1.8759
8.075	1.621
7.9756	1.799
7.8786	2.2987
7.784	2.9639
7.6916	3.7361
7.6014	4.5572
7.5133	5.3486
7.4272	6.2386
7.343	7.0935
7.2607	8.1206
7.1803	9.0644
7.1016	9.9426
7.0246	10.761
6.9493	11.472
6.8755	12.2
6.8034	12.919
6.7327	13.468
6.6634	13.752
6.5956	13.862
6.5292	14.06
6.464	13.897
6.4002	13.514
6.3376	12.987
6.2762	12.891
6.216	12.597
6.157	12.34
6.099	12.6
6.0421	12.501
5.9863	13.232
5.9315	13.62
5.8777	14.078
5.8249	14.85
5.773	15.514
5.722	16.128
5.6719	16.681
5.6227	17.568
5.5744	18.427
5.5268	19.633
5.4801	20.496
5.4341	21.513
5.3889	22.243
5.3445	22.808
5.3008	23.828
5.2578	24.761
5.2154	25.61
5.1738	26.783
5.1328	27.729
5.0925	28.878
5.0528	30.043
5.0137	31.116
4.9752	32.182
4.9373	33.266
4.9	34.387
4.8632	35.508
4.827	36.659
4.7913	37.82
4.7561	39.088
4.7215	40.501
4.6873	41.865
4.6536	43.38
4.6205	44.975
4.5877	46.55
4.5555	48.005
4.5237	49.2
4.4923	50.12
4.4614	51.01
4.4309	52.094
4.4008	53.241
4.3711	54.241
4.3418	55.086
4.3129	55.781
4.2844	56.419
4.2563	57.042
4.2285	57.483
4.2011	58.075
4.174	58.544
4.1473	58.883
4.1209	59.247
4.0949	59.47
4.0692	59.824
4.0438	60.041
4.0187	60.262
3.994	60.506
3.9695	60.661
3.9453	60.958
3.9214	61.046
3.8979	61.203
3.8746	61.299
3.8515	61.285
3.8288	61.266
3.8063	61.258
3.7841	61.289
3.7621	61.078
3.7404	60.879
3.7189	60.685
3.6977	60.463
3.6767	60.198
3.656	59.875
3.6355	59.615
3.6152	59.284
3.5951	58.819
3.5753	58.299
3.5557	57.913
3.5363	57.369
3.5171	56.63
3.4981	55.776
3.4793	55.283
3.4607	54.725
3.4423	53.877
3.4241	52.811
3.4061	52.048
3.3883	51.513
3.3707	50.717
3.3533	50.24
3.336	49.556
3.3189	48.764
3.302	47.936
3.2853	47.098
3.2687	46.231
3.2523	45.114
3.2361	44.168
3.22	43.04
3.204	41.996
3.1883	40.853
3.1727	39.754
3.1572	38.718
3.1419	37.607
3.1268	36.469
3.1117	35.619
3.0969	34.748
3.0821	34.071
3.0675	33.366
3.0531	32.774
3.0388	32.253
3.0246	31.474
3.0105	30.597
2.9966	29.74
2.9828	28.976
2.9692	28.279
2.9556	27.773
2.9422	27.392
2.9289	27.218
2.9157	27.404
2.9027	27.41
2.8897	27.522
2.8769	27.077
2.8642	26.899
2.8516	27.359
2.8391	27.317
2.8267	26.713
2.8144	25.974
2.8022	25.633
2.7902	25.296
2.7782	21.721
2.7664	18.117
2.7546	16.845
2.7429	18.433
2.7314	20.314
2.7199	22.623
2.7085	26.234
2.6973	30.927
2.6861	43.756
2.675	57.745
2.664	59.474
2.6531	61.447
2.6423	62.514
2.6315	62.213
2.6209	61.75
2.6103	62.895
2.5999	63.378
2.5895	63.229
2.5792	63.497
2.569	62.903
2.5588	63.735
2.5487	63.682
2.5388	63.928
2.5289	63.89
2.519	63.924
2.5093	63.713
2.4996	63.692
2.49	63.705
2.4805	63.945
2.471	63.79
2.4616	63.994
2.4523	64.155
2.4431	64.191
2.4339	63.994
2.4248	63.548
2.4157	62.82
2.4068	61.719
2.3979	60.755
2.389	60.523
2.3802	61.238
2.3715	62.215
2.3629	62.378
2.3543	61.526
2.3458	60.346
2.3373	59.407
2.3289	59.027
2.3206	59.076
2.3123	59.83
2.3041	60.427
2.2959	61.455
2.2878	63.557
2.2798	65.607
2.2718	66.627
2.2638	66.387
2.2559	66.127
2.2481	66.162
2.2403	67.326
2.2326	67.842
2.225	68.254
2.2173	68.056
2.2098	68.02
2.2023	67.715
2.1948	67.848
2.1874	68.053
2.18	68.407
2.1727	68.594
2.1655	68.498
2.1583	68.36
2.1511	68.488
2.144	68.429
2.1369	68.486
2.1299	68.27
2.1229	68.083
2.116	68.365
2.1091	68.128
2.1023	68.346
2.0955	68.299
2.0887	68.456
2.082	68.468
2.06	67.802
2.028	67.13
1.996	65.417
1.964	63.704
1.932	62.305
1.9	61.313
1.868	61.599
1.836	60.863
1.804	60.968
1.772	59.58
1.74	59.133
1.708	58.363
1.676	57.297
1.644	55.747
1.612	54.789
1.58	53.554
1.548	52.004
1.516	51.116
1.484	48.857
1.452	47.523
1.42	45.899
1.388	42.201
1.356	41.8
1.324	40.583
1.292	38.749
1.26	36.464
1.228	34.414
1.196	33.07
1.164	31.787
1.132	30.05
1.1	29.103
1.068	28.276
1.036	27.177
1.004	26.607
0.972	25.521
0.94	24.44
0.908	23.556
0.876	23.068
0.844	22.564
0.812	22.434
0.795	22.43
0.787	22.114
0.779	21.738
0.771	21.544
0.763	21.219
0.755	20.892
0.747	20.479
0.739	20.44
0.731	19.907
0.723	19.795
0.715	19.459
0.707	19.417
0.699	19.268
0.691	19.232
0.683	19.271
0.675	18.965
0.667	19.054
0.659	18.866
0.651	19.141
0.643	19.114
0.635	19.325
0.627	19.469
0.619	19.441
0.611	19.38
0.603	19.135
0.595	19.27
0.587	19.304
0.579	19.515
0.571	19.968
0.563	20.037
0.555	19.617
0.547	19.384
0.539	19.301
0.531	19.098
0.523	19.082
0.515	18.889
0.507	18.376
0.499	18.208
0.491	17.852
0.483	17.517
0.475	17.065
0.467	16.63
0.459	16.745
0.451	16.366
0.443	15.875
0.435	15.746
0.427	15.257
0.419	14.573
0.411	14.304
0.403	14.056
