Name: Limestone CaCO3
Type: Rock
Class: Sedimentary
Subclass: Limestone
Particle Size: Solid
Sample No.: ro363
Owner: Larry Rowan, USGS
Wavelength Range: All
Origin: Ronda, Spain
Description: white limestoneSample was Whole rock chips. Original ASTER Spectral Library name was usgs.perknic.rock.sedimentary.limestone.solid.ls363.spectrum.txt
Measurement: Reflectance
X Units: Wavelength (micrometers)
Y Units: Reflectance (percent)
wavelength	value
0.4	0.579
0.408	0.582
0.416	0.579
0.424	0.587
0.432	0.592
0.44	0.597
0.448	0.593
0.456	0.598
0.464	0.6
0.472	0.593
0.48	0.596
0.488	0.595
0.496	0.604
0.504	0.602
0.512	0.597
0.52	0.604
0.528	0.604
0.536	0.606
0.544	0.6
0.552	0.602
0.56	0.607
0.568	0.607
0.576	0.608
0.584	0.606
0.592	0.608
0.6	0.606
0.608	0.601
0.616	0.601
0.624	0.597
0.632	0.604
0.64	0.603
0.648	0.608
0.656	0.604
0.664	0.607
0.672	0.603
0.68	0.609
0.688	0.606
0.696	0.608
0.704	0.608
0.712	0.608
0.72	0.608
0.728	0.609
0.736	0.609
0.744	0.608
0.752	0.609
0.76	0.611
0.768	0.611
0.776	0.609
0.784	0.608
0.792	0.614
0.8	0.608
0.832	0.612
0.864	0.614
0.896	0.615
0.928	0.617
0.96	0.617
0.992	0.619
1.024	0.621
1.056	0.628
1.088	0.632
1.12	0.629
1.152	0.63
1.184	0.636
1.216	0.632
1.248	0.631
1.28	0.635
1.312	0.63
1.344	0.628
1.376	0.609
1.408	0.573
1.44	0.56
1.472	0.564
1.504	0.585
1.536	0.596
1.568	0.602
1.6	0.608
1.632	0.602
1.664	0.604
1.696	0.595
1.728	0.579
1.76	0.58
1.792	0.58
1.824	0.552
1.856	0.491
1.888	0.463
1.92	0.427
1.952	0.421
1.984	0.418
2.016	0.482
2.048	0.508
2.08	0.515
2.1021	0.5259
2.109	0.513
2.1159	0.514
2.1228	0.502
2.1298	0.4959
2.1368	0.491
2.1438	0.4588
2.1509	0.4436
2.1581	0.4435
2.1653	0.4513
2.1726	0.4693
2.1799	0.4726
2.1872	0.481
2.1946	0.4806
2.2021	0.4715
2.2096	0.459
2.2172	0.447
2.2248	0.4314
2.2324	0.4129
2.2401	0.3931
2.2479	0.369
2.2557	0.3465
2.2636	0.3253
2.2715	0.303
2.2795	0.2756
2.2876	0.2543
2.2957	0.2435
2.3038	0.2344
2.3121	0.2319
2.3203	0.217
2.3287	0.1995
2.3371	0.1914
2.3455	0.1974
2.354	0.2262
2.3626	0.2731
2.3712	0.3147
2.38	0.3563
2.3887	0.3709
2.3976	0.3691
2.4065	0.363
2.4154	0.3582
2.4245	0.3349
2.4336	0.3123
2.4427	0.2872
2.452	0.2606
2.4613	0.2328
2.4707	0.2083
2.4801	0.1864
2.4896	0.1764
2.4992	0.1721
2.5089	0.1669
2.5187	0.1535
2.5285	0.1388
2.5384	0.1402
2.5484	0.1632
2.5584	0.2049
2.5686	0.2484
2.5788	0.2753
2.5891	0.3036
2.5995	0.329
2.6099	0.3454
2.6205	0.3501
2.6311	0.3522
2.6418	0.3501
2.6526	0.3405
2.6635	0.3271
2.6745	0.3107
2.6856	0.289
2.6968	0.25
2.708	0.2148
2.7194	0.185
2.7309	0.1652
2.7424	0.1502
2.7541	0.1389
2.7658	0.124
2.7777	0.1125
2.7896	0.1068
2.8017	0.1093
2.8138	0.1113
2.8261	0.1105
2.8385	0.1085
2.851	0.1066
2.8636	0.1047
2.8763	0.1024
2.8891	0.1018
2.902	0.0992
2.915	0.099
2.9282	0.0965
2.9415	0.096
2.9549	0.0968
2.9684	0.0964
2.9821	0.0966
2.9959	0.0974
3.0098	0.0977
3.0238	0.0959
3.038	0.0968
3.0523	0.0968
3.0667	0.0958
3.0813	0.0948
3.096	0.0922
3.1109	0.0909
3.1259	0.0938
3.141	0.0952
3.1563	0.0956
3.1718	0.1015
3.1874	0.105
3.2031	0.1047
3.219	0.1028
3.2351	0.1017
3.2513	0.0991
3.2677	0.0958
3.2843	0.0923
3.301	0.0851
3.3179	0.0771
3.3349	0.0613
3.3522	0.0501
3.3696	0.0533
3.3872	0.0533
3.405	0.0545
3.423	0.0546
3.4412	0.0539
3.4595	0.0508
3.4781	0.0471
3.4968	0.0502
3.5158	0.0565
3.535	0.0701
3.5544	0.0802
3.574	0.0852
3.5938	0.0996
3.6138	0.1087
3.6341	0.1124
3.6545	0.1157
3.6753	0.1178
3.6962	0.1156
3.7174	0.1124
3.7389	0.1046
3.7605	0.0971
3.7825	0.0838
3.8047	0.0627
3.8272	0.0543
3.8499	0.0506
3.8729	0.0496
3.8962	0.049
3.9197	0.0467
3.9436	0.0414
3.9677	0.0383
3.9921	0.0427
4.0169	0.0499
4.0419	0.0611
4.0673	0.0698
4.093	0.0774
4.119	0.0842
4.1453	0.0909
4.172	0.0955
4.199	0.0992
4.2264	0.1005
4.2541	0.0997
4.2822	0.0995
4.3107	0.0985
4.3395	0.0992
4.3688	0.1044
4.3984	0.103
4.4285	0.0981
4.4589	0.0902
4.4898	0.0826
4.5211	0.0797
4.5529	0.0784
4.5851	0.0774
4.6177	0.0705
4.6509	0.0598
4.6845	0.0596
4.7186	0.0726
4.7532	0.0849
4.7883	0.0886
4.8239	0.0876
4.8601	0.0865
4.8968	0.0853
4.9341	0.0836
4.9719	0.0836
5.0103	0.0825
5.0493	0.0816
5.089	0.0646
5.1292	0.0745
5.1702	0.0714
5.2117	0.0673
5.254	0.0628
5.2969	0.057
5.3405	0.0519
5.3849	0.0453
5.43	0.039
5.4759	0.0333
5.5225	0.0253
5.57	0.0212
5.6182	0.0273
5.6673	0.025
5.7173	0.0226
5.7682	0.0208
5.82	0.0204
5.8727	0.0185
5.9264	0.0166
5.9811	0.0143
6.0368	0.0129
6.0935	0.0127
6.1513	0.0138
6.2103	0.0201
6.2703	0.0387
6.3316	0.0846
6.394	0.212
6.4577	0.4257
6.5227	0.4426
6.589	0.416
6.6566	0.3829
6.7257	0.3416
6.7962	0.3095
6.8682	0.2871
6.9418	0.2667
7.0169	0.2621
7.0937	0.2349
7.1722	0.1663
7.2524	0.1306
7.3345	0.1156
7.4184	0.1067
7.5043	0.0991
7.5922	0.0939
7.6821	0.0943
7.7743	0.0914
7.8686	0.0898
7.9653	0.0878
8.0644	0.0858
8.166	0.084
8.2701	0.0818
8.377	0.0766
8.4867	0.0733
8.5992	0.0738
8.7149	0.0794
8.8336	0.0826
8.9556	0.0849
9.0811	0.0838
9.2101	0.0716
9.3428	0.079
9.4795	0.0805
9.6201	0.0767
9.765	0.0696
9.9144	0.0682
10.0684	0.0704
10.2272	0.0707
10.3911	0.0716
10.5604	0.0674
10.7353	0.0688
10.9161	0.0779
11.103	0.0818
11.2965	0.229
11.4968	0.0883
11.7044	0.0699
11.9196	0.0712
12.1429	0.0684
12.3747	0.065
12.6155	0.0612
12.8659	0.0581
13.1264	0.0602
13.3977	0.0589
13.6804	0.0456
13.9753	0.0441
