Name: Serpentine
Type: Rock
Class: Metamorphic
Subclass: Serpentinite
Particle Size: Solid
Sample No.: Ward99
Owner: JPL
Wavelength Range: VSWIR
Origin: Ward's Collection of American Rocks.  Sample locality - Cardiff, harford County, Maryland.  Collected by - JPL.
Description: A dark greenish gray serpentine rock with bright green areasmottled with dark gray.  Slicken-sides are common.  Magnesite isabundant.  Picrolite is sometimes present.  Magnetite, pyrite andpyrrhotite are often present.  Geologic age - Pre-CambrianCollected by:  Ward's Natural Science Original ASTER Spectral Library name was jpl.perkin.rock.metamorphic.serpentinite.solid.ward99.spectrum.txt
Measurement: Hemispherical reflectance
X Units: Wavelength (micrometers)
Y Units: Reflectance (percent)
wavelength	value
2.5	11.035
2.494	11.0458
2.488	11.2506
2.482	11.5426
2.476	11.895
2.47	11.7477
2.464	11.8634
2.458	11.7189
2.452	11.7481
2.446	11.8032
2.44	11.7452
2.434	11.9426
2.428	11.9368
2.422	12.068
2.416	12.2248
2.41	12.2954
2.404	12.2974
2.398	12.3583
2.392	12.2045
2.386	12.2129
2.38	12.3257
2.374	12.7675
2.368	13.0265
2.362	13.2494
2.356	13.1886
2.35	12.6523
2.344	11.7998
2.338	11.0314
2.332	10.4462
2.326	10.0864
2.32	10.184
2.314	10.5557
2.308	10.9959
2.302	11.4969
2.296	12.1299
2.29	12.6214
2.284	12.9997
2.278	13.5874
2.272	14.2046
2.266	14.7488
2.26	15.2804
2.254	15.7169
2.248	16.1027
2.242	16.5307
2.236	17.2236
2.23	18.0189
2.224	18.7994
2.218	19.4169
2.212	19.7567
2.206	20.04
2.2	20.2688
2.194	20.3713
2.188	20.4567
2.182	20.4238
2.176	20.463
2.17	20.4808
2.164	20.3445
2.158	20.2484
2.152	20.1035
2.146	19.9199
2.14	19.7514
2.134	19.4795
2.128	19.4556
2.122	19.5886
2.116	19.7143
2.11	19.637
2.104	19.5125
2.098	19.5419
2.092	19.8129
2.086	20.3098
2.08	20.8551
2.074	21.2072
2.068	21.4264
2.062	21.4729
2.056	21.3061
2.05	21.2122
2.044	20.995
2.038	20.6779
2.032	20.5122
2.026	20.3273
2.02	20.1407
2.014	19.945
2.008	19.7093
2.002	19.5865
1.996	19.315
1.99	19.0483
1.984	18.9774
1.978	18.9345
1.972	18.9068
1.966	18.9291
1.96	18.9788
1.954	19.1253
1.948	19.1214
1.942	19.1294
1.936	19.1299
1.93	19.1782
1.924	19.1639
1.918	19.1428
1.912	19.4254
1.906	19.7431
1.9	20.55
1.894	21.5223
1.888	22.2197
1.882	22.7825
1.876	23.0063
1.87	23.2989
1.864	23.655
1.858	23.6804
1.852	23.6625
1.846	23.7339
1.84	23.8024
1.834	23.9
1.828	23.9053
1.822	23.9247
1.816	23.8331
1.81	23.8789
1.804	23.8983
1.798	23.9921
1.792	23.9483
1.786	23.9083
1.78	23.8121
1.774	23.8179
1.768	23.757
1.762	23.7203
1.756	23.7221
1.75	23.7296
1.744	23.7557
1.738	23.7364
1.732	23.6507
1.726	23.5696
1.72	23.5916
1.714	23.5107
1.708	23.5402
1.702	23.5691
1.696	23.478
1.69	23.4489
1.684	23.4307
1.678	23.3156
1.672	23.2881
1.666	23.2292
1.66	23.2421
1.654	23.1576
1.648	23.0991
1.642	23.0818
1.636	22.8819
1.63	22.8545
1.624	22.7641
1.618	22.7119
1.612	22.6836
1.606	22.5521
1.6	22.5452
1.594	22.3766
1.588	22.3513
1.582	22.1944
1.576	22.0522
1.57	22.0161
1.564	21.9222
1.558	21.8419
1.552	21.7648
1.546	21.6571
1.54	21.5171
1.534	21.4426
1.528	21.3883
1.522	21.2123
1.516	21.0895
1.51	20.9485
1.504	20.9156
1.498	20.7444
1.492	20.632
1.486	20.5169
1.48	20.3931
1.474	20.2391
1.468	20.2062
1.462	20.0109
1.456	19.8374
1.45	19.719
1.444	19.5216
1.438	19.3542
1.432	19.1209
1.426	18.8951
1.42	18.6111
1.414	18.0261
1.408	17.0988
1.402	16.0362
1.396	15.2001
1.39	14.464
1.384	15.2139
1.378	18.3603
1.372	18.3906
1.366	18.1388
1.36	18.04
1.354	18.2187
1.348	18.338
1.342	18.2109
1.336	18.0602
1.33	17.9748
1.324	17.8031
1.318	17.7535
1.312	17.5791
1.306	17.43
1.3	17.2784
1.294	17.0971
1.288	16.9351
1.282	16.8054
1.276	16.7186
1.27	16.6341
1.264	16.5266
1.258	16.4345
1.252	16.3608
1.246	16.2213
1.24	16.0303
1.234	16.0108
1.228	15.8535
1.222	15.6972
1.216	15.6482
1.21	15.5256
1.204	15.4519
1.198	15.3199
1.192	15.2585
1.186	15.1835
1.18	15.051
1.174	14.9566
1.168	14.85
1.162	14.849
1.156	14.7353
1.15	14.753
1.144	14.6207
1.138	14.5577
1.132	14.5441
1.126	14.4294
1.12	14.4446
1.114	14.4457
1.108	14.4445
1.102	14.3773
1.096	14.4047
1.09	14.367
1.084	14.4787
1.078	14.3658
1.072	14.3599
1.066	14.4669
1.06	14.5036
1.054	14.4686
1.048	14.5566
1.042	14.5045
1.036	14.7096
1.03	14.6734
1.024	14.7024
1.018	14.6766
1.012	14.7182
1.006	14.7134
1	14.7401
0.994	14.7684
0.988	14.6845
0.982	14.72
0.976	14.6646
0.97	14.6346
0.964	14.5687
0.958	14.4834
0.952	14.4084
0.946	14.3444
0.94	14.353
0.934	14.2331
0.928	14.2668
0.922	14.205
0.916	14.1668
0.91	14.1629
0.904	14.0355
0.898	14.1243
0.892	14.0812
0.886	14.1086
0.88	14.1424
0.874	14.1618
0.868	14.209
0.862	14.2811
0.856	14.788
0.85	14.9318
0.844	15.0693
0.838	15.1981
0.832	15.2879
0.826	15.3638
0.82	15.3919
0.814	15.4244
0.808	15.4081
0.802	15.3375
0.796	15.245
0.79	15.1357
0.784	14.9722
0.778	14.8268
0.772	14.6798
0.766	14.5597
0.76	14.442
0.754	14.331
0.748	14.2688
0.742	14.2293
0.736	14.2068
0.73	14.2036
0.724	14.2209
0.718	14.2718
0.712	14.3216
0.706	14.4124
0.7	14.5011
0.694	14.6132
0.688	14.7418
0.682	14.8838
0.676	15.0388
0.67	15.2023
0.664	15.3781
0.658	15.5662
0.652	15.7751
0.646	15.9942
0.64	16.2153
0.634	16.455
0.628	16.7022
0.622	16.9414
0.616	17.1832
0.61	17.4267
0.604	17.6221
0.598	17.8536
0.592	18.0825
0.586	18.2799
0.58	18.4594
0.574	18.6274
0.568	18.7682
0.562	18.894
0.556	18.9416
0.55	18.9815
0.544	18.9912
0.538	18.9685
0.532	18.9483
0.526	18.9471
0.52	18.9384
0.514	18.8476
0.508	18.6369
0.502	18.2818
0.496	17.8318
0.49	17.5959
0.484	17.3276
0.478	17.111
0.472	16.8205
0.466	16.4906
0.46	16.2541
0.454	16.1486
0.448	16.0716
0.442	16.0448
0.436	15.9999
0.43	15.8592
0.424	15.7401
0.418	15.5731
0.412	15.4508
0.406	15.3688
0.4	15.331
