Name: Hornblende Granite
Type: Rock
Class: Igneous
Subclass: Felsic
Particle Size: Solid
Sample No.: Ward14
Owner: JPL
Wavelength Range: All
Origin: Ward's Collection of American Rocks.  Sample locality - Rockport, Essex County, Massachusetts.
Description: A gray, granular rock consisting of feldspar, quartz andhornblende.Geologic age - Carboniferous (probably Mississippian).Collected by:  Ward's Natural Science Original ASTER Spectral Library name was jpl.nicolet.rock.igneous.felsic.solid.ward14.spectrum.txt
Measurement: Hemispherical reflectance
X Units: Wavelength (micrometers)
Y Units: Reflectance (percent)
wavelength	value
15.3871	6.1104
15.118	5.1834
14.8581	3.876
14.6069	4.643
14.3642	4.6495
14.1293	4.8477
13.9021	5.8087
13.682	5.8673
13.4687	6.1399
13.2621	5.7704
13.0616	7.3249
12.8672	8.4173
12.6784	7.3348
12.4951	8.1913
12.317	3.3483
12.1439	3.9497
11.9757	4.5615
11.812	5.2656
11.6527	5.9253
11.4977	6.1815
11.3468	6.7278
11.1997	7.176
11.0564	7.7278
10.9168	8.2793
10.7806	8.8354
10.6478	9.6087
10.5182	10.5878
10.3917	11.9454
10.2683	14.2572
10.1477	17.1138
10.0299	19.6877
9.9148	23.1581
9.8024	22.7698
9.6925	24.2375
9.585	26.5043
9.4798	26.7593
9.377	29.0577
9.2763	32.6123
9.1778	33.5647
9.0814	30.7299
8.987	29.0146
8.8945	30.2344
8.8039	32.1829
8.7151	32.2701
8.6281	27.3384
8.5428	33.0847
8.4592	33.0125
8.3772	31.7821
8.2967	28.798
8.2179	25.436
8.1404	19.6607
8.0645	12.2344
7.9899	7.5631
7.9167	4.4337
7.8449	2.6265
7.7743	1.8982
7.705	1.3723
7.6369	0.9568
7.57	0.8619
7.5043	0.7118
7.4397	0.995
7.3762	0.8306
7.3138	0.8792
7.2524	0.9256
7.1921	1.0863
7.1327	1.1225
7.0743	1.2158
7.0169	1.2574
6.9604	1.4393
6.9047	1.5109
6.85	1.4615
6.7962	1.6839
6.7431	1.6344
6.6909	1.709
6.6395	1.9602
6.5889	1.8859
6.539	1.8409
6.49	1.968
6.4416	2.039
6.3939	2.0563
6.347	2.0563
6.3007	1.9891
6.2551	1.9797
6.2101	2.0069
6.1658	2.0337
6.1222	2.1148
6.0791	2.0935
6.0366	2.244
5.9948	2.2131
5.9535	2.2262
5.9127	2.3666
5.8726	2.2911
5.8329	2.3658
5.7938	2.5742
5.7552	2.4527
5.7172	2.5472
5.6796	2.6019
5.6425	2.6122
5.6059	2.5832
5.5698	2.6125
5.5341	2.6202
5.4989	2.7562
5.4641	2.9614
5.4298	3.0267
5.3959	2.9248
5.3624	3.0374
5.3294	3.0799
5.2967	3.0886
5.2644	3.1501
5.2326	3.2739
5.2011	3.3171
5.17	3.4835
5.1392	3.58
5.1088	3.7037
5.0788	3.843
5.0491	3.8382
5.0198	4.004
4.9908	4.0787
4.9622	4.3204
4.9338	4.3111
4.9058	4.3435
4.8781	4.6445
4.8508	4.9113
4.8237	5.0178
4.7969	5.0833
4.7704	5.1795
4.7443	5.4982
4.7184	5.4817
4.6927	5.391
4.6674	5.4215
4.6423	5.8109
4.6175	6.1049
4.593	6.4305
4.5687	6.6627
4.5447	6.8122
4.5209	6.883
4.4974	6.884
4.4741	7.1393
4.451	7.5721
4.4282	7.7576
4.4057	8.1128
4.3833	8.5913
4.3612	9.177
4.3393	9.8912
4.3176	10.328
4.2962	10.5997
4.2749	11.1161
4.2539	11.9565
4.233	12.163
4.2124	12.582
4.192	12.9758
4.1717	13.6113
4.1517	13.8674
4.1319	14.1661
4.1122	14.5223
4.0927	15.2289
4.0734	15.4334
4.0543	15.6588
4.0354	15.7518
4.0166	15.6707
3.9981	15.5816
3.9796	15.782
3.9614	16.0906
3.9433	16.7297
3.9254	17.0539
3.9077	17.2477
3.8901	17.1425
3.8726	17.2093
3.8554	17.1566
3.8382	17.5579
3.8213	17.7944
3.8045	18.2485
3.7878	18.4641
3.7713	18.3432
3.7549	18.2676
3.7386	18.3368
3.7225	18.5611
3.7066	18.8154
3.6907	19.3914
3.675	20.122
3.6595	20.1221
3.644	20.5471
3.6287	20.5178
3.6136	20.3662
3.5985	20.3417
3.5836	20.5409
3.5688	20.2124
3.5541	20.2927
3.5396	20.4944
3.5251	19.928
3.5108	19.3771
3.4966	19.2994
3.4825	18.6639
3.4685	18.6779
3.4547	18.4465
3.4409	18.1148
3.4273	16.7491
3.4137	16.6317
3.4003	16.4144
3.387	16.2029
3.3738	15.7994
3.3606	15.5004
3.3476	15.1727
3.3347	14.7959
3.3219	14.4746
3.3092	14.3277
3.2965	13.5781
3.284	13.496
3.2716	13.0019
3.2593	12.534
3.247	12.4066
3.2348	11.8306
3.2228	11.5736
3.2108	11.2416
3.1989	10.9157
3.1871	10.6654
3.1754	10.1433
3.1638	10.2365
3.1523	9.6624
3.1408	9.473
3.1294	9.3491
3.1181	9.1558
3.1069	9.1182
3.0958	8.5604
3.0848	8.3177
3.0738	8.6565
3.0629	8.4733
3.0521	8.3242
3.0413	8.3872
3.0307	8.2581
3.0201	7.781
3.0096	8.3366
2.9991	8.4016
2.9887	8.321
2.9784	8.3778
2.9682	7.9124
2.9581	8.2305
2.948	7.471
2.9379	8.1846
2.928	8.1678
2.9181	8.2616
2.9083	7.9824
2.8985	8.576
2.8888	8.7123
2.8792	8.6524
2.8697	8.6418
2.8602	8.7103
2.8507	8.8667
2.8413	9.446
2.832	9.9107
2.8228	9.3282
2.8136	8.7834
2.8045	10.3774
2.7954	10.47
2.7864	11.4633
2.7774	10.9577
2.7685	11.5851
2.7597	11.9425
2.7509	12.9522
2.7422	14.395
2.7335	15.1431
2.7249	18.1292
2.7163	20.8464
2.7078	23.4611
2.6994	25.7325
2.691	28.2261
2.6826	29.6419
2.6743	30.9726
2.666	32.6346
2.6578	33.3638
2.6497	33.0521
2.6416	34.0827
2.6336	34.8464
2.6256	34.5037
2.6176	35.6365
2.6097	35.2253
2.6018	36.1936
2.594	36.1712
2.5863	35.9744
2.5785	35.9733
2.5709	36.2669
2.5633	36.6003
2.5557	36.2407
2.5481	36.1998
2.5406	36.0881
2.5332	36.2973
2.5258	36.1261
2.5184	36.5416
2.5111	36.3485
2.5038	37.0214
2.4966	37.522
2.4894	37.8587
2.4823	37.4459
2.4752	37.3717
2.4681	37.5621
2.4611	37.8393
2.4541	38.0014
2.4471	39.0045
2.4402	38.335
2.4333	39.3161
2.4265	38.7385
2.4197	38.99
2.413	38.8301
2.4063	38.5999
2.3996	39.6409
2.3929	39.2811
2.3863	40.4119
2.3798	40.3498
2.3732	39.922
2.3667	40.1556
2.3603	39.7804
2.3538	39.7124
2.3474	40.6275
2.3411	40.7866
2.3347	40.1973
2.3285	40.5174
2.3222	40.1897
2.316	41.2445
2.3098	41.9435
2.3036	41.3026
2.2975	40.815
2.2914	41.5013
2.2854	41.4303
2.2793	42.5164
2.2733	41.949
2.2674	41.7673
2.2614	41.0406
2.2555	42.1321
2.2497	41.9308
2.2438	42.6328
2.238	41.9284
2.2322	42.6569
2.2265	42.3795
2.2208	42.3752
2.2151	42.371
2.2094	42.8256
2.2038	42.3857
2.1982	42.8035
2.1926	42.2685
2.187	42.7359
2.1815	41.2799
2.176	43.3647
2.1706	41.8271
2.1651	42.5389
2.1597	42.6954
2.1543	42.556
2.149	41.8743
2.1436	43.0835
2.1383	41.0521
2.1331	42.6816
2.1278	42.4581
2.1226	41.8059
2.1174	42.0068
2.1122	41.6725
2.1071	41.1529
2.1019	41.4866
2.0968	41.6297
2.0918	41.6628
2.0867	41.494
2.0817	42.112
2.0767	39.8542
2.0717	42.6163
2.0667	41.6266
2.0618	42.2984
2.0569	40.5879
2.052	40.6943
2.0472	39.8348
2.0423	42.0036
2.0375	42.2676
2.0327	40.2555
2.028	41.3461
2.0232	41.0902
2.0185	40.1165
2.0138	41.5155
2.0091	40.6431
2.0044	38.9516
1.9998	41.9126
