Name: Oolitic Limestone
Type: Rock
Class: Sedimentary
Subclass: Limestone
Particle Size: Solid
Sample No.: Ward72
Owner: JPL
Wavelength Range: VSWIR
Origin: Ward's Collection of American Rocks.  Sample locality - Bedford, Lawrence County, Indiana.
Description: A grayish rock showing oolitic texture.  Micro fossils arequite common.Geologic age - Mississippian.Collected by:  Ward's Natural Science Original ASTER Spectral Library name was jpl.perkin.rock.sedimentary.limestone.solid.ward72.spectrum.txt
Measurement: Hemispherical reflectance
X Units: Wavelength (micrometers)
Y Units: Reflectance (percent)
wavelength	value
2.5	38.6702
2.494	39.2483
2.488	39.9672
2.482	41.141
2.476	42.7528
2.47	44.6775
2.464	46.7935
2.458	49.0915
2.452	50.8312
2.446	52.4556
2.44	53.8999
2.434	55.2443
2.428	56.4217
2.422	57.4994
2.416	58.4879
2.41	59.1718
2.404	59.6187
2.398	59.9017
2.392	60.1157
2.386	60.1685
2.38	59.7615
2.374	58.7948
2.368	57.0638
2.362	54.3862
2.356	51.1364
2.35	47.8862
2.344	45.4568
2.338	44.3932
2.332	44.6818
2.326	45.8799
2.32	47.2294
2.314	48.6246
2.308	49.6303
2.302	50.4688
2.296	51.27
2.29	52.2231
2.284	53.4832
2.278	55.133
2.272	56.9009
2.266	58.4071
2.26	59.7095
2.254	60.9982
2.248	62.0964
2.242	63.0712
2.236	63.9377
2.23	64.7869
2.224	65.4058
2.218	65.9159
2.212	66.4739
2.206	66.8295
2.2	67.3107
2.194	67.4346
2.188	67.6391
2.182	67.5799
2.176	67.4496
2.17	67.2264
2.164	66.8792
2.158	66.7858
2.152	66.9423
2.146	67.1544
2.14	67.6566
2.134	68.1518
2.128	68.2743
2.122	68.2153
2.116	68.0996
2.11	67.9561
2.104	67.8124
2.098	67.7637
2.092	67.791
2.086	67.8117
2.08	67.7594
2.074	67.7
2.068	67.6208
2.062	67.5328
2.056	67.3877
2.05	67.2182
2.044	67.0294
2.038	66.7938
2.032	66.4672
2.026	66.0905
2.02	65.6464
2.014	65.0621
2.008	64.3516
2.002	63.447
1.996	62.7196
1.99	62.7733
1.984	62.8112
1.978	62.5782
1.972	62.3411
1.966	62.0072
1.96	61.835
1.954	61.6709
1.948	61.6006
1.942	61.4942
1.936	61.4637
1.93	61.4394
1.924	61.6065
1.918	62.0625
1.912	62.6233
1.906	63.4612
1.9	64.5455
1.894	65.7314
1.888	66.8577
1.882	67.2513
1.876	67.3354
1.87	68.2975
1.864	69.4731
1.858	70.1595
1.852	70.5173
1.846	70.7572
1.84	70.9638
1.834	71.3004
1.828	71.3859
1.822	71.5982
1.816	71.6451
1.81	71.7012
1.804	71.7836
1.798	71.8854
1.792	71.8117
1.786	71.6674
1.78	71.7571
1.774	71.6494
1.768	71.5131
1.762	71.3803
1.756	71.4173
1.75	71.4715
1.744	71.5066
1.738	71.5658
1.732	71.5792
1.726	71.5436
1.72	71.5945
1.714	71.6898
1.708	71.7518
1.702	71.7542
1.696	71.668
1.69	71.7671
1.684	71.7513
1.678	71.7117
1.672	71.765
1.666	71.7798
1.66	71.6641
1.654	71.6779
1.648	71.6459
1.642	71.5419
1.636	71.5469
1.63	71.493
1.624	71.496
1.618	71.5737
1.612	71.388
1.606	71.3716
1.6	71.3392
1.594	71.2924
1.588	71.2076
1.582	71.0591
1.576	70.9196
1.57	70.8426
1.564	70.6521
1.558	70.6919
1.552	70.5349
1.546	70.4306
1.54	70.2846
1.534	70.1831
1.528	70.0395
1.522	69.9556
1.516	69.7406
1.51	69.6071
1.504	69.4473
1.498	69.2121
1.492	69.034
1.486	68.8006
1.48	68.632
1.474	68.4871
1.468	68.3306
1.462	68.21
1.456	68.0727
1.45	68.0899
1.444	68.0285
1.438	67.9948
1.432	67.9785
1.426	67.9926
1.42	68.1203
1.414	68.1283
1.408	68.3407
1.402	68.6347
1.396	68.8644
1.39	69.1274
1.384	69.312
1.378	69.1636
1.372	69.2762
1.366	69.1648
1.36	69.1279
1.354	69.05
1.348	69.0473
1.342	68.7979
1.336	68.7403
1.33	68.8199
1.324	68.7076
1.318	68.4729
1.312	68.4535
1.306	68.3348
1.3	68.2754
1.294	68.0644
1.288	67.9653
1.282	67.8848
1.276	67.7288
1.27	67.6744
1.264	67.4612
1.258	67.373
1.252	67.1847
1.246	66.9741
1.24	66.8796
1.234	66.7272
1.228	66.5372
1.222	66.3447
1.216	66.2336
1.21	66.0704
1.204	65.9119
1.198	65.7504
1.192	65.5841
1.186	65.3729
1.18	65.1677
1.174	65.0696
1.168	64.8353
1.162	64.6551
1.156	64.4161
1.15	64.3536
1.144	64.0974
1.138	63.8927
1.132	63.7033
1.126	63.4955
1.12	63.347
1.114	63.137
1.108	62.9247
1.102	62.7897
1.096	62.5501
1.09	62.2698
1.084	62.1508
1.078	61.9133
1.072	61.6737
1.066	61.4665
1.06	61.3189
1.054	60.9798
1.048	60.8706
1.042	60.6632
1.036	60.5504
1.03	60.3101
1.024	60.0477
1.018	59.8456
1.012	59.6686
1.006	59.4036
1	59.2406
0.994	59.0312
0.988	58.8296
0.982	58.5934
0.976	58.4306
0.97	58.2708
0.964	58.0346
0.958	57.7979
0.952	57.6353
0.946	57.3683
0.94	57.1761
0.934	56.8906
0.928	56.7505
0.922	56.4589
0.916	56.2326
0.91	55.9957
0.904	55.8241
0.898	55.5563
0.892	55.3666
0.886	55.0612
0.88	54.9126
0.874	54.6106
0.868	54.42
0.862	54.1427
0.856	53.9701
0.85	53.7659
0.844	53.6345
0.838	53.3812
0.832	53.1566
0.826	52.9082
0.82	52.6488
0.814	52.3945
0.808	52.1408
0.802	51.8936
0.796	51.577
0.79	51.3273
0.784	51.0298
0.778	50.7108
0.772	50.4105
0.766	50.1035
0.76	49.7896
0.754	49.4876
0.748	49.1679
0.742	48.8413
0.736	48.5188
0.73	48.176
0.724	47.8338
0.718	47.458
0.712	47.123
0.706	46.7499
0.7	46.3922
0.694	46.0386
0.688	45.675
0.682	45.3227
0.676	44.944
0.67	44.5706
0.664	44.1946
0.658	43.8303
0.652	43.4481
0.646	43.0673
0.64	42.6916
0.634	42.3009
0.628	41.9225
0.622	41.5173
0.616	41.1466
0.61	40.7575
0.604	40.3547
0.598	39.9755
0.592	39.5899
0.586	39.1893
0.58	38.7752
0.574	38.3544
0.568	37.9346
0.562	37.5113
0.556	37.0434
0.55	36.5942
0.544	36.1496
0.538	35.6882
0.532	35.2225
0.526	34.7962
0.52	34.32
0.514	33.8524
0.508	33.3655
0.502	32.859
0.496	32.4053
0.49	31.8861
0.484	31.3659
0.478	31.019
0.472	30.6378
0.466	30.2515
0.46	29.8668
0.454	29.4339
0.448	28.9872
0.442	28.4572
0.436	27.9072
0.43	27.325
0.424	26.7575
0.418	26.2089
0.412	25.6827
0.406	25.1645
0.4	24.655
