Name: Basalt
Type: Rock
Class: Igneous
Subclass: Mafic
Particle Size: Solid
Sample No.: me15a
Owner: Lawrence Rowan, USGS Reston
Wavelength Range: All
Origin: North Irbrd, Jordan
Description: Basalt, fresh surfaceSample was Whole rock chips. Original ASTER Spectral Library name was usgs.perknic.rock.igneous.mafic.solid.me15a.spectrum.txt
Measurement: Directional Hemispherical Reflectance
X Units: Wavelength (micrometers)
Y Units: Reflectance (percent)
wavelength	value
14.051	2.884
13.826	2.8428
13.609	2.8428
13.398	3.09
13.193	2.9973
12.995	3.2548
12.802	3.2239
12.616	3.3784
12.434	3.6462
12.258	4.0994
12.086	4.532
11.92	4.8719
11.757	5.3251
11.6	5.9122
11.446	6.8701
11.297	8.0546
11.151	7.6426
11.009	7.8486
10.87	8.2812
10.735	8.2503
10.604	8.1061
10.475	8.1679
10.35	8.343
10.227	8.1473
10.108	8.1782
9.991	8.5078
9.877	8.5902
9.765	8.652
9.656	8.7035
9.549	8.7241
9.445	8.6005
9.343	8.1576
9.243	7.5602
9.145	7.2306
9.049	7.3748
8.956	7.21
8.864	6.8289
8.774	6.2521
8.686	5.8813
8.599	5.5208
8.515	5.047
8.431	4.6762
8.35	4.3466
8.27	3.502
8.192	2.5029
8.115	1.9261
8.039	1.8231
7.965	1.7201
7.893	1.7098
7.821	1.7613
7.751	1.854
7.682	1.8746
7.614	1.957
7.548	1.957
7.483	2.06
7.418	2.1939
7.355	2.4102
7.293	2.4514
7.232	2.5441
7.172	2.7089
7.113	3.0282
7.055	3.2857
6.998	3.3475
6.942	3.4196
6.886	3.502
6.832	3.605
6.778	3.6668
6.726	3.8831
6.674	4.0067
6.623	4.0685
6.572	4.2951
6.523	4.3363
6.474	4.2127
6.426	3.605
6.378	3.1003
6.332	2.6883
6.286	2.5956
6.24	2.4617
6.195	2.3484
6.151	2.3175
6.108	2.3381
6.065	2.3072
6.023	2.3175
5.981	2.4102
5.94	2.5338
5.899	2.6162
5.859	2.7501
5.82	2.7913
5.781	2.9355
5.743	2.9458
5.705	2.987
5.667	3.0591
5.63	3.1209
5.594	3.193
5.558	3.1621
5.523	3.3578
5.487	3.3475
5.453	3.4402
5.419	3.502
5.385	3.5947
5.352	3.6565
5.319	3.708
5.286	3.7801
5.254	3.7904
5.222	3.9346
5.191	3.9449
5.16	3.9964
5.129	4.1097
5.099	4.0891
5.069	4.1303
5.04	4.2333
5.01	4.2539
4.981	4.3775
4.953	4.5011
4.925	4.4702
4.897	4.5114
4.869	4.6041
4.842	4.7483
4.815	4.8204
4.788	4.8513
4.762	4.9234
4.736	4.9543
4.71	5.0573
4.684	5.0985
4.659	5.1809
4.634	5.2427
4.61	5.3869
4.585	5.5311
4.561	5.5517
4.537	5.6238
4.513	5.6753
4.49	5.8401
4.467	5.9843
4.444	5.9637
4.421	6.0049
4.398	6.0976
4.376	6.1388
4.354	6.2624
4.332	6.3551
4.311	6.3448
4.289	6.5405
4.268	6.5405
4.247	6.5611
4.226	6.7053
4.206	6.5817
4.185	6.6229
4.165	6.592
4.145	6.7156
4.126	6.5405
4.106	6.695
4.086	6.6435
4.067	6.6229
4.048	6.5508
4.029	6.5714
4.011	6.3551
3.992	6.3242
3.974	6.2521
3.956	6.2933
3.938	6.3654
3.92	6.4684
3.902	6.4684
3.884	6.3551
3.867	6.4272
3.85	6.4684
3.833	6.489
3.816	6.5714
3.799	6.6435
3.782	6.8186
3.766	6.8495
3.75	6.8907
3.733	6.6847
3.717	6.7568
3.702	6.7053
3.686	6.6538
3.67	6.7156
3.655	6.6126
3.639	6.592
3.624	6.5508
3.609	6.592
3.594	6.4478
3.579	6.3963
3.564	6.2315
3.549	6.2624
3.535	6.18
3.521	6.0049
3.506	5.5723
3.492	5.6753
3.478	5.6238
3.464	5.6341
3.45	5.6238
3.437	5.5929
3.423	5.356
3.409	5.3766
3.396	5.3766
3.383	5.3457
3.37	5.2221
3.357	5.2839
3.344	5.2633
3.331	5.4384
3.318	5.3663
3.305	5.2015
3.293	5.253
3.28	5.3045
3.268	5.2221
3.255	5.1397
3.243	5.1706
3.231	5.0367
3.219	5.1603
3.207	4.8513
3.195	4.7586
3.183	4.9646
3.172	4.7277
3.16	4.7071
3.149	4.7174
3.137	4.5526
3.126	4.5835
3.115	4.4187
3.103	4.5114
3.092	4.5011
3.081	4.3466
3.07	4.429
3.06	4.3981
3.049	4.4393
3.038	4.326
3.027	4.5835
3.017	4.5217
3.006	4.2539
2.996	4.326
2.986	4.3878
2.975	4.4393
2.965	4.0788
2.955	4.2745
2.945	4.3569
2.935	4.223
2.925	4.3878
2.915	4.3878
2.905	4.2848
2.896	4.3054
2.886	4.3569
2.876	4.3569
2.867	4.4805
2.857	4.5011
2.848	4.4496
2.838	4.4599
2.829	4.2848
2.82	4.3878
2.811	4.3466
2.802	4.3672
2.793	4.2745
2.784	4.3878
2.775	4.3363
2.766	4.8101
2.757	4.6659
2.748	4.8822
2.74	4.7071
2.731	4.944
2.722	5.6547
2.714	5.6547
2.705	5.5311
2.697	6.4169
2.688	7.0761
2.68	7.9001
2.672	7.7456
2.664	8.0649
2.655	8.2606
2.647	8.1473
2.639	8.0855
2.631	8.3739
2.623	8.2194
2.615	8.5387
2.607	8.4769
2.599	8.6726
2.592	8.4048
2.584	8.3327
2.576	8.652
2.569	8.6417
2.561	8.0855
2.553	8.4151
2.546	8.446
2.538	8.3121
2.531	8.3636
2.524	8.3327
2.516	8.3842
2.509	8.4254
2.502	8.24
2.48	7.961
2.456	8.2015
2.432	8.5862
2.408	8.2408
2.384	8.6316
2.36	9.0279
2.336	8.6165
2.312	9.0035
2.288	8.8211
2.264	8.9256
2.24	9.2434
2.216	9.2795
2.192	9.3961
2.168	9.6341
2.144	9.6755
2.12	9.5985
2.096	9.5179
2.072	9.6483
2.048	9.7122
2.024	9.7652
2	9.7557
1.976	9.7446
1.952	9.7564
1.928	9.6648
1.904	9.3072
1.88	9.8591
1.856	9.9743
1.832	10.0381
1.808	10.1062
1.784	10.2666
1.76	10.2318
1.736	10.2737
1.712	10.2459
1.688	10.3576
1.664	10.3351
1.64	10.3367
1.616	10.3453
1.592	10.3179
1.568	10.2987
1.544	10.2122
1.52	10.1818
1.496	10.0605
1.472	9.9506
1.448	9.9137
1.424	9.7411
1.4	9.6011
1.376	9.5614
1.352	9.3864
1.328	9.4946
1.304	9.4363
1.28	9.4038
1.256	9.2259
1.232	9.2794
1.208	9.1795
1.184	9.0765
1.16	9.1077
1.136	8.9873
1.112	8.8884
1.088	8.7923
1.064	8.6713
1.04	8.7186
1.016	8.7077
0.992	8.7454
0.968	8.8175
0.944	8.9486
0.92	9.4069
0.896	9.5953
0.872	9.7582
0.848	10.3436
0.824	10.4375
0.8	10.4157
0.776	10.4325
0.752	10.462
0.728	10.4435
0.704	10.3494
0.68	10.267
0.656	10.1796
0.632	10.1083
0.608	10.0574
0.584	9.9826
0.56	9.8444
0.536	9.7121
0.512	9.671
0.488	9.5725
0.464	9.6091
0.44	9.6157
0.416	9.5949
