Name: Scoria
Type: Rock
Class: Igneous
Subclass: Basic
Particle Size: Solid
Sample No.: Ward02
Owner: JPL
Wavelength Range: All
Origin: Ward's Collection of American Rocks.  Sample locality - Klamath Falls, Klamath County, Oregon.
Description: A cellular lava rock that varies in color from reddish brownto brownish black.  Tiny glassy crystals of feldspar can sometimes bediscerned with the aid of a hand lens.Geologic age - Pleistocene.Collected by:  Ward's Natural Science Original ASTER Spectral Library name was jpl.nicolet.rock.igneous.mafic.solid.ward02.spectrum.txt
Measurement: Hemispherical reflectance
X Units: Wavelength (micrometers)
Y Units: Reflectance (percent)
wavelength	value
15.3871	2.3407
15.118	1.4913
14.8581	1.5763
14.6069	1.927
14.3642	2.1979
14.1293	2.1827
13.9021	2.3986
13.682	2.2791
13.4687	2.1352
13.2621	2.4805
13.0616	2.3807
12.8672	2.5668
12.6784	2.8342
12.4951	2.952
12.317	3.2719
12.1439	3.8058
11.9757	3.9748
11.812	4.3502
11.6527	4.5518
11.4977	4.9493
11.3468	5.0066
11.1997	5.3661
11.0564	5.5611
10.9168	6.0003
10.7806	6.3727
10.6478	6.7307
10.5182	7.0512
10.3917	7.0931
10.2683	7.2197
10.1477	7.2384
10.0299	7.7089
9.9148	8.0442
9.8024	8.1177
9.6925	8.0505
9.585	7.8887
9.4798	7.5191
9.377	7.1302
9.2763	6.8194
9.1778	6.8189
9.0814	6.8844
8.987	6.6014
8.8945	6.6113
8.8039	6.2212
8.7151	6.1939
8.6281	5.8982
8.5428	5.6442
8.4592	5.6078
8.3772	5.0613
8.2967	4.369
8.2179	3.4617
8.1404	2.6164
8.0645	2.3389
7.9899	1.9902
7.9167	1.9972
7.8449	1.9037
7.7743	2.0924
7.705	1.951
7.6369	2.1189
7.57	2.0034
7.5043	2.1031
7.4397	2.2064
7.3762	2.2174
7.3138	2.2479
7.2524	2.1639
7.1921	2.3413
7.1327	2.4818
7.0743	2.4222
7.0169	2.4318
6.9604	2.5295
6.9047	2.5901
6.85	2.5013
6.7962	2.5789
6.7431	2.6109
6.6909	2.6793
6.6395	2.8105
6.5889	2.6176
6.539	2.6484
6.49	2.7664
6.4416	2.812
6.3939	2.7616
6.347	2.7866
6.3007	2.7304
6.2551	2.7715
6.2101	2.6432
6.1658	2.5628
6.1222	2.6321
6.0791	2.6048
6.0366	2.6559
5.9948	2.7925
5.9535	2.7424
5.9127	2.9777
5.8726	2.9591
5.8329	3.1702
5.7938	3.1725
5.7552	3.2416
5.7172	3.1331
5.6796	3.2119
5.6425	3.3158
5.6059	3.2442
5.5698	3.3323
5.5341	3.4058
5.4989	3.4295
5.4641	3.4812
5.4298	3.4432
5.3959	3.612
5.3624	3.6903
5.3294	3.6488
5.2967	3.72
5.2644	3.7972
5.2326	3.8398
5.2011	3.9415
5.17	3.7964
5.1392	3.8694
5.1088	4.0319
5.0788	4.0611
5.0491	4.1686
5.0198	4.1058
4.9908	4.2335
4.9622	4.3414
4.9338	4.2889
4.9058	4.4195
4.8781	4.3277
4.8508	4.5449
4.8237	4.5836
4.7969	4.603
4.7704	4.6233
4.7443	4.5891
4.7184	4.7373
4.6927	4.7849
4.6674	4.6841
4.6423	4.8176
4.6175	4.7774
4.593	4.7147
4.5687	4.8986
4.5447	4.784
4.5209	4.9392
4.4974	5.0088
4.4741	4.8423
4.451	4.886
4.4282	5.0055
4.4057	5.0661
4.3833	4.9273
4.3612	5.1429
4.3393	5.1587
4.3176	5.0353
4.2962	5.1277
4.2749	5.1041
4.2539	5.3199
4.233	5.2046
4.2124	5.0971
4.192	5.2081
4.1717	5.0623
4.1517	5.2164
4.1319	5.2869
4.1122	5.3015
4.0927	5.345
4.0734	5.2327
4.0543	5.3143
4.0354	5.3028
4.0166	5.3213
3.9981	5.468
3.9796	5.4441
3.9614	5.2509
3.9433	5.2701
3.9254	5.4632
3.9077	5.6045
3.8901	5.3402
3.8726	5.3686
3.8554	5.2193
3.8382	5.4273
3.8213	5.5308
3.8045	5.4748
3.7878	5.3704
3.7713	5.4607
3.7549	5.4951
3.7386	5.3984
3.7225	5.5217
3.7066	5.3997
3.6907	5.4857
3.675	5.6526
3.6595	5.5379
3.644	5.3419
3.6287	5.4087
3.6136	5.4017
3.5985	5.5638
3.5836	5.5476
3.5688	5.5972
3.5541	5.5762
3.5396	5.4488
3.5251	5.4318
3.5108	5.5733
3.4966	5.5827
3.4825	5.2634
3.4685	5.4971
3.4547	5.2588
3.4409	5.548
3.4273	5.3497
3.4137	5.6331
3.4003	5.5904
3.387	5.2162
3.3738	5.2546
3.3606	5.4525
3.3476	5.0444
3.3347	5.3202
3.3219	5.274
3.3092	5.2948
3.2965	5.33
3.284	5.1927
3.2716	5.1804
3.2593	5.1132
3.247	5.2351
3.2348	5.1928
3.2228	4.9908
3.2108	5.1699
3.1989	4.8004
3.1871	5.1319
3.1754	5.2962
3.1638	4.7877
3.1523	4.9108
3.1408	5.1864
3.1294	4.5869
3.1181	4.7538
3.1069	5.0501
3.0958	5.0115
3.0848	4.9833
3.0738	5.2288
3.0629	4.5495
3.0521	4.4729
3.0413	4.7472
3.0307	4.7192
3.0201	4.962
3.0096	4.6037
2.9991	4.4191
2.9887	4.8266
2.9784	4.5494
2.9682	4.4463
2.9581	4.68
2.948	4.8129
2.9379	4.6863
2.928	4.9255
2.9181	4.1638
2.9083	5.0265
2.8985	4.9301
2.8888	4.8693
2.8792	4.7816
2.8697	4.6887
2.8602	5.3893
2.8507	4.7142
2.8413	5.0062
2.832	4.5827
2.8228	4.3969
2.8136	4.7996
2.8045	5.5002
2.7954	4.5917
2.7864	5.0867
2.7774	5.3978
2.7685	5.5378
2.7597	4.6667
2.7509	5.1836
2.7422	5.7435
2.7335	5.5173
2.7249	5.3883
2.7163	5.9284
2.7078	5.4615
2.6994	5.8404
2.691	6.1415
2.6826	6.3102
2.6743	6.43
2.666	6.062
2.6578	6.0687
2.6497	6.355
2.6416	6.095
2.6336	6.6843
2.6256	6.0476
2.6176	6.7379
2.6097	6.4593
2.6018	6.2703
2.594	6.3429
2.5863	5.8385
2.5785	6.2384
2.5709	6.7615
2.5633	6.3412
2.5557	6.492
2.5481	6.4617
2.5406	5.9355
2.5332	6.2543
2.5258	6.2082
2.5184	6.6618
2.5111	6.2438
2.5038	6.375
2.4966	6.146
2.4894	6.2968
2.4823	6.4431
2.4752	6.6319
2.4681	6.7098
2.4611	6.4605
2.4541	6.4023
2.4471	7.0761
2.4402	5.7598
2.4333	6.8956
2.4265	7.235
2.4197	6.0845
2.413	6.2735
2.4063	6.0431
2.3996	6.3795
2.3929	6.4491
2.3863	6.5258
2.3798	6.4539
2.3732	6.0758
2.3667	7.1338
2.3603	6.4811
2.3538	6.7217
2.3474	6.669
2.3411	6.5568
2.3347	6.0479
2.3285	6.8208
2.3222	7.193
2.316	5.6386
2.3098	6.5353
2.3036	6.8441
2.2975	7.2626
2.2914	6.6468
2.2854	6.4303
2.2793	6.7586
2.2733	6.689
2.2674	6.9115
2.2614	6.8164
2.2555	7.2097
2.2497	7.5692
2.2438	7.4372
2.238	6.7301
2.2322	6.1368
2.2265	6.9571
2.2208	6.6018
2.2151	6.626
2.2094	7.0189
2.2038	6.3706
2.1982	6.9215
2.1926	6.2168
2.187	6.4624
2.1815	6.5949
2.176	6.8833
2.1706	6.1724
2.1651	6.3609
2.1597	6.6524
2.1543	6.0614
2.149	6.7561
2.1436	7.2909
2.1383	6.4358
2.1331	6.3006
2.1278	6.2335
2.1226	7.3671
2.1174	6.2406
2.1122	5.7038
2.1071	6.4799
2.1019	7.5402
2.0968	7.1599
2.0918	6.5937
2.0867	5.3927
2.0817	6.6104
2.0767	7.5454
2.0717	5.7975
2.0667	7.7543
2.0618	6.5565
2.0569	7.3044
2.052	8.1342
2.0472	4.6455
2.0423	7.0155
2.0375	7.5638
2.0327	6.1082
2.028	9.6234
2.0232	7.8588
2.0185	6.101
2.0138	6.5609
2.0091	5.6795
2.0044	7.3588
1.9998	6.4168
