Name: Dolomitic Marble
Type: rock
Class: Metamorphic
Subclass: Marble
Particle Size: Fine
Sample No.: marble1
Owner: JHU
Wavelength Range: All
Origin: Sample No. 459, The Hunt and Salisbury Collection at the U.S.Geological Survey, Denver, Co.
Description: A medium-grained rock containing anhedral and some euhedral dolomite.  There are scattered anhedra and subhedra of monticellite, subhedral phlogopite and some rounded quartz grains present.  These latter minerals often contain opaque inclusions; opaques (some at least of which are pyrite) are also disseminated throughout the entire sample. Particle size was 0-75 Micrometer. Original ASTER Spectral Library name was jhu.becknic.rock.metamorphic.marble.fine.marble1.spectrum.txt
Measurement: Directional (10 Degree) Hemispherical Reflectance
X Units: Wavelength (micrometers)
Y Units: Reflectance (percent)
wavelength	value
14.983	28.519
14.645	30.286
14.321	23.563
14.011	1.518
13.715	14.005
13.43	32.966
13.158	34.654
12.896	31.322
12.644	32.766
12.402	34.701
12.169	36.195
11.945	35.351
11.729	19.373
11.52	8.5045
11.319	5.9794
11.125	28.124
10.937	32.64
10.755	29.971
10.58	28.973
10.41	31.157
10.245	29.511
10.086	27.796
9.9313	25.961
9.7814	25.618
9.636	29.041
9.4948	31.549
9.3577	30.352
9.2245	25.553
9.095	30.949
8.9691	31.606
8.8467	30.149
8.7275	26.115
8.6116	19.432
8.4986	17.558
8.3886	18.066
8.2814	20.322
8.1769	20.28
8.075	18.711
7.9756	18.84
7.8786	17.3
7.784	16.024
7.6916	14.262
7.6014	11.506
7.5133	10.359
7.4272	8.8418
7.343	6.9621
7.2607	5.0671
7.1803	4.3307
7.1016	5.0527
7.0246	5.3492
6.9493	5.2109
6.8755	5.4839
6.8034	5.8849
6.7327	6.4331
6.6634	7.3692
6.5956	8.7096
6.5292	10.348
6.464	12.187
6.4002	10.335
6.3376	6.4523
6.2762	4.0188
6.216	3.3926
6.157	3.144
6.099	3.4682
6.0421	4.3894
5.9863	5.8475
5.9315	7.2193
5.8777	8.4792
5.8249	8.8631
5.773	8.8557
5.722	9.8563
5.6719	11.95
5.6227	12.288
5.5744	2.3172
5.5268	9.0859
5.4801	18.009
5.4341	27.813
5.3889	34.252
5.3445	38.586
5.3008	41.82
5.2578	44.315
5.2154	46.34
5.1738	47.802
5.1328	48.814
5.0925	45.678
5.0528	50.002
5.0137	50.843
4.9752	51.014
4.9373	51.136
4.9	51.454
4.8632	51.788
4.827	52.037
4.7913	52.094
4.7561	51.088
4.7215	46.754
4.6873	38.206
4.6536	37.612
4.6205	43.991
4.5877	46.741
4.5555	47.678
4.5237	48.073
4.4923	49.099
4.4614	50.858
4.4309	52.249
4.4008	53.406
4.3711	53.77
4.3418	52.722
4.3129	52.433
4.2844	52.77
4.2563	52.686
4.2285	52.235
4.2011	51.807
4.174	50.734
4.1473	49.082
4.1209	46.481
4.0949	43.125
4.0692	37.935
4.0438	28.881
4.0187	16.062
3.994	7.6489
3.9695	5.5441
3.9453	9.1733
3.9214	13.445
3.8979	15.344
3.8746	16.21
3.8515	17.561
3.8288	21.443
3.8063	28.548
3.7841	40.659
3.7621	46.809
3.7404	50.417
3.7189	52.267
3.6977	53.058
3.6767	53.364
3.656	53.192
3.6355	52.618
3.6152	51.686
3.5951	49.651
3.5753	44.678
3.5557	41.728
3.5363	34.507
3.5171	21.604
3.4981	15.387
3.4793	11.784
3.4607	16.535
3.4423	19.178
3.4241	20.155
3.4061	19.999
3.3883	19.358
3.3707	18.733
3.3533	15.848
3.336	25.793
3.3189	35.69
3.302	39.642
3.2853	46.092
3.2687	48.521
3.2523	49.938
3.2361	50.912
3.22	51.687
3.204	52.295
3.1883	52.583
3.1727	52.218
3.1572	50.723
3.1419	50.435
3.1268	50.923
3.1117	49.877
3.0969	50.407
3.0821	51.716
3.0675	52.463
3.0531	53.045
3.0388	53.456
3.0246	53.867
3.0105	54.171
2.9966	54.316
2.9828	54.422
2.9692	54.431
2.9556	54.506
2.9422	54.467
2.9289	54.586
2.9157	54.739
2.9027	54.913
2.8897	55.202
2.8769	55.46
2.8642	55.754
2.8516	55.884
2.8391	56.043
2.8267	55.761
2.8144	55.298
2.8022	53.998
2.7902	51.836
2.7782	53.13
2.7664	55.924
2.7546	57.568
2.7429	58.451
2.7314	58.968
2.7199	59.539
2.7085	60.708
2.6973	61.527
2.6861	62.24
2.675	62.505
2.664	62.638
2.6531	62.929
2.6423	63.02
2.6315	62.886
2.6209	62.831
2.6103	62.977
2.5999	62.865
2.5895	62.546
2.5792	62.141
2.569	61.549
2.5588	60.13
2.5487	57.201
2.5388	54.183
2.5289	54.477
2.519	56.11
2.5093	57.078
2.4996	57.499
2.49	58.04
2.4805	58.851
2.471	59.871
2.4616	60.879
2.4523	61.676
2.4431	62.217
2.4339	62.595
2.4248	62.996
2.4157	63.215
2.4068	63.331
2.3979	63.274
2.389	63.374
2.3802	63.268
2.3715	62.977
2.3629	62.28
2.3543	60.973
2.3458	59.684
2.3373	59.334
2.3289	59.676
2.3206	60.334
2.3123	60.82
2.3041	61.016
2.2959	61.384
2.2878	61.655
2.2798	62.135
2.2718	62.644
2.2638	62.923
2.2559	63.242
2.2481	63.543
2.2403	63.615
2.2326	63.893
2.225	63.94
2.2173	63.985
2.2098	64.053
2.2023	64.141
2.1948	64.149
2.1874	64.221
2.18	64.229
2.1727	64.225
2.1655	64.161
2.1583	64.246
2.1511	64.159
2.144	64.181
2.1369	64.444
2.1299	64.371
2.1229	64.451
2.116	64.534
2.1091	64.462
2.1023	64.441
2.0955	64.607
2.0887	64.43
2.082	64.797
2.06	65.095
2.028	64.215
1.996	63.639
1.964	63.202
1.932	63.222
1.9	62.992
1.868	63.136
1.836	63.763
1.804	63.492
1.772	62.392
1.74	62.827
1.708	63.86
1.676	63.465
1.644	63.553
1.612	63.029
1.58	63.669
1.548	62.527
1.516	63.227
1.484	62.43
1.452	63.286
1.42	63.41
1.388	62.194
1.356	63.206
1.324	62.785
1.292	63.053
1.26	63.706
1.228	63.377
1.196	62.375
1.164	62.038
1.132	62.773
1.1	62.924
1.068	62.293
1.036	63.223
1.004	63.212
0.972	62.7
0.94	62.981
0.908	63.16
0.876	62.684
0.844	62.268
0.812	62.163
0.795	62.315
0.787	61.909
0.779	62.622
0.771	62.245
0.763	62.915
0.755	62.447
0.747	62.316
0.739	62.35
0.731	62.443
0.723	62.287
0.715	62.692
0.707	62.32
0.699	62.819
0.691	63.256
0.683	63.256
0.675	63.236
0.667	62.894
0.659	63.662
0.651	62.736
0.643	63.54
0.635	62.796
0.627	62.976
0.619	64.128
0.611	63.561
0.603	63.157
0.595	62.686
0.587	63.22
0.579	63.426
0.571	63.908
0.563	63.36
0.555	63.03
0.547	62.911
0.539	63.4
0.531	62.796
0.523	63.232
0.515	62.617
0.507	62.949
0.499	62.3
0.491	62.848
0.483	62.932
0.475	62.114
0.467	61.872
0.459	63.848
0.451	63.001
0.443	63.064
0.435	63.335
0.427	62.682
0.419	62.856
0.411	62.204
0.403	62.025
