Name: Basalt
Type: Rock
Class: Igneous
Subclass: Mafic
Particle Size: Solid
Sample No.: ba12c1f
Owner: Larry Rowan, USGS
Wavelength Range: All
Origin: Wadi Mujib, Jordan
Description: dark gray vesicular basalt    Sample was Whole rock chips Original ASTER Spectral Library name was usgs.perknic.rock.igneous.mafic.solid.ba12c1f.spectrum.txt
Measurement: Reflectance
X Units: Wavelength (micrometers)
Y Units: Reflectance (percent)
wavelength	value
0.4	0.139
0.408	0.135
0.416	0.139
0.424	0.135
0.432	0.132
0.44	0.13
0.448	0.129
0.456	0.123
0.464	0.123
0.472	0.119
0.48	0.119
0.488	0.118
0.496	0.116
0.504	0.118
0.512	0.116
0.52	0.115
0.528	0.116
0.536	0.116
0.544	0.116
0.552	0.116
0.56	0.113
0.568	0.115
0.576	0.116
0.584	0.116
0.592	0.116
0.6	0.115
0.608	0.116
0.616	0.113
0.624	0.118
0.632	0.119
0.64	0.119
0.648	0.116
0.656	0.12
0.664	0.12
0.672	0.12
0.68	0.116
0.688	0.119
0.696	0.119
0.704	0.122
0.712	0.122
0.72	0.122
0.728	0.122
0.736	0.123
0.744	0.122
0.752	0.123
0.76	0.124
0.768	0.123
0.776	0.123
0.784	0.122
0.792	0.124
0.8	0.126
0.832	0.125
0.864	0.123
0.896	0.123
0.928	0.12
0.96	0.117
0.992	0.117
1.024	0.114
1.056	0.114
1.088	0.115
1.12	0.115
1.152	0.115
1.184	0.116
1.216	0.116
1.248	0.115
1.28	0.114
1.312	0.115
1.344	0.117
1.376	0.115
1.408	0.116
1.44	0.117
1.472	0.117
1.504	0.118
1.536	0.121
1.568	0.12
1.6	0.121
1.632	0.121
1.664	0.121
1.696	0.122
1.728	0.122
1.76	0.12
1.792	0.121
1.824	0.121
1.856	0.12
1.888	0.117
1.92	0.114
1.952	0.112
1.984	0.115
2.016	0.116
2.048	0.117
2.08	0.117
2.1021	0.1042
2.109	0.1049
2.1159	0.1039
2.1228	0.1032
2.1298	0.1033
2.1368	0.1011
2.1438	0.103
2.1509	0.1025
2.1581	0.1036
2.1653	0.1027
2.1726	0.1022
2.1799	0.1028
2.1872	0.1012
2.1946	0.101
2.2021	0.1017
2.2096	0.101
2.2172	0.1005
2.2248	0.1014
2.2324	0.1016
2.2401	0.1
2.2479	0.1007
2.2557	0.1001
2.2636	0.1009
2.2715	0.0997
2.2795	0.1027
2.2876	0.1006
2.2957	0.1009
2.3038	0.1001
2.3121	0.0998
2.3203	0.0981
2.3287	0.0997
2.3371	0.0994
2.3455	0.0986
2.354	0.0991
2.3626	0.0973
2.3712	0.0978
2.38	0.0998
2.3887	0.1005
2.3976	0.0972
2.4065	0.098
2.4154	0.0984
2.4245	0.0961
2.4336	0.0993
2.4427	0.0984
2.452	0.0976
2.4613	0.0986
2.4707	0.0991
2.4801	0.0985
2.4896	0.0961
2.4992	0.0976
2.5089	0.0972
2.5187	0.0976
2.5285	0.0963
2.5384	0.0974
2.5484	0.0965
2.5584	0.0985
2.5686	0.0985
2.5788	0.0971
2.5891	0.0972
2.5995	0.0989
2.6099	0.099
2.6205	0.0991
2.6311	0.0977
2.6418	0.0983
2.6526	0.0967
2.6635	0.0957
2.6745	0.0934
2.6856	0.092
2.6968	0.0842
2.708	0.0768
2.7194	0.0733
2.7309	0.0681
2.7424	0.0652
2.7541	0.0583
2.7658	0.0585
2.7777	0.0597
2.7896	0.0578
2.8017	0.0573
2.8138	0.0567
2.8261	0.0586
2.8385	0.0562
2.851	0.0583
2.8636	0.0574
2.8763	0.0567
2.8891	0.0565
2.902	0.0572
2.915	0.0567
2.9282	0.0569
2.9415	0.0571
2.9549	0.0566
2.9684	0.0579
2.9821	0.0577
2.9959	0.057
3.0098	0.0577
3.0238	0.0578
3.038	0.0587
3.0523	0.0594
3.0667	0.0592
3.0813	0.0587
3.096	0.0598
3.1109	0.0597
3.1259	0.0607
3.141	0.061
3.1563	0.0621
3.1718	0.0632
3.1874	0.0629
3.2031	0.0653
3.219	0.0656
3.2351	0.0667
3.2513	0.0671
3.2677	0.0689
3.2843	0.0689
3.301	0.0703
3.3179	0.0713
3.3349	0.0707
3.3522	0.0698
3.3696	0.0719
3.3872	0.0725
3.405	0.0736
3.423	0.0755
3.4412	0.0752
3.4595	0.0743
3.4781	0.0734
3.4968	0.0759
3.5158	0.0768
3.535	0.08
3.5544	0.0808
3.574	0.0815
3.5938	0.0831
3.6138	0.0838
3.6341	0.0842
3.6545	0.084
3.6753	0.0846
3.6962	0.0847
3.7174	0.0845
3.7389	0.0844
3.7605	0.0848
3.7825	0.0849
3.8047	0.0824
3.8272	0.0791
3.8499	0.0782
3.8729	0.0777
3.8962	0.0773
3.9197	0.0762
3.9436	0.0743
3.9677	0.0718
3.9921	0.0727
4.0169	0.0751
4.0419	0.0789
4.0673	0.0808
4.093	0.081
4.119	0.0811
4.1453	0.0803
4.172	0.0804
4.199	0.0793
4.2264	0.0749
4.2541	0.0775
4.2822	0.0744
4.3107	0.0754
4.3395	0.0752
4.3688	0.0747
4.3984	0.0731
4.4285	0.0725
4.4589	0.0713
4.4898	0.0696
4.5211	0.0681
4.5529	0.0663
4.5851	0.0652
4.6177	0.063
4.6509	0.0603
4.6845	0.0597
4.7186	0.0589
4.7532	0.0573
4.7883	0.0566
4.8239	0.0553
4.8601	0.0544
4.8968	0.0531
4.9341	0.0521
4.9719	0.0511
5.0103	0.05
5.0493	0.0485
5.089	0.0477
5.1292	0.047
5.1702	0.046
5.2117	0.0447
5.254	0.0437
5.2969	0.0429
5.3405	0.0418
5.3849	0.0407
5.43	0.0404
5.4759	0.0392
5.5225	0.0379
5.57	0.0354
5.6182	0.0362
5.6673	0.0359
5.7173	0.0352
5.7682	0.0341
5.82	0.0331
5.8727	0.0322
5.9264	0.0319
5.9811	0.0309
6.0368	0.0291
6.0935	0.0288
6.1513	0.0297
6.2103	0.0307
6.2703	0.0311
6.3316	0.0327
6.394	0.0362
6.4577	0.0425
6.5227	0.0424
6.589	0.0414
6.6566	0.0394
6.7257	0.0378
6.7962	0.0367
6.8682	0.036
6.9418	0.0354
7.0169	0.0346
7.0937	0.0332
7.1722	0.0283
7.2524	0.0262
7.3345	0.0246
7.4184	0.0235
7.5043	0.0226
7.5922	0.0217
7.6821	0.0208
7.7743	0.0201
7.8686	0.0203
7.9653	0.0204
8.0644	0.024
8.166	0.0329
8.2701	0.0565
8.377	0.0743
8.4867	0.0799
8.5992	0.0837
8.7149	0.0858
8.8336	0.091
8.9556	0.0956
9.0811	0.0926
9.2101	0.0903
9.3428	0.0993
9.4795	0.111
9.6201	0.1173
9.765	0.12
9.9144	0.1181
10.0684	0.1094
10.2272	0.1049
10.3911	0.1032
10.5604	0.1001
10.7353	0.0989
10.9161	0.096
11.103	0.0906
11.2965	0.0869
11.4968	0.0743
11.7044	0.0632
11.9196	0.0561
12.1429	0.0498
12.3747	0.0421
12.6155	0.0401
12.8659	0.0389
13.1264	0.038
13.3977	0.0364
13.6804	0.0359
13.9753	0.0332
