Name: Albite Gneiss
Type: rock
Class: Metamorphic
Subclass: Gneis
Particle Size: Fine
Sample No.: gneiss5
Owner: JHU
Wavelength Range: All
Origin: Sample No. 390, The Hunt and Salisbury Collection at the U.S.Geological Survey, Denver, Co.
Description: This coarse-grained rock has been sheared enough to giveit mortar texture.  The abundant albite subhedra (some with perthite) often evidence brittle deformation, while other areas have recrystallized.  In addition to this phase there are muscoviteeuhedra (secondary to deformation), and larger primary muscovite heavily sheared to sericite in foliated masses or bands throughout the sample.  Modes were 67% albite and 33% muscovite. Particle size was 0-75 Micrometer. Original ASTER Spectral Library name was jhu.becknic.rock.metamorphic.gneiss.fine.gneiss5.spectrum.txt
Measurement: Directional (10 Degree) Hemispherical Reflectance
X Units: Wavelength (micrometers)
Y Units: Reflectance (percent)
wavelength	value
14.983	1.7984
14.645	2.9574
14.321	3.4388
14.011	2.9581
13.715	2.3144
13.43	2.4473
13.158	2.4451
12.896	2.3556
12.644	2.2336
12.402	3.9861
12.169	5.9597
11.945	7.0645
11.729	7.8227
11.52	7.4507
11.319	6.7246
11.125	5.6222
10.937	4.7268
10.755	4.073
10.58	3.7966
10.41	3.7438
10.245	4.2328
10.086	5.0058
9.9313	5.4283
9.7814	4.773
9.636	6.3606
9.4948	4.9859
9.3577	4.1931
9.2245	4.2965
9.095	4.0988
8.9691	4.1689
8.8467	4.8805
8.7275	5.6301
8.6116	5.7508
8.4986	5.8718
8.3886	6.1804
8.2814	5.5017
8.1769	4.2591
8.075	2.4011
7.9756	1.3676
7.8786	0.8928
7.784	0.8165
7.6916	0.9373
7.6014	1.2478
7.5133	1.7131
7.4272	2.2048
7.343	2.7589
7.2607	3.5241
7.1803	4.4424
7.1016	5.5545
7.0246	6.3256
6.9493	6.9323
6.8755	7.8142
6.8034	8.4576
6.7327	8.9258
6.6634	9.6173
6.5956	10.109
6.5292	10.91
6.464	11.916
6.4002	12.375
6.3376	11.832
6.2762	11.245
6.216	10.536
6.157	10.676
6.099	11.717
6.0421	11.99
5.9863	12.55
5.9315	12.542
5.8777	12.684
5.8249	13.127
5.773	12.66
5.722	12.178
5.6719	12.322
5.6227	12.89
5.5744	12.483
5.5268	14.043
5.4801	15.956
5.4341	17.564
5.3889	19.783
5.3445	21.125
5.3008	21.275
5.2578	21.471
5.2154	22.088
5.1738	23.658
5.1328	25.262
5.0925	27.335
5.0528	28.943
5.0137	29.533
4.9752	31.371
4.9373	34.512
4.9	33.518
4.8632	35.43
4.827	37.322
4.7913	35.899
4.7561	36.597
4.7215	38.901
4.6873	40.741
4.6536	41.992
4.6205	44.637
4.5877	47.048
4.5555	48.968
4.5237	50.916
4.4923	53.386
4.4614	55.651
4.4309	57.11
4.4008	58.457
4.3711	60.089
4.3418	61.613
4.3129	63.266
4.2844	64.477
4.2563	65.378
4.2285	67.248
4.2011	68.627
4.174	69.442
4.1473	70.001
4.1209	70.414
4.0949	70.756
4.0692	70.992
4.0438	71.129
4.0187	71.2
3.994	71.26
3.9695	71.348
3.9453	71.591
3.9214	71.847
3.8979	72.018
3.8746	72.058
3.8515	72.097
3.8288	72.077
3.8063	72.087
3.7841	72.016
3.7621	71.77
3.7404	71.305
3.7189	70.988
3.6977	70.723
3.6767	70.524
3.656	70.354
3.6355	70.198
3.6152	69.896
3.5951	69.425
3.5753	68.786
3.5557	68.031
3.5363	67.114
3.5171	65.853
3.4981	64.829
3.4793	65.079
3.4607	64.443
3.4423	63.182
3.4241	62.201
3.4061	61.428
3.3883	60.876
3.3707	60.215
3.3533	59.783
3.336	59.281
3.3189	58.595
3.302	57.74
3.2853	56.882
3.2687	55.983
3.2523	55.099
3.2361	54.198
3.22	53.137
3.204	51.979
3.1883	50.749
3.1727	49.594
3.1572	48.518
3.1419	47.397
3.1268	46.241
3.1117	45.107
3.0969	44.022
3.0821	43.037
3.0675	42.207
3.0531	41.406
3.0388	40.634
3.0246	39.899
3.0105	39.127
2.9966	38.29
2.9828	37.437
2.9692	36.587
2.9556	35.758
2.9422	34.967
2.9289	34.399
2.9157	34.179
2.9027	34.308
2.8897	34.762
2.8769	35.17
2.8642	35.226
2.8516	34.822
2.8391	34.004
2.8267	32.625
2.8144	30.373
2.8022	26.654
2.7902	21.895
2.7782	17.23
2.7664	13.973
2.7546	13.31
2.7429	15.345
2.7314	19.279
2.7199	28.349
2.7085	38.841
2.6973	45.268
2.6861	57.729
2.675	63.993
2.664	66.623
2.6531	68.993
2.6423	69.984
2.6315	69.794
2.6209	69.9
2.6103	70.248
2.5999	70.63
2.5895	71.211
2.5792	71.798
2.569	72.229
2.5588	72.736
2.5487	73.189
2.5388	73.383
2.5289	73.308
2.519	72.982
2.5093	72.552
2.4996	72.161
2.49	71.842
2.4805	71.546
2.471	71.095
2.4616	70.483
2.4523	70.053
2.4431	69.827
2.4339	70.145
2.4248	70.943
2.4157	71.709
2.4068	72.392
2.3979	72.637
2.389	72.563
2.3802	72.443
2.3715	72.408
2.3629	71.935
2.3543	71.149
2.3458	71.115
2.3373	72.037
2.3289	73.415
2.3206	74.953
2.3123	76.419
2.3041	77.75
2.2959	78.706
2.2878	79.477
2.2798	79.962
2.2718	79.95
2.2638	79.41
2.2559	78.231
2.2481	77.15
2.2403	76.594
2.2326	75.662
2.225	73.764
2.2173	71.539
2.2098	70.176
2.2023	70.399
2.1948	72.197
2.1874	75.365
2.18	78.52
2.1727	80.874
2.1655	82.258
2.1583	83.13
2.1511	83.705
2.144	84.153
2.1369	84.254
2.1299	84.313
2.1229	84.225
2.116	84.413
2.1091	84.743
2.1023	85.178
2.0955	85.642
2.0887	86.077
2.082	86.388
2.06	86.703
2.028	85.414
1.996	83.553
1.964	81.01
1.932	80.282
1.9	77.628
1.868	85.015
1.836	87.871
1.804	86.186
1.772	85.454
1.74	85.492
1.708	86.105
1.676	85.543
1.644	85.638
1.612	84.439
1.58	84.661
1.548	82.906
1.516	82.948
1.484	81.288
1.452	80.639
1.42	77.142
1.388	75.301
1.356	80.157
1.324	79.393
1.292	78.142
1.26	78.315
1.228	77.217
1.196	76.62
1.164	75.339
1.132	74.242
1.1	73.428
1.068	73.052
1.036	73.837
1.004	73.083
0.972	72.091
0.94	71.7
0.908	70.929
0.876	69.859
0.844	69.468
0.812	69.262
0.795	70.93
0.787	70.312
0.779	70.377
0.771	69.92
0.763	70.824
0.755	69.497
0.747	69.142
0.739	68.524
0.731	68.391
0.723	68.066
0.715	67.996
0.707	67.733
0.699	68.829
0.691	68.725
0.683	68.324
0.675	68.723
0.667	68.789
0.659	68.686
0.651	68.892
0.643	69.259
0.635	68.359
0.627	68.227
0.619	69.259
0.611	69.394
0.603	68.585
0.595	68.098
0.587	69.088
0.579	68.985
0.571	68.955
0.563	69.124
0.555	68.509
0.547	68.538
0.539	69.417
0.531	67.421
0.523	68.202
0.515	68.214
0.507	67.757
0.499	66.579
0.491	66.667
0.483	65.523
0.475	64.197
0.467	62.934
0.459	65.322
0.451	64.274
0.443	62.793
0.435	62.114
0.427	60.109
0.419	58.957
0.411	57.191
0.403	55.997
