Name: Andesite Breccia
Type: Rock
Class: Igneous
Subclass: Intermediate
Particle Size: Solid
Sample No.: Ward28
Owner: JPL
Wavelength Range: All
Origin: Ward's Collection of American Rocks.  Sample locality - Ouray, ouray County, Colorado.
Description: A compact rock with angular fragments of varicolored greenand purple extrusive material embedded in a variegated gray-green topurple groundmass.Geologic age - Tertiary (Eocene).Collected by:  Ward's Natural Science Original ASTER Spectral Library name was jpl.nicolet.rock.igneous.intermediate.solid.ward28.spectrum.txt
Measurement: Hemispherical reflectance
X Units: Wavelength (micrometers)
Y Units: Reflectance (percent)
wavelength	value
15.3871	2.7881
15.118	2.7829
14.8581	2.9642
14.6069	2.5718
14.3642	2.4737
14.1293	2.7065
13.9021	2.7382
13.682	2.5886
13.4687	2.9637
13.2621	2.9339
13.0616	3.2788
12.8672	3.4221
12.6784	2.9942
12.4951	3.3648
12.317	2.5382
12.1439	2.8242
11.9757	3.4033
11.812	3.5265
11.6527	3.8805
11.4977	4.129
11.3468	4.5272
11.1997	4.8748
11.0564	5.112
10.9168	5.0333
10.7806	5.2665
10.6478	6.1604
10.5182	6.9115
10.3917	7.7029
10.2683	8.3707
10.1477	9.1049
10.0299	9.914
9.9148	10.2901
9.8024	10.6253
9.6925	11.3579
9.585	12.1494
9.4798	12.3224
9.377	12.3404
9.2763	12.4958
9.1778	12.0433
9.0814	11.5362
8.987	10.7345
8.8945	9.5736
8.8039	9.2526
8.7151	8.9977
8.6281	7.7692
8.5428	8.5529
8.4592	8.5002
8.3772	8.2065
8.2967	8.1749
8.2179	8.0521
8.1404	7.2732
8.0645	5.4
7.9899	4.3344
7.9167	3.4826
7.8449	2.8682
7.7743	2.6565
7.705	2.6798
7.6369	2.4394
7.57	2.3847
7.5043	2.3209
7.4397	2.3192
7.3762	2.2298
7.3138	2.2119
7.2524	2.515
7.1921	2.361
7.1327	2.382
7.0743	2.4139
7.0169	2.5482
6.9604	2.5759
6.9047	2.4754
6.85	2.6177
6.7962	2.6699
6.7431	2.7539
6.6909	2.7864
6.6395	2.9306
6.5889	2.9821
6.539	2.888
6.49	2.9363
6.4416	3.0946
6.3939	2.831
6.347	2.8695
6.3007	2.6387
6.2551	2.4376
6.2101	2.4348
6.1658	2.5583
6.1222	2.6456
6.0791	2.6614
6.0366	2.6611
5.9948	2.5884
5.9535	2.335
5.9127	2.4955
5.8726	2.7458
5.8329	2.6656
5.7938	2.8219
5.7552	2.8385
5.7172	3.011
5.6796	3.074
5.6425	2.999
5.6059	2.9225
5.5698	3.0848
5.5341	3.1054
5.4989	3.349
5.4641	3.5082
5.4298	3.6734
5.3959	3.4975
5.3624	3.4662
5.3294	3.5208
5.2967	3.5459
5.2644	3.7356
5.2326	3.9979
5.2011	4.3214
5.17	4.436
5.1392	4.5281
5.1088	4.731
5.0788	4.6825
5.0491	4.7849
5.0198	4.7186
4.9908	4.7949
4.9622	4.8991
4.9338	5.1226
4.9058	5.5018
4.8781	5.7204
4.8508	6.3581
4.8237	6.5896
4.7969	6.9532
4.7704	7.2712
4.7443	7.6659
4.7184	7.9985
4.6927	7.9989
4.6674	8.3647
4.6423	8.7552
4.6175	9.0237
4.593	9.4125
4.5687	9.9802
4.5447	10.4614
4.5209	10.8883
4.4974	10.8622
4.4741	11.0825
4.451	11.5825
4.4282	12.0655
4.4057	12.54
4.3833	13.2447
4.3612	13.8682
4.3393	14.3423
4.3176	14.6445
4.2962	15.0272
4.2749	15.128
4.2539	15.4994
4.233	15.6083
4.2124	15.9461
4.192	16.0626
4.1717	16.1408
4.1517	16.4347
4.1319	16.6197
4.1122	16.6921
4.0927	16.8335
4.0734	17.052
4.0543	16.8866
4.0354	16.7017
4.0166	16.7453
3.9981	16.5941
3.9796	16.475
3.9614	16.5606
3.9433	16.8853
3.9254	17.0849
3.9077	17.1891
3.8901	17.349
3.8726	17.2785
3.8554	17.2258
3.8382	17.2221
3.8213	17.4378
3.8045	17.6274
3.7878	17.4649
3.7713	17.2943
3.7549	17.4113
3.7386	17.2238
3.7225	17.1623
3.7066	17.0298
3.6907	17.1314
3.675	16.9545
3.6595	17.0187
3.644	16.761
3.6287	16.744
3.6136	16.3737
3.5985	16.0542
3.5836	15.7583
3.5688	15.626
3.5541	15.4049
3.5396	15.1906
3.5251	14.744
3.5108	14.1765
3.4966	13.7762
3.4825	13.6605
3.4685	13.5417
3.4547	13.2109
3.4409	13.0915
3.4273	12.673
3.4137	12.3929
3.4003	12.0313
3.387	11.9636
3.3738	11.8594
3.3606	11.7729
3.3476	11.2549
3.3347	11.4885
3.3219	11.0974
3.3092	10.8707
3.2965	10.5372
3.284	10.2984
3.2716	9.9058
3.2593	9.6824
3.247	9.104
3.2348	8.777
3.2228	8.4286
3.2108	8.3599
3.1989	7.9898
3.1871	7.647
3.1754	7.0087
3.1638	6.658
3.1523	6.3852
3.1408	6.4649
3.1294	6.2577
3.1181	5.909
3.1069	5.3112
3.0958	5.2573
3.0848	5.3968
3.0738	4.5056
3.0629	4.5229
3.0521	4.8574
3.0413	4.578
3.0307	4.8356
3.0201	4.1803
3.0096	4.3796
2.9991	4.3253
2.9887	3.6777
2.9784	3.9039
2.9682	4.2384
2.9581	3.6436
2.948	4.0282
2.9379	3.6531
2.928	3.7964
2.9181	4.2085
2.9083	3.7681
2.8985	3.7792
2.8888	3.7804
2.8792	4.7587
2.8697	4.395
2.8602	4.4407
2.8507	4.8884
2.8413	4.4219
2.832	4.4915
2.8228	4.7201
2.8136	4.6586
2.8045	4.5833
2.7954	4.0567
2.7864	4.1997
2.7774	4.3179
2.7685	4.2847
2.7597	4.1566
2.7509	4.6596
2.7422	4.9514
2.7335	5.4921
2.7249	7.5482
2.7163	10.0798
2.7078	14.2715
2.6994	17.1854
2.691	18.1033
2.6826	18.6448
2.6743	19.9623
2.666	20.8415
2.6578	20.9938
2.6497	20.9477
2.6416	21.0629
2.6336	21.4871
2.6256	21.3152
2.6176	21.9283
2.6097	22.2999
2.6018	21.5749
2.594	22.1819
2.5863	22.1244
2.5785	21.8354
2.5709	22.0609
2.5633	22.398
2.5557	22.2145
2.5481	22.5875
2.5406	22.3708
2.5332	22.7396
2.5258	22.44
2.5184	22.459
2.5111	22.3179
2.5038	22.4181
2.4966	22.5643
2.4894	22.168
2.4823	22.7302
2.4752	22.8169
2.4681	23.1323
2.4611	22.6129
2.4541	23.0493
2.4471	23.3947
2.4402	22.9857
2.4333	23.3711
2.4265	23.3136
2.4197	23.7643
2.413	24.068
2.4063	24.0976
2.3996	23.8661
2.3929	23.6218
2.3863	23.2326
2.3798	22.1663
2.3732	22.5145
2.3667	21.1439
2.3603	20.3199
2.3538	19.3742
2.3474	19.2146
2.3411	19.4993
2.3347	19.5454
2.3285	20.7756
2.3222	21.4721
2.316	22.5202
2.3098	23.3808
2.3036	24.1339
2.2975	24.5943
2.2914	24.9164
2.2854	24.4075
2.2793	25.3186
2.2733	24.1761
2.2674	24.4971
2.2614	23.6417
2.2555	22.5553
2.2497	23.1179
2.2438	24.3679
2.238	25.0362
2.2322	24.8087
2.2265	25.0768
2.2208	25.2245
2.2151	24.5807
2.2094	24.6372
2.2038	26.1274
2.1982	26.2821
2.1926	26.3547
2.187	27.6433
2.1815	27.8852
2.176	29.1669
2.1706	29.2189
2.1651	29.0677
2.1597	29.6428
2.1543	28.8527
2.149	29.8538
2.1436	30.2318
2.1383	29.8411
2.1331	28.8838
2.1278	29.1174
2.1226	30.5816
2.1174	30.3173
2.1122	31.06
2.1071	29.5409
2.1019	31.0217
2.0968	30.9534
2.0918	29.403
2.0867	30.5396
2.0817	30.3852
2.0767	30.2422
2.0717	30.0252
2.0667	29.7382
2.0618	30.6163
2.0569	29.9078
2.052	30.4612
2.0472	28.2301
2.0423	28.946
2.0375	29.3907
2.0327	28.6993
2.028	30.1569
2.0232	30.1071
2.0185	28.2896
2.0138	28.2479
2.0091	29.3553
2.0044	28.2263
1.9998	29.4728
