Name: Limestone-Siltstone
Type: rock
Class: Sedimentary
Subclass: Siltstone
Particle Size: Fine
Sample No.: siltstone_2
Owner: JHU
Wavelength Range: All
Origin: Sample No. 352,  The Hunt and Salisbury Collection at the U.S.Geological Survey, Denver, Co.
Description: This sample contains a microcrystalline groundmass or matrix of quartz, carbonate, and possibly some clay. There are irregular regions of larger anhedra of carbonate and quartz, with some grains of muscovite, glauconite, and green biotite.Particle size was 0 - 75 Micrometers. Original ASTER Spectral Library name was jhu.becknic.rock.sedimentary.siltstone.fine.siltst2.spectrum.txt
Measurement: Directional (10 Degree) Hemispherical Reflectance
X Units: Wavelength (micrometers)
Y Units: Reflectance (percent)
wavelength	value
14.983	1.8327
14.645	2.4148
14.321	1.6726
14.011	3.5084
13.715	3.7111
13.43	3.4196
13.158	4.2823
12.896	3.5094
12.644	2.8503
12.402	2.1728
12.169	2.9228
11.945	3.8613
11.729	4.7868
11.52	4.4986
11.319	4.0036
11.125	3.4675
10.937	2.9917
10.755	3.57
10.58	4.2788
10.41	3.7822
10.245	2.987
10.086	2.7864
9.9313	2.8626
9.7814	3.0355
9.636	3.4246
9.4948	3.2321
9.3577	3.8873
9.2245	4.6935
9.095	5.1666
8.9691	5.0039
8.8467	4.5992
8.7275	4.2568
8.6116	3.4225
8.4986	3.8824
8.3886	3.4793
8.2814	4.1317
8.1769	6.3081
8.075	5.9706
7.9756	5.6791
7.8786	5.111
7.784	5.1425
7.6916	5.843
7.6014	6.4549
7.5133	7.1904
7.4272	7.6146
7.343	8.0198
7.2607	8.3653
7.1803	8.7574
7.1016	9.3391
7.0246	10.652
6.9493	10.73
6.8755	10.736
6.8034	10.921
6.7327	11.203
6.6634	12.366
6.5956	13.707
6.5292	15.633
6.464	19.779
6.4002	21.59
6.3376	20.215
6.2762	17.01
6.216	15.028
6.157	17.021
6.099	19.233
6.0421	19.291
5.9863	18.587
5.9315	17.672
5.8777	19.632
5.8249	21.87
5.773	23.211
5.722	23.812
5.6719	23.102
5.6227	20.622
5.5744	19.632
5.5268	20.016
5.4801	22.36
5.4341	25.401
5.3889	22.132
5.3445	19.245
5.3008	20.899
5.2578	25.302
5.2154	31.908
5.1738	34.446
5.1328	35.172
5.0925	34.942
5.0528	33.516
5.0137	33.348
4.9752	35.725
4.9373	39.647
4.9	44.52
4.8632	49.403
4.827	51.326
4.7913	52.649
4.7561	54.25
4.7215	55.669
4.6873	55.778
4.6536	56.973
4.6205	58.957
4.5877	61.102
4.5555	62.592
4.5237	62.772
4.4923	62.112
4.4614	62.453
4.4309	64.324
4.4008	66.595
4.3711	68.864
4.3418	70.001
4.3129	70.124
4.2844	70.054
4.2563	70.679
4.2285	70.902
4.2011	71.198
4.174	71.481
4.1473	71.594
4.1209	71.884
4.0949	71.896
4.0692	71.46
4.0438	70.152
4.0187	67.166
3.994	61.308
3.9695	54.79
3.9453	54.902
3.9214	56.687
3.8979	60.36
3.8746	61.685
3.8515	65.647
3.8288	65.238
3.8063	62.421
3.7841	65.489
3.7621	68.769
3.7404	70.943
3.7189	71.208
3.6977	71.308
3.6767	71.425
3.656	71.513
3.6355	71.575
3.6152	71.349
3.5951	70.908
3.5753	70.228
3.5557	69.156
3.5363	68.37
3.5171	66.211
3.4981	62.194
3.4793	59.404
3.4607	57.593
3.4423	57.937
3.4241	59.444
3.4061	59.484
3.3883	59.903
3.3707	59.611
3.3533	58.158
3.336	57.318
3.3189	56.413
3.302	57.212
3.2853	60.056
3.2687	60.042
3.2523	59.656
3.2361	59.162
3.22	58.539
3.2041	57.862
3.1883	57.157
3.1727	56.45
3.1572	55.722
3.1419	54.933
3.1268	54.142
3.1117	53.341
3.0969	52.527
3.0821	51.718
3.0675	50.972
3.0531	50.265
3.0388	49.648
3.0246	49.109
3.0105	48.605
2.9966	48.122
2.9828	47.604
2.9692	47.049
2.9556	46.414
2.9422	45.782
2.9289	45.346
2.9157	45.24
2.9027	45.589
2.8897	46.073
2.8769	46.382
2.8642	46.261
2.8516	45.4
2.8391	42.879
2.8267	36.095
2.8144	25.891
2.8022	16.106
2.7902	10.136
2.7782	7.2598
2.7664	6.0918
2.7546	6.7668
2.7429	9.8792
2.7314	18.63
2.7199	36.496
2.7085	53.867
2.6973	61.126
2.6861	65.739
2.675	68.873
2.664	71.423
2.6531	73.184
2.6423	73.71
2.6315	73.268
2.6209	73.094
2.6103	73.015
2.5999	73.133
2.5895	73.622
2.5792	74.391
2.569	75.084
2.5588	75.567
2.5487	75.673
2.5388	75.366
2.5289	74.872
2.519	74.396
2.5093	74.038
2.4996	73.622
2.49	73.196
2.4805	72.527
2.471	71.714
2.4616	71.004
2.4523	70.622
2.4431	70.7
2.4339	71.357
2.4248	72.095
2.4157	72.625
2.4068	72.899
2.3979	72.766
2.389	72.048
2.3802	71.379
2.3715	71.007
2.3629	70.424
2.3543	69.959
2.3458	70.451
2.3373	72.034
2.3289	74.108
2.3206	76.301
2.3123	78.219
2.3041	79.611
2.2959	80.217
2.2878	80.309
2.2798	80.211
2.2718	79.697
2.2638	77.719
2.2559	74.614
2.2481	72.768
2.2403	72.27
2.2326	71.039
2.225	68.376
2.2173	67.577
2.2098	69.974
2.2023	73.959
2.1948	78.107
2.1874	81.289
2.18	83.16
2.1727	84.295
2.1655	85.024
2.1583	85.449
2.1511	85.74
2.144	85.861
2.1369	85.783
2.1299	85.714
2.1229	85.865
2.116	86.242
2.1091	86.679
2.1023	87.251
2.0955	87.799
2.0887	88.303
2.082	88.622
2.06	89.294
2.028	89.208
1.996	87.386
1.964	86.442
1.932	85.128
1.9	86.948
1.868	85.181
1.836	86.8
1.804	87.041
1.772	85.83
1.74	85.771
1.708	85.682
1.676	85.183
1.644	84.535
1.612	83.975
1.58	83.982
1.548	83.855
1.516	83.027
1.484	81.926
1.452	80.755
1.42	74.099
1.388	76.627
1.356	79.996
1.324	77.649
1.292	76.973
1.26	76.139
1.228	76.139
1.196	74.91
1.164	73.211
1.132	73.48
1.1	72.705
1.068	73.311
1.036	72.293
1.004	71.949
0.972	71.657
0.94	71.355
0.908	71.098
0.876	70.975
0.844	71.488
0.812	72.213
0.795	71.877
0.787	71.909
0.779	72.035
0.771	71.297
0.763	70.81
0.755	70.714
0.747	70.738
0.739	70.03
0.731	70.25
0.723	69.167
0.715	69.279
0.707	68.96
0.699	68.734
0.691	68.711
0.683	68.302
0.675	67.801
0.667	67.64
0.659	67.211
0.651	67.35
0.643	66.506
0.635	66.506
0.627	65.885
0.619	65.79
0.611	64.773
0.603	64.528
0.595	64.445
0.587	64.26
0.579	64.177
0.571	63.536
0.563	62.826
0.555	61.286
0.547	61.612
0.539	61.119
0.531	60.749
0.523	60.54
0.515	59.695
0.507	59.106
0.499	58.97
0.491	58.462
0.483	57.477
0.475	56.497
0.467	55.266
0.459	54.251
0.451	52.381
0.443	49.9
0.435	48.962
0.427	47.596
0.419	45.374
0.411	43.576
0.403	41.108
