Name: Argillaceous Limestone
Type: Rock
Class: Sedimentary
Subclass: Limestone
Particle Size: Solid
Sample No.: Ward69
Owner: JPL
Wavelength Range: All
Origin: Ward's Collection of American Rocks.  Sample locality - Trenton Falls, Oneida County, New York.
Description: A black compact rock containing a few brachiopod shells andother fossils.Geologic age - Ordovician.Collected by:  Ward's Natural Science Original ASTER Spectral Library name was jpl.nicolet.rock.sedimentary.limestone.solid.ward69.spectrum.txt
Measurement: Hemispherical reflectance
X Units: Wavelength (micrometers)
Y Units: Reflectance (percent)
wavelength	value
15.3871	3.7153
15.118	3.5758
14.8581	3.8401
14.6069	4.0847
14.3642	3.8364
14.1293	3.619
13.9021	2.4632
13.682	3.5943
13.4687	4.1754
13.2621	4.1617
13.0616	4.1091
12.8672	4.0431
12.6784	4.0451
12.4951	4.5473
12.317	4.2628
12.1439	4.6506
11.9757	4.6858
11.812	4.4746
11.6527	5.102
11.4977	8.7574
11.3468	15.8901
11.1997	10.2352
11.0564	7.2866
10.9168	6.2381
10.7806	5.6808
10.6478	5.3828
10.5182	5.486
10.3917	5.8556
10.2683	5.7976
10.1477	6.138
10.0299	6.1775
9.9148	6.2367
9.8024	6.374
9.6925	6.4797
9.585	6.4228
9.4798	6.112
9.377	5.9839
9.2763	6.0698
9.1778	6.1271
9.0814	6.2352
8.987	6.2795
8.8945	6.5068
8.8039	6.5205
8.7151	6.0945
8.6281	5.5777
8.5428	5.8952
8.4592	5.6644
8.3772	6.2427
8.2967	6.4406
8.2179	6.6846
8.1404	6.6095
8.0645	6.4771
7.9899	6.6672
7.9167	6.4492
7.8449	6.7706
7.7743	6.6811
7.705	6.827
7.6369	6.7149
7.57	6.8477
7.5043	6.9443
7.4397	7.4523
7.3762	7.8492
7.3138	8.2842
7.2524	9.1486
7.1921	10.6635
7.1327	12.5709
7.0743	15.1309
7.0169	14.6679
6.9604	14.7599
6.9047	15.0279
6.85	15.5266
6.7962	16.534
6.7431	17.9301
6.6909	19.8693
6.6395	22.4797
6.5889	25.0768
6.539	27.1724
6.49	27.5981
6.4416	23.8143
6.3939	13.3063
6.347	7.385
6.3007	4.4455
6.2551	3.412
6.2101	2.6993
6.1658	2.227
6.1222	2.1011
6.0791	1.9176
6.0366	1.991
5.9948	1.9096
5.9535	1.9429
5.9127	1.9879
5.8726	2.1002
5.8329	2.1669
5.7938	2.3045
5.7552	2.3004
5.7172	2.4207
5.6796	2.6261
5.6425	2.8206
5.6059	2.5559
5.5698	1.9091
5.5341	2.405
5.4989	3.3989
5.4641	3.9698
5.4298	4.525
5.3959	4.8039
5.3624	5.1361
5.3294	5.483
5.2967	5.8957
5.2644	6.1327
5.2326	6.4725
5.2011	6.7549
5.17	7.0461
5.1392	7.1181
5.1088	6.7564
5.0788	7.2158
5.0491	7.3548
5.0198	7.3939
4.9908	7.6305
4.9622	7.7774
4.9338	7.874
4.9058	7.9284
4.8781	8.1381
4.8508	8.2822
4.8237	8.465
4.7969	8.4106
4.7704	8.3596
4.7443	8.068
4.7184	7.2721
4.6927	6.2894
4.6674	6.1338
4.6423	6.5991
4.6175	7.5109
4.593	7.8617
4.5687	8.0774
4.5447	8.274
4.5209	8.3007
4.4974	8.4214
4.4741	9.011
4.451	9.215
4.4282	9.6767
4.4057	9.9035
4.3833	10.0616
4.3612	10.0785
4.3393	9.9275
4.3176	10.0063
4.2962	10.1856
4.2749	10.3103
4.2539	10.2079
4.233	10.1704
4.2124	10.1327
4.192	9.8377
4.1717	9.8062
4.1517	9.4561
4.1319	9.0649
4.1122	8.6758
4.0927	8.2332
4.0734	7.5088
4.0543	6.9496
4.0354	5.5183
4.0166	4.7468
3.9981	4.022
3.9796	3.6779
3.9614	3.6475
3.9433	4.1784
3.9254	4.7255
3.9077	4.579
3.8901	4.7615
3.8726	4.8831
3.8554	4.9215
3.8382	5.1203
3.8213	5.7766
3.8045	6.8093
3.7878	8.6414
3.7713	9.5334
3.7549	10.1224
3.7386	10.5391
3.7225	11.0698
3.7066	11.0929
3.6907	11.1823
3.675	11.3505
3.6595	11.2148
3.644	11.1275
3.6287	10.8895
3.6136	10.3756
3.5985	10.0862
3.5836	9.2835
3.5688	8.7146
3.5541	8.6538
3.5396	7.4554
3.5251	6.2231
3.5108	5.0013
3.4966	4.5723
3.4825	4.6392
3.4685	4.4896
3.4547	5.3352
3.4409	5.0147
3.4273	5.2995
3.4137	5.1552
3.4003	5.232
3.387	5.1426
3.3738	5.1579
3.3606	5.1163
3.3476	4.9207
3.3347	6.2213
3.3219	7.6058
3.3092	8.2716
3.2965	8.2451
3.284	8.6755
3.2716	8.6421
3.2593	8.7891
3.247	9.1763
3.2348	8.9924
3.2228	9.2695
3.2108	9.0113
3.1989	8.8926
3.1871	8.8211
3.1754	8.658
3.1638	8.3783
3.1523	8.3124
3.1408	8.197
3.1294	8.5394
3.1181	8.2456
3.1069	7.6653
3.0958	7.96
3.0848	7.8678
3.0738	7.6857
3.0629	7.3524
3.0521	7.2923
3.0413	7.4544
3.0307	7.4795
3.0201	7.6054
3.0096	7.2432
2.9991	7.8401
2.9887	7.6724
2.9784	7.1658
2.9682	7.8943
2.9581	7.671
2.948	7.6631
2.9379	7.3762
2.928	7.8308
2.9181	8.3154
2.9083	7.8821
2.8985	8.2862
2.8888	8.3833
2.8792	8.5051
2.8697	8.5822
2.8602	8.5537
2.8507	8.6934
2.8413	8.585
2.832	8.6938
2.8228	9.1061
2.8136	9.5075
2.8045	9.4941
2.7954	9.8862
2.7864	8.1335
2.7774	8.8901
2.7685	8.8409
2.7597	8.3367
2.7509	9.4321
2.7422	9.3035
2.7335	10.3249
2.7249	11.8505
2.7163	13.2086
2.7078	14.4948
2.6994	15.7397
2.691	17.2178
2.6826	18.5385
2.6743	18.3282
2.666	18.6994
2.6578	19.1434
2.6497	18.9554
2.6416	19.2812
2.6336	19.1377
2.6256	19.3141
2.6176	19.338
2.6097	19.447
2.6018	19.3059
2.594	19.4268
2.5863	18.9943
2.5785	18.6094
2.5709	18.7426
2.5633	18.1748
2.5557	17.6016
2.5481	15.9464
2.5406	14.8414
2.5332	14.8269
2.5258	15.463
2.5184	16.2636
2.5111	16.338
2.5038	16.4746
2.4966	16.6693
2.4894	17.3819
2.4823	17.2027
2.4752	17.1308
2.4681	18.2565
2.4611	18.6823
2.4541	19.027
2.4471	18.8572
2.4402	19.8682
2.4333	19.6267
2.4265	19.4225
2.4197	19.8835
2.413	19.9479
2.4063	19.8092
2.3996	20.0001
2.3929	19.9134
2.3863	20.657
2.3798	19.629
2.3732	19.7381
2.3667	19.2695
2.3603	18.5052
2.3538	17.9278
2.3474	18.0285
2.3411	17.5086
2.3347	17.6981
2.3285	18.334
2.3222	18.7623
2.316	18.1373
2.3098	19.0885
2.3036	19.3005
2.2975	18.9218
2.2914	19.1141
2.2854	19.3429
2.2793	19.3884
2.2733	20.1178
2.2674	19.97
2.2614	20.3266
2.2555	19.8631
2.2497	20.6213
2.2438	20.2927
2.238	19.3657
2.2322	20.258
2.2265	20.8593
2.2208	20.0798
2.2151	20.5842
2.2094	20.266
2.2038	20.2866
2.1982	20.8131
2.1926	20.064
2.187	21.044
2.1815	20.5534
2.176	20.2358
2.1706	20.4413
2.1651	21.1281
2.1597	20.6807
2.1543	20.3119
2.149	20.5168
2.1436	21.3592
2.1383	21.0588
2.1331	20.9982
2.1278	20.981
2.1226	20.5322
2.1174	21.1475
2.1122	20.7359
2.1071	21.8669
2.1019	20.9868
2.0968	21.1423
2.0918	20.1999
2.0867	21.951
2.0817	21.9902
2.0767	22.2238
2.0717	22.6913
2.0667	20.0152
2.0618	19.2068
2.0569	19.9856
2.052	21.0026
2.0472	20.1301
2.0423	20.8702
2.0375	20.5606
2.0327	21.63
2.028	19.5282
2.0232	18.2584
2.0185	21.672
2.0138	20.8199
2.0091	19.7759
2.0044	20.1927
1.9998	22.2291
