Name: Phyllite
Type: rock
Class: Metamorphic
Subclass: Phyllite
Particle Size: Fine
Sample No.: phyllit1
Owner: JHU
Wavelength Range: All
Origin: Sample No. 473, The Hunt and Salisbury Collection at the U.S.Geological Survey, Denver, Co.
Description: This is a dark gray fine-grained to very fine-grained sample consisting of typical crenulated muscovite and quartz.  Opaques, which usually have been rotated, occur throughout the sample -- pyrite, and either magnetite or hematite.  There appear to be some carbonaceous granules scattered throughout the section as well.  Modes were 65.9% muscovite, 33.5% quartz, 0.5% opaque and a trace of carbonaceous material.  Particle size was 0-75 Micrometer. Original ASTER Spectral Library name was jhu.becknic.rock.metamorphic.phyllite.fine.phylli1.spectrum.txt
Measurement: Directional (10 Degree) Hemispherical Reflectance
X Units: Wavelength (micrometers)
Y Units: Reflectance (percent)
wavelength	value
14.983	3.0691
14.645	3.0052
14.321	2.465
14.011	3.3943
13.715	3.5631
13.43	3.2586
13.158	2.852
12.896	2.9325
12.644	2.7968
12.402	2.5927
12.169	2.856
11.945	3.8873
11.729	4.9926
11.52	5.1216
11.319	4.8966
11.125	4.4855
10.937	4.0327
10.755	3.8677
10.58	3.93
10.41	4.1388
10.245	4.2336
10.086	4.4488
9.9313	4.535
9.7814	4.6963
9.636	5.4217
9.4948	4.8569
9.3577	5.6762
9.2245	7.1123
9.095	7.2288
8.9691	6.8771
8.8467	6.6038
8.7275	6.0409
8.6116	5.119
8.4986	5.8126
8.3886	5.8048
8.2814	6.3239
8.1769	6.4876
8.075	4.9473
7.9756	3.8845
7.8786	3.2245
7.784	3.0388
7.6916	3.1191
7.6014	3.1733
7.5133	3.3235
7.4272	3.4397
7.343	3.597
7.2607	3.7604
7.1803	3.9465
7.1016	4.0093
7.0246	4.0517
6.9493	4.2148
6.8755	4.4661
6.8034	4.6241
6.7327	4.7195
6.6634	4.8651
6.5956	4.9577
6.5292	5.1048
6.464	5.4659
6.4002	5.546
6.3376	5.3582
6.2762	5.0859
6.216	4.949
6.157	5.3056
6.099	5.7404
6.0421	5.8794
5.9863	5.8316
5.9315	5.7243
5.8777	6.035
5.8249	6.3673
5.773	6.5631
5.722	6.663
5.6719	6.6088
5.6227	6.3033
5.5744	6.196
5.5268	6.3999
5.4801	6.6886
5.4341	6.7999
5.3889	6.2979
5.3445	5.9154
5.3008	6.0966
5.2578	6.5728
5.2154	7.1826
5.1738	7.3775
5.1328	7.4116
5.0925	7.4052
5.0528	7.3257
5.0137	7.3283
4.9752	7.5357
4.9373	7.8701
4.9	8.2123
4.8632	8.5332
4.827	8.6606
4.7913	8.7544
4.7561	8.8479
4.7215	8.9393
4.6873	8.976
4.6536	9.0639
4.6205	9.1662
4.5877	9.224
4.5555	9.2704
4.5237	9.2796
4.4923	9.264
4.4614	9.2877
4.4309	9.3751
4.4008	9.4293
4.3711	9.4958
4.3418	9.5368
4.3129	9.5709
4.2844	9.6045
4.2563	9.6308
4.2285	9.6607
4.2011	9.6697
4.174	9.7033
4.1473	9.7317
4.1209	9.7587
4.0949	9.7862
4.0692	9.8177
4.0438	9.8136
4.0187	9.8361
3.994	9.8615
3.9695	9.8669
3.9453	9.8968
3.9214	9.9167
3.8979	9.9321
3.8746	9.9394
3.8515	9.9496
3.8288	9.9519
3.8063	9.9647
3.7841	9.9737
3.7621	9.9643
3.7404	9.9631
3.7189	9.969
3.6977	9.9728
3.6767	9.9787
3.656	9.965
3.6355	9.9638
3.6152	9.9591
3.5951	9.9306
3.5753	9.9287
3.5557	9.8887
3.5363	9.8738
3.5171	9.9013
3.4981	9.9133
3.4793	9.9077
3.4607	9.9027
3.4423	9.8586
3.4241	9.8736
3.4061	9.834
3.3883	9.7632
3.3707	9.6815
3.3533	9.6192
3.336	9.5522
3.3189	9.4823
3.302	9.453
3.2853	9.3905
3.2687	9.4009
3.2523	9.381
3.2361	9.3438
3.22	9.2744
3.204	9.2022
3.1883	9.1345
3.1727	9.0674
3.1572	8.9817
3.1419	8.8598
3.1268	8.7641
3.1117	8.6156
3.0969	8.4574
3.0821	8.2822
3.0675	8.0825
3.0531	7.9172
3.0388	7.7676
3.0246	7.6406
3.0105	7.4969
2.9966	7.409
2.9828	7.3162
2.9692	7.2127
2.9556	7.1061
2.9422	6.9986
2.9289	6.8947
2.9157	6.9131
2.9027	7.0206
2.8897	7.2061
2.8769	7.3335
2.8642	7.3593
2.8516	7.3287
2.8391	7.2582
2.8267	7.1417
2.8144	7.0592
2.8022	7.078
2.7902	7.0865
2.7782	6.5375
2.7664	5.2971
2.7546	4.6809
2.7429	5.2171
2.7314	6.3848
2.7199	8.7117
2.7085	10.084
2.6973	10.366
2.6861	10.536
2.675	10.576
2.664	10.649
2.6531	10.755
2.6423	10.79
2.6315	10.768
2.6209	10.79
2.6103	10.84
2.5999	10.796
2.5895	10.837
2.5792	10.874
2.569	10.917
2.5588	10.932
2.5487	10.907
2.5388	10.959
2.5289	10.981
2.519	10.987
2.5093	10.958
2.4996	10.958
2.49	10.974
2.4805	10.955
2.471	11.017
2.4616	11.047
2.4523	11.018
2.4431	11.043
2.4339	11.021
2.4248	11.09
2.4157	11.092
2.4068	11.116
2.3979	11.123
2.389	11.125
2.3802	11.098
2.3715	11.116
2.3629	11.079
2.3543	11.113
2.3458	11.109
2.3373	11.117
2.3289	11.113
2.3206	11.173
2.3123	11.21
2.3041	11.254
2.2959	11.218
2.2878	11.23
2.2798	11.254
2.2718	11.232
2.2638	11.236
2.2559	11.221
2.2481	11.267
2.2403	11.278
2.2326	11.257
2.225	11.251
2.2173	11.239
2.2098	11.241
2.2023	11.233
2.1948	11.267
2.1874	11.281
2.18	11.342
2.1727	11.333
2.1655	11.407
2.1583	11.373
2.1511	11.405
2.144	11.296
2.1369	11.356
2.1299	11.399
2.1229	11.502
2.116	11.372
2.1091	11.415
2.1023	11.47
2.0955	11.384
2.0887	11.444
2.082	11.444
2.06	11.488
2.028	11.366
1.996	11.298
1.964	11.5
1.932	11.392
1.9	11.522
1.868	11.491
1.836	11.56
1.804	11.495
1.772	11.465
1.74	11.451
1.708	11.594
1.676	11.734
1.644	11.691
1.612	11.602
1.58	11.811
1.548	11.547
1.516	11.622
1.484	11.593
1.452	11.779
1.42	11.817
1.388	11.605
1.356	11.86
1.324	11.901
1.292	11.722
1.26	11.998
1.228	11.985
1.196	11.916
1.164	11.869
1.132	11.956
1.1	12.158
1.068	12.001
1.036	12.098
1.004	12.175
0.972	12.064
0.94	12.111
0.908	12.144
0.876	12.079
0.844	11.925
0.812	12.102
0.795	12.03
0.787	12.013
0.779	12.143
0.771	11.957
0.763	12.192
0.755	12.113
0.747	12.077
0.739	11.821
0.731	12.059
0.723	12.099
0.715	12.212
0.707	12.036
0.699	12.294
0.691	12.383
0.683	11.982
0.675	12.413
0.667	12.322
0.659	12.282
0.651	12.463
0.643	12.565
0.635	12.073
0.627	12.254
0.619	12.596
0.611	12.282
0.603	12.484
0.595	12.322
0.587	12.497
0.579	12.497
0.571	12.627
0.563	12.536
0.555	12.417
0.547	12.212
0.539	12.369
0.531	11.995
0.523	11.993
0.515	12.34
0.507	11.97
0.499	11.918
0.491	11.928
0.483	11.703
0.475	11.497
0.467	11.347
0.459	10.986
0.451	10.906
0.443	10.564
0.435	10.63
0.427	10.499
0.419	10.155
0.411	9.5536
0.403	9.5899
