Name: Aplite
Type: Rock
Class: Igneous
Subclass: Felsic
Particle Size: Solid
Sample No.: Ward16
Owner: JPL
Wavelength Range: All
Origin: Ward's Collection of American Rocks.  Sample locality - Boulder County, Colorado.
Description: A fine-grained pink rock composed of quartz, glassy feldsparand biotite.  The hand specimen occasionally has irregular stringers andpatches of coarser grain.Geologic age - Pre-Cambrian.Collected by:  Ward's Natural Science Original ASTER Spectral Library name was jpl.nicolet.rock.igneous.felsic.solid.ward16.spectrum.txt
Measurement: Hemispherical reflectance
X Units: Wavelength (micrometers)
Y Units: Reflectance (percent)
wavelength	value
15.3871	6.7096
15.118	4.8134
14.8581	3.9524
14.6069	5.1059
14.3642	4.809
14.1293	5.4481
13.9021	5.9222
13.682	6.4925
13.4687	6.1588
13.2621	6.1679
13.0616	8.2509
12.8672	10.1441
12.6784	7.6076
12.4951	9.1584
12.317	3.4938
12.1439	3.4574
11.9757	4.904
11.812	5.8381
11.6527	6.1
11.4977	6.7544
11.3468	7.0322
11.1997	7.8479
11.0564	7.8713
10.9168	8.8663
10.7806	9.6151
10.6478	9.7183
10.5182	11.0528
10.3917	12.5069
10.2683	14.4046
10.1477	17.5995
10.0299	21.4086
9.9148	25.1167
9.8024	25.7612
9.6925	26.6035
9.585	29.0199
9.4798	30.7888
9.377	33.287
9.2763	38.131
9.1778	38.6771
9.0814	35.7502
8.987	33.9173
8.8945	35.3929
8.8039	35.6786
8.7151	35.3734
8.6281	29.5161
8.5428	35.3619
8.4592	34.8064
8.3772	33.2167
8.2967	29.3462
8.2179	25.0576
8.1404	19.2811
8.0645	11.0765
7.9899	6.687
7.9167	4.2266
7.8449	2.6063
7.7743	2.0137
7.705	1.5191
7.6369	1.0722
7.57	1.1341
7.5043	1.2931
7.4397	0.9332
7.3762	1.0123
7.3138	0.9335
7.2524	1.1634
7.1921	1.0121
7.1327	1.6824
7.0743	1.3078
7.0169	1.7643
6.9604	1.6882
6.9047	1.38
6.85	1.4103
6.7962	1.6723
6.7431	1.7596
6.6909	1.872
6.6395	1.9804
6.5889	1.8638
6.539	1.6843
6.49	2.1738
6.4416	2.3387
6.3939	2.5029
6.347	2.1144
6.3007	2.3133
6.2551	2.1981
6.2101	2.4427
6.1658	2.3771
6.1222	2.4507
6.0791	2.3775
6.0366	2.4781
5.9948	2.4743
5.9535	2.4602
5.9127	2.4267
5.8726	2.7809
5.8329	2.7482
5.7938	2.7895
5.7552	2.8267
5.7172	2.9073
5.6796	3.0582
5.6425	2.6696
5.6059	2.8046
5.5698	2.6919
5.5341	2.95
5.4989	3.049
5.4641	3.3628
5.4298	2.999
5.3959	3.2235
5.3624	3.3254
5.3294	3.5216
5.2967	3.3721
5.2644	3.6247
5.2326	3.8249
5.2011	3.6626
5.17	3.7844
5.1392	4.1172
5.1088	4.1553
5.0788	4.3175
5.0491	4.2495
5.0198	4.7068
4.9908	4.4045
4.9622	4.7479
4.9338	4.8137
4.9058	4.9993
4.8781	5.1917
4.8508	5.4621
4.8237	5.9047
4.7969	5.9872
4.7704	6.3076
4.7443	6.0085
4.7184	6.1953
4.6927	6.2334
4.6674	6.3553
4.6423	6.636
4.6175	6.9461
4.593	7.4344
4.5687	7.4429
4.5447	7.7716
4.5209	7.6454
4.4974	7.6697
4.4741	7.6766
4.451	8.1229
4.4282	8.0483
4.4057	8.8851
4.3833	9.1657
4.3612	9.8318
4.3393	10.3932
4.3176	10.7426
4.2962	10.9571
4.2749	11.6128
4.2539	11.9356
4.233	12.3806
4.2124	12.6019
4.192	12.4294
4.1717	13.063
4.1517	12.951
4.1319	13.97
4.1122	14.153
4.0927	14.1516
4.0734	14.6599
4.0543	14.6104
4.0354	15.0166
4.0166	15.1666
3.9981	15.543
3.9796	15.1413
3.9614	15.3084
3.9433	15.621
3.9254	16.2641
3.9077	15.9809
3.8901	15.8729
3.8726	15.8958
3.8554	16.4169
3.8382	16.3066
3.8213	16.3786
3.8045	16.32
3.7878	16.961
3.7713	16.3806
3.7549	16.6355
3.7386	16.4512
3.7225	16.8036
3.7066	16.7333
3.6907	16.4065
3.675	16.8167
3.6595	16.8727
3.644	17.167
3.6287	17.0916
3.6136	17.1424
3.5985	16.6787
3.5836	16.1658
3.5688	16.2139
3.5541	16.2823
3.5396	15.7846
3.5251	15.8564
3.5108	14.8257
3.4966	15.0745
3.4825	14.3066
3.4685	14.5492
3.4547	13.8729
3.4409	14.5731
3.4273	13.7701
3.4137	13.394
3.4003	12.6256
3.387	12.6673
3.3738	12.7199
3.3606	12.8019
3.3476	12.4603
3.3347	11.8665
3.3219	11.8208
3.3092	11.7782
3.2965	11.0033
3.284	12.2608
3.2716	10.6979
3.2593	10.7598
3.247	10.6568
3.2348	10.6083
3.2228	10.096
3.2108	9.9828
3.1989	8.8727
3.1871	8.8651
3.1754	9.1926
3.1638	9.4007
3.1523	8.4978
3.1408	9.0389
3.1294	7.8111
3.1181	8.4345
3.1069	8.159
3.0958	8.8152
3.0848	7.9707
3.0738	7.4792
3.0629	8.4603
3.0521	8.7419
3.0413	6.8507
3.0307	7.3495
3.0201	8.1135
3.0096	8.1606
2.9991	7.9999
2.9887	7.2907
2.9784	7.3663
2.9682	8.1257
2.9581	7.8093
2.948	7.1891
2.9379	8.1837
2.928	7.3452
2.9181	7.4855
2.9083	6.5019
2.8985	6.9608
2.8888	7.5514
2.8792	6.6866
2.8697	8.8978
2.8602	8.6991
2.8507	7.5392
2.8413	8.3408
2.832	7.7906
2.8228	8.7021
2.8136	8.0107
2.8045	8.2786
2.7954	9.0049
2.7864	7.8191
2.7774	8.7459
2.7685	7.6975
2.7597	7.4762
2.7509	8.9627
2.7422	9.1049
2.7335	9.1212
2.7249	8.7744
2.7163	9.4079
2.7078	10.4925
2.6994	11.5397
2.691	14.9744
2.6826	19.0784
2.6743	20.842
2.666	21.8302
2.6578	23.7732
2.6497	24.3223
2.6416	24.5893
2.6336	23.9082
2.6256	24.4879
2.6176	26.304
2.6097	25.7763
2.6018	25.5014
2.594	26.678
2.5863	25.1106
2.5785	26.4064
2.5709	26.3886
2.5633	25.4681
2.5557	25.8999
2.5481	27.1832
2.5406	27.2522
2.5332	27.534
2.5258	27.4949
2.5184	26.726
2.5111	27.4774
2.5038	27.4602
2.4966	27.144
2.4894	27.3762
2.4823	27.8127
2.4752	27.7381
2.4681	27.7123
2.4611	27.8983
2.4541	27.4913
2.4471	28.8817
2.4402	28.5761
2.4333	28.2487
2.4265	28.1938
2.4197	29.323
2.413	29.0012
2.4063	28.4787
2.3996	30.3016
2.3929	29.2602
2.3863	30.8942
2.3798	30.6631
2.3732	29.2755
2.3667	30.9679
2.3603	30.7061
2.3538	29.8411
2.3474	31.7161
2.3411	30.3009
2.3347	31.0263
2.3285	31.9534
2.3222	31.5709
2.316	33.2118
2.3098	32.0275
2.3036	32.009
2.2975	34.7199
2.2914	34.044
2.2854	34.0748
2.2793	33.2649
2.2733	33.367
2.2674	33.3897
2.2614	33.5105
2.2555	35.9208
2.2497	35.3376
2.2438	33.0296
2.238	32.1754
2.2322	33.2021
2.2265	32.7214
2.2208	34.1388
2.2151	31.2159
2.2094	31.6722
2.2038	30.2899
2.1982	30.9922
2.1926	30.635
2.187	34.9408
2.1815	31.5164
2.176	33.6433
2.1706	32.9634
2.1651	32.532
2.1597	34.1892
2.1543	34.5589
2.149	33.6126
2.1436	33.9792
2.1383	35.2756
2.1331	36.0754
2.1278	34.3318
2.1226	35.511
2.1174	36.2716
2.1122	37.1922
2.1071	34.9203
2.1019	37.8045
2.0968	33.1433
2.0918	34.5328
2.0867	35.9845
2.0817	35.8142
2.0767	33.9505
2.0717	36.6778
2.0667	35.8261
2.0618	35.0237
2.0569	33.7364
2.052	36.0355
2.0472	36.3148
2.0423	35.1927
2.0375	34.6465
2.0327	35.237
2.028	36.3882
2.0232	32.9816
2.0185	37.3976
2.0138	35.8648
2.0091	35.0217
2.0044	37.5757
1.9998	35.4988
