Name: Limestone CaCO3
Type: Rock
Class: Sedimentary
Subclass: Limestone
Particle Size: Solid
Sample No.: ro354
Owner: Larry Rowan, USGS
Wavelength Range: All
Origin: Ronda, Spain
Description: white limestone Sample was Whole rock chips. Original ASTER Spectral Library name was usgs.perknic.rock.sedimentary.limestone.solid.ls354.spectrum.txt
Measurement: Reflectance
X Units: Wavelength (micrometers)
Y Units: Reflectance (percent)
wavelength	value
0.4	0.5503
0.408	0.5575
0.416	0.5623
0.424	0.5693
0.432	0.5783
0.44	0.5877
0.448	0.588
0.456	0.5962
0.464	0.5965
0.472	0.5985
0.48	0.6008
0.488	0.6015
0.496	0.6105
0.504	0.6128
0.512	0.6152
0.52	0.6248
0.528	0.624
0.536	0.625
0.544	0.6265
0.552	0.6285
0.56	0.6345
0.568	0.637
0.576	0.6462
0.584	0.6445
0.592	0.6445
0.6	0.6418
0.608	0.643
0.616	0.6382
0.624	0.646
0.632	0.6478
0.64	0.6445
0.648	0.6422
0.656	0.6485
0.664	0.6455
0.672	0.6425
0.68	0.6498
0.688	0.6482
0.696	0.6528
0.704	0.6518
0.712	0.652
0.72	0.6548
0.728	0.6567
0.736	0.6575
0.744	0.6535
0.752	0.6565
0.76	0.6552
0.768	0.6573
0.776	0.6555
0.784	0.6535
0.792	0.658
0.8	0.656
0.832	0.6558
0.864	0.6565
0.896	0.659
0.928	0.6567
0.96	0.6587
0.992	0.661
1.024	0.665
1.056	0.67
1.088	0.673
1.12	0.6775
1.152	0.6787
1.184	0.683
1.216	0.6837
1.248	0.6853
1.28	0.6867
1.312	0.6855
1.344	0.6813
1.376	0.6623
1.408	0.6142
1.44	0.6052
1.472	0.613
1.504	0.6338
1.536	0.6462
1.568	0.6565
1.6	0.6587
1.632	0.6605
1.664	0.658
1.696	0.6492
1.728	0.6372
1.76	0.6398
1.792	0.636
1.824	0.6125
1.856	0.5537
1.888	0.501
1.92	0.4545
1.952	0.4522
1.984	0.4595
2.016	0.5212
2.048	0.5565
2.08	0.5635
2.1021	0.5704
2.109	0.5654
2.1159	0.567
2.1228	0.5621
2.1298	0.5567
2.1368	0.5476
2.1438	0.5229
2.1509	0.5105
2.1581	0.5099
2.1653	0.5133
2.1726	0.5296
2.1799	0.5361
2.1872	0.5406
2.1946	0.5401
2.2021	0.5335
2.2096	0.5204
2.2172	0.5111
2.2248	0.4987
2.2324	0.4786
2.2401	0.4618
2.2479	0.4415
2.2557	0.4204
2.2636	0.3947
2.2715	0.3748
2.2795	0.3445
2.2876	0.3211
2.2957	0.3036
2.3038	0.2946
2.3121	0.2853
2.3203	0.2723
2.3287	0.2561
2.3371	0.244
2.3455	0.2498
2.354	0.2787
2.3626	0.3339
2.3712	0.3823
2.38	0.4178
2.3887	0.4288
2.3976	0.4217
2.4065	0.4183
2.4154	0.4103
2.4245	0.3888
2.4336	0.3655
2.4427	0.3403
2.452	0.3167
2.4613	0.2879
2.4707	0.2587
2.4801	0.2331
2.4896	0.2195
2.4992	0.2136
2.5089	0.2082
2.5187	0.1972
2.5285	0.1779
2.5384	0.1742
2.5484	0.1991
2.5584	0.2528
2.5686	0.2975
2.5788	0.3241
2.5891	0.3457
2.5995	0.3665
2.6099	0.3745
2.6205	0.3768
2.6311	0.3742
2.6418	0.3691
2.6526	0.359
2.6635	0.3449
2.6745	0.324
2.6856	0.2959
2.6968	0.2566
2.708	0.2146
2.7194	0.163
2.7309	0.1555
2.7424	0.1402
2.7541	0.1293
2.7658	0.1191
2.7777	0.1084
2.7896	0.1025
2.8017	0.1028
2.8138	0.1018
2.8261	0.0985
2.8385	0.0957
2.851	0.0932
2.8636	0.0898
2.8763	0.0881
2.8891	0.0861
2.902	0.0838
2.915	0.0833
2.9282	0.082
2.9415	0.0813
2.9549	0.0814
2.9684	0.0818
2.9821	0.0814
2.9959	0.0823
3.0098	0.0834
3.0238	0.0838
3.038	0.084
3.0523	0.0839
3.0667	0.0847
3.0813	0.0848
3.096	0.0851
3.1109	0.0851
3.1259	0.0883
3.141	0.0898
3.1563	0.092
3.1718	0.0966
3.1874	0.0998
3.2031	0.1017
3.219	0.1028
3.2351	0.1032
3.2513	0.1027
3.2677	0.1016
3.2843	0.0989
3.301	0.0921
3.3179	0.0861
3.3349	0.0705
3.3522	0.0577
3.3696	0.0587
3.3872	0.0581
3.405	0.057
3.423	0.0564
3.4412	0.0577
3.4595	0.0562
3.4781	0.052
3.4968	0.0556
3.5158	0.0626
3.535	0.0801
3.5544	0.0929
3.574	0.0971
3.5938	0.1142
3.6138	0.1241
3.6341	0.1299
3.6545	0.1339
3.6753	0.1359
3.6962	0.1343
3.7174	0.1303
3.7389	0.1209
3.7605	0.1116
3.7825	0.0959
3.8047	0.072
3.8272	0.0638
3.8499	0.0593
3.8729	0.0576
3.8962	0.0568
3.9197	0.0544
3.9436	0.0495
3.9677	0.0449
3.9921	0.0491
4.0169	0.0587
4.0419	0.0706
4.0673	0.0812
4.093	0.09
4.119	0.0977
4.1453	0.1064
4.172	0.1121
4.199	0.1169
4.2264	0.1194
4.2541	0.1199
4.2822	0.1216
4.3107	0.1176
4.3395	0.1175
4.3688	0.1237
4.3984	0.121
4.4285	0.1135
4.4589	0.1045
4.4898	0.0954
4.5211	0.0917
4.5529	0.0903
4.5851	0.088
4.6177	0.0808
4.6509	0.0681
4.6845	0.068
4.7186	0.0835
4.7532	0.0966
4.7883	0.1004
4.8239	0.0997
4.8601	0.0977
4.8968	0.0959
4.9341	0.094
4.9719	0.0936
5.0103	0.0931
5.0493	0.0919
5.089	0.074
5.1292	0.0849
5.1702	0.0816
5.2117	0.0768
5.254	0.0711
5.2969	0.0654
5.3405	0.0587
5.3849	0.0522
5.43	0.0456
5.4759	0.0378
5.5225	0.0306
5.57	0.0254
5.6182	0.0319
5.6673	0.03
5.7173	0.0267
5.7682	0.025
5.82	0.0248
5.8727	0.0236
5.9264	0.0218
5.9811	0.0196
6.0368	0.0191
6.0935	0.019
6.1513	0.0211
6.2103	0.0275
6.2703	0.0432
6.3316	0.0821
6.394	0.1839
6.4577	0.3476
6.5227	0.351
6.589	0.3198
6.6566	0.2845
6.7257	0.2515
6.7962	0.2252
6.8682	0.2072
6.9418	0.1932
7.0169	0.1909
7.0937	0.176
7.1722	0.1312
7.2524	0.1071
7.3345	0.0998
7.4184	0.0939
7.5043	0.0888
7.5922	0.0854
7.6821	0.0858
7.7743	0.0842
7.8686	0.0821
7.9653	0.0808
8.0644	0.0774
8.166	0.0782
8.2701	0.0755
8.377	0.0708
8.4867	0.068
8.5992	0.0669
8.7149	0.0727
8.8336	0.077
8.9556	0.0775
9.0811	0.0766
9.2101	0.0698
9.3428	0.0749
9.4795	0.0741
9.6201	0.0723
9.765	0.0669
9.9144	0.0625
10.0684	0.063
10.2272	0.0662
10.3911	0.0692
10.5604	0.0669
10.7353	0.0701
10.9161	0.0819
11.103	0.092
11.2965	0.159
11.4968	0.0732
11.7044	0.0617
11.9196	0.0628
12.1429	0.0601
12.3747	0.0562
12.6155	0.0527
12.8659	0.0503
13.1264	0.0505
13.3977	0.0493
13.6804	0.0388
13.9753	0.0396
