Name: Hornblende Schist
Type: rock
Class: Metamorphic
Subclass: Schist
Particle Size: Fine
Sample No.: schist9
Owner: JHU
Wavelength Range: All
Origin: Sample No. 393, The Hunt and Salisbury Collection at the U.S.Geological Survey, Denver, Co.
Description: This low grade schist is a very coarse-grained rock composed of bands of acicular hornblende and feldspar.  Microscopically there are large hornblende subhedra associated with serpophite and chlorite.  In addition to the alkali feldspar anhedra there are small muscovite subhedra, and scattered magnetite.  Calcite crystals and grains occur throughout the sample, often associated with the hornblende or serpophite/chlorite. Particle size was 0-75 Micrometer.  Original ASTER Spectral Library name was jhu.becknic.rock.metamorphic.schist.fine.schist9.spectrum.txt
Measurement: Directional (10 Degree) Hemispherical Reflectance
X Units: Wavelength (micrometers)
Y Units: Reflectance (percent)
wavelength	value
14.983	1.6293
14.645	1.6634
14.321	1.7941
14.011	1.9556
13.715	2.1105
13.43	2.3587
13.158	2.2528
12.896	2.3959
12.644	2.6258
12.402	3.0185
12.169	3.7419
11.945	4.2996
11.729	4.4299
11.52	4.1883
11.319	4.1078
11.125	3.7327
10.937	3.5129
10.755	3.5717
10.58	3.7426
10.41	4.0169
10.245	4.3685
10.086	4.7979
9.9313	4.9755
9.7814	4.8839
9.636	4.9348
9.4948	4.9097
9.3577	5.2538
9.2245	5.2907
9.095	5.1455
8.9691	4.9717
8.8467	4.8749
8.7275	4.9547
8.6116	4.9087
8.4986	5.3842
8.3886	5.8318
8.2814	6.5754
8.1769	6.8212
8.075	6.287
7.9756	6.2628
7.8786	6.394
7.784	6.7864
7.6916	7.365
7.6014	7.702
7.5133	8.2189
7.4272	8.5351
7.343	8.591
7.2607	8.3402
7.1803	8.0551
7.1016	8.3212
7.0246	8.2225
6.9493	7.9002
6.8755	8.0063
6.8034	8.4321
6.7327	8.9805
6.6634	9.9354
6.5956	11.169
6.5292	12.533
6.464	14.012
6.4002	14.334
6.3376	13.346
6.2762	12.509
6.216	12.162
6.157	12.673
6.099	13.402
6.0421	13.763
5.9863	13.913
5.9315	13.899
5.8777	14.61
5.8249	15.37
5.773	15.99
5.722	16.404
5.6719	16.61
5.6227	16.356
5.5744	15.183
5.5268	16.692
5.4801	18.653
5.4341	20.197
5.3889	19.85
5.3445	19.606
5.3008	20.445
5.2578	21.946
5.2154	23.927
5.1738	25.035
5.1328	25.796
5.0925	26.258
5.0528	26.596
5.0137	26.994
4.9752	27.888
4.9373	29.223
4.9	31.09
4.8632	32.88
4.827	34.493
4.7913	35.821
4.7561	37.448
4.7215	39.006
4.6873	39.782
4.6536	40.958
4.6205	42.483
4.5877	44.086
4.5555	45.632
4.5237	46.678
4.4923	47.178
4.4614	47.662
4.4309	48.665
4.4008	50.042
4.3711	51.302
4.3418	52.132
4.3129	52.698
4.2844	53.113
4.2563	53.626
4.2285	53.969
4.2011	54.287
4.174	54.475
4.1473	54.626
4.1209	54.601
4.0949	54.325
4.0692	53.495
4.0438	51.423
4.0187	47.253
3.994	41.876
3.9695	39.667
3.9453	42.336
3.9214	45.127
3.8979	46.629
3.8746	47.581
3.8515	48.885
3.8288	48.632
3.8063	49.825
3.7841	52.274
3.7621	53.68
3.7404	54.018
3.7189	53.941
3.6977	53.807
3.6767	53.595
3.656	53.266
3.6355	52.854
3.6152	52.347
3.5951	51.676
3.5753	50.632
3.5557	49.511
3.5363	48.059
3.5171	45.138
3.4981	42.487
3.4793	40.744
3.4607	41.218
3.4423	41.832
3.4241	41.972
3.4061	41.707
3.3883	41.437
3.3707	40.66
3.3533	39.758
3.336	40.341
3.3189	40.582
3.302	41.296
3.2853	41.113
3.2687	40.481
3.2523	39.637
3.2361	38.7
3.22	37.622
3.204	36.37
3.1883	35.071
3.1727	33.707
3.1572	32.264
3.1419	30.725
3.1268	29.208
3.1117	27.642
3.0969	26.147
3.0821	24.704
3.0675	23.344
3.0531	22.083
3.0388	20.858
3.0246	19.717
3.0105	18.522
2.9966	17.523
2.9828	16.651
2.9692	15.964
2.9556	15.441
2.9422	15.14
2.9289	14.964
2.9157	14.98
2.9027	15.263
2.8897	15.852
2.8769	16.451
2.8642	16.784
2.8516	16.796
2.8391	16.468
2.8267	16.068
2.8144	15.797
2.8022	15.855
2.7902	16.258
2.7782	13.882
2.7664	11.828
2.7546	10.315
2.7429	12.689
2.7314	16.236
2.7199	22.218
2.7085	33.184
2.6973	43.584
2.6861	52.008
2.675	54.412
2.664	55.248
2.6531	56.205
2.6423	56.731
2.6315	56.783
2.6209	56.894
2.6103	57.316
2.5999	57.712
2.5895	58.041
2.5792	58.19
2.569	58.089
2.5588	58.136
2.5487	58.162
2.5388	58.146
2.5289	58.158
2.519	58.23
2.5093	58.293
2.4996	58.35
2.49	58.522
2.4805	58.728
2.471	58.958
2.4616	59.148
2.4523	59.098
2.4431	58.965
2.4339	58.828
2.4248	58.854
2.4157	58.909
2.4068	58.807
2.3979	58.701
2.389	58.598
2.3802	58.047
2.3715	57.059
2.3629	55.454
2.3543	53.95
2.3458	53.303
2.3373	53.821
2.3289	54.84
2.3206	55.602
2.3123	56.394
2.3041	57.577
2.2959	58.896
2.2878	60.478
2.2798	61.335
2.2718	61.018
2.2638	60.068
2.2559	59.563
2.2481	60.823
2.2403	62.841
2.2326	63.991
2.225	64.35
2.2173	64.171
2.2098	63.103
2.2023	62.103
2.1948	62.216
2.1874	63.08
2.18	64.376
2.1727	65.485
2.1655	66.231
2.1583	66.663
2.1511	66.787
2.144	66.902
2.1369	67.043
2.1299	67.103
2.1229	67.246
2.116	67.285
2.1091	67.465
2.1023	67.442
2.0955	67.646
2.0887	67.732
2.082	67.75
2.06	67.823
2.028	66.677
1.996	65.133
1.964	65.209
1.932	64.535
1.9	65.011
1.868	64.727
1.836	65.246
1.804	63.865
1.772	63.381
1.74	62.47
1.708	62.259
1.676	61.413
1.644	60.606
1.612	58.483
1.58	58.289
1.548	56.464
1.516	55.213
1.484	53.76
1.452	52.641
1.42	50.314
1.388	47.671
1.356	47.408
1.324	45.094
1.292	42.86
1.26	40.947
1.228	38.939
1.196	36.247
1.164	34.25
1.132	33.08
1.1	32.256
1.068	31.258
1.036	30.602
1.004	29.827
0.972	28.761
0.94	27.646
0.908	26.408
0.876	25.517
0.844	25.326
0.812	25.478
0.795	25.903
0.787	25.662
0.779	25.558
0.771	25.134
0.763	24.954
0.755	24.512
0.747	24.327
0.739	24.026
0.731	24.005
0.723	23.61
0.715	23.553
0.707	23.304
0.699	23.574
0.691	23.274
0.683	23.274
0.675	23.34
0.667	23.262
0.659	23.498
0.651	23.33
0.643	23.655
0.635	23.352
0.627	23.608
0.619	24.33
0.611	24.509
0.603	24.104
0.595	24.433
0.587	24.601
0.579	24.808
0.571	25.01
0.563	25.339
0.555	25.568
0.547	25.397
0.539	25.786
0.531	25.452
0.523	25.501
0.515	25.614
0.507	25.3
0.499	24.663
0.491	24.539
0.483	24.187
0.475	23.472
0.467	22.843
0.459	23.195
0.451	22.333
0.443	21.504
0.435	21.574
0.427	20.378
0.419	19.767
0.411	18.66
0.403	18.15
