Name: Sandstone (Flagstone)
Type: Rock
Class: Sedimentary
Subclass: Sandstone
Particle Size: Solid
Sample No.: Ward61
Owner: JPL
Wavelength Range: VSWIR
Origin: Ward's Collection of American Rocks.  Sample locality - near Masonville, Delaware County, New York.
Description: A very fine, brownish sandstone.  Quartz grains, mica flakesand numerous specks of limonite are often apparent.Geologic age - Middle Devonian.Collected by:  Ward's Natural Science Original ASTER Spectral Library name was jpl.perkin.rock.sedimentary.sandstone.solid.ward61.spectrum.txt
Measurement: Hemispherical reflectance
X Units: Wavelength (micrometers)
Y Units: Reflectance (percent)
wavelength	value
2.5	14.7121
2.494	14.5103
2.488	14.4668
2.482	14.7222
2.476	14.7193
2.47	14.582
2.464	14.5811
2.458	14.603
2.452	14.6759
2.446	14.6115
2.44	14.5871
2.434	14.5623
2.428	14.7619
2.422	14.8106
2.416	14.9511
2.41	15.0908
2.404	15.1045
2.398	15.1376
2.392	15.1625
2.386	15.1522
2.38	15.1948
2.374	15.0463
2.368	15.0522
2.362	14.9251
2.356	14.9381
2.35	14.84
2.344	14.9314
2.338	15.0604
2.332	15.2275
2.326	15.4013
2.32	15.6094
2.314	15.761
2.308	15.9259
2.302	16.0286
2.296	16.1692
2.29	16.1961
2.284	16.1938
2.278	16.2953
2.272	16.2079
2.266	16.1043
2.26	15.9999
2.254	15.9395
2.248	16.0545
2.242	15.99
2.236	16.0761
2.23	15.9833
2.224	15.9027
2.218	15.8418
2.212	15.778
2.206	15.5394
2.2	15.7374
2.194	15.9089
2.188	16.1523
2.182	16.4895
2.176	16.7698
2.17	16.9846
2.164	17.2075
2.158	17.2653
2.152	17.3426
2.146	17.3756
2.14	17.4006
2.134	17.4403
2.128	17.3542
2.122	17.3275
2.116	17.3037
2.11	17.2525
2.104	17.2215
2.098	17.2568
2.092	17.2909
2.086	17.3469
2.08	17.4007
2.074	17.4141
2.068	17.4308
2.062	17.511
2.056	17.4938
2.05	17.5338
2.044	17.4855
2.038	17.5419
2.032	17.5496
2.026	17.5134
2.02	17.5563
2.014	17.47
2.008	17.5294
2.002	17.4621
1.996	17.5241
1.99	17.5466
1.984	17.5025
1.978	17.6456
1.972	17.6617
1.966	17.678
1.96	17.6056
1.954	17.6788
1.948	17.7431
1.942	17.8229
1.936	17.9024
1.93	17.7737
1.924	17.8225
1.918	17.7314
1.912	17.8225
1.906	17.8919
1.9	17.9992
1.894	18.0064
1.888	18.1322
1.882	18.195
1.876	18.2781
1.87	18.2943
1.864	18.3146
1.858	18.3277
1.852	18.2854
1.846	18.3857
1.84	18.4483
1.834	18.3549
1.828	18.3858
1.822	18.3943
1.816	18.3694
1.81	18.3714
1.804	18.3661
1.798	18.3694
1.792	18.428
1.786	18.4005
1.78	18.4039
1.774	18.4406
1.768	18.4973
1.762	18.4517
1.756	18.446
1.75	18.4716
1.744	18.4604
1.738	18.4969
1.732	18.5446
1.726	18.5635
1.72	18.5242
1.714	18.4842
1.708	18.5338
1.702	18.4791
1.696	18.464
1.69	18.462
1.684	18.4624
1.678	18.4523
1.672	18.4041
1.666	18.3155
1.66	18.3611
1.654	18.4465
1.648	18.3736
1.642	18.5276
1.636	18.3914
1.63	18.3582
1.624	18.3633
1.618	18.3483
1.612	18.4158
1.606	18.3171
1.6	18.3193
1.594	18.2995
1.588	18.2871
1.582	18.2395
1.576	18.2479
1.57	18.2501
1.564	18.2877
1.558	18.2548
1.552	18.2453
1.546	18.219
1.54	18.2317
1.534	18.2311
1.528	18.2001
1.522	18.192
1.516	18.2406
1.51	18.1808
1.504	18.2063
1.498	18.1406
1.492	18.1524
1.486	18.1744
1.48	18.0283
1.474	18.0845
1.468	18.1082
1.462	18.0281
1.456	18.0172
1.45	17.9892
1.444	17.9523
1.438	17.9115
1.432	17.8487
1.426	17.648
1.42	17.3668
1.414	16.9892
1.408	17.0439
1.402	17.3599
1.396	17.6694
1.39	17.9683
1.384	18.1011
1.378	17.9563
1.372	17.9471
1.366	17.9339
1.36	18.0341
1.354	17.9318
1.348	17.9015
1.342	17.6637
1.336	17.7107
1.33	17.6374
1.324	17.5962
1.318	17.5828
1.312	17.6
1.306	17.5134
1.3	17.4588
1.294	17.4249
1.288	17.433
1.282	17.3762
1.276	17.3362
1.27	17.2701
1.264	17.2829
1.258	17.2285
1.252	17.1731
1.246	17.1331
1.24	17.0944
1.234	17.0853
1.228	17.0215
1.222	17.0013
1.216	16.9195
1.21	16.8875
1.204	16.8664
1.198	16.8147
1.192	16.803
1.186	16.7641
1.18	16.7134
1.174	16.7295
1.168	16.7139
1.162	16.6481
1.156	16.6318
1.15	16.5712
1.144	16.5299
1.138	16.4674
1.132	16.5047
1.126	16.5618
1.12	16.537
1.114	16.5525
1.108	16.4492
1.102	16.4777
1.096	16.5012
1.09	16.4607
1.084	16.4681
1.078	16.458
1.072	16.5369
1.066	16.4712
1.06	16.4129
1.054	16.5354
1.048	16.55
1.042	16.5914
1.036	16.612
1.03	16.6502
1.024	16.6264
1.018	16.66
1.012	16.6643
1.006	16.6857
1	16.6962
0.994	16.7108
0.988	16.72
0.982	16.7175
0.976	16.7188
0.97	16.739
0.964	16.7179
0.958	16.7446
0.952	16.7866
0.946	16.6859
0.94	16.7529
0.934	16.736
0.928	16.7619
0.922	16.7221
0.916	16.7189
0.91	16.7458
0.904	16.7545
0.898	16.8229
0.892	16.8197
0.886	16.786
0.88	16.9162
0.874	16.9371
0.868	17.008
0.862	17.0336
0.856	17.4031
0.85	17.4746
0.844	17.4825
0.838	17.4936
0.832	17.5347
0.826	17.5668
0.82	17.6102
0.814	17.609
0.808	17.6183
0.802	17.6244
0.796	17.6165
0.79	17.5914
0.784	17.5729
0.778	17.5463
0.772	17.5131
0.766	17.4812
0.76	17.4453
0.754	17.4027
0.748	17.3733
0.742	17.3439
0.736	17.3211
0.73	17.2943
0.724	17.273
0.718	17.2541
0.712	17.2355
0.706	17.2252
0.7	17.2223
0.694	17.2229
0.688	17.2236
0.682	17.2255
0.676	17.232
0.67	17.239
0.664	17.2457
0.658	17.2457
0.652	17.2561
0.646	17.2599
0.64	17.2631
0.634	17.2692
0.628	17.2697
0.622	17.2755
0.616	17.2688
0.61	17.263
0.604	17.2665
0.598	17.2678
0.592	17.2732
0.586	17.2678
0.58	17.2563
0.574	17.2406
0.568	17.2244
0.562	17.2005
0.556	17.1635
0.55	17.1268
0.544	17.0836
0.538	17.0413
0.532	16.9889
0.526	16.9277
0.52	16.8562
0.514	16.7688
0.508	16.6696
0.502	16.5781
0.496	16.4526
0.49	16.3403
0.484	16.1856
0.478	16.0219
0.472	15.8603
0.466	15.6937
0.46	15.5136
0.454	15.325
0.448	15.1348
0.442	14.9266
0.436	14.7243
0.43	14.5025
0.424	14.2714
0.418	14.0292
0.412	13.7917
0.406	13.5445
0.4	13.2715
