Name: Basalt
Type: Rock
Class: Igneous
Subclass: Mafic
Particle Size: Solid
Sample No.: ba9a4f
Owner: Larry Rowan, USGS
Wavelength Range: All
Origin: Wadi Salima, Jordan
Description: dark gray vesicular basalt Sample was Whole rock chips. Original ASTER Spectral Library name was usgs.perknic.rock.igneous.mafic.solid.ba9a4f.spectrum.txt
Measurement: Reflectance
X Units: Wavelength (micrometers)
Y Units: Reflectance (percent)
wavelength	value
0.4	0.102
0.408	0.102
0.416	0.102
0.424	0.1
0.432	0.097
0.44	0.096
0.448	0.093
0.456	0.089
0.464	0.086
0.472	0.085
0.48	0.082
0.488	0.083
0.496	0.085
0.504	0.082
0.512	0.08
0.52	0.08
0.528	0.083
0.536	0.082
0.544	0.083
0.552	0.083
0.56	0.085
0.568	0.085
0.576	0.083
0.584	0.086
0.592	0.085
0.6	0.086
0.608	0.086
0.616	0.086
0.624	0.086
0.632	0.089
0.64	0.089
0.648	0.086
0.656	0.087
0.664	0.09
0.672	0.087
0.68	0.089
0.688	0.089
0.696	0.087
0.704	0.089
0.712	0.091
0.72	0.091
0.728	0.093
0.736	0.093
0.744	0.093
0.752	0.09
0.76	0.091
0.768	0.091
0.776	0.091
0.784	0.093
0.792	0.091
0.8	0.095
0.832	0.092
0.864	0.092
0.896	0.093
0.928	0.092
0.96	0.093
0.992	0.094
1.024	0.094
1.056	0.09
1.088	0.092
1.12	0.09
1.152	0.09
1.184	0.089
1.216	0.088
1.248	0.085
1.28	0.083
1.312	0.084
1.344	0.083
1.376	0.082
1.408	0.081
1.44	0.079
1.472	0.078
1.504	0.078
1.536	0.078
1.568	0.078
1.6	0.077
1.632	0.077
1.664	0.076
1.696	0.076
1.728	0.076
1.76	0.073
1.792	0.074
1.824	0.073
1.856	0.072
1.888	0.07
1.92	0.067
1.952	0.067
1.984	0.068
2.016	0.071
2.048	0.071
2.08	0.071
2.1021	0.077
2.109	0.0761
2.1159	0.0773
2.1228	0.0759
2.1298	0.0751
2.1368	0.0727
2.1438	0.0762
2.1509	0.0754
2.1581	0.0756
2.1653	0.0755
2.1726	0.0753
2.1799	0.0749
2.1872	0.0748
2.1946	0.075
2.2021	0.0743
2.2096	0.0734
2.2172	0.0765
2.2248	0.0769
2.2324	0.075
2.2401	0.0738
2.2479	0.0747
2.2557	0.0742
2.2636	0.0748
2.2715	0.0757
2.2795	0.0748
2.2876	0.0749
2.2957	0.0752
2.3038	0.0754
2.3121	0.074
2.3203	0.0732
2.3287	0.0743
2.3371	0.0743
2.3455	0.0722
2.354	0.0719
2.3626	0.0737
2.3712	0.0733
2.38	0.0715
2.3887	0.0728
2.3976	0.0725
2.4065	0.0712
2.4154	0.0718
2.4245	0.0715
2.4336	0.0728
2.4427	0.0702
2.452	0.0706
2.4613	0.0708
2.4707	0.0678
2.4801	0.0696
2.4896	0.0674
2.4992	0.0705
2.5089	0.0675
2.5187	0.0678
2.5285	0.0663
2.5384	0.0675
2.5484	0.0656
2.5584	0.0663
2.5686	0.0635
2.5788	0.0665
2.5891	0.0645
2.5995	0.0662
2.6099	0.064
2.6205	0.0622
2.6311	0.063
2.6418	0.0649
2.6526	0.0607
2.6635	0.0592
2.6745	0.0565
2.6856	0.0522
2.6968	0.0482
2.708	0.0426
2.7194	0.0385
2.7309	0.0413
2.7424	0.0384
2.7541	0.0356
2.7658	0.0358
2.7777	0.0358
2.7896	0.0334
2.8017	0.0339
2.8138	0.0363
2.8261	0.0333
2.8385	0.0353
2.851	0.0358
2.8636	0.0349
2.8763	0.034
2.8891	0.0367
2.902	0.0357
2.915	0.0351
2.9282	0.0352
2.9415	0.0353
2.9549	0.0347
2.9684	0.0368
2.9821	0.0344
2.9959	0.0341
3.0098	0.0362
3.0238	0.0365
3.038	0.0376
3.0523	0.0368
3.0667	0.0372
3.0813	0.0369
3.096	0.0377
3.1109	0.0375
3.1259	0.0386
3.141	0.0381
3.1563	0.0403
3.1718	0.0404
3.1874	0.0398
3.2031	0.0404
3.219	0.0413
3.2351	0.0411
3.2513	0.0424
3.2677	0.0418
3.2843	0.0427
3.301	0.0437
3.3179	0.045
3.3349	0.0451
3.3522	0.0458
3.3696	0.0459
3.3872	0.0472
3.405	0.0487
3.423	0.0497
3.4412	0.0503
3.4595	0.0494
3.4781	0.0505
3.4968	0.0518
3.5158	0.0519
3.535	0.0537
3.5544	0.054
3.574	0.0557
3.5938	0.0561
3.6138	0.0571
3.6341	0.0577
3.6545	0.0581
3.6753	0.06
3.6962	0.0593
3.7174	0.0599
3.7389	0.0606
3.7605	0.0612
3.7825	0.0602
3.8047	0.0611
3.8272	0.0609
3.8499	0.059
3.8729	0.0596
3.8962	0.0594
3.9197	0.0594
3.9436	0.0589
3.9677	0.0574
3.9921	0.0579
4.0169	0.0605
4.0419	0.0612
4.0673	0.0624
4.093	0.0622
4.119	0.0622
4.1453	0.0627
4.172	0.0622
4.199	0.0611
4.2264	0.056
4.2541	0.0592
4.2822	0.0573
4.3107	0.0587
4.3395	0.0606
4.3688	0.0606
4.3984	0.0603
4.4285	0.0603
4.4589	0.0595
4.4898	0.06
4.5211	0.059
4.5529	0.0591
4.5851	0.0585
4.6177	0.0588
4.6509	0.0575
4.6845	0.0571
4.7186	0.0571
4.7532	0.0566
4.7883	0.0564
4.8239	0.0558
4.8601	0.0556
4.8968	0.0549
4.9341	0.0548
4.9719	0.0547
5.0103	0.0539
5.0493	0.0542
5.089	0.054
5.1292	0.0537
5.1702	0.0539
5.2117	0.0523
5.254	0.0527
5.2969	0.0528
5.3405	0.0509
5.3849	0.0521
5.43	0.0508
5.4759	0.0485
5.5225	0.0476
5.57	0.0445
5.6182	0.0473
5.6673	0.0455
5.7173	0.0436
5.7682	0.0415
5.82	0.0373
5.8727	0.0342
5.9264	0.0323
5.9811	0.0299
6.0368	0.0276
6.0935	0.0302
6.1513	0.0305
6.2103	0.0351
6.2703	0.0385
6.3316	0.0384
6.394	0.0426
6.4577	0.0477
6.5227	0.0453
6.589	0.043
6.6566	0.0435
6.7257	0.0433
6.7962	0.0437
6.8682	0.042
6.9418	0.0432
7.0169	0.0434
7.0937	0.0444
7.1722	0.0418
7.2524	0.0412
7.3345	0.0405
7.4184	0.0413
7.5043	0.0398
7.5922	0.0391
7.6821	0.0377
7.7743	0.0365
7.8686	0.0356
7.9653	0.0332
8.0644	0.0321
8.166	0.0302
8.2701	0.0289
8.377	0.0277
8.4867	0.0307
8.5992	0.0352
8.7149	0.0457
8.8336	0.0576
8.9556	0.0709
9.0811	0.0796
9.2101	0.0871
9.3428	0.1013
9.4795	0.1107
9.6201	0.1103
9.765	0.1019
9.9144	0.0942
10.0684	0.0873
10.2272	0.0852
10.3911	0.0799
10.5604	0.0774
10.7353	0.074
10.9161	0.0737
11.103	0.0708
11.2965	0.0717
11.4968	0.0626
11.7044	0.0527
11.9196	0.0464
12.1429	0.042
12.3747	0.0372
12.6155	0.0336
12.8659	0.0307
13.1264	0.0303
13.3977	0.03
13.6804	0.0293
13.9753	0.0288
