Name: Aplite
Type: rock
Class: Igneous
Subclass: Felsic
Particle Size: Fine
Sample No.: Aplite_H1
Owner: JHU
Wavelength Range: All
Origin: From Boulder County, Colorado via Ward's Scientific (Cat. No. W-101)
Description: Powder derived from sample: fine-grained to medium-grained leucocratic rock composed of quartz, feldspar, micas and opaques.Particle size was 0-75 micrometers. Original ASTER Spectral Library name was jhu.becknic.rock.igneous.felsic.fine.aplite1.spectrum.txt
Measurement: Directional (10 degree) hemispherical reflectance
X Units: Wavelength (micrometers)
Y Units: Reflectance (percent)
wavelength	value
14.011	1.5075
13.715	3.21
13.43	2.8894
13.158	2.265
12.896	1.8787
12.644	1.8825
12.402	2.6986
12.169	5.2568
11.945	7.5836
11.729	7.9455
11.52	7.7449
11.319	7.6284
11.125	6.548
10.937	5.4881
10.756	4.6668
10.58	4.0735
10.41	3.726
10.245	3.653
10.086	3.7524
9.9313	4.1147
9.7814	3.908
9.636	4.0114
9.4948	3.9881
9.3577	4.8642
9.2245	5.2563
9.095	4.8496
8.9691	4.7226
8.8467	4.7878
8.7275	4.7363
8.6116	4.2778
8.4986	5.3273
8.3886	5.4876
8.2814	5.8045
8.1769	5.9463
8.075	4.1491
7.9756	2.7199
7.8786	1.6031
7.784	1.1306
7.6916	0.9888
7.6014	0.9421
7.5133	1.1051
7.4272	1.3917
7.343	1.7707
7.2607	2.3628
7.1803	3.0429
7.1016	3.9778
7.0246	4.6233
6.9493	5.174
6.8755	5.7665
6.8034	5.9187
6.7327	5.9538
6.6634	6.555
6.5956	6.8967
6.5292	7.3242
6.464	9.1104
6.4002	9.3813
6.3376	8.3179
6.2762	7.0369
6.216	6.3919
6.157	7.5223
6.099	9.4449
6.0421	10.246
5.9863	9.9616
5.9315	9.3457
5.8777	10.537
5.8249	11.613
5.773	12.094
5.722	12.349
5.6719	11.759
5.6227	10.266
5.5744	10.127
5.5268	11.67
5.4801	13.964
5.4341	14.834
5.3889	12.376
5.3445	10.784
5.3008	11.594
5.2578	13.722
5.2154	17.535
5.1738	19.109
5.1328	19.687
5.0925	20.266
5.0528	19.945
5.0137	20.285
4.9752	22.252
4.9373	25.64
4.9	29.623
4.8632	34.544
4.827	36.459
4.7913	37.043
4.7561	37.728
4.7215	38.642
4.6873	38.298
4.6536	39.791
4.6205	42.043
4.5877	43.906
4.5555	45.462
4.5237	45.982
4.4923	45.367
4.4614	46.079
4.4309	48.184
4.4008	50.257
4.3711	52.847
4.3418	54.999
4.3129	56.308
4.2844	57.047
4.2563	58.573
4.2285	58.94
4.2011	59.83
4.174	60.615
4.1473	61.331
4.1209	61.924
4.0949	62.504
4.0692	62.891
4.0438	62.79
4.0187	62.051
3.994	60.838
3.9695	60.757
3.9453	62.17
3.9214	63.053
3.8979	63.236
3.8746	63.14
3.8515	63.198
3.8288	63.641
3.8063	64.275
3.7841	64.588
3.7621	64.378
3.7404	64.253
3.7189	64.369
3.6977	64.615
3.6767	64.854
3.656	64.916
3.6355	64.749
3.6152	64.606
3.5951	64.355
3.5753	64.056
3.5557	63.784
3.5363	63.25
3.5171	62.09
3.4981	60.794
3.4793	60.507
3.4607	60.785
3.4423	60.392
3.4241	59.229
3.4061	58.71
3.3883	58.796
3.3707	58.369
3.3533	58.078
3.336	58.336
3.3189	58.05
3.302	57.519
3.2853	56.917
3.2687	56.263
3.2523	55.501
3.2361	54.683
3.22	53.872
3.2041	52.936
3.1883	52.069
3.1727	51.196
3.1572	50.392
3.1419	49.647
3.1268	48.873
3.1117	48.223
3.0969	47.557
3.0821	47.155
3.0675	46.68
3.0531	46.321
3.0388	46.089
3.0246	45.81
3.0105	45.596
2.9966	45.284
2.9828	44.903
2.9692	44.62
2.9556	44.362
2.9422	44.322
2.9289	44.442
2.9157	44.651
2.9027	44.955
2.8897	45.24
2.8769	45.554
2.8642	45.927
2.8516	46.125
2.8391	46.322
2.8267	46.383
2.8144	46.44
2.8022	46.476
2.7902	46.177
2.7782	45.772
2.7664	45.045
2.7546	45.995
2.7429	47.951
2.7314	50.249
2.7199	53.39
2.7085	52.341
2.6973	59.378
2.6861	65.881
2.675	67.711
2.664	70.56
2.6531	71.224
2.6423	71.676
2.6315	71.934
2.6209	72.081
2.6103	72.144
2.5999	72.253
2.5895	72.12
2.5792	72.242
2.569	72.404
2.5588	72.35
2.5487	72.292
2.5388	72.468
2.5289	72.403
2.519	72.456
2.5093	72.549
2.4996	72.496
2.49	72.585
2.4805	72.628
2.471	72.776
2.4616	72.775
2.4523	72.864
2.4431	72.788
2.4339	73.01
2.4248	73.039
2.4157	73.062
2.4068	73.162
2.3979	73.257
2.389	73.122
2.3802	73.228
2.3715	73.139
2.3629	73.318
2.3543	73.144
2.3458	73.325
2.3373	73.326
2.3289	73.416
2.3206	73.465
2.3123	73.609
2.3041	73.638
2.2959	73.632
2.2878	73.794
2.2798	73.862
2.2718	73.664
2.2638	73.599
2.2559	73.584
2.2481	73.58
2.2403	73.598
2.2326	73.513
2.225	73.643
2.2173	73.477
2.2098	73.28
2.2023	73.302
2.1948	73.477
2.1874	73.686
2.18	73.774
2.1727	73.903
2.1655	73.879
2.1583	73.98
2.1511	74.066
2.144	74.068
2.1369	74.102
2.1299	74.134
2.1229	74.113
2.116	74.108
2.1091	74.222
2.1023	74.128
2.0955	74.115
2.0887	73.973
2.082	74.115
2.06	73.936
2.028	73.076
1.996	72.14
1.964	70.961
1.932	70.254
1.9	70.231
1.868	71.049
1.836	70.236
1.804	70.365
1.772	70.074
1.74	70.03
1.708	69.677
1.676	69.306
1.644	69.296
1.612	68.286
1.58	67.898
1.548	68.102
1.516	67.542
1.484	66.895
1.452	66.554
1.42	66.031
1.388	65.368
1.356	65.168
1.324	63.978
1.292	64.42
1.26	63.282
1.228	63.751
1.196	62.24
1.164	61.931
1.132	62.281
1.1	61.839
1.068	61.332
1.036	61.012
1.004	61.18
0.972	60.296
0.94	60.305
0.908	60.777
0.876	61.464
0.844	62.234
0.812	62.967
0.795	63.409
0.787	63.37
0.779	63.607
0.771	63.209
0.763	63.464
0.755	63.384
0.747	63.236
0.739	63.58
0.731	63.185
0.723	63.398
0.715	63.099
0.707	63.314
0.699	62.88
0.691	63.123
0.683	62.998
0.675	62.808
0.667	62.484
0.659	62.808
0.651	62.5
0.643	62.51
0.635	62.338
0.627	62.046
0.619	61.9
0.611	61.973
0.603	61.504
0.595	61.62
0.587	61.394
0.579	61.285
0.571	61.348
0.563	61.103
0.555	60.517
0.547	59.912
0.539	59.764
0.531	59.665
0.523	59.424
0.515	58.954
0.507	58.52
0.499	58.489
0.491	58.258
0.483	57.903
0.475	57.396
0.467	57.321
0.459	57.056
0.451	56.558
0.443	56.32
0.435	55.764
0.427	55.4
0.419	54.831
0.411	54.055
0.403	53.481
