Name: Basalt
Type: Rock
Class: Igneous
Subclass: Mafic
Particle Size: Solid
Sample No.: Me24
Owner: Lawrence Rowan, USGS Reston
Wavelength Range: All
Origin: North Tillah, Middle East
Description: Basalt, cut surface, fragment of basalt vesselSample was Whole rock chips. Original ASTER Spectral Library name was usgs.perknic.rock.igneous.mafic.solid.me24.spectrum.txt
Measurement: Directional Hemispherical Reflectance
X Units: Wavelength (micrometers)
Y Units: Reflectance (percent)
wavelength	value
14.051	4.5835
13.826	4.6968
13.609	4.8307
13.398	4.8204
13.193	4.8204
12.995	4.8616
12.802	4.9337
12.616	5.1809
12.434	5.356
12.258	5.6856
12.086	6.0873
11.92	6.3551
11.757	6.7362
11.6	7.3542
11.446	7.931
11.297	8.5181
11.151	8.8065
11.009	8.9713
10.87	9.2082
10.735	9.167
10.604	9.0022
10.475	8.6726
10.35	8.7138
10.227	8.5696
10.108	8.3739
9.991	8.5696
9.877	8.6417
9.765	8.6623
9.656	8.652
9.549	8.6829
9.445	8.6211
9.343	8.4872
9.243	8.3121
9.145	8.1061
9.049	8.343
8.956	8.2194
8.864	7.9516
8.774	7.4675
8.686	7.21
8.599	6.9937
8.515	6.8186
8.431	6.6538
8.35	6.4684
8.27	5.8504
8.192	5.0058
8.115	4.429
8.039	4.1818
7.965	4.1612
7.893	4.1406
7.821	4.1303
7.751	4.2539
7.682	4.4084
7.614	4.3672
7.548	4.5423
7.483	4.6247
7.418	4.6968
7.355	4.6968
7.293	4.6762
7.232	4.6968
7.172	4.5526
7.113	4.7174
7.055	4.7277
6.998	4.738
6.942	4.7998
6.886	4.738
6.832	4.7689
6.778	4.841
6.726	4.8822
6.674	4.9234
6.623	4.9131
6.572	5.1191
6.523	5.2324
6.474	5.3045
6.426	5.2942
6.378	5.2427
6.332	5.1809
6.286	5.15
6.24	5.0161
6.195	4.841
6.151	4.7895
6.108	4.6865
6.065	4.7277
6.023	4.8616
5.981	4.9955
5.94	5.2118
5.899	5.3766
5.859	5.6547
5.82	5.7783
5.781	5.9946
5.743	5.9946
5.705	6.1285
5.667	6.2109
5.63	6.2624
5.594	6.3551
5.558	6.2418
5.523	6.5714
5.487	6.6435
5.453	6.8289
5.419	6.8392
5.385	6.9525
5.352	7.0143
5.319	7.0967
5.286	7.2409
5.254	7.3645
5.222	7.5396
5.191	7.622
5.16	7.7765
5.129	7.8898
5.099	7.9722
5.069	8.0958
5.04	8.24
5.01	8.3739
4.981	8.5181
4.953	8.5902
4.925	8.6829
4.897	8.8889
4.869	8.9713
4.842	9.1567
4.815	9.27
4.788	9.3318
4.762	9.4245
4.736	9.6202
4.71	9.7335
4.684	9.6923
4.659	9.9189
4.634	10.094
4.61	10.2897
4.585	10.4751
4.561	10.6502
4.537	10.7532
4.513	10.8871
4.49	11.0622
4.467	11.1858
4.444	11.33
4.421	11.5154
4.398	11.5463
4.376	11.7626
4.354	11.7832
4.332	11.8965
4.311	12.0098
4.289	12.0716
4.268	12.2261
4.247	12.3188
4.226	12.3497
4.206	12.6072
4.185	12.6587
4.165	12.6793
4.145	12.875
4.126	12.8338
4.106	12.9574
4.086	13.0707
4.067	13.2355
4.048	12.9677
4.029	13.1634
4.011	12.9574
3.992	12.7926
3.974	12.7514
3.956	12.6999
3.938	12.9986
3.92	13.184
3.902	13.1016
3.884	13.3179
3.867	13.1737
3.85	13.2458
3.833	13.3179
3.816	13.5033
3.799	13.493
3.782	13.4415
3.766	13.39
3.75	13.4209
3.733	13.2252
3.717	13.2149
3.702	13.3591
3.686	13.0707
3.67	13.2149
3.655	13.0398
3.639	12.9059
3.624	12.8647
3.609	12.7926
3.594	12.6896
3.579	12.669
3.564	12.463
3.549	12.3806
3.535	12.1849
3.521	11.8759
3.506	11.639
3.492	11.5669
3.478	11.4639
3.464	11.4021
3.45	11.3403
3.437	11.0828
3.423	10.9695
3.409	10.7841
3.396	10.7738
3.383	10.7017
3.37	10.5781
3.357	10.5781
3.344	10.5266
3.331	10.4957
3.318	10.3618
3.305	10.3103
3.293	10.094
3.28	10.0837
3.268	9.8674
3.255	9.8262
3.243	9.6614
3.231	9.5996
3.219	9.4554
3.207	9.3112
3.195	9.0949
3.183	9.0949
3.172	8.9095
3.16	8.8271
3.149	8.6829
3.137	8.5387
3.126	8.5902
3.115	8.549
3.103	8.2606
3.092	8.2503
3.081	8.2297
3.07	8.3018
3.06	8.137
3.049	8.24
3.038	8.0958
3.027	8.2091
3.017	8.1988
3.006	7.7353
2.996	7.8692
2.986	7.9413
2.975	7.7147
2.965	7.6632
2.955	7.7662
2.945	7.7765
2.935	7.7765
2.925	7.8898
2.915	7.725
2.905	7.9207
2.896	7.8898
2.886	7.9413
2.876	7.9516
2.867	8.1885
2.857	7.8795
2.848	8.0752
2.838	7.622
2.829	8.3018
2.82	8.0134
2.811	8.1164
2.802	7.5705
2.793	8.0237
2.784	8.0237
2.775	8.2606
2.766	8.0649
2.757	7.9722
2.748	8.2606
2.74	8.8271
2.731	9.3936
2.722	9.9704
2.714	10.2897
2.705	10.0116
2.697	11.4742
2.688	13.5136
2.68	14.935
2.672	15.3264
2.664	15.5221
2.655	16.2225
2.647	16.4388
2.639	16.5933
2.631	16.4079
2.623	16.3873
2.615	16.377
2.607	16.4388
2.599	16.8611
2.592	17.1701
2.584	16.6242
2.576	16.8302
2.569	16.8714
2.561	17.1804
2.553	17.1289
2.546	16.9744
2.538	17.0259
2.531	16.8405
2.524	17.1289
2.516	16.9332
2.509	17.1701
2.502	17.1804
2.48	18.4696
2.456	17.5513
2.432	17.9662
2.408	18.1409
2.384	18.8723
2.36	19.0887
2.336	19.2631
2.312	19.2935
2.288	19.3432
2.264	19.6096
2.24	19.5457
2.216	19.6923
2.192	20.0128
2.168	20.4595
2.144	20.6679
2.12	20.6323
2.096	20.6669
2.072	20.7941
2.048	20.9289
2.024	21.0283
2	21.063
1.976	21.0537
1.952	20.9595
1.928	20.7507
1.904	20.506
1.88	21.6343
1.856	22.0537
1.832	22.1738
1.808	22.2705
1.784	22.491
1.76	22.5578
1.736	22.6719
1.712	22.7444
1.688	22.9011
1.664	22.9228
1.64	22.9074
1.616	22.924
1.592	22.9414
1.568	22.9613
1.544	22.9643
1.52	22.9621
1.496	22.9221
1.472	22.8517
1.448	22.8592
1.424	22.7601
1.4	22.805
1.376	22.9939
1.352	22.8909
1.328	23.1309
1.304	23.155
1.28	23.1359
1.256	23.2045
1.232	23.207
1.208	23.245
1.184	23.2387
1.16	23.2734
1.136	23.3215
1.112	23.2458
1.088	23.1537
1.064	23.1082
1.04	23.1794
1.016	23.2843
0.992	23.493
0.968	23.731
0.944	23.9914
0.92	24.5401
0.896	24.8197
0.872	24.983
0.848	24.9274
0.824	25.4206
0.8	25.5123
0.776	25.6921
0.752	25.7951
0.728	25.7734
0.704	25.6435
0.68	25.4004
0.656	25.1292
0.632	24.8429
0.608	24.5437
0.584	23.8652
0.56	22.7967
0.536	21.8322
0.512	21.0664
0.488	20.3416
0.464	19.9643
0.44	19.3291
0.416	18.5364
