Name: Oolitic Iron Ore
Type: Rock
Class: Sedimentary
Subclass: Chemical precipitate
Particle Size: Solid
Sample No.: Ward76
Owner: JPL
Wavelength Range: All
Origin: Ward's Collection of American Rocks.  Sample locality - Clinton, Oneida County, New York.
Description: A deep red hematite showing well-developed oolitic texture.Geologic age - Silurian.Collected by:  Ward's Natural Science Original ASTER Spectral Library name was jpl.nicolet.rock.sedimentary.chemical.solid.ward76.spectrum.txt
Measurement: Hemispherical reflectance
X Units: Wavelength (micrometers)
Y Units: Reflectance (percent)
wavelength	value
15.3871	5.6892
15.118	3.9331
14.8581	2.8293
14.6069	2.3423
14.3642	2.094
14.1293	1.9908
13.9021	2.1298
13.682	2.2336
13.4687	2.5616
13.2621	2.6794
13.0616	2.9902
12.8672	3.7097
12.6784	3.3589
12.4951	3.6675
12.317	3.1582
12.1439	3.5413
11.9757	3.6359
11.812	3.8405
11.6527	4.4813
11.4977	4.559
11.3468	5.5984
11.1997	5.897
11.0564	4.925
10.9168	4.9659
10.7806	5.0154
10.6478	5.3216
10.5182	5.2432
10.3917	5.2519
10.2683	5.2591
10.1477	4.9616
10.0299	5.1525
9.9148	5.1239
9.8024	5.2219
9.6925	5.6438
9.585	5.8408
9.4798	6.0429
9.377	7.7002
9.2763	8.4566
9.1778	8.6394
9.0814	8.8476
8.987	9.232
8.8945	9.1855
8.8039	9.1544
8.7151	9.0123
8.6281	8.0979
8.5428	9.3955
8.4592	10.2358
8.3772	10.432
8.2967	11.1751
8.2179	11.6548
8.1404	11.7749
8.0645	11.1151
7.9899	10.3195
7.9167	9.8215
7.8449	9.4137
7.7743	9.3346
7.705	9.2932
7.6369	8.8924
7.57	8.6334
7.5043	8.8326
7.4397	8.9576
7.3762	8.9076
7.3138	8.7126
7.2524	8.8157
7.1921	9.0919
7.1327	9.4444
7.0743	10.1449
7.0169	10.1404
6.9604	10.321
6.9047	10.3633
6.85	10.5783
6.7962	11.0316
6.7431	10.9759
6.6909	11.3282
6.6395	11.9477
6.5889	11.862
6.539	11.9404
6.49	12.5434
6.4416	12.3813
6.3939	11.9896
6.347	10.5103
6.3007	9.0168
6.2551	8.3826
6.2101	7.4583
6.1658	7.4373
6.1222	7.4041
6.0791	7.4925
6.0366	7.4906
5.9948	7.3801
5.9535	7.4846
5.9127	7.8136
5.8726	8.2178
5.8329	8.5483
5.7938	8.7532
5.7552	9.0481
5.7172	9.2094
5.6796	9.1788
5.6425	9.1415
5.6059	8.8682
5.5698	8.7886
5.5341	8.9085
5.4989	9.0343
5.4641	9.4051
5.4298	9.5116
5.3959	9.3351
5.3624	9.2202
5.3294	9.3191
5.2967	9.4127
5.2644	9.5291
5.2326	9.796
5.2011	9.8661
5.17	9.9823
5.1392	9.9009
5.1088	9.9652
5.0788	9.8881
5.0491	9.7619
5.0198	9.9768
4.9908	9.9345
4.9622	10.0589
4.9338	10.2034
4.9058	10.439
4.8781	10.7611
4.8508	10.8789
4.8237	10.7399
4.7969	10.9028
4.7704	10.9295
4.7443	11.033
4.7184	10.8936
4.6927	10.9557
4.6674	10.8764
4.6423	10.9478
4.6175	11.0331
4.593	11.1889
4.5687	11.1219
4.5447	11.1874
4.5209	11.2823
4.4974	11.4109
4.4741	11.275
4.451	11.2187
4.4282	11.3649
4.4057	11.3178
4.3833	11.4927
4.3612	11.4012
4.3393	11.3311
4.3176	11.252
4.2962	10.9434
4.2749	10.8269
4.2539	11.1872
4.233	10.77
4.2124	11.0711
4.192	11.7338
4.1717	11.691
4.1517	11.4501
4.1319	11.5511
4.1122	11.6031
4.0927	11.5502
4.0734	11.6625
4.0543	11.5163
4.0354	11.3848
4.0166	11.1158
3.9981	10.8622
3.9796	10.6806
3.9614	10.5908
3.9433	10.7284
3.9254	10.9634
3.9077	10.9576
3.8901	11.096
3.8726	11.2422
3.8554	11.1283
3.8382	11.227
3.8213	11.2007
3.8045	11.1518
3.7878	11.2986
3.7713	11.3822
3.7549	11.5926
3.7386	11.6338
3.7225	11.8486
3.7066	11.5865
3.6907	11.7106
3.675	11.709
3.6595	11.7019
3.644	11.5538
3.6287	11.6482
3.6136	11.531
3.5985	11.5893
3.5836	11.589
3.5688	11.5342
3.5541	11.4156
3.5396	11.298
3.5251	11.1581
3.5108	11.1429
3.4966	10.672
3.4825	10.8135
3.4685	10.8651
3.4547	10.7298
3.4409	10.7472
3.4273	10.9308
3.4137	10.6142
3.4003	10.7331
3.387	10.4424
3.3738	10.8094
3.3606	10.5872
3.3476	10.5102
3.3347	10.4638
3.3219	10.8168
3.3092	10.6414
3.2965	10.7631
3.284	10.8519
3.2716	10.9451
3.2593	10.8008
3.247	10.5644
3.2348	10.6461
3.2228	10.5306
3.2108	10.5454
3.1989	10.4554
3.1871	10.2883
3.1754	10.2004
3.1638	10.4655
3.1523	10.072
3.1408	9.9488
3.1294	9.9235
3.1181	9.9568
3.1069	9.9339
3.0958	9.6168
3.0848	9.8571
3.0738	9.0846
3.0629	9.3517
3.0521	9.3622
3.0413	9.0537
3.0307	9.1124
3.0201	8.6158
3.0096	9.381
2.9991	8.7294
2.9887	8.9542
2.9784	9.1349
2.9682	8.8494
2.9581	8.697
2.948	8.3842
2.9379	8.194
2.928	7.7838
2.9181	8.6389
2.9083	8.1528
2.8985	8.7784
2.8888	8.6211
2.8792	8.2741
2.8697	8.9031
2.8602	8.8126
2.8507	9.1669
2.8413	8.8407
2.832	9.1971
2.8228	8.1772
2.8136	9.0198
2.8045	8.9356
2.7954	8.5064
2.7864	9.9151
2.7774	8.867
2.7685	10.1762
2.7597	9.7155
2.7509	10.0184
2.7422	11.0316
2.7335	10.6501
2.7249	12.2732
2.7163	12.0649
2.7078	11.8098
2.6994	12.0252
2.691	12.6707
2.6826	12.1892
2.6743	12.097
2.666	12.6099
2.6578	12.0445
2.6497	12.0728
2.6416	12.6475
2.6336	12.5586
2.6256	12.0121
2.6176	12.5865
2.6097	12.2643
2.6018	12.2319
2.594	12.9349
2.5863	12.2495
2.5785	12.3012
2.5709	11.9734
2.5633	12.3107
2.5557	11.7192
2.5481	12.5367
2.5406	12.3584
2.5332	12.5144
2.5258	11.8784
2.5184	12.2612
2.5111	11.5962
2.5038	12.2553
2.4966	12.3874
2.4894	12.3261
2.4823	12.6887
2.4752	12.6211
2.4681	11.5692
2.4611	12.4158
2.4541	12.7668
2.4471	11.8962
2.4402	11.9688
2.4333	12.662
2.4265	12.48
2.4197	12.8931
2.413	12.4546
2.4063	12.3604
2.3996	12.3142
2.3929	12.2879
2.3863	12.2806
2.3798	11.8861
2.3732	12.8643
2.3667	11.903
2.3603	12.6195
2.3538	12.1974
2.3474	12.6326
2.3411	12.3128
2.3347	12.4331
2.3285	12.0819
2.3222	12.6165
2.316	12.5903
2.3098	11.9598
2.3036	12.0441
2.2975	12.4429
2.2914	12.411
2.2854	12.3167
2.2793	12.9243
2.2733	12.4872
2.2674	11.7009
2.2614	11.9648
2.2555	13.0299
2.2497	12.254
2.2438	12.3075
2.238	12.1682
2.2322	13.2092
2.2265	12.1287
2.2208	11.9639
2.2151	11.911
2.2094	13.0459
2.2038	12.7487
2.1982	12.5208
2.1926	12.2197
2.187	12.038
2.1815	12.0184
2.176	13.5191
2.1706	12.1269
2.1651	13.2239
2.1597	12.1975
2.1543	11.8766
2.149	11.7054
2.1436	11.98
2.1383	11.9067
2.1331	12.0779
2.1278	12.6928
2.1226	12.4065
2.1174	12.3019
2.1122	11.903
2.1071	11.6595
2.1019	12.2916
2.0968	12.5159
2.0918	12.2483
2.0867	11.7313
2.0817	12.0756
2.0767	11.194
2.0717	12.5498
2.0667	12.0766
2.0618	12.18
2.0569	11.0654
2.052	10.062
2.0472	11.1675
2.0423	12.7093
2.0375	11.6977
2.0327	11.9373
2.028	11.1671
2.0232	9.1912
2.0185	11.5434
2.0138	11.8345
2.0091	11.5784
2.0044	12.3983
1.9998	12.6911
