Name: Gray Slate
Type: rock
Class: Metamorphic
Subclass: Slate
Particle Size: Coarse
Sample No.: slate1
Owner: JHU
Wavelength Range: All
Origin: Sample No. 307, The Hunt and Salisbury Collection at the U.S.Geological Survey, Denver, Co.
Description: This is a light gray somewhat banded rock.  It is fine-grained to microcrystalline and consists of carbonate, quartz, some feldspar and clay.  Abundant carbonaceous granules are scattered in discontinuous bands throughout the section.Particle size was 500-1500 Micrometer. Original ASTER Spectral Library name was jhu.becknic.rock.metamorphic.slate.coarse.slate1c.spectrum.txt
Measurement: Directional (10 Degree) Hemispherical Reflectance
X Units: Wavelength (micrometers)
Y Units: Reflectance (percent)
wavelength	value
14.0112	2.8711
13.7147	3.0773
13.4304	3.345
13.1577	3.4709
12.8959	3.7444
12.6443	3.3161
12.4023	2.5076
12.1694	2.7204
11.945	3.1012
11.7289	3.4053
11.5203	3.8441
11.3191	4.3605
11.1248	4.6653
10.937	4.7246
10.7555	5.0691
10.5799	5.7309
10.4099	6.4794
10.2454	7.3878
10.0859	8.1343
9.9313	9.0705
9.7814	9.6785
9.636	11.7456
9.4948	12.2387
9.3577	12.6034
9.2245	12.126
9.095	13.1577
8.9691	13.1857
8.8467	13.0984
8.7275	12.6543
8.6116	10.3314
8.4986	11.8435
8.3886	10.2581
8.2814	9.6016
8.1769	10.0849
8.075	8.4089
7.9756	7.0351
7.8786	5.7749
7.784	5.4118
7.6916	5.5902
7.6014	5.3326
7.5133	5.2551
7.4272	4.9481
7.343	4.5674
7.2607	4.203
7.1803	4.2418
7.1016	4.6457
7.0246	4.7402
6.9493	4.7851
6.8755	5.101
6.8034	5.3017
6.7327	5.3867
6.6634	5.6015
6.5956	5.5857
6.5292	5.5837
6.464	5.9793
6.4002	5.3041
6.3376	4.1736
6.2762	3.3671
6.216	2.9629
6.157	3.0965
6.099	3.285
6.0421	3.2149
5.9863	3.1183
5.9315	3.0065
5.8777	3.2087
5.8249	3.429
5.773	3.5359
5.722	3.5678
5.6719	3.4848
5.6227	3.223
5.5744	3.0271
5.5268	3.3039
5.4801	3.6003
5.4341	3.7077
5.3889	3.3247
5.3445	3.0888
5.3008	3.2374
5.2578	3.5645
5.2154	4.1112
5.1738	4.3054
5.1328	4.3406
5.0925	4.3348
5.0528	4.249
5.0137	4.2322
4.9752	4.5126
4.9373	5.029
4.9	5.6501
4.8632	6.4648
4.827	6.8746
4.7913	7.0542
4.7561	7.3749
4.7215	7.7182
4.6873	7.7857
4.6536	8.1494
4.6205	8.691
4.5877	9.1492
4.5555	9.4157
4.5237	9.4277
4.4923	9.2028
4.4614	9.3167
4.4309	9.7354
4.4008	10.1854
4.3711	10.6524
4.3418	11.0028
4.3129	11.1497
4.2844	11.2513
4.2563	11.4264
4.2285	11.4865
4.2011	11.5987
4.174	11.7318
4.1473	11.797
4.1209	11.8734
4.0949	11.8947
4.0692	11.7635
4.0438	11.1982
4.0187	9.9242
3.994	8.6149
3.9695	7.9505
3.9453	9.0038
3.9214	9.9615
3.8979	10.262
3.8746	10.4295
3.8515	10.6225
3.8288	10.907
3.8063	11.4576
3.7841	12.0213
3.7621	12.1478
3.7404	12.1292
3.7189	12.1313
3.6977	12.087
3.6767	12.0466
3.656	11.978
3.6355	11.8465
3.6152	11.677
3.5951	11.3862
3.5753	10.9819
3.5557	10.5895
3.5363	10.2137
3.5171	9.7387
3.4981	9.3432
3.4793	8.9413
3.4607	9.266
3.4423	9.4337
3.4241	9.3439
3.4061	9.0922
3.3883	8.8368
3.3707	8.5652
3.3533	8.223
3.336	8.3126
3.3189	8.3209
3.302	8.2505
3.2853	8.1632
3.2687	8.1464
3.2523	8.0804
3.2361	7.9986
3.22	7.8189
3.204	7.5698
3.1883	7.3304
3.1727	7.1329
3.1572	6.8756
3.1419	6.5987
3.1268	6.3609
3.1117	6.0412
3.0969	5.7505
3.0821	5.5168
3.0675	5.3311
3.0531	5.0957
3.0388	4.985
3.0246	4.8605
3.0105	4.8093
2.9966	4.6701
2.9828	4.6097
2.9692	4.5397
2.9556	4.4566
2.9422	4.376
2.9289	4.3834
2.9157	4.4208
2.9027	4.4809
2.8897	4.5806
2.8769	4.6547
2.8642	4.6751
2.8516	4.6419
2.8391	4.5634
2.8267	4.4394
2.8144	4.3643
2.8022	4.2291
2.7902	4.1373
2.7782	3.8525
2.7664	3.5879
2.7546	3.6176
2.7429	4.0033
2.7314	4.9739
2.7199	7.0203
2.7085	9.9804
2.6973	11.4291
2.6861	12.3717
2.675	12.983
2.664	13.4139
2.6531	13.7539
2.6423	13.8691
2.6315	13.8556
2.6209	13.8211
2.6103	13.8588
2.5999	13.9087
2.5895	13.9899
2.5792	14.1245
2.569	14.2379
2.5588	14.3342
2.5487	14.3775
2.5388	14.3626
2.5289	14.4097
2.519	14.4633
2.5093	14.4983
2.4996	14.5158
2.49	14.5258
2.4805	14.5002
2.471	14.5186
2.4616	14.4779
2.4523	14.4427
2.4431	14.4949
2.4339	14.5679
2.4248	14.7304
2.4157	14.8476
2.4068	14.8909
2.3979	14.9615
2.389	14.9323
2.3802	14.7366
2.3715	14.5253
2.3629	14.1657
2.3543	13.914
2.3458	13.9418
2.3373	14.2128
2.3289	14.5561
2.3206	14.9231
2.3123	15.3309
2.3041	15.6012
2.2959	15.8153
2.2878	15.9116
2.2798	15.8687
2.2718	15.6885
2.2638	15.4216
2.2559	15.1675
2.2481	15.1938
2.2403	15.2984
2.2326	14.9181
2.225	14.3981
2.2173	14.6542
2.2098	15.3024
2.2023	15.9413
2.1948	16.4278
2.1874	16.7221
2.18	16.8767
2.1727	16.9306
2.1655	17.0476
2.1583	17.1007
2.1511	17.0937
2.144	17.0473
2.1369	17.0626
2.1299	17.03
2.1229	17.0966
2.116	17.1615
2.1091	17.187
2.1023	17.2712
2.0955	17.3466
2.0887	17.394
2.082	17.3371
2.06	17.4189
2.028	17.6305
1.996	17.4203
1.964	17.7956
1.932	17.8997
1.9	17.7919
1.868	18.084
1.836	18.1918
1.804	18.3922
1.772	18.5067
1.74	18.3318
1.708	18.4693
1.676	18.5535
1.644	18.6984
1.612	18.6361
1.58	18.5839
1.548	18.3079
1.516	18.3527
1.484	18.3251
1.452	18.1445
1.42	17.8371
1.388	17.6559
1.356	18.0692
1.324	17.9122
1.292	17.6257
1.26	17.4405
1.228	17.0348
1.196	16.9942
1.164	16.8018
1.132	16.5871
1.1	16.4981
1.068	16.4961
1.036	16.6491
1.004	16.9216
0.972	16.8182
0.94	16.8366
0.908	16.9
0.876	16.8689
0.844	17.0123
0.812	17.5299
0.795	17.8554
0.787	17.7828
0.779	17.9103
0.771	17.9109
0.763	17.917
0.755	17.966
0.747	17.9411
0.739	17.8968
0.731	18.1091
0.723	17.9899
0.715	18.078
0.707	18.1603
0.699	18.3529
0.691	18.2112
0.683	18.4172
0.675	18.2481
0.667	18.3905
0.659	18.6168
0.651	18.5378
0.643	18.6746
0.635	18.9065
0.627	18.8301
0.619	18.9136
0.611	18.9294
0.603	18.9095
0.595	19.0666
0.587	19.1281
0.579	19.122
0.571	19.3459
0.563	19.3537
0.555	19.2595
0.547	19.4156
0.539	19.5765
0.531	19.553
0.523	19.5945
0.515	19.6493
0.507	19.5933
0.499	19.6567
0.491	19.6747
0.483	19.4891
0.475	19.3804
0.467	18.855
0.459	18.9349
0.451	18.5168
0.443	18.3129
0.435	17.8608
0.427	17.7524
0.419	17.2727
0.411	16.8849
0.403	16.4082
