Name: Limestone CaCO3
Type: Rock
Class: Sedimentary
Subclass: Limestone
Particle Size: Solid
Sample No.: ro360
Owner: Larry Rowan, USGS
Wavelength Range: All
Origin: Ronda, Spain
Description: light gray limestoneSample was Whole rock chips. Original ASTER Spectral Library name was usgs.perknic.rock.sedimentary.limestone.solid.ls360.spectrum.txt
Measurement: Reflectance
X Units: Wavelength (micrometers)
Y Units: Reflectance (percent)
wavelength	value
0.4	0.486
0.408	0.493
0.416	0.493
0.424	0.496
0.432	0.501
0.44	0.503
0.448	0.504
0.456	0.508
0.464	0.505
0.472	0.509
0.48	0.507
0.488	0.509
0.496	0.509
0.504	0.513
0.512	0.513
0.52	0.518
0.528	0.518
0.536	0.513
0.544	0.52
0.552	0.523
0.56	0.519
0.568	0.52
0.576	0.529
0.584	0.525
0.592	0.526
0.6	0.526
0.608	0.521
0.616	0.518
0.624	0.52
0.632	0.526
0.64	0.527
0.648	0.516
0.656	0.525
0.664	0.527
0.672	0.525
0.68	0.527
0.688	0.524
0.696	0.53
0.704	0.525
0.712	0.529
0.72	0.53
0.728	0.527
0.736	0.532
0.744	0.529
0.752	0.532
0.76	0.534
0.768	0.531
0.776	0.535
0.784	0.537
0.792	0.535
0.8	0.532
0.832	0.532
0.864	0.54
0.896	0.543
0.928	0.541
0.96	0.54
0.992	0.542
1.024	0.545
1.056	0.549
1.088	0.551
1.12	0.548
1.152	0.549
1.184	0.548
1.216	0.549
1.248	0.547
1.28	0.545
1.312	0.542
1.344	0.538
1.376	0.523
1.408	0.491
1.44	0.479
1.472	0.485
1.504	0.498
1.536	0.507
1.568	0.509
1.6	0.516
1.632	0.515
1.664	0.51
1.696	0.501
1.728	0.488
1.76	0.49
1.792	0.49
1.824	0.463
1.856	0.411
1.888	0.385
1.92	0.355
1.952	0.352
1.984	0.349
2.016	0.394
2.048	0.419
2.08	0.424
2.1021	0.4418
2.109	0.4376
2.1159	0.4373
2.1228	0.4328
2.1298	0.4272
2.1368	0.4204
2.1438	0.4112
2.1509	0.4037
2.1581	0.4018
2.1653	0.4077
2.1726	0.4142
2.1799	0.4165
2.1872	0.4224
2.1946	0.4195
2.2021	0.4159
2.2096	0.4046
2.2172	0.3998
2.2248	0.3924
2.2324	0.3811
2.2401	0.3711
2.2479	0.3541
2.2557	0.3397
2.2636	0.3226
2.2715	0.3054
2.2795	0.2886
2.2876	0.2689
2.2957	0.2629
2.3038	0.251
2.3121	0.2481
2.3203	0.239
2.3287	0.2263
2.3371	0.2228
2.3455	0.2278
2.354	0.246
2.3626	0.282
2.3712	0.3132
2.38	0.3353
2.3887	0.3425
2.3976	0.3416
2.4065	0.3379
2.4154	0.332
2.4245	0.3152
2.4336	0.2985
2.4427	0.2828
2.452	0.2634
2.4613	0.2442
2.4707	0.2279
2.4801	0.2102
2.4896	0.1995
2.4992	0.1984
2.5089	0.191
2.5187	0.185
2.5285	0.1725
2.5384	0.1721
2.5484	0.1932
2.5584	0.2255
2.5686	0.2531
2.5788	0.2725
2.5891	0.2877
2.5995	0.3031
2.6099	0.3065
2.6205	0.3086
2.6311	0.3046
2.6418	0.3014
2.6526	0.2936
2.6635	0.2823
2.6745	0.2646
2.6856	0.2423
2.6968	0.208
2.708	0.1847
2.7194	0.1398
2.7309	0.1453
2.7424	0.1343
2.7541	0.1254
2.7658	0.1187
2.7777	0.1103
2.7896	0.104
2.8017	0.1038
2.8138	0.1
2.8261	0.0967
2.8385	0.0953
2.851	0.0919
2.8636	0.0897
2.8763	0.0858
2.8891	0.0832
2.902	0.0834
2.915	0.0818
2.9282	0.0814
2.9415	0.0812
2.9549	0.0806
2.9684	0.0813
2.9821	0.0795
2.9959	0.0816
3.0098	0.0813
3.0238	0.0816
3.038	0.083
3.0523	0.083
3.0667	0.084
3.0813	0.0847
3.096	0.086
3.1109	0.0868
3.1259	0.0911
3.141	0.091
3.1563	0.093
3.1718	0.0984
3.1874	0.0999
3.2031	0.1024
3.219	0.1041
3.2351	0.1052
3.2513	0.1049
3.2677	0.1035
3.2843	0.1031
3.301	0.0965
3.3179	0.0915
3.3349	0.0794
3.3522	0.0683
3.3696	0.0689
3.3872	0.0671
3.405	0.064
3.423	0.0633
3.4412	0.0667
3.4595	0.0655
3.4781	0.0609
3.4968	0.0649
3.5158	0.073
3.535	0.0898
3.5544	0.1002
3.574	0.1047
3.5938	0.1178
3.6138	0.1235
3.6341	0.1271
3.6545	0.1298
3.6753	0.1318
3.6962	0.1303
3.7174	0.127
3.7389	0.1202
3.7605	0.1135
3.7825	0.1023
3.8047	0.0859
3.8272	0.078
3.8499	0.073
3.8729	0.0718
3.8962	0.0704
3.9197	0.0682
3.9436	0.0612
3.9677	0.054
3.9921	0.0599
4.0169	0.0731
4.0419	0.0847
4.0673	0.0947
4.093	0.1017
4.119	0.1077
4.1453	0.1124
4.172	0.1159
4.199	0.1174
4.2264	0.1145
4.2541	0.1052
4.2822	0.1054
4.3107	0.1097
4.3395	0.1132
4.3688	0.118
4.3984	0.1173
4.4285	0.1133
4.4589	0.1081
4.4898	0.1021
4.5211	0.1
4.5529	0.0985
4.5851	0.0957
4.6177	0.0902
4.6509	0.0813
4.6845	0.0806
4.7186	0.0913
4.7532	0.0998
4.7883	0.1026
4.8239	0.1011
4.8601	0.1001
4.8968	0.0985
4.9341	0.0967
4.9719	0.0958
5.0103	0.0954
5.0493	0.0932
5.089	0.0805
5.1292	0.087
5.1702	0.0839
5.2117	0.0801
5.254	0.0756
5.2969	0.0708
5.3405	0.0644
5.3849	0.0591
5.43	0.0531
5.4759	0.045
5.5225	0.0375
5.57	0.0298
5.6182	0.0393
5.6673	0.0369
5.7173	0.0322
5.7682	0.0296
5.82	0.0295
5.8727	0.0278
5.9264	0.0254
5.9811	0.0226
6.0368	0.0215
6.0935	0.0209
6.1513	0.0229
6.2103	0.0303
6.2703	0.047
6.3316	0.0864
6.394	0.1909
6.4577	0.3374
6.5227	0.3296
6.589	0.2952
6.6566	0.2604
6.7257	0.2262
6.7962	0.1991
6.8682	0.1811
6.9418	0.1683
7.0169	0.1664
7.0937	0.1535
7.1722	0.1178
7.2524	0.1008
7.3345	0.0992
7.4184	0.098
7.5043	0.0948
7.5922	0.093
7.6821	0.0944
7.7743	0.0935
7.8686	0.0925
7.9653	0.0906
8.0644	0.0873
8.166	0.0883
8.2701	0.0857
8.377	0.0807
8.4867	0.0773
8.5992	0.0743
8.7149	0.079
8.8336	0.0838
8.9556	0.0843
9.0811	0.0823
9.2101	0.0738
9.3428	0.0796
9.4795	0.0759
9.6201	0.0733
9.765	0.0691
9.9144	0.0648
10.0684	0.0653
10.2272	0.0697
10.3911	0.0731
10.5604	0.0719
10.7353	0.0746
10.9161	0.0837
11.103	0.095
11.2965	0.151
11.4968	0.0768
11.7044	0.0729
11.9196	0.0746
12.1429	0.0699
12.3747	0.066
12.6155	0.0603
12.8659	0.0574
13.1264	0.0572
13.3977	0.0552
13.6804	0.0425
13.9753	0.0398
