Name: Quartz Felsite Porphyry
Type: Rock
Class: Igneous
Subclass: Felsic
Particle Size: Solid
Sample No.: Ward09
Owner: JPL
Wavelength Range: VSWIR
Origin: Ward's Collection of American Rocks.  Sample locality - Marblehead, Essex County, Massachusetts.
Description: A dark gray, compact, porphyritic rock with phenocrysts offeldspar and quartz in a cryptocrystalline groundmass.Geologic age - Devonian or Carboniferous.Collected by:  Ward's Natural Science Original ASTER Spectral Library name was jpl.perkin.rock.igneous.felsic.solid.ward09.spectrum.txt
Measurement: Hemispherical reflectance
X Units: Wavelength (micrometers)
Y Units: Reflectance (percent)
wavelength	value
2.5	6.94
2.494	6.9877
2.488	7.2129
2.482	7.1573
2.476	7.1605
2.47	7.143
2.464	7.0826
2.458	7.1856
2.452	7.1232
2.446	7.0731
2.44	7.1239
2.434	7.081
2.428	7.0949
2.422	7.1151
2.416	7.0295
2.41	7.0905
2.404	7.1369
2.398	7.1553
2.392	7.0891
2.386	7.0754
2.38	7.0124
2.374	7.0424
2.368	7.1168
2.362	7.075
2.356	7.0365
2.35	7.0789
2.344	7.0374
2.338	7.0707
2.332	6.9748
2.326	7.0344
2.32	7.0285
2.314	7.0394
2.308	7.0712
2.302	7.0147
2.296	7.0432
2.29	7.0554
2.284	7.037
2.278	7.0122
2.272	6.9916
2.266	7.026
2.26	7.0015
2.254	6.9327
2.248	6.9751
2.242	6.9035
2.236	6.9668
2.23	6.8822
2.224	6.9805
2.218	7.0129
2.212	7.134
2.206	6.9522
2.2	7.04
2.194	7.0439
2.188	7.0557
2.182	7.079
2.176	7.1247
2.17	7.1403
2.164	7.1629
2.158	7.0888
2.152	7.1344
2.146	7.1427
2.14	7.1179
2.134	7.1202
2.128	7.1344
2.122	7.1086
2.116	7.0925
2.11	7.0333
2.104	6.9962
2.098	6.9696
2.092	6.9835
2.086	6.9979
2.08	6.9558
2.074	6.9045
2.068	6.9543
2.062	6.9891
2.056	6.9945
2.05	6.9298
2.044	7.0048
2.038	6.952
2.032	6.9281
2.026	6.9793
2.02	6.9876
2.014	7.0037
2.008	7.0009
2.002	6.9513
1.996	7.0072
1.99	7.0056
1.984	6.9946
1.978	6.961
1.972	7.0433
1.966	6.9975
1.96	7.114
1.954	6.9843
1.948	7.0685
1.942	7.0881
1.936	6.9862
1.93	7.0434
1.924	6.9447
1.918	7.0435
1.912	6.9802
1.906	7.0041
1.9	6.9094
1.894	6.9635
1.888	6.9506
1.882	6.9887
1.876	6.9977
1.87	6.8771
1.864	6.9231
1.858	6.9183
1.852	6.9851
1.846	7.0091
1.84	7.0051
1.834	6.9497
1.828	6.9715
1.822	6.9837
1.816	6.8954
1.81	6.9531
1.804	6.9852
1.798	6.9568
1.792	6.9332
1.786	6.9548
1.78	6.9359
1.774	6.9629
1.768	6.9802
1.762	6.9104
1.756	6.9289
1.75	6.9525
1.744	6.9651
1.738	6.9199
1.732	6.9421
1.726	6.9453
1.72	6.8417
1.714	7.0087
1.708	6.9546
1.702	6.9488
1.696	6.86
1.69	6.8585
1.684	6.9546
1.678	6.8846
1.672	6.9371
1.666	6.8914
1.66	7.0221
1.654	6.894
1.648	7.0073
1.642	6.9098
1.636	6.8813
1.63	6.9327
1.624	6.9564
1.618	7.0193
1.612	7.0467
1.606	6.9888
1.6	7.0012
1.594	6.9323
1.588	7.039
1.582	7.018
1.576	7.0469
1.57	7.0495
1.564	7.0842
1.558	7.065
1.552	7.1038
1.546	7.1084
1.54	7.1189
1.534	7.1035
1.528	7.1198
1.522	7.125
1.516	7.1365
1.51	7.1488
1.504	7.1732
1.498	7.1066
1.492	7.2127
1.486	7.2268
1.48	7.206
1.474	7.2672
1.468	7.2392
1.462	7.251
1.456	7.286
1.45	7.3137
1.444	7.2909
1.438	7.3871
1.432	7.3708
1.426	7.3493
1.42	7.346
1.414	7.3527
1.408	7.4416
1.402	7.4901
1.396	7.4528
1.39	7.5701
1.384	7.5362
1.378	7.6216
1.372	7.601
1.366	7.6712
1.36	7.6314
1.354	7.6245
1.348	7.6818
1.342	7.6025
1.336	7.6896
1.33	7.7743
1.324	7.7157
1.318	7.7074
1.312	7.7465
1.306	7.7927
1.3	7.8268
1.294	7.8184
1.288	7.8634
1.282	7.8847
1.276	7.9557
1.27	7.8546
1.264	8.0181
1.258	7.9903
1.252	8.025
1.246	8.1
1.24	8.0633
1.234	8.1151
1.228	8.1282
1.222	8.2103
1.216	8.2266
1.21	8.2391
1.204	8.3142
1.198	8.3522
1.192	8.3612
1.186	8.4775
1.18	8.4468
1.174	8.5019
1.168	8.4929
1.162	8.6386
1.156	8.6743
1.15	8.5839
1.144	8.6873
1.138	8.8692
1.132	8.8287
1.126	8.942
1.12	8.9739
1.114	8.9744
1.108	9.1398
1.102	9.1338
1.096	9.1615
1.09	9.174
1.084	9.2625
1.078	9.3631
1.072	9.355
1.066	9.4674
1.06	9.5772
1.054	9.6385
1.048	9.6067
1.042	9.7218
1.036	9.8433
1.03	9.8684
1.024	9.9622
1.018	10.0177
1.012	9.9621
1.006	10.1217
1	10.1466
0.994	10.1714
0.988	10.2291
0.982	10.2949
0.976	10.3316
0.97	10.3709
0.964	10.3394
0.958	10.3388
0.952	10.4208
0.946	10.4122
0.94	10.3543
0.934	10.4072
0.928	10.4193
0.922	10.4368
0.916	10.3815
0.91	10.3951
0.904	10.3897
0.898	10.369
0.892	10.3859
0.886	10.4763
0.88	10.5131
0.874	10.5301
0.868	10.4535
0.862	10.4265
0.856	10.347
0.85	10.3894
0.844	10.4149
0.838	10.4566
0.832	10.4709
0.826	10.4807
0.82	10.4923
0.814	10.4839
0.808	10.4824
0.802	10.4713
0.796	10.4429
0.79	10.4235
0.784	10.4053
0.778	10.3649
0.772	10.3205
0.766	10.2794
0.76	10.2216
0.754	10.1556
0.748	10.0752
0.742	10.0017
0.736	9.9227
0.73	9.8433
0.724	9.7588
0.718	9.6794
0.712	9.5984
0.706	9.526
0.7	9.4566
0.694	9.3959
0.688	9.3423
0.682	9.2903
0.676	9.2437
0.67	9.2037
0.664	9.1745
0.658	9.1484
0.652	9.1262
0.646	9.1019
0.64	9.088
0.634	9.0789
0.628	9.0674
0.622	9.0577
0.616	9.0551
0.61	9.0465
0.604	9.0453
0.598	9.0362
0.592	9.0346
0.586	9.0219
0.58	9.0061
0.574	8.9928
0.568	8.9873
0.562	8.9858
0.556	8.9448
0.55	8.9425
0.544	8.952
0.538	8.9648
0.532	8.9835
0.526	9.0084
0.52	9.0332
0.514	9.0516
0.508	9.0545
0.502	9.0488
0.496	9.0354
0.49	9.0176
0.484	8.9975
0.478	9.1036
0.472	9.1517
0.466	9.2074
0.46	9.2424
0.454	9.2641
0.448	9.2741
0.442	9.2796
0.436	9.299
0.43	9.307
0.424	9.3002
0.418	9.2943
0.412	9.3086
0.406	9.3118
0.4	9.3201
