Name: Calcareous Shale
Type: Rock
Class: Sedimentary
Subclass: Shale
Particle Size: Solid
Sample No.: Ward51
Owner: JPL
Wavelength Range: VSWIR
Origin: Ward's Collection of American Rocks.  Sample locality - Ontario County, New York.
Description: A compact light-gray rock.  It does not have thin shalystructure but appears to be more massive.  Fossils are sometimes quitabundant.Geologic age - Middle Devonian.Collected by:  Ward's Natural Science Original ASTER Spectral Library name was jpl.perkin.rock.sedimentary.shale.solid.ward51.spectrum.txt
Measurement: Hemispherical reflectance
X Units: Wavelength (micrometers)
Y Units: Reflectance (percent)
wavelength	value
2.5	6.7096
2.494	6.4206
2.488	6.6407
2.482	6.6463
2.476	6.5025
2.47	6.5659
2.464	6.751
2.458	6.6426
2.452	6.6009
2.446	6.7305
2.44	6.7142
2.434	6.8168
2.428	6.6992
2.422	6.7673
2.416	6.8648
2.41	6.8068
2.404	6.8873
2.398	6.8633
2.392	6.9618
2.386	6.9693
2.38	6.9098
2.374	6.9095
2.368	6.9504
2.362	6.9465
2.356	6.9113
2.35	6.8953
2.344	6.9675
2.338	6.9533
2.332	6.9741
2.326	7.0983
2.32	7.0731
2.314	7.1231
2.308	7.1195
2.302	7.1387
2.296	7.1972
2.29	7.1886
2.284	7.1208
2.278	7.176
2.272	7.1743
2.266	7.1706
2.26	7.1714
2.254	7.2312
2.248	7.1826
2.242	7.1762
2.236	7.2591
2.23	7.209
2.224	7.2721
2.218	7.2181
2.212	7.3069
2.206	7.2984
2.2	7.2158
2.194	7.212
2.188	7.3237
2.182	7.3801
2.176	7.4575
2.17	7.4025
2.164	7.4862
2.158	7.5899
2.152	7.5773
2.146	7.5649
2.14	7.5676
2.134	7.5563
2.128	7.5715
2.122	7.5645
2.116	7.5221
2.11	7.5055
2.104	7.5236
2.098	7.527
2.092	7.5366
2.086	7.543
2.08	7.5473
2.074	7.5855
2.068	7.6387
2.062	7.6265
2.056	7.6766
2.05	7.6773
2.044	7.6931
2.038	7.6961
2.032	7.6782
2.026	7.6803
2.02	7.7696
2.014	7.7192
2.008	7.7272
2.002	7.733
1.996	7.7623
1.99	7.7719
1.984	7.6971
1.978	7.7481
1.972	7.7464
1.966	7.6949
1.96	7.7857
1.954	7.7028
1.948	7.7165
1.942	7.7067
1.936	7.6922
1.93	7.6637
1.924	7.7154
1.918	7.6944
1.912	7.7693
1.906	7.7132
1.9	7.7687
1.894	7.875
1.888	7.952
1.882	7.8924
1.876	7.9562
1.87	7.9975
1.864	8.0018
1.858	7.9908
1.852	8.0083
1.846	8.1191
1.84	8.094
1.834	8.1656
1.828	8.1942
1.822	8.1461
1.816	8.2239
1.81	8.2104
1.804	8.2323
1.798	8.2276
1.792	8.2873
1.786	8.2277
1.78	8.2531
1.774	8.2744
1.768	8.2598
1.762	8.2872
1.756	8.282
1.75	8.2842
1.744	8.3467
1.738	8.3482
1.732	8.3894
1.726	8.4228
1.72	8.4545
1.714	8.3745
1.708	8.3859
1.702	8.4438
1.696	8.4561
1.69	8.4267
1.684	8.3695
1.678	8.4786
1.672	8.5078
1.666	8.5481
1.66	8.5505
1.654	8.5976
1.648	8.6008
1.642	8.655
1.636	8.6573
1.63	8.5875
1.624	8.5715
1.618	8.6197
1.612	8.5893
1.606	8.6504
1.6	8.6122
1.594	8.7258
1.588	8.6473
1.582	8.6923
1.576	8.6896
1.57	8.6692
1.564	8.6776
1.558	8.6951
1.552	8.6845
1.546	8.7344
1.54	8.7425
1.534	8.7252
1.528	8.7495
1.522	8.7692
1.516	8.8112
1.51	8.7669
1.504	8.806
1.498	8.8102
1.492	8.7685
1.486	8.7852
1.48	8.8358
1.474	8.8116
1.468	8.7734
1.462	8.7819
1.456	8.8774
1.45	8.8468
1.444	8.8472
1.438	8.832
1.432	8.8099
1.426	8.8087
1.42	8.7977
1.414	8.8054
1.408	8.7406
1.402	8.8726
1.396	8.9537
1.39	8.9829
1.384	8.8368
1.378	9.009
1.372	8.9725
1.366	8.9807
1.36	8.9655
1.354	9.0436
1.348	8.9666
1.342	9.0538
1.336	9.1125
1.33	9.0661
1.324	9.0807
1.318	9.0882
1.312	9.056
1.306	9.0789
1.3	9.0898
1.294	9.1245
1.288	9.1588
1.282	9.1781
1.276	9.1151
1.27	9.1771
1.264	9.2345
1.258	9.2002
1.252	9.2218
1.246	9.1763
1.24	9.2009
1.234	9.2304
1.228	9.1529
1.222	9.2715
1.216	9.2734
1.21	9.2442
1.204	9.2742
1.198	9.2546
1.192	9.252
1.186	9.3729
1.18	9.3468
1.174	9.3424
1.168	9.3776
1.162	9.3811
1.156	9.3971
1.15	9.3974
1.144	9.3819
1.138	9.4141
1.132	9.3801
1.126	9.462
1.12	9.4465
1.114	9.3957
1.108	9.5371
1.102	9.4741
1.096	9.4839
1.09	9.571
1.084	9.544
1.078	9.5685
1.072	9.6343
1.066	9.4975
1.06	9.6067
1.054	9.6337
1.048	9.648
1.042	9.6699
1.036	9.6746
1.03	9.6322
1.024	9.7133
1.018	9.7226
1.012	9.7448
1.006	9.7234
1	9.7406
0.994	9.6932
0.988	9.7854
0.982	9.7415
0.976	9.7367
0.97	9.7178
0.964	9.6862
0.958	9.8072
0.952	9.8125
0.946	9.7174
0.94	9.7675
0.934	9.7276
0.928	9.7296
0.922	9.7894
0.916	9.6448
0.91	9.722
0.904	9.6583
0.898	9.7199
0.892	9.6937
0.886	9.6253
0.88	9.6199
0.874	9.6355
0.868	9.5737
0.862	9.5948
0.856	9.9817
0.85	9.9906
0.844	10.0131
0.838	10.0231
0.832	10.0364
0.826	10.0387
0.82	10.0536
0.814	10.0727
0.808	10.0795
0.802	10.0863
0.796	10.0975
0.79	10.1092
0.784	10.1132
0.778	10.131
0.772	10.1345
0.766	10.1411
0.76	10.1467
0.754	10.1574
0.748	10.1591
0.742	10.1662
0.736	10.1821
0.73	10.1862
0.724	10.1941
0.718	10.2079
0.712	10.2128
0.706	10.2282
0.7	10.2378
0.694	10.2483
0.688	10.261
0.682	10.2715
0.676	10.2825
0.67	10.2945
0.664	10.3101
0.658	10.3183
0.652	10.3269
0.646	10.3386
0.64	10.3468
0.634	10.3658
0.628	10.3748
0.622	10.3837
0.616	10.3972
0.61	10.4062
0.604	10.4177
0.598	10.4331
0.592	10.4435
0.586	10.4531
0.58	10.4615
0.574	10.46
0.568	10.4573
0.562	10.4432
0.556	10.4705
0.55	10.4611
0.544	10.4534
0.538	10.4416
0.532	10.4255
0.526	10.4081
0.52	10.3871
0.514	10.3727
0.508	10.3639
0.502	10.3644
0.496	10.3828
0.49	10.404
0.484	10.4482
0.478	10.3748
0.472	10.3331
0.466	10.304
0.46	10.2784
0.454	10.2672
0.448	10.2579
0.442	10.2546
0.436	10.2168
0.43	10.1806
0.424	10.1485
0.418	10.1179
0.412	10.0885
0.406	10.0561
0.4	10.0178
