Name: Basalt
Type: Rock
Class: Igneous
Subclass: Mafic
Particle Size: Solid
Sample No.: ba4b1w
Owner: Larry Rowan, USGS
Wavelength Range: All
Origin: Tel Jeiza, Jordan
Description: medium grained,dark gray basalt Sample was Whole rock chips. Original ASTER Spectral Library name was usgs.perknic.rock.igneous.mafic.solid.ba4b1w.spectrum.txt
Measurement: Reflectance
X Units: Wavelength (micrometers)
Y Units: Reflectance (percent)
wavelength	value
0.4	0.112
0.408	0.111
0.416	0.108
0.424	0.107
0.432	0.104
0.44	0.102
0.448	0.101
0.456	0.096
0.464	0.087
0.472	0.085
0.48	0.085
0.488	0.085
0.496	0.085
0.504	0.085
0.512	0.085
0.52	0.085
0.528	0.085
0.536	0.082
0.544	0.085
0.552	0.086
0.56	0.089
0.568	0.089
0.576	0.09
0.584	0.089
0.592	0.089
0.6	0.087
0.608	0.087
0.616	0.089
0.624	0.093
0.632	0.09
0.64	0.089
0.648	0.09
0.656	0.091
0.664	0.091
0.672	0.093
0.68	0.091
0.688	0.093
0.696	0.09
0.704	0.09
0.712	0.093
0.72	0.091
0.728	0.094
0.736	0.091
0.744	0.093
0.752	0.094
0.76	0.091
0.768	0.091
0.776	0.094
0.784	0.093
0.792	0.094
0.8	0.094
0.832	0.093
0.864	0.095
0.896	0.095
0.928	0.096
0.96	0.094
0.992	0.094
1.024	0.094
1.056	0.094
1.088	0.095
1.12	0.098
1.152	0.098
1.184	0.098
1.216	0.096
1.248	0.098
1.28	0.096
1.312	0.098
1.344	0.099
1.376	0.098
1.408	0.099
1.44	0.101
1.472	0.1
1.504	0.1
1.536	0.105
1.568	0.104
1.6	0.105
1.632	0.106
1.664	0.106
1.696	0.107
1.728	0.107
1.76	0.104
1.792	0.106
1.824	0.106
1.856	0.105
1.888	0.1
1.92	0.098
1.952	0.096
1.984	0.1
2.016	0.1
2.048	0.103
2.08	0.103
2.1021	0.1085
2.109	0.1091
2.1159	0.1076
2.1228	0.1076
2.1298	0.1081
2.1368	0.106
2.1438	0.1081
2.1509	0.1068
2.1581	0.1044
2.1653	0.1075
2.1726	0.1078
2.1799	0.1045
2.1872	0.1028
2.1946	0.1053
2.2021	0.1049
2.2096	0.1027
2.2172	0.103
2.2248	0.1037
2.2324	0.1051
2.2401	0.1056
2.2479	0.1055
2.2557	0.1055
2.2636	0.1023
2.2715	0.1038
2.2795	0.1044
2.2876	0.1027
2.2957	0.1027
2.3038	0.1045
2.3121	0.1027
2.3203	0.1025
2.3287	0.1015
2.3371	0.1018
2.3455	0.1023
2.354	0.1027
2.3626	0.1024
2.3712	0.0996
2.38	0.1025
2.3887	0.1021
2.3976	0.1012
2.4065	0.1035
2.4154	0.1018
2.4245	0.1008
2.4336	0.1004
2.4427	0.1031
2.452	0.0996
2.4613	0.0997
2.4707	0.0997
2.4801	0.0985
2.4896	0.1005
2.4992	0.0994
2.5089	0.0979
2.5187	0.0986
2.5285	0.0999
2.5384	0.0978
2.5484	0.0999
2.5584	0.0997
2.5686	0.1011
2.5788	0.0991
2.5891	0.1015
2.5995	0.1008
2.6099	0.1
2.6205	0.1017
2.6311	0.099
2.6418	0.0963
2.6526	0.095
2.6635	0.0931
2.6745	0.0916
2.6856	0.0813
2.6968	0.064
2.708	0.0575
2.7194	0.0576
2.7309	0.0555
2.7424	0.055
2.7541	0.0524
2.7658	0.0532
2.7777	0.0518
2.7896	0.0515
2.8017	0.0521
2.8138	0.0521
2.8261	0.0527
2.8385	0.0544
2.851	0.0533
2.8636	0.053
2.8763	0.0528
2.8891	0.0537
2.902	0.053
2.915	0.0535
2.9282	0.0536
2.9415	0.0531
2.9549	0.0534
2.9684	0.0531
2.9821	0.053
2.9959	0.0534
3.0098	0.0538
3.0238	0.0547
3.038	0.0531
3.0523	0.0551
3.0667	0.0537
3.0813	0.0543
3.096	0.055
3.1109	0.0556
3.1259	0.0556
3.141	0.0558
3.1563	0.0575
3.1718	0.0588
3.1874	0.0581
3.2031	0.0594
3.219	0.06
3.2351	0.0614
3.2513	0.0616
3.2677	0.0635
3.2843	0.064
3.301	0.0647
3.3179	0.0648
3.3349	0.0656
3.3522	0.0661
3.3696	0.0689
3.3872	0.0686
3.405	0.0706
3.423	0.0722
3.4412	0.0726
3.4595	0.0743
3.4781	0.0732
3.4968	0.0747
3.5158	0.0759
3.535	0.0796
3.5544	0.081
3.574	0.0822
3.5938	0.0835
3.6138	0.0849
3.6341	0.0858
3.6545	0.0877
3.6753	0.087
3.6962	0.0877
3.7174	0.0882
3.7389	0.089
3.7605	0.0889
3.7825	0.0879
3.8047	0.0861
3.8272	0.0833
3.8499	0.0828
3.8729	0.0828
3.8962	0.082
3.9197	0.0827
3.9436	0.0804
3.9677	0.0803
3.9921	0.0803
4.0169	0.0805
4.0419	0.0811
4.0673	0.0828
4.093	0.0824
4.119	0.0823
4.1453	0.0822
4.172	0.0811
4.199	0.0807
4.2264	0.0745
4.2541	0.0771
4.2822	0.0731
4.3107	0.075
4.3395	0.075
4.3688	0.0749
4.3984	0.0732
4.4285	0.0722
4.4589	0.0708
4.4898	0.0693
4.5211	0.0677
4.5529	0.0658
4.5851	0.0643
4.6177	0.062
4.6509	0.0596
4.6845	0.0583
4.7186	0.0574
4.7532	0.056
4.7883	0.0549
4.8239	0.0543
4.8601	0.0533
4.8968	0.0521
4.9341	0.0513
4.9719	0.0503
5.0103	0.0493
5.0493	0.048
5.089	0.0471
5.1292	0.046
5.1702	0.0455
5.2117	0.0447
5.254	0.0442
5.2969	0.0432
5.3405	0.0424
5.3849	0.0417
5.43	0.0406
5.4759	0.0396
5.5225	0.0382
5.57	0.0376
5.6182	0.0374
5.6673	0.0372
5.7173	0.0367
5.7682	0.036
5.82	0.0349
5.8727	0.0341
5.9264	0.033
5.9811	0.0306
6.0368	0.0302
6.0935	0.0301
6.1513	0.0298
6.2103	0.0309
6.2703	0.0326
6.3316	0.0342
6.394	0.0397
6.4577	0.0491
6.5227	0.0511
6.589	0.0485
6.6566	0.0466
6.7257	0.0438
6.7962	0.0423
6.8682	0.041
6.9418	0.0398
7.0169	0.0385
7.0937	0.0359
7.1722	0.0316
7.2524	0.0281
7.3345	0.0263
7.4184	0.0248
7.5043	0.0231
7.5922	0.0217
7.6821	0.0199
7.7743	0.0198
7.8686	0.0182
7.9653	0.0186
8.0644	0.02
8.166	0.0277
8.2701	0.0492
8.377	0.0677
8.4867	0.0779
8.5992	0.0879
8.7149	0.099
8.8336	0.114
8.9556	0.1289
9.0811	0.132
9.2101	0.1301
9.3428	0.1418
9.4795	0.1525
9.6201	0.1547
9.765	0.1535
9.9144	0.1503
10.0684	0.1402
10.2272	0.1355
10.3911	0.1342
10.5604	0.1276
10.7353	0.1258
10.9161	0.1231
11.103	0.1126
11.2965	0.1107
11.4968	0.0916
11.7044	0.0765
11.9196	0.0662
12.1429	0.0599
12.3747	0.0496
12.6155	0.046
12.8659	0.0437
13.1264	0.0431
13.3977	0.0427
13.6804	0.0422
13.9753	0.0438
