Name: Nepheline Syenite
Type: rock
Class: Igneous
Subclass: Intermediate
Particle Size: Fine
Sample No.: Syenite_H2
Owner: JHU
Wavelength Range: All
Origin: Blue Mountain, Methuen Twp., Ontario, via Ward's Scientific (Cat.No. W-17)
Description: Sample from which powder was derived is a medium-grained leucocratic rock showing some foliation, consisting of plagioclase, nepheline and biotite.Particle size was 0-75 micrometers. Original ASTER Spectral Library name was jhu.becknic.rock.igneous.intermediate.fine.syenit2.spectrum.txt
Measurement: Directional (10 degree) hemispherical reflectance
X Units: Wavelength (micrometers)
Y Units: Reflectance (percent)
wavelength	value
14.011	1.6237
13.715	0.6825
13.43	1.1738
13.158	2.0194
12.896	1.4512
12.644	2.1797
12.402	6.1763
12.169	9.4893
11.945	10.58
11.729	10.435
11.52	9.8761
11.319	9.4223
11.125	8.2758
10.937	7.207
10.755	5.9657
10.58	4.6369
10.41	3.7716
10.245	4.0584
10.086	4.6498
9.9313	4.8361
9.7814	4.3406
9.636	4.5431
9.4948	3.8948
9.3577	3.2083
9.2245	3.334
9.095	3.0075
8.9691	2.7891
8.8467	3.1315
8.7275	3.6797
8.6116	3.9958
8.4986	3.9755
8.3886	4.0613
8.2814	3.6774
8.1769	2.6852
8.075	1.7428
7.9756	1.0823
7.8786	0.8602
7.784	1.0122
7.6916	1.3029
7.6014	1.7818
7.5133	2.3892
7.4272	2.9953
7.343	3.4449
7.2607	3.8709
7.1803	4.2708
7.1016	5.1806
7.0246	6.1725
6.9493	6.7908
6.8755	7.5351
6.8034	7.5023
6.7327	7.6181
6.6634	8.2068
6.5956	9.2517
6.5292	10.649
6.464	11.444
6.4002	11.352
6.3376	10.739
6.2762	10.717
6.216	10.624
6.157	9.96
6.099	10.617
6.0421	11.818
5.9863	12.447
5.9315	12.634
5.8777	12.815
5.8249	13.367
5.773	13.329
5.722	13.254
5.6719	13.486
5.6227	14.267
5.5744	14.687
5.5268	16.624
5.4801	19.154
5.4341	20.652
5.3889	23.111
5.3445	24.78
5.3008	25.187
5.2578	25.281
5.2154	25.406
5.1738	26.691
5.1328	27.92
5.0925	30.144
5.0528	32.112
5.0137	33.467
4.9752	35.218
4.9373	36.552
4.9	35.119
4.8632	36.739
4.827	38.247
4.7913	37.295
4.7561	38.198
4.7215	40.32
4.6873	41.237
4.6536	42.187
4.6205	44.315
4.5877	46.254
4.5555	48.179
4.5237	50.315
4.4923	52.525
4.4614	54.438
4.4309	55.692
4.4008	56.674
4.3711	57.96
4.3418	59.063
4.3129	60.399
4.2844	61.618
4.2563	62.687
4.2285	63.266
4.2011	64.141
4.174	64.426
4.1473	63.939
4.1209	63.668
4.0949	63.908
4.0692	64.098
4.0438	63.874
4.0187	64.13
3.994	64.111
3.9695	64.222
3.9453	64.599
3.9214	64.956
3.8979	65.675
3.8746	65.809
3.8515	65.422
3.8288	65.504
3.8063	65.988
3.7841	66.155
3.7621	66.2
3.7404	66.244
3.7189	66.093
3.6977	65.917
3.6767	65.637
3.656	65.328
3.6355	64.537
3.6152	64.238
3.5951	63.948
3.5753	63.312
3.5557	62.725
3.5363	61.983
3.5171	61.028
3.4981	60.153
3.4793	59.628
3.4607	59.07
3.4423	58.48
3.4241	57.703
3.4061	56.985
3.3883	56.353
3.3707	55.569
3.3533	54.655
3.336	53.806
3.3189	52.898
3.302	52.096
3.2853	51.011
3.2687	50.108
3.2523	49.186
3.2361	48.349
3.22	47.65
3.204	47.027
3.1883	46.338
3.1727	45.513
3.1572	44.68
3.1419	43.679
3.1268	42.716
3.1117	41.738
3.0969	40.583
3.0821	39.126
3.0675	37.354
3.0531	35.458
3.0388	34.67
3.0246	35.997
3.0105	37.198
2.9966	37.704
2.9828	37.57
2.9692	37.365
2.9556	37.238
2.9422	37.195
2.9289	36.736
2.9157	36.476
2.9027	36.177
2.8897	35.805
2.8769	35.487
2.8642	35.223
2.8516	34.707
2.8391	33.894
2.8267	33.363
2.8144	33.568
2.8022	33.923
2.7902	32.903
2.7782	31.86
2.7664	32.608
2.7546	34.348
2.7429	37.56
2.7314	41.137
2.7199	50.708
2.7085	58.719
2.6973	63.844
2.6861	66.038
2.675	67.906
2.664	69.898
2.6531	70.925
2.6423	71.455
2.6315	72.106
2.6209	72.452
2.6103	72.658
2.5999	72.648
2.5895	72.667
2.5792	72.756
2.569	72.732
2.5588	72.443
2.5487	72.178
2.5388	72.354
2.5289	72.22
2.519	72.492
2.5093	72.538
2.4996	72.55
2.49	72.563
2.4805	72.799
2.471	72.735
2.4616	72.955
2.4523	73.052
2.4431	72.953
2.4339	73.271
2.4248	73.554
2.4157	73.89
2.4068	74.364
2.3979	74.749
2.389	75.052
2.3802	75
2.3715	74.907
2.3629	74.803
2.3543	74.979
2.3458	75.342
2.3373	75.906
2.3289	75.861
2.3206	76.13
2.3123	76.226
2.3041	76.342
2.2959	76.163
2.2878	76.074
2.2798	76.093
2.2718	75.778
2.2638	75.195
2.2559	75.486
2.2481	75.865
2.2403	76.019
2.2326	76.053
2.225	76.114
2.2173	75.883
2.2098	75.521
2.2023	75.339
2.1948	75.381
2.1874	75.519
2.18	75.641
2.1727	75.906
2.1655	75.669
2.1583	75.939
2.1511	75.491
2.144	75.593
2.1369	75.821
2.1299	75.598
2.1229	75.404
2.116	75.366
2.1091	75.399
2.1023	75.36
2.0955	75.373
2.0887	75.03
2.082	75.046
2.06	74.356
2.028	73.571
1.996	72.162
1.964	70.765
1.932	68.86
1.9	66.526
1.868	68.708
1.836	69.336
1.804	68.177
1.772	67.524
1.74	67.431
1.708	66.577
1.676	65.619
1.644	64.858
1.612	63.815
1.58	62.957
1.548	62.473
1.516	61.409
1.484	60.386
1.452	59.615
1.42	58.392
1.388	57.499
1.356	57.195
1.324	55.756
1.292	55.289
1.26	54.075
1.228	53.664
1.196	52.36
1.164	51.747
1.132	51.48
1.1	51.122
1.068	50.575
1.036	50.178
1.004	50.174
0.972	49.373
0.94	48.692
0.908	48.665
0.876	48.29
0.844	48.273
0.812	48.185
0.795	48.403
0.787	48.102
0.779	48.268
0.771	48.203
0.763	47.767
0.755	47.459
0.747	47.382
0.739	47.606
0.731	47.451
0.723	47.472
0.715	47.221
0.707	47.449
0.699	47.513
0.691	48.114
0.683	47.679
0.675	48.137
0.667	47.997
0.659	48.237
0.651	48.525
0.643	48.236
0.635	48.675
0.627	48.542
0.619	48.925
0.611	48.683
0.603	48.793
0.595	49.1
0.587	49.331
0.579	48.988
0.571	49.44
0.563	49.696
0.555	49.572
0.547	49.506
0.539	49.163
0.531	49.423
0.523	48.692
0.515	48.892
0.507	48.033
0.499	47.559
0.491	46.648
0.483	46.482
0.475	45.665
0.467	44.916
0.459	45.06
0.451	44.26
0.443	43.927
0.435	43.313
0.427	42.073
0.419	40.85
0.411	40.145
0.403	39.487
