Name: Diatomaceous Earth
Type: Rock
Class: Sedimentary
Subclass: Siliceou
Particle Size: Solid
Sample No.: Ward57
Owner: JPL
Wavelength Range: VSWIR
Origin: Ward's Collection of American Rocks.  Sample locality - Lompoc, Santa Barbara County, California.
Description: A soft, white chalky rock.Geologic age - Tertiary (Upper Miocene).Collected by:  Ward's Natural Science Original ASTER Spectral Library name was jpl.perkin.rock.sedimentary.siliceous.solid.ward57.spectrum.txt
Measurement: Hemispherical reflectance
X Units: Wavelength (micrometers)
Y Units: Reflectance (percent)
wavelength	value
2.5	56.9772
2.494	57.2432
2.488	57.6615
2.482	58.1903
2.476	58.3912
2.47	58.9908
2.464	59.6337
2.458	60.015
2.452	60.6743
2.446	61.2908
2.44	61.8816
2.434	62.5825
2.428	63.1485
2.422	63.7103
2.416	64.1121
2.41	64.7675
2.404	65.1824
2.398	65.6056
2.392	65.9643
2.386	66.358
2.38	66.6769
2.374	66.9711
2.368	67.2691
2.362	67.6032
2.356	67.7372
2.35	67.8792
2.344	68.0227
2.338	68.0231
2.332	68.0697
2.326	68.1002
2.32	68.0516
2.314	67.9177
2.308	67.8453
2.302	67.7236
2.296	67.6113
2.29	67.4153
2.284	67.4481
2.278	67.2928
2.272	67.2386
2.266	67.1257
2.26	67.051
2.254	67.0484
2.248	67.0924
2.242	67.2329
2.236	67.3486
2.23	67.4962
2.224	67.4865
2.218	67.535
2.212	67.9539
2.206	68.4437
2.2	69.4949
2.194	70.3907
2.188	71.2439
2.182	72.0106
2.176	72.6401
2.17	73.2145
2.164	73.798
2.158	74.1613
2.152	74.6083
2.146	74.8108
2.14	74.94
2.134	74.9444
2.128	74.8794
2.122	74.737
2.116	74.3949
2.11	74.1556
2.104	73.8241
2.098	73.7507
2.092	73.7675
2.086	73.7094
2.08	73.7009
2.074	73.6392
2.068	73.6673
2.062	73.5744
2.056	73.5182
2.05	73.2592
2.044	73.1569
2.038	72.9549
2.032	72.7345
2.026	72.4232
2.02	72.0582
2.014	71.6372
2.008	71.1725
2.002	70.679
1.996	70.1975
1.99	69.5512
1.984	69.0283
1.978	68.4119
1.972	67.8
1.966	67.3016
1.96	66.7043
1.954	66.3397
1.948	65.8946
1.942	65.5417
1.936	65.1902
1.93	64.9544
1.924	64.5995
1.918	64.2682
1.912	63.7257
1.906	63.5239
1.9	64.2128
1.894	66.5044
1.888	69.8322
1.882	72.6212
1.876	74.9427
1.87	76.9575
1.864	78.0364
1.858	78.5688
1.852	79.0776
1.846	79.2456
1.84	79.4127
1.834	79.4489
1.828	79.6089
1.822	79.6225
1.816	79.6965
1.81	79.6909
1.804	79.6985
1.798	79.7754
1.792	79.7501
1.786	79.7362
1.78	79.7626
1.774	79.8427
1.768	79.9014
1.762	80.0208
1.756	80.0634
1.75	80.2686
1.744	80.3559
1.738	80.4772
1.732	80.5805
1.726	80.6408
1.72	80.6454
1.714	80.772
1.708	80.7238
1.702	80.7717
1.696	80.8099
1.69	80.7708
1.684	80.7389
1.678	80.7217
1.672	80.9466
1.666	80.8972
1.66	81.0029
1.654	80.9001
1.648	80.9327
1.642	80.9583
1.636	80.9315
1.63	80.8603
1.624	80.8628
1.618	80.9016
1.612	80.9165
1.606	80.8685
1.6	81.0563
1.594	80.8383
1.588	80.7413
1.582	80.77
1.576	80.6596
1.57	80.5407
1.564	80.5261
1.558	80.4734
1.552	80.3676
1.546	80.1103
1.54	80.0534
1.534	79.9466
1.528	79.7564
1.522	79.6348
1.516	79.5346
1.51	79.3287
1.504	79.0448
1.498	78.9057
1.492	78.6051
1.486	78.4153
1.48	78.0847
1.474	77.9945
1.468	77.6676
1.462	77.5364
1.456	77.4033
1.45	77.4782
1.444	77.3073
1.438	77.2138
1.432	77.0615
1.426	76.8906
1.42	76.6026
1.414	76.3153
1.408	76.4686
1.402	77.1053
1.396	78.0874
1.39	79.1418
1.384	79.9722
1.378	80.8234
1.372	81.3095
1.366	81.6424
1.36	81.8081
1.354	81.9461
1.348	81.9827
1.342	81.9398
1.336	82.0307
1.33	82.1687
1.324	82.327
1.318	82.238
1.312	82.2188
1.306	82.2275
1.3	82.2604
1.294	82.2753
1.288	82.1254
1.282	82.165
1.276	82.0777
1.27	82.0346
1.264	82.0079
1.258	81.9146
1.252	81.8745
1.246	81.8078
1.24	81.7343
1.234	81.7706
1.228	81.6828
1.222	81.6369
1.216	81.6507
1.21	81.5481
1.204	81.4507
1.198	81.4403
1.192	81.3559
1.186	81.3895
1.18	81.3316
1.174	81.3023
1.168	81.2134
1.162	81.2337
1.156	81.1225
1.15	81.1022
1.144	81.1094
1.138	81.1476
1.132	81.1978
1.126	81.0628
1.12	81.2155
1.114	81.1172
1.108	81.0911
1.102	81.1564
1.096	81.0962
1.09	81.061
1.084	81.075
1.078	81.0395
1.072	80.9989
1.066	81.0262
1.06	80.9803
1.054	80.9787
1.048	81.0284
1.042	81.0145
1.036	80.9737
1.03	80.8129
1.024	80.8365
1.018	80.8273
1.012	80.881
1.006	80.8278
1	80.7913
0.994	80.7466
0.988	80.747
0.982	80.6834
0.976	80.5971
0.97	80.5863
0.964	80.4616
0.958	80.4792
0.952	80.4709
0.946	80.344
0.94	80.395
0.934	80.3079
0.928	80.3048
0.922	80.2935
0.916	80.2427
0.91	80.1866
0.904	80.1047
0.898	80.0472
0.892	79.9682
0.886	79.9631
0.88	79.8728
0.874	79.8025
0.868	79.8573
0.862	79.6909
0.856	79.5623
0.85	79.5706
0.844	79.4575
0.838	79.4104
0.832	79.2844
0.826	79.2154
0.82	79.1304
0.814	79.0047
0.808	78.9121
0.802	78.7993
0.796	78.6081
0.79	78.3747
0.784	78.3254
0.778	78.1672
0.772	77.9743
0.766	77.7723
0.76	77.6015
0.754	77.3839
0.748	77.239
0.742	77.0388
0.736	76.8347
0.73	76.621
0.724	76.4513
0.718	76.254
0.712	76.0255
0.706	75.8076
0.7	75.6227
0.694	75.422
0.688	75.1993
0.682	74.9513
0.676	74.7531
0.67	74.4943
0.664	74.2379
0.658	74.0017
0.652	73.7335
0.646	73.4805
0.64	73.2074
0.634	72.9278
0.628	72.6506
0.622	72.3252
0.616	72.0304
0.61	71.7265
0.604	71.4007
0.598	71.0869
0.592	70.7992
0.586	70.4818
0.58	70.1205
0.574	69.7598
0.568	69.399
0.562	69.0029
0.556	68.6053
0.55	68.1869
0.544	67.8157
0.538	67.4214
0.532	67.023
0.526	66.5988
0.52	66.1926
0.514	65.7846
0.508	65.3831
0.502	64.9695
0.496	64.5615
0.49	64.1535
0.484	63.7633
0.478	63.3636
0.472	62.9894
0.466	62.6442
0.46	62.2541
0.454	61.8511
0.448	61.4313
0.442	61.0429
0.436	60.6498
0.43	60.2347
0.424	59.7899
0.418	59.3673
0.412	58.8484
0.406	58.3164
0.4	57.9465
