Name: Oil Shale (Kerogen Shale)
Type: Rock
Class: Sedimentary
Subclass: Shale
Particle Size: Solid
Sample No.: Ward55
Owner: JPL
Wavelength Range: All
Origin: Ward's Collection of American Rocks.  Sample locality - Garfield County, Colorado.
Description: A blackish brown stratified shale.   It emits a strongbituminous odor when struck with a hammer.Geologic age - Tertiary (Eocene).Collected by:  Ward's Natural Science Original ASTER Spectral Library name was jpl.nicolet.rock.sedimentary.shale.solid.ward55.spectrum.txt
Measurement: Hemispherical reflectance
X Units: Wavelength (micrometers)
Y Units: Reflectance (percent)
wavelength	value
15.3871	3.8038
15.118	3.5397
14.8581	3.3354
14.6069	3.4169
14.3642	3.2467
14.1293	3.5812
13.9021	3.497
13.682	3.2605
13.4687	3.5077
13.2621	3.838
13.0616	4.0055
12.8672	4.0095
12.6784	3.9387
12.4951	3.8754
12.317	3.6931
12.1439	3.9589
11.9757	4.0549
11.812	4.4017
11.6527	4.9707
11.4977	5.7084
11.3468	6.1457
11.1997	7.3605
11.0564	6.1653
10.9168	5.8379
10.7806	6.1058
10.6478	6.1415
10.5182	6.2941
10.3917	6.4729
10.2683	7.0176
10.1477	7.6198
10.0299	7.901
9.9148	8.275
9.8024	8.2166
9.6925	8.5385
9.585	8.4856
9.4798	8.3324
9.377	8.4613
9.2763	8.4354
9.1778	7.9728
9.0814	7.4525
8.987	7.3117
8.8945	7.0886
8.8039	7.2154
8.7151	7.3144
8.6281	7.3212
8.5428	7.9735
8.4592	8.0239
8.3772	8.5948
8.2967	8.9031
8.2179	9.7246
8.1404	9.8359
8.0645	9.8335
7.9899	10.0788
7.9167	9.9996
7.8449	9.8569
7.7743	9.7278
7.705	9.603
7.6369	9.5736
7.57	9.2634
7.5043	9.0374
7.4397	8.7376
7.3762	8.3102
7.3138	7.3294
7.2524	6.4724
7.1921	6.6133
7.1327	7.0837
7.0743	8.4028
7.0169	8.5275
6.9604	8.1651
6.9047	7.9016
6.85	8.1395
6.7962	8.6854
6.7431	9.4923
6.6909	10.6876
6.6395	12.2478
6.5889	12.5739
6.539	12.3376
6.49	12.4852
6.4416	12.8085
6.3939	12.1818
6.347	10.7945
6.3007	7.9798
6.2551	6.1617
6.2101	5.1744
6.1658	4.3745
6.1222	3.8813
6.0791	3.5167
6.0366	3.2382
5.9948	3.0532
5.9535	2.8683
5.9127	2.8135
5.8726	2.7278
5.8329	2.5102
5.7938	2.7539
5.7552	2.7377
5.7172	2.9568
5.6796	3.1548
5.6425	3.1883
5.6059	2.9467
5.5698	2.7572
5.5341	2.7538
5.4989	3.0587
5.4641	3.7559
5.4298	4.289
5.3959	4.2834
5.3624	4.019
5.3294	4.128
5.2967	4.2572
5.2644	4.4305
5.2326	4.789
5.2011	5.2471
5.17	5.1959
5.1392	5.3393
5.1088	5.3748
5.0788	5.4031
5.0491	5.545
5.0198	5.6193
4.9908	5.6468
4.9622	6.0419
4.9338	6.3127
4.9058	6.6147
4.8781	6.9335
4.8508	7.0471
4.8237	7.2945
4.7969	7.3027
4.7704	7.2955
4.7443	7.4817
4.7184	7.4074
4.6927	7.1651
4.6674	6.9775
4.6423	7.0638
4.6175	7.2382
4.593	7.6143
4.5687	7.812
4.5447	8.1005
4.5209	8.2263
4.4974	8.2575
4.4741	8.2767
4.451	8.3797
4.4282	8.6413
4.4057	8.7592
4.3833	8.9427
4.3612	8.9295
4.3393	8.7806
4.3176	8.7243
4.2962	8.6819
4.2749	8.2911
4.2539	8.6578
4.233	8.4267
4.2124	8.5435
4.192	8.5687
4.1717	8.5823
4.1517	8.3199
4.1319	8.2555
4.1122	8.0623
4.0927	7.8325
4.0734	7.6044
4.0543	7.191
4.0354	6.419
4.0166	5.5758
3.9981	4.5105
3.9796	4.0178
3.9614	4.1385
3.9433	4.3982
3.9254	4.4163
3.9077	4.7737
3.8901	4.9627
3.8726	4.995
3.8554	5.5629
3.8382	5.65
3.8213	5.4529
3.8045	5.6051
3.7878	5.7878
3.7713	6.6108
3.7549	6.9234
3.7386	7.0731
3.7225	7.084
3.7066	7.3137
3.6907	7.3573
3.675	7.1962
3.6595	7.0167
3.644	7.0724
3.6287	7.0381
3.6136	6.9583
3.5985	6.7949
3.5836	6.411
3.5688	6.1914
3.5541	5.6613
3.5396	5.4567
3.5251	4.6493
3.5108	3.8345
3.4966	3.7778
3.4825	3.6426
3.4685	3.6744
3.4547	3.8944
3.4409	3.756
3.4273	3.63
3.4137	3.2679
3.4003	3.3093
3.387	3.5232
3.3738	3.4743
3.3606	4.1017
3.3476	4.2799
3.3347	4.6581
3.3219	4.606
3.3092	4.7777
3.2965	4.9861
3.284	5.1301
3.2716	5.3209
3.2593	5.0061
3.247	5.2951
3.2348	5.0053
3.2228	5.3612
3.2108	5.0918
3.1989	5.2456
3.1871	4.8956
3.1754	5.1545
3.1638	4.9716
3.1523	4.8857
3.1408	5.0723
3.1294	4.898
3.1181	4.9799
3.1069	4.682
3.0958	4.8844
3.0848	5.2501
3.0738	4.2005
3.0629	4.8552
3.0521	4.7942
3.0413	4.8236
3.0307	4.5254
3.0201	4.9043
3.0096	4.9271
2.9991	5.2246
2.9887	4.6163
2.9784	4.8152
2.9682	4.9036
2.9581	4.8717
2.948	4.4158
2.9379	4.5674
2.928	5.5244
2.9181	4.7224
2.9083	5.0102
2.8985	5.239
2.8888	5.9602
2.8792	5.199
2.8697	5.5097
2.8602	5.631
2.8507	5.9551
2.8413	5.7169
2.832	5.5468
2.8228	6.2366
2.8136	6.0993
2.8045	6.8032
2.7954	5.339
2.7864	5.6934
2.7774	6.9752
2.7685	5.5195
2.7597	6.1817
2.7509	6.5298
2.7422	7.4833
2.7335	8.4904
2.7249	10.1912
2.7163	11.8215
2.7078	14.8572
2.6994	16.0189
2.691	17.9461
2.6826	19.2267
2.6743	20.2117
2.666	20.3442
2.6578	21.2066
2.6497	21.6944
2.6416	21.4609
2.6336	22.0512
2.6256	21.6533
2.6176	21.914
2.6097	22.0744
2.6018	22.1885
2.594	22.5433
2.5863	21.6994
2.5785	21.7093
2.5709	21.8397
2.5633	22.204
2.5557	20.9823
2.5481	21.5263
2.5406	20.67
2.5332	20.206
2.5258	19.6738
2.5184	19.6211
2.5111	19.9654
2.5038	20.1342
2.4966	20.2032
2.4894	20.552
2.4823	20.6484
2.4752	20.3295
2.4681	20.3918
2.4611	21.4617
2.4541	21.3752
2.4471	21.5925
2.4402	22.4725
2.4333	21.914
2.4265	21.7175
2.4197	22.3947
2.413	22.6073
2.4063	22.7719
2.3996	21.7667
2.3929	22.8668
2.3863	22.6548
2.3798	22.4208
2.3732	22.2729
2.3667	21.8157
2.3603	22.2241
2.3538	20.4222
2.3474	20.403
2.3411	21.4181
2.3347	22.0887
2.3285	22.0089
2.3222	21.7159
2.316	20.9813
2.3098	20.7037
2.3036	20.8607
2.2975	22.0202
2.2914	22.2792
2.2854	22.6847
2.2793	23.7293
2.2733	24.3047
2.2674	24.9884
2.2614	25.2681
2.2555	27.3106
2.2497	27.4199
2.2438	27.725
2.238	27.9128
2.2322	28.2197
2.2265	28.6147
2.2208	28.9546
2.2151	28.3983
2.2094	28.4749
2.2038	28.3366
2.1982	29.1626
2.1926	28.429
2.187	29.2698
2.1815	28.9157
2.176	28.9125
2.1706	28.7699
2.1651	28.5453
2.1597	27.7945
2.1543	28.2063
2.149	28.4815
2.1436	28.3457
2.1383	28.5371
2.1331	29.3302
2.1278	30.0016
2.1226	28.8136
2.1174	28.0846
2.1122	29.0258
2.1071	29.2027
2.1019	29.1229
2.0968	30.749
2.0918	30.5457
2.0867	29.4461
2.0817	30.6934
2.0767	30.2359
2.0717	30.3998
2.0667	31.4395
2.0618	30.9914
2.0569	30.1623
2.052	30.133
2.0472	31.0301
2.0423	27.3201
2.0375	29.3134
2.0327	30.4572
2.028	29.6191
2.0232	29.2167
2.0185	28.9899
2.0138	32.0241
2.0091	29.1755
2.0044	30.6359
1.9998	27.6616
