Name: Mica Schist
Type: rock
Class: Metamorphic
Subclass: Schist
Particle Size: Fine
Sample No.: schist3
Owner: JHU
Wavelength Range: All
Origin: Sample No. 394, The Hunt and Salisbury Collection at the U.S.Geological Survey, Denver, Co.
Description: A medium-grained somewhat foliated rock.  Bands of strained quartz with pressure solution effects alternate with irregular bands of biotite which have usually been altered to chlorite, associated with abundant magnetite and ferruginous staining.  Much less muscovite, usually as sericite, is also present.  Green to slightly blue-green epidote crystals occur commonly throughout the rock. Particle size was 0-75 Micrometer. Original ASTER Spectral Library name was jhu.becknic.rock.metamorphic.schist.fine.schist3.spectrum.txt
Measurement: Directional (10 Degree) Hemispherical Reflectance
X Units: Wavelength (micrometers)
Y Units: Reflectance (percent)
wavelength	value
14.983	2.4207
14.645	2.1773
14.321	1.9871
14.011	2.4508
13.715	2.5602
13.43	2.3876
13.158	2.2291
12.896	2.6819
12.644	2.6988
12.402	2.6206
12.169	3.0971
11.945	3.9309
11.729	4.6991
11.52	4.3356
11.319	3.8362
11.125	3.5565
10.937	3.1973
10.755	3.0682
10.58	3.2351
10.41	3.53
10.245	3.6806
10.086	3.8674
9.9313	4.1301
9.7814	4.4896
9.636	5.3861
9.4948	4.6691
9.3577	5.2116
9.2245	6.349
9.095	6.5072
8.9691	6.2673
8.8467	6.274
8.7275	5.8768
8.6116	4.5677
8.4986	4.7702
8.3886	4.6586
8.2814	4.9717
8.1769	5.4186
8.075	4.7053
7.9756	4.2262
7.8786	3.9735
7.784	4.0886
7.6916	4.481
7.6014	4.8183
7.5133	5.2386
7.4272	5.5964
7.343	5.9858
7.2607	6.4494
7.1803	6.9456
7.1016	7.4827
7.0246	7.8829
6.9493	8.3468
6.8755	8.7404
6.8034	9.0627
6.7327	9.3277
6.6634	9.6678
6.5956	9.8854
6.5292	10.242
6.464	10.996
6.4002	11.061
6.3376	10.801
6.2762	10.251
6.216	9.6583
6.157	9.6964
6.099	10.019
6.0421	10.07
5.9863	10.179
5.9315	10.113
5.8777	10.648
5.8249	11.292
5.773	11.527
5.722	11.662
5.6719	11.516
5.6227	10.983
5.5744	10.783
5.5268	11.171
5.4801	11.712
5.4341	12.101
5.3889	11.654
5.3445	11.384
5.3008	12.056
5.2578	13.232
5.2154	14.685
5.1738	15.395
5.1328	15.747
5.0925	15.917
5.0528	15.87
5.0137	15.929
4.9752	16.401
4.9373	17.129
4.9	17.909
4.8632	18.697
4.827	19.096
4.7913	19.36
4.7561	19.688
4.7215	20.007
4.6873	20.209
4.6536	20.579
4.6205	20.978
4.5877	21.297
4.5555	21.525
4.5237	21.633
4.4923	21.664
4.4614	21.82
4.4309	22.089
4.4008	22.32
4.3711	22.531
4.3418	22.663
4.3129	22.722
4.2844	22.701
4.2563	22.768
4.2285	22.937
4.2011	23.061
4.174	23.156
4.1473	23.242
4.1209	23.328
4.0949	23.396
4.0692	23.448
4.0438	23.506
4.0187	23.548
3.994	23.598
3.9695	23.653
3.9453	23.693
3.9214	23.71
3.8979	23.732
3.8746	23.738
3.8515	23.749
3.8288	23.745
3.8063	23.748
3.7841	23.739
3.7621	23.704
3.7404	23.642
3.7189	23.591
3.6977	23.572
3.6767	23.539
3.656	23.551
3.6355	23.522
3.6152	23.513
3.5951	23.468
3.5753	23.454
3.5557	23.372
3.5363	23.309
3.5171	23.207
3.4981	23.118
3.4793	23.066
3.4607	22.989
3.4423	22.822
3.4241	22.706
3.4061	22.584
3.3883	22.414
3.3707	22.207
3.3533	22.042
3.336	21.837
3.3189	21.637
3.302	21.421
3.2853	21.148
3.2687	20.869
3.2523	20.582
3.2361	20.305
3.22	19.989
3.204	19.677
3.1883	19.374
3.1727	19.084
3.1572	18.819
3.1419	18.598
3.1268	18.4
3.1117	18.183
3.0969	18.024
3.0821	17.909
3.0675	17.812
3.0531	17.676
3.0388	17.507
3.0246	17.398
3.0105	17.197
2.9966	16.971
2.9828	16.731
2.9692	16.435
2.9556	16.168
2.9422	15.917
2.9289	15.664
2.9157	15.531
2.9027	15.53
2.8897	15.702
2.8769	15.83
2.8642	15.844
2.8516	15.652
2.8391	15.172
2.8267	14.399
2.8144	12.986
2.8022	10.566
2.7902	7.6738
2.7782	5.4989
2.7664	4.0874
2.7546	3.5688
2.7429	4.1346
2.7314	5.3613
2.7199	10.045
2.7085	15.002
2.6973	16.97
2.6861	21.112
2.675	22.528
2.664	23.053
2.6531	23.727
2.6423	23.958
2.6315	23.791
2.6209	23.822
2.6103	23.965
2.5999	23.999
2.5895	24.091
2.5792	24.285
2.569	24.359
2.5588	24.46
2.5487	24.567
2.5388	24.622
2.5289	24.605
2.519	24.532
2.5093	24.449
2.4996	24.374
2.49	24.316
2.4805	24.258
2.471	24.199
2.4616	24.059
2.4523	23.962
2.4431	23.918
2.4339	23.957
2.4248	24.079
2.4157	24.257
2.4068	24.298
2.3979	24.354
2.389	24.318
2.3802	24.313
2.3715	24.341
2.3629	24.351
2.3543	24.19
2.3458	24.149
2.3373	24.332
2.3289	24.504
2.3206	24.726
2.3123	24.95
2.3041	25.1
2.2959	25.124
2.2878	25.198
2.2798	25.278
2.2718	25.283
2.2638	25.209
2.2559	25.097
2.2481	24.927
2.2403	24.797
2.2326	24.772
2.225	24.726
2.2173	24.412
2.2098	23.992
2.2023	23.741
2.1948	23.991
2.1874	24.455
2.18	24.94
2.1727	25.203
2.1655	25.222
2.1583	25.337
2.1511	25.361
2.144	25.417
2.1369	25.441
2.1299	25.355
2.1229	25.38
2.116	25.36
2.1091	25.376
2.1023	25.489
2.0955	25.451
2.0887	25.443
2.082	25.55
2.06	25.471
2.028	25.243
1.996	25.066
1.964	24.871
1.932	24.893
1.9	24.653
1.868	24.807
1.836	24.737
1.804	24.48
1.772	24.406
1.74	24.37
1.708	24.489
1.676	24.496
1.644	24.238
1.612	24.022
1.58	24.311
1.548	23.899
1.516	24.041
1.484	23.729
1.452	23.925
1.42	23.466
1.388	23.244
1.356	23.863
1.324	23.669
1.292	23.491
1.26	23.657
1.228	23.613
1.196	23.344
1.164	23.19
1.132	23.494
1.1	23.545
1.068	23.461
1.036	23.867
1.004	23.924
0.972	23.873
0.94	23.87
0.908	23.922
0.876	24.088
0.844	24.019
0.812	24.401
0.795	25.012
0.787	24.971
0.779	25.246
0.771	24.942
0.763	24.848
0.755	24.889
0.747	24.71
0.739	24.694
0.731	24.874
0.723	24.669
0.715	24.61
0.707	24.554
0.699	24.91
0.691	24.604
0.683	24.704
0.675	24.769
0.667	24.589
0.659	24.72
0.651	24.362
0.643	24.676
0.635	23.983
0.627	23.942
0.619	24.438
0.611	24.012
0.603	23.81
0.595	23.593
0.587	23.637
0.579	23.327
0.571	23.284
0.563	22.594
0.555	22.922
0.547	22.804
0.539	22.709
0.531	21.875
0.523	21.461
0.515	21.443
0.507	20.901
0.499	20.605
0.491	20.095
0.483	19.552
0.475	19.142
0.467	18.855
0.459	19.158
0.451	19.3
0.443	18.512
0.435	18.425
0.427	17.657
0.419	17.178
0.411	16.219
0.403	16.086
