Name: Oolitic Limestone
Type: rock
Class: Sedimentary
Subclass: Limestone
Particle Size: Fine
Sample No.: limestone_4
Owner: JHU
Wavelength Range: All
Origin: Sample No. 354,  The Hunt and Salisbury Collection at the U.S.Geological Survey, Denver, Co.
Description: Ooids (~ 1 mm diameter) with good laminar structure and occasionally with cores of recrystallized silica or carbonate are set in a micritic (microcrystalline calcite) groundmass. Some areas of this groundmass also contain recrystallized silica and carbonate. In addition there has been some compaction of the sample. While still soft, most ooids are slightly deformed with continuous boundaries. Particle size was 0 - 75 Micrometers. Original ASTER Spectral Library name was jhu.becknic.rock.sedimentary.limestone.fine.limest4.spectrum.txt
Measurement: Directional (10 Degree) Hemispherical Reflectance
X Units: Wavelength (micrometers)
Y Units: Reflectance (percent)
wavelength	value
14.983	23.28
14.645	24.456
14.321	18.02
14.011	1.4602
13.715	20.336
13.43	26.233
13.158	24.571
12.896	21.771
12.644	22.282
12.402	24.953
12.169	27.326
11.945	26.829
11.729	15.622
11.52	7.6034
11.319	10.9
11.125	21.182
10.937	21.517
10.755	19.605
10.58	18.572
10.41	19.454
10.245	17.276
10.086	15.274
9.9313	13.853
9.7814	13.808
9.636	15.77
9.4948	17.535
9.3577	17.999
9.2245	17.543
9.095	20.355
8.9691	20.539
8.8467	20.699
8.7275	18.158
8.6116	12.75
8.4986	11.998
8.3886	13.182
8.2814	15.028
8.1769	15.306
8.075	13.898
7.9756	14.05
7.8786	12.618
7.784	11.715
7.6916	10.369
7.6014	8.3113
7.5133	7.8287
7.4272	7.0363
7.343	6.2077
7.2607	5.4273
7.1803	5.7672
7.1016	7.4753
7.0246	8.0295
6.9493	8.0053
6.8755	8.6123
6.8034	9.1922
6.7327	9.9399
6.6634	11.002
6.5956	12.683
6.5292	14.635
6.464	15.615
6.4002	9.8129
6.3376	4.9312
6.2762	3.1241
6.216	2.6322
6.157	2.5578
6.099	2.9983
6.0421	3.8419
5.9863	5.1526
5.9315	6.3289
5.8777	7.4744
5.8249	7.4455
5.773	7.1345
5.722	8.1633
5.6719	10.432
5.6227	10.886
5.5744	1.6688
5.5268	10.08
5.4801	21.27
5.4341	28.46
5.3889	33.966
5.3445	37.792
5.3008	41.581
5.2578	44.648
5.2154	47.479
5.1738	49.084
5.1328	50.023
5.0925	45.209
5.0528	51.528
5.0137	51.506
4.9752	51.775
4.9373	52.249
4.9	52.971
4.8632	53.758
4.827	54.234
4.7913	54.189
4.7561	52.524
4.7215	46.079
4.6873	34.197
4.6536	34.678
4.6205	44.361
4.5877	47.315
4.5555	47.846
4.5237	47.94
4.4923	48.963
4.4614	51.806
4.4309	53.974
4.4008	54.662
4.3711	54.525
4.3418	51.659
4.3129	47.595
4.2844	39.902
4.2563	37.689
4.2285	45.069
4.2011	49.739
4.174	49.521
4.1473	47.565
4.1209	43.939
4.0949	39.693
4.0692	33.83
4.0438	23.855
4.0187	12.396
3.994	5.1995
3.9695	4.2066
3.9453	7.5802
3.9214	11.171
3.8979	12.319
3.8746	12.933
3.8515	13.654
3.8288	17.749
3.8063	27.42
3.7841	42.5
3.7621	47.408
3.7404	49.246
3.7189	50.875
3.6977	51.432
3.6767	51.421
3.656	50.858
3.6355	49.928
3.6152	48.548
3.5951	45.726
3.5753	39.238
3.5557	37.125
3.5363	29.493
3.5171	15.737
3.4981	10.907
3.4793	8.2762
3.4607	13.611
3.4423	15.634
3.4241	15.867
3.4061	15.481
3.3883	14.689
3.3707	13.938
3.3533	11.394
3.336	23.621
3.3189	34.703
3.302	38.718
3.2853	40.959
3.2687	42.447
3.2523	43.222
3.2361	43.612
3.22	43.875
3.204	43.874
3.1883	43.6
3.1727	42.742
3.1572	40.67
3.1419	40.148
3.1268	40.108
3.1117	38.554
3.0969	38.777
3.0821	39.557
3.0675	39.717
3.0531	39.816
3.0388	39.796
3.0246	39.671
3.0105	39.408
2.9966	39.165
2.9828	38.86
2.9692	38.452
2.9556	38.117
2.9422	37.936
2.9289	37.942
2.9157	38.067
2.9027	38.375
2.8897	38.785
2.8769	39.269
2.8642	39.769
2.8516	40.196
2.8391	40.475
2.8267	40.524
2.8144	40.282
2.8022	39.534
2.7902	37.459
2.7782	38.042
2.7664	38.509
2.7546	40.05
2.7429	42.016
2.7314	44.572
2.7199	48.048
2.7085	49.078
2.6973	52.952
2.6861	56.933
2.675	58.079
2.664	58.523
2.6531	58.735
2.6423	58.769
2.6315	58.805
2.6209	58.683
2.6103	58.557
2.5999	58.354
2.5895	57.957
2.5792	57.406
2.569	56.707
2.5588	54.838
2.5487	51.036
2.5388	47.75
2.5289	48.621
2.519	50.849
2.5093	51.768
2.4996	52.126
2.49	52.52
2.4805	53.368
2.471	54.592
2.4616	55.706
2.4523	56.393
2.4431	56.893
2.4339	57.22
2.4248	57.487
2.4157	57.672
2.4068	57.675
2.3979	57.673
2.389	57.611
2.3802	57.4
2.3715	57.016
2.3629	56.078
2.3543	54.367
2.3458	52.919
2.3373	52.653
2.3289	53.324
2.3206	54.138
2.3123	54.614
2.3041	54.806
2.2959	55.07
2.2878	55.408
2.2798	55.869
2.2718	56.265
2.2638	56.547
2.2559	56.704
2.2481	56.829
2.2403	56.919
2.2326	57.026
2.225	57.007
2.2173	57.019
2.2098	56.941
2.2023	56.996
2.1948	56.981
2.1874	57.045
2.18	57.053
2.1727	56.957
2.1655	56.844
2.1583	56.819
2.1511	56.738
2.144	56.801
2.1369	56.878
2.1299	56.87
2.1229	56.752
2.116	56.766
2.1091	56.729
2.1023	56.765
2.0955	56.767
2.0887	56.71
2.082	56.638
2.06	56.453
2.028	55.955
1.996	54.837
1.964	54.068
1.932	53.137
1.9	54.775
1.868	52.245
1.836	53.06
1.804	52.995
1.772	52.018
1.74	52.104
1.708	52.016
1.676	51.661
1.644	50.922
1.612	50.834
1.58	50.79
1.548	50.393
1.516	49.975
1.484	49.585
1.452	49.157
1.42	48.729
1.388	49.028
1.356	48.187
1.324	47.681
1.292	47.429
1.26	47.292
1.228	47.471
1.196	47.22
1.164	46.222
1.132	46.295
1.1	45.899
1.068	45.77
1.036	44.938
1.004	44.599
0.972	44.196
0.94	43.87
0.908	43.336
0.876	42.978
0.844	42.715
0.812	42.813
0.795	42.12
0.787	42.009
0.779	41.797
0.771	41.566
0.763	41.273
0.755	41.177
0.747	41.154
0.739	40.977
0.731	40.79
0.723	40.375
0.715	40.207
0.707	40.031
0.699	40.163
0.691	40.227
0.683	39.748
0.675	39.748
0.667	39.427
0.659	39.447
0.651	39.326
0.643	38.642
0.635	38.642
0.627	38.457
0.619	38.453
0.611	37.952
0.603	37.576
0.595	37.733
0.587	37.305
0.579	37.383
0.571	37.157
0.563	36.244
0.555	35.015
0.547	35.421
0.539	34.73
0.531	34.574
0.523	33.714
0.515	33.384
0.507	32.795
0.499	32.102
0.491	31.778
0.483	31.582
0.475	31.154
0.467	30.611
0.459	30.374
0.451	30.345
0.443	29.538
0.435	29.213
0.427	28.366
0.419	28.096
0.411	27.375
0.403	26.872
