Name: Basalt
Type: Rock
Class: Igneous
Subclass: Mafic
Particle Size: Solid
Sample No.: ME10B
Owner: Lawrence Rowan, USGS Reston
Wavelength Range: All
Origin: Wadi Hasa, South Jordan
Description: Basalt, fresh surfaceSample was Whole rock chips. Original ASTER Spectral Library name was usgs.perknic.rock.igneous.mafic.solid.me10b.spectrum.txt
Measurement: Directional Hemispherical Reflectance
X Units: Wavelength (micrometers)
Y Units: Reflectance (percent)
wavelength	value
14.051	3.6256
13.826	3.0488
13.609	3.0797
13.398	3.0797
13.193	3.1621
12.995	3.1827
12.802	3.2754
12.616	3.5638
12.434	3.8728
12.258	4.1818
12.086	4.4908
11.92	4.9749
11.757	5.665
11.6	6.3036
11.446	6.7568
11.297	7.0349
11.151	7.3851
11.009	7.7147
10.87	8.3224
10.735	8.24
10.604	9.0331
10.475	10.1043
10.35	11.5051
10.227	12.0304
10.108	12.5351
9.991	13.5239
9.877	14.4818
9.765	14.8526
9.656	15.1204
9.549	15.2646
9.445	14.0183
9.343	12.3188
9.243	11.6081
9.145	11.6081
9.049	11.433
8.956	9.9807
8.864	7.9928
8.774	6.1697
8.686	4.9543
8.599	4.1715
8.515	3.811
8.431	3.3578
8.35	3.2651
8.27	3.0179
8.192	2.8016
8.115	2.6471
8.039	2.6162
7.965	2.5647
7.893	2.5544
7.821	2.6265
7.751	2.6368
7.682	2.7501
7.614	2.781
7.548	2.8737
7.483	2.884
7.418	2.884
7.355	2.9252
7.293	2.9355
7.232	3.0282
7.172	3.0797
7.113	3.0694
7.055	3.1621
6.998	3.1827
6.942	3.2033
6.886	3.2651
6.832	3.3269
6.778	3.2754
6.726	3.296
6.674	3.3784
6.623	3.3578
6.572	3.3887
6.523	3.3475
6.474	3.5432
6.426	3.4299
6.378	3.3681
6.332	3.399
6.286	3.4196
6.24	3.3063
6.195	3.193
6.151	3.2136
6.108	3.193
6.065	3.2136
6.023	3.2136
5.981	3.3681
5.94	3.502
5.899	3.5226
5.859	3.6565
5.82	3.7286
5.781	3.7595
5.743	3.9037
5.705	3.8934
5.667	3.9861
5.63	4.0067
5.594	4.0582
5.558	4.0273
5.523	4.0479
5.487	4.1406
5.453	4.1509
5.419	4.2642
5.385	4.2539
5.352	4.2127
5.319	4.2539
5.286	4.2024
5.254	4.3466
5.222	4.2951
5.191	4.3466
5.16	4.3054
5.129	4.3054
5.099	4.3363
5.069	4.4187
5.04	4.3363
5.01	4.4805
4.981	4.4393
4.953	4.4393
4.925	4.4805
4.897	4.4805
4.869	4.532
4.842	4.5526
4.815	4.6762
4.788	4.5629
4.762	4.6968
4.736	4.7174
4.71	4.6865
4.684	4.738
4.659	4.8101
4.634	4.8101
4.61	4.8204
4.585	4.8513
4.561	4.9646
4.537	4.9543
4.513	4.9749
4.49	5.047
4.467	5.0058
4.444	5.1294
4.421	5.0676
4.398	4.9852
4.376	5.0367
4.354	5.0676
4.332	5.1088
4.311	5.1191
4.289	5.1603
4.268	5.2015
4.247	5.2015
4.226	5.2736
4.206	5.1912
4.185	5.1706
4.165	5.2324
4.145	5.253
4.126	5.2118
4.106	5.3148
4.086	5.3045
4.067	5.2736
4.048	5.3354
4.029	5.2839
4.011	5.3045
3.992	5.4178
3.974	5.2118
3.956	5.3766
3.938	5.4075
3.92	5.2221
3.902	5.2633
3.884	5.3457
3.867	5.4281
3.85	5.3972
3.833	5.3457
3.816	5.4281
3.799	5.4075
3.782	5.4693
3.766	5.3251
3.75	5.3766
3.733	5.3972
3.717	5.2633
3.702	5.459
3.686	5.2942
3.67	5.1912
3.655	5.253
3.639	5.3045
3.624	5.3663
3.609	5.2633
3.594	5.2015
3.579	5.2427
3.564	5.2942
3.549	5.2427
3.535	5.1603
3.521	5.1294
3.506	5.1603
3.492	5.15
3.478	5.15
3.464	5.15
3.45	5.0367
3.437	5.047
3.423	4.944
3.409	5.0367
3.396	4.9337
3.383	5.0985
3.37	4.8101
3.357	4.8513
3.344	5.0367
3.331	4.8307
3.318	4.9852
3.305	4.9028
3.293	4.8719
3.28	4.8719
3.268	4.7071
3.255	4.7792
3.243	4.8719
3.231	4.635
3.219	4.6659
3.207	4.6453
3.195	4.6865
3.183	4.6968
3.172	4.6659
3.16	4.7689
3.149	4.5526
3.137	4.2848
3.126	4.5629
3.115	4.4496
3.103	4.3157
3.092	4.4187
3.081	4.2745
3.07	4.3157
3.06	4.5011
3.049	4.5217
3.038	4.3054
3.027	4.326
3.017	4.1509
3.006	4.3157
2.996	4.3157
2.986	3.9861
2.975	3.9243
2.965	4.4599
2.955	4.3878
2.945	4.2127
2.935	4.223
2.925	3.8728
2.915	3.9552
2.905	3.9655
2.896	3.9449
2.886	4.1406
2.876	4.223
2.867	3.9346
2.857	4.1097
2.848	4.0891
2.838	3.8728
2.829	3.8728
2.82	4.017
2.811	4.017
2.802	3.9243
2.793	4.2539
2.784	4.1303
2.775	3.9552
2.766	4.2848
2.757	4.1509
2.748	3.7389
2.74	4.1715
2.731	4.0891
2.722	4.3363
2.714	4.7277
2.705	5.1397
2.697	5.5311
2.688	5.4796
2.68	5.8298
2.672	5.9843
2.664	6.4272
2.655	6.0976
2.647	6.6538
2.639	6.3448
2.631	6.5508
2.623	6.2727
2.615	6.592
2.607	6.3963
2.599	6.4375
2.592	5.7989
2.584	6.1388
2.576	5.9637
2.569	6.4581
2.561	6.7774
2.553	6.4375
2.546	6.2521
2.538	6.2109
2.531	6.3654
2.524	6.0976
2.516	6.3757
2.509	6.3139
2.502	6.4066
2.48	6.6074
2.456	6.0678
2.432	7.0106
2.408	6.5985
2.384	6.7638
2.36	6.6983
2.336	6.9773
2.312	7.1897
2.288	6.9077
2.264	7.0375
2.24	6.9966
2.216	7.303
2.192	7.302
2.168	7.3614
2.144	7.3774
2.12	7.3316
2.096	7.3142
2.072	7.3189
2.048	7.4247
2.024	7.3822
2	7.393
1.976	7.4681
1.952	7.3476
1.928	7.1355
1.904	6.9981
1.88	7.5552
1.856	7.7263
1.832	7.7857
1.808	7.815
1.784	7.9274
1.76	7.9777
1.736	7.9794
1.712	7.9811
1.688	8.0297
1.664	8.1134
1.64	8.1535
1.616	8.1867
1.592	8.224
1.568	8.2491
1.544	8.2188
1.52	8.2062
1.496	8.1908
1.472	8.1829
1.448	8.122
1.424	8.1065
1.4	8.0879
1.376	8.22
1.352	8.2111
1.328	8.3547
1.304	8.3322
1.28	8.29
1.256	8.3415
1.232	8.2678
1.208	8.2645
1.184	8.1885
1.16	8.2133
1.136	8.2226
1.112	8.1859
1.088	8.1599
1.064	8.1663
1.04	8.1986
1.016	8.15
0.992	8.1443
0.968	8.1781
0.944	8.1342
0.92	8.4073
0.896	8.4436
0.872	8.7292
0.848	6.7025
0.824	8.9274
0.8	9.4086
0.776	9.4749
0.752	9.5167
0.728	9.5313
0.704	9.4926
0.68	9.5421
0.656	9.5812
0.632	9.6414
0.608	9.6785
0.584	9.7417
0.56	9.7601
0.536	9.7164
0.512	9.5094
0.488	9.2808
0.464	9.059
0.44	8.7785
0.416	8.3724
