Name: Quartzite
Type: Rock
Class: Metamorphic
Subclass: Quartzite
Particle Size: Solid
Sample No.: Ward94
Owner: JPL
Wavelength Range: All
Origin: Ward's Collection of American Rocks.  Sample locality - Dell Rapids, Minnehaha County, South Dakota.  Collected by - JPL.
Description: A fine grained, pinkish quartz rock.Geologic age - Pre-CambrianCollected by:  Ward's Natural Science Original ASTER Spectral Library name was jpl.nicolet.rock.metamorphic.quartzite.solid.ward94.spectrum.txt
Measurement: Hemispherical reflectance
X Units: Wavelength (micrometers)
Y Units: Reflectance (percent)
wavelength	value
15.3871	5.7491
15.118	5.6696
14.8581	6.1363
14.6069	6.7548
14.3642	6.6839
14.1293	5.5609
13.9021	6.5736
13.682	7.0823
13.4687	8.2235
13.2621	9.0257
13.0616	10.6882
12.8672	17.5037
12.6784	13.6291
12.4951	16.3581
12.317	2.4337
12.1439	3.0664
11.9757	4.6492
11.812	5.7838
11.6527	6.2616
11.4977	6.8536
11.3468	7.6445
11.1997	8.2282
11.0564	8.874
10.9168	9.4333
10.7806	9.6631
10.6478	10.2096
10.5182	10.7
10.3917	11.351
10.2683	12.2265
10.1477	13.3393
10.0299	14.7067
9.9148	16.608
9.8024	18.3901
9.6925	21.302
9.585	25.1415
9.4798	31.7428
9.377	46.2867
9.2763	55.9775
9.1778	56.9404
9.0814	56.3504
8.987	55.5828
8.8945	55.6955
8.8039	54.0752
8.7151	50.8897
8.6281	37.4567
8.5428	51.7281
8.4592	52.8693
8.3772	52.3071
8.2967	52.0388
8.2179	51.3519
8.1404	42.5137
8.0645	27.5061
7.9899	17.407
7.9167	10.0968
7.8449	6.0305
7.7743	4.1446
7.705	2.7228
7.6369	1.6926
7.57	1.1427
7.5043	0.87
7.4397	0.6822
7.3762	0.7016
7.3138	0.7061
7.2524	0.7833
7.1921	0.6661
7.1327	0.9522
7.0743	0.8812
7.0169	0.9694
6.9604	1.2107
6.9047	1.1817
6.85	1.2858
6.7962	1.3176
6.7431	1.4472
6.6909	1.5234
6.6395	1.5901
6.5889	1.649
6.539	1.4715
6.49	1.8595
6.4416	2.0985
6.3939	1.9715
6.347	2.0913
6.3007	1.8611
6.2551	1.7837
6.2101	1.9985
6.1658	1.9112
6.1222	2.1735
6.0791	2.2743
6.0366	2.4146
5.9948	2.362
5.9535	2.3184
5.9127	2.3236
5.8726	2.4661
5.8329	2.7692
5.7938	3.0252
5.7552	3.1453
5.7172	3.4036
5.6796	3.3365
5.6425	3.0341
5.6059	2.9127
5.5698	2.8101
5.5341	2.8914
5.4989	3.2026
5.4641	3.3965
5.4298	3.3634
5.3959	3.0542
5.3624	2.751
5.3294	2.8586
5.2967	2.8485
5.2644	2.8359
5.2326	3.1992
5.2011	3.5954
5.17	3.6649
5.1392	3.6279
5.1088	3.645
5.0788	3.5143
5.0491	3.4848
5.0198	3.5858
4.9908	3.5254
4.9622	3.9239
4.9338	4.2266
4.9058	4.7672
4.8781	5.9985
4.8508	6.7881
4.8237	7.4614
4.7969	8.0476
4.7704	8.4965
4.7443	8.8837
4.7184	9.0122
4.6927	8.3849
4.6674	8.6203
4.6423	9.512
4.6175	10.2781
4.593	10.66
4.5687	10.8488
4.5447	10.2918
4.5209	9.2713
4.4974	8.4042
4.4741	8.055
4.451	8.3476
4.4282	8.748
4.4057	9.0764
4.3833	10.0968
4.3612	10.7359
4.3393	11.494
4.3176	11.6442
4.2962	11.2947
4.2749	11.1861
4.2539	11.976
4.233	11.5131
4.2124	11.9783
4.192	12.3359
4.1717	12.7831
4.1517	13.1851
4.1319	13.6102
4.1122	14.1818
4.0927	14.7194
4.0734	15.2363
4.0543	15.449
4.0354	15.4487
4.0166	15.5915
3.9981	15.5878
3.9796	15.7679
3.9614	16.4684
3.9433	17.0309
3.9254	17.3982
3.9077	17.4591
3.8901	17.2049
3.8726	16.7434
3.8554	16.8654
3.8382	17.1199
3.8213	17.2877
3.8045	17.4528
3.7878	17.2382
3.7713	17.1035
3.7549	16.6825
3.7386	16.6829
3.7225	16.9726
3.7066	17.4993
3.6907	18.0946
3.675	18.7796
3.6595	19.2129
3.644	19.2539
3.6287	19.2356
3.6136	19.2708
3.5985	19.3201
3.5836	19.2412
3.5688	19.3199
3.5541	19.6019
3.5396	19.2681
3.5251	19.2969
3.5108	19.176
3.4966	18.9108
3.4825	18.766
3.4685	18.4762
3.4547	18.2655
3.4409	17.6193
3.4273	17.2014
3.4137	16.6551
3.4003	16.6989
3.387	16.3985
3.3738	16.1756
3.3606	15.8389
3.3476	15.7228
3.3347	15.4418
3.3219	15.1601
3.3092	14.7046
3.2965	14.4671
3.284	14.2393
3.2716	13.9411
3.2593	13.7997
3.247	13.4197
3.2348	13.1529
3.2228	12.8607
3.2108	12.7764
3.1989	12.3508
3.1871	12.1551
3.1754	12.0721
3.1638	11.7757
3.1523	11.4828
3.1408	11.7195
3.1294	10.6121
3.1181	10.6083
3.1069	10.978
3.0958	10.9475
3.0848	10.4085
3.0738	10.4726
3.0629	10.2567
3.0521	10.1888
3.0413	10.6786
3.0307	10.3267
3.0201	10.077
3.0096	10.0174
2.9991	9.8639
2.9887	10.232
2.9784	9.6274
2.9682	9.713
2.9581	10.1878
2.948	9.2034
2.9379	9.6071
2.928	9.2965
2.9181	9.6332
2.9083	9.3351
2.8985	9.8291
2.8888	9.3599
2.8792	9.7622
2.8697	10.0518
2.8602	10.3921
2.8507	10.5141
2.8413	10.6668
2.832	10.7807
2.8228	10.7804
2.8136	11.3165
2.8045	11.5616
2.7954	11.8307
2.7864	11.1076
2.7774	10.3327
2.7685	9.7546
2.7597	8.6253
2.7509	9.8739
2.7422	10.345
2.7335	10.2324
2.7249	11.3066
2.7163	12.2879
2.7078	12.1231
2.6994	12.7823
2.691	14.3722
2.6826	17.3717
2.6743	19.772
2.666	21.0517
2.6578	22.1916
2.6497	22.6757
2.6416	23.5586
2.6336	24.0212
2.6256	24.5994
2.6176	25.1714
2.6097	25.1308
2.6018	25.0196
2.594	25.3677
2.5863	25.4287
2.5785	25.92
2.5709	26.0172
2.5633	27.4121
2.5557	27.2458
2.5481	27.6712
2.5406	27.4926
2.5332	27.8321
2.5258	28.1504
2.5184	28.0553
2.5111	28.3242
2.5038	28.9117
2.4966	28.7799
2.4894	29.2537
2.4823	29.349
2.4752	29.9417
2.4681	30.8679
2.4611	30.7877
2.4541	31.0073
2.4471	30.4288
2.4402	31.5665
2.4333	31.2655
2.4265	32.8349
2.4197	33.1968
2.413	33.8523
2.4063	33.5428
2.3996	32.963
2.3929	32.4114
2.3863	32.6014
2.3798	32.3964
2.3732	33.4406
2.3667	34.6109
2.3603	34.253
2.3538	34.4012
2.3474	35.2579
2.3411	34.7243
2.3347	35.1913
2.3285	35.5107
2.3222	35.4332
2.316	36.0446
2.3098	35.9409
2.3036	36.1405
2.2975	36.8128
2.2914	38.0511
2.2854	38.3363
2.2793	38.6504
2.2733	39.0003
2.2674	39.3515
2.2614	39.339
2.2555	39.3725
2.2497	39.8577
2.2438	40.2702
2.238	39.5397
2.2322	39.6454
2.2265	39.2963
2.2208	37.647
2.2151	35.257
2.2094	29.2467
2.2038	32.6356
2.1982	35.084
2.1926	35.041
2.187	34.9652
2.1815	33.6219
2.176	34.4143
2.1706	35.0104
2.1651	35.6656
2.1597	36.8146
2.1543	38.4034
2.149	38.9635
2.1436	39.9231
2.1383	40.7473
2.1331	41.9928
2.1278	41.9475
2.1226	42.7855
2.1174	42.656
2.1122	42.6702
2.1071	42.1197
2.1019	43.4495
2.0968	41.538
2.0918	43.1009
2.0867	41.7854
2.0817	43.4713
2.0767	41.8514
2.0717	43.7377
2.0667	43.8657
2.0618	42.5561
2.0569	43.7682
2.052	42.4757
2.0472	43.829
2.0423	45.0741
2.0375	43.8582
2.0327	44.4409
2.028	41.7619
2.0232	43.7486
2.0185	43.3557
2.0138	42.7869
2.0091	43.5235
2.0044	44.2016
1.9998	43.5678
