Name: White Marble
Type: rock
Class: Metamorphic
Subclass: Marble
Particle Size: Fine
Sample No.: marble6
Owner: JHU
Wavelength Range: All
Origin: Sample No. 457, The Hunt and Salisbury Collection at the U.S.Geological Survey, Denver, Co.
Description: This rock contains coarse-grained carbonate with scattered small subrounded quartz grains and minor subhedral tremolite which has altered to talc in a few spots.Particle size was 0-75 Micrometer. Original ASTER Spectral Library name was jhu.becknic.rock.metamorphic.marble.fine.marble6.spectrum.txt
Measurement: Directional (10 Degree) Hemispherical Reflectance
X Units: Wavelength (micrometers)
Y Units: Reflectance (percent)
wavelength	value
14.983	34.647
14.645	37.084
14.321	27.574
14.011	1.2108
13.715	30.256
13.43	43.225
13.158	40.862
12.896	35.49
12.644	37.228
12.402	39.844
12.169	41.926
11.945	41.027
11.729	23.181
11.52	8.9516
11.319	6.2548
11.125	32.892
10.937	38.959
10.755	34.953
10.58	33.527
10.41	36.431
10.245	34.87
10.086	32.671
9.9313	30.054
9.7814	29.473
9.636	34.225
9.4948	36.642
9.3577	35.545
9.2245	29.86
9.095	37.619
8.9691	37.01
8.8467	35.108
8.7275	30.196
8.6116	21.526
8.4986	19.538
8.3886	20.363
8.2814	23.005
8.1769	23.373
8.075	21.387
7.9756	21.484
7.8786	19.398
7.784	17.908
7.6916	15.792
7.6014	12.349
7.5133	11.033
7.4272	9.2832
7.343	7.0768
7.2607	4.8308
7.1803	3.903
7.1016	4.4661
7.0246	4.6316
6.9493	4.5023
6.8755	4.7375
6.8034	5.1088
6.7327	5.5841
6.6634	6.5406
6.5956	8.0347
6.5292	9.7713
6.464	11.826
6.4002	10.003
6.3376	5.9924
6.2762	4.0623
6.216	3.5792
6.157	3.3261
6.099	3.871
6.0421	5.0719
5.9863	6.9418
5.9315	8.6175
5.8777	10.208
5.8249	10.543
5.773	10.431
5.722	11.546
5.6719	14.455
5.6227	14.902
5.5744	2.1673
5.5268	12.708
5.4801	28.171
5.4341	36.987
5.3889	44.166
5.3445	49.962
5.3008	54.851
5.2578	58.402
5.2154	61.362
5.1738	63.438
5.1328	64.87
5.0925	58.262
5.0528	67.261
5.0137	67.045
4.9752	67.015
4.9373	67.067
4.9	67.615
4.8632	68.134
4.827	68.413
4.7913	68.237
4.7561	66.002
4.7215	57.629
4.6873	44.651
4.6536	44.632
4.6205	55.102
4.5877	59.223
4.5555	59.889
4.5237	60.112
4.4923	61.458
4.4614	65.079
4.4309	68.399
4.4008	70.18
4.3711	70.35
4.3418	68.033
4.3129	67.866
4.2844	68.712
4.2563	67.975
4.2285	66.932
4.2011	65.647
4.174	63.623
4.1473	60.765
4.1209	56.305
4.0949	51.264
4.0692	44.253
4.0438	32.899
4.0187	17.396
3.994	7.953
3.9695	5.8647
3.9453	10.811
3.9214	16.376
3.8979	18.037
3.8746	18.861
3.8515	19.832
3.8288	24.786
3.8063	36.314
3.7841	54.353
3.7621	61.198
3.7404	63.828
3.7189	66.393
3.6977	67.317
3.6767	67.561
3.656	66.961
3.6355	65.836
3.6152	64.031
3.5951	60.53
3.5753	52.747
3.5557	49.072
3.5363	39.282
3.5171	23.719
3.4981	16.837
3.4793	12.873
3.4607	19.417
3.4423	22.913
3.4241	23.364
3.4061	22.891
3.3883	22.009
3.3707	20.99
3.3533	17.627
3.336	31.357
3.3189	47.463
3.302	53.266
3.2853	57.017
3.2687	59.754
3.2523	61.565
3.2361	62.937
3.22	63.89
3.204	64.659
3.1883	65.014
3.1727	64.153
3.1572	61.331
3.1419	60.937
3.1268	61.79
3.1117	59.858
3.0969	60.67
3.0821	62.885
3.0675	63.844
3.0531	64.66
3.0388	65.282
3.0246	65.577
3.0105	65.845
2.9966	65.945
2.9828	66.13
2.9692	65.908
2.9556	65.842
2.9422	65.908
2.9289	66.073
2.9157	66.066
2.9027	66.522
2.8897	67.083
2.8769	67.595
2.8642	68.069
2.8516	68.446
2.8391	68.701
2.8267	68.136
2.8144	67.453
2.8022	65.385
2.7902	61.796
2.7782	64.311
2.7664	69.53
2.7546	72.854
2.7429	74.522
2.7314	76.141
2.7199	76.062
2.7085	81.035
2.6973	84.271
2.6861	86.492
2.675	87.616
2.664	88.188
2.6531	88.884
2.6423	89.158
2.6315	88.898
2.6209	88.72
2.6103	88.459
2.5999	87.75
2.5895	86.011
2.5792	84.33
2.569	82.144
2.5588	77.83
2.5487	71.061
2.5388	65.848
2.5289	66.509
2.519	70.086
2.5093	71.877
2.4996	72.803
2.49	73.711
2.4805	75.082
2.471	77.757
2.4616	80.707
2.4523	82.969
2.4431	84.623
2.4339	86.003
2.4248	87.282
2.4157	88.242
2.4068	88.702
2.3979	88.602
2.389	88.755
2.3802	87.905
2.3715	86.239
2.3629	83.474
2.3543	79.147
2.3458	76.05
2.3373	75.199
2.3289	76.51
2.3206	78.366
2.3123	79.452
2.3041	80.212
2.2959	80.716
2.2878	81.964
2.2798	83.555
2.2718	85.061
2.2638	86.403
2.2559	87.437
2.2481	88.352
2.2403	89.417
2.2326	89.914
2.225	90.637
2.2173	91.249
2.2098	91.685
2.2023	91.751
2.1948	92.125
2.1874	92.003
2.18	91.916
2.1727	91.701
2.1655	91.078
2.1583	91.123
2.1511	91.048
2.144	91.666
2.1369	92.184
2.1299	92.476
2.1229	92.852
2.116	92.989
2.1091	93.175
2.1023	93.218
2.0955	93.38
2.0887	93.584
2.082	93.653
2.06	93.978
2.028	92.71
1.996	89.976
1.964	89.598
1.932	89.674
1.9	90.097
1.868	89.588
1.836	91.051
1.804	91.221
1.772	90.122
1.74	90.87
1.708	90.782
1.676	91.195
1.644	90.945
1.612	90.693
1.58	91.331
1.548	89.968
1.516	89.468
1.484	88.997
1.452	89.695
1.42	89.724
1.388	88.498
1.356	89.886
1.324	89.778
1.292	88.884
1.26	89.882
1.228	89.398
1.196	88.887
1.164	88.316
1.132	88.152
1.1	88.546
1.068	87.69
1.036	88.615
1.004	87.838
0.972	87.718
0.94	87.27
0.908	87.491
0.876	86.843
0.844	86.214
0.812	85.911
0.795	86.049
0.787	85.212
0.779	85.911
0.771	85.326
0.763	86.003
0.755	85.674
0.747	85.75
0.739	85.187
0.731	85.275
0.723	85.59
0.715	86.037
0.707	85.219
0.699	84.686
0.691	86.406
0.683	86.005
0.675	85.747
0.667	86.23
0.659	86.624
0.651	85.643
0.643	86.761
0.635	86.024
0.627	85.862
0.619	86.909
0.611	86.017
0.603	85.714
0.595	85.337
0.587	85.402
0.579	86.332
0.571	86.55
0.563	86.125
0.555	85.625
0.547	85.216
0.539	86.261
0.531	84.168
0.523	85.121
0.515	85.616
0.507	84.921
0.499	84.25
0.491	85.882
0.483	84.294
0.475	83.986
0.467	83.318
0.459	85.251
0.451	83.749
0.443	83.84
0.435	83.997
0.427	82.47
0.419	83.164
0.411	81.705
0.403	81.184
