Name: Hornblende Syenite
Type: Rock
Class: Igneous
Subclass: Alkalic
Particle Size: Solid
Sample No.: Ward19
Owner: JPL
Wavelength Range: All
Origin: Ward's Collection of American Rocks.  Sample locality - Near Cuttingsville, Ruthland County, Vermont.
Description: A granular gray rock composed of feldspar showing goodcleavage and considerable hornblende.Geologic age - Post-Carboniferous - Pre-Cretaceous.Collected by:  Ward's Natural Science Original ASTER Spectral Library name was jpl.nicolet.rock.igneous.alkalic.solid.ward19.spectrum.txt
Measurement: Hemispherical reflectance
X Units: Wavelength (micrometers)
Y Units: Reflectance (percent)
wavelength	value
15.3871	6.2871
15.118	3.8681
14.8581	3.3854
14.6069	3.7359
14.3642	4.0704
14.1293	4.4313
13.9021	4.9156
13.682	4.5761
13.4687	4.8751
13.2621	4.8198
13.0616	4.3108
12.8672	3.7348
12.6784	4.1515
12.4951	3.4157
12.317	4.2411
12.1439	4.9748
11.9757	5.398
11.812	6.1095
11.6527	6.5838
11.4977	6.7978
11.3468	7.3297
11.1997	7.9629
11.0564	8.593
10.9168	9.179
10.7806	10.3975
10.6478	11.3603
10.5182	12.6956
10.3917	14.7651
10.2683	17.1981
10.1477	19.848
10.0299	21.6313
9.9148	23.4754
9.8024	22.4966
9.6925	23.7687
9.585	24.0441
9.4798	19.4862
9.377	15.6724
9.2763	14.0735
9.1778	13.5877
9.0814	12.3272
8.987	12.1091
8.8945	12.9322
8.8039	14.7823
8.7151	15.8376
8.6281	16.1574
8.5428	16.0358
8.4592	16.2607
8.3772	15.4581
8.2967	12.4076
8.2179	8.0913
8.1404	4.4759
8.0645	2.5196
7.9899	1.6557
7.9167	1.2562
7.8449	1.0002
7.7743	1.0718
7.705	1.0428
7.6369	1.1372
7.57	1.1367
7.5043	1.2931
7.4397	1.4514
7.3762	1.5941
7.3138	1.5917
7.2524	1.7063
7.1921	1.7012
7.1327	1.939
7.0743	2.1869
7.0169	2.1292
6.9604	2.2835
6.9047	2.4405
6.85	2.3968
6.7962	2.3489
6.7431	2.5768
6.6909	2.7238
6.6395	2.552
6.5889	2.6155
6.539	2.6929
6.49	2.6918
6.4416	2.884
6.3939	2.8283
6.347	2.9108
6.3007	2.7132
6.2551	2.7002
6.2101	2.8407
6.1658	2.7294
6.1222	2.8916
6.0791	2.9016
6.0366	2.8748
5.9948	2.9134
5.9535	3.0271
5.9127	2.9743
5.8726	3.0173
5.8329	3.0641
5.7938	3.0985
5.7552	3.1679
5.7172	3.3007
5.6796	3.2737
5.6425	3.4495
5.6059	3.5222
5.5698	3.5039
5.5341	3.5429
5.4989	3.7675
5.4641	4.0178
5.4298	4.1121
5.3959	4.285
5.3624	4.4252
5.3294	4.4666
5.2967	4.7411
5.2644	4.7228
5.2326	4.7627
5.2011	4.9131
5.17	4.9944
5.1392	5.3725
5.1088	5.4585
5.0788	5.7389
5.0491	5.9663
5.0198	6.1537
4.9908	6.2456
4.9622	6.5893
4.9338	6.6579
4.9058	6.6826
4.8781	6.8633
4.8508	7.0537
4.8237	7.0426
4.7969	7.0914
4.7704	7.0658
4.7443	7.2227
4.7184	7.3804
4.6927	7.4412
4.6674	7.7212
4.6423	7.9528
4.6175	8.2522
4.593	8.8865
4.5687	9.1424
4.5447	9.6052
4.5209	9.9157
4.4974	10.6111
4.4741	11.1249
4.451	11.5086
4.4282	11.9774
4.4057	12.4107
4.3833	12.902
4.3612	13.276
4.3393	13.7951
4.3176	14.2985
4.2962	14.7749
4.2749	15.1761
4.2539	15.9424
4.233	16.2444
4.2124	16.7987
4.192	17.3056
4.1717	17.755
4.1517	17.9094
4.1319	18.4674
4.1122	18.4334
4.0927	18.8128
4.0734	18.7637
4.0543	18.851
4.0354	18.9884
4.0166	18.7807
3.9981	18.6225
3.9796	18.2795
3.9614	18.6758
3.9433	19.136
3.9254	19.4498
3.9077	19.4999
3.8901	19.4884
3.8726	19.4178
3.8554	19.6681
3.8382	19.56
3.8213	19.8434
3.8045	19.7871
3.7878	19.9218
3.7713	19.7878
3.7549	19.8122
3.7386	19.591
3.7225	19.4689
3.7066	19.2511
3.6907	19.2034
3.675	19.0251
3.6595	19.1285
3.644	18.8414
3.6287	18.744
3.6136	18.2536
3.5985	18.1717
3.5836	17.9727
3.5688	17.666
3.5541	17.4142
3.5396	17.2429
3.5251	16.9394
3.5108	16.4293
3.4966	16.1837
3.4825	15.5284
3.4685	15.6886
3.4547	15.6127
3.4409	15.0172
3.4273	14.9693
3.4137	14.8398
3.4003	14.1667
3.387	14.125
3.3738	13.8018
3.3606	13.6645
3.3476	13.5454
3.3347	13.1773
3.3219	12.9325
3.3092	12.8231
3.2965	12.2038
3.284	12.2594
3.2716	11.6987
3.2593	11.5933
3.247	11.4909
3.2348	11.4332
3.2228	11.341
3.2108	10.8766
3.1989	10.5057
3.1871	10.2631
3.1754	9.7808
3.1638	9.9157
3.1523	9.4241
3.1408	9.2506
3.1294	9.2014
3.1181	8.836
3.1069	8.7952
3.0958	8.7982
3.0848	8.7369
3.0738	8.9882
3.0629	8.5507
3.0521	8.4023
3.0413	8.4596
3.0307	7.7683
3.0201	7.8988
3.0096	8.0353
2.9991	7.503
2.9887	7.7962
2.9784	7.61
2.9682	7.9169
2.9581	8.1036
2.948	7.9651
2.9379	8.0155
2.928	7.9294
2.9181	7.6863
2.9083	8.4329
2.8985	8.0284
2.8888	7.908
2.8792	7.6797
2.8697	8.3261
2.8602	8.4432
2.8507	8.2609
2.8413	7.855
2.832	8.12
2.8228	7.315
2.8136	8.6738
2.8045	7.8225
2.7954	9.2057
2.7864	9.1107
2.7774	9.2052
2.7685	9.1479
2.7597	9.073
2.7509	9.5387
2.7422	11.0293
2.7335	11.5471
2.7249	13.2315
2.7163	15.711
2.7078	17.8681
2.6994	19.44
2.691	22.2112
2.6826	24.0241
2.6743	24.8851
2.666	25.91
2.6578	26.074
2.6497	26.8762
2.6416	27.0989
2.6336	27.1032
2.6256	27.9239
2.6176	27.9266
2.6097	28.1756
2.6018	27.9643
2.594	28.9884
2.5863	28.8185
2.5785	28.7214
2.5709	28.8544
2.5633	28.6186
2.5557	28.8089
2.5481	28.9752
2.5406	28.9423
2.5332	29.4803
2.5258	29.036
2.5184	29.245
2.5111	29.4535
2.5038	29.3776
2.4966	29.5889
2.4894	29.1172
2.4823	29.7904
2.4752	29.8518
2.4681	29.3808
2.4611	29.2103
2.4541	29.5936
2.4471	29.3431
2.4402	29.374
2.4333	29.6089
2.4265	29.4784
2.4197	29.974
2.413	30.0802
2.4063	30.7782
2.3996	31.1398
2.3929	31.3253
2.3863	31.5634
2.3798	32.0727
2.3732	31.3604
2.3667	31.8601
2.3603	31.1923
2.3538	32.5742
2.3474	31.8909
2.3411	32.623
2.3347	32.7013
2.3285	33.0823
2.3222	33.1763
2.316	33.1206
2.3098	33.0854
2.3036	34.1467
2.2975	33.5396
2.2914	33.9152
2.2854	33.9737
2.2793	34.098
2.2733	34.8642
2.2674	33.7477
2.2614	34.0983
2.2555	33.6903
2.2497	34.0136
2.2438	33.5709
2.238	33.9064
2.2322	33.9097
2.2265	34.8214
2.2208	34.1864
2.2151	33.8532
2.2094	33.5691
2.2038	33.0342
2.1982	33.4741
2.1926	33.692
2.187	33.4301
2.1815	34.2077
2.176	33.6234
2.1706	34.2173
2.1651	34.1792
2.1597	33.7723
2.1543	34.7608
2.149	33.5774
2.1436	34.0765
2.1383	34.0554
2.1331	34.7974
2.1278	33.6279
2.1226	33.9189
2.1174	33.3995
2.1122	32.9882
2.1071	33.2579
2.1019	34.1086
2.0968	34.6704
2.0918	33.5097
2.0867	34.0244
2.0817	34.3612
2.0767	34.0731
2.0717	34.5745
2.0667	34.9816
2.0618	32.2682
2.0569	30.2193
2.052	34.6149
2.0472	32.6829
2.0423	33.5836
2.0375	32.5162
2.0327	33.7298
2.028	33.3192
2.0232	33.5222
2.0185	31.4178
2.0138	31.3157
2.0091	33.0008
2.0044	31.7563
1.9998	33.0807
