Name: Green Slate
Type: rock
Class: Metamorphic
Subclass: Slate
Particle Size: Fine
Sample No.: slate2
Owner: JHU
Wavelength Range: All
Origin: Sample No. 461, The Hunt and Salisbury Collection at the U.S.Geological Survey, Denver, Co.
Description: This is a medium-grained sample dissected by thin veins.  Microscopically it consists of about equal amounts of actinolite and recrystallized albite lathes.  The groundmass also consists of some chlorite, and carbonate, which is especially prominent in the veins, along with scattered pyrite.  Modes were 59.3% amphibole, 25.7% albite, 10.8% chlorite, 3% calcite and 1% pyrite.Particle size was 0-75 Micrometer. Original ASTER Spectral Library name was jhu.becknic.rock.metamorphic.slate.fine.slate2.spectrum.txt
Measurement: Directional (10 Degree) Hemispherical Reflectance
X Units: Wavelength (micrometers)
Y Units: Reflectance (percent)
wavelength	value
14.983	1.4005
14.645	1.7472
14.321	1.9028
14.011	2.084
13.715	1.9258
13.43	1.8294
13.158	1.6115
12.896	1.9663
12.644	2.1704
12.402	3.3498
12.169	4.0195
11.945	3.9816
11.729	3.6238
11.52	3.3758
11.319	3.3578
11.125	3.1283
10.937	2.7094
10.755	2.6189
10.58	2.7411
10.41	2.8662
10.245	2.9583
10.086	3.0566
9.9313	2.8316
9.7814	2.5766
9.636	2.6675
9.4948	2.4181
9.3577	2.3168
9.2245	2.2119
9.095	2.0376
8.9691	2.0527
8.8467	2.1522
8.7275	2.3274
8.6116	2.2649
8.4986	2.2907
8.3886	2.5612
8.2814	2.9607
8.1769	3.2086
8.075	3.3067
7.9756	3.8044
7.8786	4.5073
7.784	5.4799
7.6916	6.6569
7.6014	7.7642
7.5133	8.7925
7.4272	9.6254
7.343	10.448
7.2607	11.1
7.1803	11.424
7.1016	12.076
7.0246	12.474
6.9493	12.782
6.8755	13.131
6.8034	13.814
6.7327	14.67
6.6634	15.698
6.5956	16.525
6.5292	17.199
6.464	17.74
6.4002	17.712
6.3376	17.002
6.2762	16.358
6.216	16.162
6.157	16.669
6.099	17.469
6.0421	17.918
5.9863	17.96
5.9315	18.026
5.8777	18.784
5.8249	19.594
5.773	20.002
5.722	20.173
5.6719	20.535
5.6227	21.25
5.5744	21.455
5.5268	23.3
5.4801	24.597
5.4341	25.65
5.3889	26.128
5.3445	26.378
5.3008	27.063
5.2578	28.025
5.2154	29.028
5.1738	29.647
5.1328	30.469
5.0925	31.412
5.0528	32.255
5.0137	32.953
4.9752	33.772
4.9373	34.895
4.9	35.979
4.8632	37.225
4.827	38.888
4.7913	40.074
4.7561	42.027
4.7215	44.1
4.6873	45.655
4.6536	47.065
4.6205	48.581
4.5877	50.331
4.5555	52.03
4.5237	53.317
4.4923	54.354
4.4614	55.322
4.4309	56.283
4.4008	57.143
4.3711	57.891
4.3418	58.543
4.3129	59.092
4.2844	59.634
4.2563	60.072
4.2285	60.49
4.2011	60.882
4.174	61.231
4.1473	61.523
4.1209	61.791
4.0949	61.966
4.0692	62.11
4.0438	61.981
4.0187	61.378
3.994	59.502
3.9695	59.085
3.9453	60.832
3.9214	61.578
3.8979	61.695
3.8746	61.696
3.8515	61.632
3.8288	61.735
3.8063	61.918
3.7841	61.93
3.7621	61.727
3.7404	61.348
3.7189	61.022
3.6977	60.679
3.6767	60.294
3.656	59.866
3.6355	59.416
3.6152	58.901
3.5951	58.348
3.5753	57.707
3.5557	57.035
3.5363	56.321
3.5171	55.254
3.4981	54.099
3.4793	53.205
3.4607	53.091
3.4423	52.475
3.4241	51.591
3.4061	50.734
3.3883	50.029
3.3707	49.132
3.3533	48.196
3.336	47.77
3.3189	47.03
3.302	46.089
3.2853	45.035
3.2687	44.01
3.2523	42.787
3.2361	41.497
3.22	40.028
3.204	38.321
3.1883	36.556
3.1727	34.859
3.1572	33.117
3.1419	31.249
3.1268	29.139
3.1117	26.964
3.0969	24.939
3.0821	22.999
3.0675	21.366
3.0531	20.013
3.0388	18.793
3.0246	17.678
3.0105	16.309
2.9966	14.845
2.9828	13.625
2.9692	12.892
2.9556	12.581
2.9422	12.668
2.9289	12.938
2.9157	13.397
2.9027	13.839
2.8897	14.313
2.8769	14.46
2.8642	14.576
2.8516	14.529
2.8391	14.193
2.8267	13.791
2.8144	13.855
2.8022	14.981
2.7902	17.521
2.7782	18.865
2.7664	19.614
2.7546	19.361
2.7429	18.96
2.7314	20.815
2.7199	29.101
2.7085	45.205
2.6973	55.509
2.6861	63.152
2.675	65.999
2.664	67.676
2.6531	68.663
2.6423	69.254
2.6315	69.451
2.6209	69.741
2.6103	70.088
2.5999	70.295
2.5895	70.378
2.5792	70.457
2.569	70.678
2.5588	70.773
2.5487	70.955
2.5388	71.023
2.5289	71.026
2.519	71.081
2.5093	71.236
2.4996	71.461
2.49	71.691
2.4805	72.001
2.471	72.377
2.4616	72.742
2.4523	73.107
2.4431	73.278
2.4339	73.138
2.4248	72.651
2.4157	71.836
2.4068	70.987
2.3979	70.407
2.389	70.541
2.3802	71.046
2.3715	70.601
2.3629	69.189
2.3543	67.303
2.3458	66.082
2.3373	65.688
2.3289	65.839
2.3206	66.659
2.3123	67.671
2.3041	68.854
2.2959	70.554
2.2878	72.4
2.2798	73.465
2.2718	73.584
2.2638	73.013
2.2559	72.643
2.2481	73.685
2.2403	75.528
2.2326	76.621
2.225	77.116
2.2173	77.365
2.2098	77.505
2.2023	77.646
2.1948	77.841
2.1874	78.17
2.18	78.51
2.1727	78.607
2.1655	78.606
2.1583	78.653
2.1511	78.63
2.144	78.615
2.1369	78.41
2.1299	78.514
2.1229	78.482
2.116	78.428
2.1091	78.75
2.1023	78.891
2.0955	78.755
2.0887	78.833
2.082	78.785
2.06	78.454
2.028	76.666
1.996	75.266
1.964	74.195
1.932	73.468
1.9	74.008
1.868	73.382
1.836	73.795
1.804	72.042
1.772	71.188
1.74	70.272
1.708	69.807
1.676	68.684
1.644	67.438
1.612	65.028
1.58	64.226
1.548	62.032
1.516	60.691
1.484	59.063
1.452	57.318
1.42	55.349
1.388	52.165
1.356	51.261
1.324	48.967
1.292	46.465
1.26	44.708
1.228	42.521
1.196	40.11
1.164	38.034
1.132	36.491
1.1	35.391
1.068	34.14
1.036	33.734
1.004	32.781
0.972	31.538
0.94	30.073
0.908	29.296
0.876	28.846
0.844	28.724
0.812	28.444
0.795	28.761
0.787	28.426
0.779	28.216
0.771	27.619
0.763	27.428
0.755	26.982
0.747	26.514
0.739	26.301
0.731	26.292
0.723	25.984
0.715	26.021
0.707	25.669
0.699	26.099
0.691	26.08
0.683	25.88
0.675	26.241
0.667	26.161
0.659	26.487
0.651	26.24
0.643	26.748
0.635	26.76
0.627	26.719
0.619	27.419
0.611	27.397
0.603	27.599
0.595	27.603
0.587	28.173
0.579	28.586
0.571	28.804
0.563	29.132
0.555	28.405
0.547	28.228
0.539	28.708
0.531	28.184
0.523	28.627
0.515	28.336
0.507	28.12
0.499	27.587
0.491	27.253
0.483	26.8
0.475	26.085
0.467	25.158
0.459	24.889
0.451	24.124
0.443	23.586
0.435	23.642
0.427	22.448
0.419	21.497
0.411	20.405
0.403	19.771
