Name: Diorite Gneiss
Type: rock
Class: Metamorphic
Subclass: Gneis
Particle Size: Fine
Sample No.: gneiss7
Owner: JHU
Wavelength Range: All
Origin: Sample No. 464, The Hunt and Salisbury Collection at the U.S.Geological Survey, Denver, Co.
Description: This is a coarse-grained sample composed of hornblende euhedra assocciated with biotite, with anhedra and subhedra of alkali feldspars (oligoclase and orthoclase)  which are slightly sericitized.  Zircon and pyrite crystals occur throughout the section.  There may be a trace of quartz present as well.  Some carbonate (?), or zircon masses (high relief, colorless, perhaps 3rd order B.R.) occur in this rock, often associated with the amphibole or opaques. Particle size was 0-75 Micrometer. Original ASTER Spectral Library name was jhu.becknic.rock.metamorphic.gneiss.fine.gneiss7.spectrum.txt
Measurement: Directional (10 Degree) Hemispherical Reflectance
X Units: Wavelength (micrometers)
Y Units: Reflectance (percent)
wavelength	value
14.983	1.0226
14.645	1.5407
14.321	1.6409
14.011	1.8678
13.715	1.8914
13.43	1.8687
13.158	1.8502
12.896	2.0901
12.644	2.5041
12.402	3.4575
12.169	4.7474
11.945	4.8216
11.729	4.3089
11.52	4.0948
11.319	3.866
11.125	3.4606
10.937	3.2115
10.755	3.279
10.58	3.4622
10.41	3.5814
10.245	3.6801
10.086	3.7666
9.9313	3.668
9.7814	3.395
9.636	3.2529
9.4948	2.9931
9.3577	2.5991
9.2245	2.3414
9.095	2.2623
8.9691	2.2403
8.8467	2.4544
8.7275	2.7525
8.6116	2.717
8.4986	2.785
8.3886	3.1106
8.2814	3.3024
8.1769	2.8733
8.075	2.7686
7.9756	3.1021
7.8786	3.7294
7.784	4.5251
7.6916	5.4013
7.6014	6.2908
7.5133	7.1869
7.4272	8.0735
7.343	8.9398
7.2607	9.7007
7.1803	10.276
7.1016	10.949
7.0246	11.431
6.9493	11.891
6.8755	12.435
6.8034	13.162
6.7327	13.884
6.6634	14.487
6.5956	15.114
6.5292	15.619
6.464	15.811
6.4002	15.615
6.3376	15.271
6.2762	14.948
6.216	14.535
6.157	14.379
6.099	14.621
6.0421	15.031
5.9863	15.717
5.9315	16.244
5.8777	16.738
5.8249	17.364
5.773	17.831
5.722	18.303
5.6719	18.923
5.6227	19.816
5.5744	20.466
5.5268	21.878
5.4801	22.931
5.4341	23.817
5.3889	24.537
5.3445	25.226
5.3008	26.157
5.2578	27.106
5.2154	28.101
5.1738	29.153
5.1328	30.155
5.0925	31.272
5.0528	32.424
5.0137	33.376
4.9752	34.425
4.9373	35.53
4.9	36.613
4.8632	37.683
4.827	38.755
4.7913	39.788
4.7561	40.941
4.7215	42.126
4.6873	43.254
4.6536	44.525
4.6205	45.871
4.5877	47.137
4.5555	48.308
4.5237	49.252
4.4923	49.956
4.4614	50.675
4.4309	51.611
4.4008	52.578
4.3711	53.404
4.3418	54.079
4.3129	54.656
4.2844	55.199
4.2563	55.618
4.2285	56.073
4.2011	56.399
4.174	56.722
4.1473	56.97
4.1209	57.215
4.0949	57.392
4.0692	57.493
4.0438	57.447
4.0187	57.009
3.994	55.915
3.9695	55.559
3.9453	56.72
3.9214	57.41
3.8979	57.674
3.8746	57.789
3.8515	57.951
3.8288	58.199
3.8063	58.476
3.7841	58.679
3.7621	58.669
3.7404	58.59
3.7189	58.475
3.6977	58.315
3.6767	58.144
3.656	57.969
3.6355	57.743
3.6152	57.473
3.5951	57.16
3.5753	56.794
3.5557	56.395
3.5363	55.874
3.5171	54.964
3.4981	54.007
3.4793	53.453
3.4607	53.382
3.4423	52.83
3.4241	52.265
3.4061	51.7
3.3883	51.19
3.3707	50.617
3.3533	49.958
3.336	49.819
3.3189	49.418
3.302	48.779
3.2853	48.066
3.2687	47.281
3.2523	46.426
3.2361	45.563
3.22	44.697
3.204	43.78
3.1883	42.895
3.1727	42.049
3.1572	41.123
3.1419	40.144
3.1268	39.177
3.1117	38.236
3.0969	37.406
3.0821	36.626
3.0675	35.962
3.0531	35.316
3.0388	34.585
3.0246	33.729
3.0105	32.81
2.9966	31.808
2.9828	30.892
2.9692	30.161
2.9556	29.658
2.9422	29.261
2.9289	29.132
2.9157	29.106
2.9027	29.028
2.8897	28.757
2.8769	28.125
2.8642	27.87
2.8516	28.145
2.8391	27.901
2.8267	27.221
2.8144	26.614
2.8022	26.158
2.7902	25.253
2.7782	20.604
2.7664	17.309
2.7546	16.724
2.7429	18.511
2.7314	21.141
2.7199	23.65
2.7085	26.639
2.6973	33.903
2.6861	47.611
2.675	56.295
2.664	57.514
2.6531	58.622
2.6423	59.325
2.6315	59.257
2.6209	59.361
2.6103	59.586
2.5999	59.693
2.5895	59.775
2.5792	59.927
2.569	59.957
2.5588	59.947
2.5487	60.053
2.5388	60.125
2.5289	60.106
2.519	60.1
2.5093	60.12
2.4996	60.08
2.49	60.121
2.4805	60.169
2.471	60.236
2.4616	60.332
2.4523	60.361
2.4431	60.319
2.4339	60.142
2.4248	59.775
2.4157	59.221
2.4068	58.559
2.3979	58.057
2.389	58.064
2.3802	58.493
2.3715	58.908
2.3629	58.724
2.3543	57.997
2.3458	57.122
2.3373	56.694
2.3289	56.644
2.3206	56.732
2.3123	57.107
2.3041	57.612
2.2959	58.51
2.2878	60.017
2.2798	61.201
2.2718	61.64
2.2638	61.586
2.2559	61.379
2.2481	61.557
2.2403	61.977
2.2326	62.107
2.225	62.187
2.2173	62.175
2.2098	61.973
2.2023	61.995
2.1948	62.15
2.1874	62.091
2.18	62.302
2.1727	62.354
2.1655	62.354
2.1583	62.268
2.1511	62.339
2.144	62.213
2.1369	62.186
2.1299	62.12
2.1229	62.153
2.116	62.211
2.1091	62.09
2.1023	62.078
2.0955	62.142
2.0887	62.12
2.082	62.168
2.06	61.126
2.028	59.944
1.996	57.599
1.964	55.607
1.932	54.495
1.9	53.459
1.868	54.501
1.836	54.586
1.804	53.521
1.772	52.615
1.74	51.272
1.708	51.107
1.676	49.932
1.644	48.638
1.612	47.232
1.58	46.74
1.548	44.753
1.516	43.162
1.484	41.832
1.452	40.437
1.42	38.525
1.388	36.091
1.356	35.485
1.324	33.532
1.292	31.566
1.26	30.012
1.228	28.026
1.196	26.223
1.164	24.474
1.132	23.225
1.1	22.11
1.068	21.003
1.036	20.262
1.004	19.319
0.972	18.092
0.94	17.102
0.908	16.268
0.876	15.885
0.844	15.772
0.812	15.293
0.795	15.069
0.787	14.641
0.779	14.423
0.771	13.943
0.763	13.839
0.755	13.585
0.747	13.22
0.739	13.001
0.731	12.709
0.723	12.394
0.715	12.524
0.707	12.364
0.699	12.667
0.691	11.931
0.683	11.831
0.675	11.985
0.667	11.901
0.659	12.01
0.651	11.796
0.643	12.176
0.635	11.814
0.627	11.978
0.619	12.331
0.611	12.313
0.603	12.313
0.595	12.47
0.587	12.706
0.579	12.809
0.571	12.996
0.563	12.913
0.555	12.624
0.547	12.605
0.539	12.815
0.531	12.47
0.523	12.266
0.515	12.355
0.507	12.122
0.499	11.715
0.491	11.632
0.483	11.391
0.475	10.777
0.467	10.276
0.459	9.6753
0.451	9.6152
0.443	8.9386
0.435	9.0681
0.427	8.4023
0.419	7.7287
0.411	7.0775
0.403	6.8504
