Name: Calcareous Shale
Type: Rock
Class: Sedimentary
Subclass: Shale
Particle Size: Solid
Sample No.: Ward51
Owner: JPL
Wavelength Range: All
Origin: Ward's Collection of American Rocks.  Sample locality - Ontario County, New York.
Description: A compact light-gray rock.  It does not have thin shalystructure but appears to be more massive.  Fossils are sometimes quitabundant.Geologic age - Middle Devonian.Collected by:  Ward's Natural Science Original ASTER Spectral Library name was jpl.nicolet.rock.sedimentary.shale.solid.ward51.spectrum.txt
Measurement: Hemispherical reflectance
X Units: Wavelength (micrometers)
Y Units: Reflectance (percent)
wavelength	value
15.3871	3.9198
15.118	4.6884
14.8581	4.8528
14.6069	5.3121
14.3642	4.7434
14.1293	4.4462
13.9021	5.2648
13.682	5.7263
13.4687	6.337
13.2621	6.3913
13.0616	7.0406
12.8672	7.6155
12.6784	6.5835
12.4951	6.0893
12.317	4.4478
12.1439	5.1041
11.9757	5.5752
11.812	5.9933
11.6527	6.6439
11.4977	7.7437
11.3468	8.3319
11.1997	8.9083
11.0564	9.7111
10.9168	9.9528
10.7806	10.1824
10.6478	10.7164
10.5182	11.584
10.3917	13.4897
10.2683	15.6765
10.1477	17.883
10.0299	19.1688
9.9148	20.2683
9.8024	21.841
9.6925	23.8641
9.585	25.0739
9.4798	23.7418
9.377	24.6229
9.2763	26.0906
9.1778	25.3169
9.0814	24.3436
8.987	23.1662
8.8945	22.7319
8.8039	21.8031
8.7151	19.6898
8.6281	14.4037
8.5428	17.1261
8.4592	15.4512
8.3772	14.345
8.2967	13.8942
8.2179	14.0892
8.1404	14.0824
8.0645	12.3851
7.9899	11.2836
7.9167	10.1744
7.8449	9.088
7.7743	9.0406
7.705	9.1305
7.6369	8.664
7.57	8.1744
7.5043	8.4702
7.4397	8.418
7.3762	8.1156
7.3138	7.621
7.2524	7.0521
7.1921	6.57
7.1327	6.5678
7.0743	6.9287
7.0169	6.6927
6.9604	6.4941
6.9047	6.411
6.85	6.6848
6.7962	6.9981
6.7431	7.1971
6.6909	7.4319
6.6395	7.9204
6.5889	7.989
6.539	7.8734
6.49	7.9407
6.4416	7.5318
6.3939	6.5955
6.347	5.5961
6.3007	4.8915
6.2551	4.1977
6.2101	3.9491
6.1658	3.8868
6.1222	4.0015
6.0791	4.0261
6.0366	4.0996
5.9948	3.9342
5.9535	3.9514
5.9127	3.9154
5.8726	4.0708
5.8329	4.2534
5.7938	4.3308
5.7552	4.32
5.7172	4.3425
5.6796	4.3846
5.6425	4.3132
5.6059	4.0537
5.5698	3.9541
5.5341	4.2323
5.4989	4.3674
5.4641	4.6401
5.4298	4.5091
5.3959	4.3756
5.3624	4.1206
5.3294	4.1161
5.2967	4.1197
5.2644	4.4852
5.2326	4.731
5.2011	4.9256
5.17	4.9319
5.1392	4.9858
5.1088	4.9899
5.0788	4.891
5.0491	5.0693
5.0198	4.9637
4.9908	5.061
4.9622	5.3104
4.9338	5.4329
4.9058	5.5815
4.8781	5.7973
4.8508	5.9964
4.8237	5.9553
4.7969	6.0884
4.7704	5.9733
4.7443	6.1465
4.7184	6.1516
4.6927	6.1899
4.6674	6.2732
4.6423	6.3202
4.6175	6.3875
4.593	6.4449
4.5687	6.5719
4.5447	6.5607
4.5209	6.5786
4.4974	6.4919
4.4741	6.5199
4.451	6.6943
4.4282	6.7263
4.4057	6.6493
4.3833	6.7718
4.3612	6.8261
4.3393	6.7769
4.3176	6.7396
4.2962	6.8305
4.2749	6.8641
4.2539	6.9339
4.233	6.9697
4.2124	6.9377
4.192	7.1035
4.1717	7.0263
4.1517	7.0317
4.1319	7.1719
4.1122	7.2738
4.0927	7.1807
4.0734	7.0578
4.0543	7.1576
4.0354	7.1263
4.0166	6.8452
3.9981	6.5598
3.9796	6.214
3.9614	6.3675
3.9433	6.7269
3.9254	6.9729
3.9077	6.8137
3.8901	6.8375
3.8726	7.0145
3.8554	7.0788
3.8382	6.9445
3.8213	7.0983
3.8045	7.2142
3.7878	7.371
3.7713	7.3401
3.7549	7.348
3.7386	7.1611
3.7225	7.2239
3.7066	7.3987
3.6907	7.2336
3.675	7.4237
3.6595	7.3084
3.644	7.2362
3.6287	7.154
3.6136	7.1897
3.5985	6.9496
3.5836	6.7996
3.5688	7.1422
3.5541	6.8779
3.5396	6.7965
3.5251	6.629
3.5108	6.7229
3.4966	6.4204
3.4825	6.213
3.4685	6.6942
3.4547	6.2862
3.4409	6.4399
3.4273	6.2484
3.4137	6.1412
3.4003	6.5258
3.387	6.2728
3.3738	6.3009
3.3606	6.3132
3.3476	6.1768
3.3347	6.2242
3.3219	6.1201
3.3092	6.1152
3.2965	6.28
3.284	5.9771
3.2716	6.391
3.2593	6.0828
3.247	6.0945
3.2348	6.0146
3.2228	6.3072
3.2108	6.1683
3.1989	6.0268
3.1871	6.3467
3.1754	6.0794
3.1638	5.9521
3.1523	5.7983
3.1408	6.1064
3.1294	5.6852
3.1181	5.6095
3.1069	5.6529
3.0958	5.7049
3.0848	5.424
3.0738	5.4121
3.0629	5.2507
3.0521	5.4085
3.0413	5.256
3.0307	5.2146
3.0201	5.1466
3.0096	5.3912
2.9991	5.034
2.9887	4.9765
2.9784	5.1394
2.9682	4.9093
2.9581	5.1925
2.948	5.141
2.9379	5.5225
2.928	5.1815
2.9181	5.3388
2.9083	5.0938
2.8985	5.4588
2.8888	5.3858
2.8792	5.9631
2.8697	4.917
2.8602	5.1163
2.8507	5.9463
2.8413	5.3188
2.832	4.8725
2.8228	5.3605
2.8136	5.7019
2.8045	5.881
2.7954	5.127
2.7864	5.6903
2.7774	5.2934
2.7685	5.4939
2.7597	4.8327
2.7509	4.7722
2.7422	4.7883
2.7335	4.9924
2.7249	5.5149
2.7163	6.0245
2.7078	7.2472
2.6994	7.4856
2.691	7.6697
2.6826	8.1067
2.6743	7.9666
2.666	8.264
2.6578	8.154
2.6497	8.2981
2.6416	8.1396
2.6336	8.7659
2.6256	8.3564
2.6176	8.2057
2.6097	8.6087
2.6018	8.8497
2.594	8.2118
2.5863	8.6873
2.5785	8.4762
2.5709	8.454
2.5633	8.8714
2.5557	8.4422
2.5481	9.0721
2.5406	9.0795
2.5332	8.2685
2.5258	8.5922
2.5184	8.6151
2.5111	8.0652
2.5038	8.4714
2.4966	8.8896
2.4894	8.3765
2.4823	8.739
2.4752	8.1799
2.4681	8.6907
2.4611	8.0807
2.4541	8.1063
2.4471	8.4068
2.4402	8.4377
2.4333	8.2781
2.4265	8.9415
2.4197	8.5276
2.413	8.4477
2.4063	8.8877
2.3996	9.3774
2.3929	8.6351
2.3863	9.0449
2.3798	8.9114
2.3732	8.5044
2.3667	8.8194
2.3603	8.3407
2.3538	9.6686
2.3474	8.9285
2.3411	8.9816
2.3347	9.2149
2.3285	8.7072
2.3222	8.7261
2.316	9.5237
2.3098	9.4045
2.3036	9.7118
2.2975	9.2196
2.2914	9.28
2.2854	8.9697
2.2793	8.9183
2.2733	9.7056
2.2674	9.5526
2.2614	10.1039
2.2555	9.1646
2.2497	9.1103
2.2438	9.4297
2.238	9.0703
2.2322	9.0458
2.2265	9.7174
2.2208	9.133
2.2151	8.6113
2.2094	8.5108
2.2038	9.1895
2.1982	8.9303
2.1926	8.7586
2.187	9.6017
2.1815	8.6769
2.176	10.0938
2.1706	9.6242
2.1651	9.417
2.1597	10.374
2.1543	10.3277
2.149	9.0422
2.1436	9.5517
2.1383	10.0345
2.1331	8.9186
2.1278	9.6076
2.1226	9.5991
2.1174	9.6906
2.1122	10.1747
2.1071	9.14
2.1019	10.4816
2.0968	8.7647
2.0918	7.7864
2.0867	10.4684
2.0817	8.4618
2.0767	9.7663
2.0717	9.2839
2.0667	10.2602
2.0618	9.1643
2.0569	10.4556
2.052	10.8697
2.0472	9.1219
2.0423	8.9222
2.0375	10.7991
2.0327	10.2079
2.028	10.8196
2.0232	11.8221
2.0185	8.5655
2.0138	11.1442
2.0091	11.0839
2.0044	10.4869
1.9998	9.2155
