Name: Travertine (Calcareous Tufa)
Type: Rock
Class: Sedimentary
Subclass: Limestone
Particle Size: Solid
Sample No.: Ward73
Owner: JPL
Wavelength Range: All
Origin: Ward's Collection of American Rocks.  Sample locality - Mumford, Monroe County, New York.
Description: A buff porous carbonate rock.  Plant impressions aoccasionally present.Geologic age - Pleistocene.Collected by:  Ward's Natural Science Original ASTER Spectral Library name was jpl.nicolet.rock.sedimentary.limestone.solid.ward73.spectrum.txt
Measurement: Hemispherical reflectance
X Units: Wavelength (micrometers)
Y Units: Reflectance (percent)
wavelength	value
15.3871	2.7405
15.118	3.0319
14.8581	2.7809
14.6069	3.7199
14.3642	3.6259
14.1293	2.9063
13.9021	1.9116
13.682	3.9001
13.4687	4.8785
13.2621	5.1355
13.0616	5.2467
12.8672	5.3695
12.6784	5.6124
12.4951	5.7301
12.317	6.4845
12.1439	6.7931
11.9757	7.2375
11.812	5.4456
11.6527	7.6224
11.4977	5.3187
11.3468	7.5421
11.1997	11.0048
11.0564	10.3149
10.9168	10.0165
10.7806	9.4774
10.6478	9.1664
10.5182	9.3687
10.3917	9.6504
10.2683	9.4789
10.1477	8.5974
10.0299	8.0698
9.9148	7.5969
9.8024	7.4207
9.6925	7.5183
9.585	7.5334
9.4798	7.7303
9.377	7.1869
9.2763	6.34
9.1778	5.5968
9.0814	5.8829
8.987	5.8412
8.8945	4.9094
8.8039	3.8176
8.7151	3.4515
8.6281	3.416
8.5428	3.7088
8.4592	4.3088
8.3772	5.7788
8.2967	7.329
8.2179	8.6191
8.1404	8.9492
8.0645	9.1948
7.9899	9.7111
7.9167	9.711
7.8449	9.9356
7.7743	9.9052
7.705	9.6755
7.6369	8.8916
7.57	8.2625
7.5043	8.1275
7.4397	7.8641
7.3762	7.2281
7.3138	6.3307
7.2524	5.8237
7.1921	5.7095
7.1327	6.5021
7.0743	7.9027
7.0169	7.6216
6.9604	7.276
6.9047	7.2758
6.85	7.3375
6.7962	7.5889
6.7431	7.9218
6.6909	8.3374
6.6395	9.3337
6.5889	9.9723
6.539	10.9409
6.49	11.5731
6.4416	11.0025
6.3939	7.8525
6.347	5.2226
6.3007	3.3861
6.2551	2.8322
6.2101	2.4508
6.1658	2.1429
6.1222	2.211
6.0791	2.2685
6.0366	2.257
5.9948	2.4855
5.9535	2.6879
5.9127	3.2083
5.8726	3.6488
5.8329	3.9422
5.7938	4.0735
5.7552	4.2773
5.7172	4.8128
5.6796	5.4977
5.6425	5.7874
5.6059	4.0804
5.5698	1.9368
5.5341	4.8365
5.4989	8.6364
5.4641	11.3796
5.4298	13.5586
5.3959	15.1913
5.3624	16.7902
5.3294	18.0329
5.2967	19.1739
5.2644	19.973
5.2326	20.6818
5.2011	21.3144
5.17	21.6211
5.1392	21.9573
5.1088	20.4758
5.0788	22.2451
5.0491	22.6887
5.0198	22.7951
4.9908	22.7504
4.9622	22.6254
4.9338	22.5048
4.9058	22.5583
4.8781	22.5549
4.8508	22.4071
4.8237	22.3739
4.7969	22.1091
4.7704	21.6542
4.7443	20.7607
4.7184	18.7207
4.6927	16.3912
4.6674	15.8306
4.6423	17.0004
4.6175	18.417
4.593	19.004
4.5687	19.5514
4.5447	20.0212
4.5209	20.2952
4.4974	20.7932
4.4741	21.319
4.451	21.8232
4.4282	22.357
4.4057	22.668
4.3833	22.7506
4.3612	22.4738
4.3393	22.377
4.3176	22.5037
4.2962	22.5905
4.2749	22.0108
4.2539	23.0736
4.233	22.8269
4.2124	23.3615
4.192	23.6618
4.1717	23.269
4.1517	22.883
4.1319	22.1706
4.1122	21.2318
4.0927	19.9843
4.0734	18.4521
4.0543	16.1391
4.0354	12.4466
4.0166	8.9598
3.9981	5.6819
3.9796	4.8933
3.9614	5.3638
3.9433	7.5623
3.9254	8.9078
3.9077	9.6886
3.8901	9.6944
3.8726	10.2929
3.8554	10.5173
3.8382	11.2355
3.8213	13.6505
3.8045	16.475
3.7878	19.7916
3.7713	20.8625
3.7549	21.0382
3.7386	21.0426
3.7225	20.9573
3.7066	20.8802
3.6907	20.662
3.675	20.4982
3.6595	20.12
3.644	19.7985
3.6287	19.4131
3.6136	18.8043
3.5985	18.2537
3.5836	17.4647
3.5688	16.8697
3.5541	15.9327
3.5396	14.5284
3.5251	11.9678
3.5108	9.5746
3.4966	8.4553
3.4825	7.6238
3.4685	8.6
3.4547	9.7416
3.4409	9.9341
3.4273	9.3994
3.4137	9.1542
3.4003	9.1407
3.387	9.1893
3.3738	9.1451
3.3606	8.7848
3.3476	8.9371
3.3347	11.2496
3.3219	12.1285
3.3092	12.2491
3.2965	12.4863
3.284	12.0095
3.2716	11.836
3.2593	11.9054
3.247	11.5217
3.2348	11.3698
3.2228	10.8563
3.2108	11.0505
3.1989	10.6329
3.1871	10.4667
3.1754	10.0598
3.1638	9.8417
3.1523	9.7114
3.1408	9.386
3.1294	8.6973
3.1181	9.0554
3.1069	8.9039
3.0958	8.5335
3.0848	8.7083
3.0738	8.326
3.0629	8.4404
3.0521	8.3672
3.0413	8.1603
3.0307	7.9527
3.0201	8.1058
3.0096	7.8981
2.9991	7.9266
2.9887	7.3111
2.9784	8.2339
2.9682	8.0067
2.9581	7.8527
2.948	7.3341
2.9379	7.8154
2.928	8.2612
2.9181	7.5793
2.9083	7.4536
2.8985	8.6149
2.8888	8.499
2.8792	8.4474
2.8697	8.8161
2.8602	8.8598
2.8507	8.987
2.8413	9.2822
2.832	9.964
2.8228	10.671
2.8136	10.8766
2.8045	12.3644
2.7954	11.941
2.7864	12.9826
2.7774	13.3169
2.7685	15.1684
2.7597	16.8585
2.7509	18.5776
2.7422	21.6397
2.7335	23.59
2.7249	26.9722
2.7163	30.0403
2.7078	32.2951
2.6994	34.6136
2.691	36.9279
2.6826	38.3073
2.6743	39.3056
2.666	41.2754
2.6578	41.0046
2.6497	41.952
2.6416	42.4633
2.6336	42.8681
2.6256	42.9647
2.6176	44.0422
2.6097	43.4668
2.6018	43.5413
2.594	44.127
2.5863	43.324
2.5785	43.3873
2.5709	42.2697
2.5633	41.5059
2.5557	39.2148
2.5481	37.1313
2.5406	36.03
2.5332	36.4351
2.5258	36.9324
2.5184	37.2578
2.5111	38.2883
2.5038	38.4087
2.4966	38.8652
2.4894	39.462
2.4823	39.6732
2.4752	40.3328
2.4681	41.9573
2.4611	42.8847
2.4541	43.9034
2.4471	43.7722
2.4402	45.1354
2.4333	45.6144
2.4265	46.3635
2.4197	47.0771
2.413	47.039
2.4063	47.4182
2.3996	47.83
2.3929	47.6664
2.3863	48.9249
2.3798	48.3575
2.3732	48.372
2.3667	47.5531
2.3603	46.0135
2.3538	45.1292
2.3474	43.9954
2.3411	44.2128
2.3347	43.8461
2.3285	45.2003
2.3222	45.5977
2.316	46.1791
2.3098	46.8448
2.3036	47.0736
2.2975	47.2806
2.2914	48.0319
2.2854	48.0119
2.2793	49.5103
2.2733	49.9218
2.2674	49.9642
2.2614	51.0524
2.2555	51.682
2.2497	51.726
2.2438	53.0927
2.238	52.8526
2.2322	52.8109
2.2265	53.454
2.2208	52.8609
2.2151	52.7288
2.2094	52.6487
2.2038	53.08
2.1982	53.5515
2.1926	52.6763
2.187	52.9623
2.1815	52.8037
2.176	52.5389
2.1706	52.7227
2.1651	52.046
2.1597	52.2961
2.1543	52.0722
2.149	51.7361
2.1436	52.7588
2.1383	51.9533
2.1331	51.8946
2.1278	51.6325
2.1226	52.4275
2.1174	52.2611
2.1122	52.7986
2.1071	52.358
2.1019	52.0876
2.0968	51.1857
2.0918	52.6603
2.0867	52.4548
2.0817	52.1064
2.0767	53.52
2.0717	50.6422
2.0667	52.3821
2.0618	52.1776
2.0569	50.5775
2.052	52.1916
2.0472	52.0278
2.0423	51.8424
2.0375	50.9963
2.0327	51.4259
2.028	49.8327
2.0232	51.6618
2.0185	52.7043
2.0138	51.6396
2.0091	50.3968
2.0044	49.1865
1.9998	49.9243
