Name: Rhyolite
Type: Rock
Class: Igneous
Subclass: Felsic
Particle Size: Solid
Sample No.: AP-936-194
Owner: United States Geological Survey, L. C. Rowan
Wavelength Range: All
Origin: Iberian Pyrite Belt, Spain
Description: Rhyolite, freshSample was Whole Rock Chips. Original ASTER Spectral Library name was usgs.perknic.rock.igneous.felsic.solid.rhy194.spectrum.txt
Measurement: Directional Hemispherical Reflectance
X Units: Wavelength (micrometers)
Y Units: Reflectance (percent)
wavelength	value
14.051	1.4523
13.79	1.2978
13.538	1.4626
13.295	1.6068
13.06	1.6171
12.834	1.9673
12.616	1.8334
12.404	1.6583
12.2	1.9879
12.002	2.1115
11.811	2.5441
11.626	2.7604
11.446	3.0797
11.272	3.1003
11.103	3.7286
10.939	4.3569
10.78	3.0797
10.625	2.6986
10.475	2.6883
10.329	3.2754
10.187	4.223
10.049	5.3972
9.914	7.6735
9.783	6.9319
9.656	10.3824
9.532	12.3394
9.411	13.3282
9.293	13.1222
9.178	11.6802
9.065	7.6632
8.956	5.1706
8.849	7.7868
8.744	7.2924
8.642	5.0985
8.543	4.4805
8.445	4.0479
8.35	3.8934
8.257	3.6874
8.166	3.6565
8.077	2.6986
7.99	2.1527
7.905	1.7098
7.821	1.4008
7.739	1.3699
7.659	1.4214
7.581	1.3802
7.504	1.4523
7.429	1.4214
7.355	1.5038
7.283	1.5759
7.212	1.6274
7.143	1.7819
7.074	1.8128
7.007	1.8849
6.942	1.9467
6.877	2.0291
6.814	2.1733
6.752	2.4617
6.691	2.6677
6.631	2.7501
6.572	2.8222
6.514	2.8016
6.458	2.8531
6.402	2.8428
6.347	2.7398
6.293	2.6368
6.24	2.5132
6.188	2.1733
6.137	2.1218
6.086	2.0085
6.037	2.1115
5.988	2.3587
5.94	2.5235
5.893	2.884
5.846	3.2239
5.8	3.4402
5.755	3.7389
5.711	3.8522
5.667	4.0685
5.624	4.1715
5.582	4.2848
5.54	4.2127
5.499	3.8625
5.459	3.9758
5.419	4.3054
5.379	4.3157
5.341	4.5217
5.302	4.7792
5.265	4.8307
5.227	5.0573
5.191	5.1088
5.155	5.2633
5.119	5.7062
5.084	6.2521
5.049	6.901
5.015	7.4778
4.981	8.0546
4.948	8.7447
4.915	9.1567
4.883	10.0837
4.851	10.918
4.819	11.4639
4.788	11.948
4.758	12.4527
4.727	12.7411
4.697	12.7102
4.668	12.8853
4.638	13.6475
4.61	14.4921
4.581	15.3367
4.553	15.8826
4.525	16.1813
4.498	16.1813
4.47	16.5315
4.444	17.3143
4.417	17.922
4.391	18.6224
4.365	19.4361
4.34	20.0644
4.314	20.6412
4.289	21.3107
4.265	21.7639
4.24	22.1553
4.216	22.3201
4.192	22.351
4.169	22.6394
4.145	22.866
4.122	23.0823
4.099	23.4325
4.077	23.6282
4.055	23.7518
4.032	23.793
4.011	23.8651
3.989	23.9372
3.968	24.0814
3.947	24.205
3.926	24.2668
3.905	24.2668
3.884	24.1638
3.864	24.0505
3.844	23.8239
3.824	23.7312
3.805	23.5767
3.785	23.3398
3.766	22.9896
3.747	22.4952
3.728	22.0935
3.709	21.6506
3.691	20.8781
3.673	20.8987
3.655	20.806
3.637	20.6206
3.619	20.1674
3.601	19.6833
3.584	19.261
3.567	18.54
3.549	18.0147
3.533	17.2731
3.516	15.9135
3.499	14.5848
3.483	14.729
3.466	14.7187
3.45	14.3067
3.434	13.5033
3.418	12.1128
3.403	12.1334
3.387	12.2261
3.372	12.0613
3.357	12.4115
3.341	12.2776
3.326	12.2879
3.312	11.8244
3.297	11.536
3.282	10.9283
3.268	10.6399
3.253	10.3206
3.239	9.8674
3.225	9.8262
3.211	9.4554
3.197	9.0228
3.183	8.6108
3.17	8.2812
3.156	7.7559
3.143	7.3027
3.13	7.0967
3.117	6.6641
3.103	6.4787
3.091	6.0564
3.078	5.7474
3.065	5.9122
3.052	5.8195
3.04	5.459
3.027	5.5002
3.015	5.2118
3.003	5.0985
2.991	5.0367
2.979	5.1088
2.967	4.5217
2.955	4.6144
2.943	4.5423
2.932	4.5526
2.92	4.7483
2.909	4.3981
2.897	4.1406
2.886	4.3054
2.875	4.4702
2.864	4.1715
2.853	4.1509
2.842	4.1097
2.831	3.6256
2.82	3.3372
2.809	3.4711
2.799	3.0385
2.788	3.1312
2.778	2.6059
2.767	2.6059
2.757	1.4729
2.747	2.0085
2.737	2.2763
2.727	1.9467
2.717	2.0909
2.707	2.1733
2.697	2.1733
2.687	4.0376
2.677	6.8392
2.668	9.3524
2.658	11.5669
2.649	13.0707
2.639	14.4097
2.63	15.4603
2.62	16.5418
2.611	16.8714
2.602	17.2525
2.593	17.407
2.584	18.0559
2.575	18.6739
2.566	18.9005
2.557	19.2816
2.548	19.6421
2.54	19.7451
2.531	20.6206
2.522	21.0738
2.514	21.2695
2.505	21.6506
2.489	21.8789
2.461	21.7789
2.433	22.3789
2.405	23.3789
2.377	23.3789
2.349	22.8789
2.321	21.6789
2.293	22.9789
2.265	24.7789
2.237	23.6789
2.209	22.9789
2.181	24.3789
2.153	24.4789
2.125	25.2789
2.097	26.3789
2.069	26.3789
2.041	26.2789
2.013	26.2789
1.985	25.8789
1.957	25.2789
1.929	24.6789
1.901	25.5789
1.873	26.3789
1.845	26.9789
1.817	27.3789
1.789	27.4789
1.761	27.6789
1.733	27.6789
1.705	27.9789
1.677	28.0789
1.649	28.2789
1.621	28.4789
1.593	28.8789
1.565	28.7789
1.537	28.7789
1.509	28.9789
1.481	28.2789
1.453	28.2789
1.425	27.4789
1.397	26.7789
1.369	28.9789
1.341	29.6789
1.313	30.2789
1.285	30.6789
1.257	30.1789
1.229	30.5789
1.201	30.5789
1.173	31.1789
1.145	31.2789
1.117	31.5789
1.089	31.6789
1.061	32.3789
1.033	32.3789
1.005	32.3789
0.977	31.7789
0.949	30.5789
0.921	29.3789
0.893	27.7789
0.865	26.0789
0.837	25.4789
0.809	26.3789
0.799	26.3789
0.792	26.5789
0.785	26.3789
0.778	26.2789
0.771	26.2789
0.764	26.5789
0.757	26.2789
0.75	26.0789
0.743	25.6789
0.736	25.6789
0.729	25.7789
0.722	25.4789
0.715	24.9789
0.708	24.8789
0.701	24.3789
0.694	23.4789
0.687	23.5789
0.68	23.4789
0.673	23.0789
0.666	22.9789
0.659	22.5789
0.652	22.1789
0.645	22.1789
0.638	21.6789
0.631	21.9789
0.624	21.5789
0.617	21.6789
0.61	21.3789
0.603	21.2789
0.596	21.0789
0.589	20.3789
0.582	19.7789
0.575	19.2789
0.568	18.5789
0.561	19.7789
0.554	19.1789
0.547	18.5789
0.54	18.1789
0.533	18.0789
0.526	17.4789
0.519	17.3789
0.512	17.5789
0.505	17.1789
0.498	16.8789
0.491	16.5789
0.484	16.5789
0.477	16.3789
0.47	16.5789
0.463	16.8789
0.456	16.0789
0.449	16.0789
0.442	15.9789
0.435	15.3789
0.428	15.4789
0.421	14.9789
0.414	14.7789
0.407	14.7789
