Name: Rhyolite
Type: Rock
Class: Igneous
Subclass: Felsic
Particle Size: Solid
Sample No.: AP-936-186
Owner: United States Geological Survey, L. C. Rowan
Wavelength Range: All
Origin: Iberian Pyrite Belt, Spain
Description: Rhyolite, chloritic, fine. Sample was whole rock chips. Original ASTER Spectral Library name was usgs.perknic.rock.igneous.felsic.solid.rhy186.spectrum.txt
Measurement: Directional Hemispherical Reflectance
X Units: Wavelength (micrometers)
Y Units: Reflectance (percent)
wavelength	value
14.051	1.8437
13.79	2.0703
13.538	2.4205
13.295	2.5956
13.06	2.7295
12.834	3.1209
12.616	3.2651
12.404	3.09
12.2	3.4711
12.002	3.9037
11.811	4.326
11.626	4.7895
11.446	5.2942
11.272	5.7268
11.103	6.4478
10.939	6.9834
10.78	4.8719
10.625	4.7483
10.475	5.3766
10.329	6.7465
10.187	8.6829
10.049	11.2991
9.914	13.5033
9.783	12.3909
9.656	17.2113
9.532	19.2507
9.411	17.1289
9.293	12.5042
9.178	8.3224
9.065	4.841
8.956	4.8925
8.849	5.9946
8.744	4.2333
8.642	2.9149
8.543	3.0076
8.445	3.2651
8.35	3.7904
8.257	4.0891
8.166	4.223
8.077	3.708
7.99	3.2651
7.905	3.0282
7.821	2.8222
7.739	2.9561
7.659	2.9664
7.581	2.884
7.504	2.9664
7.429	2.9767
7.355	2.9458
7.283	3.0179
7.212	3.09
7.143	3.0591
7.074	3.1106
7.007	3.2445
6.942	3.2754
6.877	3.2445
6.814	3.4814
6.752	3.5432
6.691	3.7492
6.631	3.708
6.572	3.7183
6.514	3.6153
6.458	3.5741
6.402	3.4608
6.347	3.399
6.293	3.2754
6.24	3.2136
6.188	3.1312
6.137	2.987
6.086	3.0488
6.037	3.1106
5.988	3.2651
5.94	3.4196
5.893	3.5535
5.846	3.8522
5.8	4.0582
5.755	4.3672
5.711	4.4496
5.667	4.5732
5.624	4.6659
5.582	4.6865
5.54	4.6968
5.499	4.6556
5.459	4.6968
5.419	4.9028
5.379	4.8822
5.341	4.9646
5.302	5.0367
5.265	5.1809
5.227	5.3251
5.191	5.3766
5.155	5.562
5.119	5.6135
5.084	5.768
5.049	5.8195
5.015	5.9946
4.981	6.0873
4.948	6.2933
4.915	6.4684
4.883	6.5714
4.851	6.8083
4.819	6.8392
4.788	6.9216
4.758	7.0143
4.727	7.0555
4.697	7.1379
4.668	7.1894
4.638	7.4263
4.61	7.4984
4.581	7.5705
4.553	7.6323
4.525	7.7044
4.498	7.7971
4.47	7.8383
4.444	7.9001
4.417	7.9722
4.391	8.0443
4.365	8.1679
4.34	8.1576
4.314	8.3327
4.289	8.343
4.265	8.3121
4.24	8.343
4.216	8.5078
4.192	8.4872
4.169	8.5696
4.145	8.5284
4.122	8.549
4.099	8.6726
4.077	8.5902
4.055	8.6932
4.032	8.7756
4.011	8.6932
3.989	8.6932
3.968	8.7138
3.947	8.6314
3.926	8.7138
3.905	8.4975
3.884	8.5078
3.864	8.6108
3.844	8.4151
3.824	8.4254
3.805	8.3636
3.785	8.2812
3.766	8.1473
3.747	7.9928
3.728	8.0134
3.709	7.7353
3.691	7.7868
3.673	7.5293
3.655	7.4984
3.637	7.4572
3.619	7.2512
3.601	7.1894
3.584	7.0555
3.567	6.8804
3.549	6.8495
3.533	6.6435
3.516	6.386
3.499	6.2521
3.483	6.0976
3.466	6.1182
3.45	6.0255
3.434	5.8607
3.418	5.5826
3.403	5.6341
3.387	5.4178
3.372	5.3869
3.357	5.4487
3.341	5.1809
3.326	5.2633
3.312	5.047
3.297	5.15
3.282	4.9028
3.268	4.7998
3.253	4.7071
3.239	4.6144
3.225	4.4084
3.211	4.3775
3.197	4.4187
3.183	4.2642
3.17	4.3054
3.156	4.2127
3.143	4.1406
3.13	3.9758
3.117	4.0582
3.103	3.9243
3.091	4.0376
3.078	3.9449
3.065	3.8625
3.052	3.9449
3.04	3.8831
3.027	3.7389
3.015	3.8316
3.003	3.605
2.991	3.9758
2.979	3.8522
2.967	3.8007
2.955	3.7183
2.943	3.6977
2.932	3.4814
2.92	3.5432
2.909	3.6668
2.897	3.7698
2.886	3.7801
2.875	3.7801
2.864	3.8419
2.853	3.6565
2.842	3.7904
2.831	3.6977
2.82	3.7595
2.809	3.502
2.799	3.4711
2.788	3.811
2.778	3.3269
2.767	3.4917
2.757	3.0694
2.747	3.1003
2.737	3.1106
2.727	3.3269
2.717	3.6874
2.707	3.5638
2.697	4.0376
2.687	5.8195
2.677	7.3748
2.668	8.6211
2.658	9.0846
2.649	9.3936
2.639	9.9807
2.63	9.7747
2.62	10.3515
2.611	9.9498
2.602	10.4442
2.593	10.506
2.584	10.6193
2.575	10.6296
2.566	10.8665
2.557	11.0931
2.548	10.9077
2.54	11.6596
2.531	11.2888
2.522	11.6905
2.514	11.7111
2.505	11.2888
2.489	11.4832
2.461	11.5832
2.433	12.0832
2.405	12.5832
2.377	12.2832
2.349	11.2832
2.321	10.8832
2.293	11.8832
2.265	13.1832
2.237	13.3832
2.209	13.5832
2.181	14.6832
2.153	15.6832
2.125	15.9832
2.097	16.4832
2.069	16.4832
2.041	16.3832
2.013	15.8832
1.985	15.3832
1.957	15.1832
1.929	14.8832
1.901	15.0832
1.873	16.6832
1.845	17.2832
1.817	17.2832
1.789	17.3832
1.761	17.7832
1.733	17.4832
1.705	17.4832
1.677	17.5832
1.649	17.5832
1.621	17.4832
1.593	17.7832
1.565	17.4832
1.537	17.4832
1.509	17.7832
1.481	17.7832
1.453	17.8832
1.425	17.4832
1.397	17.2832
1.369	18.5832
1.341	18.9832
1.313	18.8832
1.285	18.9832
1.257	18.4832
1.229	18.5832
1.201	18.3832
1.173	18.3832
1.145	18.0832
1.117	17.9832
1.089	17.9832
1.061	18.1832
1.033	17.9832
1.005	18.1832
0.977	18.4832
0.949	18.1832
0.921	18.3832
0.893	18.3832
0.865	18.4832
0.837	18.8832
0.809	19.4832
0.799	19.2832
0.792	19.2832
0.785	19.1832
0.778	18.9832
0.771	18.8832
0.764	18.6832
0.757	18.6832
0.75	18.8832
0.743	18.5832
0.736	18.4832
0.729	18.4832
0.722	18.1832
0.715	18.0832
0.708	17.9832
0.701	17.4832
0.694	17.5832
0.687	17.2832
0.68	17.5832
0.673	17.2832
0.666	17.3832
0.659	17.0832
0.652	16.8832
0.645	16.8832
0.638	16.6832
0.631	16.6832
0.624	16.4832
0.617	16.6832
0.61	16.3832
0.603	16.4832
0.596	16.1832
0.589	15.3832
0.582	15.3832
0.575	15.0832
0.568	14.6832
0.561	14.0832
0.554	13.1832
0.547	12.5832
0.54	11.7832
0.533	11.2832
0.526	10.4832
0.519	9.7832
0.512	9.1832
0.505	8.4832
0.498	8.0832
0.491	7.5832
0.484	7.3832
0.477	7.2832
0.47	7.4832
0.463	7.6832
0.456	7.3832
0.449	7.8832
0.442	7.2832
0.435	6.5832
0.428	6.5832
0.421	6.3832
0.414	6.2832
0.407	6.3832
