Name: Gray Quartzite
Type: rock
Class: Metamorphic
Subclass: Quartzite
Particle Size: Coarse
Sample No.: qrtzit5
Owner: JHU
Wavelength Range: All
Origin: Sample No. 382, The Hunt and Salisbury Collection at the U.S.Geological Survey, Denver, Co.
Description: This is a sample much like the previous one in composition.  It is a fine-grained slightly metamorphosed well-compacted sandstone with some secondary quartz deposition, and much more silica/chalcedony deposition.  The quartz grains, unlike the previous rock, show evidence of only weak strain and fewer fluid inclusions.  In addition there are scattered detrital green and brown tourmaline and zircon. Particle size was 500-1500 Micrometer. Original ASTER Spectral Library name was jhu.becknic.rock.metamorphic.quartzite.coarse.qrtzit5.spectrum.txt
Measurement: Directional (10 Degree) Hemispherical Reflectance
X Units: Wavelength (micrometers)
Y Units: Reflectance (percent)
wavelength	value
14.9831	3.2283
14.6445	3.3365
14.3209	2.9699
14.0112	2.9926
13.7147	3.587
13.4304	3.9264
13.1577	4.5814
12.8959	7.8021
12.6443	6.8253
12.4023	5.1391
12.1694	1.3086
11.945	2.2571
11.7289	2.785
11.5203	3.2129
11.3191	3.6202
11.1248	3.7715
10.937	4.2551
10.7555	4.5059
10.5799	4.8746
10.4099	5.4728
10.2454	5.8673
10.0859	6.7606
9.9313	7.697
9.7814	9.0049
9.636	10.9037
9.4948	14.5715
9.3577	26.0019
9.2245	30.9315
9.095	31.1377
8.9691	31.6552
8.8467	31.1671
8.7275	29.2198
8.6116	21.7091
8.4986	30.8003
8.3886	30.4697
8.2814	30.6158
8.1769	30.3723
8.075	20.0143
7.9756	11.5533
7.8786	5.5128
7.784	2.8368
7.6916	1.3413
7.6014	0.6579
7.5133	0.4211
7.4272	0.4009
7.343	0.3746
7.2607	0.3282
7.1803	0.4355
7.1016	0.4807
7.0246	0.5212
6.9493	0.5852
6.8755	0.5748
6.8034	0.6356
6.7327	0.7176
6.6634	0.7041
6.5956	0.7924
6.5292	0.7133
6.464	0.8746
6.4002	0.9132
6.3376	0.8504
6.2762	0.8641
6.216	0.8585
6.157	0.8838
6.099	0.9899
6.0421	0.992
5.9863	1.0657
5.9315	1.0709
5.8777	1.1301
5.8249	1.3517
5.773	1.4576
5.722	1.6295
5.6719	1.5639
5.6227	1.3461
5.5744	1.3146
5.5268	1.3821
5.4801	1.495
5.4341	1.5196
5.3889	1.4261
5.3445	1.3461
5.3008	1.3295
5.2578	1.3721
5.2154	1.5168
5.1738	1.6274
5.1328	1.6096
5.0925	1.5481
5.0528	1.5751
5.0137	1.5476
4.9752	1.6236
4.9373	1.8223
4.9	2.4951
4.8632	4.3903
4.827	6.2616
4.7913	7.8613
4.7561	9.067
4.7215	9.5669
4.6873	7.6896
4.6536	9.5318
4.6205	12.2798
4.5877	13.2866
4.5555	12.6483
4.5237	9.5631
4.4923	6.6443
4.4614	6.1915
4.4309	7.2198
4.4008	8.6381
4.3711	11.0541
4.3418	13.2363
4.3129	13.8099
4.2844	13.6562
4.2563	14.8299
4.2285	14.8964
4.2011	15.1074
4.174	16.0682
4.1473	17.14
4.1209	18.3824
4.0949	19.955
4.0692	21.0205
4.0438	21.2142
4.0187	20.931
3.994	21.0444
3.9695	21.6665
3.9453	22.7402
3.9214	23.1625
3.8979	22.8352
3.8746	21.9052
3.8515	21.3655
3.8288	21.3838
3.8063	21.4674
3.7841	20.979
3.7621	20.1852
3.7404	19.5006
3.7189	19.5652
3.6977	20.1154
3.6767	20.5966
3.656	20.6707
3.6355	20.2989
3.6152	19.8032
3.5951	19.268
3.5753	18.7111
3.5557	18.3044
3.5363	17.6428
3.5171	17.0652
3.4981	16.4215
3.4793	15.9356
3.4607	15.3227
3.4423	14.6172
3.4241	13.9035
3.4061	13.2993
3.3883	12.7499
3.3707	12.1614
3.3533	11.6899
3.336	11.2535
3.3189	10.6728
3.302	10.1658
3.2853	9.6493
3.2687	9.0788
3.2523	8.555
3.2361	8.1829
3.22	7.7041
3.204	7.3517
3.1883	6.9584
3.1727	6.5733
3.1572	6.2647
3.1419	5.9251
3.1268	5.6717
3.1117	5.541
3.0969	5.3068
3.0821	5.1472
3.0675	4.9513
3.0531	4.7548
3.0388	4.8043
3.0246	4.5663
3.0105	4.554
2.9966	4.4685
2.9828	4.4015
2.9692	4.2018
2.9556	4.1251
2.9422	4.1459
2.9289	4.1781
2.9157	4.1999
2.9027	4.1571
2.8897	4.382
2.8769	4.5329
2.8642	4.7013
2.8516	4.9426
2.8391	5.1472
2.8267	5.388
2.8144	5.7016
2.8022	5.81
2.7902	5.5102
2.7782	5.9479
2.7664	6.341
2.7546	7.504
2.7429	9.2273
2.7314	11.9947
2.7199	16.1411
2.7085	20.2788
2.6973	25.8574
2.6861	30.662
2.675	33.566
2.664	35.8437
2.6531	37.4546
2.6423	38.6775
2.6315	39.4578
2.6209	40.1422
2.6103	40.5081
2.5999	40.7925
2.5895	40.9874
2.5792	41.2538
2.569	41.3947
2.5588	41.6078
2.5487	41.9235
2.5388	42.1606
2.5289	42.4511
2.519	42.8274
2.5093	43.0875
2.4996	43.5239
2.49	44.2235
2.4805	44.586
2.471	45.3083
2.4616	46.078
2.4523	46.7981
2.4431	47.6594
2.4339	48.4449
2.4248	49.0159
2.4157	49.6991
2.4068	50.2563
2.3979	50.6982
2.389	51.2228
2.3802	51.5529
2.3715	51.6353
2.3629	51.9401
2.3543	51.9827
2.3458	52.1134
2.3373	52.2252
2.3289	52.1985
2.3206	51.9602
2.3123	51.7281
2.3041	51.51
2.2959	51.2403
2.2878	51.2204
2.2798	51.2441
2.2718	51.1089
2.2638	51.1453
2.2559	51.0284
2.2481	51.0094
2.2403	51.1278
2.2326	51.4156
2.225	51.5259
2.2173	51.6005
2.2098	51.7483
2.2023	52.121
2.1948	52.6136
2.1874	53.392
2.18	54.0688
2.1727	54.7322
2.1655	55.3351
2.1583	55.8286
2.1511	56.0325
2.144	56.2826
2.1369	56.2113
2.1299	56.4131
2.1229	56.3633
2.116	56.4088
2.1091	56.4995
2.1023	56.5007
2.0955	56.2959
2.0887	56.45
2.082	56.5796
2.06	56.6328
2.028	55.313
1.996	54.0331
1.964	51.4201
1.932	48.6375
1.9	48.4256
1.868	57.1724
1.836	59.9737
1.804	59.7366
1.772	59.6076
1.74	60.2317
1.708	59.8718
1.676	59.797
1.644	60.0592
1.612	59.6359
1.58	58.9495
1.548	58.9779
1.516	58.4264
1.484	57.2746
1.452	56.5406
1.42	55.3963
1.388	57.1269
1.356	59.0301
1.324	58.9308
1.292	59.1755
1.26	58.7472
1.228	58.4797
1.196	58.3639
1.164	57.9265
1.132	57.7865
1.1	56.9668
1.068	56.5938
1.036	56.1197
1.004	55.8862
0.972	54.9494
0.94	54.3926
0.908	53.8328
0.876	53.5323
0.844	53.0745
0.812	52.2128
0.795	51.7383
0.787	51.8129
0.779	51.5659
0.771	51.2532
0.763	51.4064
0.755	50.9358
0.747	50.7402
0.739	50.1975
0.731	50.0449
0.723	49.7834
0.715	49.6593
0.707	49.2085
0.699	49.0879
0.691	48.4614
0.683	48.0605
0.675	47.8969
0.667	47.8312
0.659	47.147
0.651	46.9775
0.643	46.7914
0.635	46.2925
0.627	46.2301
0.619	45.9231
0.611	45.8498
0.603	45.2614
0.595	44.8222
0.587	44.3862
0.579	43.9765
0.571	43.2333
0.563	42.5863
0.555	41.1503
0.547	40.5814
0.539	39.5358
0.531	39.0382
0.523	38.109
0.515	37.4281
0.507	36.6402
0.499	35.8956
0.491	35.3511
0.483	34.778
0.475	34.4215
0.467	34.0697
0.459	33.5887
0.451	33.3296
0.443	32.5218
0.435	31.838
0.427	30.9181
0.419	30.0787
0.411	29.5917
0.403	29.0219
