Name: Rhyolite
Type: Rock
Class: Igneous
Subclass: Felsic
Particle Size: Solid
Sample No.: AP-939-220a
Owner: United States Geological Survey, L. C. Rowan
Wavelength Range: All
Origin: Iberian Pyrite Belt, Spain
Description: Rhyolite, white, alteredSample was Whole Rock Chips. Original ASTER Spectral Library name was usgs.perknic.rock.igneous.felsic.solid.rhy220a.spectrum.txt
Measurement: Directional Hemispherical Reflectance
X Units: Wavelength (micrometers)
Y Units: Reflectance (percent)
wavelength	value
14.051	2.5235
13.79	2.8222
13.538	2.8222
13.295	3.1415
13.06	3.5226
12.834	4.1612
12.616	3.605
12.404	3.6771
12.2	2.8634
12.002	3.3475
11.811	3.8728
11.626	4.1612
11.446	4.6041
11.272	4.944
11.103	5.6753
10.939	6.592
10.78	5.3251
10.625	5.4178
10.475	5.7577
10.329	6.9834
10.187	8.4048
10.049	10.3412
9.914	13.39
9.783	12.8338
9.656	17.0362
9.532	19.5803
9.411	20.4455
9.293	19.8172
9.178	18.6121
9.065	15.2852
8.956	13.0604
8.849	15.5942
8.744	14.8938
8.642	11.948
8.543	12.3909
8.445	12.0922
8.35	11.5154
8.257	10.9592
8.166	10.5266
8.077	7.5705
7.99	4.9749
7.905	3.3681
7.821	2.3999
7.739	2.163
7.659	1.8437
7.581	1.6686
7.504	1.5553
7.429	1.4729
7.355	1.5038
7.283	1.4729
7.212	1.648
7.143	1.6583
7.074	1.7716
7.007	1.751
6.942	1.854
6.877	1.8849
6.814	1.8952
6.752	1.9158
6.691	2.0394
6.631	2.1218
6.572	2.2145
6.514	2.2454
6.458	2.5029
6.402	2.4514
6.347	2.4102
6.293	2.2763
6.24	2.2042
6.188	2.0703
6.137	2.2351
6.086	2.2969
6.037	2.2866
5.988	2.3896
5.94	2.4102
5.893	2.5029
5.846	2.7295
5.8	2.8943
5.755	3.0488
5.711	3.1209
5.667	3.0488
5.624	2.9252
5.582	2.9458
5.54	2.9973
5.499	3.2136
5.459	3.4196
5.419	3.4814
5.379	3.193
5.341	3.1827
5.302	3.3269
5.265	3.502
5.227	3.9243
5.191	4.4187
5.155	4.5732
5.119	4.6762
5.084	4.8822
5.049	4.8616
5.015	5.0161
4.981	5.2221
4.948	5.9431
4.915	6.592
4.883	8.0031
4.851	9.3112
4.819	10.1249
4.788	10.6708
4.758	11.0725
4.727	11.6287
4.697	11.5463
4.668	11.5875
4.638	12.7411
4.61	13.8432
4.581	14.6878
4.553	15.3264
4.525	15.1719
4.498	14.2964
4.47	14.1831
4.444	15.2543
4.417	16.3049
4.391	17.6748
4.365	19.3743
4.34	20.7133
4.314	21.4858
4.289	21.7021
4.265	22.6085
4.24	23.0514
4.216	23.381
4.192	24.0299
4.169	24.6685
4.145	25.2659
4.122	25.8324
4.099	26.4813
4.077	26.9963
4.055	27.3774
4.032	27.5731
4.011	27.4804
3.989	27.6864
3.968	27.9954
3.947	28.3971
3.926	28.7061
3.905	28.9224
3.884	28.7679
3.864	28.5413
3.844	28.3353
3.824	28.3868
3.805	28.5207
3.785	28.2014
3.766	27.5525
3.747	27.2126
3.728	26.8212
3.709	26.5534
3.691	26.4401
3.673	26.5637
3.655	26.4916
3.637	26.2032
3.619	25.8736
3.601	25.2968
3.584	24.6376
3.567	24.0917
3.549	23.5458
3.533	22.9175
3.516	22.1759
3.499	21.4961
3.483	21.0223
3.466	20.8781
3.45	20.3116
3.434	19.6421
3.418	18.7048
3.403	18.2413
3.387	17.8396
3.372	17.4379
3.357	17.0053
3.341	16.7169
3.326	16.2328
3.312	15.5221
3.297	15.1822
3.282	14.5745
3.268	14.0492
3.253	13.6166
3.239	13.2973
3.225	12.9677
3.211	12.4115
3.197	12.1025
3.183	11.6081
3.17	11.2167
3.156	10.8562
3.143	10.3103
3.13	9.9086
3.117	9.4039
3.103	9.1464
3.091	8.8786
3.078	8.7241
3.065	8.6005
3.052	8.4563
3.04	8.137
3.027	8.1679
3.015	7.9516
3.003	8.0649
2.991	7.5808
2.979	7.3954
2.967	7.1791
2.955	6.901
2.943	6.8392
2.932	6.9319
2.92	7.107
2.909	6.8598
2.897	7.21
2.886	7.4057
2.875	7.2203
2.864	7.1894
2.853	6.8701
2.842	7.0658
2.831	6.283
2.82	5.9019
2.809	5.0882
2.799	4.6453
2.788	3.7698
2.778	3.7389
2.767	3.0385
2.757	3.0076
2.747	3.3269
2.737	3.7698
2.727	4.2848
2.717	4.6556
2.707	4.223
2.697	4.7277
2.687	9.7953
2.677	14.9453
2.668	18.8593
2.658	21.6094
2.649	23.7415
2.639	25.2453
2.63	26.677
2.62	27.3465
2.611	27.7482
2.602	28.4692
2.593	28.7679
2.584	29.6434
2.575	29.7979
2.566	30.797
2.557	30.9103
2.548	31.6107
2.54	31.621
2.531	32.5583
2.522	32.4347
2.514	32.9806
2.505	32.9703
2.489	33.0999
2.461	33.4999
2.433	35.1999
2.405	37.6999
2.377	38.3999
2.349	37.6999
2.321	39.2999
2.293	43.3999
2.265	46.9999
2.237	42.5999
2.209	39.0999
2.181	45.5999
2.153	49.7999
2.125	55.3999
2.097	60.0999
2.069	61.3999
2.041	61.8999
2.013	60.8999
1.985	58.3999
1.957	56.4999
1.929	54.2999
1.901	53.9999
1.873	65.7999
1.845	69.0999
1.817	69.6999
1.789	69.5999
1.761	70.9999
1.733	70.4999
1.705	70.1999
1.677	70.6999
1.649	69.8999
1.621	69.6999
1.593	68.8999
1.565	67.8999
1.537	66.6999
1.509	66.8999
1.481	65.1999
1.453	62.9999
1.425	56.2999
1.397	53.0999
1.369	60.7999
1.341	62.4999
1.313	61.6999
1.285	61.0999
1.257	59.7999
1.229	58.4999
1.201	56.2999
1.173	55.5999
1.145	55.2999
1.117	54.6999
1.089	53.6999
1.061	54.0999
1.033	53.4999
1.005	53.8999
0.977	53.2999
0.949	52.5999
0.921	51.7999
0.893	51.2999
0.865	50.8999
0.837	50.7999
0.809	50.7999
0.799	50.8999
0.792	50.5999
0.785	50.5999
0.778	50.1999
0.771	49.7999
0.764	49.9999
0.757	50.0999
0.75	49.5999
0.743	49.2999
0.736	49.4999
0.729	49.5999
0.722	49.1999
0.715	49.0999
0.708	48.0999
0.701	47.9999
0.694	48.5999
0.687	47.8999
0.68	47.7999
0.673	48.0999
0.666	47.7999
0.659	48.0999
0.652	47.5999
0.645	47.8999
0.638	47.8999
0.631	47.5999
0.624	47.0999
0.617	47.7999
0.61	47.0999
0.603	47.3999
0.596	46.2999
0.589	46.3999
0.582	46.1999
0.575	45.8999
0.568	45.8999
0.561	46.2999
0.554	44.8999
0.547	44.5999
0.54	44.2999
0.533	43.7999
0.526	42.7999
0.519	42.2999
0.512	41.6999
0.505	41.1999
0.498	39.7999
0.491	39.2999
0.484	38.0999
0.477	37.5999
0.47	37.3999
0.463	37.3999
0.456	35.6999
0.449	35.4999
0.442	34.3999
0.435	32.9999
0.428	32.6999
0.421	31.3999
0.414	30.3999
0.407	30.0999
