Name: Hornblende Schist
Type: Rock
Class: Metamorphic
Subclass: Schist
Particle Size: Solid
Sample No.: Ward86
Owner: JPL
Wavelength Range: All
Origin: Ward's Collection of American Rocks.  Sample locality - Mitchell County, North Carolina.  Collected by - JPL.
Description: A medium-grained, schistose, greenish black rock.  Thehand specimen is usually composed entirely of hornblende though smallamounts of quartz may be present.  Geologic age - Pre-CambrianCollected by:  Ward's Natural Science Original ASTER Spectral Library name was jpl.nicolet.rock.metamorphic.schist.solid.ward86.spectrum.txt
Measurement: Hemispherical reflectance
X Units: Wavelength (micrometers)
Y Units: Reflectance (percent)
wavelength	value
15.3871	4.2244
15.118	4.4178
14.8581	4.0403
14.6069	4.6832
14.3642	4.4749
14.1293	4.2661
13.9021	3.8134
13.682	3.8507
13.4687	4.7084
13.2621	5.3056
13.0616	4.0973
12.8672	4.4424
12.6784	5.1428
12.4951	5.729
12.317	5.7253
12.1439	6.6654
11.9757	7.3425
11.812	8.0344
11.6527	8.5515
11.4977	8.8738
11.3468	10.102
11.1997	10.9527
11.0564	11.9133
10.9168	12.5941
10.7806	13.6734
10.6478	16.7695
10.5182	20.1124
10.3917	21.834
10.2683	22.4769
10.1477	22.8229
10.0299	22.148
9.9148	20.4855
9.8024	18.4453
9.6925	17.5939
9.585	18.7301
9.4798	18.9574
9.377	17.2185
9.2763	13.9241
9.1778	11.0994
9.0814	10.007
8.987	8.928
8.8945	7.7169
8.8039	9.2269
8.7151	10.9943
8.6281	8.8889
8.5428	4.6992
8.4592	3.5837
8.3772	3.3779
8.2967	3.1484
8.2179	3.0685
8.1404	2.788
8.0645	2.2195
7.9899	2.0223
7.9167	1.8874
7.8449	1.6855
7.7743	1.7668
7.705	1.8192
7.6369	1.8568
7.57	1.8038
7.5043	1.947
7.4397	1.9464
7.3762	2.1154
7.3138	2.2266
7.2524	2.1237
7.1921	2.3968
7.1327	2.2638
7.0743	2.6484
7.0169	2.6295
6.9604	2.6346
6.9047	2.639
6.85	2.8216
6.7962	2.8325
6.7431	2.888
6.6909	3.0374
6.6395	3.0194
6.5889	3.1005
6.539	3.0845
6.49	3.1094
6.4416	3.2018
6.3939	3.1523
6.347	3.3167
6.3007	3.2246
6.2551	3.3211
6.2101	3.2576
6.1658	3.2193
6.1222	3.2369
6.0791	3.3224
6.0366	3.1807
5.9948	3.3574
5.9535	3.3524
5.9127	3.2192
5.8726	3.3191
5.8329	3.415
5.7938	3.3606
5.7552	3.4858
5.7172	3.5573
5.6796	3.5574
5.6425	3.6006
5.6059	3.6817
5.5698	3.815
5.5341	3.8865
5.4989	3.9607
5.4641	3.9794
5.4298	4.0865
5.3959	4.0785
5.3624	4.0745
5.3294	4.1403
5.2967	4.2644
5.2644	4.3545
5.2326	4.3877
5.2011	4.4224
5.17	4.5599
5.1392	4.5795
5.1088	4.4772
5.0788	4.6837
5.0491	4.5695
5.0198	4.7011
4.9908	4.7719
4.9622	4.831
4.9338	4.7935
4.9058	5.0316
4.8781	5.0091
4.8508	5.1738
4.8237	5.2638
4.7969	5.4412
4.7704	5.4993
4.7443	5.6382
4.7184	5.772
4.6927	6.1103
4.6674	6.1377
4.6423	6.3234
4.6175	6.4915
4.593	6.6175
4.5687	6.8844
4.5447	7.0365
4.5209	7.1011
4.4974	7.039
4.4741	7.0421
4.451	7.3116
4.4282	7.3551
4.4057	7.6422
4.3833	7.7395
4.3612	7.8853
4.3393	8.0905
4.3176	7.985
4.2962	7.7565
4.2749	7.8411
4.2539	8.1255
4.233	7.7931
4.2124	8.25
4.192	8.7025
4.1717	8.8609
4.1517	8.8023
4.1319	8.9284
4.1122	9.0273
4.0927	9.2537
4.0734	9.0646
4.0543	9.283
4.0354	9.2484
4.0166	9.4653
3.9981	9.5683
3.9796	9.4544
3.9614	9.7848
3.9433	9.6597
3.9254	9.7151
3.9077	9.8353
3.8901	10.0085
3.8726	10.0301
3.8554	9.9322
3.8382	9.9596
3.8213	10.1829
3.8045	10.2431
3.7878	10.242
3.7713	10.2882
3.7549	10.2377
3.7386	10.2915
3.7225	10.3191
3.7066	10.2053
3.6907	10.4507
3.675	10.4282
3.6595	10.3521
3.644	10.3155
3.6287	10.2205
3.6136	10.1682
3.5985	10.4106
3.5836	10.0654
3.5688	10.0766
3.5541	10.3286
3.5396	10.0669
3.5251	9.9283
3.5108	9.4693
3.4966	9.4389
3.4825	9.3125
3.4685	9.1714
3.4547	9.3387
3.4409	8.9697
3.4273	8.8353
3.4137	8.4538
3.4003	8.5504
3.387	8.3057
3.3738	8.3672
3.3606	8.6178
3.3476	8.7099
3.3347	8.6238
3.3219	8.7185
3.3092	8.5077
3.2965	8.7037
3.284	8.3862
3.2716	8.2215
3.2593	8.4761
3.247	8.2685
3.2348	7.7322
3.2228	7.8849
3.2108	7.7215
3.1989	7.886
3.1871	7.5315
3.1754	7.7062
3.1638	7.6488
3.1523	7.4863
3.1408	7.2451
3.1294	6.9611
3.1181	7.0234
3.1069	6.9014
3.0958	7.1474
3.0848	7.1345
3.0738	7.1688
3.0629	7.0411
3.0521	7.1551
3.0413	6.7604
3.0307	7.1109
3.0201	7.0375
3.0096	6.6309
2.9991	6.833
2.9887	6.1336
2.9784	6.7344
2.9682	6.6172
2.9581	6.5893
2.948	6.4019
2.9379	6.3834
2.928	6.7728
2.9181	6.8315
2.9083	6.6839
2.8985	6.7769
2.8888	6.5572
2.8792	6.7511
2.8697	6.7268
2.8602	7.109
2.8507	6.9476
2.8413	6.5643
2.832	6.8315
2.8228	6.6005
2.8136	6.931
2.8045	5.8447
2.7954	6.3301
2.7864	6.8747
2.7774	6.4081
2.7685	4.8284
2.7597	5.3484
2.7509	5.5674
2.7422	5.2672
2.7335	6.14
2.7249	5.9187
2.7163	6.0484
2.7078	6.4898
2.6994	7.2053
2.691	8.0015
2.6826	10.2363
2.6743	11.9323
2.666	12.6041
2.6578	12.3259
2.6497	12.0104
2.6416	12.5491
2.6336	12.7396
2.6256	12.6814
2.6176	12.382
2.6097	12.3095
2.6018	12.5016
2.594	12.8862
2.5863	12.8628
2.5785	12.6423
2.5709	12.3974
2.5633	13.2043
2.5557	12.4328
2.5481	13.3216
2.5406	12.1932
2.5332	12.7055
2.5258	12.4827
2.5184	12.3691
2.5111	12.7993
2.5038	12.3122
2.4966	12.3218
2.4894	12.8648
2.4823	11.9994
2.4752	12.8085
2.4681	12.7491
2.4611	12.5492
2.4541	12.8294
2.4471	12.2795
2.4402	12.6821
2.4333	12.7898
2.4265	12.0006
2.4197	12.2734
2.413	11.8857
2.4063	11.9084
2.3996	10.8918
2.3929	10.9731
2.3863	11.4007
2.3798	11.3538
2.3732	11.5953
2.3667	11.7016
2.3603	11.0209
2.3538	10.5919
2.3474	11.0359
2.3411	9.9311
2.3347	10.289
2.3285	9.5961
2.3222	9.1057
2.316	10.2879
2.3098	9.7919
2.3036	10.4195
2.2975	10.6782
2.2914	11.0253
2.2854	12.2744
2.2793	13.2798
2.2733	13.1512
2.2674	13.9372
2.2614	14.4559
2.2555	13.4857
2.2497	13.6197
2.2438	14.6145
2.238	15.2304
2.2322	16.6295
2.2265	15.4207
2.2208	16.4222
2.2151	16.63
2.2094	15.4878
2.2038	16.4016
2.1982	16.7891
2.1926	17.1588
2.187	16.2419
2.1815	16.5377
2.176	17.0983
2.1706	17.2198
2.1651	17.5081
2.1597	17.8942
2.1543	17.1156
2.149	17.4203
2.1436	16.6368
2.1383	17.4485
2.1331	16.0429
2.1278	17.426
2.1226	17.3018
2.1174	16.3602
2.1122	16.9336
2.1071	17.7279
2.1019	18.5181
2.0968	17.645
2.0918	17.8694
2.0867	17.4096
2.0817	18.133
2.0767	18.7453
2.0717	18.1197
2.0667	19.6296
2.0618	19.2169
2.0569	20.3282
2.052	18.4898
2.0472	18.4474
2.0423	19.8039
2.0375	19.9223
2.0327	20.6432
2.028	18.4449
2.0232	22.0592
2.0185	17.1063
2.0138	18.0131
2.0091	20.8855
2.0044	20.2029
1.9998	19.6979
