Name: Syenite
Type: Rock
Class: Igneous
Subclass: Alkalic
Particle Size: Solid
Sample No.: Ward18
Owner: JPL
Wavelength Range: All
Origin: Ward's Collection of American Rocks.  Sample locality - Golden Cycle Mine, near Victor, Teller County, Colorado.
Description: A gray, medium-grained rock spotted with black prismaticcrystals.Geologic age - Post-Oligocene.Collected by:  Ward's Natural Science Original ASTER Spectral Library name was jpl.nicolet.rock.igneous.alkalic.solid.ward18.spectrum.txt
Measurement: Hemispherical reflectance
X Units: Wavelength (micrometers)
Y Units: Reflectance (percent)
wavelength	value
15.3871	5.6689
15.118	4.9051
14.8581	4.9798
14.6069	5.7515
14.3642	6.1491
14.1293	6.7313
13.9021	7.1524
13.682	6.7632
13.4687	6.1895
13.2621	5.8001
13.0616	5.0689
12.8672	5.3676
12.6784	5.5888
12.4951	5.3107
12.317	6.2581
12.1439	6.6638
11.9757	7.9288
11.812	8.8727
11.6527	9.7246
11.4977	10.5702
11.3468	11.4073
11.1997	12.0818
11.0564	12.5268
10.9168	13.6848
10.7806	14.5221
10.6478	16.095
10.5182	17.5693
10.3917	19.4708
10.2683	22.6494
10.1477	24.3678
10.0299	26.3016
9.9148	28.1132
9.8024	28.5374
9.6925	29.0988
9.585	29.605
9.4798	27.8317
9.377	22.817
9.2763	20.6307
9.1778	18.711
9.0814	17.1514
8.987	16.2969
8.8945	14.9626
8.8039	14.7144
8.7151	13.5547
8.6281	12.7654
8.5428	12.079
8.4592	10.8322
8.3772	9.6846
8.2967	6.9225
8.2179	3.8115
8.1404	2.7409
8.0645	2.0953
7.9899	1.6293
7.9167	1.2964
7.8449	1.5098
7.7743	1.6603
7.705	1.56
7.6369	1.5777
7.57	1.7167
7.5043	1.9065
7.4397	2.0849
7.3762	2.2477
7.3138	2.1375
7.2524	2.1591
7.1921	2.4146
7.1327	2.3841
7.0743	2.4412
7.0169	2.6892
6.9604	2.6178
6.9047	2.4146
6.85	2.9755
6.7962	2.762
6.7431	3.024
6.6909	2.8818
6.6395	3.2943
6.5889	3.0016
6.539	3.1314
6.49	3.2236
6.4416	3.2038
6.3939	3.393
6.347	3.4099
6.3007	3.454
6.2551	3.432
6.2101	3.7211
6.1658	3.4415
6.1222	3.3893
6.0791	3.24
6.0366	3.5325
5.9948	3.3211
5.9535	3.5312
5.9127	3.5414
5.8726	3.8121
5.8329	3.6644
5.7938	3.8122
5.7552	3.7905
5.7172	3.9279
5.6796	4.0013
5.6425	4.0295
5.6059	4.0183
5.5698	4.2708
5.5341	4.063
5.4989	4.3132
5.4641	4.3547
5.4298	4.5916
5.3959	4.6704
5.3624	4.6859
5.3294	4.5092
5.2967	4.9269
5.2644	5.0112
5.2326	5.1745
5.2011	5.1092
5.17	5.3347
5.1392	5.2552
5.1088	5.2854
5.0788	5.7252
5.0491	5.644
5.0198	5.6605
4.9908	5.7393
4.9622	5.6198
4.9338	5.7094
4.9058	6.0758
4.8781	5.804
4.8508	5.9772
4.8237	6.1383
4.7969	6.637
4.7704	6.1378
4.7443	6.1285
4.7184	6.5768
4.6927	6.7822
4.6674	6.4897
4.6423	6.7706
4.6175	7.0237
4.593	7.456
4.5687	7.4258
4.5447	7.7235
4.5209	8.134
4.4974	8.4608
4.4741	8.5528
4.451	9.0035
4.4282	9.4405
4.4057	9.4309
4.3833	9.6124
4.3612	9.9957
4.3393	10.335
4.3176	10.4562
4.2962	10.6389
4.2749	11.2762
4.2539	11.4309
4.233	11.2916
4.2124	11.6999
4.192	11.8064
4.1717	12.1457
4.1517	12.4496
4.1319	12.279
4.1122	12.6536
4.0927	12.8364
4.0734	13.0992
4.0543	13.0314
4.0354	13.467
4.0166	13.3589
3.9981	13.5026
3.9796	13.4983
3.9614	13.2079
3.9433	13.7431
3.9254	13.6944
3.9077	14.0662
3.8901	14.3396
3.8726	13.7343
3.8554	14.2833
3.8382	14.5978
3.8213	13.9067
3.8045	13.889
3.7878	14.2527
3.7713	13.7806
3.7549	13.9024
3.7386	14.4947
3.7225	14.5116
3.7066	14.4413
3.6907	14.1261
3.675	14.4055
3.6595	14.1398
3.644	14.3331
3.6287	14.4048
3.6136	13.6434
3.5985	13.9439
3.5836	14.2413
3.5688	14.145
3.5541	13.2824
3.5396	13.8736
3.5251	13.2041
3.5108	12.7142
3.4966	12.6401
3.4825	12.6054
3.4685	12.7362
3.4547	12.3738
3.4409	12.4041
3.4273	11.0164
3.4137	11.4468
3.4003	10.9736
3.387	10.9979
3.3738	11.0312
3.3606	10.8057
3.3476	10.2234
3.3347	10.0008
3.3219	10.218
3.3092	9.3896
3.2965	10.0077
3.284	9.0561
3.2716	9.3706
3.2593	8.9912
3.247	8.8415
3.2348	9.0756
3.2228	8.4771
3.2108	7.9622
3.1989	8.5753
3.1871	8.5929
3.1754	8.0211
3.1638	8.3111
3.1523	7.8961
3.1408	7.6474
3.1294	6.7378
3.1181	7.1982
3.1069	7.0591
3.0958	6.0289
3.0848	6.4059
3.0738	6.0305
3.0629	7.0604
3.0521	6.2484
3.0413	6.5166
3.0307	6.1163
3.0201	5.8092
3.0096	7.1742
2.9991	6.8788
2.9887	5.4523
2.9784	5.8107
2.9682	6.7968
2.9581	5.8441
2.948	5.3276
2.9379	5.9867
2.928	5.9704
2.9181	5.282
2.9083	6.2837
2.8985	5.3867
2.8888	6.0869
2.8792	6.2961
2.8697	5.1915
2.8602	5.2694
2.8507	6.4249
2.8413	5.8176
2.832	5.5418
2.8228	6.1944
2.8136	6.5202
2.8045	5.9796
2.7954	7.2398
2.7864	6.4513
2.7774	5.498
2.7685	5.968
2.7597	5.6108
2.7509	5.7222
2.7422	8.294
2.7335	7.2298
2.7249	10.098
2.7163	9.9267
2.7078	10.1927
2.6994	10.8048
2.691	11.8034
2.6826	13.202
2.6743	13.9975
2.666	14.3287
2.6578	14.4506
2.6497	14.8232
2.6416	15.866
2.6336	14.9161
2.6256	15.8484
2.6176	14.88
2.6097	16.0509
2.6018	15.7535
2.594	14.7502
2.5863	16.0564
2.5785	15.1789
2.5709	15.5034
2.5633	15.2517
2.5557	14.6927
2.5481	14.2315
2.5406	13.9332
2.5332	15.2867
2.5258	15.5142
2.5184	13.1904
2.5111	15.8285
2.5038	14.7253
2.4966	15.1088
2.4894	15.2655
2.4823	15.6488
2.4752	15.0655
2.4681	15.0642
2.4611	15.0916
2.4541	15.415
2.4471	17.0218
2.4402	16.8066
2.4333	16.9009
2.4265	18.2691
2.4197	18.3606
2.413	18.2954
2.4063	19.2663
2.3996	18.5622
2.3929	19.7692
2.3863	18.3867
2.3798	20.0988
2.3732	20.0679
2.3667	19.4044
2.3603	20.2547
2.3538	20.6632
2.3474	18.0546
2.3411	19.6019
2.3347	20.3124
2.3285	18.8993
2.3222	19.3285
2.316	19.6453
2.3098	19.9696
2.3036	19.9946
2.2975	21.1816
2.2914	19.9301
2.2854	19.6433
2.2793	20.3287
2.2733	20.3923
2.2674	22.1301
2.2614	21.1321
2.2555	20.8479
2.2497	22.2778
2.2438	20.2701
2.238	18.301
2.2322	21.1549
2.2265	20.6339
2.2208	20.3334
2.2151	19.9537
2.2094	19.3352
2.2038	20.9192
2.1982	21.5458
2.1926	21.6389
2.187	18.933
2.1815	20.8163
2.176	22.1357
2.1706	22.1799
2.1651	20.4428
2.1597	21.5021
2.1543	23.9338
2.149	19.8419
2.1436	21.7539
2.1383	21.5236
2.1331	22.792
2.1278	21.1077
2.1226	22.0899
2.1174	22.709
2.1122	19.4252
2.1071	20.7361
2.1019	20.6725
2.0968	22.7183
2.0918	21.7516
2.0867	23.349
2.0817	20.4109
2.0767	20.949
2.0717	19.5721
2.0667	21.8394
2.0618	21.1293
2.0569	20.6117
2.052	23.1652
2.0472	19.7816
2.0423	21.3087
2.0375	23.0923
2.0327	20.2949
2.028	24.6479
2.0232	20.4199
2.0185	24.6473
2.0138	22.3793
2.0091	24.6568
2.0044	20.1871
1.9998	20.5058
