Name: Pyroxenite
Type: Rock
Class: Igneous
Subclass: Ultramafic
Particle Size: Solid
Sample No.: Ward43
Owner: JPL
Wavelength Range: All
Origin: Ward's Collection of American Rocks.  Sample locality - near Webster, Jackson County, North Carolina.
Description: A brownish granular rock composed largely of fibrousbronzite with good cleavage.   A small amount of granular green diopsidemay be seen between the bronzite crystals and small grains of chromiteare also apparent.Geologic age - Pre-Cambrian.Collected by:  Ward's Natural Science Original ASTER Spectral Library name was jpl.nicolet.rock.igneous.ultramafic.solid.ward43.spectrum.txt
Measurement: Hemispherical reflectance
X Units: Wavelength (micrometers)
Y Units: Reflectance (percent)
wavelength	value
15.3871	3.1409
15.118	2.7818
14.8581	2.816
14.6069	4.9658
14.3642	4.98
14.1293	2.6132
13.9021	2.819
13.682	3.0172
13.4687	3.1558
13.2621	4.0907
13.0616	4.3831
12.8672	4.3947
12.6784	5.7061
12.4951	6.5146
12.317	7.3367
12.1439	8.746
11.9757	10.0153
11.812	13.262
11.6527	17.0559
11.4977	18.7338
11.3468	17.0475
11.1997	12.0538
11.0564	13.2976
10.9168	14.4554
10.7806	19.038
10.6478	17.7261
10.5182	19.9865
10.3917	20.6691
10.2683	20.6531
10.1477	23.0452
10.0299	19.3374
9.9148	22.2762
9.8024	20.2131
9.6925	19.4116
9.585	25.2818
9.4798	25.0452
9.377	24.3927
9.2763	21.9291
9.1778	19.5738
9.0814	18.224
8.987	16.12
8.8945	11.7153
8.8039	10.4605
8.7151	4.1091
8.6281	1.6369
8.5428	0.8415
8.4592	0.1708
8.3772	0.6091
8.2967	0.8296
8.2179	0.2477
8.1404	0.7092
8.0645	0.6173
7.9899	1.1438
7.9167	0.7824
7.8449	1.4404
7.7743	1.207
7.705	1.2121
7.6369	1.6105
7.57	1.6812
7.5043	1.7893
7.4397	1.9061
7.3762	1.985
7.3138	2.1038
7.2524	2.2439
7.1921	2.15
7.1327	2.3209
7.0743	2.5235
7.0169	2.4122
6.9604	2.5041
6.9047	2.5883
6.85	2.6275
6.7962	2.8792
6.7431	2.8628
6.6909	3.3685
6.6395	3.1646
6.5889	3.3034
6.539	3.4008
6.49	3.1115
6.4416	3.2522
6.3939	3.2786
6.347	3.1425
6.3007	2.9795
6.2551	2.6904
6.2101	2.7607
6.1658	2.8678
6.1222	2.8853
6.0791	3.0815
6.0366	3.2248
5.9948	3.3632
5.9535	3.566
5.9127	3.3577
5.8726	3.5319
5.8329	3.777
5.7938	4.1988
5.7552	4.3126
5.7172	4.2549
5.6796	4.388
5.6425	4.5301
5.6059	4.6568
5.5698	4.8544
5.5341	4.8886
5.4989	5.0596
5.4641	5.099
5.4298	5.1345
5.3959	5.3063
5.3624	5.569
5.3294	5.4565
5.2967	5.7791
5.2644	5.6478
5.2326	5.4942
5.2011	5.5301
5.17	5.5719
5.1392	5.0969
5.1088	5.7554
5.0788	5.7488
5.0491	5.9907
5.0198	5.9143
4.9908	6.0028
4.9622	6.1411
4.9338	6.3404
4.9058	6.3413
4.8781	6.1829
4.8508	6.0579
4.8237	6.2595
4.7969	6.5166
4.7704	6.4152
4.7443	6.752
4.7184	6.9014
4.6927	6.9781
4.6674	7.1973
4.6423	7.032
4.6175	7.1382
4.593	7.7125
4.5687	8.0648
4.5447	8.4476
4.5209	8.4016
4.4974	8.4075
4.4741	8.3238
4.451	8.7227
4.4282	8.7243
4.4057	9.0826
4.3833	8.7927
4.3612	9.0633
4.3393	8.8732
4.3176	8.9882
4.2962	8.9261
4.2749	8.8477
4.2539	9.055
4.233	8.6873
4.2124	9.1273
4.192	9.4053
4.1717	9.4815
4.1517	9.8724
4.1319	9.7963
4.1122	10.0053
4.0927	9.9408
4.0734	9.5311
4.0543	9.8428
4.0354	9.8163
4.0166	9.9951
3.9981	10.1997
3.9796	9.7654
3.9614	10.1553
3.9433	9.7819
3.9254	10.3146
3.9077	9.9999
3.8901	10.1856
3.8726	9.9994
3.8554	10.1891
3.8382	10.5528
3.8213	10.0901
3.8045	9.9997
3.7878	10.2448
3.7713	9.9077
3.7549	10.2743
3.7386	9.8605
3.7225	10.5422
3.7066	10.0834
3.6907	10.281
3.675	9.9237
3.6595	10.2913
3.644	10.1893
3.6287	9.8717
3.6136	9.9022
3.5985	9.9705
3.5836	9.6586
3.5688	9.9479
3.5541	9.68
3.5396	9.572
3.5251	8.9906
3.5108	8.5309
3.4966	7.7683
3.4825	8.0088
3.4685	8.4893
3.4547	8.0534
3.4409	8.432
3.4273	7.3849
3.4137	6.9237
3.4003	7.0078
3.387	7.3677
3.3738	7.6765
3.3606	7.8497
3.3476	7.531
3.3347	8.1314
3.3219	7.9867
3.3092	8.2977
3.2965	8.1144
3.284	7.8533
3.2716	8.1789
3.2593	7.424
3.247	7.7315
3.2348	7.3491
3.2228	7.6187
3.2108	6.6342
3.1989	6.7443
3.1871	7.6046
3.1754	7.1905
3.1638	7.1246
3.1523	6.3935
3.1408	6.423
3.1294	6.6985
3.1181	7.4567
3.1069	6.1638
3.0958	5.4568
3.0848	6.1554
3.0738	5.8598
3.0629	6.3769
3.0521	6.054
3.0413	6.4687
3.0307	5.6242
3.0201	6.786
3.0096	6.8771
2.9991	5.5406
2.9887	6.4204
2.9784	5.8975
2.9682	6.1874
2.9581	6.7404
2.948	6.5397
2.9379	6.2735
2.928	5.9837
2.9181	5.8205
2.9083	6.4166
2.8985	5.6163
2.8888	6.4139
2.8792	6.3531
2.8697	6.7699
2.8602	6.213
2.8507	7.1405
2.8413	6.657
2.832	6.3406
2.8228	6.5071
2.8136	6.3684
2.8045	6.1677
2.7954	5.9168
2.7864	4.9958
2.7774	6.7758
2.7685	5.4691
2.7597	5.2731
2.7509	5.67
2.7422	6.4442
2.7335	6.6304
2.7249	5.4933
2.7163	5.2212
2.7078	6.2734
2.6994	6.2937
2.691	7.6425
2.6826	11.6457
2.6743	14.2443
2.666	15.8521
2.6578	14.7425
2.6497	15.0327
2.6416	15.39
2.6336	14.5709
2.6256	15.5652
2.6176	16.0469
2.6097	15.442
2.6018	15.278
2.594	15.4792
2.5863	15.8636
2.5785	15.1172
2.5709	16.3746
2.5633	15.8393
2.5557	15.7375
2.5481	15.1707
2.5406	14.9417
2.5332	16.2202
2.5258	15.5028
2.5184	15.9349
2.5111	15.1765
2.5038	15.1775
2.4966	14.7608
2.4894	16.24
2.4823	16.443
2.4752	15.3171
2.4681	15.8014
2.4611	16.5085
2.4541	14.4669
2.4471	16.2441
2.4402	14.6598
2.4333	15.2331
2.4265	16.0182
2.4197	16.0288
2.413	15.4682
2.4063	14.9572
2.3996	15.9697
2.3929	15.4087
2.3863	15.3266
2.3798	15.2655
2.3732	14.9675
2.3667	14.914
2.3603	16.5279
2.3538	16.3445
2.3474	15.4339
2.3411	15.4985
2.3347	15.6286
2.3285	16.0107
2.3222	14.4738
2.316	13.8801
2.3098	14.7525
2.3036	15.5881
2.2975	14.3283
2.2914	15.0304
2.2854	15.9105
2.2793	15.9182
2.2733	16.1291
2.2674	15.9492
2.2614	15.4751
2.2555	14.982
2.2497	16.2475
2.2438	14.5411
2.238	14.7701
2.2322	15.5374
2.2265	16.6044
2.2208	15.4637
2.2151	15.0694
2.2094	14.5371
2.2038	16.8035
2.1982	14.9887
2.1926	13.2288
2.187	15.6453
2.1815	14.2481
2.176	14.8102
2.1706	15.1137
2.1651	14.8737
2.1597	15.8416
2.1543	15.5316
2.149	13.546
2.1436	16.8471
2.1383	13.3363
2.1331	12.669
2.1278	15.7279
2.1226	12.5431
2.1174	14.5046
2.1122	12.6669
2.1071	13.7282
2.1019	13.5585
2.0968	13.5545
2.0918	16.1512
2.0867	13.6686
2.0817	15.6313
2.0767	13.9919
2.0717	14.863
2.0667	13.4149
2.0618	10.6786
2.0569	12.4007
2.052	13.9467
2.0472	14.3554
2.0423	11.8294
2.0375	13.2142
2.0327	14.544
2.028	11.521
2.0232	16.2213
2.0185	10.3803
2.0138	13.0841
2.0091	13.1045
2.0044	14.1152
1.9998	11.8488
