Name: Serpentine Marble
Type: rock
Class: Metamorphic
Subclass: Marble
Particle Size: Coarse
Sample No.: marble5
Owner: JHU
Wavelength Range: All
Origin: Sample No. 361, The Hunt and Salisbury Collection at the U.S.Geological Survey, Denver, Co.
Description: A  medium grained sample of anhedral calcite heavily altered to serpentine.Particle size was 500-1500 Micrometer. Original ASTER Spectral Library name was jhu.becknic.rock.metamorphic.marble.coarse.marble5.spectrum.txt
Measurement: Directional (10 Degree) Hemispherical Reflectance
X Units: Wavelength (micrometers)
Y Units: Reflectance (percent)
wavelength	value
14.9831	4.0233
14.6445	3.1774
14.3209	2.4418
14.0112	1.6478
13.7147	1.6433
13.4304	1.9954
13.1577	2.1463
12.8959	2.1849
12.6443	2.3895
12.4023	2.5481
12.1694	2.7447
11.945	2.9405
11.7289	2.9642
11.5203	3.5828
11.3191	5.9365
11.1248	4.4479
10.937	4.0891
10.7555	4.392
10.5799	4.6968
10.4099	5.1093
10.2454	5.3123
10.0859	5.7871
9.9313	6.0528
9.7814	6.1466
9.636	6.2387
9.4948	6.0279
9.3577	4.6882
9.2245	4.2433
9.095	4.7972
8.9691	4.9322
8.8467	4.4273
8.7275	4.1582
8.6116	3.6143
8.4986	3.3419
8.3886	3.3412
8.2814	3.5304
8.1769	3.7379
8.075	3.8705
7.9756	4.0275
7.8786	4.1012
7.784	4.2231
7.6916	4.2655
7.6014	4.271
7.5133	4.4322
7.4272	4.6174
7.343	4.7235
7.2607	4.7913
7.1803	5.2199
7.1016	6.4364
7.0246	7.2127
6.9493	7.1151
6.8755	7.2837
6.8034	7.8097
6.7327	8.5948
6.6634	9.4265
6.5956	10.5115
6.5292	11.5912
6.464	11.5429
6.4002	7.7794
6.3376	4.8007
6.2762	2.8702
6.216	2.0669
6.157	1.6845
6.099	1.5
6.0421	1.428
5.9863	1.4929
5.9315	1.4988
5.8777	1.5106
5.8249	1.5829
5.773	1.577
5.722	1.6416
5.6719	1.7226
5.6227	1.7688
5.5744	1.5168
5.5268	1.7219
5.4801	2.0373
5.4341	2.5905
5.3889	3.1241
5.3445	3.6815
5.3008	4.3399
5.2578	5.0565
5.2154	5.7802
5.1738	6.2119
5.1328	6.2299
5.0925	5.5917
5.0528	6.1373
5.0137	6.2934
4.9752	6.7284
4.9373	6.9693
4.9	7.225
4.8632	7.8012
4.827	7.8092
4.7913	7.7787
4.7561	8.0686
4.7215	7.4505
4.6873	5.7032
4.6536	5.5744
4.6205	6.9655
4.5877	7.9137
4.5555	8.4624
4.5237	8.886
4.4923	9.5747
4.4614	10.3351
4.4309	10.9515
4.4008	11.7004
4.3711	12.0909
4.3418	11.6345
4.3129	11.5173
4.2844	11.7958
4.2563	11.9395
4.2285	11.8365
4.2011	11.8292
4.174	11.4621
4.1473	10.786
4.1209	9.8492
4.0949	8.7321
4.0692	7.3086
4.0438	5.5879
4.0187	4.0379
3.994	3.2295
3.9695	2.9005
3.9453	3.1658
3.9214	3.5063
3.8979	3.7223
3.8746	3.852
3.8515	4.0308
3.8288	4.3311
3.8063	4.9315
3.7841	6.9273
3.7621	8.627
3.7404	10.0921
3.7189	10.6965
3.6977	10.7735
3.6767	10.9433
3.656	10.7543
3.6355	10.3493
3.6152	9.8248
3.5951	9.0014
3.5753	7.5774
3.5557	6.7514
3.5363	5.505
3.5171	4.1187
3.4981	3.5759
3.4793	3.309
3.4607	3.5001
3.4423	3.6143
3.4241	3.7119
3.4061	3.6548
3.3883	3.6389
3.3707	3.5757
3.3533	3.4042
3.336	3.8814
3.3189	4.5
3.302	4.7797
3.2853	5.5339
3.2687	5.7695
3.2523	5.8498
3.2361	5.8799
3.22	5.9287
3.204	5.914
3.1883	5.8008
3.1727	5.672
3.1572	5.3923
3.1419	5.2282
3.1268	5.1657
3.1117	5.0589
3.0969	4.9561
3.0821	5.0089
3.0675	5.0653
3.0531	5.0226
3.0388	5.0186
3.0246	5.0158
3.0105	4.9471
2.9966	4.9198
2.9828	4.8571
2.9692	4.8104
2.9556	4.7875
2.9422	4.7877
2.9289	4.6646
2.9157	4.7342
2.9027	4.7354
2.8897	4.7759
2.8769	4.8133
2.8642	4.7593
2.8516	4.7529
2.8391	4.7204
2.8267	4.5945
2.8144	4.427
2.8022	4.2546
2.7902	4.2665
2.7782	4.2776
2.7664	4.0271
2.7546	3.9127
2.7429	3.273
2.7314	3.2678
2.7199	3.0151
2.7085	2.6438
2.6973	3.8653
2.6861	7.4237
2.675	12.2517
2.664	15.4806
2.6531	16.4002
2.6423	18.8674
2.6315	19.9927
2.6209	20.1587
2.6103	19.7287
2.5999	19.3786
2.5895	18.4259
2.5792	17.1258
2.569	15.9304
2.5588	14.4699
2.5487	13.7187
2.5388	12.7037
2.5289	12.5015
2.519	12.1655
2.5093	11.8709
2.4996	12.5332
2.49	13.7105
2.4805	14.4443
2.471	16.5207
2.4616	18.1249
2.4523	17.8112
2.4431	17.4173
2.4339	17.3273
2.4248	18.4612
2.4157	19.067
2.4068	19.4918
2.3979	19.7123
2.389	20.8486
2.3802	21.1387
2.3715	21.7913
2.3629	23.6461
2.3543	22.3469
2.3458	17.0794
2.3373	13.3976
2.3289	13.364
2.3206	13.7739
2.3123	16.0514
2.3041	18.4382
2.2959	20.5208
2.2878	21.973
2.2798	22.7507
2.2718	21.9895
2.2638	26.206
2.2559	29.5747
2.2481	29.9186
2.2403	31.4487
2.2326	36.5549
2.225	41.7449
2.2173	44.9597
2.2098	46.656
2.2023	47.5896
2.1948	48.22
2.1874	48.6938
2.18	48.8354
2.1727	48.6555
2.1655	48.2022
2.1583	47.1768
2.1511	45.5058
2.144	43.2172
2.1369	41.0617
2.1299	39.2989
2.1229	41.4492
2.116	41.3836
2.1091	40.9194
2.1023	41.757
2.0955	41.9761
2.0887	43.7851
2.082	46.5933
2.06	52.4445
2.028	47.5425
1.996	43.2239
1.964	40.4876
1.932	41.2914
1.9	43.377
1.868	59.3615
1.836	67.4451
1.804	69.6093
1.772	71.2876
1.74	73.8874
1.708	75.396
1.676	77.6088
1.644	78.9287
1.612	78.0313
1.58	77.4192
1.548	76.5614
1.516	74.7674
1.484	71.7117
1.452	68.4722
1.42	65.015
1.388	37.3218
1.356	65.7857
1.324	80.2902
1.292	79.8168
1.26	78.6887
1.228	82.9488
1.196	83.0853
1.164	81.9557
1.132	82.0808
1.1	82.1166
1.068	81.9119
1.036	81.2614
1.004	81.1893
0.972	80.8976
0.94	75.7438
0.908	81.3156
0.876	81.5566
0.844	82.0519
0.812	82.5773
0.795	82.2549
0.787	82.1594
0.779	82.5157
0.771	82.023
0.763	82.1588
0.755	82.5338
0.747	82.0301
0.739	82.0199
0.731	81.3976
0.723	81.9164
0.715	81.8911
0.707	81.9385
0.699	81.6734
0.691	80.0769
0.683	79.1116
0.675	78.5485
0.667	78.1158
0.659	78.1712
0.651	76.6084
0.643	77.156
0.635	77.2435
0.627	77.4102
0.619	76.8604
0.611	77.0643
0.603	76.6438
0.595	77.6185
0.587	77.1402
0.579	76.3847
0.571	77.3591
0.563	76.2706
0.555	76.4532
0.547	75.1107
0.539	74.8284
0.531	74.0727
0.523	71.3069
0.515	69.5356
0.507	67.0121
0.499	64.5193
0.491	62.8777
0.483	60.9968
0.475	57.6964
0.467	50.1792
0.459	45.0221
0.451	43.8963
0.443	43.1347
0.435	41.7252
0.427	42.3932
0.419	43.7552
0.411	43.8033
0.403	45.1751
