Name: Anorthosite
Type: Rock
Class: Igneous
Subclass: Mafic
Particle Size: Solid
Sample No.: Ward42
Owner: JPL
Wavelength Range: All
Origin: Ward's Collection of American Rocks.  Sample locality - near Elizabethtown, Essex County, New York.
Description: The hand specimen shows a nearly pure aggregate of plagioclase.Larger blue feldspars are conspicuous in a finer granulated, lighter-colored groundmass.  Dark silicates are sometimes present.Geologic age - Pre-Cambrian.Collected by:  Ward's Natural Science Original ASTER Spectral Library name was jpl.nicolet.rock.igneous.mafic.solid.ward42.spectrum.txt
Measurement: Hemispherical reflectance
X Units: Wavelength (micrometers)
Y Units: Reflectance (percent)
wavelength	value
15.3871	6.3493
15.118	4.7302
14.8581	4.3982
14.6069	4.4724
14.3642	4.8634
14.1293	4.7813
13.9021	4.7635
13.682	4.5608
13.4687	5.4071
13.2621	5.205
13.0616	5.0603
12.8672	4.2908
12.6784	4.3816
12.4951	3.9525
12.317	4.4566
12.1439	5.0935
11.9757	5.8771
11.812	5.8181
11.6527	6.2573
11.4977	8.4476
11.3468	11.7047
11.1997	8.3488
11.0564	8.7736
10.9168	9.8271
10.7806	10.2892
10.6478	11.1221
10.5182	12.0146
10.3917	13.4776
10.2683	15.4198
10.1477	17.742
10.0299	19.4787
9.9148	21.4638
9.8024	21.2209
9.6925	22.3662
9.585	22.9041
9.4798	18.9776
9.377	15.3094
9.2763	13.0644
9.1778	13.1855
9.0814	13.1374
8.987	14.2992
8.8945	14.9812
8.8039	15.4748
8.7151	15.1845
8.6281	13.9546
8.5428	12.7273
8.4592	11.9863
8.3772	11.3139
8.2967	10.1103
8.2179	8.4156
8.1404	5.9158
8.0645	5.154
7.9899	4.582
7.9167	4.3668
7.8449	4.3748
7.7743	4.3021
7.705	4.2374
7.6369	4.2571
7.57	4.6801
7.5043	4.6942
7.4397	4.8108
7.3762	5.1233
7.3138	5.5691
7.2524	5.9288
7.1921	7.0503
7.1327	8.6509
7.0743	10.3057
7.0169	10.5389
6.9604	10.3729
6.9047	10.6583
6.85	10.8551
6.7962	11.1221
6.7431	11.423
6.6909	11.9882
6.6395	12.5092
6.5889	12.7801
6.539	12.8994
6.49	12.9127
6.4416	10.1357
6.3939	5.5576
6.347	3.3159
6.3007	2.6737
6.2551	2.2417
6.2101	2.1503
6.1658	1.9463
6.1222	2.1547
6.0791	2.0303
6.0366	1.6935
5.9948	1.8575
5.9535	2.1639
5.9127	2.1071
5.8726	2.2015
5.8329	2.2604
5.7938	2.2758
5.7552	2.4636
5.7172	2.4515
5.6796	2.5707
5.6425	2.586
5.6059	2.6425
5.5698	2.5863
5.5341	2.7545
5.4989	2.854
5.4641	3.1214
5.4298	2.9355
5.3959	3.122
5.3624	3.3624
5.3294	3.3984
5.2967	3.4038
5.2644	3.72
5.2326	3.4784
5.2011	3.7374
5.17	3.9058
5.1392	3.8095
5.1088	4.1223
5.0788	4.3099
5.0491	4.3521
5.0198	4.4708
4.9908	4.4526
4.9622	4.5151
4.9338	4.5393
4.9058	4.6354
4.8781	4.9136
4.8508	4.6869
4.8237	4.8642
4.7969	4.8998
4.7704	5.0372
4.7443	4.8803
4.7184	5.2552
4.6927	5.16
4.6674	5.0907
4.6423	5.1879
4.6175	5.5843
4.593	5.7329
4.5687	5.7954
4.5447	5.9196
4.5209	6.2162
4.4974	6.1998
4.4741	6.6763
4.451	6.8966
4.4282	7.1658
4.4057	7.6229
4.3833	7.487
4.3612	7.8723
4.3393	8.2047
4.3176	8.1817
4.2962	8.4649
4.2749	8.9425
4.2539	9.4072
4.233	9.6389
4.2124	9.7606
4.192	9.9682
4.1717	10.1432
4.1517	10.3138
4.1319	10.3832
4.1122	10.514
4.0927	10.5616
4.0734	10.6131
4.0543	10.593
4.0354	10.3318
4.0166	9.4457
3.9981	8.8708
3.9796	8.753
3.9614	9.0886
3.9433	9.4291
3.9254	9.7315
3.9077	9.8075
3.8901	9.672
3.8726	9.9945
3.8554	10.2047
3.8382	10.3449
3.8213	10.5893
3.8045	11.1269
3.7878	11.8005
3.7713	11.6066
3.7549	11.7336
3.7386	11.8938
3.7225	11.6367
3.7066	11.442
3.6907	11.2466
3.675	11.4219
3.6595	11.1643
3.644	11.1548
3.6287	11.0906
3.6136	11.0596
3.5985	10.4892
3.5836	10.2259
3.5688	10.2177
3.5541	10.3805
3.5396	9.5522
3.5251	8.9417
3.5108	8.2284
3.4966	7.6561
3.4825	7.5297
3.4685	7.583
3.4547	7.1764
3.4409	7.8296
3.4273	6.9376
3.4137	6.6682
3.4003	7.1958
3.387	6.3425
3.3738	6.9219
3.3606	6.2504
3.3476	6.6085
3.3347	6.9387
3.3219	7.0331
3.3092	7.1195
3.2965	6.7534
3.284	6.8194
3.2716	6.6563
3.2593	6.5637
3.247	6.1432
3.2348	6.3778
3.2228	6.5433
3.2108	6.2082
3.1989	6.2112
3.1871	5.7379
3.1754	5.8541
3.1638	5.835
3.1523	5.5251
3.1408	5.7788
3.1294	5.4677
3.1181	5.8136
3.1069	4.6546
3.0958	5.1322
3.0848	5.79
3.0738	4.5404
3.0629	5.0467
3.0521	5.3519
3.0413	4.9637
3.0307	5.5915
3.0201	5.1838
3.0096	5.1093
2.9991	4.7615
2.9887	5.5385
2.9784	3.8133
2.9682	5.5649
2.9581	5.2125
2.948	5.5124
2.9379	4.8331
2.928	5.4637
2.9181	5.9466
2.9083	4.9073
2.8985	5.4676
2.8888	3.9577
2.8792	4.7176
2.8697	4.8279
2.8602	5.192
2.8507	5.2737
2.8413	4.746
2.832	5.0413
2.8228	4.8932
2.8136	5.008
2.8045	5.1603
2.7954	5.3358
2.7864	5.3887
2.7774	4.5984
2.7685	5.4039
2.7597	4.5611
2.7509	4.9411
2.7422	5.3239
2.7335	5.0306
2.7249	5.9243
2.7163	5.9977
2.7078	7.7159
2.6994	8.8468
2.691	10.1283
2.6826	10.4183
2.6743	11.3534
2.666	11.9096
2.6578	11.6682
2.6497	11.9251
2.6416	11.2583
2.6336	11.9175
2.6256	12.4184
2.6176	12.6659
2.6097	12.0431
2.6018	12.9732
2.594	12.2262
2.5863	12.4795
2.5785	12.7375
2.5709	12.051
2.5633	12.4154
2.5557	12.1333
2.5481	12.065
2.5406	12.1127
2.5332	11.6871
2.5258	12.6756
2.5184	11.812
2.5111	12.3733
2.5038	11.6105
2.4966	13.4473
2.4894	11.2503
2.4823	11.8449
2.4752	12.0715
2.4681	12.1051
2.4611	12.0411
2.4541	12.7063
2.4471	11.8233
2.4402	12.5108
2.4333	13.0964
2.4265	12.1398
2.4197	13.0748
2.413	13.1093
2.4063	11.9493
2.3996	12.1385
2.3929	13.5318
2.3863	12.1331
2.3798	12.2815
2.3732	13.4563
2.3667	12.6226
2.3603	12.5139
2.3538	12.2077
2.3474	12.968
2.3411	11.8141
2.3347	12.88
2.3285	12.2218
2.3222	12.2918
2.316	13.1665
2.3098	12.3115
2.3036	14.0487
2.2975	13.4818
2.2914	13.727
2.2854	13.9629
2.2793	12.5583
2.2733	14.7932
2.2674	12.5176
2.2614	14.6582
2.2555	13.9304
2.2497	13.3687
2.2438	14.7928
2.238	13.7814
2.2322	14.7897
2.2265	14.0653
2.2208	13.235
2.2151	14.0558
2.2094	13.4789
2.2038	13.8359
2.1982	14.5168
2.1926	14.8163
2.187	14.7656
2.1815	14.3647
2.176	15.1347
2.1706	13.0068
2.1651	15.4557
2.1597	14.7111
2.1543	15.9491
2.149	14.8923
2.1436	14.6812
2.1383	15.1669
2.1331	16.5971
2.1278	14.6751
2.1226	14.5948
2.1174	14.1477
2.1122	15.8084
2.1071	13.9615
2.1019	13.6262
2.0968	15.406
2.0918	14.2768
2.0867	15.2616
2.0817	14.1298
2.0767	13.9832
2.0717	14.3046
2.0667	17.3765
2.0618	14.7803
2.0569	14.7893
2.052	13.9911
2.0472	13.0585
2.0423	13.7246
2.0375	15.1598
2.0327	12.4254
2.028	14.462
2.0232	17.8735
2.0185	14.6088
2.0138	11.5108
2.0091	14.2626
2.0044	15.4503
1.9998	14.6615
