Name: Travertine
Type: rock
Class: Sedimentary
Subclass: Travertine
Particle Size: Coarse
Sample No.: travertine_1
Owner: JHU
Wavelength Range: All
Origin: Sample No. 357,  The Hunt and Salisbury Collection at the U.S.Geological Survey, Denver, Co.
Description: A predominantly microcrystalline carbonate with vugs or pores often filled with larger carbonate crystals. These vugs are usually rimmed by hematitic material which also occurs as irregular bands throughout the sample.Particle size was 500 - 1500 Micrometers. Original ASTER Spectral Library name was jhu.becknic.rock.sedimentary.travertine.coarse.travert1.spectrum.txt
Measurement: Directional (10 Degree) Hemispherical Reflectance
X Units: Wavelength (micrometers)
Y Units: Reflectance (percent)
wavelength	value
14.9831	2.156
14.6445	2.7982
14.3209	2.5406
14.0112	1.6122
13.7147	2.1553
13.4304	2.8067
13.1577	2.7158
12.8959	2.6907
12.6443	2.7644
12.4023	2.9403
12.1694	3.0303
11.945	3.1293
11.7289	3.0682
11.5203	4.126
11.3191	8.1907
11.1248	6.2832
10.937	4.8611
10.7555	4.289
10.5799	4.1232
10.4099	4.4315
10.2454	4.1431
10.0859	3.915
9.9313	3.5271
9.7814	3.5601
9.636	3.8973
9.4948	4.2679
9.3577	4.1474
9.2245	3.6811
9.095	4.4533
8.9691	4.5161
8.8467	4.6788
8.7275	4.235
8.6116	3.8089
8.4986	3.8348
8.3886	4.2764
8.2814	4.7572
8.1769	4.9909
8.075	5.0004
7.9756	5.2012
7.8786	5.1851
7.784	5.2178
7.6916	5.2377
7.6014	5.057
7.5133	5.2976
7.4272	5.4877
7.343	5.6267
7.2607	5.5635
7.1803	6.0895
7.1016	7.8433
7.0246	8.0586
6.9493	8.0086
6.8755	8.4077
6.8034	9.0618
6.7327	9.8946
6.6634	11.0484
6.5956	12.9844
6.5292	15.6069
6.464	16.9122
6.4002	10.1774
6.3376	4.5961
6.2762	2.5417
6.216	1.7894
6.157	1.3072
6.099	1.235
6.0421	1.1611
5.9863	1.2532
5.9315	1.3004
5.8777	1.3991
5.8249	1.4363
5.773	1.3899
5.722	1.4593
5.6719	1.6023
5.6227	1.6283
5.5744	1.0901
5.5268	1.5805
5.4801	2.7388
5.4341	3.8414
5.3889	5.0522
5.3445	6.3644
5.3008	7.6146
5.2578	8.5412
5.2154	9.3017
5.1738	9.8404
5.1328	10.2295
5.0925	8.1983
5.0528	11.0302
5.0137	11.0759
4.9752	10.9793
4.9373	10.8684
4.9	10.8545
4.8632	10.8715
4.827	10.8698
4.7913	10.7583
4.7561	10.0168
4.7215	7.9267
4.6873	5.3364
4.6536	5.3284
4.6205	7.2807
4.5877	8.3047
4.5555	8.564
4.5237	8.6767
4.4923	9.0679
4.4614	10.0621
4.4309	10.939
4.4008	11.4178
4.3711	11.5909
4.3418	11.0761
4.3129	10.9965
4.2844	10.0081
4.2563	9.5565
4.2285	11.0872
4.2011	10.9565
4.174	10.4755
4.1473	9.7083
4.1209	8.5765
4.0949	7.3707
4.0692	5.9306
4.0438	4.3567
4.0187	3.0317
3.994	2.3471
3.9695	2.1403
3.9453	2.451
3.9214	2.861
3.8979	2.9815
3.8746	3.0632
3.8515	3.1901
3.8288	3.574
3.8063	4.7943
3.7841	7.6889
3.7621	8.9592
3.7404	9.3907
3.7189	9.7748
3.6977	9.8461
3.6767	9.6881
3.656	9.4158
3.6355	9.0319
3.6152	8.4984
3.5951	7.7711
3.5753	6.5844
3.5557	6.0279
3.5363	4.9405
3.5171	3.6129
3.4981	3.1842
3.4793	2.8056
3.4607	3.3057
3.4423	3.5385
3.4241	3.5506
3.4061	3.494
3.3883	3.5146
3.3707	3.3644
3.3533	3.1494
3.336	3.9901
3.3189	4.9705
3.302	5.3213
3.2853	5.4754
3.2687	5.5396
3.2523	5.6275
3.2361	5.5853
3.22	5.5223
3.204	5.4463
3.1883	5.4861
3.1727	5.2869
3.1572	5.1929
3.1419	5.0352
3.1268	5.0833
3.1117	5.0361
3.0969	4.9734
3.0821	5.0586
3.0675	5.0667
3.0531	5.1031
3.0388	5.1195
3.0246	5.1309
3.0105	5.1789
2.9966	5.1633
2.9828	5.2142
2.9692	5.2126
2.9556	5.1773
2.9422	5.2133
2.9289	5.3478
2.9157	5.325
2.9027	5.4103
2.8897	5.5268
2.8769	5.6125
2.8642	5.7759
2.8516	5.8872
2.8391	6.0762
2.8267	6.305
2.8144	6.476
2.8022	6.5603
2.7902	6.5821
2.7782	6.9953
2.7664	7.536
2.7546	8.2535
2.7429	8.9687
2.7314	10.1854
2.7199	12.4354
2.7085	12.3253
2.6973	15.5832
2.6861	22.8433
2.675	26.8315
2.664	29.337
2.6531	31.1145
2.6423	32.4423
2.6315	33.553
2.6209	34.343
2.6103	34.8055
2.5999	34.9263
2.5895	34.2774
2.5792	33.2409
2.569	31.708
2.5588	28.3563
2.5487	23.0758
2.5388	19.4123
2.5289	19.8373
2.519	22.2574
2.5093	23.7865
2.4996	24.6258
2.49	25.4669
2.4805	27.0373
2.471	29.6643
2.4616	32.6917
2.4523	35.2261
2.4431	37.2651
2.4339	39.1388
2.4248	40.976
2.4157	42.4189
2.4068	43.4325
2.3979	43.9696
2.389	44.6509
2.3802	44.3828
2.3715	42.8532
2.3629	39.8149
2.3543	35.0312
2.3458	31.5751
2.3373	30.912
2.3289	32.4175
2.3206	34.8851
2.3123	36.4391
2.3041	37.3127
2.2959	38.5775
2.2878	40.1128
2.2798	42.3424
2.2718	44.7634
2.2638	46.7356
2.2559	48.5236
2.2481	50.0766
2.2403	51.4364
2.2326	52.558
2.225	53.3229
2.2173	53.8716
2.2098	53.2338
2.2023	54.1394
2.1948	54.5723
2.1874	54.5704
2.18	54.3409
2.1727	53.8334
2.1655	53.3053
2.1583	53.0832
2.1511	53.1434
2.144	53.6662
2.1369	54.1825
2.1299	54.3729
2.1229	54.3426
2.116	54.1839
2.1091	54.1413
2.1023	54.012
2.0955	53.8642
2.0887	53.6501
2.082	53.4552
2.06	52.2588
2.028	49.7701
1.996	45.6327
1.964	42.5046
1.932	41.1916
1.9	44.6489
1.868	58.053
1.836	65.679
1.804	67.6921
1.772	67.8434
1.74	67.9881
1.708	69.0462
1.676	69.8698
1.644	70.0315
1.612	69.5733
1.58	70.486
1.548	68.2699
1.516	67.1628
1.484	65.5159
1.452	63.5573
1.42	63.9604
1.388	69.122
1.356	74.4597
1.324	73.9995
1.292	75.1269
1.26	74.2159
1.228	75.1383
1.196	73.5574
1.164	72.4666
1.132	71.673
1.1	70.7771
1.068	69.7362
1.036	67.8252
1.004	66.1663
0.972	64.5032
0.94	62.5325
0.908	60.017
0.876	58.2988
0.844	57.6109
0.812	56.0711
0.795	55.4357
0.787	55.1294
0.779	54.3455
0.771	54.0268
0.763	53.4804
0.755	52.2307
0.747	51.6096
0.739	50.6585
0.731	49.873
0.723	48.7903
0.715	47.8278
0.707	46.5555
0.699	45.5
0.691	44.9195
0.683	43.5493
0.675	42.6864
0.667	41.5528
0.659	40.6519
0.651	39.3726
0.643	38.6297
0.635	38.1863
0.627	36.3597
0.619	35.5551
0.611	34.1242
0.603	33.0461
0.595	31.5361
0.587	29.9599
0.579	28.4051
0.571	26.5747
0.563	24.8406
0.555	21.7689
0.547	20.4816
0.539	19.4995
0.531	18.7218
0.523	17.9083
0.515	17.2075
0.507	16.7769
0.499	15.9973
0.491	15.2627
0.483	15.1376
0.475	14.8737
0.467	14.0595
0.459	13.7137
0.451	13.1276
0.443	12.6473
0.435	12.3441
0.427	11.6688
0.419	10.7001
0.411	10.2324
0.403	9.4864
