Name: Anorthosite
Type: rock
Class: Igneous
Subclass: Mafic
Particle Size: Fine
Sample No.: Anorthos_H1
Owner: JHU
Wavelength Range: All
Origin: from near Elizabethtown, Essex County, New York, via Ward'sScientific (Cat. No. W-32)
Description: The sample from which the powder was derived consists of dark gray tabular plagioclase containing interstitial bluish-green granulated feldspar groundmass, and some opaque areas approx. 1-3 mm in size scattered through the sample.Particle size was 0-75 micrometers. Original ASTER Spectral Library name was jhu.becknic.rock.igneous.mafic.fine.anorth1.spectrum.txt
Measurement: Directional (10 degree) hemispherical reflectance
X Units: Wavelength (micrometers)
Y Units: Reflectance (percent)
wavelength	value
14.011	0
13.715	3.7218
13.43	2.0221
13.158	1.4943
12.896	1.5408
12.644	1.8759
12.402	2.9508
12.169	4.2197
11.945	4.613
11.729	4.5951
11.52	4.1553
11.319	3.8273
11.125	3.3605
10.937	3.0488
10.755	2.9775
10.58	2.9512
10.41	2.8828
10.245	3.0825
10.086	3.0546
9.9313	3.2604
9.7814	3.0836
9.636	3.0891
9.4948	2.7307
9.3577	2.3506
9.2245	2.1837
9.095	2.3909
8.9691	2.4778
8.8467	2.6582
8.7275	2.7535
8.6116	2.7354
8.4986	2.9649
8.3886	3.1329
8.2814	3.0727
8.1769	2.221
8.075	1.7824
7.9756	1.7967
7.8786	2.0473
7.784	2.4954
7.6916	3.1179
7.6014	3.6642
7.5133	4.373
7.4272	4.9985
7.343	5.3777
7.2607	5.3976
7.1803	5.3388
7.1016	5.7942
7.0246	5.8423
6.9493	5.7161
6.8755	5.9423
6.8034	6.3686
6.7327	6.8556
6.6634	7.5602
6.5956	8.3815
6.5292	9.3173
6.464	10.127
6.4002	10.606
6.3376	10.647
6.2762	10.533
6.216	10.623
6.157	10.576
6.099	10.855
6.0421	11.129
5.9863	11.576
5.9315	12.01
5.8777	12.394
5.8249	12.851
5.773	13.105
5.722	13.322
5.6719	13.661
5.6227	14.004
5.5744	13.28
5.5268	14.934
5.4801	15.734
5.4341	16.588
5.3889	17.705
5.3445	18.547
5.3008	19.305
5.2578	20.077
5.2154	21.116
5.1738	22.325
5.1328	23.722
5.0925	25.168
5.0528	26.693
5.0137	27.883
4.9752	28.901
4.9373	29.764
4.9	30.363
4.8632	31.117
4.827	31.822
4.7913	32.216
4.7561	32.741
4.7215	33.389
4.6873	34.083
4.6536	34.894
4.6205	36.031
4.5877	37.117
4.5555	37.978
4.5237	38.28
4.4923	37.737
4.4614	37.755
4.4309	40.442
4.4008	42.7
4.3711	44.022
4.3418	44.789
4.3129	45.417
4.2844	45.804
4.2563	46.194
4.2285	46.506
4.2011	46.954
4.174	47.144
4.1473	47.174
4.1209	47.153
4.0949	47.051
4.0692	46.866
4.0438	46.27
4.0187	44.986
3.994	41.1
3.9695	40.165
3.9453	42.912
3.9214	44.013
3.8979	44.113
3.8746	44.044
3.8515	44.052
3.8288	44.375
3.8063	44.848
3.7841	45.01
3.7621	44.682
3.7404	44.263
3.7189	43.777
3.6977	43.285
3.6767	42.696
3.656	42.118
3.6355	41.479
3.6152	40.876
3.5951	40.318
3.5753	39.581
3.5557	38.981
3.5363	38.227
3.5171	36.79
3.4981	35.609
3.4793	34.344
3.4607	34.709
3.4423	33.995
3.4241	33.244
3.4061	32.307
3.3883	31.413
3.3707	30.595
3.3533	29.551
3.336	29.568
3.3189	29.12
3.302	28.82
3.2853	28.388
3.2687	28.126
3.2523	27.549
3.2361	26.769
3.22	25.815
3.204	24.722
3.1883	24.07
3.1727	23.691
3.1572	23.56
3.1419	23.562
3.1268	23.813
3.1117	24.097
3.0969	24.241
3.0821	24.393
3.0675	24.411
3.0531	24.301
3.0388	24.173
3.0246	23.891
3.0105	23.328
2.9966	22.432
2.9828	21.509
2.9692	20.407
2.9556	19.455
2.9422	18.48
2.9289	18.204
2.9157	18.825
2.9027	19.499
2.8897	19.844
2.8769	18.813
2.8642	18.32
2.8516	18.945
2.8391	19.255
2.8267	19.425
2.8144	19.526
2.8022	20.004
2.7902	19.678
2.7782	17.178
2.7664	14.469
2.7546	13.583
2.7429	15.517
2.7314	18.593
2.7199	25.869
2.7085	36.891
2.6973	42.3
2.6861	45.097
2.675	46.586
2.664	47.818
2.6531	48.528
2.6423	48.805
2.6315	49.132
2.6209	49.132
2.6103	49.25
2.5999	49.393
2.5895	49.515
2.5792	49.479
2.569	49.602
2.5588	49.834
2.5487	49.916
2.5388	49.922
2.5289	50.059
2.519	50.046
2.5093	49.945
2.4996	50.049
2.49	50.07
2.4805	50.039
2.471	50.136
2.4616	50.307
2.4523	50.176
2.4431	50.212
2.4339	50.283
2.4248	50.249
2.4157	50.244
2.4068	50.297
2.3979	50.129
2.389	50.11
2.3802	49.777
2.3715	49.414
2.3629	49.119
2.3543	48.533
2.3458	48.514
2.3373	48.292
2.3289	48.856
2.3206	49.473
2.3123	50.061
2.3041	50.391
2.2959	50.349
2.2878	50.401
2.2798	50.843
2.2718	50.931
2.2638	50.551
2.2559	50.681
2.2481	50.501
2.2403	50.798
2.2326	50.95
2.225	50.969
2.2173	50.899
2.2098	50.821
2.2023	50.621
2.1948	50.857
2.1874	51.063
2.18	51.529
2.1727	51.788
2.1655	52.15
2.1583	52.187
2.1511	52.296
2.144	52.508
2.1369	52.564
2.1299	52.664
2.1229	52.572
2.116	52.594
2.1091	52.608
2.1023	52.478
2.0955	52.206
2.0887	52.434
2.082	52.564
2.06	52.472
2.028	51.872
1.996	51.439
1.964	50.205
1.932	49.172
1.9	48.639
1.868	48.772
1.836	49.272
1.804	50.372
1.772	50.105
1.74	50.005
1.708	50.205
1.676	49.839
1.644	49.705
1.612	49.105
1.58	49.272
1.548	49.039
1.516	49.105
1.484	48.572
1.452	48.339
1.42	48.239
1.388	47.205
1.356	47.439
1.324	47.739
1.292	47.472
1.26	46.239
1.228	46.739
1.196	46.305
1.164	46.539
1.132	45.505
1.1	45.672
1.068	45.305
1.036	44.772
1.004	45.205
0.972	45.572
0.94	45.105
0.908	45.272
0.876	44.805
0.844	44.139
0.812	44.105
0.795	44.573
0.787	44.539
0.779	44.439
0.771	44.573
0.763	44.173
0.755	44.173
0.747	44.006
0.739	43.806
0.731	43.706
0.723	43.373
0.715	42.973
0.707	42.673
0.699	42.539
0.691	42.872
0.683	42.639
0.675	42.605
0.667	42.639
0.659	42.339
0.651	42.572
0.643	42.572
0.635	42.639
0.627	42.872
0.619	42.972
0.611	42.905
0.603	42.605
0.595	42.205
0.587	42.505
0.579	42.638
0.571	43.171
0.563	43.238
0.555	43.605
0.547	42.971
0.539	42.738
0.531	42.905
0.523	42.638
0.515	42.405
0.507	42.105
0.499	41.705
0.491	41.571
0.483	41.338
0.475	41.071
0.467	40.738
0.459	41.638
0.451	41.271
0.443	40.905
0.435	40.571
0.427	39.905
0.419	39.338
0.411	39.238
0.403	38.738
