Name: Monzonite
Type: Rock
Class: Igneous
Subclass: Intermediate
Particle Size: Solid
Sample No.: Ward24
Owner: JPL
Wavelength Range: All
Origin: Ward's Collection of American Rocks.  Sample locality - Near Silverton, San Juan County, Colorado.
Description: A purplish gray rock consisting chiefly of plagioclase,orthoclase, and greenish hornblende with small amounts of quartz.Geologic age - Tertiary (Miocene).Collected by:  Ward's Natural Science Original ASTER Spectral Library name was jpl.nicolet.rock.igneous.intermediate.solid.ward24.spectrum.txt
Measurement: Hemispherical reflectance
X Units: Wavelength (micrometers)
Y Units: Reflectance (percent)
wavelength	value
15.3871	4.7604
15.118	4.5812
14.8581	4.255
14.6069	4.3206
14.3642	4.7481
14.1293	5.1267
13.9021	5.3925
13.682	5.234
13.4687	5.3086
13.2621	5.333
13.0616	5.9285
12.8672	6.5192
12.6784	6.04
12.4951	5.9819
12.317	4.2253
12.1439	4.796
11.9757	5.2985
11.812	6.0347
11.6527	6.2473
11.4977	7.0379
11.3468	7.7135
11.1997	7.8714
11.0564	8.4709
10.9168	9.0818
10.7806	9.6056
10.6478	10.3644
10.5182	11.3608
10.3917	12.5559
10.2683	13.9047
10.1477	15.8374
10.0299	17.4391
9.9148	19.0612
9.8024	19.2128
9.6925	20.3911
9.585	21.015
9.4798	21.2292
9.377	22.2689
9.2763	23.2162
9.1778	21.9889
9.0814	21.0365
8.987	20.5469
8.8945	20.8209
8.8039	21.0306
8.7151	21.0606
8.6281	18.4287
8.5428	20.6401
8.4592	20.3115
8.3772	19.6329
8.2967	17.5029
8.2179	14.9111
8.1404	11.7065
8.0645	7.9588
7.9899	5.7687
7.9167	4.143
7.8449	3.5006
7.7743	3.113
7.705	2.902
7.6369	2.71
7.57	2.7296
7.5043	2.713
7.4397	2.4997
7.3762	2.6386
7.3138	2.5307
7.2524	2.511
7.1921	2.7857
7.1327	2.9056
7.0743	3.2048
7.0169	3.1634
6.9604	3.2402
6.9047	3.2166
6.85	3.2001
6.7962	3.2166
6.7431	3.3764
6.6909	3.3721
6.6395	3.409
6.5889	3.533
6.539	3.6265
6.49	3.7058
6.4416	3.5629
6.3939	3.2486
6.347	2.957
6.3007	2.9111
6.2551	2.7759
6.2101	2.7599
6.1658	2.7219
6.1222	2.9245
6.0791	2.9887
6.0366	2.8879
5.9948	2.9621
5.9535	3.0405
5.9127	2.9954
5.8726	3.1904
5.8329	3.3049
5.7938	3.1482
5.7552	3.2356
5.7172	3.3356
5.6796	3.3594
5.6425	3.3793
5.6059	3.324
5.5698	3.3876
5.5341	3.5292
5.4989	3.6085
5.4641	3.8376
5.4298	3.9471
5.3959	3.8559
5.3624	3.8312
5.3294	3.7907
5.2967	3.9257
5.2644	4.0701
5.2326	4.281
5.2011	4.5424
5.17	4.4775
5.1392	4.7377
5.1088	4.8309
5.0788	5.0762
5.0491	5.0903
5.0198	5.0885
4.9908	5.1513
4.9622	5.3184
4.9338	5.4517
4.9058	5.7006
4.8781	5.946
4.8508	6.2594
4.8237	6.3443
4.7969	6.4639
4.7704	6.5269
4.7443	6.789
4.7184	6.7352
4.6927	6.8947
4.6674	6.9994
4.6423	7.2898
4.6175	7.4733
4.593	7.7436
4.5687	8.0526
4.5447	8.2986
4.5209	8.4682
4.4974	8.6272
4.4741	8.7129
4.451	8.9649
4.4282	9.4038
4.4057	9.678
4.3833	10.051
4.3612	10.5554
4.3393	10.781
4.3176	11.2904
4.2962	11.3794
4.2749	11.6996
4.2539	12.0949
4.233	12.2276
4.2124	12.4662
4.192	12.7335
4.1717	12.7157
4.1517	13.079
4.1319	13.2338
4.1122	13.3608
4.0927	13.6075
4.0734	13.6881
4.0543	13.8461
4.0354	13.7143
4.0166	13.4175
3.9981	13.0919
3.9796	12.8221
3.9614	13.117
3.9433	13.783
3.9254	14.1125
3.9077	14.173
3.8901	14.2062
3.8726	14.2366
3.8554	14.5039
3.8382	14.4893
3.8213	14.635
3.8045	14.9416
3.7878	14.8511
3.7713	15.0706
3.7549	15.1202
3.7386	14.9823
3.7225	15.0308
3.7066	14.8384
3.6907	14.9808
3.675	14.8427
3.6595	15.0385
3.644	14.9702
3.6287	14.8341
3.6136	14.6365
3.5985	14.5859
3.5836	14.2647
3.5688	14.0734
3.5541	13.6956
3.5396	13.6871
3.5251	13.2712
3.5108	12.7576
3.4966	12.541
3.4825	12.2697
3.4685	12.188
3.4547	12.0679
3.4409	11.855
3.4273	11.309
3.4137	11.082
3.4003	10.9924
3.387	10.5402
3.3738	10.4385
3.3606	10.4967
3.3476	10.1478
3.3347	10.4944
3.3219	9.9444
3.3092	9.8221
3.2965	9.6247
3.284	9.6026
3.2716	9.0737
3.2593	9.0582
3.247	8.7734
3.2348	8.4441
3.2228	8.3514
3.2108	8.3297
3.1989	8.2302
3.1871	7.3517
3.1754	7.3119
3.1638	7.5099
3.1523	6.916
3.1408	6.7246
3.1294	6.7613
3.1181	6.7694
3.1069	6.408
3.0958	6.4385
3.0848	6.3858
3.0738	6.1709
3.0629	6.0406
3.0521	6.3797
3.0413	5.7416
3.0307	5.5297
3.0201	6.0912
3.0096	5.4726
2.9991	5.3049
2.9887	5.5927
2.9784	5.4901
2.9682	5.8157
2.9581	5.1215
2.948	5.5505
2.9379	5.2713
2.928	5.9558
2.9181	5.8874
2.9083	5.1894
2.8985	5.9163
2.8888	5.945
2.8792	5.3532
2.8697	5.798
2.8602	5.8313
2.8507	5.6989
2.8413	5.6731
2.832	6.1775
2.8228	6.1466
2.8136	6.1198
2.8045	5.8895
2.7954	6.2075
2.7864	6.4488
2.7774	6.5292
2.7685	6.4559
2.7597	6.2391
2.7509	6.8937
2.7422	7.4748
2.7335	7.8497
2.7249	8.7962
2.7163	10.4495
2.7078	12.2966
2.6994	13.4805
2.691	15.9759
2.6826	17.0547
2.6743	18.1583
2.666	19.3397
2.6578	19.266
2.6497	19.5537
2.6416	19.4339
2.6336	20.0491
2.6256	19.7187
2.6176	20.434
2.6097	20.3127
2.6018	20.6285
2.594	20.2824
2.5863	20.5884
2.5785	20.288
2.5709	20.7175
2.5633	20.5163
2.5557	20.1199
2.5481	20.3064
2.5406	19.9122
2.5332	20.5481
2.5258	20.3013
2.5184	20.4824
2.5111	20.552
2.5038	20.7539
2.4966	21.2547
2.4894	20.9661
2.4823	20.9598
2.4752	21.2139
2.4681	21.4162
2.4611	21.3417
2.4541	21.3571
2.4471	21.4106
2.4402	21.3732
2.4333	22.3344
2.4265	22.3329
2.4197	21.4433
2.413	22.4927
2.4063	21.6449
2.3996	21.6248
2.3929	21.6547
2.3863	22.1307
2.3798	22.0998
2.3732	21.8033
2.3667	22.3539
2.3603	21.6576
2.3538	20.9409
2.3474	22.0891
2.3411	21.7671
2.3347	22.4883
2.3285	22.0151
2.3222	21.6048
2.316	21.916
2.3098	22.7315
2.3036	21.5513
2.2975	23.2352
2.2914	22.623
2.2854	23.0388
2.2793	23.1232
2.2733	23.0204
2.2674	23.2741
2.2614	22.5693
2.2555	23.1595
2.2497	23.1454
2.2438	23.257
2.238	24.2546
2.2322	23.5265
2.2265	23.5349
2.2208	24.1966
2.2151	24.1705
2.2094	24.8737
2.2038	23.799
2.1982	24.228
2.1926	24.9246
2.187	23.8109
2.1815	24.5872
2.176	24.4648
2.1706	24.3032
2.1651	25.3324
2.1597	24.673
2.1543	25.4801
2.149	24.1138
2.1436	24.9956
2.1383	24.3933
2.1331	25.4313
2.1278	25.0373
2.1226	24.0905
2.1174	25.5477
2.1122	24.1961
2.1071	24.9939
2.1019	24.5756
2.0968	25.548
2.0918	23.483
2.0867	24.6397
2.0817	25.1142
2.0767	23.2623
2.0717	24.74
2.0667	25.4481
2.0618	24.2413
2.0569	24.21
2.052	24.9212
2.0472	25.9691
2.0423	25.4201
2.0375	24.5026
2.0327	23.5061
2.028	25.0343
2.0232	24.5086
2.0185	23.8873
2.0138	24.5373
2.0091	24.8233
2.0044	24.5413
1.9998	24.8815
