Name: Limestone CaCO3
Type: Rock
Class: Sedimentary
Subclass: Limestone
Particle Size: Solid
Sample No.: ro359
Owner: Larry Rowan, USGS
Wavelength Range: All
Origin: Ronda, Spain
Description: white limestoneSample was Whole rock chips. Original ASTER Spectral Library name was usgs.perknic.rock.sedimentary.limestone.solid.ls359.spectrum.txt
Measurement: Reflectance
X Units: Wavelength (micrometers)
Y Units: Reflectance (percent)
wavelength	value
0.4	0.541
0.408	0.547
0.416	0.559
0.424	0.568
0.432	0.578
0.44	0.584
0.448	0.587
0.456	0.592
0.464	0.596
0.472	0.592
0.48	0.6
0.488	0.603
0.496	0.612
0.504	0.617
0.512	0.624
0.52	0.617
0.528	0.63
0.536	0.63
0.544	0.637
0.552	0.641
0.56	0.64
0.568	0.646
0.576	0.661
0.584	0.653
0.592	0.654
0.6	0.662
0.608	0.654
0.616	0.656
0.624	0.659
0.632	0.668
0.64	0.661
0.648	0.664
0.656	0.663
0.664	0.667
0.672	0.67
0.68	0.674
0.688	0.672
0.696	0.679
0.704	0.684
0.712	0.683
0.72	0.684
0.728	0.692
0.736	0.689
0.744	0.689
0.752	0.696
0.76	0.694
0.768	0.694
0.776	0.695
0.784	0.696
0.792	0.698
0.8	0.702
0.832	0.708
0.864	0.712
0.896	0.712
0.928	0.708
0.96	0.703
0.992	0.701
1.024	0.697
1.056	0.7
1.088	0.697
1.12	0.696
1.152	0.698
1.184	0.697
1.216	0.7
1.248	0.7
1.28	0.698
1.312	0.694
1.344	0.687
1.376	0.662
1.408	0.607
1.44	0.593
1.472	0.601
1.504	0.63
1.536	0.645
1.568	0.659
1.6	0.668
1.632	0.664
1.664	0.669
1.696	0.658
1.728	0.636
1.76	0.643
1.792	0.645
1.824	0.613
1.856	0.543
1.888	0.486
1.92	0.44
1.952	0.441
1.984	0.442
2.016	0.507
2.048	0.546
2.08	0.553
2.1021	0.5692
2.109	0.5662
2.1159	0.5691
2.1228	0.5685
2.1298	0.5571
2.1368	0.555
2.1438	0.5325
2.1509	0.5176
2.1581	0.5187
2.1653	0.5245
2.1726	0.5381
2.1799	0.5453
2.1872	0.5491
2.1946	0.5471
2.2021	0.5416
2.2096	0.5301
2.2172	0.5236
2.2248	0.5094
2.2324	0.4888
2.2401	0.4713
2.2479	0.4505
2.2557	0.4287
2.2636	0.409
2.2715	0.3862
2.2795	0.3587
2.2876	0.3337
2.2957	0.3156
2.3038	0.3124
2.3121	0.2965
2.3203	0.2885
2.3287	0.2669
2.3371	0.2535
2.3455	0.2648
2.354	0.295
2.3626	0.3453
2.3712	0.3844
2.38	0.4156
2.3887	0.4297
2.3976	0.4227
2.4065	0.4191
2.4154	0.4119
2.4245	0.3882
2.4336	0.37
2.4427	0.3462
2.452	0.3236
2.4613	0.2927
2.4707	0.266
2.4801	0.2421
2.4896	0.2317
2.4992	0.2202
2.5089	0.2174
2.5187	0.2102
2.5285	0.1887
2.5384	0.1857
2.5484	0.2122
2.5584	0.2581
2.5686	0.299
2.5788	0.3235
2.5891	0.3424
2.5995	0.3605
2.6099	0.3664
2.6205	0.3662
2.6311	0.364
2.6418	0.3559
2.6526	0.3448
2.6635	0.332
2.6745	0.3103
2.6856	0.2793
2.6968	0.2403
2.708	0.2053
2.7194	0.1602
2.7309	0.1516
2.7424	0.1385
2.7541	0.1294
2.7658	0.1209
2.7777	0.1119
2.7896	0.1053
2.8017	0.1053
2.8138	0.0996
2.8261	0.0975
2.8385	0.0958
2.851	0.0929
2.8636	0.0907
2.8763	0.0893
2.8891	0.0862
2.902	0.085
2.915	0.0847
2.9282	0.0834
2.9415	0.0822
2.9549	0.0837
2.9684	0.0834
2.9821	0.0836
2.9959	0.0836
3.0098	0.0841
3.0238	0.0837
3.038	0.085
3.0523	0.0857
3.0667	0.0854
3.0813	0.087
3.096	0.0869
3.1109	0.0881
3.1259	0.0914
3.141	0.092
3.1563	0.0952
3.1718	0.0989
3.1874	0.1015
3.2031	0.1042
3.219	0.1053
3.2351	0.106
3.2513	0.1061
3.2677	0.1061
3.2843	0.104
3.301	0.1008
3.3179	0.0945
3.3349	0.0804
3.3522	0.0655
3.3696	0.0684
3.3872	0.0677
3.405	0.0662
3.423	0.0667
3.4412	0.0675
3.4595	0.0646
3.4781	0.0592
3.4968	0.0642
3.5158	0.0724
3.535	0.0891
3.5544	0.101
3.574	0.1045
3.5938	0.1208
3.6138	0.1293
3.6341	0.1348
3.6545	0.1385
3.6753	0.1398
3.6962	0.139
3.7174	0.1353
3.7389	0.1275
3.7605	0.1197
3.7825	0.1055
3.8047	0.0832
3.8272	0.0728
3.8499	0.0681
3.8729	0.0667
3.8962	0.0653
3.9197	0.0633
3.9436	0.0564
3.9677	0.05
3.9921	0.0542
4.0169	0.0668
4.0419	0.0802
4.0673	0.0902
4.093	0.0972
4.119	0.1043
4.1453	0.1118
4.172	0.1162
4.199	0.1198
4.2264	0.1217
4.2541	0.1214
4.2822	0.1219
4.3107	0.1201
4.3395	0.1186
4.3688	0.1237
4.3984	0.1219
4.4285	0.1156
4.4589	0.107
4.4898	0.0994
4.5211	0.0961
4.5529	0.0951
4.5851	0.0928
4.6177	0.0863
4.6509	0.0753
4.6845	0.0751
4.7186	0.087
4.7532	0.0975
4.7883	0.0999
4.8239	0.0985
4.8601	0.0969
4.8968	0.0957
4.9341	0.0946
4.9719	0.0932
5.0103	0.0931
5.0493	0.0927
5.089	0.0769
5.1292	0.0862
5.1702	0.0836
5.2117	0.0793
5.254	0.0745
5.2969	0.0697
5.3405	0.0631
5.3849	0.0573
5.43	0.0507
5.4759	0.0433
5.5225	0.0345
5.57	0.0271
5.6182	0.0364
5.6673	0.034
5.7173	0.03
5.7682	0.0283
5.82	0.0274
5.8727	0.0263
5.9264	0.0234
5.9811	0.0215
6.0368	0.0201
6.0935	0.0193
6.1513	0.0212
6.2103	0.0272
6.2703	0.044
6.3316	0.0828
6.394	0.1874
6.4577	0.3491
6.5227	0.3474
6.589	0.3122
6.6566	0.2779
6.7257	0.2419
6.7962	0.214
6.8682	0.1955
6.9418	0.1821
7.0169	0.1801
7.0937	0.1682
7.1722	0.1275
7.2524	0.1082
7.3345	0.1049
7.4184	0.1018
7.5043	0.0988
7.5922	0.0954
7.6821	0.0977
7.7743	0.0965
7.8686	0.095
7.9653	0.0937
8.0644	0.0898
8.166	0.0896
8.2701	0.0872
8.377	0.0812
8.4867	0.0769
8.5992	0.0753
8.7149	0.081
8.8336	0.0865
8.9556	0.0879
9.0811	0.0858
9.2101	0.0759
9.3428	0.0818
9.4795	0.0796
9.6201	0.0765
9.765	0.0697
9.9144	0.0677
10.0684	0.0687
10.2272	0.0711
10.3911	0.0726
10.5604	0.0712
10.7353	0.0738
10.9161	0.0814
11.103	0.0872
11.2965	0.1579
11.4968	0.0796
11.7044	0.0714
11.9196	0.0723
12.1429	0.0687
12.3747	0.064
12.6155	0.0602
12.8659	0.0575
13.1264	0.0575
13.3977	0.0549
13.6804	0.0449
13.9753	0.0373
