Name: Rhyolitic obsidian
Type: rock
Class: Igneous
Subclass: Intermediate
Particle Size: Fine
Sample No.: Obsidian_H1
Owner: JHU
Wavelength Range: All
Origin: Mono Lake, California  via Smithsonian (Cat. No.111123-60)
Description: The sample from which the powder was derived is a black homogenous glass with good conchoidal fracture.Particle size was 0-75 micrometers. Original ASTER Spectral Library name was jhu.becknic.rock.igneous.intermediate.fine.obsidi1.spectrum.txt
Measurement: Directional (10 degree) hemispherical reflectance
X Units: Wavelength (micrometers)
Y Units: Reflectance (percent)
wavelength	value
14.011	1.5
13.715	0
13.43	1.0332
13.158	0.6867
12.896	1.0303
12.644	0.8337
12.402	0.9678
12.169	1.2262
11.945	2.2257
11.729	5.3011
11.52	6.6862
11.319	6.4289
11.125	5.546
10.937	4.4964
10.755	3.5147
10.58	2.693
10.41	2.3431
10.245	2.1875
10.086	2.1947
9.9313	2.2624
9.7814	2.4026
9.636	2.539
9.4948	2.7358
9.3577	2.9062
9.2245	3.169
9.095	3.1174
8.9691	2.7106
8.8467	2.2982
8.7275	2.0696
8.6116	1.9784
8.4986	1.926
8.3886	1.9158
8.2814	1.9333
8.1769	2.0377
8.075	2.0337
7.9756	1.7356
7.8786	1.0413
7.784	0.5058
7.6916	0.266
7.6014	0.1844
7.5133	0.2398
7.4272	0.4062
7.343	0.7353
7.2607	1.0572
7.1803	1.5028
7.1016	2.0553
7.0246	2.6508
6.9493	3.2888
6.8755	3.9255
6.8034	4.6101
6.7327	5.2549
6.6634	5.8797
6.5956	6.4476
6.5292	6.9291
6.464	7.3216
6.4002	7.559
6.3376	7.6999
6.2762	7.8823
6.216	8.1516
6.157	8.4949
6.099	9.1306
6.0421	9.9089
5.9863	10.753
5.9315	11.392
5.8777	11.826
5.8249	12.048
5.773	12.114
5.722	12.002
5.6719	11.812
5.6227	11.579
5.5744	11.357
5.5268	11.248
5.4801	11.273
5.4341	11.478
5.3889	11.979
5.3445	12.734
5.3008	13.726
5.2578	14.759
5.2154	15.573
5.1738	16.215
5.1328	16.789
5.0925	17.627
5.0528	18.815
5.0137	20.468
4.9752	22.703
4.9373	25.436
4.9	28.385
4.8632	31.168
4.827	33.318
4.7913	34.767
4.7561	35.678
4.7215	36.318
4.6873	36.825
4.6536	37.255
4.6205	37.702
4.5877	38.135
4.5555	38.65
4.5237	39.237
4.4923	39.973
4.4614	40.723
4.4309	41.566
4.4008	42.457
4.3711	43.331
4.3418	44.224
4.3129	45.048
4.2844	45.766
4.2563	46.352
4.2285	47.134
4.2011	47.806
4.174	48.409
4.1473	48.963
4.1209	49.393
4.0949	49.796
4.0692	50.1
4.0438	50.329
4.0187	50.475
3.994	50.604
3.9695	50.672
3.9453	50.741
3.9214	50.749
3.8979	50.757
3.8746	50.72
3.8515	50.73
3.8288	50.701
3.8063	50.66
3.7841	50.606
3.7621	50.543
3.7404	50.441
3.7189	50.383
3.6977	50.285
3.6767	50.168
3.656	50.042
3.6355	49.829
3.6152	49.645
3.5951	49.425
3.5753	49.181
3.5557	48.876
3.5363	48.552
3.5171	48.121
3.4981	47.591
3.4793	47.303
3.4607	46.894
3.4423	46.407
3.4241	45.652
3.4061	45.29
3.3883	45.021
3.3707	44.613
3.3533	44.127
3.336	43.625
3.3189	43.048
3.302	42.447
3.2853	41.832
3.2687	41.243
3.2523	40.611
3.2361	40.012
3.22	39.391
3.204	38.747
3.1883	38.175
3.1727	37.551
3.1572	36.977
3.1419	36.438
3.1268	35.963
3.1117	35.448
3.0969	35.021
3.0821	34.539
3.0675	34.174
3.0531	33.779
3.0388	33.443
3.0246	33.094
3.0105	32.692
2.9966	32.342
2.9828	31.959
2.9692	31.66
2.9556	31.307
2.9422	31.009
2.9289	30.715
2.9157	30.371
2.9027	30.081
2.8897	29.84
2.8769	29.523
2.8642	29.199
2.8516	28.997
2.8391	28.759
2.8267	28.552
2.8144	28.365
2.8022	28.223
2.7902	28.331
2.7782	28.599
2.7664	29.28
2.7546	30.363
2.7429	32.496
2.7314	35.506
2.7199	39.324
2.7085	43.522
2.6973	46.513
2.6861	48.111
2.675	48.775
2.664	49.625
2.6531	50.015
2.6423	50.214
2.6315	50.175
2.6209	50.147
2.6103	50.197
2.5999	50.13
2.5895	50.035
2.5792	49.987
2.569	49.845
2.5588	49.922
2.5487	49.853
2.5388	49.908
2.5289	49.822
2.519	49.816
2.5093	49.796
2.4996	49.865
2.49	49.776
2.4805	49.838
2.471	49.923
2.4616	49.8
2.4523	49.859
2.4431	49.837
2.4339	49.986
2.4248	49.93
2.4157	49.894
2.4068	49.811
2.3979	49.895
2.389	49.871
2.3802	49.853
2.3715	49.737
2.3629	49.849
2.3543	49.791
2.3458	49.671
2.3373	49.673
2.3289	49.672
2.3206	49.515
2.3123	49.52
2.3041	49.444
2.2959	49.418
2.2878	49.399
2.2798	49.325
2.2718	49.222
2.2638	49.278
2.2559	49.132
2.2481	49.051
2.2403	49.079
2.2326	49.118
2.225	48.993
2.2173	49.015
2.2098	49.001
2.2023	49.078
2.1948	49.194
2.1874	49.369
2.18	49.514
2.1727	49.722
2.1655	49.773
2.1583	49.805
2.1511	49.938
2.144	50.035
2.1369	49.964
2.1299	50.066
2.1229	50.102
2.116	50.099
2.1091	50.13
2.1023	50.195
2.0955	50.259
2.0887	50.181
2.082	50.237
2.06	50.252
2.028	49.678
1.996	49.297
1.964	49.06
1.932	46.648
1.9	46.388
1.868	47.479
1.836	48.205
1.804	47.977
1.772	48.021
1.74	47.89
1.708	48.032
1.676	47.712
1.644	47.634
1.612	47.149
1.58	46.757
1.548	46.949
1.516	46.951
1.484	46.56
1.452	46.299
1.42	45.504
1.388	45.393
1.356	45.534
1.324	45.004
1.292	45.059
1.26	44.468
1.228	44.237
1.196	44.338
1.164	44.071
1.132	43.75
1.1	43.825
1.068	43.804
1.036	44.095
1.004	44.551
0.972	44.614
0.94	45.174
0.908	45.688
0.876	45.579
0.844	45.695
0.812	45.863
0.795	44.825
0.787	45.114
0.779	45.297
0.771	45.007
0.763	45.485
0.755	44.862
0.747	44.768
0.739	45.526
0.731	44.663
0.723	45.238
0.715	44.661
0.707	44.512
0.699	44.947
0.691	45.138
0.683	44.694
0.675	44.492
0.667	44.344
0.659	44.393
0.651	44.238
0.643	44.392
0.635	43.845
0.627	43.94
0.619	43.438
0.611	43.19
0.603	43.13
0.595	43.209
0.587	42.949
0.579	42.763
0.571	42.942
0.563	42.427
0.555	41.057
0.547	40.951
0.539	40.929
0.531	40.816
0.523	40.84
0.515	40.772
0.507	40.294
0.499	39.935
0.491	40.065
0.483	40.037
0.475	39.312
0.467	39.651
0.459	40.195
0.451	39.967
0.443	39.559
0.435	39.585
0.427	39.194
0.419	38.448
0.411	38.037
0.403	37.685
