Name: Shale (Phosphatic)
Type: rock
Class: Sedimentary
Subclass: Shale
Particle Size: Coarse
Sample No.: shale_2
Owner: JHU
Wavelength Range: All
Origin: Sample No. 384,  The Hunt and Salisbury Collection at the U.S.Geological Survey, Denver, Co.
Description: Slightly porous sample of whitish to brown oolites of phosphatic material, ~0.5 - 1.5 mm in size, collophane (amorphous calcium carbonophosphate, yellowish brown and isotropic) in oolitic form, frequently zoned. Fine-grained angular to subangular quartz occurs throughout, often in ooid cores. Silica recrystallization in some spots, carbonaceous material in oolite cores and rims are present. Particle size was 500 - 1500 Micrometers. Original ASTER Spectral Library name was jhu.becknic.rock.sedimentary.shale.coarse.shale2.spectrum.txt
Measurement: Directional (10 Degree) Hemispherical Reflectance
X Units: Wavelength (micrometers)
Y Units: Reflectance (percent)
wavelength	value
14.0112	1.7167
13.7147	1.9289
13.4304	2.0653
13.1577	2.2284
12.8959	2.3157
12.6443	2.2865
12.4023	2.2437
12.1694	2.3311
11.945	2.5416
11.7289	2.7177
11.5203	2.6434
11.3191	2.9111
11.1248	3.1362
10.937	3.3235
10.7555	3.5699
10.5799	3.8441
10.4099	4.1001
10.2454	4.51
10.0859	5.3163
9.9313	6.3305
9.7814	8.2658
9.636	11.7622
9.4948	12.0329
9.3577	11.3963
9.2245	8.6394
9.095	9.8694
8.9691	10.3347
8.8467	6.5963
8.7275	2.3483
8.6116	1.4509
8.4986	1.3736
8.3886	1.2867
8.2814	1.3176
8.1769	1.3095
8.075	1.1618
7.9756	1.0214
7.8786	0.9755
7.784	1.0556
7.6916	1.0652
7.6014	1.0955
7.5133	1.1583
7.4272	1.1784
7.343	1.1882
7.2607	1.2102
7.1803	1.2262
7.1016	1.2506
7.0246	1.1882
6.9493	1.0068
6.8755	1.0162
6.8034	0.9515
6.7327	1.0087
6.6634	1.0539
6.5956	1.1176
6.5292	1.2228
6.464	1.3083
6.4002	1.3674
6.3376	1.4186
6.2762	1.4688
6.216	1.4539
6.157	1.4796
6.099	1.5064
6.0421	1.555
5.9863	1.6679
5.9315	1.8334
5.8777	2.1028
5.8249	2.6596
5.773	3.2888
5.722	3.6963
5.6719	3.141
5.6227	3.7059
5.5744	4.1318
5.5268	5.6647
5.4801	6.615
5.4341	7.0179
5.3889	6.8473
5.3445	6.5418
5.3008	6.6808
5.2578	6.8691
5.2154	6.8667
5.1738	6.2673
5.1328	6.5712
5.0925	5.4672
5.0528	3.5688
5.0137	2.1871
4.9752	2.203
4.9373	2.5548
4.9	2.768
4.8632	2.7026
4.827	2.6005
4.7913	2.5187
4.7561	2.8434
4.7215	3.0474
4.6873	3.0592
4.6536	3.0309
4.6205	3.2216
4.5877	3.9069
4.5555	4.3866
4.5237	5.3438
4.4923	6.3484
4.4614	6.8731
4.4309	7.1366
4.4008	7.1122
4.3711	7.1244
4.3418	6.786
4.3129	5.714
4.2844	3.5922
4.2563	3.2541
4.2285	5.3931
4.2011	7.3797
4.174	8.1232
4.1473	8.3161
4.1209	8.1919
4.0949	7.7402
4.0692	6.9842
4.0438	6.157
4.0187	5.1912
3.994	5.5299
3.9695	5.1764
3.9453	5.9001
3.9214	6.2326
3.8979	6.5317
3.8746	6.6688
3.8515	6.7712
3.8288	6.7832
3.8063	6.7209
3.7841	6.6236
3.7621	6.5028
3.7404	6.3738
3.7189	6.2631
3.6977	6.0797
3.6767	5.8951
3.656	5.7207
3.6355	5.4936
3.6152	5.2405
3.5951	5.0318
3.5753	4.7949
3.5557	4.5373
3.5363	4.2605
3.5171	4.0216
3.4981	3.9463
3.4793	3.7561
3.4607	3.5941
3.4423	3.5939
3.4241	3.5786
3.4061	3.5501
3.3883	3.4881
3.3707	3.4568
3.3533	3.4443
3.336	3.3912
3.3189	3.3601
3.302	3.2951
3.2853	3.2275
3.2687	3.1724
3.2523	3.1436
3.2361	3.1192
3.22	3.069
3.204	2.9868
3.1883	2.9654
3.1727	2.9458
3.1572	2.9173
3.1419	2.8668
3.1268	2.8648
3.1117	2.8512
3.0969	2.8431
3.0821	2.8185
3.0675	2.8378
3.0531	2.7876
3.0388	2.7946
3.0246	2.8558
3.0105	2.8012
2.9966	2.8438
2.9828	2.8371
2.9692	2.8349
2.9556	2.8792
2.9422	2.8582
2.9289	2.9093
2.9157	2.9586
2.9027	2.945
2.8897	3.001
2.8769	3.0316
2.8642	3.1034
2.8516	3.1101
2.8391	3.1237
2.8267	3.1845
2.8144	3.2173
2.8022	3.3364
2.7902	3.4549
2.7782	3.7542
2.7664	4.1044
2.7546	4.784
2.7429	5.9268
2.7314	7.8871
2.7199	10.4884
2.7085	13.4106
2.6973	16.8107
2.6861	21.5252
2.675	23.9267
2.664	25.7407
2.6531	27.7015
2.6423	29.0999
2.6315	29.6758
2.6209	30.5965
2.6103	31.4052
2.5999	31.871
2.5895	32.1777
2.5792	32.5275
2.569	32.5761
2.5588	32.5902
2.5487	32.2023
2.5388	31.8681
2.5289	31.9875
2.519	32.3004
2.5093	32.4842
2.4996	32.7081
2.49	33.0374
2.4805	33.5118
2.471	34.0305
2.4616	34.5461
2.4523	35.2857
2.4431	36.0709
2.4339	36.8317
2.4248	37.4248
2.4157	38.5247
2.4068	39.6483
2.3979	40.611
2.389	41.5138
2.3802	42.2458
2.3715	42.932
2.3629	43.5568
2.3543	44.1417
2.3458	44.8069
2.3373	45.3717
2.3289	46.0407
2.3206	46.5989
2.3123	46.7149
2.3041	47.1533
2.2959	47.5163
2.2878	47.6894
2.2798	47.6275
2.2718	47.6495
2.2638	47.9127
2.2559	48.2488
2.2481	48.5013
2.2403	48.6975
2.2326	48.9229
2.225	48.9013
2.2173	48.8372
2.2098	48.4546
2.2023	48.7771
2.1948	48.8042
2.1874	48.8678
2.18	48.8834
2.1727	48.7259
2.1655	48.5798
2.1583	48.4118
2.1511	48.2704
2.144	48.1142
2.1369	47.9947
2.1299	47.7285
2.1229	47.5553
2.116	47.3555
2.1091	47.1226
2.1023	46.9743
2.0955	46.7398
2.0887	46.6309
2.082	46.4427
2.06	45.2808
2.028	43.9979
1.996	41.2534
1.964	38.8277
1.932	36.9559
1.9	41.0714
1.868	50.6041
1.836	53.2365
1.804	52.8509
1.772	52.1521
1.74	51.9361
1.708	51.2537
1.676	51.1397
1.644	50.8139
1.612	49.7589
1.58	49.1724
1.548	47.6639
1.516	46.062
1.484	44.4865
1.452	43.0109
1.42	41.9159
1.388	42.0927
1.356	41.7878
1.324	40.4155
1.292	39.0946
1.26	37.6551
1.228	36.5528
1.196	35.4256
1.164	33.6917
1.132	32.0432
1.1	30.2607
1.068	28.7889
1.036	27.5756
1.004	26.1923
0.972	24.8239
0.94	23.7797
0.908	22.4848
0.876	21.3627
0.844	20.2004
0.812	19.013
0.795	18.1575
0.787	17.7815
0.779	17.5046
0.771	17.1198
0.763	17.0443
0.755	16.6933
0.747	16.4497
0.739	16.2254
0.731	15.8811
0.723	15.4313
0.715	15.2408
0.707	15.0399
0.699	14.7548
0.691	14.4627
0.683	14.3762
0.675	14.1939
0.667	14.0695
0.659	13.5565
0.651	13.5672
0.643	13.3701
0.635	13.1699
0.627	13.001
0.619	12.8903
0.611	12.6113
0.603	12.5449
0.595	12.4279
0.587	12.5495
0.579	12.3588
0.571	12.2223
0.563	12.1103
0.555	11.8594
0.547	11.8243
0.539	11.5692
0.531	11.2638
0.523	11.2428
0.515	11.0848
0.507	10.7791
0.499	10.8404
0.491	10.6752
0.483	10.2706
0.475	10.1476
0.467	10.1048
0.459	9.5969
0.451	9.612
0.443	9.3071
0.435	8.8784
0.427	8.5214
0.419	8.1366
0.411	7.8079
0.403	7.5131
