Name: Trachyte
Type: Rock
Class: Igneous
Subclass: Alkalic
Particle Size: Solid
Sample No.: Ward17
Owner: JPL
Wavelength Range: VSWIR
Origin: Ward's Collection of American Rocks.  Sample locality - Mineral Hill, near Cripple Creek, Teller County, Colorado.
Description: A very fine-grained, porphyritic rock, light gray in color.Geologic age - Tertiary (Post-Oligocene).Collected by:  Ward's Natural Science Original ASTER Spectral Library name was jpl.perkin.rock.igneous.alkalic.solid.ward17.spectrum.txt
Measurement: Hemispherical reflectance
X Units: Wavelength (micrometers)
Y Units: Reflectance (percent)
wavelength	value
2.5	31.001
2.494	30.6149
2.488	30.8206
2.482	30.8616
2.476	30.8439
2.47	30.8887
2.464	31.0628
2.458	30.9567
2.452	31.1928
2.446	31.1837
2.44	31.326
2.434	31.3427
2.428	31.3197
2.422	31.4587
2.416	31.5458
2.41	31.5256
2.404	31.6146
2.398	31.6361
2.392	31.6114
2.386	31.6481
2.38	31.6929
2.374	31.7803
2.368	31.8371
2.362	31.801
2.356	31.9368
2.35	31.8681
2.344	31.9191
2.338	31.965
2.332	31.9389
2.326	31.9147
2.32	31.9156
2.314	31.9186
2.308	31.941
2.302	31.8983
2.296	31.9293
2.29	32.0357
2.284	32.0166
2.278	32.0225
2.272	32.0456
2.266	32.038
2.26	32.0199
2.254	32.0957
2.248	32.1247
2.242	32.1341
2.236	32.2257
2.23	32.3028
2.224	32.1781
2.218	32.3051
2.212	32.2723
2.206	32.2991
2.2	32.4068
2.194	32.5278
2.188	32.4665
2.182	32.5186
2.176	32.5877
2.17	32.7096
2.164	32.7611
2.158	32.7199
2.152	32.812
2.146	32.8424
2.14	32.8897
2.134	32.8481
2.128	32.8302
2.122	32.7988
2.116	32.642
2.11	32.6183
2.104	32.5102
2.098	32.4285
2.092	32.4977
2.086	32.5703
2.08	32.547
2.074	32.5709
2.068	32.6346
2.062	32.6534
2.056	32.7171
2.05	32.6981
2.044	32.717
2.038	32.7586
2.032	32.7452
2.026	32.7407
2.02	32.7115
2.014	32.7007
2.008	32.6979
2.002	32.6315
1.996	32.7022
1.99	32.6129
1.984	32.5891
1.978	32.5089
1.972	32.4324
1.966	32.3632
1.96	32.3857
1.954	32.3352
1.948	32.2674
1.942	32.2354
1.936	32.1654
1.93	32.2541
1.924	32.1772
1.918	32.0832
1.912	32.1658
1.906	32.2248
1.9	32.4515
1.894	32.6966
1.888	32.7689
1.882	32.9031
1.876	32.988
1.87	32.949
1.864	33.0996
1.858	33.0606
1.852	33.174
1.846	33.1069
1.84	33.1019
1.834	33.185
1.828	33.127
1.822	33.103
1.816	33.1425
1.81	33.1212
1.804	33.1796
1.798	33.2078
1.792	33.188
1.786	33.2139
1.78	33.188
1.774	33.1847
1.768	33.1904
1.762	33.1613
1.756	33.1823
1.75	33.1992
1.744	33.2161
1.738	33.1987
1.732	33.2652
1.726	33.2571
1.72	33.263
1.714	33.2676
1.708	33.2207
1.702	33.1957
1.696	33.2663
1.69	33.1898
1.684	33.1882
1.678	33.2692
1.672	33.2396
1.666	33.2171
1.66	33.2356
1.654	33.2329
1.648	33.248
1.642	33.2912
1.636	33.2326
1.63	33.3255
1.624	33.3102
1.618	33.3105
1.612	33.3195
1.606	33.3223
1.6	33.3399
1.594	33.2817
1.588	33.372
1.582	33.3148
1.576	33.2682
1.57	33.3316
1.564	33.3
1.558	33.3404
1.552	33.3862
1.546	33.3742
1.54	33.3617
1.534	33.3567
1.528	33.347
1.522	33.3883
1.516	33.4109
1.51	33.4406
1.504	33.4088
1.498	33.4186
1.492	33.4078
1.486	33.4237
1.48	33.4088
1.474	33.4746
1.468	33.437
1.462	33.4871
1.456	33.4766
1.45	33.4872
1.444	33.4666
1.438	33.5227
1.432	33.5553
1.426	33.452
1.42	33.4839
1.414	33.471
1.408	33.6252
1.402	33.6695
1.396	33.7543
1.39	33.7141
1.384	33.7588
1.378	33.8585
1.372	33.7994
1.366	33.8852
1.36	33.8101
1.354	33.9308
1.348	33.8194
1.342	33.9827
1.336	33.8961
1.33	33.9428
1.324	33.9294
1.318	34.0127
1.312	33.9748
1.306	34.0911
1.3	34.0425
1.294	34.0889
1.288	34.0738
1.282	34.1514
1.276	34.1261
1.27	34.1799
1.264	34.2249
1.258	34.2653
1.252	34.2833
1.246	34.2911
1.24	34.3577
1.234	34.421
1.228	34.4274
1.222	34.458
1.216	34.5092
1.21	34.4977
1.204	34.6276
1.198	34.6431
1.192	34.6662
1.186	34.6905
1.18	34.813
1.174	34.8504
1.168	34.9731
1.162	34.9676
1.156	35.0299
1.15	35.1457
1.144	35.1383
1.138	35.2013
1.132	35.2947
1.126	35.2709
1.12	35.4303
1.114	35.4428
1.108	35.5041
1.102	35.5913
1.096	35.6354
1.09	35.555
1.084	35.6745
1.078	35.7947
1.072	35.7899
1.066	35.9075
1.06	35.9263
1.054	36.0348
1.048	36.1207
1.042	36.0348
1.036	36.1406
1.03	36.0864
1.024	36.0891
1.018	36.1349
1.012	36.2617
1.006	36.3274
1	36.3289
0.994	36.3845
0.988	36.3962
0.982	36.4389
0.976	36.4065
0.97	36.4561
0.964	36.4841
0.958	36.433
0.952	36.4424
0.946	36.6028
0.94	36.5969
0.934	36.5482
0.928	36.6305
0.922	36.709
0.916	36.6975
0.91	36.6266
0.904	36.8259
0.898	36.7951
0.892	36.7665
0.886	36.8083
0.88	36.7519
0.874	36.7864
0.868	36.7247
0.862	36.7834
0.856	36.5436
0.85	36.613
0.844	36.6858
0.838	36.7354
0.832	36.7705
0.826	36.761
0.82	36.8114
0.814	36.7531
0.808	36.7402
0.802	36.7212
0.796	36.6011
0.79	36.5166
0.784	36.4413
0.778	36.3998
0.772	36.3119
0.766	36.2312
0.76	36.109
0.754	36.0284
0.748	35.9215
0.742	35.8111
0.736	35.715
0.73	35.5723
0.724	35.443
0.718	35.3013
0.712	35.1485
0.706	35.0118
0.7	34.8527
0.694	34.7053
0.688	34.5325
0.682	34.3736
0.676	34.1987
0.67	34.0358
0.664	33.864
0.658	33.7048
0.652	33.5369
0.646	33.3865
0.64	33.228
0.634	33.0705
0.628	32.9187
0.622	32.7672
0.616	32.5952
0.61	32.4411
0.604	32.3209
0.598	32.1665
0.592	32.0365
0.586	31.8819
0.58	31.7278
0.574	31.5829
0.568	31.4435
0.562	31.3293
0.556	31.1416
0.55	31.013
0.544	30.8881
0.538	30.7708
0.532	30.6568
0.526	30.5431
0.52	30.4415
0.514	30.3315
0.508	30.2087
0.502	30.093
0.496	29.9445
0.49	29.807
0.484	29.6479
0.478	29.6205
0.472	29.5556
0.466	29.4625
0.46	29.3175
0.454	29.1242
0.448	28.9022
0.442	28.6807
0.436	28.5057
0.43	28.3213
0.424	28.1377
0.418	27.9557
0.412	27.7873
0.406	27.5782
0.4	27.3524
