Name: Rhyolite
Type: Rock
Class: Igneous
Subclass: Felsic
Particle Size: Solid
Sample No.: AP-960-134
Owner: United States Geological Survey, L. C. Rowan
Wavelength Range: All
Origin: Iberian Pyrite Belt, Spain
Description: Rhyolite, phyllicSample was Whole Rock Chips. Original ASTER Spectral Library name was usgs.perknic.rock.igneous.felsic.solid.rhy134.spectrum.txt
Measurement: Directional Hemispherical Reflectance
X Units: Wavelength (micrometers)
Y Units: Reflectance (percent)
wavelength	value
14.051	2.6986
13.79	3.0694
13.538	3.1209
13.295	3.09
13.06	3.8213
12.834	4.4908
12.616	3.5535
12.404	3.6153
12.2	1.9879
12.002	2.369
11.811	2.6986
11.626	2.9973
11.446	3.3784
11.272	3.5947
11.103	3.9552
10.939	4.1406
10.78	4.3466
10.625	4.7895
10.475	5.3457
10.329	6.1594
10.187	7.4263
10.049	8.6932
9.914	9.8262
9.783	9.7438
9.656	11.5257
9.532	11.9377
9.411	12.6175
9.293	14.9247
9.178	14.9453
9.065	14.2861
8.956	13.9771
8.849	14.1728
8.744	14.2243
8.642	12.8132
8.543	14.6466
8.445	15.3264
8.35	15.2543
8.257	15.0586
8.166	13.8638
8.077	8.2503
7.99	4.9234
7.905	2.987
7.821	1.9467
7.739	1.4935
7.659	1.2772
7.581	1.0506
7.504	1.0094
7.429	0.8652
7.355	0.8652
7.283	0.8549
7.212	0.8858
7.143	0.927
7.074	0.9991
7.007	0.9888
6.942	0.9888
6.877	1.03
6.814	1.0712
6.752	1.0197
6.691	1.1433
6.631	1.1021
6.572	1.1536
6.514	1.2051
6.458	1.2566
6.402	1.4008
6.347	1.339
6.293	1.236
6.24	1.2257
6.188	1.2772
6.137	1.2978
6.086	1.3905
6.037	1.5141
5.988	1.3802
5.94	1.4317
5.893	1.4523
5.846	1.6686
5.8	1.6995
5.755	1.7716
5.711	1.8231
5.667	1.7407
5.624	1.7407
5.582	1.7304
5.54	1.7819
5.499	1.8746
5.459	2.0806
5.419	2.0703
5.379	1.957
5.341	1.9261
5.302	1.957
5.265	2.1218
5.227	2.2557
5.191	2.472
5.155	2.6059
5.119	2.6574
5.084	2.6368
5.049	2.6574
5.015	2.678
4.981	2.781
4.948	3.296
4.915	3.5432
4.883	4.3878
4.851	5.2839
4.819	5.6959
4.788	5.8607
4.758	6.0461
4.727	6.592
4.697	6.695
4.668	6.8083
4.638	7.5911
4.61	8.4151
4.581	9.167
4.553	9.579
4.525	9.6923
4.498	9.2082
4.47	9.2288
4.444	9.9601
4.417	10.8562
4.391	11.9583
4.365	13.5033
4.34	14.6981
4.314	15.5324
4.289	15.9753
4.265	16.7787
4.24	17.3452
4.216	17.819
4.192	18.2619
4.169	18.9108
4.145	19.5494
4.122	20.2086
4.099	20.8678
4.077	21.3931
4.055	21.836
4.032	21.8772
4.011	22.0111
3.989	22.1141
3.968	22.5364
3.947	22.866
3.926	23.1956
3.905	23.2471
3.884	23.0926
3.864	22.866
3.844	22.8969
3.824	22.866
3.805	22.9381
3.785	22.7733
3.766	22.4231
3.747	21.9081
3.728	21.6712
3.709	21.5579
3.691	21.4446
3.673	21.5888
3.655	21.3313
3.637	21.0429
3.619	20.5073
3.601	20.0232
3.584	19.4979
3.567	18.6636
3.549	18.0353
3.533	17.4585
3.516	16.8714
3.499	16.4079
3.483	16.3564
3.466	16.1092
3.45	15.6251
3.434	15.2234
3.418	14.2655
3.403	13.9771
3.387	13.4724
3.372	13.081
3.357	12.463
3.341	12.3085
3.326	11.6905
3.312	11.3609
3.297	11.0004
3.282	10.5781
3.268	10.3515
3.253	10.1455
3.239	10.094
3.225	9.8468
3.211	9.5687
3.197	9.2906
3.183	9.1052
3.17	9.0022
3.156	8.6829
3.143	8.1988
3.13	8.1576
3.117	7.8383
3.103	7.6735
3.091	7.4366
3.078	7.4984
3.065	7.4984
3.052	7.313
3.04	7.3748
3.027	7.2615
3.015	7.1585
3.003	7.107
2.991	7.2821
2.979	7.004
2.967	7.0864
2.955	6.8186
2.943	6.4684
2.932	6.5611
2.92	6.901
2.909	7.416
2.897	7.519
2.886	7.6426
2.875	7.8589
2.864	7.8692
2.853	8.1164
2.842	8.0031
2.831	7.7868
2.82	7.1379
2.809	6.6435
2.799	6.0255
2.788	5.7268
2.778	4.9131
2.767	4.6865
2.757	4.4599
2.747	5.2942
2.737	5.7268
2.727	6.4375
2.717	7.6838
2.707	6.5302
2.697	7.6426
2.687	13.8844
2.677	19.6524
2.668	23.7518
2.658	26.6152
2.649	29.149
2.639	29.9524
2.63	30.9927
2.62	32.0227
2.611	32.4862
2.602	33.0321
2.593	33.3308
2.584	33.7634
2.575	34.1754
2.566	35.0818
2.557	35.6998
2.548	35.5659
2.54	36.5753
2.531	36.3899
2.522	36.6268
2.514	37.0079
2.505	36.9255
2.489	36.6813
2.461	35.6813
2.433	36.2813
2.405	38.8813
2.377	39.4813
2.349	38.4813
2.321	40.2813
2.293	45.5813
2.265	48.7813
2.237	44.6813
2.209	37.9813
2.181	44.9813
2.153	50.4813
2.125	53.9813
2.097	57.1813
2.069	58.7813
2.041	59.5813
2.013	58.6813
1.985	58.1813
1.957	57.2813
1.929	56.2813
1.901	56.1813
1.873	62.1813
1.845	64.2813
1.817	64.2813
1.789	64.4813
1.761	64.7813
1.733	64.9813
1.705	64.8813
1.677	65.3813
1.649	65.4813
1.621	65.5813
1.593	65.6813
1.565	65.0813
1.537	65.5813
1.509	65.4813
1.481	63.7813
1.453	63.6813
1.425	59.7813
1.397	53.9813
1.369	62.7813
1.341	63.6813
1.313	63.1813
1.285	62.7813
1.257	61.9813
1.229	61.2813
1.201	59.3813
1.173	59.0813
1.145	59.5813
1.117	58.1813
1.089	57.7813
1.061	57.9813
1.033	57.6813
1.005	57.5813
0.977	56.8813
0.949	56.6813
0.921	56.1813
0.893	55.5813
0.865	55.7813
0.837	56.0813
0.809	56.5813
0.799	56.4813
0.792	56.7813
0.785	56.8813
0.778	56.9813
0.771	57.2813
0.764	56.8813
0.757	56.8813
0.75	56.1813
0.743	56.8813
0.736	56.7813
0.729	56.4813
0.722	56.8813
0.715	55.2813
0.708	55.1813
0.701	54.7813
0.694	55.0813
0.687	54.5813
0.68	54.2813
0.673	53.9813
0.666	54.0813
0.659	53.5813
0.652	53.1813
0.645	53.3813
0.638	53.1813
0.631	52.3813
0.624	52.3813
0.617	52.3813
0.61	51.1813
0.603	51.6813
0.596	50.5813
0.589	50.6813
0.582	50.6813
0.575	50.7813
0.568	50.0813
0.561	50.6813
0.554	49.7813
0.547	48.9813
0.54	48.5813
0.533	48.0813
0.526	46.9813
0.519	46.8813
0.512	46.7813
0.505	45.1813
0.498	45.0813
0.491	44.4813
0.484	43.7813
0.477	43.3813
0.47	43.4813
0.463	42.9813
0.456	41.2813
0.449	40.9813
0.442	39.2813
0.435	39.3813
0.428	38.5813
0.421	36.7813
0.414	35.8813
0.407	34.8813
