Name: Phosphorite
Type: Rock
Class: Sedimentary
Subclass: Shale
Particle Size: Solid
Sample No.: Phop004
Owner: USGS
Wavelength Range: All
Origin: Southeastern Idaho
Description: Phosphate ore from lower part of Meade PeakMember, Phosphoria Formation, unaltered (no chemicalweathering), contains quartz, hydroxylatatite,buddingtonite, and muscovite. Sample was Whole rock chips. Original ASTER Spectral Library name was usgs.perknic.rock.sedimentary.shale.solid.phop004.spectrum.txt
Measurement: Directional Hemispherical Reflectance
X Units: Wavelength (micrometers)
Y Units: Reflectance (percent)
wavelength	value
14.051	2.3175
13.826	2.4411
13.609	2.3484
13.398	2.6471
13.193	2.678
12.995	2.7913
12.802	2.7707
12.616	2.575
12.434	2.4823
12.258	2.3587
12.086	2.9046
11.92	3.3681
11.757	3.811
11.6	3.9964
11.446	4.1921
11.297	4.4393
11.151	4.3157
11.009	4.1303
10.87	3.9861
10.735	4.2642
10.604	4.429
10.475	4.6968
10.35	4.2333
10.227	4.3569
10.108	4.4187
9.991	4.6453
9.877	4.9028
9.765	5.1397
9.656	5.6856
9.549	6.3345
9.445	6.2212
9.343	6.4581
9.243	6.4581
9.145	5.9843
9.049	5.9843
8.956	5.7371
8.864	5.9328
8.774	5.6753
8.686	5.1191
8.599	4.5835
8.515	5.2324
8.431	5.1809
8.35	5.3766
8.27	5.8092
8.192	6.2315
8.115	5.9122
8.039	4.6041
7.965	3.8831
7.893	3.193
7.821	2.6986
7.751	2.5647
7.682	2.5853
7.614	2.4926
7.548	2.369
7.483	2.4308
7.418	2.4102
7.355	2.4308
7.293	2.4617
7.232	2.3793
7.172	2.2145
7.113	1.854
7.055	1.5759
6.998	1.339
6.942	1.3905
6.886	1.5656
6.832	1.7201
6.778	2.163
6.726	2.4926
6.674	2.8325
6.623	3.2548
6.572	3.4402
6.523	3.6565
6.474	3.9346
6.426	4.0582
6.378	3.9552
6.332	3.8419
6.286	3.6771
6.24	3.4608
6.195	3.2445
6.151	3.2857
6.108	3.1415
6.065	3.3372
6.023	3.5844
5.981	3.8728
5.94	4.2848
5.899	4.8719
5.859	5.562
5.82	6.3345
5.781	6.901
5.743	7.4881
5.705	7.9104
5.667	7.8795
5.63	7.8486
5.594	7.6632
5.558	7.9001
5.523	8.3533
5.487	9.0846
5.453	9.4142
5.419	9.5584
5.385	8.7447
5.352	8.0855
5.319	8.3945
5.286	8.7859
5.254	9.7747
5.222	11.1343
5.191	11.742
5.16	12.0819
5.129	12.2261
5.099	12.3703
5.069	11.9068
5.04	11.3197
5.01	10.2485
4.981	10.4957
4.953	11.4433
4.925	12.4012
4.897	13.4621
4.869	13.8844
4.842	14.42
4.815	14.2861
4.788	14.3582
4.762	15.1204
4.736	15.8002
4.71	16.0474
4.684	16.1813
4.659	16.377
4.634	16.7581
4.61	17.407
4.585	18.3443
4.561	18.8799
4.537	19.4258
4.513	19.9305
4.49	20.2498
4.467	20.5485
4.444	21.0944
4.421	21.424
4.398	21.8051
4.376	22.2377
4.354	22.5673
4.332	22.7424
4.311	23.0308
4.289	22.8145
4.268	22.042
4.247	22.9587
4.226	23.9887
4.206	24.1226
4.185	24.1844
4.165	24.3801
4.145	24.6685
4.126	24.6376
4.106	24.72
4.086	24.823
4.067	24.823
4.048	24.6994
4.029	24.4419
4.011	23.9475
3.992	24.3698
3.974	23.9887
3.956	24.6994
3.938	25.0187
3.92	25.0187
3.902	25.1526
3.884	25.1423
3.867	25.0084
3.85	24.9157
3.833	24.5346
3.816	24.2668
3.799	24.0608
3.782	23.8239
3.766	23.587
3.75	23.1338
3.733	22.7424
3.717	22.2686
3.702	21.8051
3.686	21.4446
3.67	21.0326
3.655	20.497
3.639	19.8996
3.624	19.261
3.609	18.5194
3.594	17.8602
3.579	16.9538
3.564	16.1401
3.549	15.1307
3.535	14.42
3.521	13.8741
3.506	13.8432
3.492	13.9153
3.478	13.6166
3.464	13.6166
3.45	13.3179
3.437	13.1531
3.423	12.8544
3.409	12.5042
3.396	11.9789
3.383	11.4433
3.37	11.0004
3.357	10.5163
3.344	10.1043
3.331	9.6614
3.318	9.3215
3.305	8.7859
3.293	8.5902
3.28	8.3121
3.268	7.931
3.255	8.1576
3.243	8.0134
3.231	8.1782
3.219	7.9001
3.207	8.0649
3.195	7.6426
3.183	7.5087
3.172	7.4881
3.16	6.9731
3.149	6.7671
3.137	6.8289
3.126	6.6847
3.115	6.5199
3.103	6.4169
3.092	6.0255
3.081	5.9843
3.07	5.7268
3.06	5.8092
3.049	5.9431
3.038	5.665
3.027	5.6444
3.017	5.7783
3.006	6.0461
2.996	6.4478
2.986	6.386
2.975	7.1173
2.965	7.2306
2.955	7.1482
2.945	7.6014
2.935	7.5602
2.925	7.7765
2.915	8.0546
2.905	8.1473
2.896	8.2606
2.886	8.3636
2.876	8.755
2.867	8.6829
2.857	8.7756
2.848	8.652
2.838	8.6211
2.829	8.7447
2.82	8.3224
2.811	7.9516
2.802	7.5396
2.793	7.6529
2.784	7.7971
2.775	6.9628
2.766	6.5199
2.757	6.4169
2.748	6.798
2.74	7.9825
2.731	9.8365
2.722	12.5763
2.714	15.3676
2.705	16.2946
2.697	17.1392
2.688	24.2977
2.68	30.8382
2.672	33.6707
2.664	36.0088
2.655	37.1109
2.647	38.3263
2.639	39.5108
2.631	40.3039
2.623	40.6644
2.615	40.9425
2.607	41.5296
2.599	41.4884
2.592	42.2918
2.584	42.5081
2.576	42.4978
2.569	43.0231
2.561	43.8265
2.553	42.848
2.546	43.3527
2.538	43.4763
2.531	43.3321
2.524	44.29
2.516	44.4548
2.509	43.981
2.502	44.4548
2.48	46.1094
2.456	47.6405
2.432	49.0294
2.408	50.9661
2.384	52.1901
2.36	53.5656
2.336	56.1631
2.312	57.8125
2.288	57.7961
2.264	58.3767
2.24	57.933
2.216	56.9854
2.192	58.0391
2.168	59.0737
2.144	58.5903
2.12	57.5683
2.096	57.6347
2.072	58.0502
2.048	57.6655
2.024	56.6272
2	55.7398
1.976	54.8843
1.952	53.7218
1.928	52.9458
1.904	55.7983
1.88	64.9073
1.856	68.7172
1.832	69.4447
1.808	69.5706
1.784	69.7994
1.76	70.0796
1.736	70.5199
1.712	70.71
1.688	70.7926
1.664	70.7961
1.64	70.7225
1.616	70.6158
1.592	70.4441
1.568	69.9231
1.544	69.4676
1.52	68.9897
1.496	68.3234
1.472	67.339
1.448	66.5796
1.424	65.6731
1.4	67.9327
1.376	70.9615
1.352	71.4332
1.328	71.5876
1.304	71.5706
1.28	71.5255
1.256	71.3091
1.232	71.0698
1.208	70.7721
1.184	70.5955
1.16	70.3886
1.136	70.299
1.112	70.0785
1.088	69.8308
1.064	69.6598
1.04	69.4232
1.016	69.1263
0.992	68.7719
0.968	68.4371
0.944	68.1739
0.92	67.774
0.896	67.5861
0.872	67.0606
0.848	66.3285
0.824	65.3761
0.8	64.0857
0.776	62.2727
0.752	60.3276
0.728	58.1461
0.704	55.5904
0.68	52.9623
0.656	50.3691
0.632	47.9507
0.608	45.9402
0.584	44.445
0.56	42.9782
0.536	41.3573
0.512	39.5332
0.488	37.54
0.464	35.685
0.44	33.8403
0.416	31.9353
