Name: Basalt
Type: Rock
Class: Igneous
Subclass: Mafic
Particle Size: Solid
Sample No.: Me67
Owner: Lawrence Rowan, USGS Reston
Wavelength Range: All
Origin: J. Ghassul, Jordan
Description: Basalt, fresh surface, fragment of basalt bowl rimSample was Whole rock chips. Original ASTER Spectral Library name was usgs.perknic.rock.igneous.mafic.solid.me67.spectrum.txt
Measurement: Directional Hemispherical Reflectance
X Units: Wavelength (micrometers)
Y Units: Reflectance (percent)
wavelength	value
14.051	2.3484
13.826	2.6883
13.609	2.8737
13.398	3.0076
13.193	3.09
12.995	2.987
12.802	3.0488
12.616	3.2239
12.434	3.5123
12.258	3.914
12.086	4.429
11.92	4.6556
11.757	5.0367
11.6	5.7268
11.446	6.4478
11.297	7.0246
11.151	7.5087
11.009	7.6632
10.87	7.8692
10.735	7.8589
10.604	7.4572
10.475	7.3336
10.35	7.2409
10.227	6.8289
10.108	6.7774
9.991	7.0246
9.877	7.2306
9.765	7.1482
9.656	7.21
9.549	7.1791
9.445	7.0864
9.343	6.798
9.243	6.5302
9.145	6.5714
9.049	6.7053
8.956	6.5817
8.864	6.2315
8.774	5.8504
8.686	5.562
8.599	5.0779
8.515	4.944
8.431	4.8101
8.35	4.4496
8.27	3.7904
8.192	2.8428
8.115	2.1836
8.039	1.854
7.965	1.8025
7.893	1.7201
7.821	1.7613
7.751	1.7716
7.682	1.7922
7.614	1.8025
7.548	1.8643
7.483	1.8952
7.418	1.9982
7.355	1.9982
7.293	2.0085
7.232	2.0806
7.172	2.1218
7.113	2.1939
7.055	2.3278
6.998	2.4308
6.942	2.4411
6.886	2.472
6.832	2.4823
6.778	2.5029
6.726	2.6059
6.674	2.575
6.623	2.6574
6.572	2.7501
6.523	2.8119
6.474	2.781
6.426	2.8119
6.378	2.7398
6.332	2.5956
6.286	2.5235
6.24	2.5132
6.195	2.4514
6.151	2.4617
6.108	2.472
6.065	2.4514
6.023	2.5441
5.981	2.5647
5.94	2.6162
5.899	2.7501
5.859	2.9046
5.82	2.987
5.781	3.0385
5.743	3.0591
5.705	3.1003
5.667	3.1827
5.63	3.2651
5.594	3.2033
5.558	3.193
5.523	3.3166
5.487	3.4299
5.453	3.5329
5.419	3.5844
5.385	3.6359
5.352	3.6771
5.319	3.7286
5.286	3.8522
5.254	3.8831
5.222	3.9449
5.191	4.0479
5.16	4.1406
5.129	4.2745
5.099	4.2745
5.069	4.3878
5.04	4.4702
5.01	4.5629
4.981	4.6659
4.953	4.7174
4.925	4.8616
4.897	4.9646
4.869	4.9749
4.842	5.0985
4.815	5.1191
4.788	5.2942
4.762	5.3148
4.736	5.4693
4.71	5.4693
4.684	5.6032
4.659	5.6753
4.634	5.8916
4.61	6.0667
4.585	6.2006
4.561	6.3448
4.537	6.5096
4.513	6.6023
4.49	6.7362
4.467	6.8392
4.444	6.9731
4.421	7.0967
4.398	7.2512
4.376	7.3233
4.354	7.416
4.332	7.4366
4.311	7.6323
4.289	7.8383
4.268	7.9825
4.247	8.0134
4.226	8.1885
4.206	7.9825
4.185	8.034
4.165	8.2091
4.145	8.2297
4.126	8.3121
4.106	8.2194
4.086	8.3636
4.067	8.3327
4.048	8.2915
4.029	8.1679
4.011	8.0237
3.992	7.8177
3.974	7.7353
3.956	7.7044
3.938	8.1267
3.92	8.1576
3.902	8.3224
3.884	8.2606
3.867	8.2194
3.85	8.2503
3.833	8.4357
3.816	8.5387
3.799	8.5387
3.782	8.7035
3.766	8.7756
3.75	8.8168
3.733	8.7962
3.717	8.7653
3.702	8.7962
3.686	8.7344
3.67	8.7344
3.655	8.7035
3.639	8.6005
3.624	8.4975
3.609	8.5799
3.594	8.4254
3.579	8.446
3.564	8.3842
3.549	8.3327
3.535	8.1576
3.521	7.9928
3.506	7.6941
3.492	7.6323
3.478	7.5499
3.464	7.519
3.45	7.5293
3.437	7.4675
3.423	7.3336
3.409	7.1894
3.396	7.1791
3.383	7.1173
3.37	7.0452
3.357	7.1482
3.344	7.1379
3.331	7.0555
3.318	7.1173
3.305	6.8907
3.293	7.004
3.28	6.8083
3.268	6.8701
3.255	6.7259
3.243	6.7362
3.231	6.4993
3.219	6.5714
3.207	6.4787
3.195	6.5199
3.183	6.3139
3.172	6.2109
3.16	6.2109
3.149	6.1079
3.137	5.8298
3.126	5.8401
3.115	5.9637
3.103	5.8504
3.092	5.8092
3.081	5.6959
3.07	5.7783
3.06	5.5105
3.049	5.459
3.038	5.4178
3.027	5.5826
3.017	5.5517
3.006	5.562
2.996	5.3869
2.986	5.6032
2.975	5.2221
2.965	5.3045
2.955	5.5105
2.945	5.2942
2.935	5.0985
2.925	5.2633
2.915	5.3972
2.905	5.4075
2.896	5.4281
2.886	5.3869
2.876	5.1191
2.867	5.3972
2.857	5.0367
2.848	5.5929
2.838	5.4693
2.829	5.4487
2.82	5.6341
2.811	5.4281
2.802	5.459
2.793	5.7165
2.784	5.7371
2.775	5.5002
2.766	5.5002
2.757	5.4384
2.748	5.6753
2.74	6.3448
2.731	6.0976
2.722	6.8186
2.714	7.004
2.705	6.7568
2.697	7.9001
2.688	8.9713
2.68	9.7747
2.672	10.2382
2.664	10.5369
2.655	10.2485
2.647	10.3927
2.639	10.6502
2.631	10.5369
2.623	10.712
2.615	10.6914
2.607	10.8253
2.599	10.8665
2.592	10.7223
2.584	10.4545
2.576	10.6605
2.569	10.2588
2.561	10.4854
2.553	10.6502
2.546	10.4854
2.538	10.2279
2.531	10.5884
2.524	10.8253
2.516	10.712
2.509	10.815
2.502	10.9283
2.48	10.3773
2.456	10.8406
2.432	10.7722
2.408	10.4491
2.384	10.6385
2.36	10.8226
2.336	10.7372
2.312	10.8043
2.288	10.8654
2.264	11.0043
2.24	10.9397
2.216	10.9688
2.192	11.2637
2.168	11.5077
2.144	11.6942
2.12	11.581
2.096	11.5359
2.072	11.6382
2.048	11.7579
2.024	11.8494
2	11.7475
1.976	11.6541
1.952	11.404
1.928	11.6467
1.904	11.788
1.88	12.0073
1.856	12.247
1.832	12.3829
1.808	12.3425
1.784	12.3896
1.76	12.3397
1.736	12.317
1.712	12.3167
1.688	12.1531
1.664	11.7793
1.64	11.4751
1.616	11.2622
1.592	11.0947
1.568	10.9124
1.544	10.6434
1.52	10.4788
1.496	10.2776
1.472	10.0891
1.448	9.8362
1.424	9.6313
1.4	9.4179
1.376	9.3027
1.352	9.0708
1.328	8.9265
1.304	8.7525
1.28	8.6084
1.256	8.5377
1.232	8.4345
1.208	8.3693
1.184	8.2994
1.16	8.2817
1.136	8.2315
1.112	8.1263
1.088	8.0424
1.064	8.0054
1.04	8.1225
1.016	8.2789
0.992	8.5197
0.968	8.8894
0.944	9.4019
0.92	10.1608
0.896	10.39
0.872	10.3823
0.848	9.5037
0.824	9.5183
0.8	9.4675
0.776	9.5117
0.752	9.5008
0.728	9.4493
0.704	9.3579
0.68	9.2279
0.656	9.0874
0.632	8.9527
0.608	8.8516
0.584	8.7081
0.56	8.4793
0.536	8.2041
0.512	7.9733
0.488	7.6819
0.464	7.5369
0.44	7.2023
0.416	6.8252
