Name: Hornblende Schist
Type: rock
Class: Metamorphic
Subclass: Schist
Particle Size: Coarse
Sample No.: schist9
Owner: JHU
Wavelength Range: All
Origin: Sample No. 393, The Hunt and Salisbury Collection at the U.S.Geological Survey, Denver, Co.
Description: This low grade schist is a very coarse-grained rock composed of bands of acicular hornblende and feldspar.  Microscopically there are large hornblende subhedra associated with serpophite and chlorite.  In addition to the alkali feldspar anhedra there are small muscovite subhedra, and scattered magnetite.  Calcite crystals and grains occur throughout the sample, often associated with the hornblende or serpophite/chlorite.  Particle size was 500-1500 Micrometer. Original ASTER Spectral Library name was jhu.becknic.rock.metamorphic.schist.coarse.schist9.spectrum.txt
Measurement: Directional (10 Degree) Hemispherical Reflectance
X Units: Wavelength (micrometers)
Y Units: Reflectance (percent)
wavelength	value
14.812	2.647
14.481	2.525
14.164	2.52
13.861	2.563
13.571	2.732
13.293	3.012
13.025	2.935
12.769	3.055
12.522	3.046
12.285	2.818
12.056	3.171
11.836	3.6
11.624	4.144
11.419	4.738
11.221	5.346
11.03	5.452
10.845	5.917
10.667	7.048
10.494	8.36
10.327	9.617
10.165	10.971
10.008	12.102
9.856	11.952
9.708	11.593
9.565	11.403
9.426	11.323
9.291	10.321
9.159	8.629
9.032	7.351
8.908	6.783
8.787	6.527
8.669	6.237
8.555	5.747
8.443	5.35
8.335	5.171
8.229	4.567
8.126	3.546
8.025	2.697
7.927	2.281
7.831	2.025
7.737	2.034
7.646	2.059
7.557	2.098
7.47	2.206
7.385	2.313
7.302	2.418
7.22	2.549
7.141	2.809
7.063	3.234
6.987	3.325
6.912	3.425
6.839	3.509
6.768	3.647
6.698	3.767
6.629	3.916
6.562	3.966
6.496	3.953
6.432	3.799
6.369	3.326
6.307	2.979
6.246	2.838
6.186	2.761
6.128	2.861
6.07	2.884
6.014	2.952
5.959	2.939
5.904	3
5.851	3.113
5.799	3.218
5.747	3.289
5.697	3.352
5.647	3.358
5.598	3.404
5.551	3.458
5.503	3.692
5.457	3.906
5.411	4.016
5.367	4.05
5.322	4.106
5.279	4.289
5.237	4.529
5.194	4.761
5.153	4.912
5.113	5.072
5.073	5.182
5.033	5.331
4.994	5.477
4.956	5.751
4.919	6.037
4.881	6.598
4.845	7.127
4.809	7.648
4.774	8.154
4.739	8.736
4.704	9.169
4.67	9.537
4.637	10.234
4.604	10.951
4.572	11.72
4.54	12.403
4.508	12.743
4.477	13.016
4.446	13.486
4.416	14.216
4.386	15.159
4.356	15.956
4.327	16.49
4.299	16.881
4.27	17.258
4.242	17.629
4.215	17.947
4.188	18.191
4.161	18.424
4.134	18.559
4.108	18.617
4.082	18.546
4.056	18.15
4.031	17.145
4.006	16.108
3.982	15.098
3.957	15.505
3.933	16.527
3.91	16.918
3.886	17.083
3.863	17.294
3.84	17.415
3.817	17.725
3.795	18.341
3.773	18.931
3.751	19.212
3.73	19.182
3.708	19.195
3.687	19.192
3.666	19.129
3.646	19.01
3.625	18.82
3.605	18.571
3.585	18.165
3.565	17.59
3.546	17.048
3.527	16.194
3.507	15.254
3.489	14.671
3.47	14.337
3.451	14.453
3.433	14.414
3.415	14.206
3.397	14.044
3.38	13.787
3.362	13.518
3.345	13.35
3.327	13.643
3.31	13.592
3.294	13.579
3.277	13.332
3.26	13.03
3.244	12.671
3.228	12.253
3.212	11.779
3.196	11.31
3.18	10.847
3.165	10.358
3.15	9.839
3.134	9.322
3.119	8.863
3.104	8.37
3.09	7.914
3.075	7.545
3.06	7.183
3.046	6.822
3.032	6.443
3.018	6.198
3.004	5.965
2.99	5.749
2.976	5.561
2.962	5.417
2.949	5.329
2.936	5.292
2.922	5.286
2.909	5.358
2.896	5.454
2.883	5.609
2.87	5.739
2.858	5.802
2.845	5.797
2.833	5.738
2.821	5.658
2.808	5.624
2.796	5.61
2.784	5.451
2.772	5.238
2.76	4.82
2.749	4.92
2.737	5.574
2.726	6.569
2.714	8.791
2.703	11.859
2.692	15.283
2.68	18.392
2.67	18.972
2.659	19.672
2.648	20.321
2.637	20.598
2.626	20.619
2.616	20.84
2.605	21.093
2.595	21.398
2.584	21.619
2.574	21.601
2.564	21.502
2.554	21.495
2.544	21.476
2.534	21.433
2.524	21.5
2.514	21.595
2.504	21.674
2.495	21.768
2.485	21.974
2.476	22.214
2.466	22.421
2.457	22.458
2.448	22.453
2.438	22.238
2.429	22.093
2.42	22.056
2.411	21.846
2.402	21.689
2.393	21.575
2.385	21.249
2.376	20.561
2.367	19.395
2.359	18.121
2.35	17.283
2.341	17.218
2.332	17.921
2.324	18.571
2.315	19.105
2.307	20.064
2.299	21.123
2.291	22.607
2.283	23.958
2.275	24.218
2.267	23.513
2.259	22.76
2.251	23.325
2.243	25.244
2.235	27.114
2.227	27.871
2.219	28.003
2.211	27.176
2.203	26.46
2.195	26.717
2.187	27.481
2.179	28.625
2.171	29.789
2.163	30.464
2.155	30.879
2.147	31.114
2.139	31.277
2.131	31.412
2.123	31.58
2.115	31.739
2.107	31.944
2.099	32.169
2.091	32.299
2.083	32.324
2.064	32.62
2.032	31.645
2	30.786
1.968	30.944
1.936	31.32
1.904	31.331
1.872	31.245
1.84	31.407
1.808	31.001
1.776	30.532
1.744	29.851
1.712	29.271
1.68	28.359
1.648	27.23
1.616	26.143
1.584	24.952
1.552	23.889
1.52	23
1.488	22.08
1.456	21.116
1.424	19.873
1.392	17.515
1.36	17.997
1.328	16.928
1.296	16.023
1.264	15.139
1.232	14.416
1.2	13.951
1.168	13.289
1.136	12.806
1.104	12.474
1.072	12.388
1.04	12.406
1.008	12.301
0.976	12.219
0.944	12.189
0.912	12.073
0.88	12.126
0.848	12.333
0.816	12.64
0.796	13.107
0.788	12.768
0.78	12.766
0.772	12.827
0.764	12.67
0.756	12.597
0.748	12.661
0.74	12.597
0.732	12.507
0.724	12.585
0.716	12.533
0.708	12.545
0.7	12.558
0.692	12.417
0.684	12.426
0.676	12.473
0.668	12.515
0.66	12.594
0.652	12.75
0.644	12.776
0.636	12.945
0.628	12.992
0.62	13.005
0.612	13.256
0.604	13.202
0.596	13.324
0.588	13.366
0.58	13.437
0.572	13.658
0.564	13.744
0.556	13.612
0.548	13.596
0.54	13.644
0.532	13.614
0.524	13.535
0.516	13.589
0.508	13.543
0.5	13.268
0.492	13.199
0.484	13.045
0.476	12.923
0.468	12.795
0.46	12.423
0.452	12.32
0.444	12.081
0.436	12.019
0.428	11.745
0.42	11.448
0.412	11.152
0.404	11.068
