Name: Micaceous Sandstone (Brownstone)
Type: Rock
Class: Sedimentary
Subclass: Sandstone
Particle Size: Solid
Sample No.: Ward60
Owner: JPL
Wavelength Range: All
Origin: Ward's Collection of American Rocks.  Sample locality - Portland, Middlesex County, Connecticut.
Description: A dark reddish-brown sandstone composed of grains of quartzfeldspar and muscovite with a ferruginous cement.Geologic age - Upper Triassic.Collected by:  Ward's Natural Science Original ASTER Spectral Library name was jpl.nicolet.rock.sedimentary.sandstone.solid.ward60.spectrum.txt
Measurement: Hemispherical reflectance
X Units: Wavelength (micrometers)
Y Units: Reflectance (percent)
wavelength	value
15.3871	3.886
15.118	3.8721
14.8581	3.2982
14.6069	3.7353
14.3642	3.7016
14.1293	3.6184
13.9021	3.7735
13.682	3.7348
13.4687	4.2071
13.2621	4.2851
13.0616	4.691
12.8672	5.882
12.6784	4.5984
12.4951	4.7235
12.317	2.6594
12.1439	2.9415
11.9757	3.4073
11.812	3.8334
11.6527	4.0758
11.4977	4.4002
11.3468	4.5313
11.1997	4.8898
11.0564	5.1763
10.9168	5.7287
10.7806	6.3101
10.6478	7.1661
10.5182	8.1201
10.3917	9.201
10.2683	10.654
10.1477	12.2779
10.0299	13.893
9.9148	15.2303
9.8024	15.6228
9.6925	17.3076
9.585	18.3539
9.4798	17.5266
9.377	19.4294
9.2763	20.9176
9.1778	20.9948
9.0814	20.2267
8.987	19.98
8.8945	20.2569
8.8039	20.2381
8.7151	19.8856
8.6281	16.6482
8.5428	21.2687
8.4592	22.6092
8.3772	23.3553
8.2967	23.0484
8.2179	21.6622
8.1404	17.6624
8.0645	12.0079
7.9899	8.0629
7.9167	5.3763
7.8449	3.9031
7.7743	3.189
7.705	2.7528
7.6369	2.3059
7.57	1.806
7.5043	1.7831
7.4397	1.9023
7.3762	1.8583
7.3138	1.7937
7.2524	1.8301
7.1921	1.8988
7.1327	1.9852
7.0743	2.013
7.0169	1.9824
6.9604	2.0918
6.9047	2.1636
6.85	2.1163
6.7962	2.0454
6.7431	2.2695
6.6909	2.2848
6.6395	2.4518
6.5889	2.5712
6.539	2.5675
6.49	2.5773
6.4416	2.6904
6.3939	2.4411
6.347	2.3803
6.3007	2.4012
6.2551	2.3071
6.2101	2.3161
6.1658	2.2401
6.1222	2.2454
6.0791	2.226
6.0366	2.3322
5.9948	2.3064
5.9535	2.3519
5.9127	2.4646
5.8726	2.2948
5.8329	2.5388
5.7938	2.6134
5.7552	2.685
5.7172	2.7654
5.6796	2.7955
5.6425	2.7134
5.6059	2.8314
5.5698	2.7713
5.5341	2.7387
5.4989	2.9843
5.4641	3.0979
5.4298	3.1282
5.3959	3.1279
5.3624	3.2126
5.3294	3.239
5.2967	3.3767
5.2644	3.456
5.2326	3.5119
5.2011	3.654
5.17	3.8236
5.1392	3.8525
5.1088	3.967
5.0788	3.925
5.0491	4.1815
5.0198	3.9964
4.9908	4.2199
4.9622	4.2322
4.9338	4.5696
4.9058	4.6251
4.8781	5.076
4.8508	5.7048
4.8237	6.0946
4.7969	6.4432
4.7704	6.6195
4.7443	6.8449
4.7184	7.0203
4.6927	6.8574
4.6674	7.1185
4.6423	7.8151
4.6175	8.4629
4.593	8.9466
4.5687	9.282
4.5447	9.1205
4.5209	8.6464
4.4974	8.2134
4.4741	8.2071
4.451	8.5696
4.4282	8.9634
4.4057	9.6432
4.3833	10.2158
4.3612	11.1211
4.3393	11.8001
4.3176	12.1322
4.2962	12.2401
4.2749	12.457
4.2539	13.0591
4.233	13.0399
4.2124	13.4435
4.192	13.4772
4.1717	14.0025
4.1517	14.2796
4.1319	14.4738
4.1122	14.6726
4.0927	15.1171
4.0734	15.3371
4.0543	15.4274
4.0354	15.4061
4.0166	15.1065
3.9981	15.3222
3.9796	15.4115
3.9614	15.6695
3.9433	15.8855
3.9254	16.1134
3.9077	16.0506
3.8901	16.0513
3.8726	15.94
3.8554	16.0478
3.8382	16.078
3.8213	16.4528
3.8045	16.1779
3.7878	16.4543
3.7713	16.2101
3.7549	16.2516
3.7386	16.0784
3.7225	16.1775
3.7066	16.3808
3.6907	16.5342
3.675	16.5774
3.6595	16.5962
3.644	16.427
3.6287	16.5398
3.6136	16.307
3.5985	15.896
3.5836	16.1886
3.5688	15.8166
3.5541	15.5676
3.5396	15.5989
3.5251	15.3052
3.5108	14.7508
3.4966	14.584
3.4825	14.6002
3.4685	14.6255
3.4547	14.3173
3.4409	14.0919
3.4273	13.759
3.4137	13.376
3.4003	13.0141
3.387	12.9901
3.3738	12.7881
3.3606	12.5914
3.3476	12.4777
3.3347	12.294
3.3219	12.1025
3.3092	11.6828
3.2965	11.7229
3.284	11.0418
3.2716	11.4552
3.2593	11.1115
3.247	10.7455
3.2348	10.25
3.2228	10.2519
3.2108	9.9102
3.1989	9.3978
3.1871	9.3938
3.1754	9.2592
3.1638	8.9125
3.1523	8.4609
3.1408	8.4032
3.1294	7.9871
3.1181	7.8184
3.1069	7.3854
3.0958	6.951
3.0848	7.603
3.0738	6.911
3.0629	7.0137
3.0521	6.5783
3.0413	6.714
3.0307	6.0437
3.0201	6.7585
3.0096	5.8293
2.9991	5.9648
2.9887	5.9589
2.9784	5.5579
2.9682	5.9852
2.9581	6.101
2.948	6.0032
2.9379	5.6434
2.928	5.0714
2.9181	5.4142
2.9083	4.9828
2.8985	6.3234
2.8888	5.5488
2.8792	5.5508
2.8697	5.5303
2.8602	5.868
2.8507	6.1348
2.8413	5.6105
2.832	5.6988
2.8228	5.7886
2.8136	5.9254
2.8045	5.4759
2.7954	5.5883
2.7864	5.7498
2.7774	5.9941
2.7685	5.0495
2.7597	5.622
2.7509	6.4242
2.7422	7.1084
2.7335	7.4593
2.7249	9.0109
2.7163	10.052
2.7078	13.2839
2.6994	15.4366
2.691	16.8118
2.6826	17.889
2.6743	18.814
2.666	19.0491
2.6578	18.8944
2.6497	19.5379
2.6416	19.2612
2.6336	19.6474
2.6256	19.6413
2.6176	19.0261
2.6097	19.7469
2.6018	18.9532
2.594	19.4954
2.5863	19.3313
2.5785	19.3169
2.5709	19.5623
2.5633	19.9484
2.5557	19.7377
2.5481	19.4523
2.5406	19.0543
2.5332	19.7959
2.5258	19.7642
2.5184	19.5074
2.5111	19.5252
2.5038	19.5599
2.4966	19.9893
2.4894	19.4369
2.4823	19.8099
2.4752	19.2344
2.4681	19.6585
2.4611	19.9238
2.4541	19.8093
2.4471	20.0885
2.4402	19.4581
2.4333	19.9812
2.4265	19.2638
2.4197	19.5112
2.413	19.1728
2.4063	20.1966
2.3996	20.524
2.3929	20.116
2.3863	19.4805
2.3798	20.2088
2.3732	20.0978
2.3667	20.4898
2.3603	19.9677
2.3538	19.1323
2.3474	19.3916
2.3411	19.696
2.3347	19.4405
2.3285	19.9434
2.3222	19.8659
2.316	19.5794
2.3098	19.6063
2.3036	20.2516
2.2975	19.6567
2.2914	19.9518
2.2854	20.1033
2.2793	19.9518
2.2733	19.9533
2.2674	20.3323
2.2614	20.4822
2.2555	19.8944
2.2497	20.2655
2.2438	19.8776
2.238	20.5307
2.2322	20.2393
2.2265	20.5417
2.2208	20.8032
2.2151	20.0103
2.2094	20.0376
2.2038	19.7793
2.1982	19.3463
2.1926	19.5032
2.187	19.1734
2.1815	19.8867
2.176	20.9455
2.1706	20.7357
2.1651	19.9791
2.1597	19.6787
2.1543	20.8037
2.149	20.2413
2.1436	20.254
2.1383	20.2674
2.1331	20.9504
2.1278	20.6705
2.1226	20.5441
2.1174	20.4307
2.1122	20.1587
2.1071	20.5934
2.1019	19.607
2.0968	19.9866
2.0918	20.4116
2.0867	21.2364
2.0817	20.039
2.0767	21.6053
2.0717	19.5918
2.0667	21.5354
2.0618	20.9527
2.0569	19.7619
2.052	20.326
2.0472	22.456
2.0423	19.5801
2.0375	21.7886
2.0327	18.5426
2.028	20.6883
2.0232	20.1376
2.0185	19.2932
2.0138	18.9697
2.0091	19.5973
2.0044	21.4672
1.9998	19.1513
