Name: Diabase
Type: Rock
Class: Igneous
Subclass: Mafic
Particle Size: Solid
Sample No.: Ward37
Owner: JPL
Wavelength Range: VSWIR
Origin: Ward's Collection of American Rocks.  Sample locality - Somerville, Suffolk County, Massachusetts.
Description: Coarse grained, greenish-gray rock showing diabase texture.Composed of labradorite, biotite and pyroxene.Geologic Age - Triassic.Collected by:  Ward's Natural Science Original ASTER Spectral Library name was jpl.perkin.rock.igneous.mafic.solid.ward37.spectrum.txt
Measurement: Hemispherical reflectance
X Units: Wavelength (micrometers)
Y Units: Reflectance (percent)
wavelength	value
2.5	15.2325
2.494	14.943
2.488	14.972
2.482	14.9226
2.476	15.1494
2.47	15.224
2.464	15.4507
2.458	15.323
2.452	15.4783
2.446	15.5268
2.44	15.6107
2.434	15.7435
2.428	15.7223
2.422	15.7202
2.416	15.713
2.41	15.7705
2.404	15.7927
2.398	15.7201
2.392	15.7292
2.386	15.6944
2.38	15.6726
2.374	15.5554
2.368	15.4258
2.362	15.1614
2.356	15.024
2.35	14.9528
2.344	14.9453
2.338	15.1117
2.332	15.2784
2.326	15.6279
2.32	16.1232
2.314	16.6794
2.308	17.1343
2.302	17.4636
2.296	17.7322
2.29	17.8471
2.284	18.0835
2.278	18.3366
2.272	18.4711
2.266	18.5941
2.26	18.6751
2.254	18.7055
2.248	18.8757
2.242	19.005
2.236	19.2328
2.23	19.4275
2.224	19.5844
2.218	19.5209
2.212	19.5188
2.206	19.5366
2.2	19.5846
2.194	19.8308
2.188	20.3109
2.182	20.7633
2.176	21.2968
2.17	21.6522
2.164	22.0003
2.158	22.2451
2.152	22.4084
2.146	22.5982
2.14	22.7278
2.134	22.7477
2.128	22.7864
2.122	22.8269
2.116	22.9045
2.11	22.9358
2.104	22.9654
2.098	23.0252
2.092	23.113
2.086	23.1802
2.08	23.2423
2.074	23.2564
2.068	23.324
2.062	23.3283
2.056	23.2624
2.05	23.2616
2.044	23.2705
2.038	23.2154
2.032	23.1471
2.026	23.1387
2.02	23.0782
2.014	23.0067
2.008	22.9498
2.002	22.965
1.996	22.8382
1.99	22.7961
1.984	22.8199
1.978	22.7092
1.972	22.6705
1.966	22.6516
1.96	22.6034
1.954	22.4774
1.948	22.4977
1.942	22.3835
1.936	22.3825
1.93	22.3774
1.924	22.4225
1.918	22.4101
1.912	22.5016
1.906	22.7695
1.9	23.238
1.894	23.6095
1.888	24.0545
1.882	24.254
1.876	24.3371
1.87	24.6007
1.864	24.7394
1.858	24.7014
1.852	24.8034
1.846	24.7997
1.84	24.7646
1.834	24.8232
1.828	24.832
1.822	24.8484
1.816	24.7775
1.81	24.8081
1.804	24.7804
1.798	24.8044
1.792	24.7406
1.786	24.6858
1.78	24.7359
1.774	24.7219
1.768	24.7025
1.762	24.6225
1.756	24.6474
1.75	24.5724
1.744	24.5748
1.738	24.5346
1.732	24.4902
1.726	24.4961
1.72	24.3713
1.714	24.4137
1.708	24.3337
1.702	24.2872
1.696	24.2184
1.69	24.1858
1.684	24.1659
1.678	24.0468
1.672	24.0182
1.666	23.938
1.66	23.8023
1.654	23.7575
1.648	23.7205
1.642	23.8125
1.636	23.692
1.63	23.5588
1.624	23.4586
1.618	23.4693
1.612	23.397
1.606	23.2718
1.6	23.2992
1.594	23.0674
1.588	23.0726
1.582	22.998
1.576	22.9355
1.57	22.8803
1.564	22.7761
1.558	22.718
1.552	22.6198
1.546	22.5875
1.54	22.43
1.534	22.3961
1.528	22.2596
1.522	22.1672
1.516	22.1352
1.51	22.068
1.504	21.9564
1.498	21.9067
1.492	21.6964
1.486	21.3192
1.48	20.944
1.474	20.9496
1.468	21.253
1.462	21.2764
1.456	21.1937
1.45	20.997
1.444	20.9317
1.438	20.8479
1.432	20.7432
1.426	20.4673
1.42	19.902
1.414	19.1021
1.408	19.1234
1.402	19.4312
1.396	20.0725
1.39	20.4899
1.384	20.58
1.378	20.625
1.372	20.5182
1.366	20.5219
1.36	20.3839
1.354	20.3548
1.348	20.2873
1.342	20.1824
1.336	20.0123
1.33	19.9605
1.324	19.8392
1.318	19.7109
1.312	19.6395
1.306	19.6017
1.3	19.4307
1.294	19.3844
1.288	19.2811
1.282	19.2096
1.276	19.1612
1.27	19.0824
1.264	19.0328
1.258	18.9272
1.252	18.8097
1.246	18.7075
1.24	18.6579
1.234	18.6167
1.228	18.5422
1.222	18.4772
1.216	18.3813
1.21	18.2889
1.204	18.2699
1.198	18.1761
1.192	18.1408
1.186	18.0562
1.18	17.9674
1.174	17.9649
1.168	17.8689
1.162	17.8115
1.156	17.8008
1.15	17.7335
1.144	17.6129
1.138	17.5778
1.132	17.6166
1.126	17.6381
1.12	17.5225
1.114	17.4275
1.108	17.4994
1.102	17.4531
1.096	17.3456
1.09	17.3219
1.084	17.3593
1.078	17.2733
1.072	17.2307
1.066	17.2169
1.06	17.2344
1.054	17.1988
1.048	17.2258
1.042	17.268
1.036	17.2036
1.03	17.2462
1.024	17.3367
1.018	17.3341
1.012	17.329
1.006	17.3173
1	17.368
0.994	17.3484
0.988	17.3542
0.982	17.3594
0.976	17.458
0.97	17.4113
0.964	17.4295
0.958	17.4411
0.952	17.4694
0.946	17.4866
0.94	17.5324
0.934	17.5343
0.928	17.6163
0.922	17.6187
0.916	17.6684
0.91	17.6551
0.904	17.6652
0.898	17.6999
0.892	17.6468
0.886	17.6202
0.88	17.5937
0.874	17.491
0.868	17.4964
0.862	17.3565
0.856	16.7045
0.85	16.8366
0.844	16.9254
0.838	16.9931
0.832	17.0734
0.826	17.1213
0.82	17.152
0.814	17.1961
0.808	17.2278
0.802	17.239
0.796	17.221
0.79	17.2126
0.784	17.1979
0.778	17.2015
0.772	17.1724
0.766	17.1423
0.76	17.1377
0.754	17.1087
0.748	17.0967
0.742	17.1036
0.736	17.0972
0.73	17.0956
0.724	17.1023
0.718	17.1109
0.712	17.1346
0.706	17.1531
0.7	17.1829
0.694	17.2136
0.688	17.2539
0.682	17.2903
0.676	17.3246
0.67	17.3672
0.664	17.4067
0.658	17.4404
0.652	17.4891
0.646	17.5299
0.64	17.5626
0.634	17.6053
0.628	17.6353
0.622	17.6497
0.616	17.6582
0.61	17.6811
0.604	17.6967
0.598	17.705
0.592	17.7007
0.586	17.6629
0.58	17.607
0.574	17.5216
0.568	17.4367
0.562	17.3082
0.556	17.1427
0.55	16.9782
0.544	16.8216
0.538	16.6599
0.532	16.4937
0.526	16.327
0.52	16.1575
0.514	15.9612
0.508	15.7478
0.502	15.5515
0.496	15.3195
0.49	15.1089
0.484	14.92
0.478	14.7141
0.472	14.5124
0.466	14.3391
0.46	14.1751
0.454	13.9939
0.448	13.7969
0.442	13.5748
0.436	13.3318
0.43	13.0646
0.424	12.8028
0.418	12.5691
0.412	12.3584
0.406	12.1455
0.4	11.9518
