Name: Garnetiferous Mica Schist
Type: Rock
Class: Metamorphic
Subclass: Schist
Particle Size: Solid
Sample No.: Ward84
Owner: JPL
Wavelength Range: All
Origin: Gassets, Windsor County, Vermont.
Description: The hand specimen is a porphyroblastic, schistose rockcomposed of scaly, silvery mica, quartz and garnet with biotite andsome staurolite and occasional kyanite. Geologic age - Upper Cambrian(?)Ward's Collection of American Rocks.  Measurement: Hemispherical reflectanceCollected by:  Ward's Natural Science Original ASTER Spectral Library name was jpl.perkin.rock.metamorphic.schist.solid.ward84.spectrum.txt
Measurement: Hemispherical reflectance
X Units: Wavelength (micrometers)
Y Units: Reflectance (percent)
wavelength	value
2.499	20.9498
2.493	20.9159
2.487	20.9754
2.481	20.7373
2.475	20.5172
2.469	20.4115
2.463	20.1231
2.457	19.8413
2.451	19.5684
2.445	19.5104
2.439	19.3299
2.433	19.3583
2.427	19.4409
2.421	19.7164
2.415	19.9847
2.409	20.2037
2.403	20.4697
2.397	20.6286
2.391	20.7214
2.385	20.7794
2.379	20.8068
2.373	20.8132
2.367	20.7592
2.361	20.7947
2.355	20.706
2.349	20.6329
2.343	20.6157
2.337	20.8685
2.331	21.2451
2.325	21.8773
2.319	22.5391
2.313	23.2343
2.307	23.9317
2.301	24.6402
2.295	25.276
2.289	25.6489
2.283	25.9374
2.277	25.9708
2.271	25.9364
2.265	25.6521
2.259	25.2427
2.253	24.8152
2.247	24.2295
2.241	23.737
2.235	23.292
2.229	22.7021
2.223	21.8935
2.217	20.8074
2.211	19.5199
2.205	18.8997
2.199	18.5237
2.193	18.7946
2.187	19.8329
2.181	21.436
2.175	23.1604
2.169	24.7869
2.163	26.0881
2.157	27.1237
2.151	27.7124
2.145	28.0495
2.139	28.2908
2.133	28.3712
2.127	28.2835
2.121	28.227
2.115	28.2092
2.109	28.3079
2.103	28.5409
2.097	28.8368
2.091	29.1918
2.085	29.4649
2.079	29.6372
2.073	29.7427
2.067	29.8155
2.061	29.8204
2.055	29.847
2.049	29.819
2.043	29.9173
2.037	29.9216
2.031	29.9062
2.025	29.9222
2.019	29.9142
2.013	30.0075
2.007	30.0408
2.001	29.9869
1.995	29.9284
1.989	30.0124
1.983	30.0881
1.977	30.0372
1.971	30.1945
1.965	30.2541
1.959	30.321
1.953	30.5003
1.947	30.6457
1.941	30.7628
1.935	30.8714
1.929	30.9508
1.923	30.9935
1.917	30.8966
1.911	30.737
1.905	30.7226
1.899	30.5055
1.893	30.4604
1.887	30.3506
1.881	30.2628
1.875	30.4035
1.869	30.35
1.863	30.1699
1.857	30.0587
1.851	29.9679
1.845	29.8809
1.839	29.8806
1.833	29.8185
1.827	29.8178
1.821	29.806
1.815	29.8649
1.809	29.8244
1.803	29.788
1.797	29.7893
1.791	29.8014
1.785	29.79
1.779	29.7959
1.773	29.7499
1.767	29.7666
1.761	29.7479
1.755	29.7174
1.749	29.6944
1.743	29.7513
1.737	29.7087
1.731	29.737
1.725	29.7321
1.719	29.6839
1.713	29.6793
1.707	29.592
1.701	29.5378
1.695	29.4533
1.689	29.4209
1.683	29.3139
1.677	29.3308
1.671	29.2359
1.665	29.1388
1.659	29.1524
1.653	29.0907
1.647	29.0891
1.641	28.859
1.635	28.9165
1.629	28.8963
1.623	28.9265
1.617	28.9148
1.611	28.8658
1.605	28.7777
1.599	28.7852
1.593	28.7518
1.587	28.76
1.581	28.7674
1.575	28.7166
1.569	28.6868
1.563	28.6117
1.557	28.5591
1.551	28.5966
1.545	28.5131
1.539	28.4379
1.533	28.3913
1.527	28.3992
1.521	28.312
1.515	28.2284
1.509	28.1752
1.503	28.2205
1.497	28.155
1.491	28.0803
1.485	28.0587
1.479	28.0051
1.473	27.894
1.467	27.876
1.461	27.8223
1.455	27.6604
1.449	27.5658
1.443	27.4214
1.437	27.0137
1.431	26.1183
1.425	24.6138
1.419	22.3881
1.413	20.8071
1.407	21.2029
1.401	22.1448
1.395	24.2462
1.389	26.1055
1.383	26.6475
1.377	26.7542
1.371	26.8384
1.365	26.8587
1.359	26.8921
1.353	26.8626
1.347	26.8054
1.341	26.6807
1.335	26.6296
1.329	26.5459
1.323	26.5339
1.317	26.4982
1.311	26.4434
1.305	26.322
1.299	26.3265
1.293	26.2778
1.287	26.2378
1.281	26.2139
1.275	26.1958
1.269	26.1854
1.263	26.1136
1.257	25.9819
1.251	25.9174
1.245	25.8664
1.239	25.8273
1.233	25.7875
1.227	25.7524
1.221	25.6789
1.215	25.6339
1.209	25.5749
1.203	25.5303
1.197	25.4845
1.191	25.4557
1.185	25.3326
1.179	25.2993
1.173	25.3033
1.167	25.2339
1.161	25.2211
1.155	25.2243
1.149	25.1447
1.143	25.0997
1.137	25.0819
1.131	25.0188
1.125	24.9749
1.119	24.9834
1.113	25.0458
1.107	25.0175
1.101	25.002
1.095	24.9656
1.089	24.9467
1.083	25.0112
1.077	24.9779
1.071	25.0758
1.065	25.1223
1.059	25.0963
1.053	25.1536
1.047	25.1435
1.041	25.1436
1.035	25.1091
1.029	25.1436
1.023	25.1456
1.017	25.2211
1.011	25.2373
1.005	25.1495
0.999	25.1527
0.993	25.2279
0.987	25.0825
0.981	25.1076
0.975	25.082
0.969	24.9464
0.963	24.811
0.957	24.8906
0.951	24.9195
0.945	25.0175
0.939	24.9368
0.933	24.8845
0.927	24.9215
0.921	24.9012
0.915	24.9463
0.909	24.9967
0.903	25.0528
0.897	25.167
0.891	25.227
0.885	25.3398
0.879	25.5295
0.873	25.6983
0.867	25.8744
0.861	25.9793
0.855	25.85
0.849	25.9721
0.843	26.0703
0.837	26.1245
0.831	26.1799
0.825	26.1859
0.819	26.1833
0.813	26.1799
0.807	26.1802
0.801	26.1521
0.795	26.0903
0.789	26.0158
0.783	25.9443
0.777	25.8464
0.771	25.7338
0.765	25.622
0.759	25.4771
0.753	25.3859
0.747	25.2555
0.741	25.1541
0.735	25.0586
0.729	24.963
0.723	24.8611
0.717	24.7662
0.711	24.6608
0.705	24.5724
0.699	24.4804
0.693	24.3853
0.687	24.3006
0.681	24.2304
0.675	24.1509
0.669	24.079
0.663	24.0117
0.657	23.9271
0.651	23.8439
0.645	23.7737
0.639	23.6934
0.633	23.614
0.627	23.5094
0.621	23.4421
0.615	23.3709
0.609	23.3057
0.603	23.2259
0.597	23.1818
0.591	23.112
0.585	23.0389
0.579	22.9642
0.573	22.8928
0.567	22.8347
0.561	22.7499
0.555	22.6592
0.549	22.5682
0.543	22.4864
0.537	22.3995
0.531	22.3282
0.525	22.2547
0.519	22.1694
0.513	22.0798
0.507	21.9439
0.501	21.7965
0.495	21.6334
0.489	21.43
0.483	21.1685
0.477	21.1211
0.471	20.9807
0.465	20.8559
0.459	20.7057
0.453	20.4862
0.447	20.1614
0.441	19.8851
0.435	19.8353
0.429	19.7429
0.423	19.6691
0.417	19.5711
0.411	19.4385
0.405	19.262
