Name: Altered volcanic tuff
Type: Rock
Class: Igneous
Subclass: Felsic
Particle Size: Solid
Sample No.: Cup8
Owner: USGS
Wavelength Range: All
Origin: Cuprite, Nevada
Description: Altered volcanic tuff, white to light greySample was Whole rock chips. Original ASTER Spectral Library name was usgs.perknic.rock.igneous.felsic.solid.cup8.spectrum.txt
Measurement: Directional Hemispherical Reflectance
X Units: Wavelength (micrometers)
Y Units: Reflectance (percent)
wavelength	value
13.9	3.183
13.68	3.275
13.467	3.471
13.261	3.77
13.06	4.141
12.866	4.851
12.677	4.851
12.494	4.069
12.316	2.163
12.143	2.513
11.975	3.038
11.811	3.317
11.652	3.832
11.497	4.079
11.346	4.408
11.199	4.656
11.056	4.903
10.916	5.16
10.78	5.356
10.647	5.583
10.518	6.036
10.391	6.54
10.268	7.385
10.147	8.374
10.029	9.404
9.914	10.527
9.802	11.505
9.692	12.69
9.585	13.586
9.479	15.141
9.377	18.262
9.276	22.382
9.178	24.988
9.081	25.214
8.987	24.071
8.894	22.382
8.804	20.559
8.715	18.756
8.628	16.717
8.543	17.211
8.459	16.459
8.377	14.286
8.297	14.842
8.218	14.42
8.14	12.69
8.064	9.692
7.99	7.22
7.917	5.304
7.845	3.45
7.774	2.235
7.705	1.494
7.637	1.164
7.57	0.772
7.504	0.669
7.44	0.618
7.376	0.639
7.314	0.639
7.252	0.628
7.192	0.7
7.133	0.834
7.074	0.793
7.017	0.886
6.96	0.875
6.905	0.896
6.85	0.999
6.796	1.03
6.743	1.092
6.691	1.226
6.64	1.298
6.589	1.38
6.539	1.38
6.49	1.72
6.442	1.751
6.394	1.792
6.347	1.7
6.301	1.638
6.255	1.627
6.21	1.463
6.166	1.391
6.122	1.401
6.079	1.411
6.037	1.442
5.995	1.535
5.954	1.638
5.913	1.741
5.873	1.916
5.833	1.885
5.794	1.947
5.755	1.988
5.717	2.019
5.68	1.998
5.643	2.009
5.606	2.101
5.57	2.06
5.534	2.132
5.499	2.184
5.464	2.287
5.43	2.245
5.396	2.142
5.363	1.926
5.33	1.854
5.297	1.885
5.265	1.947
5.233	2.173
5.201	2.39
5.17	2.596
5.139	2.668
5.109	2.596
5.079	2.585
5.049	2.441
5.02	2.431
4.991	2.41
4.962	2.513
4.934	2.699
4.906	2.966
4.878	3.584
4.851	4.182
4.824	4.81
4.797	5.243
4.771	5.572
4.744	5.778
4.719	5.892
4.693	6.077
4.668	5.984
4.643	6.036
4.618	6.365
4.593	6.499
4.569	6.705
4.545	6.767
4.521	6.705
4.498	6.53
4.474	6.499
4.451	6.386
4.428	6.231
4.406	6.159
4.384	6.18
4.361	6.396
4.34	6.695
4.318	7.045
4.296	7.395
4.275	7.684
4.254	7.921
4.233	8.518
4.213	8.704
4.192	8.776
4.172	9.002
4.152	9.116
4.132	9.301
4.112	9.363
4.093	9.538
4.074	9.713
4.055	9.919
4.036	10.104
4.017	10.176
3.998	9.94
3.98	10.001
3.962	10.063
3.944	10.146
3.926	10.032
3.908	9.867
3.89	10.043
3.873	10.001
3.856	10.053
3.838	9.981
3.822	9.764
3.805	9.847
3.788	9.641
3.771	9.527
3.755	9.373
3.739	9.146
3.723	8.93
3.707	8.734
3.691	8.601
3.675	8.353
3.66	8.168
3.644	7.952
3.629	7.643
3.614	7.2
3.599	7.066
3.584	6.952
3.569	6.602
3.554	6.468
3.54	6.345
3.525	5.984
3.511	5.933
3.497	5.706
3.483	5.624
3.469	5.418
3.455	5.274
3.441	5.057
3.428	4.748
3.414	4.748
3.401	4.656
3.387	4.45
3.374	4.501
3.361	4.336
3.348	4.192
3.335	4.213
3.322	4.069
3.309	3.996
3.297	3.873
3.284	3.832
3.272	3.584
3.259	3.718
3.247	3.502
3.235	3.481
3.223	3.523
3.211	3.461
3.199	3.502
3.187	3.337
3.176	3.286
3.164	3.203
3.152	3.069
3.141	3.121
3.13	2.987
3.118	2.843
3.107	2.925
3.096	2.915
3.085	2.76
3.074	2.688
3.063	2.719
3.052	2.987
3.042	2.74
3.031	2.802
3.02	2.657
3.01	2.75
2.999	2.771
2.989	2.75
2.979	2.771
2.968	2.606
2.958	2.554
2.948	2.668
2.938	2.606
2.928	2.678
2.918	2.627
2.909	2.616
2.899	2.729
2.889	2.647
2.879	2.431
2.87	2.719
2.86	2.75
2.851	2.812
2.842	2.771
2.832	2.915
2.823	2.647
2.814	2.863
2.805	3.142
2.796	2.884
2.787	3.008
2.778	2.987
2.769	3.193
2.76	3.296
2.751	3.399
2.742	3.615
2.734	4.171
2.725	5.037
2.717	5.665
2.708	6.88
2.7	9.208
2.691	11.278
2.683	13.38
2.675	15.646
2.666	17.706
2.658	19.096
2.65	19.622
2.642	20.528
2.634	21.362
2.626	21.857
2.618	22.238
2.61	22.567
2.602	22.207
2.594	23.257
2.586	23.515
2.579	23.546
2.571	23.443
2.563	24.102
2.556	23.803
2.548	23.721
2.541	24.174
2.533	23.917
2.526	24.566
2.519	24.669
2.511	25.111
2.504	24.916
2.488	25.778
2.464	26.727
2.44	27.838
2.416	28.945
2.392	30.244
2.368	31.218
2.344	31.801
2.32	31.652
2.296	31.784
2.272	31.88
2.248	31.869
2.224	32.14
2.2	32.688
2.176	33.687
2.152	34.5
2.128	34.622
2.104	34.266
2.08	34.122
2.056	34.01
2.032	33.466
2.008	32.367
1.984	31.596
1.96	30.43
1.936	29.821
1.912	29.47
1.888	33.624
1.864	37.218
1.84	37.792
1.816	37.895
1.792	37.987
1.768	38.092
1.744	38.346
1.72	38.597
1.696	38.768
1.672	38.933
1.648	38.983
1.624	39.015
1.6	39.079
1.576	39.098
1.552	39.019
1.528	38.799
1.504	38.604
1.48	38.287
1.456	37.988
1.432	37.86
1.408	38.154
1.384	39.827
1.36	40.758
1.336	41.218
1.312	41.366
1.288	41.504
1.264	41.601
1.24	41.697
1.216	41.834
1.192	41.866
1.168	41.929
1.144	42.009
1.12	42.239
1.096	42.351
1.072	42.425
1.048	42.462
1.024	42.538
1	42.525
0.976	42.404
0.952	42.396
0.928	42.333
0.904	42.585
0.88	42.665
0.856	43.18
0.832	43.827
0.808	43.794
0.784	43.766
0.76	43.609
0.736	43.56
0.712	43.356
0.688	43.102
0.664	42.834
0.64	42.521
0.616	42.202
0.592	41.746
0.568	40.989
0.544	39.943
0.52	38.708
0.496	37.382
0.472	36.2
0.448	34.836
0.424	32.602
0.4	30.166
