Name: Rhyolite
Type: Rock
Class: Igneous
Subclass: Felsic
Particle Size: Solid
Sample No.: AP-937-182
Owner: United States Geological Survey, L. C. Rowan
Wavelength Range: All
Origin: Iberian Pyrite Belt, Spain
Description: Rhyolite, cut, alteredSample was Whole Rock Chips. Original ASTER Spectral Library name was usgs.perknic.rock.igneous.felsic.solid.rhy182.spectrum.txt
Measurement: Directional Hemispherical Reflectance
X Units: Wavelength (micrometers)
Y Units: Reflectance (percent)
wavelength	value
14.051	2.8016
13.79	3.3372
13.538	3.4711
13.295	3.6153
13.06	4.1509
12.834	5.0882
12.616	4.326
12.404	4.0685
12.2	2.6059
12.002	2.987
11.811	3.3475
11.626	3.6462
11.446	4.0582
11.272	4.5011
11.103	4.9131
10.939	5.0573
10.78	4.9337
10.625	5.3663
10.475	6.2212
10.329	7.3542
10.187	8.7756
10.049	10.094
9.914	11.3197
9.783	11.8965
9.656	14.5436
9.532	15.9753
9.411	16.377
9.293	19.3228
9.178	20.1159
9.065	20.2498
8.956	19.3743
8.849	18.54
8.744	17.8705
8.642	14.8526
8.543	16.0886
8.445	16.1607
8.35	15.5736
8.257	15.7075
8.166	15.6251
8.077	11.0313
7.99	6.8289
7.905	4.1303
7.821	2.7707
7.739	2.2351
7.659	1.9467
7.581	1.5553
7.504	1.545
7.429	1.3802
7.355	1.2566
7.283	1.2566
7.212	1.3287
7.143	1.2154
7.074	1.3081
7.007	1.236
6.942	1.3802
6.877	1.2772
6.814	1.2875
6.752	1.2875
6.691	1.3699
6.631	1.2978
6.572	1.339
6.514	1.4214
6.458	1.5862
6.402	1.5553
6.347	1.6171
6.293	1.3905
6.24	1.4111
6.188	1.3802
6.137	1.4832
6.086	1.6068
6.037	1.5965
5.988	1.6068
5.94	1.5553
5.893	1.6583
5.846	1.6892
5.8	1.7819
5.755	1.9158
5.711	1.9158
5.667	1.8643
5.624	1.8025
5.582	1.8334
5.54	1.8025
5.499	1.9261
5.459	2.0085
5.419	2.0085
5.379	1.854
5.341	1.8643
5.302	1.9055
5.265	1.957
5.227	2.1424
5.191	2.2763
5.155	2.2454
5.119	2.3278
5.084	2.3381
5.049	2.2763
5.015	2.2969
4.981	2.3793
4.948	2.5029
4.915	2.6574
4.883	2.9973
4.851	3.3063
4.819	3.4711
4.788	3.6668
4.758	3.7492
4.727	3.9758
4.697	3.9758
4.668	4.1097
4.638	4.223
4.61	4.6453
4.581	4.8513
4.553	4.9852
4.525	4.9749
4.498	4.7895
4.47	4.7277
4.444	5.0264
4.417	5.2427
4.391	5.6238
4.365	6.1697
4.34	6.592
4.314	6.7465
4.289	6.798
4.265	7.1379
4.24	7.21
4.216	7.4675
4.192	7.6323
4.169	7.9619
4.145	8.1782
4.122	8.5181
4.099	8.7344
4.077	8.9713
4.055	9.3009
4.032	9.2494
4.011	9.2185
3.989	9.4348
3.968	9.4966
3.947	9.888
3.926	10.094
3.905	10.0528
3.884	10.094
3.864	10.094
3.844	10.0116
3.824	10.094
3.805	10.094
3.785	10.1146
3.766	9.7747
3.747	9.5687
3.728	9.3524
3.709	9.373
3.691	9.476
3.673	9.4657
3.655	9.3112
3.637	9.3009
3.619	9.0743
3.601	8.7962
3.584	8.446
3.567	8.4151
3.549	7.9928
3.533	7.8589
3.516	7.6941
3.499	7.5087
3.483	7.3748
3.466	7.2718
3.45	6.9834
3.434	6.7362
3.418	6.5096
3.403	6.3654
3.387	6.18
3.372	5.9843
3.357	5.7062
3.341	5.7062
3.326	5.5723
3.312	5.4075
3.297	5.3045
3.282	5.0779
3.268	5.0573
3.253	4.8616
3.239	4.8307
3.225	4.6762
3.211	4.5629
3.197	4.4393
3.183	4.326
3.17	4.1612
3.156	4.326
3.143	4.0788
3.13	4.1303
3.117	3.8625
3.103	3.9243
3.091	3.811
3.078	3.6256
3.065	3.6565
3.052	3.6874
3.04	3.6256
3.027	3.605
3.015	3.5844
3.003	3.605
2.991	3.399
2.979	3.399
2.967	3.2548
2.955	3.4196
2.943	3.4711
2.932	3.4196
2.92	3.5123
2.909	3.5844
2.897	3.6256
2.886	3.4402
2.875	3.5844
2.864	3.8831
2.853	3.5741
2.842	3.7389
2.831	3.6977
2.82	3.7595
2.809	3.5638
2.799	3.2754
2.788	3.0694
2.778	2.9561
2.767	2.8943
2.757	2.5029
2.747	2.8325
2.737	3.3475
2.727	3.6153
2.717	4.1612
2.707	4.2642
2.697	5.1809
2.687	7.6014
2.677	9.5069
2.668	10.6811
2.658	12.1231
2.649	12.4527
2.639	12.8956
2.63	13.4827
2.62	13.1428
2.611	13.3076
2.602	13.5239
2.593	13.7917
2.584	14.3067
2.575	14.5333
2.566	14.7805
2.557	15.0277
2.548	15.4706
2.54	15.1307
2.531	15.5736
2.522	15.5221
2.514	15.5324
2.505	15.3779
2.489	15.2191
2.461	14.1191
2.433	14.2191
2.405	15.3191
2.377	15.2191
2.349	13.0191
2.321	15.0191
2.293	21.2191
2.265	23.4191
2.237	18.0191
2.209	14.8191
2.181	24.7191
2.153	32.5191
2.125	34.2191
2.097	36.9191
2.069	39.5191
2.041	39.2191
2.013	37.5191
1.985	35.4191
1.957	33.1191
1.929	31.0191
1.901	32.0191
1.873	43.4191
1.845	47.5191
1.817	48.7191
1.789	49.1191
1.761	49.8191
1.733	49.7191
1.705	49.5191
1.677	49.5191
1.649	49.0191
1.621	48.3191
1.593	47.6191
1.565	46.9191
1.537	45.3191
1.509	45.6191
1.481	44.1191
1.453	42.5191
1.425	33.5191
1.397	31.8191
1.369	43.3191
1.341	44.0191
1.313	43.1191
1.285	42.3191
1.257	41.2191
1.229	40.1191
1.201	38.6191
1.173	37.8191
1.145	37.1191
1.117	36.4191
1.089	35.8191
1.061	36.2191
1.033	36.2191
1.005	35.9191
0.977	35.8191
0.949	35.4191
0.921	35.3191
0.893	35.1191
0.865	35.4191
0.837	35.8191
0.809	36.4191
0.799	36.1191
0.792	36.0191
0.785	36.0191
0.778	36.0191
0.771	35.8191
0.764	35.8191
0.757	35.8191
0.75	35.6191
0.743	35.4191
0.736	35.6191
0.729	35.5191
0.722	35.4191
0.715	35.5191
0.708	35.1191
0.701	35.0191
0.694	34.8191
0.687	34.5191
0.68	34.4191
0.673	34.4191
0.666	34.2191
0.659	33.9191
0.652	33.9191
0.645	33.9191
0.638	33.3191
0.631	33.1191
0.624	33.1191
0.617	33.1191
0.61	32.7191
0.603	32.7191
0.596	31.7191
0.589	31.5191
0.582	31.0191
0.575	30.8191
0.568	30.0191
0.561	30.1191
0.554	28.7191
0.547	28.6191
0.54	28.2191
0.533	27.5191
0.526	27.1191
0.519	26.6191
0.512	26.2191
0.505	25.6191
0.498	25.0191
0.491	24.9191
0.484	24.3191
0.477	24.0191
0.47	24.0191
0.463	23.4191
0.456	22.9191
0.449	22.8191
0.442	22.3191
0.435	21.5191
0.428	21.5191
0.421	21.1191
0.414	20.6191
0.407	20.7191
