Name: Red Quartzite
Type: rock
Class: Metamorphic
Subclass: Quartzite
Particle Size: Coarse
Sample No.: qtzite1
Owner: JHU
Wavelength Range: All
Origin: Sample No. 377, The Hunt and Salisbury Collection at the U.S.Geological Survey, Denver, Co.
Description: A well-compacted sample with medium-grained subangular to subrounded quartz grains and small amounts of interstitial calcite cement.  There is also a trace amount of secondary quartz cement   Fluid inclusions are common in the quartz with some grains showing strain while trace amounts of feldspar are present.  The calcite cement itself is stained with ferruginous material and some clay.  Modal analyses gave 69% quartz, 25% calcite, 5% clay, 1% feldspar. Particle size was 500 - 1500 Micrometer.    Original ASTER Spectral Library name was jhu.becknic.rock.metamorphic.quartzite.coarse.qrtzit1.spectrum.txt
Measurement: Directional (10 Degree) Hemispherical Reflectance
X Units: Wavelength (micrometers)
Y Units: Reflectance (percent)
wavelength	value
14.0112	0.4062
13.7147	1.4333
13.4304	2.1542
13.1577	2.0762
12.8959	4.0825
12.6443	3.2939
12.4023	2.7941
12.1694	1.1126
11.945	1.8451
11.7289	2.1069
11.5203	2.6739
11.3191	3.5968
11.1248	2.7136
10.937	2.5302
10.7555	2.5055
10.5799	2.7024
10.4099	3.0783
10.2454	3.682
10.0859	4.0506
9.9313	4.2095
9.7814	4.7701
9.636	5.8661
9.4948	7.6498
9.3577	12.6751
9.2245	15.535
9.095	15.5283
8.9691	13.552
8.8467	15.5407
8.7275	15.1782
8.6116	11.9258
8.4986	16.2607
8.3886	17.2519
8.2814	18.8231
8.1769	19.0913
8.075	12.9593
7.9756	8.3079
7.8786	4.9656
7.784	3.5462
7.6916	2.8477
7.6014	2.1703
7.5133	1.8808
7.4272	1.7674
7.343	1.675
7.2607	1.7648
7.1803	2.0359
7.1016	2.584
7.0246	2.8761
6.9493	2.9141
6.8755	3.0168
6.8034	3.0653
6.7327	3.2049
6.6634	3.419
6.5956	3.6499
6.5292	3.853
6.464	4.0015
6.4002	2.7906
6.3376	1.7751
6.2762	1.2864
6.216	1.1389
6.157	1.1291
6.099	1.2243
6.0421	1.2604
5.9863	1.2881
5.9315	1.2903
5.8777	1.3817
5.8249	1.5246
5.773	1.6971
5.722	1.8301
5.6719	1.7389
5.6227	1.5829
5.5744	1.4006
5.5268	1.5786
5.4801	1.7774
5.4341	1.9328
5.3889	1.7817
5.3445	1.7892
5.3008	1.8203
5.2578	1.9268
5.2154	2.2093
5.1738	2.2818
5.1328	2.2825
5.0925	2.281
5.0528	2.2925
5.0137	2.3562
4.9752	2.5383
4.9373	2.923
4.9	3.8951
4.8632	6.798
4.827	9.2707
4.7913	11.3554
4.7561	12.9007
4.7215	12.9185
4.6873	9.6325
4.6536	11.2838
4.6205	15.5738
4.5877	17.5084
4.5555	17.0758
4.5237	13.4219
4.4923	9.7703
4.4614	9.4335
4.4309	10.957
4.4008	12.9072
4.3711	16.1128
4.3418	18.719
4.3129	19.2166
4.2844	18.9611
4.2563	20.2019
4.2285	20.212
4.2011	20.2909
4.174	20.9654
4.1473	21.4887
4.1209	21.7334
4.0949	21.7571
4.0692	20.5435
4.0438	17.0454
4.0187	12.7397
3.994	10.2978
3.9695	9.9808
3.9453	11.563
3.9214	13.162
3.8979	13.4991
3.8746	13.5793
3.8515	13.742
3.8288	15.1462
3.8063	18.5448
3.7841	23.742
3.7621	24.9198
3.7404	25.0505
3.7189	25.8384
3.6977	26.5693
3.6767	27.7445
3.656	28.1457
3.6355	27.7486
3.6152	26.9578
3.5951	25.8263
3.5753	23.5728
3.5557	22.3514
3.5363	19.2865
3.5171	14.698
3.4981	13.0604
3.4793	12.1564
3.4607	13.4405
3.4423	13.964
3.4241	13.9607
3.4061	13.6322
3.3883	13.1714
3.3707	12.8462
3.3533	12.0739
3.336	14.5556
3.3189	16.881
3.302	17.0703
3.2853	16.9518
3.2687	16.4764
3.2523	15.9197
3.2361	15.2247
3.22	14.5516
3.204	13.8573
3.1883	13.1867
3.1727	12.5802
3.1572	11.8801
3.1419	11.3396
3.1268	10.8896
3.1117	10.4952
3.0969	10.1957
3.0821	9.961
3.0675	9.8095
3.0531	9.6069
3.0388	9.3827
3.0246	9.1846
3.0105	9.0989
2.9966	9.0343
2.9828	8.8107
2.9692	8.4278
2.9556	8.0465
2.9422	8.3886
2.9289	8.602
2.9157	8.6252
2.9027	8.7893
2.8897	8.9497
2.8769	9.1195
2.8642	9.3902
2.8516	9.4629
2.8391	9.756
2.8267	9.9842
2.8144	10.2615
2.8022	10.3252
2.7902	10.0827
2.7782	9.4531
2.7664	6.1298
2.7546	6.8856
2.7429	5.7242
2.7314	5.6913
2.7199	5.907
2.7085	5.3691
2.6973	9.3019
2.6861	16.4224
2.675	22.7132
2.664	27.2624
2.6531	30.4971
2.6423	32.6634
2.6315	34.4186
2.6209	35.7101
2.6103	36.3462
2.5999	36.5245
2.5895	36.3308
2.5792	36.5363
2.569	36.8705
2.5588	36.9672
2.5487	35.3378
2.5388	33.7288
2.5289	34.2489
2.519	35.712
2.5093	36.5162
2.4996	37.0181
2.49	37.3798
2.4805	38.7288
2.471	40.1651
2.4616	41.3533
2.4523	42.197
2.4431	43.1134
2.4339	44.6973
2.4248	46.1671
2.4157	47.0571
2.4068	47.6516
2.3979	47.1174
2.389	45.9791
2.3802	45.6385
2.3715	46.6827
2.3629	46.5748
2.3543	44.9074
2.3458	44.7184
2.3373	44.9921
2.3289	45.0942
2.3206	46.1255
2.3123	46.8032
2.3041	47.7892
2.2959	48.7967
2.2878	49.7414
2.2798	50.9534
2.2718	52.3574
2.2638	53.0783
2.2559	53.9003
2.2481	54.3152
2.2403	54.9959
2.2326	55.713
2.225	54.9593
2.2173	51.632
2.2098	40.2936
2.2023	46.8724
2.1948	49.2315
2.1874	49.9782
2.18	49.7894
2.1727	49.2733
2.1655	49.4741
2.1583	50.5911
2.1511	52.8816
2.144	56.3881
2.1369	58.5343
2.1299	59.7366
2.1229	60.4718
2.116	60.4086
2.1091	61.0453
2.1023	61.8563
2.0955	62.1944
2.0887	62.2552
2.082	62.8979
2.06	63.2355
2.028	63.1732
1.996	62.5268
1.964	60.6933
1.932	59.425
1.9	59.9591
1.868	65.9601
1.836	67.0836
1.804	67.589
1.772	68.3674
1.74	68.1591
1.708	68.568
1.676	67.8827
1.644	68.3714
1.612	68.0788
1.58	68.3646
1.548	67.6215
1.516	67.2354
1.484	66.3638
1.452	65.3566
1.42	64.3414
1.388	58.5937
1.356	64.5315
1.324	66.1462
1.292	65.7079
1.26	65.5033
1.228	64.0863
1.196	63.8647
1.164	62.0493
1.132	59.9639
1.1	58.2295
1.068	55.1929
1.036	52.6611
1.004	50.3151
0.972	46.848
0.94	43.3632
0.908	40.341
0.876	38.6594
0.844	38.0432
0.812	38.6835
0.795	39.2592
0.787	39.1163
0.779	39.5486
0.771	40.4125
0.763	40.2826
0.755	40.4817
0.747	40.7516
0.739	40.3181
0.731	40.343
0.723	39.6477
0.715	39.1655
0.707	38.1519
0.699	36.9344
0.691	36.0284
0.683	35.486
0.675	34.4517
0.667	33.2684
0.659	32.5988
0.651	31.5342
0.643	30.4343
0.635	29.5319
0.627	28.8444
0.619	27.7131
0.611	26.2717
0.603	24.9451
0.595	23.1009
0.587	21.3447
0.579	18.8328
0.571	17.1783
0.563	15.1162
0.555	13.4555
0.547	12.1696
0.539	11.4082
0.531	10.6856
0.523	10.4089
0.515	9.7729
0.507	9.4199
0.499	9.3209
0.491	9.0541
0.483	8.6864
0.475	8.5461
0.467	8.124
0.459	7.9281
0.451	7.6604
0.443	7.419
0.435	6.9267
0.427	6.3588
0.419	6.0317
0.411	5.8532
0.403	5.3964
