Name: Alkali Granite
Type: Rock
Class: Igneous
Subclass: Felsic
Particle Size: Solid
Sample No.: Ward13
Owner: JPL
Wavelength Range: VSWIR
Origin: Ward's Collection of American Rocks.  Sample locality - Quincy, Norfolk County, Massachusetts.
Description: A dark gray granular rock consisting of feldspar, quartz andblack pryibole.Geologic age - Carboniferous (probably Mississippian).Collected by:  Ward's Natural Science Original ASTER Spectral Library name was jpl.perkin.rock.igneous.felsic.solid.ward13.spectrum.txt
Measurement: Hemispherical reflectance
X Units: Wavelength (micrometers)
Y Units: Reflectance (percent)
wavelength	value
2.5	26.736
2.494	26.7302
2.488	27.0014
2.482	27.1637
2.476	27.371
2.47	27.6772
2.464	27.8018
2.458	27.9308
2.452	28.3682
2.446	28.2688
2.44	28.5318
2.434	28.7187
2.428	28.8473
2.422	28.9057
2.416	29.0303
2.41	29.3064
2.404	29.5071
2.398	29.7784
2.392	30.0944
2.386	30.4892
2.38	30.7021
2.374	30.9038
2.368	30.992
2.362	30.9372
2.356	30.721
2.35	30.3814
2.344	30.1887
2.338	30.1324
2.332	30.303
2.326	30.6002
2.32	31.0581
2.314	31.702
2.308	32.0828
2.302	32.4133
2.296	32.6614
2.29	32.8726
2.284	33.0868
2.278	33.2615
2.272	33.2973
2.266	33.4602
2.26	33.4707
2.254	33.5892
2.248	33.6572
2.242	33.7772
2.236	33.8527
2.23	33.9121
2.224	33.9596
2.218	34.0284
2.212	34.1956
2.206	34.2705
2.2	34.4446
2.194	34.4937
2.188	34.6408
2.182	34.5843
2.176	34.7429
2.17	34.8103
2.164	34.8868
2.158	34.9433
2.152	34.9421
2.146	35.0216
2.14	34.9548
2.134	34.9814
2.128	34.8897
2.122	34.8315
2.116	34.7228
2.11	34.6343
2.104	34.4595
2.098	34.3671
2.092	34.3931
2.086	34.3542
2.08	34.3178
2.074	34.2588
2.068	34.1724
2.062	34.1344
2.056	33.9749
2.05	33.8639
2.044	33.7854
2.038	33.6032
2.032	33.3862
2.026	33.1545
2.02	32.9673
2.014	32.7025
2.008	32.3498
2.002	32.011
1.996	31.5968
1.99	31.1935
1.984	30.7928
1.978	30.3875
1.972	29.9924
1.966	29.6317
1.96	29.3524
1.954	28.978
1.948	28.7472
1.942	28.4586
1.936	28.3386
1.93	28.3306
1.924	28.3573
1.918	28.6712
1.912	29.0766
1.906	29.9235
1.9	31.0497
1.894	32.5542
1.888	33.8832
1.882	35.0294
1.876	35.7555
1.87	36.1587
1.864	36.6258
1.858	36.7989
1.852	36.9479
1.846	37.0554
1.84	37.0923
1.834	37.1051
1.828	37.1266
1.822	37.0961
1.816	37.0966
1.81	37.1417
1.804	37.17
1.798	37.1882
1.792	37.2036
1.786	37.1926
1.78	37.1363
1.774	37.1385
1.768	37.1142
1.762	37.153
1.756	37.2231
1.75	37.2448
1.744	37.2143
1.738	37.2813
1.732	37.2202
1.726	37.2794
1.72	37.3063
1.714	37.223
1.708	37.2862
1.702	37.2721
1.696	37.1876
1.69	37.139
1.684	37.1816
1.678	37.1227
1.672	37.1018
1.666	37.0498
1.66	37.1895
1.654	37.0186
1.648	36.9951
1.642	37.0935
1.636	36.8881
1.63	36.874
1.624	36.8294
1.618	36.801
1.612	36.6852
1.606	36.6621
1.6	36.6159
1.594	36.5496
1.588	36.5059
1.582	36.4027
1.576	36.41
1.57	36.278
1.564	36.1695
1.558	36.1059
1.552	36.018
1.546	35.8735
1.54	35.8036
1.534	35.6869
1.528	35.5778
1.522	35.4955
1.516	35.3755
1.51	35.1561
1.504	34.9924
1.498	34.9062
1.492	34.6913
1.486	34.5407
1.48	34.3506
1.474	34.2342
1.468	34.048
1.462	33.892
1.456	33.8154
1.45	33.7378
1.444	33.6574
1.438	33.51
1.432	33.5153
1.426	33.436
1.42	33.1718
1.414	31.9481
1.408	33.5417
1.402	33.8148
1.396	34.0851
1.39	34.3997
1.384	34.4884
1.378	34.4179
1.372	34.3519
1.366	34.3243
1.36	34.1477
1.354	33.9886
1.348	33.8934
1.342	33.7881
1.336	33.7547
1.33	33.6059
1.324	33.4712
1.318	33.3621
1.312	33.2337
1.306	33.0772
1.3	32.9425
1.294	32.8095
1.288	32.7113
1.282	32.5305
1.276	32.3903
1.27	32.2408
1.264	32.0437
1.258	31.9164
1.252	31.7101
1.246	31.534
1.24	31.3902
1.234	31.1879
1.228	31.111
1.222	30.9116
1.216	30.6803
1.21	30.512
1.204	30.336
1.198	30.1685
1.192	29.9947
1.186	29.8206
1.18	29.6004
1.174	29.4002
1.168	29.2064
1.162	28.9935
1.156	28.8841
1.15	28.682
1.144	28.5179
1.138	28.3201
1.132	28.1833
1.126	28.072
1.12	27.8577
1.114	27.6697
1.108	27.4837
1.102	27.3631
1.096	27.1773
1.09	27.187
1.084	26.9502
1.078	26.7979
1.072	26.6687
1.066	26.6885
1.06	26.469
1.054	26.4328
1.048	26.2837
1.042	26.2283
1.036	26.1345
1.03	25.9675
1.024	25.9327
1.018	25.8622
1.012	25.7823
1.006	25.673
1	25.6746
0.994	25.5483
0.988	25.5273
0.982	25.4579
0.976	25.3412
0.97	25.3431
0.964	25.2804
0.958	25.135
0.952	25.0743
0.946	24.9535
0.94	24.8507
0.934	24.7856
0.928	24.658
0.922	24.539
0.916	24.4417
0.91	24.2593
0.904	24.1284
0.898	24.0181
0.892	23.9131
0.886	23.7371
0.88	23.5324
0.874	23.394
0.868	23.2286
0.862	23.099
0.856	22.8019
0.85	22.7624
0.844	22.7287
0.838	22.6695
0.832	22.6274
0.826	22.5611
0.82	22.4892
0.814	22.4175
0.808	22.3296
0.802	22.2209
0.796	22.116
0.79	22.015
0.784	21.9251
0.778	21.8011
0.772	21.6705
0.766	21.5486
0.76	21.4192
0.754	21.288
0.748	21.1522
0.742	21.0268
0.736	20.9339
0.73	20.8267
0.724	20.7509
0.718	20.6637
0.712	20.594
0.706	20.5219
0.7	20.4546
0.694	20.4022
0.688	20.3364
0.682	20.2854
0.676	20.2344
0.67	20.1995
0.664	20.1736
0.658	20.1542
0.652	20.1355
0.646	20.1379
0.64	20.1372
0.634	20.1517
0.628	20.1572
0.622	20.1706
0.616	20.1961
0.61	20.2078
0.604	20.227
0.598	20.2425
0.592	20.2596
0.586	20.2577
0.58	20.2391
0.574	20.2233
0.568	20.2084
0.562	20.1811
0.556	20.1665
0.55	20.1354
0.544	20.099
0.538	20.0722
0.532	20.0282
0.526	19.9833
0.52	19.9482
0.514	19.9155
0.508	19.867
0.502	19.8144
0.496	19.7244
0.49	19.6402
0.484	19.5556
0.478	19.4335
0.472	19.2522
0.466	19.0538
0.46	18.8201
0.454	18.5606
0.448	18.2451
0.442	17.9258
0.436	17.6737
0.43	17.3995
0.424	17.0526
0.418	16.719
0.412	16.4387
0.406	16.1572
0.4	15.8702
