Name: Dolomite  CaMgCO3
Type: Rock
Class: Sedimentary
Subclass: dolomite
Particle Size: Solid
Sample No.: ro368
Owner: Larry Rowan, USGS
Wavelength Range: All
Origin: Ronda, Spain
Description: bluish gray dolomiteSample was Whole rock chips. Original ASTER Spectral Library name was usgs.perknic.rock.sedimentary.dolomite.solid.dm368.spectrum.txt
Measurement: Reflectance
X Units: Wavelength (micrometers)
Y Units: Reflectance (percent)
wavelength	value
0.4	0.363
0.408	0.37
0.416	0.375
0.424	0.377
0.432	0.388
0.44	0.397
0.448	0.4
0.456	0.405
0.464	0.403
0.472	0.408
0.48	0.413
0.488	0.413
0.496	0.424
0.504	0.43
0.512	0.43
0.52	0.433
0.528	0.444
0.536	0.451
0.544	0.453
0.552	0.46
0.56	0.459
0.568	0.462
0.576	0.462
0.584	0.473
0.592	0.477
0.6	0.479
0.608	0.477
0.616	0.474
0.624	0.482
0.632	0.486
0.64	0.486
0.648	0.49
0.656	0.493
0.664	0.499
0.672	0.499
0.68	0.509
0.688	0.508
0.696	0.515
0.704	0.516
0.712	0.52
0.72	0.521
0.728	0.526
0.736	0.527
0.744	0.526
0.752	0.534
0.76	0.535
0.768	0.54
0.776	0.535
0.784	0.541
0.792	0.54
0.8	0.551
0.832	0.549
0.864	0.553
0.896	0.556
0.928	0.557
0.96	0.552
0.992	0.557
1.024	0.562
1.056	0.564
1.088	0.575
1.12	0.579
1.152	0.585
1.184	0.585
1.216	0.59
1.248	0.591
1.28	0.596
1.312	0.597
1.344	0.591
1.376	0.563
1.408	0.525
1.44	0.518
1.472	0.531
1.504	0.556
1.536	0.571
1.568	0.589
1.6	0.589
1.632	0.592
1.664	0.593
1.696	0.587
1.728	0.58
1.76	0.584
1.792	0.571
1.824	0.546
1.856	0.509
1.888	0.436
1.92	0.387
1.952	0.394
1.984	0.42
2.016	0.465
2.048	0.485
2.08	0.498
2.1021	0.5264
2.109	0.5188
2.1159	0.525
2.1228	0.5145
2.1298	0.5049
2.1368	0.5045
2.1438	0.4976
2.1509	0.501
2.1581	0.5118
2.1653	0.5105
2.1726	0.5168
2.1799	0.5126
2.1872	0.5128
2.1946	0.5015
2.2021	0.4884
2.2096	0.4739
2.2172	0.4683
2.2248	0.4591
2.2324	0.4396
2.2401	0.421
2.2479	0.3988
2.2557	0.376
2.2636	0.3515
2.2715	0.3404
2.2795	0.3305
2.2876	0.317
2.2957	0.3052
2.3038	0.2929
2.3121	0.2829
2.3203	0.273
2.3287	0.2757
2.3371	0.2926
2.3455	0.3248
2.354	0.3708
2.3626	0.4068
2.3712	0.4191
2.38	0.4204
2.3887	0.4154
2.3976	0.4026
2.4065	0.3935
2.4154	0.379
2.4245	0.3527
2.4336	0.3286
2.4427	0.2997
2.452	0.279
2.4613	0.2625
2.4707	0.2491
2.4801	0.2412
2.4896	0.2227
2.4992	0.2114
2.5089	0.2044
2.5187	0.1991
2.5285	0.2054
2.5384	0.2249
2.5484	0.2714
2.5584	0.3128
2.5686	0.3404
2.5788	0.359
2.5891	0.3673
2.5995	0.3721
2.6099	0.3731
2.6205	0.368
2.6311	0.3603
2.6418	0.3514
2.6526	0.3352
2.6635	0.3201
2.6745	0.2928
2.6856	0.2603
2.6968	0.2286
2.708	0.194
2.7194	0.155
2.7309	0.1394
2.7424	0.1224
2.7541	0.1115
2.7658	0.104
2.7777	0.0983
2.7896	0.0935
2.8017	0.0925
2.8138	0.087
2.8261	0.0857
2.8385	0.0836
2.851	0.0833
2.8636	0.0773
2.8763	0.0779
2.8891	0.0741
2.902	0.0734
2.915	0.0731
2.9282	0.0727
2.9415	0.0706
2.9549	0.0726
2.9684	0.0713
2.9821	0.0719
2.9959	0.0734
3.0098	0.073
3.0238	0.0742
3.038	0.0745
3.0523	0.0737
3.0667	0.0752
3.0813	0.0753
3.096	0.0774
3.1109	0.0787
3.1259	0.0816
3.141	0.083
3.1563	0.0881
3.1718	0.0902
3.1874	0.0931
3.2031	0.0955
3.219	0.0962
3.2351	0.0972
3.2513	0.0978
3.2677	0.0932
3.2843	0.0848
3.301	0.059
3.3179	0.059
3.3349	0.0559
3.3522	0.0529
3.3696	0.0589
3.3872	0.0556
3.405	0.053
3.423	0.0533
3.4412	0.047
3.4595	0.0478
3.4781	0.0492
3.4968	0.0581
3.5158	0.0782
3.535	0.1016
3.5544	0.1126
3.574	0.129
3.5938	0.1435
3.6138	0.1499
3.6341	0.1517
3.6545	0.1521
3.6753	0.1481
3.6962	0.1378
3.7174	0.1261
3.7389	0.1047
3.7605	0.0773
3.7825	0.0611
3.8047	0.0524
3.8272	0.0566
3.8499	0.0525
3.8729	0.047
3.8962	0.0451
3.9197	0.0409
3.9436	0.0382
3.9677	0.039
3.9921	0.048
4.0169	0.0623
4.0419	0.0772
4.0673	0.0932
4.093	0.1048
4.119	0.1122
4.1453	0.1165
4.172	0.1266
4.199	0.1296
4.2264	0.124
4.2541	0.1193
4.2822	0.1144
4.3107	0.1175
4.3395	0.1283
4.3688	0.1355
4.3984	0.1194
4.4285	0.1055
4.4589	0.1096
4.4898	0.1104
4.5211	0.0963
4.5529	0.0892
4.5851	0.079
4.6177	0.0712
4.6509	0.07
4.6845	0.0837
4.7186	0.1033
4.7532	0.1135
4.7883	0.1162
4.8239	0.116
4.8601	0.1157
4.8968	0.1128
4.9341	0.1098
4.9719	0.1075
5.0103	0.1031
5.0493	0.0818
5.089	0.084
5.1292	0.0851
5.1702	0.0773
5.2117	0.069
5.254	0.0593
5.2969	0.052
5.3405	0.0465
5.3849	0.0398
5.43	0.0308
5.4759	0.023
5.5225	0.0217
5.57	0.0221
5.6182	0.0237
5.6673	0.0232
5.7173	0.0211
5.7682	0.0201
5.82	0.0188
5.8727	0.0173
5.9264	0.0155
5.9811	0.0137
6.0368	0.0133
6.0935	0.0146
6.1513	0.0214
6.2103	0.0358
6.2703	0.0724
6.3316	0.1856
6.394	0.2978
6.4577	0.3307
6.5227	0.3087
6.589	0.2771
6.6566	0.2415
6.7257	0.2184
6.7962	0.2017
6.8682	0.1879
6.9418	0.1819
7.0169	0.1762
7.0937	0.1302
7.1722	0.1048
7.2524	0.0922
7.3345	0.0864
7.4184	0.0828
7.5043	0.0792
7.5922	0.077
7.6821	0.0742
7.7743	0.0734
7.8686	0.0733
7.9653	0.0696
8.0644	0.0674
8.166	0.0678
8.2701	0.0687
8.377	0.063
8.4867	0.064
8.5992	0.0647
8.7149	0.065
8.8336	0.0683
8.9556	0.0684
9.0811	0.0613
9.2101	0.0647
9.3428	0.0649
9.4795	0.0661
9.6201	0.0635
9.765	0.0613
9.9144	0.0593
10.0684	0.058
10.2272	0.06
10.3911	0.0609
10.5604	0.0588
10.7353	0.0603
10.9161	0.0643
11.103	0.1456
11.2965	0.1311
11.4968	0.0661
11.7044	0.0531
11.9196	0.0608
12.1429	0.057
12.3747	0.0539
12.6155	0.0507
12.8659	0.0479
13.1264	0.0442
13.3977	0.0344
13.6804	0.0374
13.9753	0.0369
