Name: Basalt
Type: Rock
Class: Igneous
Subclass: Mafic
Particle Size: Solid
Sample No.: Mewy9
Owner: Lawrence Rowan, USGS Reston
Wavelength Range: All
Origin: Middle East
Description: Basalt, fresh surfaceSample was Whole rock chips. Original ASTER Spectral Library name was usgs.perknic.rock.igneous.mafic.solid.mewy9.spectrum.txt
Measurement: Directional Hemispherical Reflectance
X Units: Wavelength (micrometers)
Y Units: Reflectance (percent)
wavelength	value
14.051	3.4917
13.826	3.3269
13.609	3.1827
13.398	3.3887
13.193	3.2445
12.995	3.2239
12.802	3.399
12.616	3.4093
12.434	3.7492
12.258	4.1406
12.086	4.5423
11.92	5.0058
11.757	5.2324
11.6	5.7783
11.446	6.4684
11.297	6.8392
11.151	7.3954
11.009	7.8074
10.87	8.1782
10.735	8.5284
10.604	8.8168
10.475	9.0022
10.35	9.9601
10.227	10.4854
10.108	10.8356
9.991	11.3197
9.877	11.8347
9.765	12.2879
9.656	12.6896
9.549	12.4939
9.445	11.7626
9.343	10.4957
9.243	9.167
9.145	9.0228
9.049	9.0331
8.956	8.6932
8.864	8.0855
8.774	7.5911
8.686	7.2409
8.599	6.6023
8.515	6.1697
8.431	5.9946
8.35	5.871
8.27	5.4178
8.192	5.0779
8.115	4.9749
8.039	4.7998
7.965	4.8616
7.893	4.9646
7.821	5.047
7.751	5.15
7.682	5.2427
7.614	5.3354
7.548	5.3354
7.483	5.3354
7.418	5.3251
7.355	5.5311
7.293	5.5105
7.232	5.4796
7.172	5.6032
7.113	5.665
7.055	5.7165
6.998	5.5517
6.942	5.8092
6.886	5.8092
6.832	5.665
6.778	5.7268
6.726	5.5208
6.674	5.6547
6.623	5.7577
6.572	5.5517
6.523	5.6032
6.474	5.6444
6.426	5.6444
6.378	5.6341
6.332	5.665
6.286	5.6238
6.24	5.5208
6.195	5.4384
6.151	5.3869
6.108	5.459
6.065	5.253
6.023	5.2324
5.981	5.3045
5.94	5.4384
5.899	5.5105
5.859	5.5414
5.82	5.7062
5.781	5.6238
5.743	5.6753
5.705	5.8195
5.667	5.7989
5.63	5.7886
5.594	5.8607
5.558	5.8298
5.523	5.9225
5.487	5.9637
5.453	6.077
5.419	6.2006
5.385	6.1594
5.352	6.2521
5.319	6.2933
5.286	6.3757
5.254	6.3242
5.222	6.386
5.191	6.3654
5.16	6.3757
5.129	6.3551
5.099	6.3139
5.069	6.3448
5.04	6.3448
5.01	6.3139
4.981	6.3345
4.953	6.3551
4.925	6.4169
4.897	6.3345
4.869	6.3757
4.842	6.386
4.815	6.3654
4.788	6.3448
4.762	6.4066
4.736	6.3448
4.71	6.3963
4.684	6.3963
4.659	6.4581
4.634	6.4272
4.61	6.3963
4.585	6.4066
4.561	6.4066
4.537	6.386
4.513	6.4066
4.49	6.489
4.467	6.3654
4.444	6.4169
4.421	6.3139
4.398	6.2933
4.376	6.283
4.354	6.2727
4.332	6.1903
4.311	6.1285
4.289	6.2418
4.268	6.2006
4.247	6.2315
4.226	6.1594
4.206	6.0152
4.185	5.9946
4.165	5.8195
4.145	6.0358
4.126	5.8813
4.106	5.7062
4.086	5.8092
4.067	5.7062
4.048	5.8607
4.029	5.7371
4.011	5.5517
3.992	5.6444
3.974	5.562
3.956	5.5414
3.938	5.4487
3.92	5.3251
3.902	5.5517
3.884	5.3869
3.867	5.4178
3.85	5.459
3.833	5.4281
3.816	5.0985
3.799	5.356
3.782	5.253
3.766	5.2221
3.75	5.1397
3.733	5.1603
3.717	5.2118
3.702	5.0882
3.686	5.2633
3.67	5.0264
3.655	5.1294
3.639	5.0779
3.624	5.0985
3.609	5.047
3.594	4.9646
3.579	5.1191
3.564	5.0882
3.549	4.9646
3.535	5.0779
3.521	5.0676
3.506	5.0058
3.492	5.0161
3.478	4.9028
3.464	4.9234
3.45	5.0058
3.437	4.944
3.423	4.841
3.409	4.8719
3.396	4.8204
3.383	4.9131
3.37	4.738
3.357	5.0161
3.344	4.8307
3.331	4.9543
3.318	4.8925
3.305	5.0573
3.293	4.7071
3.28	4.7174
3.268	4.841
3.255	4.8307
3.243	4.6556
3.231	4.8616
3.219	4.738
3.207	4.7998
3.195	4.6659
3.183	4.738
3.172	4.7277
3.16	4.5732
3.149	4.6762
3.137	4.7792
3.126	4.5835
3.115	4.7586
3.103	4.6659
3.092	4.7792
3.081	4.6659
3.07	4.6247
3.06	4.7174
3.049	4.5423
3.038	4.5423
3.027	4.6453
3.017	4.5526
3.006	4.532
2.996	4.6041
2.986	4.7689
2.975	4.5835
2.965	4.6762
2.955	4.6762
2.945	4.5732
2.935	4.4187
2.925	4.1921
2.915	4.7071
2.905	4.4599
2.896	4.4496
2.886	4.5732
2.876	4.5423
2.867	4.532
2.857	4.9234
2.848	4.6453
2.838	4.6247
2.829	4.429
2.82	4.2745
2.811	4.3878
2.802	4.8204
2.793	4.9234
2.784	4.5732
2.775	4.6762
2.766	4.7483
2.757	4.7792
2.748	4.6968
2.74	5.0161
2.731	4.9131
2.722	4.9543
2.714	4.8925
2.705	4.6041
2.697	4.8822
2.688	5.1603
2.68	4.9028
2.672	4.9852
2.664	5.15
2.655	4.9337
2.647	5.3457
2.639	5.0676
2.631	4.9955
2.623	5.0676
2.615	5.4178
2.607	5.3457
2.599	5.1912
2.592	5.1294
2.584	4.9543
2.576	5.5208
2.569	5.3972
2.561	5.2015
2.553	5.0779
2.546	5.3663
2.538	5.0676
2.531	5.2221
2.524	5.2736
2.516	5.356
2.509	5.15
2.502	4.9028
2.48	4.2903
2.456	4.5622
2.432	4.7256
2.408	5.2728
2.384	5.0209
2.36	4.7099
2.336	4.9514
2.312	5.0022
2.288	4.8404
2.264	5.1396
2.24	4.9043
2.216	5.1692
2.192	5.2516
2.168	5.2553
2.144	5.3842
2.12	5.3142
2.096	5.2883
2.072	5.3319
2.048	5.3465
2.024	5.4271
2	5.5061
1.976	5.537
1.952	5.5934
1.928	5.414
1.904	5.1636
1.88	5.3217
1.856	5.3015
1.832	5.3413
1.808	5.3695
1.784	5.4615
1.76	5.4638
1.736	5.4448
1.712	5.4853
1.688	5.5146
1.664	5.5528
1.64	5.4933
1.616	5.525
1.592	5.5145
1.568	5.4955
1.544	5.4874
1.52	5.4852
1.496	5.4691
1.472	5.4791
1.448	5.4974
1.424	5.4373
1.4	5.4128
1.376	5.373
1.352	5.2836
1.328	5.3252
1.304	5.3458
1.28	5.3299
1.256	5.3819
1.232	5.3452
1.208	5.4204
1.184	5.3374
1.16	5.4197
1.136	5.4403
1.112	5.392
1.088	5.3962
1.064	5.457
1.04	5.4622
1.016	5.5412
0.992	5.6178
0.968	5.7715
0.944	5.855
0.92	6.1415
0.896	6.3061
0.872	6.2798
0.848	6.2473
0.824	6.6025
0.8	6.667
0.776	6.7293
0.752	6.768
0.728	6.8137
0.704	6.8731
0.68	6.8897
0.656	6.9312
0.632	6.9588
0.608	7.0118
0.584	7.0532
0.56	7.145
0.536	7.2343
0.512	7.3811
0.488	7.4224
0.464	7.5795
0.44	7.7073
0.416	7.894
