Name: Dolomite  CaMgCO3
Type: Rock
Class: Sedimentary
Subclass: Dolomite
Particle Size: Solid
Sample No.: ro391
Owner: Larry Rowan, USGS
Wavelength Range: All
Origin: Ronda, Spain
Description: bluish gray dolomiteSample was Whole rock chips. Original ASTER Spectral Library name was usgs.perknic.rock.sedimentary.dolomite.solid.dm391.spectrum.txt
Measurement: Reflectance
X Units: Wavelength (micrometers)
Y Units: Reflectance (percent)
wavelength	value
0.4	0.232
0.408	0.227
0.416	0.227
0.424	0.222
0.432	0.223
0.44	0.223
0.448	0.222
0.456	0.222
0.464	0.219
0.472	0.219
0.48	0.219
0.488	0.216
0.496	0.217
0.504	0.221
0.512	0.22
0.52	0.222
0.528	0.223
0.536	0.225
0.544	0.223
0.552	0.225
0.56	0.227
0.568	0.231
0.576	0.233
0.584	0.234
0.592	0.234
0.6	0.234
0.608	0.233
0.616	0.232
0.624	0.238
0.632	0.238
0.64	0.237
0.648	0.238
0.656	0.242
0.664	0.241
0.672	0.243
0.68	0.243
0.688	0.244
0.696	0.245
0.704	0.244
0.712	0.244
0.72	0.245
0.728	0.247
0.736	0.247
0.744	0.249
0.752	0.248
0.76	0.248
0.768	0.249
0.776	0.247
0.784	0.252
0.792	0.252
0.8	0.253
0.832	0.259
0.864	0.259
0.896	0.26
0.928	0.26
0.96	0.263
0.992	0.26
1.024	0.263
1.056	0.263
1.088	0.261
1.12	0.263
1.152	0.264
1.184	0.261
1.216	0.261
1.248	0.26
1.28	0.261
1.312	0.261
1.344	0.259
1.376	0.258
1.408	0.256
1.44	0.255
1.472	0.254
1.504	0.255
1.536	0.256
1.568	0.254
1.6	0.255
1.632	0.256
1.664	0.254
1.696	0.255
1.728	0.255
1.76	0.254
1.792	0.255
1.824	0.254
1.856	0.248
1.888	0.242
1.92	0.236
1.952	0.237
1.984	0.242
2.016	0.247
2.048	0.248
2.08	0.25
2.1021	0.2385
2.109	0.2366
2.1159	0.2384
2.1228	0.2373
2.1298	0.2391
2.1368	0.2385
2.1438	0.2389
2.1509	0.234
2.1581	0.2397
2.1653	0.2346
2.1726	0.2366
2.1799	0.2332
2.1872	0.2313
2.1946	0.2283
2.2021	0.2253
2.2096	0.2193
2.2172	0.2185
2.2248	0.2242
2.2324	0.2218
2.2401	0.2265
2.2479	0.2247
2.2557	0.2214
2.2636	0.2176
2.2715	0.2153
2.2795	0.2106
2.2876	0.2093
2.2957	0.2105
2.3038	0.2042
2.3121	0.2001
2.3203	0.2006
2.3287	0.1962
2.3371	0.1983
2.3455	0.2118
2.354	0.2154
2.3626	0.222
2.3712	0.2205
2.38	0.2217
2.3887	0.2194
2.3976	0.2172
2.4065	0.2153
2.4154	0.2129
2.4245	0.2064
2.4336	0.2015
2.4427	0.1924
2.452	0.185
2.4613	0.183
2.4707	0.1825
2.4801	0.1802
2.4896	0.1709
2.4992	0.1641
2.5089	0.1601
2.5187	0.1579
2.5285	0.1678
2.5384	0.1798
2.5484	0.1938
2.5584	0.1964
2.5686	0.2034
2.5788	0.2038
2.5891	0.2024
2.5995	0.2028
2.6099	0.202
2.6205	0.1997
2.6311	0.1991
2.6418	0.195
2.6526	0.1886
2.6635	0.1823
2.6745	0.1723
2.6856	0.1471
2.6968	0.1098
2.708	0.101
2.7194	0.0833
2.7309	0.0694
2.7424	0.0584
2.7541	0.0544
2.7658	0.053
2.7777	0.0552
2.7896	0.0576
2.8017	0.0589
2.8138	0.0602
2.8261	0.0601
2.8385	0.0596
2.851	0.0571
2.8636	0.0573
2.8763	0.0554
2.8891	0.0538
2.902	0.0535
2.915	0.0512
2.9282	0.0534
2.9415	0.0529
2.9549	0.0519
2.9684	0.0522
2.9821	0.0526
2.9959	0.0533
3.0098	0.0542
3.0238	0.0535
3.038	0.0543
3.0523	0.0541
3.0667	0.055
3.0813	0.0542
3.096	0.0549
3.1109	0.057
3.1259	0.0572
3.141	0.0582
3.1563	0.0614
3.1718	0.0612
3.1874	0.0635
3.2031	0.0638
3.219	0.0656
3.2351	0.0658
3.2513	0.0663
3.2677	0.0634
3.2843	0.0607
3.301	0.0439
3.3179	0.0446
3.3349	0.0447
3.3522	0.0459
3.3696	0.049
3.3872	0.0469
3.405	0.0446
3.423	0.0441
3.4412	0.0381
3.4595	0.0388
3.4781	0.0413
3.4968	0.0506
3.5158	0.0668
3.535	0.0803
3.5544	0.0837
3.574	0.0935
3.5938	0.0968
3.6138	0.099
3.6341	0.1004
3.6545	0.1007
3.6753	0.0993
3.6962	0.0957
3.7174	0.0881
3.7389	0.0774
3.7605	0.0572
3.7825	0.044
3.8047	0.0397
3.8272	0.0459
3.8499	0.0437
3.8729	0.0373
3.8962	0.0358
3.9197	0.0316
3.9436	0.031
3.9677	0.0325
3.9921	0.0409
4.0169	0.0524
4.0419	0.0654
4.0673	0.077
4.093	0.0842
4.119	0.0877
4.1453	0.0876
4.172	0.0922
4.199	0.092
4.2264	0.0875
4.2541	0.0826
4.2822	0.0798
4.3107	0.0822
4.3395	0.088
4.3688	0.0897
4.3984	0.0818
4.4285	0.0738
4.4589	0.0761
4.4898	0.078
4.5211	0.0703
4.5529	0.0645
4.5851	0.0577
4.6177	0.0527
4.6509	0.0542
4.6845	0.0659
4.7186	0.0709
4.7532	0.0724
4.7883	0.0719
4.8239	0.0719
4.8601	0.0704
4.8968	0.0687
4.9341	0.0673
4.9719	0.0649
5.0103	0.0629
5.0493	0.0543
5.089	0.0561
5.1292	0.0546
5.1702	0.0506
5.2117	0.0467
5.254	0.0426
5.2969	0.0383
5.3405	0.0354
5.3849	0.0313
5.43	0.0251
5.4759	0.0179
5.5225	0.0177
5.57	0.0194
5.6182	0.021
5.6673	0.0214
5.7173	0.0211
5.7682	0.0212
5.82	0.0214
5.8727	0.0212
5.9264	0.0212
5.9811	0.0213
6.0368	0.023
6.0935	0.0249
6.1513	0.0374
6.2103	0.0494
6.2703	0.0843
6.3316	0.1824
6.394	0.2426
6.4577	0.2352
6.5227	0.2125
6.589	0.1872
6.6566	0.162
6.7257	0.1463
6.7962	0.1373
6.8682	0.1305
6.9418	0.1297
7.0169	0.1278
7.0937	0.0865
7.1722	0.0734
7.2524	0.0662
7.3345	0.0647
7.4184	0.063
7.5043	0.0618
7.5922	0.0627
7.6821	0.0594
7.7743	0.0616
7.8686	0.063
7.9653	0.061
8.0644	0.0582
8.166	0.0592
8.2701	0.0653
8.377	0.0569
8.4867	0.0591
8.5992	0.0576
8.7149	0.0542
8.8336	0.0525
8.9556	0.0487
9.0811	0.045
9.2101	0.0453
9.3428	0.0479
9.4795	0.0493
9.6201	0.05
9.765	0.0484
9.9144	0.0456
10.0684	0.0427
10.2272	0.0423
10.3911	0.0419
10.5604	0.0408
10.7353	0.0396
10.9161	0.0423
11.103	0.0981
11.2965	0.091
11.4968	0.0466
11.7044	0.0361
11.9196	0.0357
12.1429	0.0331
12.3747	0.0309
12.6155	0.0306
12.8659	0.029
13.1264	0.0257
13.3977	0.0219
13.6804	0.0265
13.9753	0.0254
