Name: Oolitic Limestone
Type: rock
Class: Sedimentary
Subclass: Limestone
Particle Size: Coarse
Sample No.: limestone_7
Owner: JHU
Wavelength Range: All
Origin: Sample No. 358,  The Hunt and Salisbury Collection at the U.S.Geological Survey, Denver, Co.
Description: Ooids in the sample are small (0.5-0.75 mm) with laminar structures largely destroyed by dolomitic recrystallization. Carbonate crystals show a heterogeneous distribution, from microcrystalline to fine medium-grained. Abundant quartz fragments and some altered plagioclase (albite twinning), opaques, carbonaceous material, ferruginous clay, and a brown-green to colorless micaceous mineral are also present. Particle size was 500 - 1500 Micrometers. Original ASTER Spectral Library name was jhu.becknic.rock.sedimentary.limestone.coarse.limest7.spectrum.txt
Measurement: Directional (10 Degree) Hemispherical Reflectance
X Units: Wavelength (micrometers)
Y Units: Reflectance (percent)
wavelength	value
14.9831	2.6422
14.6445	2.7347
14.3209	2.2921
14.0112	2.4757
13.7147	2.4212
13.4304	2.7118
13.1577	3.1987
12.8959	3.6872
12.6443	3.3495
12.4023	2.273
12.1694	1.9585
11.945	2.4416
11.7289	2.7883
11.5203	3.6645
11.3191	4.6731
11.1248	4.5675
10.937	3.8104
10.7555	3.8101
10.5799	3.915
10.4099	4.1919
10.2454	4.481
10.0859	4.6591
9.9313	5.0361
9.7814	5.4856
9.636	6.022
9.4948	7.2049
9.3577	9.7099
9.2245	9.2379
9.095	8.2646
8.9691	7.7155
8.8467	7.1528
8.7275	6.2898
8.6116	5.5898
8.4986	6.4014
8.3886	6.5768
8.2814	7.0192
8.1769	7.845
8.075	7.4749
7.9756	7.1874
7.8786	6.8487
7.784	6.807
7.6916	7.0988
7.6014	7.2158
7.5133	6.9548
7.4272	6.6609
7.343	6.1179
7.2607	5.4257
7.1803	5.1183
7.1016	5.317
7.0246	6.1745
6.9493	5.8008
6.8755	5.6675
6.8034	5.8112
6.7327	6.1281
6.6634	6.6652
6.5956	7.3519
6.5292	8.0482
6.464	8.6731
6.4002	8.2814
6.3376	7.1291
6.2762	4.1282
6.216	2.7722
6.157	2.3968
6.099	2.0319
6.0421	1.7752
5.9863	1.595
5.9315	1.4765
5.8777	1.487
5.8249	1.5672
5.773	1.5789
5.722	1.5594
5.6719	1.5031
5.6227	1.4057
5.5744	1.324
5.5268	1.3027
5.4801	1.3757
5.4341	1.5796
5.3889	1.5431
5.3445	1.4929
5.3008	1.5369
5.2578	1.6542
5.2154	1.904
5.1738	1.9921
5.1328	1.9859
5.0925	1.9559
5.0528	1.939
5.0137	1.9878
4.9752	2.1136
4.9373	2.407
4.9	3.0483
4.8632	4.0571
4.827	4.6572
4.7913	5.0226
4.7561	5.1503
4.7215	4.926
4.6873	4.2459
4.6536	3.8743
4.6205	4.0136
4.5877	4.4668
4.5555	4.8474
4.5237	4.9428
4.4923	4.8509
4.4614	4.6944
4.4309	4.9355
4.4008	5.519
4.3711	6.139
4.3418	6.2723
4.3129	6.1972
4.2844	6.2273
4.2563	6.5326
4.2285	6.6941
4.2011	6.8778
4.174	6.8738
4.1473	6.708
4.1209	6.6057
4.0949	6.2761
4.0692	5.546
4.0438	4.4465
4.0187	3.274
3.994	2.5401
3.9695	2.2268
3.9453	2.228
3.9214	2.291
3.8979	2.4653
3.8746	2.5981
3.8515	2.9154
3.8288	2.918
3.8063	2.8141
3.7841	3.2534
3.7621	4.1521
3.7404	5.3745
3.7189	5.9031
3.6977	6.111
3.6767	6.2003
3.656	6.1364
3.6355	5.9829
3.6152	5.7849
3.5951	5.5268
3.5753	5.1583
3.5557	4.6653
3.5363	4.2317
3.5171	3.5217
3.4981	2.955
3.4793	2.6928
3.4607	2.613
3.4423	2.6559
3.4241	2.7795
3.4061	2.7823
3.3883	2.8427
3.3707	2.8484
3.3533	2.7651
3.336	2.8127
3.3189	2.7767
3.302	2.9022
3.2853	3.174
3.2687	3.2183
3.2523	3.184
3.2361	3.1684
3.22	3.1475
3.204	3.0985
3.1883	3.031
3.1727	3.013
3.1572	2.9732
3.1419	2.9356
3.1268	2.9349
3.1117	2.8851
3.0969	2.8479
3.0821	2.8522
3.0675	2.8506
3.0531	2.8271
3.0388	2.8411
3.0246	2.8254
3.0105	2.8181
2.9966	2.8148
2.9828	2.8577
2.9692	2.8051
2.9556	2.8276
2.9422	2.869
2.9289	2.856
2.9157	2.8371
2.9027	2.8738
2.8897	2.8958
2.8769	2.9318
2.8642	2.986
2.8516	3.0426
2.8391	3.0947
2.8267	3.1428
2.8144	3.2084
2.8022	3.269
2.7902	3.2591
2.7782	3.3505
2.7664	3.538
2.7546	3.9795
2.7429	4.7242
2.7314	6.1016
2.7199	8.0404
2.7085	10.8518
2.6973	13.6041
2.6861	16.0367
2.675	18.0631
2.664	19.7604
2.6531	20.9615
2.6423	21.833
2.6315	22.5195
2.6209	23.0225
2.6103	23.418
2.5999	23.6283
2.5895	23.6825
2.5792	23.6105
2.569	23.4057
2.5588	22.8506
2.5487	21.6116
2.5388	19.8807
2.5289	18.5595
2.519	18.271
2.5093	18.6675
2.4996	19.4269
2.49	20.3889
2.4805	21.2635
2.471	21.9936
2.4616	22.8473
2.4523	24.0245
2.4431	25.4847
2.4339	26.808
2.4248	28.0004
2.4157	29.036
2.4068	29.6754
2.3979	30.3607
2.389	30.9362
2.3802	31.3925
2.3715	31.6237
2.3629	31.3857
2.3543	30.4851
2.3458	29.1056
2.3373	27.7783
2.3289	27.0628
2.3206	26.9766
2.3123	27.1838
2.3041	27.5218
2.2959	27.9762
2.2878	28.3776
2.2798	28.7954
2.2718	29.0523
2.2638	29.6842
2.2559	30.3498
2.2481	30.9921
2.2403	31.5792
2.2326	31.95
2.225	32.2797
2.2173	32.5065
2.2098	32.8414
2.2023	33.1575
2.1948	33.6887
2.1874	34.286
2.18	35.018
2.1727	35.6164
2.1655	36.1085
2.1583	36.2641
2.1511	36.4905
2.144	36.6274
2.1369	36.7917
2.1299	36.9193
2.1229	36.9653
2.116	37.1012
2.1091	37.2087
2.1023	37.2601
2.0955	37.2175
2.0887	37.1772
2.082	37.3899
2.06	37.3391
2.028	36.4042
1.996	35.0291
1.964	33.068
1.932	31.4546
1.9	32.5357
1.868	39.9502
1.836	42.0731
1.804	42.6592
1.772	42.9209
1.74	43.2017
1.708	43.2381
1.676	43.1783
1.644	43.2909
1.612	43.3378
1.58	43.9092
1.548	42.9879
1.516	42.4142
1.484	41.7176
1.452	41.224
1.42	40.7201
1.388	42.0641
1.356	43.4709
1.324	43.8208
1.292	43.5781
1.26	43.2087
1.228	43.5783
1.196	43.0238
1.164	42.7201
1.132	42.7226
1.1	42.3494
1.068	42.1984
1.036	41.4732
1.004	41.9543
0.972	41.6939
0.94	42.3014
0.908	42.1058
0.876	42.1746
0.844	42.2942
0.812	41.1572
0.795	40.8341
0.787	40.6175
0.779	39.9563
0.771	39.66
0.763	39.1021
0.755	38.5349
0.747	37.6019
0.739	37.1719
0.731	36.4614
0.723	35.883
0.715	35.2838
0.707	34.3552
0.699	33.7404
0.691	32.7433
0.683	32.0403
0.675	31.0987
0.667	30.6478
0.659	29.7469
0.651	29.2487
0.643	28.4969
0.635	27.6022
0.627	27.0245
0.619	26.0052
0.611	24.6777
0.603	23.9881
0.595	23.6196
0.587	22.8613
0.579	22.8135
0.571	21.5782
0.563	20.9635
0.555	19.7984
0.547	19.2786
0.539	18.9048
0.531	18.0108
0.523	17.4447
0.515	16.8527
0.507	16.1734
0.499	15.3879
0.491	14.9218
0.483	14.4925
0.475	14.0804
0.467	13.2661
0.459	12.7214
0.451	11.8272
0.443	11.3366
0.435	10.7002
0.427	10.2637
0.419	9.6757
0.411	8.8416
0.403	8.319
