Name: Graphite Schist
Type: rock
Class: Metamorphic
Subclass: Schist
Particle Size: Fine
Sample No.: schist10
Owner: JHU
Wavelength Range: All
Origin: Sample No. 397, The Hunt and Salisbury Collection at the U.S.Geological Survey, Denver, Co.
Description: This rock contains coarse, irregular bands of brown, tan and gray material.  Microscopically there are finer grains of calcite surrounded and enmeshed in a network of graphite bands and veins. There are also larger recrystallized calcite grains which are not associated with the graphite.  Modes for this rock gave 62.5% calcite and 37.5% graphite.  Particle size was 0-75 Micrometer. Original ASTER Spectral Library name was jhu.becknic.rock.metamorphic.schist.fine.schist10.spectrum.txt
Measurement: Directional (10 Degree) Hemispherical Reflectance
X Units: Wavelength (micrometers)
Y Units: Reflectance (percent)
wavelength	value
14.983	15.792
14.645	16.891
14.321	15.992
14.011	2.5671
13.715	16.096
13.43	18.285
13.158	18.266
12.896	17.277
12.644	17.017
12.402	17.287
12.169	17.367
11.945	17.278
11.729	13.326
11.52	7.0112
11.319	5.2251
11.125	12.447
10.937	13.538
10.755	13.442
10.58	13.284
10.41	13.523
10.245	13.312
10.086	13.092
9.9313	12.874
9.7814	13.06
9.636	14.362
9.4948	15.661
9.3577	16.217
9.2245	17.433
9.095	19.121
8.9691	20.166
8.8467	20.507
8.7275	19.515
8.6116	15.905
8.4986	15.167
8.3886	16.399
8.2814	18.111
8.1769	18.527
8.075	17.013
7.9756	18.4
7.8786	17.121
7.784	16.336
7.6916	14.78
7.6014	11.811
7.5133	10.857
7.4272	9.3289
7.343	7.189
7.2607	4.9225
7.1803	3.934
7.1016	4.4029
7.0246	4.3243
6.9493	4.1421
6.8755	4.1966
6.8034	4.4474
6.7327	4.7891
6.6634	5.3802
6.5956	6.3149
6.5292	7.7361
6.464	9.4466
6.4002	8.2549
6.3376	5.7987
6.2762	4.7242
6.216	4.4974
6.157	4.4209
6.099	4.9843
6.0421	5.7977
5.9863	6.9084
5.9315	7.792
5.8777	8.9154
5.8249	9.466
5.773	9.9219
5.722	11.616
5.6719	14.385
5.6227	15.55
5.5744	3.2224
5.5268	16.07
5.4801	25.567
5.4341	29.895
5.3889	33.879
5.3445	36.02
5.3008	37.708
5.2578	38.771
5.2154	39.581
5.1738	40.422
5.1328	41.141
5.0925	39.919
5.0528	42.173
5.0137	42.287
4.9752	42.439
4.9373	42.505
4.9	42.678
4.8632	42.846
4.827	42.975
4.7913	42.988
4.7561	42.571
4.7215	40.69
4.6873	35.293
4.6536	35.783
4.6205	40.214
4.5877	41.172
4.5555	41.384
4.5237	41.44
4.4923	41.859
4.4614	42.779
4.4309	43.448
4.4008	43.71
4.3711	43.735
4.3418	43.104
4.3129	42.343
4.2844	39.805
4.2563	37.933
4.2285	39.86
4.2011	41.615
4.174	41.755
4.1473	41.143
4.1209	39.767
4.0949	37.98
4.0692	35.308
4.0438	29.165
4.0187	19.958
3.994	8.8635
3.9695	7.5265
3.9453	13.282
3.9214	17.471
3.8979	18.662
3.8746	19.268
3.8515	19.93
3.8288	23.833
3.8063	30.736
3.7841	37.364
3.7621	38.706
3.7404	39.05
3.7189	39.268
3.6977	39.118
3.6767	38.779
3.656	38.341
3.6355	37.928
3.6152	37.344
3.5951	36.314
3.5753	33.86
3.5557	33.063
3.5363	29.318
3.5171	19.655
3.4981	15.089
3.4793	12.175
3.4607	17.747
3.4423	18.729
3.4241	18.347
3.4061	18.06
3.3883	17.408
3.3707	16.951
3.3533	15.105
3.336	23.966
3.3189	27.913
3.302	28.806
3.2853	29.09
3.2687	29.173
3.2523	29.247
3.2361	29.266
3.22	29.107
3.204	28.909
3.1883	28.618
3.1727	28.271
3.1572	27.6
3.1419	27.291
3.1268	27.123
3.1117	26.545
3.0969	26.527
3.0821	26.603
3.0675	26.555
3.0531	26.406
3.0388	26.212
3.0246	25.954
3.0105	25.6
2.9966	25.239
2.9828	24.928
2.9692	24.499
2.9556	24.23
2.9422	24.016
2.9289	23.971
2.9157	24.086
2.9027	24.215
2.8897	24.374
2.8769	24.592
2.8642	24.883
2.8516	25.172
2.8391	25.508
2.8267	26.02
2.8144	26.521
2.8022	27.16
2.7902	28.021
2.7782	29.879
2.7664	31.994
2.7546	34.097
2.7429	36.409
2.7314	38.894
2.7199	40.498
2.7085	42.347
2.6973	43.386
2.6861	44.041
2.675	43.997
2.664	44.118
2.6531	44.583
2.6423	44.78
2.6315	44.364
2.6209	44.445
2.6103	44.564
2.5999	44.452
2.5895	44.326
2.5792	44.287
2.569	44.046
2.5588	43.539
2.5487	42.448
2.5388	41.37
2.5289	41.748
2.519	42.448
2.5093	42.666
2.4996	42.724
2.49	42.8
2.4805	42.987
2.471	43.294
2.4616	43.534
2.4523	43.697
2.4431	43.794
2.4339	43.837
2.4248	43.825
2.4157	43.838
2.4068	43.817
2.3979	43.729
2.389	43.709
2.3802	43.607
2.3715	43.446
2.3629	43.154
2.3543	42.699
2.3458	42.304
2.3373	42.076
2.3289	42.363
2.3206	42.463
2.3123	42.481
2.3041	42.458
2.2959	42.518
2.2878	42.637
2.2798	42.635
2.2718	42.709
2.2638	42.769
2.2559	42.819
2.2481	42.934
2.2403	42.825
2.2326	42.912
2.225	42.815
2.2173	42.807
2.2098	42.654
2.2023	42.809
2.1948	42.596
2.1874	42.563
2.18	42.539
2.1727	42.458
2.1655	42.336
2.1583	42.337
2.1511	42.328
2.144	42.277
2.1369	42.187
2.1299	42.139
2.1229	42.201
2.116	42.084
2.1091	41.922
2.1023	41.981
2.0955	41.837
2.0887	41.811
2.082	41.718
2.06	41.828
2.028	41.215
1.996	40.559
1.964	39.791
1.932	39.379
1.9	39.054
1.868	39.107
1.836	38.811
1.804	38.134
1.772	37.485
1.74	37.163
1.708	37.246
1.676	36.949
1.644	36.465
1.612	35.526
1.58	35.851
1.548	34.795
1.516	34.568
1.484	34.125
1.452	33.612
1.42	33.268
1.388	32.825
1.356	32.59
1.324	32.182
1.292	31.556
1.26	31.208
1.228	30.786
1.196	30.021
1.164	29.29
1.132	29.094
1.1	28.972
1.068	28.231
1.036	28.211
1.004	27.539
0.972	26.943
0.94	26.577
0.908	26.09
0.876	25.357
0.844	24.634
0.812	24.049
0.795	24.2
0.787	24.166
0.779	24.036
0.771	23.579
0.763	23.755
0.755	23.691
0.747	23.238
0.739	23.01
0.731	23.212
0.723	22.697
0.715	22.921
0.707	22.465
0.699	22.735
0.691	22.583
0.683	22.383
0.675	22.331
0.667	22.145
0.659	22.243
0.651	21.851
0.643	21.908
0.635	21.367
0.627	21.336
0.619	21.449
0.611	21.434
0.603	20.928
0.595	20.729
0.587	20.731
0.579	20.731
0.571	20.582
0.563	20.393
0.555	20.51
0.547	20.243
0.539	20.464
0.531	19.92
0.523	19.657
0.515	19.718
0.507	19.563
0.499	19.491
0.491	19.34
0.483	19.11
0.475	18.903
0.467	18.633
0.459	18.607
0.451	18.842
0.443	18.12
0.435	18.106
0.427	17.866
0.419	17.665
0.411	17.041
0.403	16.996
