Name: Gray Sandstone
Type: Rock
Class: Sedimentary
Subclass: Sandstone
Particle Size: Solid
Sample No.: Ward58
Owner: JPL
Wavelength Range: All
Origin: Ward's Collection of American Rocks.  Sample locality - Berea, Cuyahoga County, Ohio.
Description: A light-gray, fine-grained sandstone showing fine parallelbedding lines.Geologic age - Mississippian.Collected by:  Ward's Natural Science Original ASTER Spectral Library name was jpl.nicolet.rock.sedimentary.sandstone.solid.ward58.spectrum.txt
Measurement: Hemispherical reflectance
X Units: Wavelength (micrometers)
Y Units: Reflectance (percent)
wavelength	value
15.3871	3.1558
15.118	3.3011
14.8581	3.5381
14.6069	3.4282
14.3642	3.4732
14.1293	3.2072
13.9021	3.3279
13.682	4.0946
13.4687	4.1455
13.2621	4.946
13.0616	5.7122
12.8672	9.0864
12.6784	7.0715
12.4951	7.8597
12.317	1.9009
12.1439	2.1015
11.9757	3.0559
11.812	3.4855
11.6527	4.2195
11.4977	4.4762
11.3468	4.5772
11.1997	4.8801
11.0564	5.2654
10.9168	5.5489
10.7806	5.6187
10.6478	5.9537
10.5182	6.2535
10.3917	6.7177
10.2683	7.6336
10.1477	8.4217
10.0299	9.2507
9.9148	10.6682
9.8024	11.7912
9.6925	13.4323
9.585	15.902
9.4798	19.3856
9.377	28.7333
9.2763	36.6008
9.1778	37.5337
9.0814	36.5338
8.987	34.7673
8.8945	34.3606
8.8039	33.2881
8.7151	31.4226
8.6281	22.8921
8.5428	32.3719
8.4592	33.8574
8.3772	34.8486
8.2967	36.4608
8.2179	36.9982
8.1404	31.4838
8.0645	20.9334
7.9899	13.8218
7.9167	8.3345
7.8449	4.875
7.7743	3.3426
7.705	2.3767
7.6369	1.5414
7.57	1.0866
7.5043	1.1315
7.4397	0.9626
7.3762	0.7771
7.3138	0.7755
7.2524	0.8858
7.1921	1.0557
7.1327	1.059
7.0743	1.2134
7.0169	1.267
6.9604	1.2777
6.9047	1.3786
6.85	1.3577
6.7962	1.5381
6.7431	1.5578
6.6909	1.6529
6.6395	1.6119
6.5889	1.6648
6.539	1.6649
6.49	2.0069
6.4416	2.167
6.3939	2.1735
6.347	2.004
6.3007	1.7563
6.2551	1.6871
6.2101	1.5882
6.1658	1.7156
6.1222	1.863
6.0791	2.04
6.0366	2.249
5.9948	2.0925
5.9535	2.0464
5.9127	2.1536
5.8726	2.2909
5.8329	2.6684
5.7938	2.9231
5.7552	3.2427
5.7172	3.5038
5.6796	3.211
5.6425	2.6189
5.6059	2.4787
5.5698	2.4141
5.5341	2.6161
5.4989	2.7631
5.4641	3.0301
5.4298	3.0375
5.3959	2.612
5.3624	2.513
5.3294	2.4999
5.2967	2.637
5.2644	2.7622
5.2326	3.0354
5.2011	3.3835
5.17	3.4877
5.1392	3.4581
5.1088	3.5644
5.0788	3.5126
5.0491	3.4246
5.0198	3.5647
4.9908	3.732
4.9622	4.2342
4.9338	4.7154
4.9058	6.1624
4.8781	9.461
4.8508	12.5686
4.8237	14.6413
4.7969	16.2859
4.7704	17.7174
4.7443	18.9425
4.7184	19.1858
4.6927	16.9734
4.6674	17.6286
4.6423	20.5919
4.6175	23.1506
4.593	24.3051
4.5687	24.6217
4.5447	23.4415
4.5209	20.0081
4.4974	16.6006
4.4741	15.6021
4.451	16.6146
4.4282	17.875
4.4057	19.7136
4.3833	22.3644
4.3612	25.1915
4.3393	27.238
4.3176	27.6969
4.2962	27.3357
4.2749	27.5905
4.2539	28.9919
4.233	29.1062
4.2124	29.5131
4.192	29.7272
4.1717	30.8544
4.1517	31.8263
4.1319	32.8402
4.1122	33.9057
4.0927	35.175
4.0734	35.8952
4.0543	36.191
4.0354	35.8865
4.0166	35.5839
3.9981	35.5069
3.9796	36.1344
3.9614	36.8958
3.9433	37.7096
3.9254	38.3513
3.9077	38.4445
3.8901	38.1151
3.8726	37.8153
3.8554	37.5609
3.8382	37.5091
3.8213	38.1674
3.8045	38.4293
3.7878	38.2725
3.7713	37.9755
3.7549	37.7908
3.7386	37.4978
3.7225	37.8129
3.7066	37.9614
3.6907	38.7431
3.675	39.9184
3.6595	40.308
3.644	40.0226
3.6287	39.97
3.6136	39.61
3.5985	39.0967
3.5836	38.8042
3.5688	38.2048
3.5541	37.8453
3.5396	37.0556
3.5251	36.711
3.5108	35.6222
3.4966	35.2021
3.4825	35.0276
3.4685	34.564
3.4547	34.203
3.4409	33.2271
3.4273	32.0845
3.4137	30.9619
3.4003	30.7376
3.387	30.1325
3.3738	29.4065
3.3606	29.0006
3.3476	28.4081
3.3347	27.8412
3.3219	27.1171
3.3092	26.2342
3.2965	25.6771
3.284	24.9653
3.2716	24.2629
3.2593	23.339
3.247	22.7633
3.2348	21.9762
3.2228	21.4336
3.2108	20.4288
3.1989	19.9489
3.1871	19.0005
3.1754	18.217
3.1638	17.6644
3.1523	16.9307
3.1408	16.2068
3.1294	15.4647
3.1181	14.86
3.1069	14.471
3.0958	13.9093
3.0848	14.0383
3.0738	13.6334
3.0629	13.3282
3.0521	13.1939
3.0413	12.4154
3.0307	12.3207
3.0201	11.9801
3.0096	12.0231
2.9991	12.0888
2.9887	11.9205
2.9784	11.592
2.9682	11.4222
2.9581	11.6227
2.948	10.8162
2.9379	11.6152
2.928	11.1176
2.9181	11.4547
2.9083	11.0929
2.8985	11.5831
2.8888	11.6577
2.8792	12.0213
2.8697	11.9751
2.8602	12.4581
2.8507	12.4016
2.8413	12.6421
2.832	12.7676
2.8228	13.0045
2.8136	12.7571
2.8045	12.6191
2.7954	13.0879
2.7864	11.6477
2.7774	11.5018
2.7685	10.1087
2.7597	9.0846
2.7509	10.5952
2.7422	10.064
2.7335	11.3171
2.7249	12.1977
2.7163	14.5868
2.7078	14.5357
2.6994	19.3682
2.691	25.1813
2.6826	30.8022
2.6743	34.44
2.666	37.9122
2.6578	39.4721
2.6497	40.536
2.6416	42.2161
2.6336	43.1987
2.6256	44.0327
2.6176	44.9031
2.6097	44.937
2.6018	45.4631
2.594	46.1823
2.5863	45.5414
2.5785	45.3864
2.5709	45.9655
2.5633	46.0477
2.5557	46.0652
2.5481	46.1545
2.5406	46.5328
2.5332	46.4348
2.5258	46.5948
2.5184	46.7848
2.5111	46.9985
2.5038	47.1138
2.4966	47.1369
2.4894	47.3765
2.4823	48.124
2.4752	48.3176
2.4681	48.609
2.4611	48.5235
2.4541	48.6584
2.4471	49.1386
2.4402	49.525
2.4333	50.4877
2.4265	50.8904
2.4197	51.8959
2.413	52.3281
2.4063	52.4692
2.3996	52.5643
2.3929	52.2296
2.3863	51.2868
2.3798	51.8571
2.3732	52.0544
2.3667	51.928
2.3603	52.3184
2.3538	52.5791
2.3474	52.2024
2.3411	52.7794
2.3347	53.3143
2.3285	53.3778
2.3222	53.853
2.316	53.8171
2.3098	53.9912
2.3036	55.6369
2.2975	55.9098
2.2914	56.4531
2.2854	55.9028
2.2793	56.5759
2.2733	57.2144
2.2674	56.9291
2.2614	57.122
2.2555	57.6324
2.2497	57.128
2.2438	57.0426
2.238	57.7507
2.2322	56.6165
2.2265	56.8314
2.2208	54.9897
2.2151	53.5833
2.2094	46.7808
2.2038	51.4126
2.1982	53.3643
2.1926	53.3942
2.187	54.968
2.1815	55.25
2.176	55.0559
2.1706	55.2105
2.1651	54.9243
2.1597	54.4378
2.1543	55.7932
2.149	56.4308
2.1436	58.2441
2.1383	59.3233
2.1331	60.3393
2.1278	59.5475
2.1226	60.6548
2.1174	60.4614
2.1122	60.261
2.1071	60.3562
2.1019	61.5844
2.0968	61.1557
2.0918	60.5266
2.0867	60.4484
2.0817	61.699
2.0767	62.2671
2.0717	61.976
2.0667	62.2416
2.0618	61.1456
2.0569	60.9785
2.052	62.8576
2.0472	62.1963
2.0423	60.8416
2.0375	61.3674
2.0327	61.4289
2.028	61.7816
2.0232	62.057
2.0185	60.7635
2.0138	61.4173
2.0091	60.3069
2.0044	61.7562
1.9998	61.1998
