Name: Chalk
Type: Rock
Class: Sedimentary
Subclass: Limestone
Particle Size: Solid
Sample No.: Ward67
Owner: JPL
Wavelength Range: All
Origin: Ward's Collection of American Rocks.  Sample locality - Oktibbeha County, Mississippi.
Description: A soft, gray rock with earthy texture.Geologic age - Cretaceous.Collected by:  Ward's Natural Science Original ASTER Spectral Library name was jpl.nicolet.rock.sedimentary.limestone.solid.ward67.spectrum.txt
Measurement: Hemispherical reflectance
X Units: Wavelength (micrometers)
Y Units: Reflectance (percent)
wavelength	value
15.3871	2.3367
15.118	2.1679
14.8581	2.2139
14.6069	2.089
14.3642	2.1682
14.1293	2.7826
13.9021	1.661
13.682	2.4199
13.4687	2.6139
13.2621	2.6326
13.0616	2.8683
12.8672	2.9333
12.6784	2.8953
12.4951	2.9778
12.317	3.116
12.1439	3.1919
11.9757	3.5827
11.812	3.5434
11.6527	4.1235
11.4977	5.1045
11.3468	3.42
11.1997	4.2753
11.0564	3.5114
10.9168	3.1563
10.7806	3.372
10.6478	3.4752
10.5182	3.6949
10.3917	3.7248
10.2683	4.0862
10.1477	4.2849
10.0299	4.4512
9.9148	4.7106
9.8024	4.1387
9.6925	4.6885
9.585	4.373
9.4798	3.9423
9.377	3.8463
9.2763	3.8641
9.1778	3.9832
9.0814	3.798
8.987	3.7009
8.8945	4.2526
8.8039	5.0725
8.7151	5.4075
8.6281	5.6615
8.5428	6.3353
8.4592	7.248
8.3772	8.5118
8.2967	9.9067
8.2179	11.2449
8.1404	11.7878
8.0645	11.8795
7.9899	12.8256
7.9167	12.7562
7.8449	13.2439
7.7743	13.4292
7.705	13.4587
7.6369	12.3927
7.57	11.5982
7.5043	12.314
7.4397	12.0119
7.3762	11.4315
7.3138	10.5012
7.2524	9.7683
7.1921	9.0986
7.1327	8.9717
7.0743	9.8608
7.0169	9.4095
6.9604	9.3123
6.9047	9.1052
6.85	8.8231
6.7962	8.7104
6.7431	8.4778
6.6909	8.4004
6.6395	8.3727
6.5889	7.9944
6.539	7.2915
6.49	7.1295
6.4416	6.5796
6.3939	5.0759
6.347	3.645
6.3007	2.4426
6.2551	2.0666
6.2101	1.752
6.1658	1.6551
6.1222	1.6994
6.0791	1.8073
6.0366	1.9621
5.9948	2.3248
5.9535	2.5187
5.9127	2.7212
5.8726	3.2013
5.8329	3.3888
5.7938	3.4976
5.7552	3.6991
5.7172	4.1533
5.6796	4.649
5.6425	5.2872
5.6059	4.1766
5.5698	1.6362
5.5341	4.3316
5.4989	6.9875
5.4641	8.3864
5.4298	9.5483
5.3959	10.422
5.3624	11.2107
5.3294	12.0188
5.2967	12.8294
5.2644	13.7393
5.2326	14.4709
5.2011	15.1087
5.17	15.628
5.1392	16.174
5.1088	16.1521
5.0788	17.3977
5.0491	18.1443
5.0198	18.6992
4.9908	19.2097
4.9622	19.8061
4.9338	20.1803
4.9058	20.6162
4.8781	21.0959
4.8508	21.432
4.8237	21.755
4.7969	21.8861
4.7704	21.9985
4.7443	21.6021
4.7184	20.4365
4.6927	17.8317
4.6674	17.4792
4.6423	19.3609
4.6175	21.1598
4.593	21.9828
4.5687	22.19
4.5447	22.5204
4.5209	22.4977
4.4974	22.8903
4.4741	23.7022
4.451	24.3012
4.4282	24.9905
4.4057	25.5372
4.3833	26.1242
4.3612	26.2797
4.3393	26.2699
4.3176	26.2795
4.2962	26.1626
4.2749	25.9669
4.2539	26.8541
4.233	26.0828
4.2124	27.1674
4.192	27.9407
4.1717	27.8627
4.1517	27.5538
4.1319	27.0391
4.1122	26.1904
4.0927	25.1178
4.0734	23.6018
4.0543	21.0472
4.0354	15.8147
4.0166	11.3778
3.9981	6.4905
3.9796	4.8049
3.9614	5.396
3.9433	8.5425
3.9254	10.6944
3.9077	11.4371
3.8901	12.0449
3.8726	12.2953
3.8554	12.6304
3.8382	13.8613
3.8213	17.4685
3.8045	21.4928
3.7878	26.2153
3.7713	27.4161
3.7549	27.7849
3.7386	27.7674
3.7225	27.7189
3.7066	27.5201
3.6907	26.9535
3.675	26.57
3.6595	26.3393
3.644	25.6519
3.6287	25.5665
3.6136	25.1514
3.5985	24.4934
3.5836	23.7959
3.5688	22.2854
3.5541	21.6981
3.5396	19.4245
3.5251	15.3336
3.5108	11.5552
3.4966	9.9555
3.4825	8.6424
3.4685	10.3462
3.4547	12.4826
3.4409	12.6238
3.4273	12.1895
3.4137	11.895
3.4003	11.8475
3.387	11.5557
3.3738	11.0986
3.3606	10.6457
3.3476	10.9628
3.3347	15.4294
3.3219	16.5189
3.3092	17.2051
3.2965	17.07
3.284	17.0931
3.2716	16.9536
3.2593	16.9615
3.247	16.5651
3.2348	15.9673
3.2228	15.8032
3.2108	15.4989
3.1989	15.3514
3.1871	15.0596
3.1754	14.2831
3.1638	13.7688
3.1523	13.5599
3.1408	13.278
3.1294	12.9798
3.1181	12.5591
3.1069	12.4513
3.0958	12.0657
3.0848	12.2234
3.0738	11.8711
3.0629	11.4637
3.0521	11.7185
3.0413	11.5252
3.0307	11.4038
3.0201	11.7205
3.0096	11.3606
2.9991	11.5821
2.9887	10.9581
2.9784	10.7165
2.9682	10.6167
2.9581	10.8475
2.948	10.7002
2.9379	10.2478
2.928	10.1728
2.9181	11.0511
2.9083	11.1181
2.8985	11.3291
2.8888	11.6099
2.8792	10.82
2.8697	11.6795
2.8602	11.6933
2.8507	10.6375
2.8413	11.2624
2.832	10.7843
2.8228	10.2123
2.8136	9.7983
2.8045	10.5256
2.7954	10.0128
2.7864	9.5062
2.7774	9.0652
2.7685	8.002
2.7597	7.0123
2.7509	8.8405
2.7422	9.6055
2.7335	9.5257
2.7249	10.6625
2.7163	12.7218
2.7078	10.2905
2.6994	12.3622
2.691	22.8068
2.6826	32.3132
2.6743	36.0171
2.666	39.078
2.6578	39.4503
2.6497	40.6541
2.6416	41.3443
2.6336	41.8888
2.6256	42.4356
2.6176	42.893
2.6097	42.6364
2.6018	42.6917
2.594	43.6131
2.5863	43.2594
2.5785	43.4052
2.5709	43.1579
2.5633	43.7142
2.5557	42.3893
2.5481	41.7255
2.5406	41.2705
2.5332	41.026
2.5258	41.8748
2.5184	42.3322
2.5111	42.8513
2.5038	42.4319
2.4966	42.8582
2.4894	43.3954
2.4823	43.3612
2.4752	44.175
2.4681	44.1363
2.4611	45.0562
2.4541	45.2125
2.4471	44.9184
2.4402	45.2871
2.4333	45.3317
2.4265	45.6994
2.4197	46.5693
2.413	46.4943
2.4063	46.2479
2.3996	46.719
2.3929	46.9555
2.3863	46.6081
2.3798	46.6401
2.3732	47.0365
2.3667	46.7205
2.3603	46.2239
2.3538	46.466
2.3474	45.5675
2.3411	46.1184
2.3347	46.527
2.3285	46.6815
2.3222	46.5771
2.316	47.1326
2.3098	47.3365
2.3036	47.1372
2.2975	48.3656
2.2914	47.6068
2.2854	48.2337
2.2793	48.09
2.2733	48.6153
2.2674	48.8196
2.2614	48.4568
2.2555	48.7135
2.2497	49.0592
2.2438	49.4563
2.238	49.046
2.2322	48.8892
2.2265	50.1717
2.2208	48.5462
2.2151	48.8544
2.2094	48.1226
2.2038	48.1173
2.1982	48.8802
2.1926	48.1006
2.187	49.4147
2.1815	49.0608
2.176	49.182
2.1706	49.2538
2.1651	50.3636
2.1597	49.6827
2.1543	50.0788
2.149	49.8281
2.1436	50.6789
2.1383	50.5208
2.1331	50.336
2.1278	51.1617
2.1226	50.2283
2.1174	50.8186
2.1122	51.3972
2.1071	50.4199
2.1019	51.3299
2.0968	50.5528
2.0918	50.4847
2.0867	50.4226
2.0817	50.2625
2.0767	52.0055
2.0717	50.8547
2.0667	52.0624
2.0618	51.8226
2.0569	51.9869
2.052	49.6025
2.0472	49.6739
2.0423	49.599
2.0375	51.1173
2.0327	50.6904
2.028	51.3319
2.0232	50.6238
2.0185	51.7068
2.0138	52.0496
2.0091	50.8901
2.0044	52.3381
1.9998	50.7796
