Name: Alkali Basalt
Type: Rock
Class: Igneous
Subclass: Mafic
Particle Size: Solid
Sample No.: Mewy366
Owner: Lawrence Rowan, USGS Reston
Wavelength Range: All
Origin: Tiberias, Middle East
Description: Alkali basalt, fresh surface, early PlioceneSample was Whole rock chips. Original ASTER Spectral Library name was usgs.perknic.rock.igneous.mafic.solid.mewy366.spectrum.txt
Measurement: Directional Hemispherical Reflectance
X Units: Wavelength (micrometers)
Y Units: Reflectance (percent)
wavelength	value
14.051	2.7295
13.826	3.0488
13.609	2.9458
13.398	3.1621
13.193	2.9355
12.995	3.09
12.802	3.1621
12.616	3.193
12.434	3.4917
12.258	3.8625
12.086	4.3775
11.92	4.6144
11.757	5.0367
11.6	5.7577
11.446	6.4169
11.297	7.1173
11.151	7.4881
11.009	7.8589
10.87	8.4563
10.735	8.4357
10.604	8.137
10.475	8.0546
10.35	8.4048
10.227	8.1988
10.108	8.4563
9.991	8.8065
9.877	8.8786
9.765	8.9919
9.656	8.5593
9.549	8.0649
9.445	7.6117
9.343	7.1482
9.243	6.9628
9.145	7.0658
9.049	7.2512
8.956	7.313
8.864	7.1379
8.774	6.4581
8.686	6.2315
8.599	6.1697
8.515	5.9534
8.431	5.665
8.35	5.3766
8.27	4.2848
8.192	2.8634
8.115	1.957
8.039	1.5347
7.965	1.4626
7.893	1.4214
7.821	1.4832
7.751	1.545
7.682	1.5759
7.614	1.6274
7.548	1.8025
7.483	1.8849
7.418	1.9055
7.355	1.9467
7.293	2.0291
7.232	2.1321
7.172	2.2248
7.113	2.3484
7.055	2.4411
6.998	2.5441
6.942	2.6162
6.886	2.6059
6.832	2.6677
6.778	2.7913
6.726	2.8325
6.674	2.8943
6.623	2.8737
6.572	2.9252
6.523	2.9458
6.474	3.0179
6.426	3.0076
6.378	3.0282
6.332	3.0385
6.286	3.1106
6.24	3.1209
6.195	3.0385
6.151	2.987
6.108	2.9046
6.065	2.9355
6.023	3.0797
5.981	3.2342
5.94	3.3372
5.899	3.5638
5.859	3.6668
5.82	3.7801
5.781	3.9964
5.743	4.0479
5.705	4.0273
5.667	4.1921
5.63	4.2539
5.594	4.326
5.558	4.3981
5.523	4.5114
5.487	4.635
5.453	4.7895
5.419	4.7689
5.385	4.9028
5.352	4.9749
5.319	5.0779
5.286	5.2015
5.254	5.3663
5.222	5.4487
5.191	5.6856
5.16	5.7989
5.129	5.8916
5.099	6.0358
5.069	6.2315
5.04	6.3963
5.01	6.4684
4.981	6.6744
4.953	6.8907
4.925	7.0452
4.897	7.1894
4.869	7.2821
4.842	7.416
4.815	7.5808
4.788	7.6838
4.762	7.8383
4.736	7.9928
4.71	8.1782
4.684	8.4048
4.659	8.652
4.634	8.8168
4.61	9.064
4.585	9.2082
4.561	9.5069
4.537	9.7129
4.513	9.9807
4.49	10.1867
4.467	10.3412
4.444	10.5472
4.421	10.7841
4.398	10.9592
4.376	11.0725
4.354	11.2991
4.332	11.4021
4.311	11.6081
4.289	11.5875
4.268	11.7317
4.247	11.9583
4.226	11.9377
4.206	12.5454
4.185	12.6587
4.165	12.7205
4.145	12.9986
4.126	13.1222
4.106	13.1222
4.086	13.2664
4.067	13.3076
4.048	13.493
4.029	13.5857
4.011	13.5445
3.992	13.7505
3.974	13.8432
3.956	13.8844
3.938	13.9462
3.92	14.0183
3.902	13.8741
3.884	14.0595
3.867	14.0698
3.85	14.1625
3.833	14.2346
3.816	14.111
3.799	14.1625
3.782	14.2243
3.766	14.1522
3.75	14.2037
3.733	14.1419
3.717	14.008
3.702	14.1934
3.686	14.111
3.67	13.9771
3.655	14.0801
3.639	13.905
3.624	13.8432
3.609	13.8535
3.594	13.8329
3.579	13.7608
3.564	13.6166
3.549	13.493
3.535	13.4415
3.521	13.2664
3.506	12.978
3.492	13.0192
3.478	12.8544
3.464	12.772
3.45	12.7205
3.437	12.5557
3.423	12.257
3.409	12.2158
3.396	12.2982
3.383	12.0098
3.37	12.0304
3.357	11.7935
3.344	11.7832
3.331	11.8347
3.318	11.6081
3.305	11.536
3.293	11.3609
3.28	11.1961
3.268	11.0416
3.255	10.7944
3.243	10.7532
3.231	10.5678
3.219	10.3721
3.207	10.2073
3.195	10.0528
3.183	9.9086
3.172	9.7335
3.16	9.579
3.149	9.4863
3.137	9.476
3.126	9.1876
3.115	9.1773
3.103	9.2391
3.092	8.961
3.081	9.0743
3.07	8.9301
3.06	8.858
3.049	8.8374
3.038	8.8168
3.027	8.8065
3.017	8.9095
3.006	8.5902
2.996	8.652
2.986	8.6829
2.975	8.6314
2.965	8.3533
2.955	8.4563
2.945	8.4048
2.935	8.4975
2.925	8.6726
2.915	8.5284
2.905	8.652
2.896	8.7653
2.886	8.7344
2.876	8.7035
2.867	9.064
2.857	9.0022
2.848	8.9713
2.838	8.7241
2.829	8.5799
2.82	8.4769
2.811	8.4975
2.802	8.2606
2.793	8.5387
2.784	8.755
2.775	9.1155
2.766	9.5687
2.757	9.6717
2.748	10.2279
2.74	10.9489
2.731	12.0716
2.722	13.2149
2.714	14.0389
2.705	15.038
2.697	15.8208
2.688	16.7684
2.68	17.1392
2.672	17.4997
2.664	17.8705
2.655	18.3443
2.647	18.0559
2.639	18.643
2.631	17.7366
2.623	18.1692
2.615	17.7984
2.607	18.2619
2.599	18.4267
2.592	18.0456
2.584	18.1589
2.576	18.2516
2.569	18.2619
2.561	17.6851
2.553	18.4061
2.546	18.5709
2.538	18.5091
2.531	18.5606
2.524	18.3031
2.516	18.5297
2.509	18.5194
2.502	18.54
2.48	18.2242
2.456	18.5602
2.432	18.7295
2.408	18.7908
2.384	18.7037
2.36	19.2829
2.336	19.175
2.312	19.2712
2.288	19.2658
2.264	19.6043
2.24	19.6122
2.216	20.0322
2.192	20.5263
2.168	20.7554
2.144	20.9966
2.12	20.9273
2.096	20.9761
2.072	21.3152
2.048	21.5431
2.024	21.7564
2	21.9619
1.976	21.9917
1.952	22.1968
1.928	22.0872
1.904	21.9677
1.88	22.9541
1.856	23.2899
1.832	23.502
1.808	23.7005
1.784	23.9804
1.76	24.054
1.736	24.1941
1.712	24.2671
1.688	24.3739
1.664	24.4475
1.64	24.4413
1.616	24.3912
1.592	24.3895
1.568	24.3542
1.544	24.2818
1.52	24.1744
1.496	24.0213
1.472	23.8566
1.448	23.7593
1.424	23.4824
1.4	23.5282
1.376	23.4026
1.352	23.2755
1.328	23.3486
1.304	23.2493
1.28	23.196
1.256	23.2079
1.232	23.1497
1.208	23.1359
1.184	23.0405
1.16	22.9505
1.136	22.6315
1.112	22.2956
1.088	21.8998
1.064	21.6789
1.04	21.5853
1.016	21.8101
0.992	22.1283
0.968	22.6653
0.944	23.3188
0.92	24.3069
0.896	25.0879
0.872	25.5638
0.848	26.2776
0.824	26.6245
0.8	26.6738
0.776	26.8955
0.752	26.9906
0.728	27.0346
0.704	27.1013
0.68	27.0843
0.656	27.0119
0.632	27.0086
0.608	27.0437
0.584	26.9677
0.56	26.5829
0.536	26.2193
0.512	25.8286
0.488	25.4606
0.464	25.1425
0.44	24.4803
0.416	23.8801
