Name: Granite
Type: rock
Class: Igneous
Subclass: Felsic
Particle Size: Fine
Sample No.: Granite_H3
Owner: JHU
Wavelength Range: All
Origin: From Santa Rita Mountains, Arizona via Smithsonian (Cat No.NMNH 113640-13)
Description: Sample from which powder was derived is a light gray, medium- to coarse-grained rock consisting of gray plagioclase, white feldspar, quartz, and chloritized biotite.Particle size was 0-75 micrometers. Original ASTER Spectral Library name was jhu.becknic.rock.igneous.felsic.fine.granit3.spectrum.txt
Measurement: Directional (10 degree) hemispherical reflectance
X Units: Wavelength (micrometers)
Y Units: Reflectance (percent)
wavelength	value
14.011	0.7021
13.715	1.5037
13.43	1.4363
13.158	1.5818
12.896	1.8696
12.644	1.6857
12.402	2.7844
12.169	5.2314
11.945	7.166
11.729	7.9683
11.52	8.0182
11.319	7.7238
11.125	7.1431
10.937	6.2934
10.755	5.3002
10.58	4.5135
10.41	4.0088
10.245	3.8758
10.086	3.961
9.9313	4.2689
9.7814	4.0507
9.636	4.1796
9.4948	4.1486
9.3577	4.8127
9.2245	5.1239
9.095	4.6169
8.9691	4.3551
8.8467	4.5115
8.7275	4.6169
8.6116	4.3746
8.4986	5.2132
8.3886	5.4602
8.2814	5.562
8.1769	5.4893
8.075	3.9335
7.9756	2.6817
7.8786	1.9188
7.784	1.6379
7.6916	1.6483
7.6014	1.741
7.5133	2.0454
7.4272	2.3789
7.343	2.7778
7.2607	3.3244
7.1803	3.9996
7.1016	4.8187
7.0246	5.2894
6.9493	5.722
6.8755	6.1877
6.8034	6.4092
6.7327	6.6408
6.6634	7.3335
6.5956	7.7093
6.5292	8.2662
6.464	9.6717
6.4002	9.8531
6.3376	9.063
6.2762	7.9753
6.216	7.3109
6.157	7.8496
6.099	9.2002
6.0421	9.9433
5.9863	10.297
5.9315	10.147
5.8777	11.176
5.8249	12.086
5.773	12.415
5.722	12.49
5.6719	12.027
5.6227	11.148
5.5744	11.086
5.5268	12.676
5.4801	14.798
5.4341	15.695
5.3889	14.159
5.3445	12.983
5.3008	13.833
5.2578	15.74
5.2154	18.91
5.1738	20.555
5.1328	21.38
5.0925	22.232
5.0528	22.194
5.0137	22.457
4.9752	24.16
4.9373	26.739
4.9	29.164
4.8632	32.209
4.827	33.475
4.7913	33.524
4.7561	34.011
4.7215	34.791
4.6873	34.687
4.6536	35.571
4.6205	36.972
4.5877	38.228
4.5555	39.37
4.5237	40.102
4.4923	40.227
4.4614	40.974
4.4309	42.18
4.4008	43.287
4.3711	44.505
4.3418	45.554
4.3129	46.342
4.2844	46.905
4.2563	47.536
4.2285	47.92
4.2011	48.235
4.174	48.575
4.1473	48.854
4.1209	49.16
4.0949	49.4
4.0692	49.553
4.0438	49.487
4.0187	49.154
3.994	48.657
3.9695	48.449
3.9453	49.194
3.9214	49.662
3.8979	49.729
3.8746	49.763
3.8515	49.812
3.8288	49.999
3.8063	50.187
3.7841	50.287
3.7621	50.21
3.7404	50.067
3.7189	49.993
3.6977	49.989
3.6767	49.893
3.656	49.824
3.6355	49.683
3.6152	49.458
3.5951	49.227
3.5753	48.931
3.5557	48.673
3.5363	48.263
3.5171	47.638
3.4981	47.006
3.4793	46.501
3.4607	46.442
3.4423	46.005
3.4241	45.353
3.4061	44.758
3.3883	44.234
3.3707	43.647
3.3533	43.017
3.336	42.628
3.3189	41.929
3.302	41.144
3.2853	40.261
3.2687	39.353
3.2523	38.39
3.2361	37.398
3.22	36.333
3.204	35.186
3.1883	34.049
3.1727	32.865
3.1572	31.691
3.1419	30.418
3.1268	29.258
3.1117	28.177
3.0969	27.144
3.0821	26.281
3.0675	25.52
3.0531	24.805
3.0388	24.098
3.0246	23.457
3.0105	22.657
2.9966	21.846
2.9828	21.18
2.9692	20.526
2.9556	20.17
2.9422	19.935
2.9289	19.891
2.9157	19.942
2.9027	20.163
2.8897	20.433
2.8769	20.783
2.8642	21.166
2.8516	21.431
2.8391	21.67
2.8267	21.864
2.8144	21.938
2.8022	22.135
2.7902	22.086
2.7782	21.981
2.7664	22.066
2.7546	22.869
2.7429	25.868
2.7314	29.747
2.7199	34.859
2.7085	40.002
2.6973	44.355
2.6861	47.175
2.675	48.177
2.664	48.889
2.6531	49.509
2.6423	49.715
2.6315	49.634
2.6209	49.683
2.6103	49.887
2.5999	49.855
2.5895	49.837
2.5792	49.902
2.569	49.72
2.5588	49.843
2.5487	49.834
2.5388	49.849
2.5289	49.86
2.519	49.846
2.5093	49.807
2.4996	49.774
2.49	49.892
2.4805	49.792
2.471	49.801
2.4616	49.923
2.4523	49.913
2.4431	49.905
2.4339	49.805
2.4248	49.751
2.4157	49.826
2.4068	49.949
2.3979	49.909
2.389	49.927
2.3802	49.865
2.3715	49.771
2.3629	49.818
2.3543	49.659
2.3458	49.747
2.3373	49.815
2.3289	49.784
2.3206	49.858
2.3123	49.983
2.3041	50.135
2.2959	50.164
2.2878	50.341
2.2798	50.304
2.2718	50.374
2.2638	50.253
2.2559	50.131
2.2481	50.314
2.2403	50.263
2.2326	50.332
2.225	50.43
2.2173	50.347
2.2098	50.352
2.2023	50.454
2.1948	50.403
2.1874	50.747
2.18	50.864
2.1727	51.02
2.1655	51.023
2.1583	51.106
2.1511	51.176
2.144	51.173
2.1369	51.199
2.1299	51.237
2.1229	51.363
2.116	51.378
2.1091	51.361
2.1023	51.414
2.0955	51.547
2.0887	51.575
2.082	51.595
2.06	52.112
2.028	51.22
1.996	50.342
1.964	49.783
1.932	49.265
1.9	49.252
1.868	49.706
1.836	50.34
1.804	50.001
1.772	49.688
1.74	50.064
1.708	50.043
1.676	49.736
1.644	49.817
1.612	49.619
1.58	49.334
1.548	49.503
1.516	48.984
1.484	48.527
1.452	48.768
1.42	48.568
1.388	48.779
1.356	48.917
1.324	48.055
1.292	49.013
1.26	47.785
1.228	48.431
1.196	47.77
1.164	47.602
1.132	48.211
1.1	48.121
1.068	48.107
1.036	47.971
1.004	48.414
0.972	48.049
0.94	47.988
0.908	47.876
0.876	47.678
0.844	47.496
0.812	47.382
0.795	46.6
0.787	46.496
0.779	46.38
0.771	46.209
0.763	46.268
0.755	45.951
0.747	45.677
0.739	45.918
0.731	45.656
0.723	45.796
0.715	45.245
0.707	45.282
0.699	45.174
0.691	45.425
0.683	45.383
0.675	44.759
0.667	44.717
0.659	44.957
0.651	44.455
0.643	44.46
0.635	44.502
0.627	44.171
0.619	44.255
0.611	44.213
0.603	43.821
0.595	43.82
0.587	43.641
0.579	43.408
0.571	43.074
0.563	42.516
0.555	41.181
0.547	40.971
0.539	40.613
0.531	40.568
0.523	40.147
0.515	39.549
0.507	39.285
0.499	39.098
0.491	38.689
0.483	38.315
0.475	37.795
0.467	37.438
0.459	37.383
0.451	37.054
0.443	36.603
0.435	36.19
0.427	35.459
0.419	34.441
0.411	34.042
0.403	33.689
