Name: Alkalic Granite
Type: rock
Class: Igneous
Subclass: Felsic
Particle Size: Solid
Sample No.: Granite_H1
Owner: JHU
Wavelength Range: All
Origin: From Quincy, Norfolk, Massachusetts via Ward's Scientific (Cat.No. W-4)
Description: A gray, medium- to coarse-grained rock composed of quartz, feldspar, and a mafic mineral. Original ASTER Spectral Library name was jhu.becknic.rock.igneous.felsic.solid.granit1.spectrum.txt
Measurement: Directional (10 degree) hemispherical reflectance
X Units: Wavelength (micrometers)
Y Units: Reflectance (percent)
wavelength	value
14.0112	7.2712
13.7147	6.7969
13.4304	5.5462
13.1577	6.5109
12.8959	8.0564
12.6443	6.1566
12.4023	5.9672
12.1694	3.5184
11.945	4.4602
11.7289	5.2645
11.5203	5.8746
11.3191	6.3077
11.1248	6.888
10.937	7.5494
10.7555	8.4016
10.5799	9.4692
10.4099	10.7531
10.2454	12.9506
10.0859	16.3333
9.9313	19.8733
9.7814	20.1878
9.636	22.0413
9.4948	23.5119
9.3577	27.5868
9.2245	30.5336
9.095	28.3051
8.9691	26.6001
8.8467	28.4319
8.7275	28.2285
8.6116	23.4363
8.4986	27.816
8.3886	26.6669
8.2814	23.4712
8.1769	18.9794
8.075	10.4753
7.9756	5.2556
7.8786	2.5823
7.784	1.6254
7.6916	1.1465
7.6014	0.9176
7.5133	0.8096
7.4272	0.7875
7.343	0.8499
7.2607	0.922
7.1803	1.0164
7.1016	1.1142
7.0246	1.2197
6.9493	1.2949
6.8755	1.3428
6.8034	1.4337
6.7327	1.4709
6.6634	1.5769
6.5956	1.6118
6.5292	1.6922
6.464	1.7414
6.4002	1.8065
6.3376	1.8347
6.2762	1.8278
6.216	1.8276
6.157	1.8636
6.099	1.9568
6.0421	2.0285
5.9863	2.0538
5.9315	2.0733
5.8777	2.148
5.8249	2.254
5.773	2.2903
5.722	2.3494
5.6719	2.3979
5.6227	2.3981
5.5744	2.4413
5.5268	2.5013
5.4801	2.64
5.4341	2.6784
5.3889	2.722
5.3445	2.7296
5.3008	2.7703
5.2578	2.8535
5.2154	2.9447
5.1738	3.0644
5.1328	3.126
5.0925	3.2592
5.0528	3.2771
5.0137	3.3811
4.9752	3.4676
4.9373	3.5943
4.9	3.7057
4.8632	3.9893
4.827	4.199
4.7913	4.2579
4.7561	4.4208
4.7215	4.5267
4.6873	4.4522
4.6536	4.6186
4.6205	4.9462
4.5877	5.1251
4.5555	5.2306
4.5237	5.2122
4.4923	5.142
4.4614	5.2711
4.4309	5.4534
4.4008	5.7371
4.3711	6.0719
4.3418	6.3663
4.3129	6.601
4.2844	6.7153
4.2563	6.9166
4.2285	7.0664
4.2011	7.2108
4.174	7.3633
4.1473	7.4934
4.1209	7.6621
4.0949	7.8106
4.0692	7.9188
4.0438	7.9781
4.0187	8.0332
3.994	8.1012
3.9695	8.1595
3.9453	8.299
3.9214	8.4098
3.8979	8.4215
3.8746	8.4251
3.8515	8.4605
3.8288	8.5605
3.8063	8.6217
3.7841	8.6514
3.7621	8.6498
3.7404	8.662
3.7189	8.7135
3.6977	8.7949
3.6767	8.9137
3.656	8.9545
3.6355	8.9657
3.6152	8.9873
3.5951	8.947
3.5753	8.9418
3.5557	8.9236
3.5363	8.846
3.5171	8.6353
3.4981	8.3052
3.4793	8.4278
3.4607	8.3688
3.4423	8.1584
3.4241	7.6652
3.4061	7.6329
3.3883	7.7379
3.3707	7.7412
3.3533	7.7963
3.336	7.7168
3.3189	7.6127
3.302	7.4974
3.2853	7.3308
3.2687	7.1927
3.2523	7.0186
3.2361	6.8496
3.22	6.6974
3.204	6.5268
3.1883	6.4008
3.1727	6.2121
3.1572	6.1385
3.1419	5.9749
3.1268	5.9055
3.1117	5.8015
3.0969	5.714
3.0821	5.719
3.0675	5.5997
3.0531	5.5654
3.0388	5.5746
3.0246	5.4878
3.0105	5.5385
2.9966	5.4825
2.9828	5.4785
2.9692	5.4668
2.9556	5.4649
2.9422	5.4849
2.9289	5.4392
2.9157	5.5481
2.9027	5.6702
2.8897	5.6934
2.8769	5.828
2.8642	5.8441
2.8516	5.8875
2.8391	6.0037
2.8267	6.1763
2.8144	6.2402
2.8022	6.4036
2.7902	6.5334
2.7782	6.7335
2.7664	6.8325
2.7546	7.206
2.7429	7.7325
2.7314	8.5945
2.7199	9.6213
2.7085	10.5122
2.6973	11.3264
2.6861	11.9268
2.675	12.1997
2.664	12.356
2.6531	12.3605
2.6423	12.4556
2.6315	12.5329
2.6209	12.6874
2.6103	12.6257
2.5999	12.7221
2.5895	12.7439
2.5792	12.7368
2.569	12.8186
2.5588	12.7668
2.5487	12.84
2.5388	12.8231
2.5289	12.8348
2.519	12.9205
2.5093	12.8236
2.4996	12.9225
2.49	12.9778
2.4805	13.0743
2.471	13.086
2.4616	13.1737
2.4523	13.214
2.4431	13.3213
2.4339	13.297
2.4248	13.2684
2.4157	13.326
2.4068	13.3758
2.3979	13.3973
2.389	13.4868
2.3802	13.4413
2.3715	13.521
2.3629	13.4812
2.3543	13.5314
2.3458	13.4667
2.3373	13.4843
2.3289	13.5302
2.3206	13.702
2.3123	13.6329
2.3041	13.7243
2.2959	13.8592
2.2878	13.7774
2.2798	13.8457
2.2718	13.7953
2.2638	13.9317
2.2559	13.8839
2.2481	13.8194
2.2403	13.8764
2.2326	13.8792
2.225	13.8945
2.2173	13.9364
2.2098	13.8255
2.2023	13.9303
2.1948	13.9476
2.1874	13.9041
2.18	13.9596
2.1727	13.9192
2.1655	13.9737
2.1583	13.9561
2.1511	13.957
2.144	13.9108
2.1369	13.9865
2.1299	13.8855
2.1229	13.9308
2.116	13.9312
2.1091	13.9275
2.1023	13.8424
2.0955	13.8633
2.0887	13.9399
2.082	13.8919
2.06	13.6912
2.028	13.7259
1.996	13.4994
1.964	13.3435
1.932	13.1107
1.9	13.6343
1.868	14.2849
1.836	14.4897
1.804	14.4816
1.772	14.5362
1.74	14.6796
1.708	14.6852
1.676	14.7736
1.644	14.8681
1.612	14.9042
1.58	14.9884
1.548	15.015
1.516	15.0085
1.484	14.7577
1.452	15.0457
1.42	15.0005
1.388	14.8959
1.356	15.1974
1.324	15.3633
1.292	15.3297
1.26	15.416
1.228	15.1665
1.196	15.3006
1.164	15.3459
1.132	15.331
1.1	15.4516
1.068	15.5328
1.036	15.416
1.004	15.6181
0.972	15.7586
0.94	15.9171
0.908	16.0865
0.876	15.9104
0.844	16.1108
0.812	16.4529
0.795	16.1019
0.787	16.383
0.779	15.9922
0.771	16.039
0.763	16.1654
0.755	16.116
0.747	16.4387
0.739	16.1375
0.731	16.1384
0.723	16.2323
0.715	16.3725
0.707	16.3731
0.699	16.2797
0.691	16.0538
0.683	16.0293
0.675	16.3756
0.667	16.1582
0.659	16.7541
0.651	16.4441
0.643	16.8477
0.635	16.7501
0.627	16.6358
0.619	16.603
0.611	16.9718
0.603	17.0347
0.595	16.8941
0.587	16.9732
0.579	17.1295
0.571	16.994
0.563	17.1029
0.555	17.0925
0.547	17.0238
0.539	17.2246
0.531	17.0333
0.523	16.9105
0.515	16.7953
0.507	16.394
0.499	16.7417
0.491	16.2366
0.483	16.4159
0.475	15.9795
0.467	15.6906
0.459	15.6121
0.451	15.3246
0.443	15.3958
0.435	14.8592
0.427	14.5913
0.419	14.1264
0.411	13.4665
0.403	13.0549
