Name: Hypersthene Gabbro
Type: Rock
Class: Igneous
Subclass: Mafic
Particle Size: Solid
Sample No.: Ward41
Owner: JPL
Wavelength Range: VSWIR
Origin: Ward's Collection of American Rocks.  Sample locality - Salem, Essex County, Massachusetts.
Description: A coarse-textured, dark-colored rock composed of plagioclase,hornblende and biotite.Geologic age - Early Paleozoic.Collected by:  Ward's Natural Science Original ASTER Spectral Library name was jpl.perkin.rock.igneous.mafic.solid.ward41.spectrum.txt
Measurement: Hemispherical reflectance
X Units: Wavelength (micrometers)
Y Units: Reflectance (percent)
wavelength	value
2.5	13.3332
2.494	13.3354
2.488	13.2666
2.482	13.3352
2.476	13.2963
2.47	13.4031
2.464	13.5075
2.458	13.5333
2.452	13.5298
2.446	13.4959
2.44	13.6592
2.434	13.6434
2.428	13.6807
2.422	13.7223
2.416	13.7498
2.41	13.7519
2.404	13.8315
2.398	13.8483
2.392	13.905
2.386	13.9025
2.38	13.997
2.374	14.0063
2.368	14.0359
2.362	14.0232
2.356	13.9713
2.35	13.9324
2.344	13.9611
2.338	13.9741
2.332	14.0121
2.326	14.0214
2.32	14.1521
2.314	14.1965
2.308	14.33
2.302	14.4229
2.296	14.5474
2.29	14.6047
2.284	14.6734
2.278	14.7157
2.272	14.7329
2.266	14.7596
2.26	14.7533
2.254	14.8184
2.248	14.8624
2.242	14.968
2.236	15.0392
2.23	15.0716
2.224	15.0742
2.218	15.0566
2.212	15.1249
2.206	15.0307
2.2	15.057
2.194	15.1195
2.188	15.1993
2.182	15.3319
2.176	15.4675
2.17	15.514
2.164	15.642
2.158	15.6719
2.152	15.7944
2.146	15.7473
2.14	15.8505
2.134	15.8319
2.128	15.7966
2.122	15.7841
2.116	15.8466
2.11	15.8164
2.104	15.7521
2.098	15.7638
2.092	15.745
2.086	15.7376
2.08	15.808
2.074	15.8026
2.068	15.8295
2.062	15.7935
2.056	15.7905
2.05	15.819
2.044	15.8397
2.038	15.7458
2.032	15.8374
2.026	15.738
2.02	15.7625
2.014	15.7616
2.008	15.7054
2.002	15.7108
1.996	15.6238
1.99	15.6128
1.984	15.5621
1.978	15.5343
1.972	15.6078
1.966	15.4596
1.96	15.487
1.954	15.4352
1.948	15.4716
1.942	15.2675
1.936	15.4227
1.93	15.4221
1.924	15.4725
1.918	15.4577
1.912	15.5277
1.906	15.7302
1.9	15.817
1.894	16.1175
1.888	16.2709
1.882	16.3736
1.876	16.5118
1.87	16.5811
1.864	16.6582
1.858	16.699
1.852	16.7245
1.846	16.6355
1.84	16.729
1.834	16.7248
1.828	16.6739
1.822	16.7041
1.816	16.7356
1.81	16.7027
1.804	16.7197
1.798	16.6948
1.792	16.6769
1.786	16.6559
1.78	16.7405
1.774	16.7057
1.768	16.7613
1.762	16.7713
1.756	16.8032
1.75	16.7794
1.744	16.7537
1.738	16.8157
1.732	16.8083
1.726	16.8101
1.72	16.819
1.714	16.8018
1.708	16.733
1.702	16.8605
1.696	16.7971
1.69	16.8263
1.684	16.7232
1.678	16.8
1.672	16.7658
1.666	16.7699
1.66	16.7168
1.654	16.7964
1.648	16.7201
1.642	16.8312
1.636	16.7871
1.63	16.7403
1.624	16.7359
1.618	16.8004
1.612	16.7177
1.606	16.7609
1.6	16.7738
1.594	16.78
1.588	16.7059
1.582	16.6463
1.576	16.7422
1.57	16.6316
1.564	16.6718
1.558	16.6315
1.552	16.5568
1.546	16.6656
1.54	16.6175
1.534	16.6346
1.528	16.5718
1.522	16.5484
1.516	16.505
1.51	16.5936
1.504	16.5218
1.498	16.5065
1.492	16.4425
1.486	16.4806
1.48	16.3731
1.474	16.3857
1.468	16.2949
1.462	16.2825
1.456	16.2395
1.45	16.2465
1.444	16.2685
1.438	16.2291
1.432	16.1479
1.426	16.1323
1.42	16.0494
1.414	15.9215
1.408	15.9138
1.402	15.9904
1.396	16.1358
1.39	16.2948
1.384	16.3444
1.378	16.3109
1.372	16.3672
1.366	16.2933
1.36	16.2718
1.354	16.3412
1.348	16.2571
1.342	16.2644
1.336	16.1983
1.33	16.2245
1.324	16.168
1.318	16.0867
1.312	16.1954
1.306	16.1136
1.3	16.0825
1.294	16.039
1.288	16.0929
1.282	16.0341
1.276	16.0753
1.27	16.0268
1.264	16.0244
1.258	15.9942
1.252	15.9152
1.246	15.9818
1.24	15.9134
1.234	15.9345
1.228	15.9158
1.222	15.9117
1.216	15.8932
1.21	15.8435
1.204	15.8521
1.198	15.8376
1.192	15.8665
1.186	15.8866
1.18	15.8207
1.174	15.7951
1.168	15.7498
1.162	15.8146
1.156	15.8572
1.15	15.8101
1.144	15.8642
1.138	15.8145
1.132	15.8664
1.126	15.8515
1.12	15.8946
1.114	15.8474
1.108	15.8189
1.102	15.8379
1.096	15.9297
1.09	15.9342
1.084	15.9145
1.078	15.8568
1.072	16.0171
1.066	15.9335
1.06	16.0051
1.054	16.0327
1.048	16.0317
1.042	16.065
1.036	16.151
1.03	16.1533
1.024	16.2159
1.018	16.2217
1.012	16.1546
1.006	16.1567
1	16.2103
0.994	16.2074
0.988	16.242
0.982	16.212
0.976	16.2509
0.97	16.1993
0.964	16.2756
0.958	16.3041
0.952	16.2115
0.946	16.2217
0.94	16.2721
0.934	16.1722
0.928	16.1945
0.922	16.1755
0.916	16.1975
0.91	16.1956
0.904	16.1952
0.898	16.1937
0.892	16.164
0.886	16.1852
0.88	16.1466
0.874	16.1764
0.868	16.1073
0.862	16.1206
0.856	15.6777
0.85	15.7159
0.844	15.7594
0.838	15.815
0.832	15.8634
0.826	15.8811
0.82	15.9086
0.814	15.9181
0.808	15.9276
0.802	15.9424
0.796	15.9252
0.79	15.9231
0.784	15.8919
0.778	15.8796
0.772	15.8399
0.766	15.815
0.76	15.7777
0.754	15.7524
0.748	15.7284
0.742	15.7024
0.736	15.6818
0.73	15.6759
0.724	15.6527
0.718	15.638
0.712	15.6361
0.706	15.633
0.7	15.6371
0.694	15.6395
0.688	15.645
0.682	15.6647
0.676	15.671
0.67	15.6925
0.664	15.7041
0.658	15.7194
0.652	15.7394
0.646	15.7595
0.64	15.7819
0.634	15.7955
0.628	15.8143
0.622	15.8335
0.616	15.848
0.61	15.8661
0.604	15.8711
0.598	15.879
0.592	15.8915
0.586	15.8755
0.58	15.8553
0.574	15.8196
0.568	15.7756
0.562	15.7123
0.556	15.5961
0.55	15.4942
0.544	15.3903
0.538	15.2687
0.532	15.1444
0.526	15.0058
0.52	14.857
0.514	14.6888
0.508	14.4983
0.502	14.3024
0.496	14.0935
0.49	13.9001
0.484	13.7134
0.478	13.5747
0.472	13.4428
0.466	13.3035
0.46	13.1646
0.454	12.9998
0.448	12.799
0.442	12.5698
0.436	12.3203
0.43	12.061
0.424	11.8081
0.418	11.5931
0.412	11.4024
0.406	11.2147
0.4	11.0274
