Name: Red Quartzite
Type: rock
Class: Metamorphic
Subclass: Quartzite
Particle Size: Fine
Sample No.: qtzite1
Owner: JHU
Wavelength Range: All
Origin: Sample No. 377, The Hunt and Salisbury Collection at the U.S.Geological Survey, Denver, Co.
Description: A well-compacted sample with medium-grained subangular to subrounded quartz grains and small amounts of interstitial calcite cement.  There is also a trace amount of secondary quartz cement   Fluid inclusions are common in the quartz with some grains showing strain, and trace amounts of feldspar are present.  The calcite cement itself is stained with ferruginous material and some clay.  Modal analyses gave 69% quartz, 25% calcite, 5% clay, 1% feldspar. Particle size was 0-75 Micrometer.    Original ASTER Spectral Library name was jhu.becknic.rock.metamorphic.quartzite.fine.qrtzit1.spectrum.txt
Measurement: Directional (10 Degree) Hemispherical Reflectance
X Units: Wavelength (micrometers)
Y Units: Reflectance (percent)
wavelength	value
14.983	6.0428
14.645	4.9854
14.321	2.748
14.011	4.6932
13.715	8.8749
13.43	8.2466
13.158	6.5662
12.896	4.5099
12.644	3.4599
12.402	3.1892
12.169	5.6492
11.945	9.5262
11.729	10.715
11.52	9.0577
11.319	7.9499
11.125	8.9931
10.937	6.3346
10.755	6.695
10.58	6.817
10.41	8.5294
10.245	8.501
10.086	7.1142
9.9313	5.5694
9.7814	5.0979
9.636	4.998
9.4948	5.587
9.3577	8.5836
9.2245	9.754
9.095	9.2083
8.9691	8.2324
8.8467	9.0547
8.7275	8.6258
8.6116	6.9039
8.4986	8.8136
8.3886	9.2079
8.2814	10.802
8.1769	13.825
8.075	12.787
7.9756	12.025
7.8786	10.526
7.784	10.309
7.6916	10.743
7.6014	9.7168
7.5133	9.5896
7.4272	8.7764
7.343	7.337
7.2607	5.7982
7.1803	4.813
7.1016	5.1292
7.0246	4.7254
6.9493	4.2402
6.8755	4.1372
6.8034	4.2137
6.7327	4.4592
6.6634	4.9937
6.5956	5.8953
6.5292	7.3763
6.464	10.413
6.4002	10.96
6.3376	8.6161
6.2762	6.5579
6.216	5.6123
6.157	6.8923
6.099	9.6808
6.0421	10.855
5.9863	10.949
5.9315	10.219
5.8777	12.954
5.8249	15.497
5.773	17.166
5.722	18.774
5.6719	18.386
5.6227	14.508
5.5744	7.7967
5.5268	13.913
5.4801	18.071
5.4341	19.856
5.3889	14.334
5.3445	11.298
5.3008	12.401
5.2578	15.815
5.2154	21.733
5.1738	22.79
5.1328	22.407
5.0925	22.054
5.0528	21.333
5.0137	21.492
4.9752	24.301
4.9373	29.433
4.9	36.771
4.8632	45.811
4.827	49.873
4.7913	52.465
4.7561	53.837
4.7215	52.913
4.6873	47.871
4.6536	49.457
4.6205	54.915
4.5877	57.149
4.5555	57.259
4.5237	55.094
4.4923	51.899
4.4614	51.92
4.4309	54.183
4.4008	56.37
4.3711	58.91
4.3418	60.309
4.3129	60.704
4.2844	60.835
4.2563	61.425
4.2285	61.411
4.2011	61.29
4.174	61.297
4.1473	60.966
4.1209	60.079
4.0949	58.686
4.0692	55.92
4.0438	49.426
4.0187	37.767
3.994	26.164
3.9695	23.518
3.9453	30.741
3.9214	36.618
3.8979	38.269
3.8746	39.015
3.8515	39.915
3.8288	43.854
3.8063	50.768
3.7841	58.057
3.7621	59.68
3.7404	59.825
3.7189	60.065
3.6977	59.684
3.6767	59.885
3.656	59.497
3.6355	58.818
3.6152	57.967
3.5951	56.724
3.5753	54.333
3.5557	52.581
3.5363	48.353
3.5171	39.518
3.4981	34.503
3.4793	31.105
3.4607	36.294
3.4423	38.058
3.4241	38.25
3.4061	37.691
3.3883	36.941
3.3707	36.073
3.3533	33.893
3.336	41.492
3.3189	45.7
3.302	46.134
3.2853	46.111
3.2687	45.513
3.2523	44.807
3.2361	43.995
3.22	43.084
3.204	42.157
3.1883	41.286
3.1727	40.476
3.1572	39.628
3.1419	38.932
3.1268	38.394
3.1117	37.765
3.0969	37.316
3.0821	37.113
3.0675	36.938
3.0531	36.696
3.0388	36.476
3.0246	36.261
3.0105	36.063
2.9966	35.898
2.9828	35.549
2.9692	34.97
2.9556	34.409
2.9422	34.339
2.9289	34.47
2.9157	34.766
2.9027	34.866
2.8897	34.854
2.8769	34.93
2.8642	35.227
2.8516	35.006
2.8391	34.861
2.8267	34.839
2.8144	34.622
2.8022	34.009
2.7902	32.354
2.7782	29.028
2.7664	16.801
2.7546	18.99
2.7429	15.871
2.7314	15.33
2.7199	15.404
2.7085	12.681
2.6973	20.592
2.6861	33.8
2.675	43.915
2.664	50.026
2.6531	54.645
2.6423	57.043
2.6315	58.241
2.6209	59.822
2.6103	60.759
2.5999	60.735
2.5895	60.567
2.5792	61.355
2.569	62.235
2.5588	63.348
2.5487	63.293
2.5388	62.486
2.5289	62.951
2.519	64.019
2.5093	64.796
2.4996	65.405
2.49	65.477
2.4805	66.744
2.471	67.766
2.4616	68.401
2.4523	68.92
2.4431	69.495
2.4339	70.743
2.4248	71.995
2.4157	72.612
2.4068	72.931
2.3979	72.443
2.389	71.326
2.3802	70.981
2.3715	72.193
2.3629	72.497
2.3543	71.681
2.3458	71.904
2.3373	72.49
2.3289	72.501
2.3206	72.943
2.3123	73.232
2.3041	73.94
2.2959	74.573
2.2878	75.435
2.2798	76.334
2.2718	77.151
2.2638	77.653
2.2559	77.935
2.2481	78.513
2.2403	79.03
2.2326	79.29
2.225	78.519
2.2173	75.588
2.2098	65.666
2.2023	71.768
2.1948	73.985
2.1874	74.007
2.18	73.079
2.1727	73.269
2.1655	73.55
2.1583	74.923
2.1511	76.716
2.144	79.113
2.1369	80.75
2.1299	81.609
2.1229	82.13
2.116	82.138
2.1091	82.508
2.1023	83.22
2.0955	83.311
2.0887	83.385
2.082	84.009
2.06	84.313
2.028	84.036
1.996	83.045
1.964	81.268
1.932	80.049
1.9	81.375
1.868	84.41
1.836	84.695
1.804	84.176
1.772	84.088
1.74	83.955
1.708	85.262
1.676	85.161
1.644	84.522
1.612	84.167
1.58	84.701
1.548	83.785
1.516	83.209
1.484	83.052
1.452	83.387
1.42	81.055
1.388	76.778
1.356	81.165
1.324	81.962
1.292	81.605
1.26	82.057
1.228	81.05
1.196	80.627
1.164	79.428
1.132	77.347
1.1	76.623
1.068	74.632
1.036	73.13
1.004	70.661
0.972	67.877
0.94	64.999
0.908	62.587
0.876	60.75
0.844	59.721
0.812	59.771
0.795	60.976
0.787	61.064
0.779	61.373
0.771	61.419
0.763	62.267
0.755	61.987
0.747	62.061
0.739	61.696
0.731	61.998
0.723	60.761
0.715	60.768
0.707	59.411
0.699	59.522
0.691	58.205
0.683	57.704
0.675	56.656
0.667	55.802
0.659	55.198
0.651	53.504
0.643	53.282
0.635	52.252
0.627	50.861
0.619	50.289
0.611	48.828
0.603	46.806
0.595	44.63
0.587	42.848
0.579	40.369
0.571	38.04
0.563	35.126
0.555	32.125
0.547	30.202
0.539	29.411
0.531	28.069
0.523	27.414
0.515	26.918
0.507	26.395
0.499	25.768
0.491	25.521
0.483	24.867
0.475	24.457
0.467	23.94
0.459	23.972
0.451	23.717
0.443	22.871
0.435	22.822
0.427	21.733
0.419	21.416
0.411	20.53
0.403	20.328
