Name: Argillaceous Sandstone
Type: Rock
Class: Sedimentary
Subclass: Sandstone
Particle Size: Solid
Sample No.: Ward63
Owner: JPL
Wavelength Range: VSWIR
Origin: Ward's Collection of American Rocks.  Sample locality - Portageville, Wyoming County, New York.
Description: A light greenish-gray, fine-grained sandstone.Geologic age - Devonian.Collected by:  Ward's Natural Science Original ASTER Spectral Library name was jpl.perkin.rock.sedimentary.sandstone.solid.ward63.spectrum.txt
Measurement: Hemispherical reflectance
X Units: Wavelength (micrometers)
Y Units: Reflectance (percent)
wavelength	value
2.5	23.1442
2.494	23.1167
2.488	23.2043
2.482	23.2792
2.476	23.1013
2.47	23.3166
2.464	23.4053
2.458	23.3862
2.452	23.4734
2.446	23.3985
2.44	23.453
2.434	23.5766
2.428	23.7168
2.422	23.9431
2.416	24.1677
2.41	24.3402
2.404	24.4392
2.398	24.4516
2.392	24.4536
2.386	24.4053
2.38	24.3527
2.374	24.2573
2.368	24.1325
2.362	24.0632
2.356	23.9511
2.35	23.9621
2.344	24.0772
2.338	24.3887
2.332	24.6842
2.326	25.0126
2.32	25.4409
2.314	25.6923
2.308	26.0175
2.302	26.2345
2.296	26.4123
2.29	26.538
2.284	26.64
2.278	26.5496
2.272	26.3797
2.266	26.2497
2.26	25.9829
2.254	25.9118
2.248	26.1103
2.242	26.3159
2.236	26.4142
2.23	26.2995
2.224	26.1498
2.218	26.0127
2.212	25.8527
2.206	25.7305
2.2	26.0083
2.194	26.3829
2.188	26.9683
2.182	27.496
2.176	27.9469
2.17	28.3447
2.164	28.6496
2.158	28.8302
2.152	28.9944
2.146	29.0971
2.14	29.1933
2.134	29.1193
2.128	29.1113
2.122	29.0204
2.116	28.9591
2.11	28.8987
2.104	28.9205
2.098	28.9111
2.092	28.989
2.086	29.117
2.08	29.2267
2.074	29.2119
2.068	29.2952
2.062	29.2914
2.056	29.324
2.05	29.3309
2.044	29.3206
2.038	29.3449
2.032	29.2722
2.026	29.3215
2.02	29.2353
2.014	29.1795
2.008	29.1481
2.002	29.17
1.996	29.1738
1.99	29.1613
1.984	29.1425
1.978	29.1106
1.972	29.0557
1.966	29.1561
1.96	29.0619
1.954	29.0625
1.948	29.0335
1.942	29.0647
1.936	29.0552
1.93	29.0904
1.924	29.1535
1.918	29.2129
1.912	29.2381
1.906	29.346
1.9	29.6297
1.894	30.0154
1.888	30.2959
1.882	30.443
1.876	30.6204
1.87	30.721
1.864	30.8168
1.858	30.8326
1.852	30.8703
1.846	30.8629
1.84	30.9376
1.834	30.9259
1.828	30.9512
1.822	30.9921
1.816	30.9922
1.81	31.0021
1.804	31.0125
1.798	31.0442
1.792	31.0299
1.786	31.0172
1.78	31.0018
1.774	31.0427
1.768	31.0343
1.762	31.0584
1.756	31.0453
1.75	31.0239
1.744	31.0228
1.738	31.0816
1.732	31.0499
1.726	31.0492
1.72	31.0527
1.714	31.0523
1.708	31.0353
1.702	31.004
1.696	31.0322
1.69	30.9664
1.684	30.9392
1.678	30.9692
1.672	30.9716
1.666	30.8667
1.66	30.8489
1.654	30.8489
1.648	30.8368
1.642	30.8622
1.636	30.8276
1.63	30.782
1.624	30.7155
1.618	30.7043
1.612	30.685
1.606	30.6605
1.6	30.541
1.594	30.6198
1.588	30.5239
1.582	30.5484
1.576	30.5388
1.57	30.4579
1.564	30.4246
1.558	30.3387
1.552	30.3782
1.546	30.295
1.54	30.308
1.534	30.2734
1.528	30.2277
1.522	30.2182
1.516	30.1815
1.51	30.0854
1.504	30.0957
1.498	30.0785
1.492	30.0558
1.486	29.8933
1.48	29.9231
1.474	29.8571
1.468	29.7993
1.462	29.6648
1.456	29.6126
1.45	29.5442
1.444	29.4872
1.438	29.3656
1.432	29.2202
1.426	28.8824
1.42	28.1795
1.414	27.4237
1.408	27.6736
1.402	28.2493
1.396	28.8581
1.39	29.1639
1.384	29.3522
1.378	29.2682
1.372	29.2847
1.366	29.2801
1.36	29.0793
1.354	28.9935
1.348	28.9548
1.342	28.8292
1.336	28.717
1.33	28.6043
1.324	28.6038
1.318	28.4419
1.312	28.4318
1.306	28.2032
1.3	28.126
1.294	27.9971
1.288	28.0291
1.282	27.8464
1.276	27.8018
1.27	27.6185
1.264	27.5687
1.258	27.4399
1.252	27.3362
1.246	27.1938
1.24	27.1342
1.234	26.9778
1.228	26.8984
1.222	26.6983
1.216	26.6201
1.21	26.5661
1.204	26.4837
1.198	26.3848
1.192	26.2767
1.186	26.1527
1.18	26.0906
1.174	26.0259
1.168	25.945
1.162	25.8047
1.156	25.7991
1.15	25.6873
1.144	25.6411
1.138	25.5419
1.132	25.5638
1.126	25.4517
1.12	25.4284
1.114	25.3694
1.108	25.3804
1.102	25.3154
1.096	25.3637
1.09	25.3139
1.084	25.3077
1.078	25.2899
1.072	25.1935
1.066	25.3593
1.06	25.2363
1.054	25.3089
1.048	25.4267
1.042	25.3486
1.036	25.4084
1.03	25.4226
1.024	25.4827
1.018	25.4703
1.012	25.445
1.006	25.4863
1	25.4534
0.994	25.5017
0.988	25.4559
0.982	25.4805
0.976	25.363
0.97	25.3627
0.964	25.3031
0.958	25.2674
0.952	25.1952
0.946	25.1177
0.94	25.0815
0.934	25.0018
0.928	24.8913
0.922	24.9531
0.916	24.9105
0.91	24.89
0.904	24.8685
0.898	24.809
0.892	24.7871
0.886	24.7665
0.88	24.8712
0.874	24.9141
0.868	24.9401
0.862	24.9978
0.856	25.4645
0.85	25.5521
0.844	25.623
0.838	25.6657
0.832	25.7492
0.826	25.8187
0.82	25.8849
0.814	25.9426
0.808	25.9645
0.802	26.0144
0.796	25.9904
0.79	25.9808
0.784	25.994
0.778	25.9461
0.772	25.906
0.766	25.8787
0.76	25.8112
0.754	25.7622
0.748	25.7121
0.742	25.6831
0.736	25.6283
0.73	25.5938
0.724	25.5654
0.718	25.5492
0.712	25.5417
0.706	25.5284
0.7	25.5323
0.694	25.5475
0.688	25.5722
0.682	25.59
0.676	25.6194
0.67	25.6475
0.664	25.68
0.658	25.7118
0.652	25.7492
0.646	25.7761
0.64	25.8023
0.634	25.8264
0.628	25.8473
0.622	25.8765
0.616	25.8896
0.61	25.9133
0.604	25.9219
0.598	25.9466
0.592	25.9696
0.586	25.9842
0.58	25.9871
0.574	25.9818
0.568	25.9752
0.562	25.9453
0.556	25.9261
0.55	25.8741
0.544	25.8075
0.538	25.7192
0.532	25.6188
0.526	25.4867
0.52	25.3315
0.514	25.125
0.508	24.9081
0.502	24.6914
0.496	24.4504
0.49	24.2167
0.484	23.9489
0.478	23.6228
0.472	23.3041
0.466	22.9843
0.46	22.6423
0.454	22.2958
0.448	21.9302
0.442	21.5245
0.436	21.0642
0.43	20.5788
0.424	20.0686
0.418	19.5896
0.412	19.1266
0.406	18.6917
0.4	18.2036
