Name: Dacite
Type: Rock
Class: Intermediate
Subclass: Felsic
Particle Size: Solid
Sample No.: AP-937-161
Owner: United States Geological Survey, L. C. Rowan
Wavelength Range: All
Origin: Iberian Pyrite Belt, Spain
Description: Dacite, tan phyllic, alteredSample was Whole Rock Chips. Original ASTER Spectral Library name was usgs.perknic.rock.igneous.felsic.solid.dac161.spectrum.txt
Measurement: Directional Hemispherical Reflectance
X Units: Wavelength (micrometers)
Y Units: Reflectance (percent)
wavelength	value
14.051	3.5123
13.79	3.5741
13.538	3.4196
13.295	3.3063
13.06	3.3166
12.834	3.7183
12.616	4.0273
12.404	4.5423
12.2	4.3672
12.002	4.5114
11.811	4.9955
11.626	5.0264
11.446	4.8719
11.272	4.4908
11.103	4.1818
10.939	3.7904
10.78	3.3887
10.625	3.2342
10.475	3.4093
10.329	3.8007
10.187	3.4299
10.049	3.296
9.914	3.4299
9.783	3.6565
9.656	4.3569
9.532	4.0479
9.411	3.914
9.293	4.6556
9.178	4.7689
9.065	4.8513
8.956	4.6762
8.849	4.3775
8.744	4.0891
8.642	3.4402
8.543	3.5947
8.445	3.3681
8.35	3.3166
8.257	3.3166
8.166	3.3475
8.077	3.09
7.99	3.2033
7.905	3.4196
7.821	3.4814
7.739	3.4711
7.659	3.5123
7.581	3.5947
7.504	3.7801
7.429	3.9449
7.355	4.017
7.283	4.2333
7.212	4.3775
7.143	4.3363
7.074	4.5114
7.007	4.5835
6.942	4.7792
6.877	4.9749
6.814	5.2633
6.752	5.356
6.691	5.4796
6.631	5.3663
6.572	4.9131
6.514	4.9646
6.458	5.2324
6.402	5.4693
6.347	5.6238
6.293	5.3766
6.24	4.7071
6.188	4.1097
6.137	4.0582
6.086	4.3569
6.037	4.5835
5.988	4.8925
5.94	5.2221
5.893	5.5826
5.846	6.0667
5.8	6.5096
5.755	6.9731
5.711	7.1791
5.667	7.107
5.624	6.7877
5.582	6.6332
5.54	6.8083
5.499	7.1585
5.459	7.519
5.419	7.4572
5.379	6.8804
5.341	6.6126
5.302	6.8083
5.265	7.3748
5.227	8.4151
5.191	9.1876
5.155	9.4348
5.119	9.5584
5.084	9.5172
5.049	9.4245
5.015	9.5687
4.981	9.8056
4.948	10.6502
4.915	11.2991
4.883	12.6484
4.851	13.7402
4.819	14.5745
4.788	15.2131
4.758	15.6457
4.727	15.9959
4.697	16.3049
4.668	16.4594
4.638	16.995
4.61	17.4482
4.581	17.8087
4.553	17.9426
4.525	17.9735
4.498	17.8087
4.47	17.5718
4.444	17.922
4.417	18.1795
4.391	18.4164
4.365	18.6945
4.34	18.8284
4.314	19.0035
4.289	19.1477
4.265	19.1168
4.24	19.4464
4.216	19.4773
4.192	19.2507
4.169	19.2816
4.145	19.3743
4.122	19.2404
4.099	19.4155
4.077	19.4876
4.055	19.3743
4.032	19.6215
4.011	19.5082
3.989	19.5082
3.968	19.57
3.947	19.3537
3.926	19.2198
3.905	19.0138
3.884	18.8181
3.864	18.5606
3.844	18.2825
3.824	18.0147
3.805	17.8499
3.785	17.5615
3.766	17.2731
3.747	16.9332
3.728	16.4388
3.709	16.068
3.691	15.7899
3.673	15.5015
3.655	15.0586
3.637	14.6466
3.619	14.2758
3.601	13.8329
3.584	13.6681
3.567	13.1943
3.549	12.9471
3.533	12.6175
3.516	12.1952
3.499	11.948
3.483	11.7111
3.466	11.4124
3.45	11.1446
3.434	10.7017
3.418	10.5678
3.403	10.403
3.387	9.9395
3.372	9.7438
3.357	9.5584
3.341	9.3421
3.326	9.0022
3.312	8.6005
3.297	8.343
3.282	8.1679
3.268	7.8486
3.253	7.6014
3.239	7.3748
3.225	7.1379
3.211	6.9628
3.197	6.7053
3.183	6.6744
3.17	6.6435
3.156	6.489
3.143	6.6126
3.13	6.6435
3.117	6.6538
3.103	6.8392
3.091	6.7156
3.078	6.7568
3.065	6.8701
3.052	7.1482
3.04	6.9525
3.027	7.0349
3.015	7.0967
3.003	7.1997
2.991	7.1688
2.979	7.3027
2.967	7.4778
2.955	7.5396
2.943	7.5293
2.932	7.6426
2.92	7.7765
2.909	7.7044
2.897	8.137
2.886	8.2091
2.875	8.4563
2.864	8.446
2.853	8.9095
2.842	9.4966
2.831	9.7747
2.82	10.2691
2.809	10.7738
2.799	10.4854
2.788	9.8468
2.778	8.4254
2.767	6.5714
2.757	5.7989
2.747	5.9637
2.737	6.6332
2.727	8.3945
2.717	13.0707
2.707	19.0344
2.697	23.3192
2.687	27.2847
2.677	29.9318
2.668	32.6201
2.658	34.8037
2.649	36.359
2.639	36.6268
2.63	37.5538
2.62	38.0276
2.611	38.3881
2.602	38.9855
2.593	39.0164
2.584	39.6653
2.575	40.0876
2.566	40.5511
2.557	40.8601
2.548	41.0043
2.54	41.2
2.531	41.2927
2.522	41.2721
2.514	41.4369
2.505	41.1176
2.489	41.2103
2.461	41.3103
2.433	42.8103
2.405	45.2103
2.377	47.6103
2.349	48.5103
2.321	48.4103
2.293	49.1103
2.265	53.2103
2.237	52.8103
2.209	50.5103
2.181	51.8103
2.153	58.2103
2.125	59.0103
2.097	61.0103
2.069	60.5103
2.041	61.1103
2.013	59.8103
1.985	58.1103
1.957	57.0103
1.929	56.5103
1.901	55.9103
1.873	63.1103
1.845	66.4103
1.817	66.5103
1.789	66.5103
1.761	67.1103
1.733	67.9103
1.705	68.3103
1.677	69.0103
1.649	69.5103
1.621	70.4103
1.593	71.6103
1.565	72.1103
1.537	72.6103
1.509	72.1103
1.481	72.1103
1.453	71.2103
1.425	69.7103
1.397	67.2103
1.369	76.2103
1.341	77.1103
1.313	76.7103
1.285	75.9103
1.257	73.7103
1.229	71.5103
1.201	68.8103
1.173	65.7103
1.145	61.5103
1.117	56.6103
1.089	52.8103
1.061	49.9103
1.033	47.1103
1.005	45.2103
0.977	43.3103
0.949	41.8103
0.921	40.8103
0.893	40.7103
0.865	42.3103
0.837	44.4103
0.809	46.6103
0.799	48.0103
0.792	49.0103
0.785	50.0103
0.778	50.4103
0.771	50.6103
0.764	51.2103
0.757	51.3103
0.75	50.4103
0.743	50.8103
0.736	50.0103
0.729	49.1103
0.722	48.2103
0.715	47.1103
0.708	45.8103
0.701	45.4103
0.694	45.1103
0.687	43.5103
0.68	43.2103
0.673	42.7103
0.666	42.3103
0.659	42.1103
0.652	42.1103
0.645	41.9103
0.638	41.7103
0.631	41.7103
0.624	42.2103
0.617	42.7103
0.61	42.2103
0.603	42.9103
0.596	42.2103
0.589	41.8103
0.582	41.2103
0.575	39.9103
0.568	37.5103
0.561	35.3103
0.554	31.7103
0.547	28.0103
0.54	25.1103
0.533	21.5103
0.526	18.7103
0.519	16.9103
0.512	15.4103
0.505	14.0103
0.498	12.9103
0.491	12.4103
0.484	11.9103
0.477	11.8103
0.47	12.3103
0.463	12.0103
0.456	11.8103
0.449	11.8103
0.442	10.8103
0.435	10.6103
0.428	10.2103
0.421	10.1103
0.414	9.7103
0.407	9.9103
