Name: Dolomitic Limestone
Type: Rock
Class: Sedimentary
Subclass: Limestone
Particle Size: Solid
Sample No.: Ward74
Owner: JPL
Wavelength Range: All
Origin: Ward's Collection of American Rocks.  Sample locality - Rochester, Monroe County, New York.
Description: A dark gray dolomitic rock with occasional cavities thatmay be filled with crystallized minerals.Geologic age - Silurian (Niagaran).Collected by:  Ward's Natural Science Original ASTER Spectral Library name was jpl.nicolet.rock.sedimentary.limestone.solid.ward74.spectrum.txt
Measurement: Hemispherical reflectance
X Units: Wavelength (micrometers)
Y Units: Reflectance (percent)
wavelength	value
15.3871	3.4686
15.118	3.8497
14.8581	3.9879
14.6069	3.8812
14.3642	4.4431
14.1293	4.4147
13.9021	4.3483
13.682	4.1537
13.4687	3.2942
13.2621	4.0359
13.0616	4.9431
12.8672	5.3029
12.6784	5.767
12.4951	6.0289
12.317	6.5664
12.1439	6.7325
11.9757	6.7974
11.812	6.8868
11.6527	6.6274
11.4977	7.7793
11.3468	15.859
11.1997	27.3243
11.0564	10.3329
10.9168	7.9321
10.7806	7.4017
10.6478	7.2648
10.5182	7.353
10.3917	7.4699
10.2683	6.9455
10.1477	6.5789
10.0299	6.6218
9.9148	6.5299
9.8024	6.4505
9.6925	6.5165
9.585	6.5065
9.4798	6.7265
9.377	6.8931
9.2763	7.0834
9.1778	7.3006
9.0814	7.0487
8.987	7.5065
8.8945	7.6969
8.8039	7.6481
8.7151	7.5525
8.6281	7.6285
8.5428	7.6167
8.4592	7.4274
8.3772	7.2101
8.2967	7.8195
8.2179	7.8075
8.1404	7.329
8.0645	7.6662
7.9899	7.8678
7.9167	8.082
7.8449	8.4654
7.7743	8.4752
7.705	8.4702
7.6369	8.997
7.57	9.0748
7.5043	9.5459
7.4397	9.9677
7.3762	10.6003
7.3138	11.142
7.2524	12.1672
7.1921	13.4617
7.1327	16.0608
7.0743	19.0178
7.0169	28.0347
6.9604	29.2733
6.9047	29.4004
6.85	30.5849
6.7962	32.0895
6.7431	33.1897
6.6909	35.4504
6.6395	40.7123
6.5889	44.0809
6.539	46.3408
6.49	49.8438
6.4416	49.2938
6.3939	46.8829
6.347	32.8115
6.3007	14.0617
6.2551	6.7285
6.2101	3.9822
6.1658	2.58
6.1222	1.6321
6.0791	1.3249
6.0366	1.2952
5.9948	1.1621
5.9535	1.2803
5.9127	1.4076
5.8726	1.6658
5.8329	1.6612
5.7938	1.6889
5.7552	1.9403
5.7172	1.8708
5.6796	2.0706
5.6425	2.1271
5.6059	2.119
5.5698	2.0511
5.5341	1.7491
5.4989	1.7791
5.4641	1.9608
5.4298	2.8974
5.3959	3.7099
5.3624	4.4105
5.3294	4.8082
5.2967	5.3637
5.2644	6.071
5.2326	7.1137
5.2011	8.094
5.17	9.0756
5.1392	9.8306
5.1088	10.3513
5.0788	9.8074
5.0491	9.5328
5.0198	12.0837
4.9908	12.7559
4.9622	12.9079
4.9338	13.1821
4.9058	13.3151
4.8781	13.3584
4.8508	13.3582
4.8237	13.2151
4.7969	12.9942
4.7704	12.9095
4.7443	12.6632
4.7184	12.0089
4.6927	10.6365
4.6674	8.1098
4.6423	6.8017
4.6175	6.6635
4.593	7.0844
4.5687	8.3041
4.5447	9.2184
4.5209	9.7477
4.4974	11.0826
4.4741	11.2012
4.451	9.9941
4.4282	9.6551
4.4057	11.0358
4.3833	12.0224
4.3612	13.2101
4.3393	11.8088
4.3176	10.7265
4.2962	10.3883
4.2749	10.0765
4.2539	11.0662
4.233	10.7049
4.2124	11.5042
4.192	12.5115
4.1717	12.2937
4.1517	11.2985
4.1319	11.4149
4.1122	11.2647
4.0927	10.7973
4.0734	9.7584
4.0543	8.8055
4.0354	7.5487
4.0166	5.9241
3.9981	4.795
3.9796	4.0277
3.9614	3.4241
3.9433	3.491
3.9254	3.4119
3.9077	3.5964
3.8901	4.2169
3.8726	4.1754
3.8554	4.4448
3.8382	5.3254
3.8213	4.7054
3.8045	4.3533
3.7878	4.7235
3.7713	5.6127
3.7549	7.0423
3.7386	9.7945
3.7225	11.5844
3.7066	12.5415
3.6907	13.4034
3.675	14.2329
3.6595	14.7192
3.644	14.8787
3.6287	14.9639
3.6136	14.6066
3.5985	14.4231
3.5836	14.1478
3.5688	13.6314
3.5541	11.0589
3.5396	10.8036
3.5251	9.5367
3.5108	7.3827
3.4966	5.4749
3.4825	4.7942
3.4685	4.6446
3.4547	4.1853
3.4409	4.0857
3.4273	4.9188
3.4137	5.1031
3.4003	5.0008
3.387	4.9922
3.3738	5.4534
3.3606	5.0662
3.3476	5.2281
3.3347	4.8903
3.3219	4.9389
3.3092	4.6107
3.2965	5.0751
3.284	7.2471
3.2716	7.7753
3.2593	8.2249
3.247	8.4108
3.2348	8.1962
3.2228	8.0151
3.2108	8.0428
3.1989	7.8531
3.1871	7.8684
3.1754	7.569
3.1638	7.5089
3.1523	7.0351
3.1408	6.6497
3.1294	6.6649
3.1181	6.6312
3.1069	6.4021
3.0958	6.4066
3.0848	6.564
3.0738	6.3922
3.0629	6.1452
3.0521	6.2986
3.0413	6.0553
3.0307	6.0464
3.0201	6.2531
3.0096	5.9355
2.9991	6.3124
2.9887	6.0158
2.9784	5.5614
2.9682	5.5331
2.9581	5.6265
2.948	6.0942
2.9379	6.6274
2.928	6.053
2.9181	5.5644
2.9083	5.6529
2.8985	6.2419
2.8888	6.133
2.8792	6.4339
2.8697	6.067
2.8602	6.3246
2.8507	6.2423
2.8413	6.3725
2.832	6.4755
2.8228	6.4972
2.8136	7.6129
2.8045	7.3766
2.7954	7.7181
2.7864	7.5283
2.7774	7.7274
2.7685	8.2287
2.7597	9.2271
2.7509	9.8984
2.7422	11.5198
2.7335	12.7674
2.7249	14.9544
2.7163	17.2365
2.7078	18.7862
2.6994	19.7539
2.691	21.0647
2.6826	21.7889
2.6743	22.7762
2.666	24.0792
2.6578	24.5087
2.6497	24.6073
2.6416	24.8017
2.6336	25.4158
2.6256	25.4695
2.6176	25.9104
2.6097	25.8195
2.6018	25.6222
2.594	26.492
2.5863	25.6185
2.5785	24.9005
2.5709	25.1141
2.5633	24.8706
2.5557	24.4635
2.5481	23.3083
2.5406	20.7383
2.5332	18.4719
2.5258	17.1056
2.5184	17.0094
2.5111	16.1633
2.5038	16.6671
2.4966	18.0289
2.4894	18.0255
2.4823	19.2757
2.4752	20.3702
2.4681	20.0348
2.4611	20.7077
2.4541	20.6194
2.4471	21.6575
2.4402	22.4784
2.4333	23.3444
2.4265	23.5569
2.4197	24.4576
2.413	24.9832
2.4063	25.2112
2.3996	24.8411
2.3929	26.1845
2.3863	25.996
2.3798	25.5978
2.3732	25.9363
2.3667	26.1452
2.3603	26.1498
2.3538	26.0265
2.3474	24.2727
2.3411	23.8674
2.3347	22.2042
2.3285	21.2557
2.3222	20.6758
2.316	20.9709
2.3098	21.5621
2.3036	22.1745
2.2975	22.2721
2.2914	22.4688
2.2854	22.6774
2.2793	23.2638
2.2733	23.1742
2.2674	22.544
2.2614	24.2695
2.2555	24.876
2.2497	25.1234
2.2438	25.8297
2.238	25.2147
2.2322	25.9107
2.2265	25.8567
2.2208	26.7145
2.2151	25.7661
2.2094	26.2114
2.2038	26.3148
2.1982	26.7609
2.1926	26.5494
2.187	26.8245
2.1815	26.2037
2.176	26.5561
2.1706	26.2773
2.1651	26.9061
2.1597	26.8501
2.1543	27.0371
2.149	25.7703
2.1436	27.4331
2.1383	25.3742
2.1331	26.653
2.1278	26.7725
2.1226	26.2236
2.1174	25.5568
2.1122	26.0705
2.1071	26.146
2.1019	26.9807
2.0968	26.4094
2.0918	26.2647
2.0867	25.5763
2.0817	26.6719
2.0767	27.8296
2.0717	25.8442
2.0667	26.2712
2.0618	26.6836
2.0569	25.1687
2.052	26.8141
2.0472	26.7777
2.0423	27.8633
2.0375	26.6409
2.0327	25.9349
2.028	26.6466
2.0232	25.7198
2.0185	26.4032
2.0138	26.4047
2.0091	24.7546
2.0044	24.9855
1.9998	25.2814
