Name: Oolitic Iron Ore
Type: Rock
Class: Sedimentary
Subclass: Chemical precipitate
Particle Size: Solid
Sample No.: Ward76
Owner: JPL
Wavelength Range: VSWIR
Origin: Ward's Collection of American Rocks.  Sample locality - Clinton, Oneida County, New York.
Description: A deep red hematite showing well-developed oolitic texture.Geologic age - Silurian.Collected by:  Ward's Natural Science Original ASTER Spectral Library name was jpl.perkin.rock.sedimentary.chemical.solid.ward76.spectrum.txt
Measurement: Hemispherical reflectance
X Units: Wavelength (micrometers)
Y Units: Reflectance (percent)
wavelength	value
2.5	10.3894
2.494	10.2436
2.488	10.2883
2.482	10.2237
2.476	10.4041
2.47	10.2878
2.464	10.3553
2.458	10.3416
2.452	10.4564
2.446	10.4201
2.44	10.3726
2.434	10.2632
2.428	10.4874
2.422	10.4445
2.416	10.4046
2.41	10.3842
2.404	10.5377
2.398	10.472
2.392	10.5111
2.386	10.5263
2.38	10.5375
2.374	10.5194
2.368	10.5904
2.362	10.5291
2.356	10.504
2.35	10.5837
2.344	10.5561
2.338	10.5355
2.332	10.5731
2.326	10.581
2.32	10.5943
2.314	10.662
2.308	10.5941
2.302	10.6175
2.296	10.6104
2.29	10.7161
2.284	10.6403
2.278	10.6797
2.272	10.7965
2.266	10.6834
2.26	10.6683
2.254	10.7495
2.248	10.7318
2.242	10.687
2.236	10.8588
2.23	10.7295
2.224	10.8419
2.218	10.8542
2.212	10.9611
2.206	10.8823
2.2	10.8959
2.194	10.9282
2.188	10.865
2.182	10.9265
2.176	10.8812
2.17	11.0063
2.164	11.0515
2.158	11.0156
2.152	11.0168
2.146	11.0277
2.14	11.0338
2.134	11.0273
2.128	11.0311
2.122	10.9795
2.116	10.9838
2.11	10.8749
2.104	10.9185
2.098	10.9046
2.092	10.8555
2.086	10.8471
2.08	10.8707
2.074	10.8894
2.068	10.9711
2.062	10.9334
2.056	10.9043
2.05	10.9724
2.044	10.9644
2.038	10.9344
2.032	10.9706
2.026	10.9384
2.02	11.001
2.014	10.964
2.008	11.0262
2.002	11.0183
1.996	11
1.99	11.0072
1.984	10.9893
1.978	11.0163
1.972	10.9539
1.966	10.9884
1.96	10.9726
1.954	10.978
1.948	10.9721
1.942	10.9579
1.936	11.0206
1.93	10.9691
1.924	10.957
1.918	10.9509
1.912	11.0239
1.906	11.0854
1.9	11.0358
1.894	11.1353
1.888	11.1804
1.882	11.158
1.876	11.1702
1.87	11.1449
1.864	11.2419
1.858	11.2382
1.852	11.2189
1.846	11.2855
1.84	11.274
1.834	11.343
1.828	11.3252
1.822	11.2738
1.816	11.3145
1.81	11.3752
1.804	11.3872
1.798	11.3817
1.792	11.4208
1.786	11.4481
1.78	11.4549
1.774	11.4531
1.768	11.4864
1.762	11.4314
1.756	11.5226
1.75	11.5408
1.744	11.4811
1.738	11.5379
1.732	11.5694
1.726	11.5708
1.72	11.6052
1.714	11.5847
1.708	11.6193
1.702	11.6415
1.696	11.6783
1.69	11.6878
1.684	11.6698
1.678	11.7586
1.672	11.7476
1.666	11.7569
1.66	11.7924
1.654	11.8309
1.648	11.8717
1.642	11.9491
1.636	11.8897
1.63	11.9422
1.624	11.9297
1.618	11.9199
1.612	11.9396
1.606	12.0006
1.6	12.0151
1.594	11.9691
1.588	12.093
1.582	12.0424
1.576	12.1149
1.57	12.0746
1.564	12.1835
1.558	12.1505
1.552	12.1815
1.546	12.1843
1.54	12.1779
1.534	12.2485
1.528	12.2993
1.522	12.3136
1.516	12.2762
1.51	12.3923
1.504	12.405
1.498	12.3715
1.492	12.4544
1.486	12.473
1.48	12.5084
1.474	12.5245
1.468	12.5556
1.462	12.6248
1.456	12.6596
1.45	12.6618
1.444	12.7257
1.438	12.7377
1.432	12.8034
1.426	12.8907
1.42	12.877
1.414	12.948
1.408	12.9293
1.402	12.9857
1.396	13.0712
1.39	13.096
1.384	13.2062
1.378	13.2361
1.372	13.1825
1.366	13.295
1.36	13.2777
1.354	13.4075
1.348	13.4941
1.342	13.4555
1.336	13.5637
1.33	13.6348
1.324	13.6121
1.318	13.6814
1.312	13.7766
1.306	13.8346
1.3	13.9317
1.294	13.9486
1.288	14.0036
1.282	14.0362
1.276	14.2461
1.27	14.1456
1.264	14.3005
1.258	14.335
1.252	14.4675
1.246	14.4966
1.24	14.5761
1.234	14.5961
1.228	14.7648
1.222	14.8002
1.216	14.8529
1.21	14.9577
1.204	15.0763
1.198	15.1692
1.192	15.2249
1.186	15.3222
1.18	15.4025
1.174	15.4662
1.168	15.5967
1.162	15.6892
1.156	15.7336
1.15	15.8184
1.144	15.9201
1.138	16.0021
1.132	16.1116
1.126	16.1796
1.12	16.3667
1.114	16.4566
1.108	16.5036
1.102	16.5867
1.096	16.6487
1.09	16.7675
1.084	16.8733
1.078	16.8737
1.072	16.9157
1.066	17.0231
1.06	17.1318
1.054	17.1479
1.048	17.2313
1.042	17.3425
1.036	17.2864
1.03	17.4545
1.024	17.4398
1.018	17.4753
1.012	17.423
1.006	17.3693
1	17.3314
0.994	17.2586
0.988	17.1304
0.982	17.0208
0.976	16.9243
0.97	16.7961
0.964	16.5804
0.958	16.4283
0.952	16.2348
0.946	16.0959
0.94	15.889
0.934	15.7696
0.928	15.5898
0.922	15.5167
0.916	15.2912
0.91	15.2174
0.904	15.0753
0.898	15.0218
0.892	15.0412
0.886	14.9696
0.88	14.9446
0.874	14.8824
0.868	14.9106
0.862	14.951
0.856	15.0875
0.85	15.1608
0.844	15.2432
0.838	15.3672
0.832	15.487
0.826	15.6335
0.82	15.7992
0.814	15.9888
0.808	16.1728
0.802	16.3504
0.796	16.5484
0.79	16.7667
0.784	16.9619
0.778	17.1573
0.772	17.3474
0.766	17.504
0.76	17.6286
0.754	17.7148
0.748	17.7606
0.742	17.7593
0.736	17.7173
0.73	17.6056
0.724	17.4568
0.718	17.2756
0.712	17.067
0.706	16.8523
0.7	16.623
0.694	16.4022
0.688	16.2009
0.682	16.0056
0.676	15.8324
0.67	15.6722
0.664	15.5355
0.658	15.4215
0.652	15.3277
0.646	15.253
0.64	15.1951
0.634	15.1426
0.628	15.102
0.622	15.043
0.616	14.9633
0.61	14.835
0.604	14.6264
0.598	14.3238
0.592	13.8987
0.586	13.359
0.58	12.7529
0.574	12.1437
0.568	11.5899
0.562	11.1311
0.556	10.7503
0.55	10.4724
0.544	10.2598
0.538	10.0949
0.532	9.9614
0.526	9.8603
0.52	9.7847
0.514	9.7364
0.508	9.709
0.502	9.6971
0.496	9.6915
0.49	9.6843
0.484	9.6877
0.478	9.7268
0.472	9.7686
0.466	9.8138
0.46	9.856
0.454	9.8906
0.448	9.9316
0.442	9.9578
0.436	9.9577
0.43	9.9308
0.424	9.8748
0.418	9.8223
0.412	9.7577
0.406	9.6968
0.4	9.6177
