Name: Rhyolite Porphyry
Type: Rock
Class: Igneous
Subclass: Feslic
Particle Size: Solid
Sample No.: Ward08
Owner: JPL
Wavelength Range: All
Origin: Ward's Collection of American Rocks.  Sample locality - Chaffee County, Colorado.
Description: A gray, prophyritic rock, occasionally vesicular, prominentphenocrysts of smoky quartz averaging 5mm in width.  Subhedral to euhedralphenocrysts of glassy feldspar averaging 4mm in length.  Tiny garnet andtopaz crystals in some vesicles.Geologic age - Tertiary (Eocene).Collected by:  Ward's Natural Science Original ASTER Spectral Library name was jpl.nicolet.rock.igneous.felsic.solid.ward08.spectrum.txt
Measurement: Hemispherical reflectance
X Units: Wavelength (micrometers)
Y Units: Reflectance (percent)
wavelength	value
15.3871	3.0336
15.118	2.5388
14.8581	2.7797
14.6069	2.9365
14.3642	3.4788
14.1293	3.39
13.9021	3.7448
13.682	3.7847
13.4687	3.6681
13.2621	3.9902
13.0616	3.8968
12.8672	5.0442
12.6784	4.152
12.4951	4.1123
12.317	2.732
12.1439	3.5419
11.9757	4.6338
11.812	4.9239
11.6527	5.5015
11.4977	5.9452
11.3468	6.1211
11.1997	6.441
11.0564	6.785
10.9168	7.2159
10.7806	7.4649
10.6478	8.0527
10.5182	8.9112
10.3917	9.7911
10.2683	11.1196
10.1477	12.5907
10.0299	14.079
9.9148	15.6034
9.8024	16.4754
9.6925	17.5217
9.585	18.3578
9.4798	19.0145
9.377	19.4596
9.2763	19.0402
9.1778	18.3998
9.0814	18.2644
8.987	18.4084
8.8945	18.7067
8.8039	19.2161
8.7151	19.9527
8.6281	18.6355
8.5428	20.1608
8.4592	19.5334
8.3772	18.4042
8.2967	16.6779
8.2179	14.2004
8.1404	10.8085
8.0645	6.6056
7.9899	3.966
7.9167	2.4619
7.8449	1.4914
7.7743	1.4728
7.705	1.1766
7.6369	0.9859
7.57	0.9144
7.5043	1.0319
7.4397	0.9759
7.3762	1.1622
7.3138	1.1497
7.2524	1.2344
7.1921	1.4925
7.1327	1.5144
7.0743	1.6377
7.0169	1.7639
6.9604	1.8496
6.9047	2.0073
6.85	2.0162
6.7962	2.1567
6.7431	2.2681
6.6909	2.3874
6.6395	2.3801
6.5889	2.4039
6.539	2.4607
6.49	2.6838
6.4416	2.7978
6.3939	2.7223
6.347	2.6568
6.3007	2.5172
6.2551	2.6077
6.2101	2.4205
6.1658	2.6476
6.1222	2.7575
6.0791	3.0186
6.0366	3.0605
5.9948	3.1188
5.9535	2.9809
5.9127	3.1673
5.8726	3.3267
5.8329	3.5924
5.7938	3.7126
5.7552	3.6269
5.7172	3.7154
5.6796	3.6816
5.6425	3.5091
5.6059	3.3921
5.5698	3.52
5.5341	3.6257
5.4989	3.9689
5.4641	4.5046
5.4298	4.4313
5.3959	4.184
5.3624	3.8992
5.3294	4.0376
5.2967	4.2909
5.2644	4.68
5.2326	5.4053
5.2011	6.0826
5.17	6.5222
5.1392	6.6143
5.1088	6.9283
5.0788	6.9191
5.0491	6.9279
5.0198	7.2576
4.9908	7.6351
4.9622	8.549
4.9338	9.2442
4.9058	10.4605
4.8781	11.9121
4.8508	12.8444
4.8237	13.4247
4.7969	13.8955
4.7704	14.1312
4.7443	14.5429
4.7184	14.7681
4.6927	14.7339
4.6674	14.9931
4.6423	15.7651
4.6175	16.5453
4.593	17.3521
4.5687	17.8026
4.5447	18.4713
4.5209	18.5815
4.4974	18.3888
4.4741	18.8451
4.451	19.6516
4.4282	20.7132
4.4057	21.91
4.3833	23.3099
4.3612	24.822
4.3393	25.9711
4.3176	26.846
4.2962	27.0417
4.2749	27.8786
4.2539	29.2607
4.233	28.8059
4.2124	30.2775
4.192	31.1692
4.1717	31.864
4.1517	32.2903
4.1319	32.839
4.1122	33.3592
4.0927	33.8326
4.0734	34.0138
4.0543	34.3094
4.0354	34.4019
4.0166	34.6831
3.9981	34.5749
3.9796	34.7579
3.9614	35.0295
3.9433	35.1565
3.9254	35.3406
3.9077	35.5404
3.8901	35.4886
3.8726	35.3671
3.8554	35.2971
3.8382	35.4539
3.8213	35.6398
3.8045	35.7898
3.7878	35.7546
3.7713	35.6834
3.7549	35.7773
3.7386	35.7634
3.7225	35.5864
3.7066	35.8923
3.6907	36.1081
3.675	36.2522
3.6595	36.2526
3.644	36.3048
3.6287	36.0655
3.6136	36.0214
3.5985	35.7427
3.5836	35.8667
3.5688	35.6324
3.5541	35.5622
3.5396	35.2401
3.5251	34.9533
3.5108	34.3599
3.4966	33.8147
3.4825	33.641
3.4685	33.588
3.4547	33.4135
3.4409	33.1105
3.4273	32.3512
3.4137	31.5144
3.4003	31.4358
3.387	31.3918
3.3738	30.7933
3.3606	30.8555
3.3476	31.1486
3.3347	31.0023
3.3219	30.6536
3.3092	30.4319
3.2965	29.8619
3.284	29.5242
3.2716	29.2185
3.2593	28.5219
3.247	28.3551
3.2348	27.5715
3.2228	27.3815
3.2108	26.7984
3.1989	26.5731
3.1871	26.3611
3.1754	25.349
3.1638	25.0906
3.1523	24.558
3.1408	23.8388
3.1294	23.4733
3.1181	22.8032
3.1069	22.6045
3.0958	22.1745
3.0848	21.8282
3.0738	21.5687
3.0629	21.8097
3.0521	21.1014
3.0413	21.5591
3.0307	21.2061
3.0201	21.2649
3.0096	20.9325
2.9991	20.7921
2.9887	20.9926
2.9784	20.2164
2.9682	20.0243
2.9581	20.0462
2.948	19.8746
2.9379	18.9505
2.928	19.6105
2.9181	19.9285
2.9083	20.7016
2.8985	20.4837
2.8888	20.5106
2.8792	20.7923
2.8697	20.1896
2.8602	21.0109
2.8507	21.0739
2.8413	20.4389
2.832	20.9645
2.8228	20.3939
2.8136	20.0651
2.8045	20.492
2.7954	20.979
2.7864	19.5294
2.7774	19.6521
2.7685	19.1553
2.7597	18.4435
2.7509	19.9472
2.7422	21.7816
2.7335	23.2833
2.7249	24.6487
2.7163	26.2822
2.7078	25.2179
2.6994	27.8182
2.691	33.1826
2.6826	35.9738
2.6743	36.6694
2.666	38.5769
2.6578	38.6021
2.6497	38.5753
2.6416	38.9755
2.6336	38.9725
2.6256	39.0652
2.6176	39.0215
2.6097	39.2406
2.6018	38.8495
2.594	39.5423
2.5863	39.7668
2.5785	39.4009
2.5709	38.9648
2.5633	39.0964
2.5557	38.9268
2.5481	38.9876
2.5406	39.2612
2.5332	39.2801
2.5258	39.3007
2.5184	39.076
2.5111	39.2179
2.5038	39.2109
2.4966	39.5517
2.4894	39.3438
2.4823	39.444
2.4752	39.0693
2.4681	38.9343
2.4611	39.9961
2.4541	39.512
2.4471	39.4613
2.4402	39.2306
2.4333	39.4323
2.4265	39.7374
2.4197	39.3076
2.413	39.8332
2.4063	39.3466
2.3996	39.8043
2.3929	39.1674
2.3863	39.596
2.3798	39.8065
2.3732	39.6421
2.3667	38.9402
2.3603	39.8222
2.3538	38.9334
2.3474	39.3259
2.3411	39.5335
2.3347	39.6874
2.3285	39.4032
2.3222	39.215
2.316	39.6534
2.3098	40.2935
2.3036	39.7813
2.2975	39.7402
2.2914	40.3151
2.2854	39.0474
2.2793	39.1797
2.2733	38.987
2.2674	39.5659
2.2614	39.9527
2.2555	39.9267
2.2497	39.6737
2.2438	39.7353
2.238	39.5811
2.2322	38.9254
2.2265	40.3841
2.2208	39.619
2.2151	40.2643
2.2094	39.8059
2.2038	39.225
2.1982	39.6382
2.1926	39.4338
2.187	40.0768
2.1815	40.2237
2.176	39.692
2.1706	39.9389
2.1651	40.4666
2.1597	39.537
2.1543	38.8918
2.149	39.7698
2.1436	39.4096
2.1383	40.2536
2.1331	40.7474
2.1278	40.7383
2.1226	39.7222
2.1174	39.6886
2.1122	38.9647
2.1071	40.2113
2.1019	39.623
2.0968	40.1979
2.0918	40.5045
2.0867	40.2914
2.0817	39.736
2.0767	39.6191
2.0717	40.7945
2.0667	40.815
2.0618	38.7775
2.0569	39.1569
2.052	39.5322
2.0472	40.6251
2.0423	41.1795
2.0375	41.4566
2.0327	38.5862
2.028	41.4096
2.0232	39.8691
2.0185	41.1457
2.0138	39.7238
2.0091	41.0731
2.0044	38.6154
1.9998	39.9717
