Name: Granite
Type: rock
Class: Igneous
Subclass: Felsic
Particle Size: Fine
Sample No.: Granite_H5
Owner: JHU
Wavelength Range: All
Origin: From Santa Rita Mountains, Arizona via Smithsonian (Cat No.NMNH 113640-15)
Description: Powder derived from a pinkish medium-grained sample consisting of feldspar and quartz with minor biotite. Some areas of the sample show granophyric texture, and a few vugs are present.Particle size was 0-75 micrometers. Original ASTER Spectral Library name was jhu.becknic.rock.igneous.felsic.fine.granit5.spectrum.txt
Measurement: Directional (10 degree) hemispherical reflectance
X Units: Wavelength (micrometers)
Y Units: Reflectance (percent)
wavelength	value
14.011	4.2
13.715	3.2072
13.43	2.9888
13.158	2.2594
12.896	2.2709
12.644	1.9003
12.402	3.186
12.169	5.2652
11.945	7.6036
11.729	8.5574
11.52	8.5716
11.319	8.5174
11.125	7.8776
10.937	7.2197
10.755	6.5182
10.58	5.5932
10.41	4.913
10.245	4.5951
10.086	4.8204
9.9313	5.1774
9.7814	4.8924
9.636	5.174
9.4948	5.1447
9.3577	6.246
9.2245	6.855
9.095	6.2215
8.9691	5.8116
8.8467	5.9613
8.7275	6.0759
8.6116	5.6234
8.4986	6.8934
8.3886	7.0603
8.2814	7.0699
8.1769	7.027
8.075	4.9268
7.9756	3.1877
7.8786	1.9577
7.784	1.4465
7.6916	1.2797
7.6014	1.1946
7.5133	1.4119
7.4272	1.638
7.343	1.9863
7.2607	2.5784
7.1803	3.3213
7.1016	4.3338
7.0246	5.0091
6.9493	5.6381
6.8755	6.1551
6.8034	6.2388
6.7327	6.281
6.6634	6.9501
6.5956	7.1798
6.5292	7.6043
6.464	9.4059
6.4002	9.6417
6.3376	8.4701
6.2762	7.2089
6.216	6.4449
6.157	7.3713
6.099	9.2299
6.0421	9.9199
5.9863	9.9023
5.9315	9.3408
5.8777	10.558
5.8249	11.693
5.773	12.101
5.722	12.29
5.6719	11.62
5.6227	10.324
5.5744	10.185
5.5268	11.757
5.4801	14.146
5.4341	14.905
5.3889	12.583
5.3445	11.049
5.3008	11.885
5.2578	14
5.2154	17.73
5.1738	19.467
5.1328	20.144
5.0925	20.881
5.0528	20.485
5.0137	20.713
4.9752	22.651
4.9373	26.014
4.9	29.507
4.8632	34.27
4.827	36.209
4.7913	36.08
4.7561	36.826
4.7215	37.817
4.6873	37.321
4.6536	38.509
4.6205	40.444
4.5877	41.996
4.5555	43.372
4.5237	43.96
4.4923	43.608
4.4614	44.363
4.4309	46.081
4.4008	47.703
4.3711	49.715
4.3418	51.3
4.3129	52.323
4.2844	52.879
4.2563	53.831
4.2285	54.325
4.2011	54.929
4.174	55.446
4.1473	55.885
4.1209	56.345
4.0949	56.736
4.0692	57.025
4.0438	57.024
4.0187	56.988
3.994	56.915
3.9695	57
3.9453	57.328
3.9214	57.487
3.8979	57.429
3.8746	57.271
3.8515	57.212
3.8288	57.196
3.8063	57.198
3.7841	57.065
3.7621	56.85
3.7404	56.584
3.7189	56.432
3.6977	56.4
3.6767	56.278
3.656	56.068
3.6355	55.786
3.6152	55.44
3.5951	55.068
3.5753	54.61
3.5557	54.188
3.5363	53.64
3.5171	52.742
3.4981	51.7
3.4793	51.367
3.4607	51.006
3.4423	50.205
3.4241	48.94
3.4061	48.214
3.3883	47.992
3.3707	47.279
3.3533	47.093
3.336	46.561
3.3189	45.715
3.302	44.8
3.2853	43.78
3.2687	42.74
3.2523	41.552
3.2361	40.407
3.22	39.208
3.204	38.073
3.1883	36.914
3.1727	35.797
3.1572	34.699
3.1419	33.704
3.1268	32.808
3.1117	31.96
3.0969	31.247
3.0821	30.628
3.0675	30.173
3.0531	29.756
3.0388	29.393
3.0246	29.029
3.0105	28.657
2.9966	28.246
2.9828	27.877
2.9692	27.423
2.9556	27.167
2.9422	27.178
2.9289	27.131
2.9157	27.409
2.9027	27.783
2.8897	28.26
2.8769	28.834
2.8642	29.41
2.8516	30.031
2.8391	30.721
2.8267	31.299
2.8144	31.628
2.8022	31.606
2.7902	31.283
2.7782	30.613
2.7664	30.054
2.7546	30.839
2.7429	33.837
2.7314	37.982
2.7199	43.63
2.7085	45.375
2.6973	51.788
2.6861	57.398
2.675	59.367
2.664	61.215
2.6531	62.143
2.6423	62.627
2.6315	62.708
2.6209	62.829
2.6103	63.131
2.5999	63.306
2.5895	63.356
2.5792	63.396
2.569	63.308
2.5588	63.524
2.5487	63.53
2.5388	63.629
2.5289	63.592
2.519	63.655
2.5093	63.753
2.4996	63.745
2.49	63.765
2.4805	63.755
2.471	63.782
2.4616	63.777
2.4523	63.906
2.4431	63.856
2.4339	63.919
2.4248	64.148
2.4157	64.172
2.4068	64.197
2.3979	64.185
2.389	64.195
2.3802	64.152
2.3715	64.134
2.3629	64.189
2.3543	64.126
2.3458	64.266
2.3373	64.349
2.3289	64.583
2.3206	64.637
2.3123	64.604
2.3041	64.641
2.2959	64.659
2.2878	64.681
2.2798	64.813
2.2718	64.699
2.2638	64.652
2.2559	64.617
2.2481	64.667
2.2403	64.524
2.2326	64.434
2.225	64.361
2.2173	64.303
2.2098	64.072
2.2023	64.396
2.1948	64.609
2.1874	64.631
2.18	64.839
2.1727	64.845
2.1655	65.003
2.1583	64.926
2.1511	65.109
2.144	65.143
2.1369	65.135
2.1299	65.005
2.1229	65.019
2.116	65.061
2.1091	64.971
2.1023	64.992
2.0955	64.95
2.0887	65.147
2.082	65.078
2.06	65.342
2.028	64.684
1.996	63.856
1.964	62.932
1.932	61.98
1.9	62.674
1.868	63.128
1.836	63.501
1.804	62.884
1.772	62.495
1.74	63.111
1.708	62.875
1.676	62.619
1.644	62.75
1.612	62.225
1.58	61.88
1.548	62.474
1.516	61.842
1.484	61.324
1.452	61.551
1.42	61.337
1.388	61.583
1.356	61.644
1.324	60.83
1.292	61.327
1.26	60.781
1.228	61.133
1.196	60.842
1.164	60.724
1.132	60.466
1.1	60.139
1.068	60.001
1.036	59.355
1.004	59.41
0.972	58.639
0.94	58.235
0.908	58.143
0.876	57.326
0.844	56.946
0.812	56.688
0.795	55.459
0.787	55.758
0.779	55.951
0.771	55.546
0.763	55.861
0.755	55.511
0.747	55.024
0.739	55.618
0.731	55.312
0.723	55.155
0.715	54.656
0.707	54.223
0.699	54.112
0.691	54.081
0.683	53.633
0.675	53.446
0.667	52.897
0.659	52.85
0.651	52.416
0.643	51.956
0.635	52.007
0.627	51.614
0.619	51.316
0.611	50.766
0.603	50.316
0.595	49.908
0.587	49.346
0.579	48.04
0.571	47.122
0.563	45.396
0.555	44.696
0.547	43.385
0.539	42.065
0.531	41.536
0.523	40.423
0.515	39.534
0.507	38.583
0.499	37.609
0.491	36.62
0.483	36.237
0.475	35.325
0.467	35.261
0.459	34.811
0.451	34.336
0.443	33.75
0.435	32.615
0.427	31.669
0.419	30.253
0.411	29.792
0.403	29.099
