Name: Biotite Schist
Type: Rock
Class: Metamorphic
Subclass: Schist
Particle Size: Solid
Sample No.: Ap-938-95
Owner: United States Geological Survey, L. C. Rowan
Wavelength Range: All
Origin: Iberian Pyrite Belt, Spain
Description: biotite schist with pyrite, weathered, darkSample was Whole rock chips. Original ASTER Spectral Library name was usgs.perknic.rock.metamorphic.schist.solid.sch95.spectrum.txt
Measurement: Directional Hemispherical Reflectance
X Units: Wavelength (micrometers)
Y Units: Reflectance (percent)
wavelength	value
14.051	4.6865
13.79	4.7689
13.538	4.8822
13.295	5.1809
13.06	4.8307
12.834	4.3775
12.616	4.3569
12.404	4.4393
12.2	4.3981
12.002	4.2436
11.811	4.4599
11.626	4.7277
11.446	5.1294
11.272	5.5826
11.103	5.8298
10.939	6.3757
10.78	6.7156
10.625	7.7044
10.475	8.343
10.329	9.1773
10.187	10.0837
10.049	11.2064
9.914	11.5875
9.783	10.6811
9.656	9.1361
9.532	7.7353
9.411	6.798
9.293	4.8925
9.178	3.5432
9.065	2.9973
8.956	2.9046
8.849	2.8428
8.744	2.7604
8.642	2.781
8.543	2.8428
8.445	2.8428
8.35	2.8737
8.257	2.987
8.166	3.1209
8.077	3.2136
7.99	3.4505
7.905	3.6668
7.821	3.6153
7.739	3.7904
7.659	3.8316
7.581	3.8316
7.504	3.8625
7.429	3.9346
7.355	3.9861
7.283	4.12
7.212	4.0479
7.143	4.0273
7.074	4.0685
7.007	4.12
6.942	4.1406
6.877	4.1612
6.814	4.1303
6.752	4.1818
6.691	4.1715
6.631	4.1612
6.572	4.2024
6.514	4.1818
6.458	4.0685
6.402	4.0376
6.347	4.0479
6.293	3.9346
6.24	3.9758
6.188	3.9655
6.137	3.8728
6.086	3.7801
6.037	3.8316
5.988	3.7595
5.94	3.9346
5.893	3.9037
5.846	4.0376
5.8	4.2024
5.755	4.2333
5.711	4.2951
5.667	4.2951
5.624	4.326
5.582	4.3569
5.54	4.3775
5.499	4.3466
5.459	4.4805
5.419	4.4805
5.379	4.4702
5.341	4.5629
5.302	4.6247
5.265	4.6556
5.227	4.7483
5.191	4.7071
5.155	4.738
5.119	4.841
5.084	4.8204
5.049	4.7792
5.015	4.8307
4.981	4.9234
4.948	4.9337
4.915	5.0367
4.883	5.0573
4.851	5.1912
4.819	5.1809
4.788	5.4075
4.758	5.3869
4.727	5.4693
4.697	5.562
4.668	5.6856
4.638	5.6959
4.61	5.9328
4.581	5.9843
4.553	6.0564
4.525	6.0873
4.498	6.2212
4.47	6.3036
4.444	6.3139
4.417	6.4478
4.391	6.5199
4.365	6.5817
4.34	6.4684
4.314	6.5817
4.289	6.6435
4.265	6.5096
4.24	6.6744
4.216	6.592
4.192	6.6435
4.169	6.6435
4.145	6.7259
4.122	6.798
4.099	6.7774
4.077	6.7259
4.055	6.7259
4.032	6.8289
4.011	6.6847
3.989	6.8186
3.968	6.7259
3.947	6.7053
3.926	6.695
3.905	6.7568
3.884	6.7774
3.864	6.6641
3.844	6.7053
3.824	6.7465
3.805	6.6126
3.785	6.5817
3.766	6.4478
3.747	6.3963
3.728	6.3654
3.709	6.4066
3.691	6.3551
3.673	6.2212
3.655	6.2109
3.637	6.0564
3.619	6.0358
3.601	5.9019
3.584	5.9122
3.567	5.8195
3.549	5.7165
3.533	5.6547
3.516	5.6032
3.499	5.6341
3.483	5.6341
3.466	5.4899
3.45	5.4899
3.434	5.3148
3.418	5.2427
3.403	5.3457
3.387	5.0882
3.372	5.0264
3.357	5.1809
3.341	5.0161
3.326	5.0676
3.312	4.8822
3.297	4.841
3.282	4.8719
3.268	4.8719
3.253	4.7174
3.239	4.6556
3.225	4.5835
3.211	4.532
3.197	4.532
3.183	4.3569
3.17	4.3466
3.156	4.4084
3.143	4.1612
3.13	4.1715
3.117	4.1715
3.103	4.1303
3.091	4.1715
3.078	3.914
3.065	3.8934
3.052	3.9037
3.04	3.9037
3.027	3.7801
3.015	3.9243
3.003	3.8728
2.991	3.7286
2.979	3.6977
2.967	3.6359
2.955	3.502
2.943	3.5741
2.932	3.4917
2.92	3.6668
2.909	3.7904
2.897	3.6977
2.886	3.4917
2.875	3.7389
2.864	3.3887
2.853	3.6359
2.842	3.7595
2.831	3.9552
2.82	3.708
2.809	3.8728
2.799	4.017
2.788	4.3569
2.778	4.326
2.767	4.5114
2.757	4.3981
2.747	4.5835
2.737	4.9749
2.727	5.3045
2.717	6.0873
2.707	7.1173
2.697	7.9825
2.687	8.549
2.677	9.3318
2.668	9.0434
2.658	9.4142
2.649	9.3627
2.639	9.8674
2.63	9.7026
2.62	9.4554
2.611	9.6614
2.602	9.888
2.593	9.888
2.584	9.8262
2.575	10.3618
2.566	9.888
2.557	10.3309
2.548	10.197
2.54	10.1764
2.531	10.1249
2.522	10.3721
2.514	10.3
2.505	10.3515
2.489	10.5163
2.461	11.2163
2.433	12.2163
2.405	12.3163
2.377	11.5163
2.349	10.1163
2.321	10.5163
2.293	11.4163
2.265	12.0163
2.237	13.7163
2.209	17.5163
2.181	18.9163
2.153	20.0163
2.125	20.3163
2.097	21.0163
2.069	20.4163
2.041	19.2163
2.013	17.6163
1.985	17.2163
1.957	17.6163
1.929	18.1163
1.901	18.3163
1.873	18.9163
1.845	19.5163
1.817	19.8163
1.789	19.5163
1.761	19.3163
1.733	19.1163
1.705	18.4163
1.677	18.1163
1.649	17.5163
1.621	17.0163
1.593	16.5163
1.565	16.0163
1.537	15.1163
1.509	15.3163
1.481	14.9163
1.453	14.5163
1.425	14.3163
1.397	12.9163
1.369	14.3163
1.341	13.7163
1.313	13.4163
1.285	13.1163
1.257	12.5163
1.229	12.0163
1.201	11.6163
1.173	11.6163
1.145	11.5163
1.117	11.1163
1.089	11.0163
1.061	11.0163
1.033	11.0163
1.005	11.0163
0.977	10.8163
0.949	10.4163
0.921	9.9163
0.893	9.7163
0.865	9.4163
0.837	9.7163
0.809	9.9163
0.799	9.9163
0.792	10.0163
0.785	10.1163
0.778	10.3163
0.771	10.3163
0.764	10.3163
0.757	10.3163
0.75	10.1163
0.743	10.1163
0.736	10.3163
0.729	10.0163
0.722	10.0163
0.715	10.1163
0.708	10.0163
0.701	9.9163
0.694	10.0163
0.687	9.8163
0.68	9.9163
0.673	9.9163
0.666	9.9163
0.659	9.9163
0.652	9.9163
0.645	9.9163
0.638	9.7163
0.631	9.8163
0.624	9.8163
0.617	10.0163
0.61	10.0163
0.603	10.1163
0.596	9.9163
0.589	10.0163
0.582	9.9163
0.575	9.7163
0.568	9.5163
0.561	9.4163
0.554	9.2163
0.547	8.6163
0.54	7.9163
0.533	7.6163
0.526	6.7163
0.519	6.0163
0.512	5.7163
0.505	5.1163
0.498	5.0163
0.491	4.8163
0.484	4.6163
0.477	4.8163
0.47	4.8163
0.463	5.4163
0.456	5.3163
0.449	5.6163
0.442	5.5163
0.435	5.5163
0.428	5.6163
0.421	5.7163
0.414	5.9163
0.407	6.0163
