Name: Rhyolite
Type: Rock
Class: Igneous
Subclass: Felsic
Particle Size: Solid
Sample No.: AP-939-212b
Owner: United States Geological Survey, L. C. Rowan
Wavelength Range: All
Origin: Iberian Pyrite Belt, Spain
Description: Rhyolite, white, fine, alteredsample was Whole Rock Chips. Original ASTER Spectral Library name was usgs.perknic.rock.igneous.felsic.solid.rhy212b.spectrum.txt
Measurement: Directional Hemispherical Reflectance
X Units: Wavelength (micrometers)
Y Units: Reflectance (percent)
wavelength	value
14.051	1.6789
13.79	1.854
13.538	2.0806
13.295	2.163
13.06	2.4823
12.834	2.9458
12.616	2.7604
12.404	2.7707
12.2	2.7501
12.002	2.9767
11.811	3.3166
11.626	3.6256
11.446	4.017
11.272	4.2539
11.103	4.8719
10.939	5.0161
10.78	3.6874
10.625	3.6771
10.475	4.2745
10.329	5.3457
10.187	6.5714
10.049	8.0031
9.914	10.1558
9.783	10.0013
9.656	12.7926
9.532	15.2028
9.411	15.7487
9.293	13.9153
9.178	12.0304
9.065	9.4348
8.956	7.2924
8.849	9.3112
8.744	8.5284
8.642	6.2624
8.543	6.18
8.445	6.4272
8.35	6.8392
8.257	7.313
8.166	7.9104
8.077	6.2109
7.99	4.6144
7.905	3.4608
7.821	2.7501
7.739	2.575
7.659	2.3278
7.581	2.1321
7.504	2.0291
7.429	1.9261
7.355	1.9158
7.283	1.8437
7.212	1.8849
7.143	1.9364
7.074	1.9673
7.007	1.8849
6.942	2.0291
6.877	2.0085
6.814	2.1939
6.752	2.1424
6.691	2.2866
6.631	2.3999
6.572	2.4514
6.514	2.3999
6.458	2.6059
6.402	2.5956
6.347	2.6059
6.293	2.4823
6.24	2.3999
6.188	2.1218
6.137	2.1012
6.086	2.0085
6.037	2.0909
5.988	2.2145
5.94	2.3793
5.893	2.5029
5.846	2.6986
5.8	2.9252
5.755	3.09
5.711	3.2857
5.667	3.3681
5.624	3.3681
5.582	3.4299
5.54	3.399
5.499	3.4711
5.459	3.5535
5.419	3.6153
5.379	3.5844
5.341	3.605
5.302	3.7183
5.265	3.8728
5.227	4.12
5.191	4.2951
5.155	4.3878
5.119	4.5011
5.084	4.6144
5.049	4.6659
5.015	4.7895
4.981	4.9337
4.948	5.3457
4.915	5.6238
4.883	6.2418
4.851	6.7774
4.819	7.1688
4.788	7.4469
4.758	7.6529
4.727	7.9722
4.697	8.0752
4.668	8.1782
4.638	8.7241
4.61	9.3215
4.581	9.6511
4.553	9.8777
4.525	9.785
4.498	9.3936
4.47	9.4142
4.444	9.7644
4.417	10.2279
4.391	10.7944
4.365	11.5051
4.34	12.0922
4.314	12.4218
4.289	12.5145
4.265	12.9059
4.24	13.081
4.216	13.2355
4.192	13.3179
4.169	13.6578
4.145	13.8226
4.122	14.1522
4.099	14.3273
4.077	14.5848
4.055	14.832
4.032	14.8217
4.011	14.8629
3.989	15.038
3.968	15.1307
3.947	15.347
3.926	15.5942
3.905	15.5839
3.884	15.5324
3.864	15.5839
3.844	15.5118
3.824	15.5942
3.805	15.5015
3.785	15.3676
3.766	15.0689
3.747	14.9453
3.728	14.6466
3.709	14.626
3.691	14.3891
3.673	14.42
3.655	14.2037
3.637	13.9359
3.619	13.7711
3.601	13.2973
3.584	13.0192
3.567	12.6999
3.549	12.2982
3.533	12.0304
3.516	11.4639
3.499	11.021
3.483	10.8665
3.466	10.6811
3.45	10.3927
3.434	10.0734
3.418	9.4348
3.403	9.2906
3.387	9.1258
3.372	9.0949
3.357	8.8477
3.341	8.6932
3.326	8.4975
3.312	8.3636
3.297	8.0031
3.282	7.8074
3.268	7.5808
3.253	7.3542
3.239	7.0864
3.225	6.9113
3.211	6.6126
3.197	6.4066
3.183	6.2521
3.17	6.0358
3.156	5.8401
3.143	5.6753
3.13	5.3766
3.117	5.1706
3.103	4.9749
3.091	5.0676
3.078	4.7689
3.065	4.8513
3.052	4.7174
3.04	4.5114
3.027	4.8204
3.015	4.7792
3.003	4.5629
2.991	4.5732
2.979	4.3672
2.967	4.326
2.955	4.3363
2.943	4.2848
2.932	4.1097
2.92	4.2333
2.909	4.2642
2.897	4.2848
2.886	4.326
2.875	4.1921
2.864	4.3981
2.853	4.4084
2.842	4.2127
2.831	4.3466
2.82	3.914
2.809	3.811
2.799	3.7286
2.788	3.5947
2.778	3.1209
2.767	2.9046
2.757	2.4514
2.747	2.5956
2.737	2.5853
2.727	2.987
2.717	3.0282
2.707	3.2754
2.697	3.1312
2.687	5.9328
2.677	9.9086
2.668	12.7617
2.658	15.0277
2.649	16.6036
2.639	17.9632
2.63	18.6533
2.62	19.3022
2.611	19.8893
2.602	20.3528
2.593	21.0532
2.584	21.218
2.575	21.5579
2.566	22.4025
2.557	22.6703
2.548	22.9278
2.54	23.3089
2.531	23.4531
2.522	23.5767
2.514	23.8445
2.505	23.9887
2.489	24.2256
2.461	24.7256
2.433	26.4256
2.405	28.9256
2.377	29.6256
2.349	29.9256
2.321	32.5256
2.293	36.6256
2.265	39.4256
2.237	35.4256
2.209	31.5256
2.181	38.4256
2.153	43.2256
2.125	47.3256
2.097	50.9256
2.069	51.7256
2.041	51.5256
2.013	49.4256
1.985	46.3256
1.957	43.7256
1.929	40.9256
1.901	39.6256
1.873	56.7256
1.845	62.8256
1.817	64.2256
1.789	64.4256
1.761	65.4256
1.733	65.6256
1.705	65.5256
1.677	66.0256
1.649	65.5256
1.621	65.4256
1.593	64.9256
1.565	63.8256
1.537	61.9256
1.509	61.2256
1.481	59.3256
1.453	57.1256
1.425	49.8256
1.397	47.1256
1.369	57.3256
1.341	59.5256
1.313	60.0256
1.285	59.5256
1.257	57.7256
1.229	56.4256
1.201	54.8256
1.173	54.0256
1.145	53.6256
1.117	52.9256
1.089	52.5256
1.061	52.7256
1.033	52.6256
1.005	52.3256
0.977	52.1256
0.949	51.4256
0.921	50.7256
0.893	50.1256
0.865	50.4256
0.837	50.6256
0.809	50.4256
0.799	50.4256
0.792	50.0256
0.785	50.4256
0.778	50.0256
0.771	50.1256
0.764	49.6256
0.757	49.8256
0.75	49.5256
0.743	49.5256
0.736	49.2256
0.729	49.0256
0.722	48.5256
0.715	49.0256
0.708	47.7256
0.701	47.4256
0.694	47.2256
0.687	46.8256
0.68	46.6256
0.673	46.5256
0.666	46.0256
0.659	45.7256
0.652	45.1256
0.645	44.8256
0.638	44.1256
0.631	43.8256
0.624	43.3256
0.617	43.1256
0.61	42.1256
0.603	41.6256
0.596	40.9256
0.589	40.2256
0.582	39.8256
0.575	39.3256
0.568	38.9256
0.561	37.8256
0.554	36.7256
0.547	36.0256
0.54	35.4256
0.533	34.3256
0.526	33.4256
0.519	32.7256
0.512	31.1256
0.505	30.2256
0.498	29.3256
0.491	28.5256
0.484	27.9256
0.477	27.5256
0.47	27.2256
0.463	26.8256
0.456	25.7256
0.449	25.1256
0.442	24.4256
0.435	23.9256
0.428	23.6256
0.421	22.9256
0.414	22.4256
0.407	21.6256
