Name: Arkose
Type: Rock
Class: Sedimentary
Subclass: Sandstone
Particle Size: Solid
Sample No.: Ward62
Owner: JPL
Wavelength Range: VSWIR
Origin: Ward's Collection of American Rocks.  Sample locality - Mount Tom, Hampshire County, Massachusetts.
Description: A reddish-brown feldspathic sandstone composed of sub-angularpebbles and grains of feldspar and glassy quartz cemented by a siliceous,ferruginous cement.Geologic age - Triassic.Collected by:  Ward's Natural Science Original ASTER Spectral Library name was jpl.perkin.rock.sedimentary.sandstone.solid.ward62.spectrum.txt
Measurement: Hemispherical reflectance
X Units: Wavelength (micrometers)
Y Units: Reflectance (percent)
wavelength	value
2.5	23.8574
2.494	23.4925
2.488	23.8814
2.482	24.0058
2.476	24.0533
2.47	24.0839
2.464	24.2144
2.458	24.2705
2.452	24.319
2.446	24.5214
2.44	24.482
2.434	24.5089
2.428	24.6526
2.422	24.7573
2.416	24.8564
2.41	25.0316
2.404	25.0517
2.398	25.1857
2.392	25.2475
2.386	25.2636
2.38	25.3295
2.374	25.3554
2.368	25.4068
2.362	25.4392
2.356	25.4164
2.35	25.433
2.344	25.4757
2.338	25.4608
2.332	25.5398
2.326	25.6126
2.32	25.808
2.314	25.8481
2.308	25.9939
2.302	26.0142
2.296	26.1316
2.29	26.1645
2.284	26.2559
2.278	26.3038
2.272	26.3348
2.266	26.3894
2.26	26.4348
2.254	26.4015
2.248	26.3938
2.242	26.3338
2.236	26.4039
2.23	26.3423
2.224	26.3201
2.218	26.1702
2.212	26.1578
2.206	26.0051
2.2	26.0333
2.194	26.0251
2.188	26.2723
2.182	26.4257
2.176	26.6534
2.17	26.8405
2.164	26.9345
2.158	27.049
2.152	27.1417
2.146	27.1611
2.14	27.225
2.134	27.0681
2.128	27.0924
2.122	26.9951
2.116	26.8632
2.11	26.8036
2.104	26.6788
2.098	26.6274
2.092	26.6688
2.086	26.6757
2.08	26.7026
2.074	26.7086
2.068	26.7007
2.062	26.7145
2.056	26.7286
2.05	26.7081
2.044	26.6825
2.038	26.7122
2.032	26.6152
2.026	26.5747
2.02	26.6128
2.014	26.4802
2.008	26.4334
2.002	26.3634
1.996	26.3348
1.99	26.2621
1.984	26.1794
1.978	26.0117
1.972	25.9868
1.966	25.8525
1.96	25.8083
1.954	25.8014
1.948	25.7369
1.942	25.5541
1.936	25.661
1.93	25.4663
1.924	25.2729
1.918	25.2498
1.912	25.2361
1.906	25.336
1.9	25.6623
1.894	26.165
1.888	26.5768
1.882	26.8708
1.876	26.9862
1.87	27.0376
1.864	27.233
1.858	27.1206
1.852	27.1915
1.846	27.2195
1.84	27.2311
1.834	27.3095
1.828	27.3086
1.822	27.3607
1.816	27.3617
1.81	27.32
1.804	27.3412
1.798	27.3858
1.792	27.3934
1.786	27.3021
1.78	27.2535
1.774	27.3096
1.768	27.3713
1.762	27.3089
1.756	27.3548
1.75	27.3423
1.744	27.3802
1.738	27.38
1.732	27.3451
1.726	27.3801
1.72	27.326
1.714	27.3528
1.708	27.4371
1.702	27.3673
1.696	27.3652
1.69	27.3946
1.684	27.417
1.678	27.4191
1.672	27.3953
1.666	27.4803
1.66	27.5131
1.654	27.4997
1.648	27.4824
1.642	27.6133
1.636	27.4808
1.63	27.5031
1.624	27.5433
1.618	27.5255
1.612	27.5687
1.606	27.584
1.6	27.5741
1.594	27.5943
1.588	27.5744
1.582	27.6298
1.576	27.6662
1.57	27.6568
1.564	27.6546
1.558	27.6284
1.552	27.6207
1.546	27.7091
1.54	27.635
1.534	27.6893
1.528	27.7067
1.522	27.7488
1.516	27.6979
1.51	27.6988
1.504	27.6838
1.498	27.7509
1.492	27.7024
1.486	27.7588
1.48	27.6569
1.474	27.6969
1.468	27.6966
1.462	27.7467
1.456	27.7931
1.45	27.7816
1.444	27.7772
1.438	27.7339
1.432	27.754
1.426	27.7288
1.42	27.5611
1.414	27.3298
1.408	27.5188
1.402	27.6443
1.396	27.9087
1.39	28.2048
1.384	28.215
1.378	28.3857
1.372	28.4753
1.366	28.4414
1.36	28.4741
1.354	28.5708
1.348	28.5775
1.342	28.5915
1.336	28.5812
1.33	28.6758
1.324	28.6747
1.318	28.7258
1.312	28.6506
1.306	28.8287
1.3	28.7797
1.294	28.8129
1.288	28.8904
1.282	28.9726
1.276	28.8667
1.27	28.9449
1.264	28.9517
1.258	29.0093
1.252	29.0209
1.246	29.0667
1.24	29.0612
1.234	29.1513
1.228	29.1667
1.222	29.1696
1.216	29.2302
1.21	29.2601
1.204	29.2925
1.198	29.3134
1.192	29.3794
1.186	29.4044
1.18	29.4043
1.174	29.4822
1.168	29.4919
1.162	29.5681
1.156	29.5513
1.15	29.6562
1.144	29.6623
1.138	29.775
1.132	29.8055
1.126	29.8256
1.12	29.8674
1.114	29.9306
1.108	30.0482
1.102	30.076
1.096	30.1538
1.09	30.2236
1.084	30.199
1.078	30.2783
1.072	30.4148
1.066	30.49
1.06	30.4449
1.054	30.574
1.048	30.6238
1.042	30.7004
1.036	30.8
1.03	30.8222
1.024	30.9231
1.018	31.0008
1.012	30.9766
1.006	31.0663
1	31.0304
0.994	31.0003
0.988	31.0568
0.982	31.0866
0.976	31.0542
0.97	31.0656
0.964	31.0164
0.958	31.0062
0.952	31.0175
0.946	30.9579
0.94	30.8268
0.934	30.7652
0.928	30.8155
0.922	30.7631
0.916	30.6933
0.91	30.7356
0.904	30.637
0.898	30.6361
0.892	30.5759
0.886	30.5422
0.88	30.694
0.874	30.7174
0.868	30.8272
0.862	30.8807
0.856	30.6557
0.85	30.7496
0.844	30.7845
0.838	30.8604
0.832	30.9099
0.826	30.9305
0.82	31.0065
0.814	31.0031
0.808	31.0446
0.802	31.0246
0.796	31.0036
0.79	30.9847
0.784	30.9278
0.778	30.8832
0.772	30.7951
0.766	30.6975
0.76	30.5945
0.754	30.4712
0.748	30.3301
0.742	30.1844
0.736	30.0304
0.73	29.8632
0.724	29.6795
0.718	29.4916
0.712	29.3007
0.706	29.1218
0.7	28.9382
0.694	28.7506
0.688	28.5712
0.682	28.3908
0.676	28.2015
0.67	28.0274
0.664	27.851
0.658	27.684
0.652	27.5006
0.646	27.3292
0.64	27.1463
0.634	26.9689
0.628	26.7966
0.622	26.5911
0.616	26.3846
0.61	26.1549
0.604	25.8864
0.598	25.5831
0.592	25.229
0.586	24.7813
0.58	24.2497
0.574	23.6503
0.568	23.0035
0.562	22.3297
0.556	21.6559
0.55	21.0627
0.544	20.5711
0.538	20.1559
0.532	19.8089
0.526	19.5218
0.52	19.2727
0.514	19.0406
0.508	18.8171
0.502	18.585
0.496	18.3648
0.49	18.1524
0.484	17.9444
0.478	17.8143
0.472	17.7131
0.466	17.5784
0.46	17.4225
0.454	17.2329
0.448	17.0177
0.442	16.7785
0.436	16.5287
0.43	16.2702
0.424	16.0444
0.418	15.8404
0.412	15.6776
0.406	15.527
0.4	15.3811
