Name: Basalt
Type: Rock
Class: Igneous
Subclass: Mafic
Particle Size: Solid
Sample No.: Me16b
Owner: Lawrence Rowan, USGS Reston
Wavelength Range: All
Origin: El Hammah, Middle East
Description: Basalt, fresh surfaceSample was Whole rock chips. Original ASTER Spectral Library name was usgs.perknic.rock.igneous.mafic.solid.me16b.spectrum.txt
Measurement: Directional Hemispherical Reflectance
X Units: Wavelength (micrometers)
Y Units: Reflectance (percent)
wavelength	value
14.051	3.9449
13.826	3.6977
13.609	3.7698
13.398	3.7801
13.193	3.7595
12.995	3.8316
12.802	4.0376
12.616	4.0685
12.434	4.2848
12.258	4.8307
12.086	5.3148
11.92	5.9843
11.757	6.3551
11.6	7.1997
11.446	8.137
11.297	9.1361
11.151	9.5996
11.009	10.1661
10.87	10.7635
10.735	11.1961
10.604	11.3815
10.475	11.1137
10.35	11.639
10.227	12.154
10.108	12.0304
9.991	12.5557
9.877	13.0707
9.765	13.1428
9.656	13.1531
9.549	12.7514
9.445	12.1025
9.343	11.0004
9.243	10.0425
9.145	9.8571
9.049	10.0528
8.956	9.6408
8.864	9.2494
8.774	8.6417
8.686	8.2194
8.599	7.7456
8.515	7.2821
8.431	6.8701
8.35	6.4169
8.27	5.5517
8.192	4.4187
8.115	3.7492
8.039	3.6359
7.965	3.399
7.893	3.5947
7.821	3.502
7.751	3.6668
7.682	3.7286
7.614	3.7492
7.548	3.7492
7.483	3.7904
7.418	3.914
7.355	3.8934
7.293	4.0582
7.232	4.0376
7.172	4.1509
7.113	4.1303
7.055	4.1818
6.998	4.2539
6.942	4.2539
6.886	4.326
6.832	4.3569
6.778	4.2436
6.726	4.3054
6.674	4.3775
6.623	4.3363
6.572	4.4084
6.523	4.3363
6.474	4.326
6.426	4.2642
6.378	4.1406
6.332	4.017
6.286	3.9552
6.24	3.9346
6.195	3.8934
6.151	3.7698
6.108	3.6874
6.065	3.7389
6.023	3.708
5.981	3.7904
5.94	3.9861
5.899	4.0685
5.859	4.2436
5.82	4.3466
5.781	4.3981
5.743	4.4496
5.705	4.5217
5.667	4.4599
5.63	4.4702
5.594	4.635
5.558	4.5629
5.523	4.6556
5.487	4.7174
5.453	4.7483
5.419	4.8101
5.385	4.8616
5.352	4.8925
5.319	4.9131
5.286	4.9646
5.254	4.9852
5.222	5.047
5.191	5.0367
5.16	5.0882
5.129	5.1088
5.099	5.0882
5.069	5.1294
5.04	5.1397
5.01	5.0882
4.981	5.0676
4.953	5.1706
4.925	5.1603
4.897	5.2118
4.869	5.2633
4.842	5.2427
4.815	5.2324
4.788	5.2942
4.762	5.2633
4.736	5.3148
4.71	5.356
4.684	5.3045
4.659	5.356
4.634	5.3148
4.61	5.3972
4.585	5.459
4.561	5.4178
4.537	5.4899
4.513	5.4487
4.49	5.4384
4.467	5.4075
4.444	5.459
4.421	5.4899
4.398	5.4693
4.376	5.3972
4.354	5.5105
4.332	5.4693
4.311	5.3869
4.289	5.5311
4.268	5.5208
4.247	5.4384
4.226	5.4693
4.206	5.459
4.185	5.4178
4.165	5.3972
4.145	5.3972
4.126	5.5002
4.106	5.3972
4.086	5.3663
4.067	5.3972
4.048	5.4075
4.029	5.4178
4.011	5.4075
3.992	5.3457
3.974	5.1706
3.956	5.2221
3.938	5.3354
3.92	5.3251
3.902	5.253
3.884	5.1809
3.867	5.356
3.85	5.15
3.833	5.2942
3.816	5.2736
3.799	5.3148
3.782	5.3148
3.766	5.3251
3.75	5.253
3.733	5.2221
3.717	5.3251
3.702	5.3251
3.686	5.2633
3.67	5.3766
3.655	5.0985
3.639	5.1809
3.624	5.2427
3.609	5.2633
3.594	5.2221
3.579	5.1603
3.564	5.1603
3.549	5.2015
3.535	5.15
3.521	5.0264
3.506	4.9028
3.492	5.0058
3.478	5.0161
3.464	4.9131
3.45	4.8822
3.437	4.9852
3.423	4.738
3.409	4.9234
3.396	4.7895
3.383	4.8822
3.37	4.7174
3.357	4.944
3.344	4.7689
3.331	4.8616
3.318	4.8616
3.305	4.738
3.293	4.8101
3.28	4.738
3.268	4.6762
3.255	4.7277
3.243	4.8101
3.231	4.6453
3.219	4.5217
3.207	4.5835
3.195	4.5114
3.183	4.8307
3.172	4.5629
3.16	4.6659
3.149	4.4805
3.137	4.6762
3.126	4.532
3.115	4.5526
3.103	4.5011
3.092	4.4496
3.081	4.3878
3.07	4.3878
3.06	4.429
3.049	4.4496
3.038	4.3466
3.027	4.3363
3.017	4.2745
3.006	4.3981
2.996	4.2642
2.986	4.4393
2.975	4.5217
2.965	4.3363
2.955	4.2539
2.945	4.326
2.935	4.223
2.925	4.3569
2.915	4.2951
2.905	4.1818
2.896	4.429
2.886	4.4599
2.876	4.5938
2.867	4.2745
2.857	4.4599
2.848	4.3157
2.838	4.3672
2.829	4.4496
2.82	4.6453
2.811	4.3157
2.802	4.5629
2.793	4.6041
2.784	4.3981
2.775	4.6247
2.766	4.841
2.757	4.6762
2.748	4.8719
2.74	4.7277
2.731	4.7689
2.722	5.2839
2.714	5.2839
2.705	5.3457
2.697	5.6753
2.688	5.4487
2.68	6.4066
2.672	5.5723
2.664	5.7886
2.655	5.8813
2.647	5.8813
2.639	5.8504
2.631	5.9946
2.623	6.1903
2.615	6.1388
2.607	6.2521
2.599	5.9843
2.592	6.1903
2.584	6.1903
2.576	6.0152
2.569	6.0976
2.561	6.0667
2.553	6.0564
2.546	6.2109
2.538	5.9637
2.531	5.8813
2.524	6.1594
2.516	5.9946
2.509	6.0564
2.502	6.1388
2.48	5.9005
2.456	6.7199
2.432	7.0094
2.408	6.3477
2.384	6.8045
2.36	6.4184
2.336	6.8368
2.312	6.8808
2.288	6.6321
2.264	6.8254
2.24	6.8949
2.216	6.7849
2.192	7.1168
2.168	7.0543
2.144	7.2296
2.12	7.1118
2.096	7.0107
2.072	7.0586
2.048	7.1096
2.024	7.1556
2	7.2417
1.976	7.2944
1.952	7.2953
1.928	7.182
1.904	7.1034
1.88	7.1382
1.856	7.1619
1.832	7.2284
1.808	7.2484
1.784	7.3984
1.76	7.3581
1.736	7.3986
1.712	7.3608
1.688	7.4626
1.664	7.4196
1.64	7.4159
1.616	7.4376
1.592	7.4028
1.568	7.4401
1.544	7.4065
1.52	7.3992
1.496	7.4365
1.472	7.424
1.448	7.4621
1.424	7.3779
1.4	7.3448
1.376	7.3098
1.352	7.2183
1.328	7.3243
1.304	7.2777
1.28	7.2934
1.256	7.309
1.232	7.3105
1.208	7.2975
1.184	7.2765
1.16	7.3433
1.136	7.3596
1.112	7.3288
1.088	7.3566
1.064	7.3623
1.04	7.3735
1.016	7.4989
0.992	7.5506
0.968	7.7575
0.944	7.8516
0.92	8.2273
0.896	8.3414
0.872	8.3228
0.848	8.6216
0.824	8.6934
0.8	8.6804
0.776	8.7212
0.752	8.7869
0.728	8.8264
0.704	8.8303
0.68	8.8819
0.656	8.9038
0.632	8.9569
0.608	8.9964
0.584	9.0424
0.56	9.0953
0.536	9.1605
0.512	9.2317
0.488	9.1729
0.464	9.2234
0.44	9.2053
0.416	9.1676
