Name: Tuff
Type: Rock
Class: Igneous
Subclass: Felsic
Particle Size: Solid
Sample No.: Ward04
Owner: JPL
Wavelength Range: VSWIR
Origin: Ward's Collection of American Rocks.  Sample locality - Cripple Creek, Teller county, Colorado.
Description: A light-gray felsitic rock, somewhat porous and earthy inappearance, with speckles of pyrite.Geologic age - Tertiary (Oligocene).Collected by:  Ward's Natural Science Original ASTER Spectral Library name was jpl.perkin.rock.igneous.felsic.solid.ward04.spectrum.txt
Measurement: Hemispherical reflectance
X Units: Wavelength (micrometers)
Y Units: Reflectance (percent)
wavelength	value
2.5	29.4982
2.494	29.4382
2.488	29.6074
2.482	30.0847
2.476	30.3842
2.47	30.858
2.464	31.2188
2.458	31.5675
2.452	31.8433
2.446	32.2496
2.44	32.5402
2.434	32.9425
2.428	33.4368
2.422	33.954
2.416	34.3198
2.41	34.5983
2.404	34.6057
2.398	34.6491
2.392	34.5537
2.386	34.465
2.38	34.6675
2.374	35.2197
2.368	35.9206
2.362	36.4036
2.356	36.6957
2.35	36.8827
2.344	36.9664
2.338	37.0472
2.332	37.0931
2.326	37.1827
2.32	37.4427
2.314	37.9793
2.308	38.6908
2.302	39.4936
2.296	40.2135
2.29	40.9777
2.284	41.588
2.278	42.0318
2.272	42.4706
2.266	42.6806
2.26	42.7555
2.254	42.5713
2.248	42.4481
2.242	42.5148
2.236	42.8342
2.23	42.9296
2.224	42.5123
2.218	40.8617
2.212	38.421
2.206	37.0728
2.2	38.2561
2.194	40.0277
2.188	41.3167
2.182	42.1424
2.176	42.6966
2.17	42.8174
2.164	43.0691
2.158	43.5333
2.152	44.5724
2.146	45.7688
2.14	46.7194
2.134	47.313
2.128	47.531
2.122	47.5843
2.116	47.5961
2.11	47.5194
2.104	47.5762
2.098	47.6214
2.092	47.7144
2.086	47.8276
2.08	47.9321
2.074	48.0618
2.068	48.1372
2.062	48.12
2.056	48.0783
2.05	48.0605
2.044	48.0464
2.038	47.8422
2.032	47.6677
2.026	47.5914
2.02	47.354
2.014	47.0502
2.008	46.769
2.002	46.4493
1.996	46.1378
1.99	45.7016
1.984	45.3773
1.978	44.925
1.972	44.5802
1.966	44.2288
1.96	43.8418
1.954	43.526
1.948	43.2804
1.942	42.9407
1.936	42.5081
1.93	42.0614
1.924	41.4048
1.918	40.5982
1.912	40.1857
1.906	40.676
1.9	42.5131
1.894	44.7495
1.888	46.6959
1.882	47.9832
1.876	48.791
1.87	49.1922
1.864	49.4767
1.858	49.6047
1.852	49.6822
1.846	49.4936
1.84	49.5877
1.834	49.5261
1.828	49.4188
1.822	49.352
1.816	49.2959
1.81	49.2236
1.804	49.1393
1.798	49.1032
1.792	49.0227
1.786	48.9679
1.78	48.8861
1.774	48.7673
1.768	48.7313
1.762	48.6719
1.756	48.6161
1.75	48.5426
1.744	48.4618
1.738	48.3967
1.732	48.3681
1.726	48.191
1.72	48.1182
1.714	47.9722
1.708	47.8776
1.702	47.7287
1.696	47.6203
1.69	47.4884
1.684	47.4557
1.678	47.2732
1.672	47.1694
1.666	47.0421
1.66	46.9016
1.654	46.7085
1.648	46.6338
1.642	46.4918
1.636	46.398
1.63	46.2335
1.624	46.0972
1.618	45.9818
1.612	45.8152
1.606	45.6402
1.6	45.4568
1.594	45.3602
1.588	45.1172
1.582	45.065
1.576	44.743
1.57	44.6401
1.564	44.4716
1.558	44.3595
1.552	44.0838
1.546	43.9754
1.54	43.8039
1.534	43.5408
1.528	43.3867
1.522	43.2143
1.516	42.9987
1.51	42.7686
1.504	42.5928
1.498	42.381
1.492	42.2144
1.486	41.8914
1.48	41.6642
1.474	41.4668
1.468	41.1892
1.462	40.9692
1.456	40.7758
1.45	40.5498
1.444	40.2321
1.438	39.9584
1.432	39.6151
1.426	39.2373
1.42	38.4986
1.414	37.0559
1.408	37.7726
1.402	37.8786
1.396	37.5125
1.39	37.2992
1.384	37.358
1.378	37.7442
1.372	38.4507
1.366	38.5322
1.36	38.3855
1.354	38.413
1.348	38.2543
1.342	38.1845
1.336	37.9689
1.33	37.937
1.324	37.6508
1.318	37.565
1.312	37.344
1.306	37.232
1.3	37.0272
1.294	36.9488
1.288	36.7201
1.282	36.6319
1.276	36.4547
1.27	36.3556
1.264	36.2156
1.258	36.0275
1.252	35.9466
1.246	35.7964
1.24	35.667
1.234	35.5461
1.228	35.439
1.222	35.302
1.216	35.2708
1.21	35.1009
1.204	35.0525
1.198	34.9373
1.192	34.8519
1.186	34.8028
1.18	34.7154
1.174	34.7401
1.168	34.6454
1.162	34.6343
1.156	34.5405
1.15	34.5676
1.144	34.5446
1.138	34.5405
1.132	34.5475
1.126	34.6059
1.12	34.5523
1.114	34.5317
1.108	34.5496
1.102	34.5949
1.096	34.6057
1.09	34.6859
1.084	34.7573
1.078	34.665
1.072	34.806
1.066	34.8153
1.06	34.7887
1.054	34.87
1.048	34.8547
1.042	34.8597
1.036	34.9558
1.03	34.9829
1.024	34.88
1.018	34.8363
1.012	34.8471
1.006	34.8166
1	34.7968
0.994	34.7543
0.988	34.6398
0.982	34.5738
0.976	34.517
0.97	34.4407
0.964	34.3514
0.958	34.2677
0.952	34.206
0.946	34.139
0.94	34.1177
0.934	34.0246
0.928	34.0921
0.922	33.9766
0.916	33.9449
0.91	33.9565
0.904	34.0733
0.898	34.037
0.892	34.0449
0.886	34.1691
0.88	34.1819
0.874	34.259
0.868	34.359
0.862	34.428
0.856	34.9398
0.85	35.033
0.844	35.1316
0.838	35.2298
0.832	35.2837
0.826	35.325
0.82	35.3102
0.814	35.3085
0.808	35.2035
0.802	35.1342
0.796	34.9675
0.79	34.8523
0.784	34.7202
0.778	34.5479
0.772	34.3291
0.766	34.1665
0.76	33.9874
0.754	33.8377
0.748	33.6769
0.742	33.5466
0.736	33.4483
0.73	33.3482
0.724	33.264
0.718	33.2137
0.712	33.1575
0.706	33.1358
0.7	33.1179
0.694	33.1156
0.688	33.1205
0.682	33.1238
0.676	33.1281
0.67	33.1321
0.664	33.1292
0.658	33.0875
0.652	33.0715
0.646	33.0428
0.64	33.004
0.634	32.9482
0.628	32.8728
0.622	32.7848
0.616	32.6792
0.61	32.5614
0.604	32.4251
0.598	32.2986
0.592	32.1379
0.586	31.9401
0.58	31.7246
0.574	31.4899
0.568	31.2499
0.562	31.0189
0.556	30.6666
0.55	30.3953
0.544	30.1103
0.538	29.8361
0.532	29.5528
0.526	29.2698
0.52	28.9758
0.514	28.659
0.508	28.3306
0.502	27.9545
0.496	27.5582
0.49	27.1816
0.484	26.7821
0.478	26.6135
0.472	26.4297
0.466	26.2401
0.46	26.0497
0.454	25.8073
0.448	25.5676
0.442	25.3293
0.436	25.1049
0.43	24.8532
0.424	24.5869
0.418	24.3399
0.412	24.0625
0.406	23.7695
0.4	23.4511
