Name: Green Quartzite
Type: rock
Class: Metamorphic
Subclass: Quartzite
Particle Size: Fine
Sample No.: qtzite2
Owner: JHU
Wavelength Range: All
Origin: Sample No. 376, The Hunt and Salisbury Collection at the U.S.Geological Survey, Denver, Co.
Description: This medium to fine-grained rock contains aligned quartz grains showing strain, pressure solution effects, recrystallization and scattered fluid inclusions.  Green bands or lenses contain cores of larger grains surrounded by smaller ones produced by mechanical breakage (cataclasis).  These grains are colorless to very pale green and appear to be tremolite.   Modes for this sample were 77.5% quartz and 22.5% amphibole. Particle size was 0-75 Micrometer. Original ASTER Spectral Library name was jhu.becknic.rock.metamorphic.quartzite.fine.qrtzit2.spectrum.txt
Measurement: Directional (10 Degree) Hemispherical Reflectance
X Units: Wavelength (micrometers)
Y Units: Reflectance (percent)
wavelength	value
14.983	8.6071
14.645	6.3464
14.321	2.0653
14.011	7.3671
13.715	8.7965
13.43	8.4231
13.158	6.1307
12.896	3.5165
12.644	2.6066
12.402	1.8555
12.169	2.8617
11.945	6.8826
11.729	10.067
11.52	10.627
11.319	9.6616
11.125	9.9294
10.937	9.0317
10.755	8.0738
10.58	6.7973
10.41	6.5527
10.245	5.8607
10.086	5.066
9.9313	4.8479
9.7814	4.6802
9.636	4.2553
9.4948	4.6087
9.3577	7.7811
9.2245	8.9313
9.095	8.7051
8.9691	8.2291
8.8467	7.8613
8.7275	7.0187
8.6116	5.1387
8.4986	6.9944
8.3886	6.7047
8.2814	7.7356
8.1769	10.126
8.075	8.2473
7.9756	6.1423
7.8786	3.8828
7.784	2.9199
7.6916	2.6237
7.6014	2.1645
7.5133	2.1707
7.4272	2.3104
7.343	2.6445
7.2607	3.1807
7.1803	3.5342
7.1016	3.6219
7.0246	3.466
6.9493	3.3282
6.8755	3.21
6.8034	3.2032
6.7327	3.2636
6.6634	3.9167
6.5956	4.6492
6.5292	5.7842
6.464	10.451
6.4002	12.365
6.3376	10.046
6.2762	7.1121
6.216	5.5829
6.157	7.8727
6.099	12.598
6.0421	14.18
5.9863	12.726
5.9315	10.741
5.8777	14.696
5.8249	19.166
5.773	22.632
5.722	24.92
5.6719	22.127
5.6227	14.68
5.5744	12.66
5.5268	14.879
5.4801	18.716
5.4341	19.031
5.3889	11.16
5.3445	7.6217
5.3008	8.4735
5.2578	11.976
5.2154	19.257
5.1738	20.759
5.1328	19.967
5.0925	19.06
5.0528	17.26
5.0137	16.973
4.9752	19.736
4.9373	25.438
4.9	34.362
4.8632	46.329
4.827	51.951
4.7913	55.434
4.7561	57.951
4.7215	59.014
4.6873	55.813
4.6536	59.3
4.6205	63.401
4.5877	64.909
4.5555	64.371
4.5237	60.194
4.4923	54.338
4.4614	53.265
4.4309	55.921
4.4008	58.853
4.3711	62.689
4.3418	65.423
4.3129	65.775
4.2844	65.208
4.2563	66.329
4.2285	66.508
4.2011	66.888
4.174	67.741
4.1473	68.584
4.1209	69.492
4.0949	70.53
4.0692	71.099
4.0438	70.727
4.0187	69.257
3.994	66.625
3.9695	65.5
3.9453	67.944
3.9214	69.634
3.8979	70.175
3.8746	69.976
3.8515	70.014
3.8288	70.534
3.8063	71.008
3.7841	71.301
3.7621	70.967
3.7404	70.633
3.7189	70.705
3.6977	71.113
3.6767	71.524
3.656	71.714
3.6355	71.598
3.6152	71.339
3.5951	71.055
3.5753	70.811
3.5557	70.482
3.5363	69.971
3.5171	68.869
3.4981	67.59
3.4793	66.812
3.4607	67.147
3.4423	66.973
3.4241	66.423
3.4061	65.988
3.3883	65.822
3.3707	65.457
3.3533	64.853
3.336	65.056
3.3189	64.948
3.302	64.617
3.2853	64.354
3.2687	63.929
3.2523	63.487
3.2361	62.981
3.22	62.527
3.204	62.01
3.1883	61.51
3.1727	60.994
3.1572	60.422
3.1419	59.805
3.1268	59.297
3.1117	58.882
3.0969	58.604
3.0821	58.294
3.0675	57.98
3.0531	57.534
3.0388	57.179
3.0246	56.952
3.0105	56.68
2.9966	56.373
2.9828	56.017
2.9692	55.731
2.9556	55.457
2.9422	55.305
2.9289	55.109
2.9157	54.978
2.9027	54.94
2.8897	54.969
2.8769	55.064
2.8642	55.163
2.8516	55.17
2.8391	55.164
2.8267	54.94
2.8144	54.395
2.8022	53.03
2.7902	49.078
2.7782	41.98
2.7664	29.452
2.7546	24.18
2.7429	25.193
2.7314	26.161
2.7199	24.226
2.7085	29.009
2.6973	46.896
2.6861	66.857
2.675	73.177
2.664	77.745
2.6531	79.719
2.6423	80.616
2.6315	80.852
2.6209	80.977
2.6103	80.729
2.5999	81.03
2.5895	81.762
2.5792	82.142
2.569	82.188
2.5588	82.475
2.5487	82.533
2.5388	82.905
2.5289	82.87
2.519	82.441
2.5093	81.989
2.4996	81.876
2.49	81.955
2.4805	82.075
2.471	82.253
2.4616	82.211
2.4523	81.965
2.4431	81.689
2.4339	81.614
2.4248	82.066
2.4157	82.738
2.4068	83.321
2.3979	83.602
2.389	83.637
2.3802	83.829
2.3715	84.119
2.3629	84.126
2.3543	83.764
2.3458	83.324
2.3373	83.306
2.3289	83.645
2.3206	83.848
2.3123	84.732
2.3041	85.549
2.2959	86.09
2.2878	86.394
2.2798	86.718
2.2718	86.868
2.2638	87.054
2.2559	87.233
2.2481	87.211
2.2403	87.187
2.2326	87.037
2.225	86.855
2.2173	86.035
2.2098	83.879
2.2023	82.073
2.1948	81.245
2.1874	82.4
2.18	84.141
2.1727	84.582
2.1655	84.209
2.1583	86.605
2.1511	87.619
2.144	88.146
2.1369	88.34
2.1299	88.435
2.1229	88.47
2.116	88.532
2.1091	88.751
2.1023	88.825
2.0955	88.915
2.0887	88.913
2.082	89.15
2.06	88.737
2.028	88.078
1.996	86.939
1.964	86.022
1.932	85.061
1.9	85.688
1.868	86.272
1.836	87.463
1.804	86.517
1.772	86.411
1.74	85.733
1.708	86.347
1.676	86.5
1.644	86.597
1.612	84.948
1.58	86.253
1.548	85.908
1.516	84.968
1.484	84.571
1.452	85.446
1.42	84.389
1.388	80.877
1.356	83.769
1.324	84.46
1.292	84.549
1.26	83.758
1.228	84.014
1.196	82.995
1.164	82.372
1.132	82.795
1.1	82.455
1.068	81.28
1.036	81.609
1.004	82.11
0.972	81.367
0.94	80.848
0.908	80.65
0.876	79.98
0.844	79.095
0.812	78.95
0.795	79.159
0.787	79.598
0.779	79.69
0.771	79.165
0.763	79.327
0.755	79.276
0.747	79.28
0.739	78.692
0.731	78.908
0.723	79.199
0.715	78.269
0.707	78.12
0.699	78.361
0.691	78.222
0.683	77.921
0.675	77.84
0.667	77.511
0.659	77.65
0.651	76.576
0.643	76.09
0.635	75.448
0.627	75.407
0.619	75.801
0.611	75.931
0.603	75.425
0.595	74.799
0.587	74.892
0.579	75.305
0.571	76.525
0.563	76.191
0.555	75.767
0.547	74.958
0.539	75.618
0.531	74.625
0.523	74.466
0.515	74.603
0.507	74.267
0.499	73.26
0.491	72.703
0.483	72.77
0.475	71.749
0.467	70.551
0.459	72.072
0.451	70.835
0.443	69.83
0.435	70.36
0.427	68.966
0.419	68.788
0.411	67.679
0.403	67.112
