Name: Carbonaceous Shale
Type: Rock
Class: Sedimentary
Subclass: Shale
Particle Size: Solid
Sample No.: Ward54
Owner: JPL
Wavelength Range: All
Origin: Ward's Collection of American Rocks.  Sample locality - Mingo County, West Virginia.
Description: A dull grayish black shaly rock with numerous fern and othercoal plant impressions.  A slight amount of carbonaceous material ipresent.Geologic age - Pennsylvanian (Pottsville).Collected by:  Ward's Natural Science Original ASTER Spectral Library name was jpl.nicolet.rock.sedimentary.shale.solid.ward54.spectrum.txt
Measurement: Hemispherical reflectance
X Units: Wavelength (micrometers)
Y Units: Reflectance (percent)
wavelength	value
15.3871	3.4893
15.118	3.5585
14.8581	3.2755
14.6069	3.1454
14.3642	3.0089
14.1293	3.221
13.9021	3.4143
13.682	3.8471
13.4687	3.8959
13.2621	4.3069
13.0616	4.0898
12.8672	4.9194
12.6784	4.5278
12.4951	4.5322
12.317	3.3782
12.1439	3.7202
11.9757	4.0672
11.812	4.4116
11.6527	5.0115
11.4977	5.4063
11.3468	5.8711
11.1997	6.3051
11.0564	6.957
10.9168	6.8915
10.7806	6.5796
10.6478	7.1148
10.5182	7.7185
10.3917	8.9407
10.2683	10.2052
10.1477	11.5501
10.0299	12.6791
9.9148	14.3348
9.8024	14.6077
9.6925	17.2223
9.585	18.915
9.4798	17.6796
9.377	17.5802
9.2763	18.2811
9.1778	18.1598
9.0814	16.9517
8.987	14.6959
8.8945	16.1251
8.8039	15.1015
8.7151	13.638
8.6281	10.6338
8.5428	12.5589
8.4592	12.4997
8.3772	12.8035
8.2967	13.5026
8.2179	14.3579
8.1404	13.4484
8.0645	10.4928
7.9899	8.5574
7.9167	6.7561
7.8449	5.5632
7.7743	5.4286
7.705	5.0408
7.6369	4.654
7.57	4.3423
7.5043	4.2604
7.4397	4.3349
7.3762	4.2006
7.3138	4.1063
7.2524	4.074
7.1921	4.0672
7.1327	4.2699
7.0743	4.0222
7.0169	3.6793
6.9604	3.7188
6.9047	3.9569
6.85	4.097
6.7962	4.1239
6.7431	4.2168
6.6909	4.2934
6.6395	4.6371
6.5889	4.5932
6.539	4.5167
6.49	4.7942
6.4416	4.7407
6.3939	4.6707
6.347	4.2372
6.3007	3.8838
6.2551	3.726
6.2101	3.595
6.1658	3.3933
6.1222	3.4316
6.0791	3.4007
6.0366	3.3296
5.9948	3.2915
5.9535	3.0809
5.9127	3.1228
5.8726	3.2783
5.8329	3.3568
5.7938	3.5124
5.7552	3.7493
5.7172	4.0197
5.6796	4.0187
5.6425	3.984
5.6059	3.9786
5.5698	3.9163
5.5341	4.0229
5.4989	4.1826
5.4641	4.2884
5.4298	4.3554
5.3959	4.3406
5.3624	4.1816
5.3294	4.242
5.2967	4.3322
5.2644	4.4047
5.2326	4.9229
5.2011	4.9998
5.17	5.0596
5.1392	5.1349
5.1088	5.2059
5.0788	5.2096
5.0491	5.2936
5.0198	5.4207
4.9908	5.3777
4.9622	5.5773
4.9338	5.9995
4.9058	6.1842
4.8781	6.5193
4.8508	6.8144
4.8237	6.8998
4.7969	7.0474
4.7704	7.0657
4.7443	7.3357
4.7184	7.4127
4.6927	7.3878
4.6674	7.5905
4.6423	7.65
4.6175	7.9189
4.593	8.1614
4.5687	8.1479
4.5447	8.3014
4.5209	8.1706
4.4974	8.3489
4.4741	8.2484
4.451	8.4396
4.4282	8.5058
4.4057	8.6493
4.3833	8.826
4.3612	8.8366
4.3393	8.8926
4.3176	9.0048
4.2962	8.9644
4.2749	8.5576
4.2539	9.0871
4.233	8.9761
4.2124	9.0595
4.192	9.3305
4.1717	9.331
4.1517	9.268
4.1319	9.4202
4.1122	9.3193
4.0927	9.3005
4.0734	9.4205
4.0543	9.121
4.0354	9.1545
4.0166	8.9494
3.9981	8.6724
3.9796	8.7846
3.9614	8.8451
3.9433	8.9885
3.9254	9.0806
3.9077	9.1877
3.8901	9.2065
3.8726	9.1809
3.8554	9.4018
3.8382	9.2073
3.8213	9.4077
3.8045	9.5489
3.7878	9.6396
3.7713	9.7065
3.7549	9.5709
3.7386	9.6568
3.7225	9.6008
3.7066	9.4604
3.6907	9.3645
3.675	9.4251
3.6595	9.1942
3.644	9.4429
3.6287	9.3869
3.6136	9.5066
3.5985	9.0811
3.5836	9.0447
3.5688	8.9489
3.5541	8.8116
3.5396	8.517
3.5251	8.5283
3.5108	8.0366
3.4966	8.0539
3.4825	8.1819
3.4685	8.0439
3.4547	8.0674
3.4409	7.8711
3.4273	7.3095
3.4137	7.3832
3.4003	7.4686
3.387	7.5382
3.3738	7.5304
3.3606	7.5304
3.3476	7.6753
3.3347	7.6549
3.3219	7.5059
3.3092	7.4021
3.2965	7.5352
3.284	7.4687
3.2716	7.3039
3.2593	7.2301
3.247	7.3508
3.2348	7.3546
3.2228	7.1382
3.2108	7.1311
3.1989	7.2412
3.1871	6.971
3.1754	6.7189
3.1638	6.9089
3.1523	6.7973
3.1408	7.1805
3.1294	6.6314
3.1181	6.7549
3.1069	6.6654
3.0958	6.3345
3.0848	6.154
3.0738	5.6205
3.0629	6.5734
3.0521	5.8474
3.0413	6.3628
3.0307	6.0928
3.0201	6.133
3.0096	6.1336
2.9991	5.5067
2.9887	6.0394
2.9784	5.9168
2.9682	5.8611
2.9581	6.0325
2.948	5.5013
2.9379	5.9877
2.928	5.4343
2.9181	5.7035
2.9083	5.3845
2.8985	5.5159
2.8888	5.8665
2.8792	5.963
2.8697	5.9442
2.8602	5.8042
2.8507	5.7619
2.8413	6.472
2.832	6.1332
2.8228	5.7864
2.8136	6.5718
2.8045	6.1667
2.7954	5.5826
2.7864	5.9836
2.7774	5.2111
2.7685	4.7047
2.7597	4.2335
2.7509	4.401
2.7422	4.7021
2.7335	5.0934
2.7249	5.2867
2.7163	6.3239
2.7078	6.0434
2.6994	6.6445
2.691	8.3813
2.6826	9.5966
2.6743	10.2866
2.666	10.6454
2.6578	11.3813
2.6497	11.4778
2.6416	11.046
2.6336	11.7833
2.6256	11.7118
2.6176	11.6249
2.6097	11.8104
2.6018	11.9642
2.594	11.7712
2.5863	11.6629
2.5785	11.6889
2.5709	12.0094
2.5633	12.1051
2.5557	12.6127
2.5481	12.3146
2.5406	11.7004
2.5332	12.5851
2.5258	12.2064
2.5184	12.4158
2.5111	12.3576
2.5038	12.1726
2.4966	12.6862
2.4894	11.9415
2.4823	12.3238
2.4752	12.4502
2.4681	12.7022
2.4611	12.6982
2.4541	12.0266
2.4471	12.0748
2.4402	12.5141
2.4333	12.8485
2.4265	12.7783
2.4197	12.9277
2.413	12.8832
2.4063	12.7293
2.3996	13.2245
2.3929	13.1232
2.3863	12.9307
2.3798	13.0638
2.3732	12.8308
2.3667	13.4994
2.3603	12.3799
2.3538	12.9355
2.3474	13.2209
2.3411	12.4723
2.3347	13.1067
2.3285	13.3724
2.3222	13.9286
2.316	12.6271
2.3098	13.2288
2.3036	14.3852
2.2975	13.3189
2.2914	14.1833
2.2854	14.1776
2.2793	13.5903
2.2733	14.1511
2.2674	14.1358
2.2614	13.734
2.2555	13.4611
2.2497	15.0423
2.2438	14.3325
2.238	14.155
2.2322	13.517
2.2265	13.5267
2.2208	13.7211
2.2151	14.2451
2.2094	13.6373
2.2038	13.0379
2.1982	13.7659
2.1926	13.6647
2.187	13.1514
2.1815	14.6316
2.176	13.3861
2.1706	13.455
2.1651	13.3788
2.1597	14.9585
2.1543	14.4983
2.149	14.7998
2.1436	14.7669
2.1383	14.8551
2.1331	15.2899
2.1278	15.275
2.1226	15.1229
2.1174	15.302
2.1122	15.2422
2.1071	14.538
2.1019	15.3952
2.0968	15.0387
2.0918	14.3118
2.0867	14.887
2.0817	14.9247
2.0767	15.9044
2.0717	16.2361
2.0667	15.2443
2.0618	14.9198
2.0569	14.3318
2.052	15.9372
2.0472	15.2997
2.0423	16.4274
2.0375	14.4959
2.0327	14.7655
2.028	16.9697
2.0232	14.5828
2.0185	15.0859
2.0138	14.7897
2.0091	15.5055
2.0044	14.1283
1.9998	14.2858
