Name: Quartz Felsite Porphyry
Type: Rock
Class: Igneous
Subclass: Felsic
Particle Size: Solid
Sample No.: Ward09
Owner: JPL
Wavelength Range: All
Origin: Ward's Collection of American Rocks.  Sample locality - Marblehead, Essex County, Massachusetts.
Description: A dark gray, compact, porphyritic rock with phenocrysts offeldspar and quartz in a cryptocrystalline groundmass.Geologic age - Devonian or Carboniferous.Collected by:  Ward's Natural Science Original ASTER Spectral Library name was jpl.nicolet.rock.igneous.felsic.solid.ward09.spectrum.txt
Measurement: Hemispherical reflectance
X Units: Wavelength (micrometers)
Y Units: Reflectance (percent)
wavelength	value
15.3871	6.314
15.118	4.8018
14.8581	4.2784
14.6069	5.0623
14.3642	5.452
14.1293	5.4035
13.9021	6.3585
13.682	6.0693
13.4687	6.3843
13.2621	6.7645
13.0616	7.4406
12.8672	8.3547
12.6784	7.1109
12.4951	7.2146
12.317	3.8284
12.1439	4.5836
11.9757	5.2336
11.812	5.8377
11.6527	6.4437
11.4977	6.8592
11.3468	7.6408
11.1997	8.0698
11.0564	8.6681
10.9168	9.2184
10.7806	10.1622
10.6478	10.9582
10.5182	12.1586
10.3917	13.6023
10.2683	16.2925
10.1477	19.0048
10.0299	21.5236
9.9148	24.0206
9.8024	23.6388
9.6925	26.6821
9.585	27.9199
9.4798	26.1507
9.377	27.8993
9.2763	29.7265
9.1778	29.6595
9.0814	28.5235
8.987	27.6067
8.8945	27.7431
8.8039	28.9281
8.7151	29.2069
8.6281	25.5904
8.5428	29.5923
8.4592	29.3417
8.3772	27.8362
8.2967	25.0998
8.2179	22.1063
8.1404	17.1155
8.0645	10.6555
7.9899	7.0733
7.9167	4.5355
7.8449	3.5125
7.7743	2.8362
7.705	2.5934
7.6369	2.432
7.57	2.0905
7.5043	2.1564
7.4397	2.0347
7.3762	2.0754
7.3138	1.9941
7.2524	1.969
7.1921	2.2075
7.1327	2.0772
7.0743	2.1421
7.0169	2.2647
6.9604	2.1333
6.9047	2.192
6.85	2.2092
6.7962	2.1678
6.7431	1.973
6.6909	2.1728
6.6395	2.3087
6.5889	2.1781
6.539	2.268
6.49	2.491
6.4416	2.5116
6.3939	2.4606
6.347	2.3872
6.3007	2.3535
6.2551	2.2282
6.2101	2.2058
6.1658	2.3481
6.1222	2.5359
6.0791	2.5164
6.0366	2.6987
5.9948	2.6244
5.9535	2.6216
5.9127	2.6868
5.8726	2.637
5.8329	2.8024
5.7938	2.6898
5.7552	2.8215
5.7172	2.7737
5.6796	2.8907
5.6425	2.7749
5.6059	2.6065
5.5698	2.7468
5.5341	2.7174
5.4989	3.0043
5.4641	3.0675
5.4298	2.9924
5.3959	2.9571
5.3624	2.8998
5.3294	2.9377
5.2967	2.8892
5.2644	3.0566
5.2326	3.3599
5.2011	3.472
5.17	3.4824
5.1392	3.5622
5.1088	3.6233
5.0788	3.5739
5.0491	3.6982
5.0198	3.5874
4.9908	3.565
4.9622	3.8981
4.9338	4.187
4.9058	4.4527
4.8781	4.8018
4.8508	5.0423
4.8237	5.1651
4.7969	5.262
4.7704	5.2863
4.7443	5.3755
4.7184	5.5732
4.6927	5.4961
4.6674	5.5688
4.6423	5.8031
4.6175	6.1348
4.593	6.3347
4.5687	6.3913
4.5447	6.5128
4.5209	6.4915
4.4974	6.4601
4.4741	6.5708
4.451	6.623
4.4282	6.9938
4.4057	7.0187
4.3833	7.4096
4.3612	7.5651
4.3393	7.7969
4.3176	8.0125
4.2962	8.1391
4.2749	8.2361
4.2539	8.3489
4.233	8.2878
4.2124	8.5054
4.192	8.7268
4.1717	8.7018
4.1517	8.6506
4.1319	8.6618
4.1122	8.8337
4.0927	8.9492
4.0734	8.7575
4.0543	8.8991
4.0354	8.8113
4.0166	8.6145
3.9981	8.5195
3.9796	8.8225
3.9614	8.6146
3.9433	8.823
3.9254	8.8758
3.9077	8.9334
3.8901	8.8675
3.8726	8.774
3.8554	8.9056
3.8382	8.8634
3.8213	8.9258
3.8045	8.8883
3.7878	8.7823
3.7713	8.9087
3.7549	8.9534
3.7386	8.8194
3.7225	8.8097
3.7066	8.8096
3.6907	9.0623
3.675	8.8329
3.6595	8.9674
3.644	8.8087
3.6287	8.803
3.6136	8.8531
3.5985	8.813
3.5836	8.4502
3.5688	8.7255
3.5541	8.6577
3.5396	8.6989
3.5251	8.4699
3.5108	8.7136
3.4966	8.3954
3.4825	8.6129
3.4685	8.3026
3.4547	8.3136
3.4409	8.2839
3.4273	8.3491
3.4137	8.1021
3.4003	8.2228
3.387	8.1476
3.3738	8.1141
3.3606	7.74
3.3476	8.072
3.3347	7.8714
3.3219	7.7675
3.3092	7.2
3.2965	7.3856
3.284	7.509
3.2716	7.3902
3.2593	7.3427
3.247	7.1134
3.2348	7.1246
3.2228	7.013
3.2108	6.9991
3.1989	6.8165
3.1871	6.772
3.1754	6.6333
3.1638	6.6363
3.1523	6.3698
3.1408	6.1108
3.1294	6.2926
3.1181	6.4171
3.1069	6.0889
3.0958	5.9074
3.0848	6.4547
3.0738	5.9955
3.0629	5.8953
3.0521	5.4577
3.0413	5.9982
3.0307	5.5987
3.0201	6.1238
3.0096	5.4576
2.9991	5.6679
2.9887	5.1807
2.9784	5.4296
2.9682	5.7135
2.9581	5.1306
2.948	5.489
2.9379	5.8966
2.928	5.5789
2.9181	5.8596
2.9083	5.1394
2.8985	6.4678
2.8888	5.965
2.8792	5.7505
2.8697	5.7899
2.8602	5.6584
2.8507	5.6969
2.8413	5.7392
2.832	6.1566
2.8228	5.9105
2.8136	6.0406
2.8045	5.6671
2.7954	4.6984
2.7864	5.4115
2.7774	5.1403
2.7685	5.4283
2.7597	5.3618
2.7509	5.344
2.7422	5.6874
2.7335	5.7167
2.7249	6.9802
2.7163	6.7759
2.7078	7.067
2.6994	7.2929
2.691	8.0577
2.6826	8.3951
2.6743	8.6483
2.666	8.6487
2.6578	8.3633
2.6497	8.7236
2.6416	8.5544
2.6336	8.5803
2.6256	8.5968
2.6176	8.7922
2.6097	8.6239
2.6018	8.5846
2.594	9.104
2.5863	9.2665
2.5785	8.8102
2.5709	8.2356
2.5633	8.9838
2.5557	9.0538
2.5481	8.3764
2.5406	8.1787
2.5332	8.9046
2.5258	8.2421
2.5184	8.3069
2.5111	8.6088
2.5038	8.8274
2.4966	8.5085
2.4894	8.6573
2.4823	8.1613
2.4752	8.202
2.4681	8.8955
2.4611	8.5004
2.4541	9.0881
2.4471	8.5975
2.4402	8.9509
2.4333	8.5799
2.4265	8.3869
2.4197	9.0239
2.413	8.4968
2.4063	8.2947
2.3996	8.3797
2.3929	8.5589
2.3863	8.803
2.3798	8.4345
2.3732	8.7078
2.3667	8.5152
2.3603	8.8467
2.3538	8.2957
2.3474	7.736
2.3411	7.9564
2.3347	8.3621
2.3285	9.2746
2.3222	9.0291
2.316	8.609
2.3098	8.5332
2.3036	8.0942
2.2975	8.8343
2.2914	8.4435
2.2854	8.6653
2.2793	8.7559
2.2733	8.7855
2.2674	8.312
2.2614	8.7807
2.2555	8.279
2.2497	8.5737
2.2438	8.2315
2.238	8.5293
2.2322	7.8603
2.2265	9.3004
2.2208	8.7153
2.2151	8.9334
2.2094	8.9203
2.2038	8.5158
2.1982	8.2021
2.1926	7.987
2.187	8.4105
2.1815	9.1075
2.176	8.9687
2.1706	8.6609
2.1651	8.5198
2.1597	8.683
2.1543	9.5398
2.149	7.9034
2.1436	9.0288
2.1383	8.0583
2.1331	8.6592
2.1278	8.1328
2.1226	8.4564
2.1174	8.4224
2.1122	8.1872
2.1071	8.8541
2.1019	8.9952
2.0968	9.1619
2.0918	8.0991
2.0867	7.7839
2.0817	7.3211
2.0767	9.3293
2.0717	8.6057
2.0667	8.4797
2.0618	9.915
2.0569	8.1764
2.052	9.3855
2.0472	7.4348
2.0423	10.3062
2.0375	8.2684
2.0327	8.8202
2.028	7.7043
2.0232	8.4424
2.0185	9.0484
2.0138	7.5331
2.0091	7.474
2.0044	9.1652
1.9998	7.6752
