Name: Syenite Gneiss
Type: rock
Class: Metamorphic
Subclass: Gneis
Particle Size: Coarse
Sample No.: gneiss4
Owner: JHU
Wavelength Range: All
Origin: Sample No. 467, The Hunt and Salisbury Collection at the U.S.Geological Survey, Denver, Co.
Description: This sample probably represents a metamorphosed zircon syenite.  It is a coarse-grained sample showing granulation along most grain boundaries.  There are  abundant anhedra of nepheline and microperthitic feldspar, an amphibole (either hornblende or a sodic phase), abundant magnetite and numerous grains of zircon.  Cancrinite occurs aroundfeldspars scattered throughout the section.  Particle size was 500-1500 Micrometer. Original ASTER Spectral Library name was jhu.becknic.rock.metamorphic.gneiss.coarse.gneiss4.spectrum.txt
Measurement: Directional (10 Degree) Hemispherical Reflectance
X Units: Wavelength (micrometers)
Y Units: Reflectance (percent)
wavelength	value
14.9831	3.2091
14.6445	3.3074
14.3209	3.6512
14.0112	3.5844
13.7147	2.785
13.4304	2.8221
13.1577	2.9706
12.8959	2.4136
12.6443	2.653
12.4023	2.5157
12.1694	2.9979
11.945	3.4028
11.7289	3.651
11.5203	4.023
11.3191	4.3766
11.1248	4.8552
10.937	5.3646
10.7555	6.1196
10.5799	7.1653
10.4099	8.6916
10.2454	11.6338
10.0859	13.7446
9.9313	15.8401
9.7814	14.9888
9.636	17.3558
9.4948	15.129
9.3577	10.0239
9.2245	9.8245
9.095	9.2728
8.9691	7.4493
8.8467	8.4508
8.7275	9.5479
8.6116	8.873
8.4986	8.7082
8.3886	8.2793
8.2814	6.4085
8.1769	4.0356
8.075	2.0691
7.9756	1.266
7.8786	0.948
7.784	0.9231
7.6916	0.9127
7.6014	0.9425
7.5133	0.9814
7.4272	1.0877
7.343	1.1426
7.2607	1.1355
7.1803	1.2876
7.1016	1.4723
7.0246	1.4287
6.9493	1.4441
6.8755	1.5189
6.8034	1.4199
6.7327	1.5232
6.6634	1.554
6.5956	1.4744
6.5292	1.4941
6.464	1.5038
6.4002	1.5386
6.3376	1.5137
6.2762	1.499
6.216	1.46
6.157	1.5402
6.099	1.5095
6.0421	1.5253
5.9863	1.63
5.9315	1.63
5.8777	1.692
5.8249	1.7202
5.773	1.6963
5.722	1.7366
5.6719	1.8029
5.6227	1.8154
5.5744	1.8853
5.5268	1.9402
5.4801	2.0248
5.4341	2.138
5.3889	2.2104
5.3445	2.3601
5.3008	2.4172
5.2578	2.384
5.2154	2.3746
5.1738	2.3966
5.1328	2.4645
5.0925	2.5749
5.0528	2.7144
5.0137	2.8757
4.9752	3.1058
4.9373	3.2711
4.9	3.1035
4.8632	3.2529
4.827	3.5207
4.7913	3.4064
4.7561	3.6157
4.7215	3.9975
4.6873	4.262
4.6536	4.6006
4.6205	5.1794
4.5877	5.7399
4.5555	6.4097
4.5237	7.2234
4.4923	8.2161
4.4614	9.2306
4.4309	9.9131
4.4008	10.5577
4.3711	11.3785
4.3418	12.1356
4.3129	12.9448
4.2844	13.6489
4.2563	14.1881
4.2285	15.0328
4.2011	15.8366
4.174	16.139
4.1473	15.4288
4.1209	15.3504
4.0949	15.7151
4.0692	16.3434
4.0438	16.7171
4.0187	16.0876
3.994	15.4733
3.9695	15.2273
3.9453	15.5624
3.9214	16.2425
3.8979	16.8859
3.8746	17.4169
3.8515	17.7221
3.8288	17.9954
3.8063	18.3466
3.7841	18.5642
3.7621	18.599
3.7404	18.6698
3.7189	18.6677
3.6977	18.6033
3.6767	18.5327
3.656	18.2431
3.6355	17.8573
3.6152	17.7295
3.5951	17.4988
3.5753	17.3368
3.5557	16.9911
3.5363	16.386
3.5171	15.582
3.4981	14.8663
3.4793	14.4072
3.4607	14.1367
3.4423	14.0389
3.4241	13.6962
3.4061	13.3971
3.3883	13.1061
3.3707	12.7019
3.3533	12.1508
3.336	11.8588
3.3189	11.6658
3.302	11.2542
3.2853	10.9714
3.2687	10.6323
3.2523	10.2416
3.2361	9.9534
3.22	9.6787
3.204	9.2567
3.1883	8.976
3.1727	8.6452
3.1572	8.3811
3.1419	7.9426
3.1268	7.7055
3.1117	7.2842
3.0969	7.0216
3.0821	6.7559
3.0675	6.5274
3.0531	6.3711
3.0388	6.2609
3.0246	6.1537
3.0105	6.0592
2.9966	5.8557
2.9828	5.6443
2.9692	5.5031
2.9556	5.3437
2.9422	5.2121
2.9289	5.1088
2.9157	4.9755
2.9027	4.8396
2.8897	4.7666
2.8769	4.6818
2.8642	4.6641
2.8516	4.7273
2.8391	4.6901
2.8267	4.8147
2.8144	4.8211
2.8022	5.0226
2.7902	5.0721
2.7782	5.2073
2.7664	5.3944
2.7546	5.9557
2.7429	7.3636
2.7314	8.7688
2.7199	11.1064
2.7085	13.5584
2.6973	15.7826
2.6861	17.6082
2.675	18.8323
2.664	19.7339
2.6531	20.2537
2.6423	20.6117
2.6315	20.8666
2.6209	20.9613
2.6103	21.0979
2.5999	21.0539
2.5895	21.0273
2.5792	21.0657
2.569	21.038
2.5588	21.0368
2.5487	20.8258
2.5388	20.8533
2.5289	20.8763
2.519	20.9213
2.5093	20.8966
2.4996	20.9594
2.49	21.0965
2.4805	21.1368
2.471	21.2012
2.4616	21.3217
2.4523	21.335
2.4431	21.5138
2.4339	21.7534
2.4248	21.9535
2.4157	22.3879
2.4068	22.7128
2.3979	22.9766
2.389	23.2245
2.3802	23.477
2.3715	23.4175
2.3629	23.5693
2.3543	23.548
2.3458	23.6217
2.3373	23.5653
2.3289	23.7519
2.3206	23.8855
2.3123	23.8249
2.3041	23.8154
2.2959	23.845
2.2878	23.8642
2.2798	23.7754
2.2718	23.6316
2.2638	23.701
2.2559	23.6688
2.2481	23.5824
2.2403	23.6345
2.2326	23.5232
2.225	23.5641
2.2173	23.6425
2.2098	23.41
2.2023	23.1222
2.1948	23.117
2.1874	23.2196
2.18	23.1907
2.1727	23.2915
2.1655	23.2946
2.1583	23.3614
2.1511	23.2977
2.144	23.2276
2.1369	23.1551
2.1299	23.2345
2.1229	23.1146
2.116	23.1485
2.1091	23.0957
2.1023	23.2518
2.0955	23.1232
2.0887	22.8444
2.082	22.7599
2.06	22.883
2.028	22.7032
1.996	22.4031
1.964	21.9365
1.932	20.9869
1.9	20.2255
1.868	22.0077
1.836	21.9879
1.804	22.1213
1.772	21.8342
1.74	21.7418
1.708	21.7918
1.676	21.793
1.644	21.5392
1.612	21.4107
1.58	21.216
1.548	21.1289
1.516	21.1586
1.484	20.7613
1.452	20.5271
1.42	20.2972
1.388	20.471
1.356	20.4931
1.324	20.4807
1.292	20.2863
1.26	20.3652
1.228	20.3262
1.196	20.3676
1.164	20.2417
1.132	20.3202
1.1	20.4278
1.068	20.5159
1.036	20.5476
1.004	20.81
0.972	20.9305
0.94	20.9885
0.908	21.1725
0.876	21.4824
0.844	21.8441
0.812	22.19
0.795	22.3539
0.787	22.307
0.779	22.2253
0.771	22.3201
0.763	22.3588
0.755	22.3146
0.747	22.2871
0.739	22.4855
0.731	22.3096
0.723	22.6005
0.715	22.7327
0.707	22.7841
0.699	22.7261
0.691	22.5382
0.683	22.4958
0.675	22.4625
0.667	22.5429
0.659	22.894
0.651	22.7048
0.643	22.656
0.635	22.8749
0.627	23.0319
0.619	22.9166
0.611	22.9394
0.603	22.9088
0.595	23.1453
0.587	23.0937
0.579	22.8083
0.571	22.8975
0.563	22.719
0.555	22.7222
0.547	22.163
0.539	22.103
0.531	22.1041
0.523	21.6944
0.515	21.6985
0.507	21.3966
0.499	21.1111
0.491	20.9673
0.483	20.9386
0.475	20.8384
0.467	20.6001
0.459	20.2379
0.451	19.7517
0.443	19.627
0.435	19.2542
0.427	18.9969
0.419	18.6732
0.411	18.5918
0.403	18.3085
