Name: Limestone Conglomerate-Breccia
Type: Rock
Class: Sedimentary
Subclass: Conglomerate
Particle Size: Solid
Sample No.: Ward50
Owner: JPL
Wavelength Range: VSWIR
Origin: Ward's Collection of American Rocks.  Sample locality - Loudoun County, Virginia.
Description: This is a reddish brown conglomerate-breccia composed oangular to rounded fragments of limestone of various shades of gray andbuff with a chocolate colored calcareous cement.  The degree of roundnessof the pebbles varies witht he specimen.Geologic age - Triassic (Newark).Collected by:  Ward's Natural Science Original ASTER Spectral Library name was jpl.perkin.rock.sedimentary.conglomerate.solid.ward50.spectrum.txt
Measurement: Hemispherical reflectance
X Units: Wavelength (micrometers)
Y Units: Reflectance (percent)
wavelength	value
2.5	15.3507
2.494	15.5543
2.488	16.0022
2.482	16.6185
2.476	17.1183
2.47	17.7074
2.464	18.1416
2.458	18.6196
2.452	19.2457
2.446	19.8388
2.44	20.4744
2.434	21.1667
2.428	21.9884
2.422	22.6286
2.416	23.1786
2.41	23.5031
2.404	23.8222
2.398	24.0682
2.392	24.2185
2.386	24.3463
2.38	24.4184
2.374	24.2911
2.368	24.0173
2.362	23.488
2.356	22.7085
2.35	21.6916
2.344	20.7101
2.338	19.927
2.332	19.5403
2.326	19.3737
2.32	19.556
2.314	19.8367
2.308	20.258
2.302	20.6132
2.296	21.0918
2.29	21.5326
2.284	21.9667
2.278	22.3002
2.272	22.7432
2.266	23.007
2.26	23.4138
2.254	23.8647
2.248	24.2726
2.242	24.6134
2.236	25.0072
2.23	25.3896
2.224	25.5462
2.218	25.6145
2.212	25.8405
2.206	25.9183
2.2	26.2005
2.194	26.3816
2.188	26.7244
2.182	26.9402
2.176	27.2373
2.17	27.5075
2.164	27.6349
2.158	27.7518
2.152	27.7721
2.146	27.8632
2.14	27.8619
2.134	27.8795
2.128	27.8677
2.122	27.8903
2.116	27.7291
2.11	27.7995
2.104	27.7101
2.098	27.6737
2.092	27.7377
2.086	27.7269
2.08	27.8108
2.074	27.8101
2.068	27.7347
2.062	27.7502
2.056	27.6836
2.05	27.7297
2.044	27.6935
2.038	27.6304
2.032	27.5013
2.026	27.4293
2.02	27.3279
2.014	27.1113
2.008	26.9726
2.002	26.723
1.996	26.4791
1.99	26.3416
1.984	26.2884
1.978	26.2024
1.972	26.1449
1.966	26.1345
1.96	26.1572
1.954	26.1112
1.948	26.0827
1.942	26.0415
1.936	25.9305
1.93	26.1059
1.924	25.9504
1.918	25.9625
1.912	26.0976
1.906	26.3216
1.9	26.6601
1.894	27.2184
1.888	27.4459
1.882	27.8279
1.876	27.9701
1.87	27.9417
1.864	28.0243
1.858	28.0784
1.852	28.2373
1.846	28.3091
1.84	28.4478
1.834	28.4802
1.828	28.567
1.822	28.5948
1.816	28.6312
1.81	28.6703
1.804	28.7406
1.798	28.7341
1.792	28.7591
1.786	28.817
1.78	28.7666
1.774	28.7732
1.768	28.822
1.762	28.7967
1.756	28.7599
1.75	28.8343
1.744	28.8131
1.738	28.8608
1.732	28.8065
1.726	28.8502
1.72	28.9038
1.714	28.9146
1.708	28.8863
1.702	28.929
1.696	28.8818
1.69	28.9192
1.684	28.8746
1.678	28.9457
1.672	28.9576
1.666	28.9584
1.66	29.0155
1.654	28.989
1.648	28.9458
1.642	28.9739
1.636	28.9906
1.63	28.9434
1.624	29.0511
1.618	28.9791
1.612	28.9682
1.606	29.0585
1.6	29.0149
1.594	29.0125
1.588	28.9905
1.582	28.9569
1.576	28.9576
1.57	28.9113
1.564	28.9972
1.558	29.0336
1.552	29.0331
1.546	29.0228
1.54	28.9974
1.534	29.0263
1.528	28.989
1.522	29.0211
1.516	29.0167
1.51	29.0022
1.504	28.9146
1.498	28.9544
1.492	28.9474
1.486	28.9495
1.48	28.8532
1.474	28.8891
1.468	28.8742
1.462	28.7996
1.456	28.8054
1.45	28.8383
1.444	28.8051
1.438	28.758
1.432	28.7229
1.426	28.6848
1.42	28.5371
1.414	28.4451
1.408	28.4735
1.402	28.6604
1.396	29.0127
1.39	29.2776
1.384	29.5646
1.378	29.6286
1.372	29.7483
1.366	29.7404
1.36	29.7301
1.354	29.7773
1.348	29.795
1.342	29.9079
1.336	30.0142
1.33	30.0408
1.324	29.9099
1.318	30.0333
1.312	29.9796
1.306	30.0921
1.3	30.0965
1.294	30.2239
1.288	30.2284
1.282	30.2067
1.276	30.2518
1.27	30.3441
1.264	30.3778
1.258	30.4058
1.252	30.4661
1.246	30.4708
1.24	30.5103
1.234	30.5546
1.228	30.5502
1.222	30.614
1.216	30.6784
1.21	30.7236
1.204	30.7999
1.198	30.8113
1.192	30.8405
1.186	30.8851
1.18	30.9304
1.174	30.9601
1.168	31.0253
1.162	31.069
1.156	31.1232
1.15	31.1641
1.144	31.2021
1.138	31.2571
1.132	31.2551
1.126	31.2964
1.12	31.3372
1.114	31.357
1.108	31.4466
1.102	31.4812
1.096	31.5137
1.09	31.5762
1.084	31.5691
1.078	31.5612
1.072	31.6744
1.066	31.6376
1.06	31.7107
1.054	31.6655
1.048	31.7354
1.042	31.7642
1.036	31.7435
1.03	31.7251
1.024	31.7308
1.018	31.7258
1.012	31.6252
1.006	31.6386
1	31.6339
0.994	31.6
0.988	31.5773
0.982	31.485
0.976	31.3777
0.97	31.3412
0.964	31.1347
0.958	31.0663
0.952	30.9504
0.946	30.9073
0.94	30.7359
0.934	30.6633
0.928	30.5547
0.922	30.4276
0.916	30.3235
0.91	30.2038
0.904	30.1059
0.898	29.9611
0.892	29.9671
0.886	29.8435
0.88	29.7848
0.874	29.7676
0.868	29.7714
0.862	29.7761
0.856	29.2117
0.85	29.3214
0.844	29.361
0.838	29.3796
0.832	29.4372
0.826	29.4748
0.82	29.5416
0.814	29.5827
0.808	29.6629
0.802	29.6989
0.796	29.7253
0.79	29.7913
0.784	29.7965
0.778	29.8048
0.772	29.7333
0.766	29.711
0.76	29.6541
0.754	29.5627
0.748	29.4927
0.742	29.3762
0.736	29.2201
0.73	29.0338
0.724	28.8451
0.718	28.629
0.712	28.3968
0.706	28.1516
0.7	27.9264
0.694	27.6967
0.688	27.4495
0.682	27.2221
0.676	26.9898
0.67	26.7614
0.664	26.5512
0.658	26.3415
0.652	26.1438
0.646	25.9481
0.64	25.7587
0.634	25.5553
0.628	25.352
0.622	25.1411
0.616	24.8714
0.61	24.5811
0.604	24.2078
0.598	23.7581
0.592	23.1988
0.586	22.5045
0.58	21.705
0.574	20.8306
0.568	19.9392
0.562	19.0903
0.556	18.3102
0.55	17.6794
0.544	17.2281
0.538	16.852
0.532	16.5779
0.526	16.3711
0.52	16.213
0.514	16.0871
0.508	15.9661
0.502	15.8317
0.496	15.6928
0.49	15.5427
0.484	15.3802
0.478	15.3119
0.472	15.2098
0.466	15.0952
0.46	14.9875
0.454	14.8499
0.448	14.6777
0.442	14.5197
0.436	14.3722
0.43	14.2483
0.424	14.1338
0.418	14.0479
0.412	13.9689
0.406	13.908
0.4	13.859
