Name: Granodiorite
Type: rock
Class: Igneous
Subclass: Intermediate
Particle Size: Fine
Sample No.: Granodior_H2
Owner: JHU
Wavelength Range: All
Origin: Santa Rita Mountains, Arizona, via Smithsonian (Cat. No113640-10)
Description: Sample from which powder was derived is a dark gray medium-grained rock consisting of light gray plagioclase grains, white to pinkish feldspar (plagioclase >> alkali feldspar), green epidote or apatite, a black mafic phase and quartz.Particle size was 0-75 micrometers. Original ASTER Spectral Library name was jhu.becknic.rock.igneous.intermediate.fine.granod2.spectrum.txt
Measurement: Directional (10 degree) hemispherical reflectance
X Units: Wavelength (micrometers)
Y Units: Reflectance (percent)
wavelength	value
14.011	2.9184
13.715	1.2506
13.43	1.5994
13.158	1.5124
12.896	1.6953
12.644	1.8187
12.402	2.4633
12.169	3.854
11.945	4.368
11.729	4.5825
11.52	4.5112
11.319	4.3034
11.125	3.8876
10.937	3.3829
10.755	3.0949
10.58	3.0084
10.41	3.0588
10.245	3.0593
10.086	3.1891
9.9313	3.2639
9.7814	3.186
9.636	3.2862
9.4948	3.1974
9.3577	3.2714
9.2245	3.3499
9.095	3.1478
8.9691	3.0836
8.8467	3.1345
8.7275	3.1605
8.6116	3.0823
8.4986	3.428
8.3886	3.6488
8.2814	3.7756
8.1769	3.6517
8.075	3.1392
7.9756	2.9616
7.8786	2.8751
7.784	3.094
7.6916	3.5224
7.6014	3.9129
7.5133	4.3976
7.4272	4.7899
7.343	5.148
7.2607	5.4101
7.1803	5.594
7.1016	5.9426
7.0246	6.0496
6.9493	6.172
6.8755	6.3543
6.8034	6.7213
6.7327	7.0978
6.6634	7.661
6.5956	8.2406
6.5292	8.8948
6.464	9.6206
6.4002	9.7748
6.3376	9.3776
6.2762	9.0548
6.216	8.8008
6.157	9.0159
6.099	9.5435
6.0421	9.7746
5.9863	10.121
5.9315	10.098
5.8777	10.638
5.8249	11.153
5.773	11.408
5.722	11.555
5.6719	11.491
5.6227	11.433
5.5744	11.362
5.5268	12.546
5.4801	13.518
5.4341	14.256
5.3889	14.137
5.3445	13.984
5.3008	14.615
5.2578	15.558
5.2154	16.843
5.1738	17.706
5.1328	18.315
5.0925	18.9
5.0528	19.21
5.0137	19.325
4.9752	19.887
4.9373	20.667
4.9	21.366
4.8632	22.083
4.827	22.542
4.7913	22.825
4.7561	23.365
4.7215	23.844
4.6873	24.109
4.6536	24.548
4.6205	25.042
4.5877	25.617
4.5555	26.192
4.5237	26.65
4.4923	26.99
4.4614	27.361
4.4309	27.733
4.4008	28.078
4.3711	28.412
4.3418	28.681
4.3129	28.917
4.2844	29.06
4.2563	29.298
4.2285	29.414
4.2011	29.628
4.174	29.727
4.1473	29.845
4.1209	29.936
4.0949	30.051
4.0692	30.1
4.0438	30.101
4.0187	29.905
3.994	29.501
3.9695	29.388
3.9453	29.94
3.9214	30.184
3.8979	30.256
3.8746	30.326
3.8515	30.359
3.8288	30.456
3.8063	30.586
3.7841	30.653
3.7621	30.649
3.7404	30.622
3.7189	30.611
3.6977	30.524
3.6767	30.565
3.656	30.456
3.6355	30.422
3.6152	30.334
3.5951	30.244
3.5753	30.129
3.5557	29.991
3.5363	29.834
3.5171	29.535
3.4981	29.173
3.4793	29.021
3.4607	29.025
3.4423	28.876
3.4241	28.527
3.4061	28.323
3.3883	28.152
3.3707	27.959
3.3533	27.627
3.336	27.511
3.3189	27.245
3.302	26.918
3.2853	26.564
3.2687	26.157
3.2523	25.719
3.2361	25.214
3.22	24.678
3.204	24.07
3.1883	23.497
3.1727	22.85
3.1572	22.183
3.1419	21.486
3.1268	20.746
3.1117	19.961
3.0969	19.276
3.0821	18.573
3.0675	17.94
3.0531	17.351
3.0388	16.797
3.0246	16.125
3.0105	15.238
2.9966	14.299
2.9828	13.627
2.9692	13.224
2.9556	13.116
2.9422	13.252
2.9289	13.495
2.9157	13.715
2.9027	14.022
2.8897	14.261
2.8769	14.416
2.8642	14.535
2.8516	14.778
2.8391	14.857
2.8267	14.554
2.8144	14.466
2.8022	14.308
2.7902	14.112
2.7782	13.283
2.7664	12.275
2.7546	11.988
2.7429	13.245
2.7314	15.028
2.7199	19.531
2.7085	27.47
2.6973	30.446
2.6861	31.473
2.675	31.826
2.664	32.105
2.6531	32.644
2.6423	32.949
2.6315	32.809
2.6209	32.695
2.6103	32.896
2.5999	33.012
2.5895	33.098
2.5792	33.237
2.569	33.075
2.5588	33.257
2.5487	33.39
2.5388	33.386
2.5289	33.377
2.519	33.43
2.5093	33.476
2.4996	33.557
2.49	33.505
2.4805	33.63
2.471	33.572
2.4616	33.688
2.4523	33.704
2.4431	33.627
2.4339	33.78
2.4248	33.793
2.4157	33.904
2.4068	33.854
2.3979	33.873
2.389	33.858
2.3802	33.889
2.3715	33.864
2.3629	33.766
2.3543	33.652
2.3458	33.599
2.3373	33.49
2.3289	33.65
2.3206	33.723
2.3123	33.968
2.3041	34.114
2.2959	34.266
2.2878	34.446
2.2798	34.532
2.2718	34.471
2.2638	34.529
2.2559	34.548
2.2481	34.573
2.2403	34.678
2.2326	34.797
2.225	34.752
2.2173	34.657
2.2098	34.717
2.2023	34.825
2.1948	34.88
2.1874	35.004
2.18	35.097
2.1727	35.25
2.1655	35.252
2.1583	35.382
2.1511	35.45
2.144	35.542
2.1369	35.463
2.1299	35.542
2.1229	35.484
2.116	35.544
2.1091	35.55
2.1023	35.708
2.0955	35.763
2.0887	35.74
2.082	35.742
2.06	35.994
2.028	35.527
1.996	34.769
1.964	34.426
1.932	34.003
1.9	33.792
1.868	33.792
1.836	34.024
1.804	34.603
1.772	34.319
1.74	34.644
1.708	34.701
1.676	34.603
1.644	34.611
1.612	34.48
1.58	34.544
1.548	34.545
1.516	34.434
1.484	34.208
1.452	34.034
1.42	34.15
1.388	33.243
1.356	34.008
1.324	34.074
1.292	33.968
1.26	33.028
1.228	32.845
1.196	33.036
1.164	33.348
1.132	32.843
1.1	32.792
1.068	32.755
1.036	32.913
1.004	32.866
0.972	32.836
0.94	32.667
0.908	32.602
0.876	32.349
0.844	32.002
0.812	32.205
0.795	32.528
0.787	32.719
0.779	32.681
0.771	32.277
0.763	32.225
0.755	31.806
0.747	31.691
0.739	31.487
0.731	31.456
0.723	31.221
0.715	30.992
0.707	31.023
0.699	31.07
0.691	30.756
0.683	30.424
0.675	30.381
0.667	30.273
0.659	30.381
0.651	30.438
0.643	30.306
0.635	30.014
0.627	30.346
0.619	30.338
0.611	30.055
0.603	30.095
0.595	29.592
0.587	29.416
0.579	29.451
0.571	30.446
0.563	29.995
0.555	29.926
0.547	29.544
0.539	29.267
0.531	29.174
0.523	29.451
0.515	29.067
0.507	28.606
0.499	28.528
0.491	28.286
0.483	27.982
0.475	27.405
0.467	27.089
0.459	27.748
0.451	27.358
0.443	27.049
0.435	26.138
0.427	25.851
0.419	25.051
0.411	24.742
0.403	24.238
