Name: Chlorite Schist
Type: rock
Class: Metamorphic
Subclass: Schist
Particle Size: Coarse
Sample No.: schist7
Owner: JHU
Wavelength Range: All
Origin: Sample No. 395, The Hunt and Salisbury Collection at the U.S.Geological Survey, Denver, Co.
Description: This is a coarse-grained greenish schistose rock containing red garnet porphyroblasts.  Microscopically there are granulated grains of actinolite and tremolite with somewhat lesser amounts of chlorite.  This latter mineral is apparently secondary to the amphiboles and their granulation.  It often occurs as an alteration around the garnet crystals in addition to its association with the amphiboles.  Particle size was 500-1500 Micrometer. Original ASTER Spectral Library name was jhu.becknic.rock.metamorphic.schist.coarse.schist7.spectrum.txt
Measurement: Directional (10 Degree) Hemispherical Reflectance
X Units: Wavelength (micrometers)
Y Units: Reflectance (percent)
wavelength	value
14.0112	2.2892
13.7147	2.232
13.4304	2.684
13.1578	3.0407
12.8959	3.0683
12.6443	3.2702
12.4023	3.2403
12.1694	3.7664
11.945	4.1607
11.7289	4.7282
11.5203	5.4015
11.3191	6.3831
11.1248	6.8044
10.937	6.9038
10.7555	7.9273
10.5799	10.2421
10.4099	11.6193
10.2454	11.4667
10.0859	11.479
9.9313	11.6028
9.7814	11.8513
9.636	13.2125
9.4948	13.5872
9.3577	11.3817
9.2245	8.8001
9.095	8.9135
8.9691	8.1273
8.8467	6.3104
8.7275	4.2243
8.6116	2.4983
8.4986	1.3671
8.3886	0.8736
8.2814	0.7486
8.1769	0.7858
8.075	0.8238
7.9756	0.8932
7.8786	0.9393
7.784	1.025
7.6916	1.146
7.6014	1.2427
7.5133	1.3741
7.4272	1.4946
7.343	1.6136
7.2607	1.7784
7.1803	1.8755
7.1016	1.9945
7.0246	2.0787
6.9493	2.1916
6.8755	2.2998
6.8034	2.4968
6.7327	2.6885
6.6634	2.6878
6.5956	2.7584
6.5292	2.7697
6.464	2.7541
6.4002	2.6892
6.3376	2.746
6.2762	2.7876
6.216	2.7816
6.157	2.7385
6.099	2.7275
6.0421	2.735
5.9863	2.8137
5.9315	2.8163
5.8777	2.8089
5.8249	2.9984
5.773	3.1125
5.722	3.1312
5.6719	3.2657
5.6227	3.3958
5.5744	3.5173
5.5268	3.6685
5.4801	3.9865
5.4341	4.1746
5.3889	4.2166
5.3445	4.2018
5.3008	4.2169
5.2578	4.2698
5.2154	4.3688
5.1738	4.6296
5.1328	4.8354
5.0925	5.0479
5.0528	5.2318
5.0137	5.2995
4.9752	5.3651
4.9373	5.4003
4.9	5.597
4.8632	5.9066
4.827	6.3475
4.7913	6.7248
4.7561	7.3034
4.7215	7.9843
4.6873	8.6766
4.6536	9.311
4.6205	9.8802
4.5877	10.8824
4.5555	12.0624
4.5237	13.3311
4.4923	14.571
4.4614	15.7381
4.4309	16.8308
4.4008	17.6864
4.3711	18.3338
4.3418	18.914
4.3129	19.3023
4.2844	19.81
4.2563	20.1529
4.2285	20.5185
4.2011	20.9175
4.174	21.2881
4.1473	21.643
4.1209	21.9499
4.0949	22.2243
4.0692	22.3272
4.0438	22.3938
4.0187	22.4696
3.994	22.6629
3.9695	22.8989
3.9453	23.0465
3.9214	23.1977
3.8979	23.2483
3.8746	23.2139
3.8515	23.1905
3.8288	23.169
3.8063	23.046
3.7841	22.8433
3.7621	22.6064
3.7404	22.3543
3.7189	22.0303
3.6977	21.9686
3.6767	21.7461
3.656	21.5672
3.6355	21.2005
3.6152	20.8317
3.5951	20.4302
3.5753	19.9634
3.5557	19.5624
3.5363	18.9236
3.5171	18.5302
3.4981	18.2527
3.4793	18.1063
3.4607	17.6005
3.4423	17.2083
3.4241	16.7657
3.4061	16.3966
3.3883	15.8905
3.3707	15.4309
3.3533	14.9957
3.336	14.5732
3.3189	14.054
3.302	13.563
3.2853	13.061
3.2687	12.6811
3.2523	12.3365
3.2361	11.9119
3.22	11.3894
3.2041	10.8608
3.1883	10.4206
3.1727	10.0651
3.1572	9.7155
3.1419	9.2124
3.1268	8.8683
3.1117	8.4673
3.0969	8.0872
3.0821	7.7232
3.0675	7.4803
3.0531	7.1593
3.0388	6.9432
3.0246	6.8619
3.0105	6.7279
2.9966	6.6228
2.9828	6.4561
2.9692	6.4061
2.9556	6.2791
2.9422	6.1853
2.9289	6.0442
2.9157	5.9484
2.9027	6.0506
2.8897	6.1238
2.8769	6.1618
2.8642	6.0824
2.8516	6.1848
2.8391	6.1781
2.8267	5.8151
2.8144	5.5902
2.8022	5.4029
2.7902	5.3902
2.7782	5.8338
2.7664	6.1104
2.7546	6.2832
2.7429	6.6798
2.7314	7.4833
2.7199	9.2214
2.7085	12.7656
2.6973	16.1692
2.6861	19.3454
2.675	21.0606
2.664	22.1116
2.6531	22.756
2.6423	23.0692
2.6315	23.0295
2.6209	22.8737
2.6103	23.1491
2.5999	23.0081
2.5895	23.0325
2.5792	23.4274
2.569	23.7481
2.5588	23.9174
2.5487	24.1066
2.5388	24.1226
2.5289	24.1543
2.519	24.2743
2.5093	24.2595
2.4996	24.1882
2.49	24.0879
2.4805	24.1657
2.471	24.2167
2.4616	24.6308
2.4523	24.8553
2.4431	25.1385
2.4339	25.3627
2.4248	25.5013
2.4157	25.1703
2.4068	24.6423
2.3979	24.1403
2.389	23.5702
2.3802	22.8314
2.3715	21.3094
2.3629	19.1669
2.3543	17.5751
2.3458	17.1768
2.3373	17.6485
2.3289	18.3812
2.3206	19.6021
2.3123	20.6778
2.3041	21.8329
2.2959	23.1494
2.2878	24.2856
2.2798	24.6244
2.2718	24.1198
2.2638	22.8775
2.2559	21.7908
2.2481	22.2583
2.2403	23.9195
2.2326	24.6519
2.225	25.3768
2.2173	26.7614
2.2098	28.4764
2.2023	29.9708
2.1948	31.0814
2.1874	32.1059
2.18	32.5449
2.1727	32.627
2.1655	32.9733
2.1583	33.005
2.1511	33.057
2.144	33.0294
2.1369	32.6074
2.1299	32.6818
2.1229	32.4363
2.116	32.7081
2.1091	32.7177
2.1023	33.0276
2.0955	33.2847
2.0887	33.3108
2.082	33.3742
2.06	32.6142
2.028	31.4737
1.996	29.662
1.964	29.7868
1.932	29.5048
1.9	28.951
1.868	28.6267
1.836	28.1963
1.804	27.752
1.772	26.8171
1.74	25.8678
1.708	25.0081
1.676	24.1675
1.644	23.2384
1.612	22.2081
1.58	21.4842
1.548	20.3217
1.516	19.799
1.484	19.2229
1.452	18.156
1.42	17.0261
1.388	16.1057
1.356	16.3716
1.324	15.7441
1.292	14.9815
1.26	14.1841
1.228	13.4252
1.196	12.941
1.164	12.5826
1.132	12.2959
1.1	12.1622
1.068	12.1087
1.036	11.9868
1.004	11.9976
0.972	12.0371
0.94	11.6927
0.908	11.7392
0.876	11.5742
0.844	11.3856
0.812	11.3713
0.795	11.3989
0.787	11.3197
0.779	11.3836
0.771	11.367
0.763	11.3139
0.755	11.3462
0.747	11.3495
0.739	11.3453
0.731	11.5125
0.723	11.4022
0.715	11.4673
0.707	11.5384
0.699	11.6539
0.691	11.6533
0.683	11.8391
0.675	11.8677
0.667	12.0057
0.659	12.1133
0.651	12.1574
0.643	12.2589
0.635	12.488
0.627	12.5333
0.619	12.7849
0.611	12.8417
0.603	12.942
0.595	13.1215
0.587	13.2572
0.579	13.3101
0.571	13.4977
0.563	13.5827
0.555	13.6372
0.547	13.5771
0.539	13.8456
0.531	13.7969
0.523	13.5731
0.515	13.5541
0.507	13.4351
0.499	13.2773
0.491	12.942
0.483	12.6835
0.475	12.4338
0.467	11.9002
0.459	11.9896
0.451	11.4791
0.443	11.3052
0.435	10.8611
0.427	10.7477
0.419	10.3221
0.411	9.9668
0.403	9.4804
