Name: Travertine (Calcareous Tufa)
Type: Rock
Class: Sedimentary
Subclass: Limestone
Particle Size: Solid
Sample No.: Ward73
Owner: JPL
Wavelength Range: VSWIR
Origin: Ward's Collection of American Rocks.  Sample locality - Mumford, Monroe County, New York.
Description: A buff porous carbonate rock.  Plant impressions aoccasionally present.Geologic age - Pleistocene.Collected by:  Ward's Natural Science Original ASTER Spectral Library name was jpl.perkin.rock.sedimentary.limestone.solid.ward73.spectrum.txt
Measurement: Hemispherical reflectance
X Units: Wavelength (micrometers)
Y Units: Reflectance (percent)
wavelength	value
2.5	30.3667
2.494	30.4694
2.488	30.761
2.482	31.4543
2.476	32.0351
2.47	33.0168
2.464	33.8292
2.458	34.536
2.452	35.5841
2.446	36.2802
2.44	36.9496
2.434	37.6258
2.428	38.1736
2.422	38.7621
2.416	39.3277
2.41	39.8388
2.404	40.2912
2.398	40.6346
2.392	40.9909
2.386	41.293
2.38	41.3436
2.374	41.2175
2.368	40.7804
2.362	39.9736
2.356	38.9019
2.35	37.8581
2.344	37.165
2.338	36.9525
2.332	37.2402
2.326	37.899
2.32	38.5618
2.314	39.1229
2.308	39.5869
2.302	40.0168
2.296	40.4884
2.29	41.0637
2.284	41.6621
2.278	42.4479
2.272	43.1869
2.266	43.8796
2.26	44.5692
2.254	45.0309
2.248	45.6169
2.242	46.1649
2.236	46.5359
2.23	46.8257
2.224	47.0659
2.218	47.1592
2.212	47.3428
2.206	47.4431
2.2	47.5455
2.194	47.5265
2.188	47.4238
2.182	47.3766
2.176	47.2623
2.17	47.1719
2.164	47.0468
2.158	47.0459
2.152	47.1226
2.146	47.0384
2.14	47.1324
2.134	47.125
2.128	46.962
2.122	46.7692
2.116	46.5456
2.11	46.3005
2.104	46.0661
2.098	45.8384
2.092	45.72
2.086	45.6634
2.08	45.5356
2.074	45.4202
2.068	45.3095
2.062	45.2017
2.056	45.0886
2.05	44.983
2.044	44.7743
2.038	44.6813
2.032	44.406
2.026	44.1365
2.02	43.9409
2.014	43.6255
2.008	43.2232
2.002	42.8
1.996	42.4201
1.99	42.131
1.984	41.8691
1.978	41.5576
1.972	41.1831
1.966	40.8918
1.96	40.6425
1.954	40.3041
1.948	40.1242
1.942	39.8395
1.936	39.9587
1.93	40.1371
1.924	40.5959
1.918	41.4364
1.912	42.3489
1.906	43.562
1.9	45.338
1.894	46.785
1.888	47.9642
1.882	48.6403
1.876	49.308
1.87	50.2556
1.864	50.708
1.858	51.0599
1.852	51.1262
1.846	51.3764
1.84	51.3952
1.834	51.5833
1.828	51.62
1.822	51.5638
1.816	51.647
1.81	51.6104
1.804	51.5761
1.798	51.6174
1.792	51.5383
1.786	51.5342
1.78	51.5746
1.774	51.612
1.768	51.4795
1.762	51.536
1.756	51.4227
1.75	51.5176
1.744	51.5519
1.738	51.5802
1.732	51.6022
1.726	51.6829
1.72	51.818
1.714	51.8271
1.708	51.8542
1.702	51.8661
1.696	51.9306
1.69	51.9335
1.684	51.9573
1.678	52.0047
1.672	51.9408
1.666	51.9517
1.66	51.9926
1.654	51.9591
1.648	51.9155
1.642	51.9665
1.636	51.8844
1.63	51.8829
1.624	51.9703
1.618	51.9154
1.612	51.8581
1.606	51.7816
1.6	51.7322
1.594	51.6318
1.588	51.5456
1.582	51.5793
1.576	51.442
1.57	51.3848
1.564	51.2653
1.558	51.1963
1.552	51.1054
1.546	51.0168
1.54	50.8858
1.534	50.8049
1.528	50.6274
1.522	50.5242
1.516	50.3204
1.51	50.2237
1.504	50.0318
1.498	49.9327
1.492	49.7258
1.486	49.6254
1.48	49.4808
1.474	49.3235
1.468	49.256
1.462	49.1528
1.456	49.1633
1.45	49.084
1.444	49.0932
1.438	49.226
1.432	49.338
1.426	49.5826
1.42	49.8006
1.414	50.0932
1.408	50.4814
1.402	50.8322
1.396	51.281
1.39	51.5379
1.384	51.7725
1.378	51.7756
1.372	51.7148
1.366	51.899
1.36	51.8584
1.354	51.8413
1.348	51.9526
1.342	51.7667
1.336	51.8544
1.33	51.8994
1.324	51.9217
1.318	51.8641
1.312	51.8004
1.306	51.8459
1.3	51.7595
1.294	51.6459
1.288	51.6578
1.282	51.6538
1.276	51.6586
1.27	51.5156
1.264	51.4452
1.258	51.4371
1.252	51.4623
1.246	51.3004
1.24	51.2179
1.234	51.1979
1.228	51.1201
1.222	51.1322
1.216	50.994
1.21	51.0152
1.204	50.9012
1.198	50.8691
1.192	50.7446
1.186	50.7259
1.18	50.7486
1.174	50.5699
1.168	50.5718
1.162	50.5975
1.156	50.5642
1.15	50.5221
1.144	50.5256
1.138	50.4498
1.132	50.4159
1.126	50.3218
1.12	50.3358
1.114	50.2846
1.108	50.1926
1.102	50.2026
1.096	50.1013
1.09	49.9646
1.084	49.9926
1.078	49.9107
1.072	49.9471
1.066	49.7544
1.06	49.6931
1.054	49.6251
1.048	49.5934
1.042	49.5105
1.036	49.4685
1.03	49.427
1.024	49.2839
1.018	49.2299
1.012	49.1658
1.006	49.0494
1	49.0531
0.994	48.8987
0.988	48.8812
0.982	48.7341
0.976	48.727
0.97	48.5633
0.964	48.4656
0.958	48.4405
0.952	48.3536
0.946	48.2295
0.94	48.1286
0.934	48.0682
0.928	48.0142
0.922	47.8619
0.916	47.7453
0.91	47.633
0.904	47.5567
0.898	47.49
0.892	47.4103
0.886	47.2282
0.88	47.1334
0.874	47.0102
0.868	46.8786
0.862	46.616
0.856	46.0797
0.85	45.9081
0.844	45.6976
0.838	45.5163
0.832	45.3849
0.826	45.1588
0.82	44.9811
0.814	44.7344
0.808	44.5965
0.802	44.4233
0.796	44.1631
0.79	43.9823
0.784	43.7568
0.778	43.5444
0.772	43.2987
0.766	43.0719
0.76	42.8169
0.754	42.5783
0.748	42.2913
0.742	42.0042
0.736	41.7206
0.73	41.4231
0.724	41.1611
0.718	40.831
0.712	40.5302
0.706	40.1969
0.7	39.8654
0.694	39.526
0.688	39.1593
0.682	38.798
0.676	38.4364
0.67	38.0494
0.664	37.6832
0.658	37.3018
0.652	36.9139
0.646	36.5216
0.64	36.109
0.634	35.7309
0.628	35.3248
0.622	34.8979
0.616	34.4641
0.61	34.0366
0.604	33.5986
0.598	33.1772
0.592	32.7485
0.586	32.3087
0.58	31.8797
0.574	31.4223
0.568	30.9385
0.562	30.4199
0.556	30.0793
0.55	29.5882
0.544	29.0812
0.538	28.5677
0.532	28.0327
0.526	27.494
0.52	26.9543
0.514	26.4393
0.508	25.9526
0.502	25.5246
0.496	25.1237
0.49	24.7497
0.484	24.4374
0.478	23.6721
0.472	23.0638
0.466	22.4986
0.46	21.9774
0.454	21.4855
0.448	21.0028
0.442	20.5517
0.436	19.9822
0.43	19.4203
0.424	18.8741
0.418	18.3541
0.412	17.7785
0.406	17.2115
0.4	16.6411
