Name: Purple-banded Sandstone
Type: rock
Class: Sedimentary
Subclass: Sandstone
Particle Size: Coarse
Sample No.: sandstone_6
Owner: JHU
Wavelength Range: All
Origin: Sample No. 453,  The Hunt and Salisbury Collection at the U.S.Geological Survey, Denver, Co.
Description: This low porosity sandstone contains fine-grained, well-sorted subangular quartz set in a ferruginous clay matrix. There has been a moderate amount of silica recrystallization, and in places, it acts as silica cement In addition, there has been minor pressure solution of the quartz. There are scattered opaques, brown and green glauconite, zircon, and a trace of microcline. Particle size was 500 - 1500 Micrometers. Original ASTER Spectral Library name was jhu.becknic.rock.sedimentary.sandstone.coarse.sandst6.spectrum.txt
Measurement: Directional (10 Degree) Hemispherical Reflectance
X Units: Wavelength (micrometers)
Y Units: Reflectance (percent)
wavelength	value
14.9831	1.4046
14.6445	1.9104
14.3209	1.4072
14.0112	1.58
13.7147	1.7875
13.4304	1.8824
13.1577	2.1704
12.8959	3.1622
12.6443	2.4809
12.4023	2.0923
12.1694	1.1739
11.945	1.6371
11.7289	1.953
11.5203	2.1586
11.3191	2.3753
11.1248	2.5976
10.937	2.9017
10.7555	2.4392
10.5799	2.3821
10.4099	2.493
10.2454	2.9301
10.0859	3.5399
9.9313	4.4441
9.7814	4.4095
9.636	6.3029
9.4948	8.3892
9.3577	12.2067
9.2245	13.7202
9.095	11.42
8.9691	8.0633
8.8467	13.6427
8.7275	14.1107
8.6116	11.2793
8.4986	14.6916
8.3886	15.6571
8.2814	17.0159
8.1769	16.7869
8.075	10.947
7.9756	6.4359
7.8786	3.3661
7.784	2.1531
7.6916	1.5476
7.6014	1.0403
7.5133	0.8682
7.4272	0.7583
7.343	0.7299
7.2607	0.75
7.1803	0.7957
7.1016	0.8132
7.0246	0.8334
6.9493	0.9065
6.8755	0.8843
6.8034	0.8888
6.7327	0.8881
6.6634	0.9508
6.5956	0.957
6.5292	0.9956
6.464	1.2106
6.4002	1.2452
6.3376	1.1062
6.2762	1.0103
6.216	0.9842
6.157	1.0418
6.099	1.217
6.0421	1.288
5.9863	1.3013
5.9315	1.2352
5.8777	1.433
5.8249	1.6975
5.773	1.9457
5.722	2.1536
5.6719	1.9644
5.6227	1.5644
5.5744	1.5095
5.5268	1.5923
5.4801	1.7269
5.4341	1.809
5.3889	1.4813
5.3445	1.4105
5.3008	1.4417
5.2578	1.5571
5.2154	1.895
5.1738	1.9774
5.1328	1.9649
5.0925	1.9987
5.0528	1.948
5.0137	1.998
4.9752	2.2045
4.9373	2.7899
4.9	4.1748
4.8632	7.2456
4.827	9.4847
4.7913	11.325
4.7561	12.7023
4.7215	13.2138
4.6873	11.4754
4.6536	13.2974
4.6205	16.2674
4.5877	17.9087
4.5555	17.8779
4.5237	15.0662
4.4923	11.5997
4.4614	11.213
4.4309	12.739
4.4008	14.5353
4.3711	17.2343
4.3418	19.5068
4.3129	20.0185
4.2844	19.6477
4.2563	20.5014
4.2285	21.034
4.2011	21.3021
4.174	22.1342
4.1473	23.0348
4.1209	24.0432
4.0949	25.1747
4.0692	25.9908
4.0438	26.1582
4.0187	25.9905
3.994	26.1035
3.9695	26.553
3.9453	27.2118
3.9214	27.4898
3.8979	27.1569
3.8746	26.5054
3.8515	26.0801
3.8288	25.9602
3.8063	25.9174
3.7841	25.4324
3.7621	24.6393
3.7404	23.7424
3.7189	23.5381
3.6977	22.8504
3.6767	23.5779
3.656	23.8455
3.6355	23.5156
3.6152	22.9197
3.5951	22.349
3.5753	21.9429
3.5557	21.4354
3.5363	20.3295
3.5171	18.7482
3.4981	18.7712
3.4793	19.1724
3.4607	18.42
3.4423	17.3811
3.4241	17.2958
3.4061	16.6972
3.3883	16.0677
3.3707	15.3246
3.3533	14.9267
3.336	14.6693
3.3189	14.0728
3.302	13.3742
3.2853	12.6625
3.2687	11.9736
3.2523	11.3596
3.2361	10.736
3.22	10.1554
3.204	9.6176
3.1883	9.17
3.1727	8.8041
3.1572	8.4799
3.1419	8.2097
3.1268	7.9636
3.1117	7.7453
3.0969	7.5468
3.0821	7.4384
3.0675	7.3001
3.0531	7.1968
3.0388	7.0474
3.0246	6.9837
3.0105	6.9209
2.9966	6.7748
2.9828	6.6394
2.9692	6.4404
2.9556	6.2716
2.9422	6.2451
2.9289	6.1622
2.9157	6.0812
2.9027	5.9905
2.8897	5.9457
2.8769	5.9064
2.8642	5.8763
2.8516	5.7676
2.8391	5.748
2.8267	5.6419
2.8144	5.3378
2.8022	4.8625
2.7902	4.3098
2.7782	3.3422
2.7664	2.1145
2.7546	1.8505
2.7429	1.854
2.7314	1.6013
2.7199	1.7662
2.7085	1.568
2.6973	2.322
2.6861	5.4643
2.675	8.6125
2.664	11.2577
2.6531	13.5132
2.6423	14.9736
2.6315	16.1338
2.6209	17.0408
2.6103	17.6058
2.5999	17.9478
2.5895	18.1801
2.5792	18.43
2.569	18.7731
2.5588	19.3007
2.5487	19.3656
2.5388	19.7725
2.5289	20.087
2.519	20.432
2.5093	20.6203
2.4996	20.9663
2.49	21.0392
2.4805	21.8505
2.471	22.4276
2.4616	22.6306
2.4523	22.9039
2.4431	23.3394
2.4339	24.4181
2.4248	25.4054
2.4157	26.0296
2.4068	26.3287
2.3979	25.9545
2.389	25.0752
2.3802	24.8751
2.3715	26.0779
2.3629	26.2889
2.3543	26.2892
2.3458	27.0733
2.3373	27.652
2.3289	27.2925
2.3206	27.4204
2.3123	27.6895
2.3041	28.5789
2.2959	29.0665
2.2878	29.4672
2.2798	29.888
2.2718	30.4242
2.2638	30.7446
2.2559	30.9561
2.2481	30.9419
2.2403	30.6527
2.2326	30.8673
2.225	30.2561
2.2173	27.9594
2.2098	19.8331
2.2023	24.2923
2.1948	25.6734
2.1874	26.6174
2.18	27.0922
2.1727	26.7258
2.1655	26.3294
2.1583	26.566
2.1511	28.2431
2.144	30.7332
2.1369	32.0911
2.1299	32.7438
2.1229	33.0209
2.116	33.0581
2.1091	33.4178
2.1023	33.7635
2.0955	33.931
2.0887	33.8216
2.082	34.1152
2.06	34.3759
2.028	34.3271
1.996	34.5113
1.964	33.5644
1.932	33.3243
1.9	32.9552
1.868	34.8748
1.836	35.2746
1.804	35.4349
1.772	35.5456
1.74	35.6258
1.708	35.5751
1.676	35.3956
1.644	35.1203
1.612	35.3682
1.58	35.6217
1.548	35.6106
1.516	35.9166
1.484	35.7735
1.452	35.9097
1.42	35.5047
1.388	32.1992
1.356	35.7109
1.324	36.8738
1.292	37.1728
1.26	37.9734
1.228	38.1661
1.196	38.4763
1.164	38.6873
1.132	38.9582
1.1	39.6686
1.068	40.1795
1.036	39.9257
1.004	41.1576
0.972	41.2484
0.94	41.5558
0.908	41.3737
0.876	41.6122
0.844	42.3488
0.812	42.3277
0.795	43.1218
0.787	43.1454
0.779	43.3435
0.771	43.0494
0.763	42.8486
0.755	42.6559
0.747	42.8304
0.739	41.9037
0.731	41.6899
0.723	41.734
0.715	41.2597
0.707	40.9565
0.699	40.5973
0.691	40.2678
0.683	40.1971
0.675	39.9101
0.667	39.7371
0.659	39.7371
0.651	39.2359
0.643	39.1306
0.635	39.2942
0.627	38.6755
0.619	38.8607
0.611	37.9882
0.603	38.1535
0.595	37.8695
0.587	37.7555
0.579	37.6572
0.571	36.7289
0.563	36.6831
0.555	35.2668
0.547	34.3228
0.539	33.7548
0.531	32.4526
0.523	32.0322
0.515	31.2243
0.507	30.0135
0.499	29.1103
0.491	28.4942
0.483	28.0209
0.475	27.5107
0.467	26.8266
0.459	27.5959
0.451	26.7947
0.443	26.323
0.435	25.0231
0.427	23.569
0.419	22.4762
0.411	21.2013
0.403	19.9365
