Name: Dolomitic Limestone
Type: rock
Class: Sedimentary
Subclass: Limestone
Particle Size: Fine
Sample No.: limestone_2
Owner: JHU
Wavelength Range: All
Origin: Sample No. 353,  The Hunt and Salisbury Collection at the U.S.Geological Survey, Denver, Co.
Description: This somewhat heterogeneous sample consists of bands of pure fine-grained to microcrystalline dolomite, alternating with bands of coarser dolomite crystals and subangular aligned quartz grains showing pressure solution texture. There is also a greenish-brown material (clay) scattered throughout the sample in small amounts. Particle size was 0-75 Micrometers. Original ASTER Spectral Library name was jhu.becknic.rock.sedimentary.limestone.fine.limest2.spectrum.txt
Measurement: Directional (10 Degree) Hemispherical Reflectance
X Units: Wavelength (micrometers)
Y Units: Reflectance (percent)
wavelength	value
14.983	14.981
14.645	14.296
14.321	10.199
14.011	12.666
13.715	2.2884
13.43	12.695
13.158	16.033
12.896	11.683
12.644	11.526
12.402	13.162
12.169	21.02
11.945	24.667
11.729	16.789
11.52	12.521
11.319	4.8493
11.125	20.089
10.937	21.269
10.756	21.917
10.58	21.515
10.41	19.667
10.245	16.757
10.086	14.912
9.9313	14.092
9.7814	12.996
9.636	11.709
9.4948	12.061
9.3577	15.08
9.2245	15.769
9.095	14.133
8.9691	14.793
8.8467	14.551
8.7275	14.588
8.6116	14.04
8.4986	14.945
8.3886	14.428
8.2814	17.985
8.1769	18.405
8.075	17.321
7.9756	18.167
7.8786	18.391
7.784	16.901
7.6916	15.121
7.6014	15.335
7.5133	13.129
7.4272	11.449
7.343	9.4324
7.2607	6.9489
7.1803	5.325
7.1016	4.3913
7.0246	5.9564
6.9493	5.6852
6.8755	5.5031
6.8034	5.6343
6.7327	5.7835
6.6634	6.1406
6.5956	6.9503
6.5292	8.0641
6.464	9.816
6.4002	11.947
6.3376	13.655
6.2762	7.7323
6.216	5.4328
6.157	5.8932
6.099	5.7859
6.0421	6.5004
5.9863	7.2849
5.9315	7.9918
5.8777	9.7599
5.8249	11.529
5.773	12.716
5.722	13.944
5.6719	14.319
5.6227	12.261
5.5744	9.7592
5.5268	5.3975
5.4801	5.3409
5.4341	17.453
5.3889	22.541
5.3445	22.617
5.3008	25.069
5.2578	30.375
5.2154	38.194
5.1738	41.015
5.1328	41.738
5.0925	41.517
5.0528	38.922
5.0137	41.209
4.9752	44.178
4.9373	48.871
4.9	54.881
4.8632	61.074
4.827	63.276
4.7913	64.263
4.7561	64.671
4.7215	63.619
4.6873	58.616
4.6536	49.736
4.6205	47.7
4.5877	51.389
4.5555	56.405
4.5237	58.621
4.4923	61.367
4.4614	59.467
4.4309	58.18
4.4008	62.334
4.3711	66.493
4.3418	65.995
4.3129	62.759
4.2844	61.841
4.2563	63.661
4.2285	63.964
4.2011	65.36
4.174	64.877
4.1473	62.509
4.1209	62.09
4.0949	60.229
4.0692	56.126
4.0438	49.572
4.0187	39.055
3.994	24.574
3.9695	11.162
3.9453	10.12
3.9214	11.674
3.8979	17.393
3.8746	19.764
3.8515	27.616
3.8288	30.355
3.8063	21.452
3.7841	28.332
3.7621	40.009
3.7404	54.795
3.7189	60.756
3.6977	63.64
3.6767	66.025
3.656	66.956
3.6355	67.265
3.6152	67.033
3.5951	66.51
3.5753	65.278
3.5557	60.109
3.5363	57.865
3.5171	49.837
3.4981	33.05
3.4793	22.352
3.4607	18.249
3.4423	18.442
3.4241	25.482
3.4061	27.782
3.3883	29.802
3.3707	32.412
3.3533	27.691
3.336	25.42
3.3189	24.05
3.302	24.597
3.2853	46.783
3.2687	53.053
3.2523	55.667
3.2361	57.169
3.22	58.013
3.2041	58.404
3.1883	58.426
3.1727	58.374
3.1572	57.99
3.1419	56.572
3.1268	56.079
3.1117	55.822
3.0969	55.46
3.0821	54.788
3.0675	55.236
3.0531	55.664
3.0388	55.628
3.0246	56.137
3.0105	56.475
2.9966	56.409
2.9828	56.31
2.9692	56.294
2.9556	56.332
2.9422	56.359
2.9289	56.519
2.9157	56.713
2.9027	57.154
2.8897	57.674
2.8769	58.28
2.8642	58.877
2.8516	59.562
2.8391	60.241
2.8267	60.927
2.8144	61.244
2.8022	60.055
2.7902	55.938
2.7782	49.607
2.7664	46.2
2.7546	48.291
2.7429	53.691
2.7314	62.161
2.7199	70.473
2.7085	76.456
2.6973	78.844
2.6861	80.494
2.675	82.657
2.664	84.499
2.6531	86.211
2.6423	86.851
2.6315	86.802
2.6209	87.096
2.6103	87.433
2.5999	87.45
2.5895	87.289
2.5792	87.031
2.569	86.279
2.5588	85.218
2.5487	82.985
2.5388	78.242
2.5289	73.62
2.519	71.31
2.5093	71.424
2.4996	72.788
2.49	74.37
2.4805	76.251
2.471	76.941
2.4616	77.358
2.4523	78.493
2.4431	80.448
2.4339	82.355
2.4248	83.926
2.4157	85.477
2.4068	86.256
2.3979	86.831
2.389	87.418
2.3802	87.749
2.3715	88.178
2.3629	87.903
2.3543	86.904
2.3458	84.447
2.3373	81.698
2.3289	79.435
2.3206	78.967
2.3123	79.576
2.3041	80.382
2.2959	81.395
2.2878	82.227
2.2798	82.762
2.2718	83.087
2.2638	83.815
2.2559	85.064
2.2481	86.155
2.2403	86.942
2.2326	87.224
2.225	87.036
2.2173	87.237
2.2098	88.088
2.2023	89.051
2.1948	89.898
2.1874	90.655
2.18	90.888
2.1727	91.151
2.1655	91.155
2.1583	91.088
2.1511	90.945
2.144	90.835
2.1369	90.844
2.1299	90.936
2.1229	91.183
2.116	91.354
2.1091	91.559
2.1023	91.686
2.0955	91.887
2.0887	91.931
2.082	91.955
2.06	92.306
2.028	91.469
1.996	90.213
1.964	87.755
1.932	88.115
1.9	89.01
1.868	88.702
1.836	88.6
1.804	88.926
1.772	88.78
1.74	88.003
1.708	89.106
1.676	88.473
1.644	89.007
1.612	88.165
1.58	88.287
1.548	87.367
1.516	87.237
1.484	85.813
1.452	85.949
1.42	85.714
1.388	84.769
1.356	84.142
1.324	83.983
1.292	83.082
1.26	83.838
1.228	82.938
1.196	82.641
1.164	82.268
1.132	82.354
1.1	81.498
1.068	81.225
1.036	81.33
1.004	80.848
0.972	80.451
0.94	81.071
0.908	81.324
0.876	81.549
0.844	81.578
0.812	81.331
0.795	81.72
0.787	81.151
0.779	81.23
0.771	81.918
0.763	81.62
0.755	81.151
0.747	81.563
0.739	81.559
0.731	81.337
0.723	80.792
0.715	80.837
0.707	80.191
0.699	80.019
0.691	80.109
0.683	79.774
0.675	79.545
0.667	79.216
0.659	79
0.651	79.144
0.643	78.684
0.635	78.223
0.627	78.181
0.619	78.04
0.611	77.709
0.603	77.586
0.595	77.989
0.587	77.16
0.579	75.976
0.571	76.319
0.563	75.508
0.555	74.193
0.547	73.989
0.539	73.08
0.531	72.345
0.523	72.363
0.515	71.439
0.507	70.952
0.499	70.253
0.491	69.73
0.483	69.239
0.475	68.686
0.467	68.762
0.459	68.202
0.451	67.146
0.443	66.78
0.435	65.791
0.427	64.877
0.419	63.328
0.411	62.827
0.403	61.547
