Name: Green Schist
Type: rock
Class: Metamorphic
Subclass: Schist
Particle Size: Fine
Sample No.: schist1
Owner: JHU
Wavelength Range: All
Origin: Sample No. 392, The Hunt and Salisbury Collection at the U.S.Geological Survey, Denver, Co.
Description: This is a medium to coarse-grained sample containing tremolite-actinolite crystals and talc.  Amphibole is heavily altered to talc, and in addition to these phases there is quartz and some carbonate, as an alteration product, along with opaque grains.  There may be heavily altered plagioclase present in this sample as well.  Modes were 50.6% talc, 38% amphibole, 5.4% quartz, 3.6% calcite, 2.4% plagioclase remnants. Particle size was 0-75 Micrometer. Original ASTER Spectral Library name was jhu.becknic.rock.metamorphic.schist.fine.schist1.spectrum.txt
Measurement: Directional (10 Degree) Hemispherical Reflectance
X Units: Wavelength (micrometers)
Y Units: Reflectance (percent)
wavelength	value
14.983	1.6023
14.645	1.7141
14.321	1.8879
14.011	1.9665
13.715	1.967
13.43	2.1188
13.158	2.0354
12.896	2.1441
12.644	2.3985
12.402	3.3064
12.169	3.6929
11.945	3.884
11.729	3.9754
11.52	3.9084
11.319	3.8409
11.125	3.6183
10.937	3.2522
10.756	2.9841
10.58	3.4772
10.41	3.7441
10.245	3.9032
10.086	4.2587
9.9313	4.0031
9.7814	3.2925
9.636	3.4847
9.4948	3.3206
9.3577	3.4194
9.2245	3.395
9.095	3.0265
8.9691	3.0061
8.8467	3.368
8.7275	3.6138
8.6116	3.2479
8.4986	2.9758
8.3886	3.3038
8.2814	3.7225
8.1769	4.0972
8.075	4.3693
7.9756	5.0425
7.8786	5.8124
7.784	6.7007
7.6916	7.729
7.6014	8.5732
7.5133	9.3568
7.4272	9.8387
7.343	10.277
7.2607	10.592
7.1803	10.716
7.1016	11.244
7.0246	11.347
6.9493	11.53
6.8755	11.836
6.8034	12.396
6.7327	13.132
6.6634	14.101
6.5956	15.322
6.5292	16.351
6.464	16.996
6.4002	16.918
6.3376	16.188
6.2762	15.632
6.216	15.406
6.157	15.743
6.099	16.344
6.0421	16.741
5.9863	16.733
5.9315	16.374
5.8777	17.004
5.8249	17.81
5.773	18.217
5.722	18.53
5.6719	18.733
5.6227	19.266
5.5744	18.583
5.5268	21.042
5.4801	22.259
5.4341	23.462
5.3889	24.235
5.3445	24.362
5.3008	25.07
5.2578	25.677
5.2154	26.722
5.1738	26.942
5.1328	27.496
5.0925	28.35
5.0528	28.894
5.0137	29.356
4.9752	29.9
4.9373	30.025
4.9	30.597
4.8632	31.295
4.827	32.897
4.7913	34.578
4.7561	36.956
4.7215	39.719
4.6873	41.56
4.6536	42.968
4.6205	44.204
4.5877	45.885
4.5555	48.071
4.5237	49.787
4.4923	51.27
4.4614	52.549
4.4309	53.713
4.4008	54.59
4.3711	55.287
4.3418	55.869
4.3129	56.392
4.2844	56.889
4.2563	57.305
4.2285	57.669
4.2011	58.047
4.174	58.352
4.1473	58.607
4.1209	58.752
4.0949	58.785
4.0692	58.629
4.0438	57.837
4.0187	55.814
3.994	52.044
3.9695	51.31
3.9453	54.291
3.9214	55.789
3.8979	56.09
3.8746	56.16
3.8515	56.171
3.8288	56.799
3.8063	57.676
3.7841	58.207
3.7621	58.058
3.7404	57.754
3.7189	57.423
3.6977	57.015
3.6767	56.674
3.656	56.18
3.6355	55.607
3.6152	55.002
3.5951	54.361
3.5753	53.437
3.5557	52.714
3.5363	51.746
3.5171	49.811
3.4981	48.163
3.4793	46.979
3.4607	47.623
3.4423	47.157
3.4241	46.273
3.4061	45.453
3.3883	44.616
3.3707	43.606
3.3533	42.286
3.336	42.343
3.3189	41.614
3.302	40.532
3.2853	39.455
3.2687	38.453
3.2523	37.275
3.2361	35.811
3.22	34.008
3.2041	32.194
3.1883	30.454
3.1727	28.883
3.1572	27.18
3.1419	25.29
3.1268	23.307
3.1117	21.228
3.0969	19.286
3.0821	17.558
3.0675	16.109
3.0531	15.11
3.0388	14.133
3.0246	12.728
3.0105	11.015
2.9966	9.7161
2.9828	9.1186
2.9692	8.9014
2.9556	9.1188
2.9422	9.5489
2.9289	9.7213
2.9157	10.009
2.9027	10.479
2.8897	10.996
2.8769	11.356
2.8642	11.577
2.8516	11.656
2.8391	11.357
2.8267	10.936
2.8144	10.733
2.8022	11.054
2.7902	12.132
2.7782	14.305
2.7664	17.126
2.7546	18.687
2.7429	17.856
2.7314	18.02
2.7199	22.017
2.7085	43.298
2.6973	54.379
2.6861	57.573
2.675	59.803
2.664	61.156
2.6531	62.185
2.6423	62.589
2.6315	62.523
2.6209	62.695
2.6103	62.83
2.5999	62.808
2.5895	62.79
2.5792	62.876
2.569	62.964
2.5588	63.251
2.5487	63.519
2.5388	63.672
2.5289	63.744
2.519	63.875
2.5093	63.984
2.4996	64.036
2.49	64.158
2.4805	64.398
2.471	64.804
2.4616	65.342
2.4523	66.055
2.4431	66.572
2.4339	66.978
2.4248	66.943
2.4157	66.496
2.4068	65.669
2.3979	64.348
2.389	63.655
2.3802	63.95
2.3715	63.15
2.3629	60.641
2.3543	58.283
2.3458	57.562
2.3373	57.79
2.3289	58.167
2.3206	58.79
2.3123	60.284
2.3041	61.461
2.2959	62.774
2.2878	65.051
2.2798	66
2.2718	66.323
2.2638	65.581
2.2559	64.838
2.2481	65.555
2.2403	68.067
2.2326	69.93
2.225	70.89
2.2173	71.587
2.2098	72.233
2.2023	72.684
2.1948	73.183
2.1874	73.65
2.18	74.094
2.1727	74.121
2.1655	74.411
2.1583	74.462
2.1511	74.537
2.144	74.58
2.1369	74.54
2.1299	74.49
2.1229	74.34
2.116	74.442
2.1091	74.648
2.1023	74.986
2.0955	75.063
2.0887	75.125
2.082	75.063
2.06	74.73
2.028	72.44
1.996	69.913
1.964	68.466
1.932	68.208
1.9	67.637
1.868	68.215
1.836	69.178
1.804	68.814
1.772	67.503
1.74	67.475
1.708	67.656
1.676	66.608
1.644	66.368
1.612	64.439
1.58	64.436
1.548	62.699
1.516	62.147
1.484	62.085
1.452	61.691
1.42	60.746
1.388	55.382
1.356	59.564
1.324	57.701
1.292	55.913
1.26	54.04
1.228	52.268
1.196	49.797
1.164	47.571
1.132	46.024
1.1	44.693
1.068	43.655
1.036	43.607
1.004	42.989
0.972	42.517
0.94	41.607
0.908	41.083
0.876	40.89
0.844	41.492
0.812	41.508
0.795	42.227
0.787	42.521
0.779	42.614
0.771	42.133
0.763	42.661
0.755	42.369
0.747	42.371
0.739	42.369
0.731	42.313
0.723	42.218
0.715	42.604
0.707	42.702
0.699	43.25
0.691	42.506
0.683	42.506
0.675	42.657
0.667	43.109
0.659	43.519
0.651	42.906
0.643	43.617
0.635	43.056
0.627	43.255
0.619	44.38
0.611	44.125
0.603	44.125
0.595	44.355
0.587	44.834
0.579	45.041
0.571	45.351
0.563	44.795
0.555	43.739
0.547	43.352
0.539	43.718
0.531	42.358
0.523	42.104
0.515	41.848
0.507	41.438
0.499	40.24
0.491	39.437
0.483	38.017
0.475	36.895
0.467	36.022
0.459	34.729
0.451	34.036
0.443	32.858
0.435	32.421
0.427	30.45
0.419	29.123
0.411	27.305
0.403	26.357
