Name: Phyllite
Type: rock
Class: Metamorphic
Subclass: Phyllite
Particle Size: Coarse
Sample No.: phyllit1
Owner: JHU
Wavelength Range: All
Origin: Sample No. 473, The Hunt and Salisbury Collection at the U.S.Geological Survey, Denver, Co.
Description: This is a dark gray fine-grained to very fine-grained sample consisting of typical crenulated muscovite and quartz.  Opaques, which usually have been rotated, occur throughout the sample -- pyrite, and either magnetite or hematite.  There appear to be some carbonaceous granules scattered throughout the section as well.  Modes were 65.9% muscovite, 33.5% quartz, 0.5% opaque and a trace of carbonaceous material.  Particle size was 500-1500 Micrometer. Original ASTER Spectral Library name was jhu.becknic.rock.metamorphic.phyllite.coarse.phylli1.spectrum.txt
Measurement: Directional (10 Degree) Hemispherical Reflectance
X Units: Wavelength (micrometers)
Y Units: Reflectance (percent)
wavelength	value
14.9831	4.302
14.6445	3.9184
14.3209	3.5956
14.0112	3.889
13.7147	4.1777
13.4304	4.6011
13.1577	4.4533
12.8959	4.6662
12.6443	4.6347
12.4023	4.31
12.1694	4.0377
11.945	4.4836
11.7289	5.1039
11.5203	5.6154
11.3191	6.085
11.1248	6.5842
10.937	6.6623
10.7555	6.8411
10.5799	7.4772
10.4099	8.9798
10.2454	11.0304
10.0859	12.9477
9.9313	14.0306
9.7814	15.0958
9.636	18.5938
9.4948	15.8875
9.3577	15.6613
9.2245	18.5413
9.095	17.9944
8.9691	15.7397
8.8467	13.8251
8.7275	11.9147
8.6116	9.5503
8.4986	10.3252
8.3886	9.5998
8.2814	9.3594
8.1769	8.7286
8.075	6.5205
7.9756	5.1465
7.8786	4.2698
7.784	3.96
7.6916	3.8291
7.6014	3.728
7.5133	3.7126
7.4272	3.7017
7.343	3.7194
7.2607	3.7651
7.1803	3.8123
7.1016	3.8196
7.0246	3.7921
6.9493	3.8596
6.8755	3.9567
6.8034	4.0351
6.7327	4.0905
6.6634	4.1748
6.5956	4.2191
6.5292	4.2918
6.464	4.3719
6.4002	4.4036
6.3376	4.3868
6.2762	4.2911
6.216	4.298
6.157	4.4121
6.099	4.5322
6.0421	4.5679
5.9863	4.5947
5.9315	4.5999
5.8777	4.6977
5.8249	4.7884
5.773	4.8559
5.722	4.8869
5.6719	4.9073
5.6227	4.8512
5.5744	4.8685
5.5268	4.9329
5.4801	5.0167
5.4341	5.0593
5.3889	5.0155
5.3445	4.9831
5.3008	5.0394
5.2578	5.1716
5.2154	5.3035
5.1738	5.3705
5.1328	5.4065
5.0925	5.4349
5.0528	5.4475
5.0137	5.4622
4.9752	5.5353
4.9373	5.5993
4.9	5.6855
4.8632	5.7795
4.827	5.8221
4.7913	5.8501
4.7561	5.8906
4.7215	5.9455
4.6873	5.9654
4.6536	6.0033
4.6205	6.0521
4.5877	6.0817
4.5555	6.1146
4.5237	6.1359
4.4923	6.1361
4.4614	6.1754
4.4309	6.205
4.4008	6.2479
4.3711	6.2839
4.3418	6.3007
4.3129	6.3431
4.2844	6.3753
4.2563	6.4018
4.2285	6.431
4.2011	6.4277
4.174	6.444
4.1473	6.4637
4.1209	6.4771
4.0949	6.5134
4.0692	6.521
4.0438	6.5394
4.0187	6.5671
3.994	6.5892
3.9695	6.615
3.9453	6.6323
3.9214	6.6524
3.8979	6.682
3.8746	6.687
3.8515	6.7095
3.8288	6.7384
3.8063	6.749
3.7841	6.7656
3.7621	6.7729
3.7404	6.7869
3.7189	6.7959
3.6977	6.8198
3.6767	6.8414
3.656	6.8352
3.6355	6.8669
3.6152	6.8705
3.5951	6.8643
3.5753	6.8783
3.5557	6.884
3.5363	6.8944
3.5171	6.9257
3.4981	6.9598
3.4793	6.9823
3.4607	6.9655
3.4423	6.9948
3.4241	7.0214
3.4061	7.0057
3.3883	6.9958
3.3707	6.9697
3.3533	6.9591
3.336	6.9271
3.3189	6.9046
3.302	6.9131
3.2853	6.9311
3.2687	6.9333
3.2523	6.9624
3.2361	6.9652
3.22	6.9569
3.204	6.9477
3.1883	6.9626
3.1727	6.9335
3.1572	6.9243
3.1419	6.9155
3.1268	6.8937
3.1117	6.9176
3.0969	6.8617
3.0821	6.8357
3.0675	6.7805
3.0531	6.7251
3.0388	6.6927
3.0246	6.65
3.0105	6.606
2.9966	6.5686
2.9828	6.5854
2.9692	6.5247
2.9556	6.5292
2.9422	6.5148
2.9289	6.4987
2.9157	6.4895
2.9027	6.5491
2.8897	6.6166
2.8769	6.6593
2.8642	6.7336
2.8516	6.7246
2.8391	6.7052
2.8267	6.6685
2.8144	6.6266
2.8022	6.6294
2.7902	6.5487
2.7782	6.1724
2.7664	5.4551
2.7546	4.9961
2.7429	5.1264
2.7314	5.64
2.7199	6.7497
2.7085	7.4209
2.6973	7.598
2.6861	7.6681
2.675	7.7209
2.664	7.7567
2.6531	7.8296
2.6423	7.8526
2.6315	7.84
2.6209	7.8732
2.6103	7.9054
2.5999	7.9146
2.5895	7.9172
2.5792	7.9345
2.569	7.9518
2.5588	7.967
2.5487	8.0003
2.5388	8.0162
2.5289	8.0124
2.519	8.0363
2.5093	8.052
2.4996	8.074
2.49	8.0787
2.4805	8.1121
2.471	8.0965
2.4616	8.0998
2.4523	8.1178
2.4431	8.1455
2.4339	8.1744
2.4248	8.1557
2.4157	8.2054
2.4068	8.2154
2.3979	8.2038
2.389	8.2189
2.3802	8.253
2.3715	8.2426
2.3629	8.2414
2.3543	8.2616
2.3458	8.2833
2.3373	8.2701
2.3289	8.3227
2.3206	8.3089
2.3123	8.3257
2.3041	8.3568
2.2959	8.3594
2.2878	8.3828
2.2798	8.3802
2.2718	8.3923
2.2638	8.4157
2.2559	8.401
2.2481	8.4309
2.2403	8.4515
2.2326	8.4631
2.225	8.46
2.2173	8.473
2.2098	8.4396
2.2023	8.437
2.1948	8.4794
2.1874	8.4981
2.18	8.5367
2.1727	8.5647
2.1655	8.5682
2.1583	8.5744
2.1511	8.5967
2.144	8.6045
2.1369	8.6511
2.1299	8.5891
2.1229	8.6334
2.116	8.6509
2.1091	8.6563
2.1023	8.6788
2.0955	8.6883
2.0887	8.6954
2.082	8.7489
2.06	8.7885
2.028	8.7577
1.996	8.7687
1.964	8.9081
1.932	8.954
1.9	8.782
1.868	8.9335
1.836	9.0072
1.804	9.0363
1.772	9.0149
1.74	9.1205
1.708	9.1091
1.676	9.2178
1.644	9.3456
1.612	9.2866
1.58	9.403
1.548	9.2566
1.516	9.3991
1.484	9.3622
1.452	9.3461
1.42	9.3997
1.388	9.5055
1.356	9.6521
1.324	9.5681
1.292	9.678
1.26	9.7231
1.228	9.8983
1.196	9.9355
1.164	9.9536
1.132	9.9382
1.1	9.8741
1.068	9.9409
1.036	9.9976
1.004	10.2086
0.972	10.2726
0.94	10.2746
0.908	10.3711
0.876	10.4959
0.844	10.6295
0.812	10.9043
0.795	10.6677
0.787	10.6001
0.779	10.602
0.771	10.6672
0.763	10.6955
0.755	10.7042
0.747	10.7157
0.739	10.8321
0.731	10.7423
0.723	10.9246
0.715	11.0711
0.707	11.0694
0.699	10.9738
0.691	10.8746
0.683	10.9216
0.675	10.9383
0.667	10.9368
0.659	11.109
0.651	10.8679
0.643	11.0647
0.635	11.1136
0.627	11.0792
0.619	11.0973
0.611	11.1925
0.603	11.1038
0.595	11.1941
0.587	11.2221
0.579	11.0873
0.571	11.4114
0.563	11.3953
0.555	11.5868
0.547	11.5288
0.539	11.4442
0.531	11.44
0.523	11.4373
0.515	11.5048
0.507	11.5008
0.499	11.3089
0.491	11.3621
0.483	11.4061
0.475	11.471
0.467	11.4054
0.459	11.3453
0.451	11.118
0.443	11.1867
0.435	10.8634
0.427	10.876
0.419	10.6036
0.411	10.5186
0.403	10.3393
