Name: Tourmaline-Mica Schist
Type: Rock
Class: Metamorphic
Subclass: Schist
Particle Size: Solid
Sample No.: Ward89
Owner: JPL
Wavelength Range: All
Origin: Ward's Collection of American Rocks.  Sample locality - near Custer, Black Hills, South Dakota.  Collected by - JPL.
Description: A light-colored schistose rock composed of small flakes ofwhite mica, and grains of quartz.  Abundant black prismatic tourmalinecrystals are arranged more or less parallel to the schistosity.Collected by:  Ward's Natural Science Original ASTER Spectral Library name was jpl.nicolet.rock.metamorphic.schist.solid.ward89.spectrum.txt
Measurement: Hemispherical reflectance
X Units: Wavelength (micrometers)
Y Units: Reflectance (percent)
wavelength	value
15.3871	3.9556
15.118	3.8012
14.8581	4.6108
14.6069	4.6665
14.3642	5.8504
14.1293	6.703
13.9021	6.1309
13.682	4.8048
13.4687	5.3407
13.2621	6.3794
13.0616	7.3097
12.8672	11.9639
12.6784	10.6653
12.4951	10.2402
12.317	3.6174
12.1439	4.0918
11.9757	5.095
11.812	5.7504
11.6527	6.1466
11.4977	6.6256
11.3468	7.4543
11.1997	8.0293
11.0564	8.6063
10.9168	9.4542
10.7806	10.3263
10.6478	11.3635
10.5182	13.2674
10.3917	15.244
10.2683	16.8083
10.1477	18.0404
10.0299	19.58
9.9148	20.6528
9.8024	23.4029
9.6925	27.6386
9.585	29.9744
9.4798	32.1642
9.377	35.4785
9.2763	34.2402
9.1778	35.1509
9.0814	37.9508
8.987	37.447
8.8945	34.1386
8.8039	29.3737
8.7151	25.6176
8.6281	18.3532
8.5428	24.5214
8.4592	24.5764
8.3772	24.3652
8.2967	23.6986
8.2179	22.8275
8.1404	18.7611
8.0645	12.686
7.9899	8.6534
7.9167	6.1248
7.8449	4.9093
7.7743	4.4957
7.705	3.8637
7.6369	3.3235
7.57	2.9095
7.5043	2.9779
7.4397	3.2745
7.3762	3.0689
7.3138	2.4892
7.2524	1.9975
7.1921	1.7198
7.1327	1.5485
7.0743	1.7368
7.0169	1.6808
6.9604	1.6046
6.9047	1.7547
6.85	1.8755
6.7962	2.0624
6.7431	1.9674
6.6909	2.1168
6.6395	2.3861
6.5889	2.3375
6.539	2.3818
6.49	2.5345
6.4416	2.6676
6.3939	2.6782
6.347	2.75
6.3007	2.7571
6.2551	2.7982
6.2101	2.7592
6.1658	2.8253
6.1222	2.8903
6.0791	2.8275
6.0366	2.885
5.9948	2.8399
5.9535	2.8811
5.9127	2.8673
5.8726	2.9825
5.8329	3.0868
5.7938	3.3301
5.7552	3.3091
5.7172	3.3938
5.6796	3.3983
5.6425	3.3689
5.6059	3.4208
5.5698	3.3989
5.5341	3.5879
5.4989	3.5553
5.4641	3.774
5.4298	3.7965
5.3959	3.7005
5.3624	3.7019
5.3294	3.7798
5.2967	3.7862
5.2644	3.8931
5.2326	4.1572
5.2011	4.3374
5.17	4.6902
5.1392	4.5362
5.1088	4.7275
5.0788	4.6386
5.0491	4.553
5.0198	4.678
4.9908	4.8074
4.9622	4.7781
4.9338	5.019
4.9058	5.3003
4.8781	5.5824
4.8508	5.8489
4.8237	6.1566
4.7969	6.2165
4.7704	6.4475
4.7443	6.6076
4.7184	6.8596
4.6927	7.0398
4.6674	7.152
4.6423	7.4704
4.6175	7.5439
4.593	7.7038
4.5687	7.7867
4.5447	7.6056
4.5209	7.4933
4.4974	7.2929
4.4741	7.1919
4.451	7.3886
4.4282	7.5404
4.4057	7.662
4.3833	7.7946
4.3612	8.0301
4.3393	7.9937
4.3176	7.9724
4.2962	7.6664
4.2749	7.5572
4.2539	8.0424
4.233	7.6049
4.2124	8.1686
4.192	8.8264
4.1717	9.1523
4.1517	9.4414
4.1319	9.6782
4.1122	9.8717
4.0927	10.1715
4.0734	10.3072
4.0543	10.2696
4.0354	10.1989
4.0166	10.3056
3.9981	10.0726
3.9796	10.2086
3.9614	9.9064
3.9433	10.0191
3.9254	10.1748
3.9077	9.9056
3.8901	9.668
3.8726	9.6643
3.8554	9.3656
3.8382	9.3304
3.8213	9.2597
3.8045	9.3211
3.7878	9.5488
3.7713	9.5817
3.7549	10.0644
3.7386	9.6887
3.7225	10.0259
3.7066	9.9429
3.6907	10.053
3.675	10.3296
3.6595	10.5314
3.644	10.5177
3.6287	10.9008
3.6136	11.0033
3.5985	11.3727
3.5836	11.6218
3.5688	11.1804
3.5541	11.5336
3.5396	11.3192
3.5251	11.3707
3.5108	11.028
3.4966	11.5657
3.4825	11.2503
3.4685	11.594
3.4547	11.4566
3.4409	11.524
3.4273	11.0718
3.4137	11.0403
3.4003	11.242
3.387	11.0163
3.3738	10.9073
3.3606	10.9832
3.3476	11.0086
3.3347	11.0202
3.3219	10.8156
3.3092	10.7366
3.2965	10.4693
3.284	10.4004
3.2716	10.8892
3.2593	10.3578
3.247	10.4879
3.2348	10.1892
3.2228	10.5237
3.2108	10.3343
3.1989	10.0632
3.1871	10.2883
3.1754	10.1208
3.1638	10.0223
3.1523	9.7919
3.1408	9.6787
3.1294	9.1061
3.1181	9.6967
3.1069	9.1625
3.0958	9.0936
3.0848	8.9661
3.0738	8.6284
3.0629	8.8669
3.0521	9.0224
3.0413	8.8816
3.0307	8.4853
3.0201	8.2831
3.0096	8.2217
2.9991	8.4485
2.9887	8.9136
2.9784	8.6411
2.9682	8.7893
2.9581	8.2734
2.948	8.6
2.9379	9.0185
2.928	8.862
2.9181	8.3958
2.9083	9.2307
2.8985	8.146
2.8888	8.2566
2.8792	7.5693
2.8697	7.6594
2.8602	7.6155
2.8507	7.8245
2.8413	7.9134
2.832	8.1448
2.8228	7.8812
2.8136	7.6895
2.8045	7.0679
2.7954	7.4599
2.7864	7.0907
2.7774	6.9666
2.7685	7.4944
2.7597	8.3681
2.7509	8.3462
2.7422	9.8059
2.7335	11.0362
2.7249	11.1536
2.7163	11.7808
2.7078	11.8087
2.6994	12.742
2.691	13.6114
2.6826	14.4939
2.6743	16.1234
2.666	17.9189
2.6578	17.8861
2.6497	17.5438
2.6416	17.4038
2.6336	17.8204
2.6256	17.9238
2.6176	17.4529
2.6097	17.1962
2.6018	17.3555
2.594	17.0908
2.5863	16.6244
2.5785	16.6576
2.5709	17.2608
2.5633	17.2099
2.5557	17.2561
2.5481	17.5676
2.5406	17.2201
2.5332	17.2339
2.5258	17.2991
2.5184	17.5695
2.5111	17.2288
2.5038	17.345
2.4966	17.0853
2.4894	17.6916
2.4823	17.3998
2.4752	17.6589
2.4681	17.9898
2.4611	17.8019
2.4541	18.1786
2.4471	17.9366
2.4402	18.9814
2.4333	19.1695
2.4265	19.2056
2.4197	18.4614
2.413	18.7866
2.4063	18.23
2.3996	17.9642
2.3929	17.6245
2.3863	16.7654
2.3798	15.2316
2.3732	15.3721
2.3667	15.4442
2.3603	16.4481
2.3538	18.2192
2.3474	18.8351
2.3411	19.4598
2.3347	19.6236
2.3285	19.6237
2.3222	20.6462
2.316	20.3279
2.3098	19.8452
2.3036	18.6109
2.2975	19.4974
2.2914	20.3645
2.2854	21.9347
2.2793	21.8694
2.2733	22.0495
2.2674	21.8618
2.2614	20.9357
2.2555	19.3147
2.2497	19.1247
2.2438	18.0911
2.238	19.9896
2.2322	20.06
2.2265	21.3691
2.2208	19.8467
2.2151	19.3324
2.2094	18.1162
2.2038	16.9282
2.1982	18.4968
2.1926	21.1092
2.187	20.4782
2.1815	21.0015
2.176	20.0121
2.1706	21.77
2.1651	21.8412
2.1597	23.4611
2.1543	22.4584
2.149	22.2804
2.1436	22.8364
2.1383	22.8365
2.1331	23.316
2.1278	22.3677
2.1226	23.0666
2.1174	23.7714
2.1122	22.4961
2.1071	23.0218
2.1019	23.6565
2.0968	22.3463
2.0918	23.206
2.0867	22.5482
2.0817	23.1277
2.0767	24.1714
2.0717	22.0118
2.0667	22.8813
2.0618	22.9645
2.0569	22.0096
2.052	22.487
2.0472	22.8575
2.0423	22.7297
2.0375	21.3887
2.0327	22.9842
2.028	22.7874
2.0232	22.1148
2.0185	23.9014
2.0138	23.3199
2.0091	23.4033
2.0044	22.1485
1.9998	22.7931
