Name: Quartz Conglomerate
Type: Rock
Class: Sedimentary
Subclass: Conglomerate
Particle Size: Solid
Sample No.: Ward48
Owner: JPL
Wavelength Range: VSWIR
Origin: Ward's Collection of American Rocks.  Sample locality - Nanticoke, Luzerne County, Pennsylvania.
Description: The gray hand specimen consists of subangular to roundepebbles of milky quartz of varying size with coarser sand grains fillingthe interstices between the large pebbles.  The cement is silica.Geologic age - Pennsylvanian.Collected by:  Ward's Natural Science Original ASTER Spectral Library name was jpl.perkin.rock.sedimentary.conglomerate.solid.ward48.spectrum.txt
Measurement: Hemispherical reflectance
X Units: Wavelength (micrometers)
Y Units: Reflectance (percent)
wavelength	value
2.5	21.8917
2.494	22.092
2.488	22.1759
2.482	22.4412
2.476	22.7905
2.47	22.9032
2.464	23.3864
2.458	23.5377
2.452	23.6694
2.446	23.8547
2.44	24.0449
2.434	24.2094
2.428	24.6712
2.422	25.1308
2.416	25.5123
2.41	25.8628
2.404	26.0478
2.398	26.1664
2.392	26.1642
2.386	26.035
2.38	25.977
2.374	26.2292
2.368	26.6783
2.362	26.9853
2.356	27.2783
2.35	27.3494
2.344	27.6799
2.338	28.1509
2.332	28.5594
2.326	28.8834
2.32	29.1294
2.314	29.2698
2.308	29.4835
2.302	29.5477
2.296	29.8278
2.29	30.3277
2.284	31.0118
2.278	31.673
2.272	32.1175
2.266	32.3297
2.26	32.3398
2.254	32.3614
2.248	32.6741
2.242	33.2038
2.236	33.3916
2.23	33.0721
2.224	32.1564
2.218	30.463
2.212	28.5683
2.206	26.9913
2.2	27.6322
2.194	28.8707
2.188	28.682
2.182	27.9169
2.176	27.697
2.17	28.4072
2.164	29.7484
2.158	31.3091
2.152	32.6668
2.146	33.353
2.14	33.8973
2.134	34.5695
2.128	35.1052
2.122	35.3717
2.116	35.1154
2.11	34.9751
2.104	35.1361
2.098	35.2625
2.092	35.4172
2.086	35.4794
2.08	35.6307
2.074	35.7371
2.068	35.7068
2.062	35.7777
2.056	35.6612
2.05	35.6775
2.044	35.6265
2.038	35.4921
2.032	35.3037
2.026	35.0617
2.02	34.8044
2.014	34.4969
2.008	34.2507
2.002	33.9009
1.996	33.532
1.99	33.1753
1.984	32.7724
1.978	32.3274
1.972	31.9244
1.966	31.7009
1.96	31.228
1.954	30.9242
1.948	30.7455
1.942	30.5902
1.936	30.3915
1.93	30.2253
1.924	30.1606
1.918	30.0994
1.912	30.3788
1.906	31.0876
1.9	32.6693
1.894	35.0688
1.888	37.5029
1.882	39.5295
1.876	41.2361
1.87	42.1884
1.864	42.9418
1.858	43.3541
1.852	43.5873
1.846	43.5274
1.84	43.5177
1.834	43.389
1.828	43.423
1.822	43.4539
1.816	43.6118
1.81	43.5519
1.804	43.4579
1.798	43.5775
1.792	43.7731
1.786	43.9757
1.78	44.1022
1.774	44.2937
1.768	44.4677
1.762	44.7005
1.756	44.7103
1.75	44.8791
1.744	44.94
1.738	45.0866
1.732	45.1822
1.726	45.2834
1.72	45.3587
1.714	45.4282
1.708	45.3898
1.702	45.4892
1.696	45.4901
1.69	45.5058
1.684	45.5008
1.678	45.5591
1.672	45.5146
1.666	45.4545
1.66	45.5148
1.654	45.495
1.648	45.432
1.642	45.4282
1.636	45.3643
1.63	45.369
1.624	45.3609
1.618	45.3695
1.612	45.2751
1.606	45.3202
1.6	45.3146
1.594	45.1243
1.588	45.1066
1.582	44.9765
1.576	44.918
1.57	44.7061
1.564	44.6131
1.558	44.4164
1.552	44.3801
1.546	44.2311
1.54	44.067
1.534	43.8974
1.528	43.7229
1.522	43.5434
1.516	43.3544
1.51	43.1065
1.504	42.8818
1.498	42.6505
1.492	42.3669
1.486	42.1102
1.48	41.8173
1.474	41.5401
1.468	41.2852
1.462	41.1007
1.456	40.9915
1.45	40.8011
1.444	40.6156
1.438	40.5334
1.432	40.0076
1.426	38.9359
1.42	35.3686
1.414	31.9931
1.408	36.4169
1.402	38.0764
1.396	39.484
1.39	39.386
1.384	37.2156
1.378	37.8768
1.372	40.8521
1.366	42.0205
1.36	41.6693
1.354	42.6515
1.348	43.0909
1.342	43.2844
1.336	43.3788
1.33	43.3376
1.324	43.3043
1.318	43.3404
1.312	43.3177
1.306	43.1688
1.3	43.2473
1.294	43.4653
1.288	43.4593
1.282	43.4117
1.276	43.4758
1.27	43.3279
1.264	43.2554
1.258	42.9903
1.252	42.8766
1.246	42.6699
1.24	42.5545
1.234	42.4789
1.228	42.4479
1.222	42.2651
1.216	42.1601
1.21	41.9056
1.204	41.8625
1.198	41.6427
1.192	41.4629
1.186	41.3464
1.18	41.0753
1.174	40.9441
1.168	40.7565
1.162	40.521
1.156	40.3517
1.15	40.1325
1.144	39.9962
1.138	39.8182
1.132	39.5487
1.126	39.3599
1.12	39.1578
1.114	38.8582
1.108	38.7196
1.102	38.5082
1.096	38.2436
1.09	38.0609
1.084	37.9147
1.078	37.622
1.072	37.4239
1.066	37.1749
1.06	36.9996
1.054	36.8307
1.048	36.662
1.042	36.5268
1.036	36.2625
1.03	36.1423
1.024	35.928
1.018	35.7378
1.012	35.5788
1.006	35.3763
1	35.2219
0.994	35.0802
0.988	34.8239
0.982	34.7519
0.976	34.6059
0.97	34.3284
0.964	34.1405
0.958	34.0641
0.952	33.9504
0.946	33.875
0.94	33.7148
0.934	33.6559
0.928	33.5487
0.922	33.479
0.916	33.4123
0.91	33.3458
0.904	33.3301
0.898	33.3288
0.892	33.3358
0.886	33.416
0.88	33.3578
0.874	33.4573
0.868	33.4893
0.862	33.5526
0.856	33.4785
0.85	33.4526
0.844	33.4547
0.838	33.4695
0.832	33.4589
0.826	33.4639
0.82	33.4698
0.814	33.4502
0.808	33.4132
0.802	33.3885
0.796	33.3334
0.79	33.2772
0.784	33.2436
0.778	33.1964
0.772	33.1293
0.766	33.0247
0.76	32.9352
0.754	32.8259
0.748	32.6934
0.742	32.5581
0.736	32.4187
0.73	32.2306
0.724	32.0561
0.718	31.8684
0.712	31.6746
0.706	31.4584
0.7	31.2469
0.694	31.0403
0.688	30.8279
0.682	30.6315
0.676	30.4336
0.67	30.2511
0.664	30.0571
0.658	29.8825
0.652	29.714
0.646	29.5395
0.64	29.3686
0.634	29.2006
0.628	29.0205
0.622	28.8432
0.616	28.6402
0.61	28.4122
0.604	28.169
0.598	27.8929
0.592	27.5866
0.586	27.2214
0.58	26.8176
0.574	26.4042
0.568	25.9588
0.562	25.5152
0.556	25.1323
0.55	24.7336
0.544	24.3279
0.538	23.9589
0.532	23.5842
0.526	23.2353
0.52	22.8974
0.514	22.5904
0.508	22.3155
0.502	22.0633
0.496	21.8646
0.49	21.6965
0.484	21.597
0.478	21.3031
0.472	21.1371
0.466	21.0243
0.46	20.9508
0.454	20.8934
0.448	20.8016
0.442	20.6581
0.436	20.411
0.43	20.1636
0.424	19.9251
0.418	19.734
0.412	19.5735
0.406	19.4264
0.4	19.2782
