Name: White kaolinitic sandstone
Type: rock
Class: Sedimentary
Subclass: Arenaceou
Particle Size: Solid
Sample No.: fge1
Owner: University of NSW
Wavelength Range: TIR
Origin: Nundooka Sandstone, Fowlers Gap, western New South Wales, AustraliaHewson(1998) PhD thesis
Description: Fine to medium grained sandstone with kaolinitic matrixwith calcrete coatingPhysiography: Forms hillsides and resistant bluffs above broad floodplains Original ASTER Spectral Library name was jpl.nicolet.rock.sedimentary.arenaceous.solid.fge1.spectrum.txt
Measurement: Directional hemispherical reflectance
X Units: Wavelength (micrometers)
Y Units: Reflectance (percent)
wavelength	value
14.983	3.3243
14.728	3.1746
14.481	2.6394
14.242	1.9621
14.011	2.734
13.788	2.9443
13.571	3.2227
13.361	3.3032
13.158	3.7405
12.96	5.0229
12.769	6.4521
12.583	4.918
12.402	3.7185
12.227	1.4841
12.056	2.16
11.89	2.6266
11.729	2.8795
11.572	3.1512
11.419	3.2968
11.27	3.6317
11.125	3.8766
10.983	4.3558
10.846	4.2139
10.711	4.129
10.58	4.2661
10.452	4.5209
10.327	5.1212
10.205	5.7186
10.086	6.5804
9.9695	8.1226
9.8558	8.7966
9.7447	9.8667
9.636	12.035
9.5297	13.459
9.4257	16.871
9.324	23.262
9.2245	24.199
9.127	22.983
9.0316	20.699
8.9382	20.125
8.8467	20.716
8.757	19.727
8.6692	17.648
8.583	18.051
8.4986	20.897
8.4158	21.883
8.3347	23.43
8.255	25.141
8.1769	24.809
8.1002	18.789
8.025	12.813
7.9512	8.4705
7.8786	5.2324
7.8075	3.6399
7.7375	2.9105
7.6689	2.3167
7.6014	1.863
7.5351	1.7385
7.47	1.6142
7.4059	1.603
7.343	1.5027
7.2811	1.4825
7.2203	1.4897
7.1604	1.355
7.1016	1.3503
7.0437	1.2796
6.9867	1.2487
6.9307	1.2247
6.8755	1.2195
6.8213	1.214
6.7678	1.2291
6.7152	1.2695
6.6634	1.2828
6.6124	1.3613
6.5622	1.3663
6.5128	1.5152
6.464	1.8334
6.416	1.9616
6.3687	1.689
6.3221	1.5314
6.2762	1.4098
6.231	1.3215
6.1863	1.3098
6.1424	1.3695
6.099	1.4961
6.0563	1.6157
6.0141	1.58
5.9725	1.623
5.9315	1.5678
5.8911	1.8098
5.8512	2.1903
5.8118	2.5483
5.773	2.8761
5.7347	3.186
5.6969	3.2992
5.6596	2.7989
5.6227	2.2651
5.5864	2.1296
5.5505	2.1614
5.5151	2.4291
5.4801	2.7408
5.4455	2.9248
5.4114	2.5292
5.3778	2.0861
5.3445	1.9878
5.3116	2.0223
5.2792	2.1426
5.2471	2.4238
5.2154	2.9494
5.1842	3.2013
5.1532	3.174
5.1227	3.121
5.0925	3.0221
5.0627	2.9315
5.0332	2.924
5.004	2.9544
4.9752	3.2484
4.9467	3.9897
4.9186	4.6971
4.8907	7.2304
4.8632	10.361
4.836	12.603
4.809	14.285
4.7824	15.694
4.7561	16.783
4.7301	17.366
4.7043	16.644
4.6788	15.014
4.6536	17.284
4.6287	19.747
4.604	21.254
4.5796	21.846
4.5555	21.471
4.5316	19.363
4.508	16.138
4.4846	14.302
4.4614	14.048
4.4385	15.353
4.4158	16.609
4.3934	18.329
4.3711	20.545
4.3491	22.43
4.3273	23.369
4.3058	23.193
4.2844	23.087
4.2633	23.746
4.2424	24.357
4.2216	24.522
4.2011	24.638
4.1808	25.182
4.1606	25.892
4.1407	26.53
4.1209	27.222
4.1014	27.963
4.082	28.502
4.0628	28.6
4.0438	27.877
4.025	26.332
4.0063	24.075
3.9878	21.491
3.9695	21.485
3.9513	23.46
3.9333	26.046
3.9155	26.687
3.8979	26.701
3.8804	26.498
3.863	26.278
3.8458	26.276
3.8288	26.861
3.8119	27.537
3.7951	27.892
3.7785	27.717
3.7621	27.182
3.7458	26.556
3.7296	26.361
3.7136	26.246
3.6977	26.158
3.6819	26.289
3.6663	26.364
3.6508	26.198
3.6355	25.867
3.6202	25.446
3.6051	24.99
3.5901	24.488
3.5753	23.952
3.5605	23.396
3.5459	22.691
3.5314	21.742
3.5171	20.129
3.5028	18.51
3.4887	18.064
3.4746	17.546
3.4607	17.807
3.4469	17.287
3.4332	16.556
3.4196	15.556
3.4061	15.431
3.3928	15.588
3.3795	15.393
3.3663	15.528
3.3533	15.507
3.3403	15.713
3.3274	15.719
3.3147	15.363
3.302	14.946
3.2894	14.474
3.277	13.979
3.2646	13.467
3.2523	13.095
3.2401	12.619
3.228	12.217
3.216	11.771
3.204	11.401
3.1922	10.932
3.1805	10.552
3.1688	10.106
3.1572	9.7559
3.1457	9.3047
3.1343	8.9399
3.123	8.5992
3.1117	8.3154
3.1006	8.1258
3.0895	7.8397
3.0785	7.7345
3.0675	7.5387
3.0567	7.3955
3.0459	7.2805
3.0352	7.1026
3.0246	6.9438
3.014	6.885
3.0036	6.7141
2.9932	6.6345
2.9828	6.5171
2.9726	6.3465
2.9624	6.1012
2.9523	6.165
2.9422	6.1666
2.9322	6.1717
2.9223	6.2315
2.9124	6.3054
2.9027	6.3205
2.8929	6.4595
2.8833	6.5771
2.8737	6.6135
2.8642	6.6777
2.8547	6.8182
2.8453	6.9105
2.836	7.0391
2.8267	6.9663
2.8175	6.8436
2.8083	6.6248
2.7992	6.1716
2.7902	5.6228
2.7812	5.0075
2.7723	4.5303
2.7634	2.9248
2.7546	3.8631
2.7458	4.1227
2.7371	3.6283
2.7285	4.2783
2.7199	5.0979
2.7114	4.7494
2.7029	4.333
2.6945	9.1712
2.6861	15.576
2.6778	20.815
2.6695	24.586
2.6613	27.606
2.6531	29.785
2.645	31.266
2.6369	32.636
2.6289	33.719
2.6209	34.552
2.613	34.954
2.6051	35.434
2.5973	35.725
2.5895	35.989
2.5817	36.216
2.5741	36.304
2.5664	36.654
2.5588	36.856
2.5513	36.908
2.5437	36.902
2.5363	37.182
2.5289	37.253
2.5215	37.605
2.5141	37.77
2.5068	37.993
2.4996	38.293
2.4924	38.329
2.4852	38.694
2.4781	39.386
2.471	39.82
2.464	40.022
2.4569	40.302
2.45	40.67
2.4431	41.12
2.4362	42.082
2.4293	43.101
2.4225	43.851
2.4157	44.403
2.409	44.944
2.4023	45.103
2.3956	44.664
2.389	44.262
2.3824	43.973
2.3759	44.631
2.3694	45.372
2.3629	45.226
2.3564	45.003
2.35	45.453
2.3436	46.08
2.3373	46.578
2.331	46.732
2.3247	46.875
2.3185	47.239
2.3123	47.534
2.3061	48.509
2.3	49.11
2.2939	49.662
2.2878	50.072
2.2818	50.563
2.2757	51.174
2.2698	51.442
2.2638	51.547
2.2579	51.556
2.252	51.61
2.2462	51.38
2.2403	51.038
2.2345	50.953
2.2288	50.569
2.2231	49.508
2.2173	47.537
2.2117	41.106
2.206	41.262
2.2004	45.695
2.1948	46.62
2.1893	47.731
2.1837	48.82
2.1782	49.136
2.1727	49.009
2.1673	48.601
2.1619	48.388
2.1565	49.258
2.1511	50.722
2.1458	52.993
2.1404	54.329
2.1352	55.386
2.1299	55.677
2.1247	55.973
2.1194	56.248
2.1143	55.937
2.1091	56.397
2.104	56.984
2.0988	56.976
2.0938	57.176
2.0887	57.179
2.0837	57.47
