Name: Mica Peridotite
Type: Rock
Class: Igneous
Subclass: Ultramafic
Particle Size: Solid
Sample No.: Ward45
Owner: JPL
Wavelength Range: All
Origin: Ward's Collection of American Rocks.  Sample locality - Ithaca, Tompkins County, New York.
Description: A greenish black rock with porphyritic texture.  Thephenocrysts are chiefly serpentine pseudomorphs after pyroxene andolivine.  Scales and flakes of brown mica are abundant.Geologic age - Late Paleozoic.Collected by:  Ward's Natural Science Original ASTER Spectral Library name was jpl.nicolet.rock.igneous.ultramafic.solid.ward45.spectrum.txt
Measurement: Hemispherical reflectance
X Units: Wavelength (micrometers)
Y Units: Reflectance (percent)
wavelength	value
15.3871	4.1139
15.118	3.5843
14.8581	3.3302
14.6069	2.6845
14.3642	2.2825
14.1293	2.3818
13.9021	2.5111
13.682	2.5968
13.4687	1.9939
13.2621	2.4907
13.0616	3.0644
12.8672	2.4603
12.6784	2.9572
12.4951	2.8975
12.317	3.0133
12.1439	3.4798
11.9757	3.383
11.812	3.5478
11.6527	4.0632
11.4977	4.5634
11.3468	6.348
11.1997	5.1105
11.0564	5.3033
10.9168	5.8315
10.7806	7.009
10.6478	7.5078
10.5182	7.9999
10.3917	8.2045
10.2683	8.252
10.1477	8.0983
10.0299	8.6244
9.9148	9.2085
9.8024	8.1855
9.6925	8.2354
9.585	7.9199
9.4798	7.2886
9.377	6.1086
9.2763	6.0618
9.1778	4.8621
9.0814	5.3471
8.987	5.3733
8.8945	4.5868
8.8039	4.764
8.7151	4.4652
8.6281	3.5734
8.5428	3.5335
8.4592	4.0367
8.3772	4.4865
8.2967	4.1645
8.2179	4.519
8.1404	4.6294
8.0645	4.9817
7.9899	4.5345
7.9167	4.7838
7.8449	4.7516
7.7743	4.8995
7.705	4.6846
7.6369	4.7464
7.57	4.3826
7.5043	4.6028
7.4397	4.5224
7.3762	4.861
7.3138	4.8501
7.2524	4.9376
7.1921	5.5695
7.1327	5.9726
7.0743	7.4147
7.0169	7.4005
6.9604	7.3057
6.9047	7.6118
6.85	7.6357
6.7962	8.061
6.7431	8.2933
6.6909	9.1633
6.6395	10.0159
6.5889	10.5517
6.539	10.6729
6.49	10.6122
6.4416	9.3114
6.3939	6.6912
6.347	5.324
6.3007	4.2021
6.2551	3.1718
6.2101	3.2669
6.1658	2.684
6.1222	2.7231
6.0791	2.6219
6.0366	2.5736
5.9948	2.5444
5.9535	2.5899
5.9127	2.5949
5.8726	2.8944
5.8329	2.9816
5.7938	3.2755
5.7552	3.2686
5.7172	3.4185
5.6796	3.5047
5.6425	3.3226
5.6059	3.4876
5.5698	2.9394
5.5341	3.6061
5.4989	4.1151
5.4641	4.16
5.4298	4.3119
5.3959	4.3816
5.3624	4.5629
5.3294	4.6045
5.2967	4.7514
5.2644	4.7118
5.2326	4.9095
5.2011	4.9502
5.17	4.9822
5.1392	5.0329
5.1088	5.2379
5.0788	5.0221
5.0491	4.8717
5.0198	4.953
4.9908	4.9764
4.9622	5.1367
4.9338	5.038
4.9058	5.4557
4.8781	5.3122
4.8508	5.2559
4.8237	5.3372
4.7969	5.3771
4.7704	5.8388
4.7443	5.781
4.7184	5.7274
4.6927	5.4699
4.6674	5.4488
4.6423	5.6718
4.6175	6.1717
4.593	6.0091
4.5687	6.1521
4.5447	5.7655
4.5209	6.3236
4.4974	6.0451
4.4741	6.2131
4.451	6.195
4.4282	6.5644
4.4057	6.3353
4.3833	6.5309
4.3612	6.7072
4.3393	6.5132
4.3176	6.1601
4.2962	6.3836
4.2749	6.1908
4.2539	6.6221
4.233	6.2283
4.2124	6.4469
4.192	6.7465
4.1717	6.9523
4.1517	7.0314
4.1319	6.6359
4.1122	6.9717
4.0927	6.6445
4.0734	6.3756
4.0543	6.3943
4.0354	6.1902
4.0166	5.4569
3.9981	4.9384
3.9796	5.0815
3.9614	4.9623
3.9433	5.3882
3.9254	5.6711
3.9077	5.645
3.8901	5.5281
3.8726	5.4893
3.8554	5.6246
3.8382	6.2689
3.8213	6.233
3.8045	6.4904
3.7878	7.4063
3.7713	7.0293
3.7549	7.1468
3.7386	7.4686
3.7225	7.2636
3.7066	7.1203
3.6907	6.9204
3.675	7.0547
3.6595	7.1617
3.644	7.2134
3.6287	7.4612
3.6136	6.5928
3.5985	6.6033
3.5836	6.4917
3.5688	6.5611
3.5541	6.6366
3.5396	6.0663
3.5251	5.6867
3.5108	5.3649
3.4966	5.5075
3.4825	4.8766
3.4685	4.9746
3.4547	5.2083
3.4409	5.0276
3.4273	4.9997
3.4137	4.9106
3.4003	4.5186
3.387	5.0272
3.3738	4.5826
3.3606	4.9984
3.3476	5.4871
3.3347	5.5697
3.3219	5.3162
3.3092	5.4684
3.2965	5.4741
3.284	5.8051
3.2716	4.9336
3.2593	5.8383
3.247	4.8056
3.2348	5.4806
3.2228	5.0014
3.2108	4.8933
3.1989	5.858
3.1871	5.186
3.1754	4.565
3.1638	4.5516
3.1523	4.463
3.1408	5.1158
3.1294	4.1646
3.1181	4.8399
3.1069	4.7603
3.0958	4.5416
3.0848	4.3661
3.0738	4.8077
3.0629	4.7448
3.0521	4.8951
3.0413	4.5721
3.0307	4.357
3.0201	4.2901
3.0096	3.1837
2.9991	4.4406
2.9887	4.5056
2.9784	3.7883
2.9682	5.1537
2.9581	5.0025
2.948	3.5442
2.9379	3.6809
2.928	4.0113
2.9181	5.0751
2.9083	4.2025
2.8985	3.3847
2.8888	4.6863
2.8792	5.0886
2.8697	3.8213
2.8602	4.8584
2.8507	4.4731
2.8413	3.6021
2.832	4.0126
2.8228	4.0791
2.8136	4.6469
2.8045	4.8574
2.7954	5.0359
2.7864	5.5004
2.7774	3.7499
2.7685	4.0623
2.7597	3.548
2.7509	3.6472
2.7422	3.599
2.7335	3.6697
2.7249	4.5933
2.7163	3.396
2.7078	3.5
2.6994	3.7098
2.691	6.9442
2.6826	8.632
2.6743	9.9157
2.666	10.8447
2.6578	9.6412
2.6497	9.5972
2.6416	11.1721
2.6336	10.1245
2.6256	10.0098
2.6176	10.3536
2.6097	10.317
2.6018	10.7054
2.594	9.7145
2.5863	10.4781
2.5785	9.413
2.5709	10.4898
2.5633	10.8475
2.5557	9.7519
2.5481	9.4607
2.5406	9.5955
2.5332	10.0091
2.5258	10.0736
2.5184	9.4867
2.5111	10.1093
2.5038	9.9853
2.4966	9.2516
2.4894	9.343
2.4823	10.4357
2.4752	10.3912
2.4681	11.2543
2.4611	10.834
2.4541	11.0528
2.4471	10.7219
2.4402	10.6817
2.4333	10.9886
2.4265	11.4097
2.4197	11.0515
2.413	10.4008
2.4063	10.2
2.3996	11.7461
2.3929	11.4565
2.3863	10.946
2.3798	11.838
2.3732	11.5331
2.3667	11.5401
2.3603	10.8276
2.3538	10.0058
2.3474	10.7752
2.3411	10.8135
2.3347	9.7881
2.3285	9.8341
2.3222	10.8198
2.316	10.7605
2.3098	9.8861
2.3036	11.0183
2.2975	12.2283
2.2914	12.0126
2.2854	11.8003
2.2793	11.8433
2.2733	11.5047
2.2674	12.5388
2.2614	11.9542
2.2555	12.4081
2.2497	11.3164
2.2438	12.5601
2.238	11.0968
2.2322	11.3241
2.2265	11.8093
2.2208	12.8423
2.2151	14.006
2.2094	13.7301
2.2038	12.416
2.1982	12.8283
2.1926	12.9319
2.187	13.2392
2.1815	11.8249
2.176	12.8603
2.1706	13.0486
2.1651	12.9025
2.1597	13.5499
2.1543	13.7581
2.149	12.4436
2.1436	13.8944
2.1383	11.2765
2.1331	13.7177
2.1278	12.9487
2.1226	14.29
2.1174	12.8925
2.1122	13.2142
2.1071	12.5238
2.1019	11.909
2.0968	11.9992
2.0918	13.7688
2.0867	11.5802
2.0817	12.2034
2.0767	13.1545
2.0717	12.3201
2.0667	12.4576
2.0618	13.4511
2.0569	14.8201
2.052	11.9802
2.0472	13.3397
2.0423	10.511
2.0375	14.1263
2.0327	13.6928
2.028	15.1679
2.0232	12.9558
2.0185	11.951
2.0138	14.2371
2.0091	11.5769
2.0044	13.022
1.9998	15.6812
