Name: Shale (Calcareous)
Type: rock
Class: Sedimentary
Subclass: Shale
Particle Size: Fine
Sample No.: shale_3
Owner: JHU
Wavelength Range: All
Origin: Sample No. 383,  The Hunt and Salisbury Collection at the U.S.Geological Survey, Denver, Co.
Description: Sample consists of a brownish fine-grained to microcrystalline groundmass with recrystallized(?), foraminiferid tests. Tests are biserial, uniserial, planispiral/trochospiral and fusilinid types. The groundmass consists of brown clay, carbonate, and lesser amounts of fine quartz. Additionally, there are scattered flecks and small lenses of opaque material. Particle size was 0 - 75 Micrometers. Original ASTER Spectral Library name was jhu.becknic.rock.sedimentary.shale.fine.shale3.spectrum.txt
Measurement: Directional (10 Degree) Hemispherical Reflectance
X Units: Wavelength (micrometers)
Y Units: Reflectance (percent)
wavelength	value
14.983	9.237
14.645	9.8792
14.321	8.0773
14.011	2.0189
13.715	9.9259
13.43	12.231
13.158	11.901
12.896	7.8774
12.644	7.7252
12.402	7.6165
12.169	12.73
11.945	13.9
11.729	12.399
11.52	6.5475
11.319	3.8158
11.125	10.888
10.937	8.7591
10.755	8.918
10.58	8.8635
10.41	7.7408
10.245	5.7319
10.086	4.2729
9.9313	3.6036
9.7814	3.3232
9.636	3.3924
9.4948	3.7306
9.3577	4.4713
9.2245	5.0709
9.095	5.1754
8.9691	5.1069
8.8467	5.5375
8.7275	6.7135
8.6116	7.0261
8.4986	8.1754
8.3886	10.564
8.2814	14.539
8.1769	18.103
8.075	18.603
7.9756	19.6
7.8786	18.745
7.784	18.193
7.6916	17.026
7.6014	14.157
7.5133	13.058
7.4272	11.294
7.343	8.5983
7.2607	5.5858
7.1803	3.8094
7.1016	3.6455
7.0246	3.3209
6.9493	3.0561
6.8755	2.9874
6.8034	3.0549
6.7327	3.2574
6.6634	3.6422
6.5956	4.409
6.5292	5.5043
6.464	7.072
6.4002	7.7898
6.3376	5.8283
6.2762	4.6975
6.216	4.4948
6.157	4.3025
6.099	4.6811
6.0421	5.4082
5.9863	6.6936
5.9315	7.7219
5.8777	9.1643
5.8249	9.8073
5.773	9.8605
5.722	10.962
5.6719	13.046
5.6227	12.669
5.5744	2.4326
5.5268	11.296
5.4801	21.011
5.4341	26.716
5.3889	28.057
5.3445	27.984
5.3008	30.648
5.2578	34.653
5.2154	39.197
5.1738	40.948
5.1328	41.551
5.0925	39.75
5.0528	41.847
5.0137	42.04
4.9752	43.635
4.9373	45.863
4.9	48.237
4.8632	50.239
4.827	51.041
4.7913	51.396
4.7561	50.703
4.7215	47.094
4.6873	39.363
4.6536	39.718
4.6205	46.547
4.5877	48.933
4.5555	49.562
4.5237	49.783
4.4923	50.359
4.4614	52.154
4.4309	53.853
4.4008	54.932
4.3711	55.46
4.3418	54.748
4.3129	54.451
4.2844	53.216
4.2563	53.014
4.2285	54.436
4.2011	54.4
4.174	53.546
4.1473	52.082
4.1209	49.54
4.0949	46.213
4.0692	41.114
4.0438	31.446
4.0187	19.209
3.994	9.2541
3.9695	7.2186
3.9453	12.649
3.9214	17.875
3.8979	19.49
3.8746	20.473
3.8515	21.56
3.8288	26.044
3.8063	35.465
3.7841	47.477
3.7621	51.489
3.7404	52.944
3.7189	53.835
3.6977	53.961
3.6767	53.757
3.656	53.162
3.6355	52.199
3.6152	50.96
3.5951	48.743
3.5753	44.286
3.5557	41.824
3.5363	36.253
3.5171	24.193
3.4981	18.142
3.4793	14.556
3.4607	20.751
3.4423	23.154
3.4241	23.327
3.4061	22.936
3.3883	22.097
3.3707	21.296
3.3533	18.436
3.336	28.779
3.3189	35.655
3.302	37.612
3.2853	38.475
3.2687	38.742
3.2523	38.775
3.2361	38.554
3.22	38.073
3.204	37.413
3.1883	36.631
3.1727	35.654
3.1572	34.373
3.1419	33.463
3.1268	32.699
3.1117	31.54
3.0969	30.891
3.0821	30.47
3.0675	30.03
3.0531	29.53
3.0388	29.135
3.0246	28.72
3.0105	28.415
2.9966	28.254
2.9828	28.123
2.9692	27.992
2.9556	27.883
2.9422	27.816
2.9289	27.931
2.9157	28.2
2.9027	28.523
2.8897	29.031
2.8769	29.444
2.8642	29.765
2.8516	29.918
2.8391	29.769
2.8267	29.396
2.8144	28.763
2.8022	27.833
2.7902	26.095
2.7782	23.434
2.7664	21.558
2.7546	21.536
2.7429	24.29
2.7314	29.428
2.7199	37.63
2.7085	46.632
2.6973	52.696
2.6861	59.977
2.675	62.755
2.664	63.817
2.6531	65.396
2.6423	65.997
2.6315	65.575
2.6209	65.719
2.6103	66.043
2.5999	65.956
2.5895	65.779
2.5792	65.751
2.569	65.473
2.5588	64.331
2.5487	61.839
2.5388	59.524
2.5289	60.1
2.519	61.787
2.5093	62.594
2.4996	62.922
2.49	63.316
2.4805	63.97
2.471	64.909
2.4616	65.727
2.4523	66.26
2.4431	66.649
2.4339	67.107
2.4248	67.459
2.4157	67.783
2.4068	67.991
2.3979	68.061
2.389	68.165
2.3802	68
2.3715	67.79
2.3629	67.105
2.3543	65.904
2.3458	64.859
2.3373	64.698
2.3289	65.359
2.3206	66.181
2.3123	66.719
2.3041	67.003
2.2959	67.296
2.2878	67.666
2.2798	68.031
2.2718	68.318
2.2638	68.523
2.2559	68.612
2.2481	68.721
2.2403	68.701
2.2326	68.703
2.225	68.531
2.2173	68.45
2.2098	68.524
2.2023	68.602
2.1948	68.816
2.1874	69.026
2.18	69.29
2.1727	69.369
2.1655	69.466
2.1583	69.469
2.1511	69.472
2.144	69.647
2.1369	69.591
2.1299	69.639
2.1229	69.675
2.116	69.662
2.1091	69.608
2.1023	69.619
2.0955	69.627
2.0887	69.743
2.082	69.828
2.06	69.738
2.028	69.254
1.996	67.361
1.964	66.474
1.932	64.894
1.9	66.732
1.868	65.89
1.836	67.331
1.804	67.421
1.772	66.158
1.74	66.048
1.708	65.783
1.676	65.409
1.644	64.905
1.612	64.396
1.58	64.488
1.548	64.239
1.516	63.625
1.484	62.645
1.452	61.882
1.42	61.367
1.388	61.644
1.356	60.204
1.324	59.72
1.292	59.238
1.26	59.067
1.228	58.978
1.196	57.754
1.164	56.452
1.132	56.597
1.1	55.838
1.068	55.805
1.036	54.832
1.004	54.292
0.972	53.806
0.94	53.487
0.908	52.822
0.876	52.702
0.844	52.502
0.812	52.644
0.795	52.327
0.787	51.937
0.779	52.123
0.771	51.307
0.763	50.917
0.755	50.82
0.747	50.614
0.739	50.33
0.731	49.973
0.723	49.811
0.715	49.39
0.707	49.302
0.699	48.957
0.691	49.152
0.683	49.087
0.675	48.385
0.667	48.396
0.659	47.904
0.651	48.115
0.643	47.4
0.635	47.3
0.627	46.825
0.619	46.739
0.611	45.915
0.603	45.458
0.595	45.676
0.587	45.34
0.579	44.909
0.571	44.623
0.563	43.913
0.555	43.212
0.547	42.804
0.539	42.409
0.531	42.167
0.523	41.4
0.515	40.968
0.507	40.379
0.499	39.992
0.491	39.26
0.483	38.669
0.475	38.049
0.467	37.395
0.459	36.306
0.451	35.995
0.443	35.09
0.435	34.567
0.427	34.246
0.419	33.353
0.411	32.838
0.403	31.92
