Name: Mica Dacite Porphyry
Type: Rock
Class: Igneous
Subclass: Intermediate
Particle Size: Solid
Sample No.: Ward27
Owner: JPL
Wavelength Range: VSWIR
Origin: Ward's Collection of American Rocks.  Sample locality - Ward, Boulder County, Colorado.
Description: A gray porphyritic rock with phenocrysts of both glassy andmilky plagioclase, black mica and quartz in a medium gray cryptocrystallinegroundmass.  The biotite shows some alteration to chlorite.Geologic age - Tertiary (Eocene).Collected by:  Ward's Natural Science Original ASTER Spectral Library name was jpl.perkin.rock.igneous.intermediate.solid.ward27.spectrum.txt
Measurement: Hemispherical reflectance
X Units: Wavelength (micrometers)
Y Units: Reflectance (percent)
wavelength	value
2.5	10.6068
2.494	10.6254
2.488	10.8454
2.482	10.7714
2.476	10.634
2.47	10.7706
2.464	10.7411
2.458	10.7331
2.452	10.8333
2.446	10.7354
2.44	10.9485
2.434	10.8956
2.428	10.9265
2.422	10.9769
2.416	11.0251
2.41	11.1383
2.404	11.1114
2.398	11.1578
2.392	11.1944
2.386	11.195
2.38	11.0945
2.374	11.1587
2.368	11.0223
2.362	10.9765
2.356	10.9935
2.35	10.9436
2.344	10.9806
2.338	11.0068
2.332	11.0973
2.326	11.2409
2.32	11.4147
2.314	11.5263
2.308	11.707
2.302	11.8296
2.296	11.9694
2.29	11.9627
2.284	12.177
2.278	12.0443
2.272	12.057
2.266	11.9663
2.26	11.8544
2.254	11.7733
2.248	11.7578
2.242	11.8822
2.236	11.8696
2.23	11.8503
2.224	11.6541
2.218	11.6211
2.212	11.7542
2.206	11.852
2.2	11.9332
2.194	12.1107
2.188	12.3737
2.182	12.5229
2.176	12.6663
2.17	12.816
2.164	12.9084
2.158	13.01
2.152	13.0861
2.146	13.0586
2.14	13.1441
2.134	13.1274
2.128	13.0986
2.122	13.0556
2.116	12.9977
2.11	13.0346
2.104	12.926
2.098	12.9391
2.092	12.9395
2.086	12.9992
2.08	13.027
2.074	13.0398
2.068	13.0448
2.062	13.0789
2.056	13.0845
2.05	13.0878
2.044	13.0908
2.038	13.077
2.032	13.1236
2.026	13.0717
2.02	13.0646
2.014	13.0738
2.008	13.1133
2.002	13.0693
1.996	13.0282
1.99	13.0788
1.984	13.0625
1.978	12.9621
1.972	13.0936
1.966	13.0856
1.96	13.0635
1.954	13.0977
1.948	13.0164
1.942	13.1136
1.936	13.1145
1.93	13.1737
1.924	13.0616
1.918	13.1077
1.912	13.1695
1.906	13.1678
1.9	13.323
1.894	13.3354
1.888	13.5332
1.882	13.5793
1.876	13.6052
1.87	13.6687
1.864	13.7113
1.858	13.7081
1.852	13.7385
1.846	13.7379
1.84	13.7988
1.834	13.7584
1.828	13.8373
1.822	13.7703
1.816	13.8878
1.81	13.8923
1.804	13.8462
1.798	13.89
1.792	13.8577
1.786	13.8529
1.78	13.8736
1.774	13.8912
1.768	13.9081
1.762	13.9034
1.756	13.867
1.75	13.9217
1.744	13.8997
1.738	13.9581
1.732	13.8523
1.726	13.942
1.72	13.9086
1.714	13.9871
1.708	13.9928
1.702	13.9327
1.696	14.0534
1.69	13.9255
1.684	13.9797
1.678	13.9539
1.672	14.0551
1.666	14.0026
1.66	13.9933
1.654	14.0356
1.648	14.1095
1.642	14.0494
1.636	14.0689
1.63	14.0319
1.624	14.0715
1.618	14.1842
1.612	14.0858
1.606	14.0977
1.6	14.0917
1.594	14.095
1.588	14.0446
1.582	14.1253
1.576	14.0527
1.57	14.1681
1.564	14.0985
1.558	14.1094
1.552	14.05
1.546	14.137
1.54	14.1441
1.534	14.1266
1.528	14.1575
1.522	14.2134
1.516	14.1777
1.51	14.2066
1.504	14.2311
1.498	14.1944
1.492	14.1752
1.486	14.229
1.48	14.2182
1.474	14.1797
1.468	14.2236
1.462	14.2224
1.456	14.1403
1.45	14.1999
1.444	14.181
1.438	14.1907
1.432	14.0517
1.426	13.9994
1.42	13.8491
1.414	13.7435
1.408	13.8358
1.402	14.0464
1.396	14.192
1.39	14.3528
1.384	14.3471
1.378	14.4274
1.372	14.3905
1.366	14.3956
1.36	14.3017
1.354	14.4608
1.348	14.443
1.342	14.4577
1.336	14.4624
1.33	14.3845
1.324	14.483
1.318	14.4201
1.312	14.4016
1.306	14.359
1.3	14.4781
1.294	14.398
1.288	14.3934
1.282	14.4219
1.276	14.4037
1.27	14.3658
1.264	14.3963
1.258	14.349
1.252	14.3695
1.246	14.3943
1.24	14.4148
1.234	14.3759
1.228	14.426
1.222	14.3886
1.216	14.3651
1.21	14.3441
1.204	14.3799
1.198	14.4222
1.192	14.3545
1.186	14.4382
1.18	14.3953
1.174	14.4095
1.168	14.4336
1.162	14.4411
1.156	14.4292
1.15	14.5063
1.144	14.4157
1.138	14.4702
1.132	14.494
1.126	14.5164
1.12	14.5459
1.114	14.649
1.108	14.6264
1.102	14.6155
1.096	14.7535
1.09	14.7458
1.084	14.7013
1.078	14.7653
1.072	14.7807
1.066	14.782
1.06	14.7555
1.054	14.9611
1.048	14.9233
1.042	15.0001
1.036	14.9962
1.03	15.1218
1.024	15.1094
1.018	15.0183
1.012	15.1585
1.006	15.21
1	15.2258
0.994	15.2093
0.988	15.3058
0.982	15.2232
0.976	15.3304
0.97	15.3088
0.964	15.3073
0.958	15.3194
0.952	15.34
0.946	15.3706
0.94	15.3598
0.934	15.3263
0.928	15.3291
0.922	15.3584
0.916	15.3583
0.91	15.3719
0.904	15.3903
0.898	15.4311
0.892	15.4327
0.886	15.4372
0.88	15.588
0.874	15.6168
0.868	15.6231
0.862	15.6799
0.856	15.7717
0.85	15.8596
0.844	15.9341
0.838	15.9858
0.832	16.0264
0.826	16.0781
0.82	16.1212
0.814	16.1713
0.808	16.1924
0.802	16.2083
0.796	16.2225
0.79	16.2457
0.784	16.2434
0.778	16.2517
0.772	16.2538
0.766	16.2541
0.76	16.261
0.754	16.2693
0.748	16.2754
0.742	16.2974
0.736	16.3206
0.73	16.3487
0.724	16.391
0.718	16.4307
0.712	16.4708
0.706	16.5163
0.7	16.5568
0.694	16.6181
0.688	16.683
0.682	16.7396
0.676	16.8043
0.67	16.8811
0.664	16.9468
0.658	17.0221
0.652	17.0996
0.646	17.1707
0.64	17.255
0.634	17.3327
0.628	17.416
0.622	17.4975
0.616	17.574
0.61	17.6137
0.604	17.6931
0.598	17.7723
0.592	17.8426
0.586	17.8959
0.58	17.9405
0.574	17.9705
0.568	17.9845
0.562	17.9714
0.556	17.984
0.55	17.9597
0.544	17.9244
0.538	17.8848
0.532	17.846
0.526	17.7909
0.52	17.7408
0.514	17.6756
0.508	17.6409
0.502	17.5632
0.496	17.4815
0.49	17.4283
0.484	17.3687
0.478	17.2094
0.472	17.0896
0.466	17.0051
0.46	16.9318
0.454	16.8398
0.448	16.7443
0.442	16.6296
0.436	16.4837
0.43	16.2965
0.424	16.0945
0.418	15.9062
0.412	15.7224
0.406	15.5591
0.4	15.4103
