Name: Sandstone (Flagstone)
Type: Rock
Class: Sedimentary
Subclass: Sandstone
Particle Size: Solid
Sample No.: Ward61
Owner: JPL
Wavelength Range: All
Origin: Ward's Collection of American Rocks.  Sample locality - near Masonville, Delaware County, New York.
Description: A very fine, brownish sandstone.  Quartz grains, mica flakesand numerous specks of limonite are often apparent.Geologic age - Middle Devonian.Collected by:  Ward's Natural Science Original ASTER Spectral Library name was jpl.nicolet.rock.sedimentary.sandstone.solid.ward61.spectrum.txt
Measurement: Hemispherical reflectance
X Units: Wavelength (micrometers)
Y Units: Reflectance (percent)
wavelength	value
15.3871	3.7041
15.118	3.4126
14.8581	3.565
14.6069	3.7015
14.3642	3.904
14.1293	3.5554
13.9021	4.0467
13.682	4.4378
13.4687	4.7485
13.2621	5.0547
13.0616	5.2858
12.8672	6.723
12.6784	5.6633
12.4951	6.4146
12.317	3.5856
12.1439	3.8157
11.9757	4.5896
11.812	4.8784
11.6527	5.4217
11.4977	5.9961
11.3468	6.6392
11.1997	7.1955
11.0564	7.8323
10.9168	7.885
10.7806	8.139
10.6478	8.8011
10.5182	9.6891
10.3917	11.3484
10.2683	13.4013
10.1477	15.8581
10.0299	17.1647
9.9148	18.7155
9.8024	19.9859
9.6925	22.8671
9.585	25.3149
9.4798	23.9619
9.377	25.5275
9.2763	28.1246
9.1778	28.8554
9.0814	28.2114
8.987	26.9425
8.8945	25.4102
8.8039	23.0192
8.7151	19.9365
8.6281	15.3305
8.5428	19.7907
8.4592	19.7716
8.3772	19.9204
8.2967	20.3655
8.2179	20.8378
8.1404	18.2894
8.0645	13.0787
7.9899	9.5776
7.9167	6.8814
7.8449	5.294
7.7743	4.7821
7.705	4.173
7.6369	3.6299
7.57	3.1386
7.5043	3.0667
7.4397	3.1337
7.3762	3.1098
7.3138	3.0589
7.2524	3.0143
7.1921	3.0246
7.1327	2.9163
7.0743	2.8072
7.0169	2.7355
6.9604	2.9305
6.9047	3.0668
6.85	3.1078
6.7962	3.1767
6.7431	3.2993
6.6909	3.3702
6.6395	3.5983
6.5889	3.5493
6.539	3.4492
6.49	3.8722
6.4416	3.9615
6.3939	3.766
6.347	3.6039
6.3007	3.3497
6.2551	3.2999
6.2101	3.1277
6.1658	3.0312
6.1222	3.1464
6.0791	3.2305
6.0366	3.2492
5.9948	3.3743
5.9535	3.157
5.9127	3.1811
5.8726	3.2821
5.8329	3.6189
5.7938	3.6605
5.7552	3.8901
5.7172	4.2305
5.6796	4.128
5.6425	3.8932
5.6059	3.8077
5.5698	3.8594
5.5341	3.8712
5.4989	3.9872
5.4641	4.2024
5.4298	4.248
5.3959	3.9728
5.3624	3.767
5.3294	3.9563
5.2967	4.0884
5.2644	4.249
5.2326	4.5979
5.2011	4.8481
5.17	4.8739
5.1392	4.9448
5.1088	5.0251
5.0788	5.1793
5.0491	4.9009
5.0198	4.9961
4.9908	5.2068
4.9622	5.4585
4.9338	5.7947
4.9058	6.2244
4.8781	7.0408
4.8508	7.6127
4.8237	7.8673
4.7969	8.2128
4.7704	8.3199
4.7443	8.7205
4.7184	8.8745
4.6927	8.8109
4.6674	8.9249
4.6423	9.5053
4.6175	9.7713
4.593	10.1683
4.5687	10.4962
4.5447	10.3857
4.5209	10.3578
4.4974	9.7933
4.4741	9.6545
4.451	10.0304
4.4282	10.3321
4.4057	10.6705
4.3833	11.0429
4.3612	11.5233
4.3393	11.6606
4.3176	11.6723
4.2962	11.622
4.2749	11.5693
4.2539	11.8794
4.233	11.7117
4.2124	12.1778
4.192	12.5083
4.1717	12.4574
4.1517	12.7233
4.1319	13.0367
4.1122	12.9833
4.0927	13.1168
4.0734	13.2371
4.0543	13.1783
4.0354	13.1438
4.0166	13.0255
3.9981	13.0176
3.9796	12.9666
3.9614	13.1219
3.9433	13.1444
3.9254	13.4105
3.9077	13.5093
3.8901	13.2401
3.8726	13.4745
3.8554	13.3813
3.8382	13.6166
3.8213	13.3849
3.8045	13.4799
3.7878	13.4613
3.7713	13.7172
3.7549	13.6101
3.7386	13.4718
3.7225	13.548
3.7066	13.5313
3.6907	13.6692
3.675	13.6042
3.6595	13.5441
3.644	13.4829
3.6287	13.1875
3.6136	13.0207
3.5985	12.9717
3.5836	12.6372
3.5688	12.4572
3.5541	12.1868
3.5396	12.0756
3.5251	12.0306
3.5108	11.8293
3.4966	11.6334
3.4825	11.6261
3.4685	11.613
3.4547	11.4616
3.4409	11.3989
3.4273	10.9532
3.4137	10.9541
3.4003	10.3765
3.387	10.4506
3.3738	10.1292
3.3606	10.0518
3.3476	10.0219
3.3347	9.661
3.3219	9.4978
3.3092	9.8471
3.2965	9.2804
3.284	9.0635
3.2716	9.1585
3.2593	9.037
3.247	8.9861
3.2348	9.1257
3.2228	9.2
3.2108	8.6865
3.1989	8.4939
3.1871	8.318
3.1754	8.3485
3.1638	8.2404
3.1523	8.1017
3.1408	7.7979
3.1294	7.6692
3.1181	7.4241
3.1069	7.4796
3.0958	7.0425
3.0848	6.432
3.0738	6.9368
3.0629	6.0358
3.0521	6.3938
3.0413	6.0726
3.0307	6.2223
3.0201	6.1552
3.0096	5.9298
2.9991	6.5313
2.9887	6.157
2.9784	5.9193
2.9682	5.0559
2.9581	6.1046
2.948	6.2508
2.9379	5.6027
2.928	6.0668
2.9181	6.2184
2.9083	6.4672
2.8985	6.084
2.8888	6.1887
2.8792	6.2113
2.8697	7.2084
2.8602	6.1451
2.8507	6.5789
2.8413	6.5182
2.832	6.1979
2.8228	6.6393
2.8136	5.3724
2.8045	6.419
2.7954	4.7783
2.7864	6.3152
2.7774	6.4569
2.7685	4.5322
2.7597	5.1658
2.7509	4.6662
2.7422	4.6702
2.7335	5.2518
2.7249	6.5293
2.7163	8.4593
2.7078	11.3538
2.6994	13.2315
2.691	14.7167
2.6826	15.484
2.6743	16.1568
2.666	16.6503
2.6578	17.0378
2.6497	16.7197
2.6416	17.082
2.6336	17.1768
2.6256	17.015
2.6176	17.1065
2.6097	17.046
2.6018	16.8447
2.594	17.7218
2.5863	17.4699
2.5785	17.1409
2.5709	17.9834
2.5633	18.2337
2.5557	17.7709
2.5481	18.0027
2.5406	18.0436
2.5332	17.8176
2.5258	18.0801
2.5184	18.1863
2.5111	17.7512
2.5038	17.4424
2.4966	17.8571
2.4894	17.8219
2.4823	17.9198
2.4752	18.0039
2.4681	17.792
2.4611	18.2064
2.4541	17.8827
2.4471	17.8154
2.4402	17.906
2.4333	18.2181
2.4265	18.2694
2.4197	18.6582
2.413	19.2245
2.4063	18.1085
2.3996	18.2144
2.3929	18.8028
2.3863	18.3684
2.3798	18.3162
2.3732	18.4513
2.3667	18.2558
2.3603	17.7145
2.3538	18.1765
2.3474	18.6925
2.3411	17.7157
2.3347	18.6978
2.3285	18.4139
2.3222	20.151
2.316	19.02
2.3098	19.4083
2.3036	19.8359
2.2975	19.2171
2.2914	18.9735
2.2854	20.2735
2.2793	19.7635
2.2733	19.853
2.2674	19.2388
2.2614	19.2447
2.2555	19.2133
2.2497	19.5448
2.2438	20.1877
2.238	19.0236
2.2322	19.6525
2.2265	18.7415
2.2208	19.9691
2.2151	19.7201
2.2094	19.0256
2.2038	19.0123
2.1982	19.2669
2.1926	19.1574
2.187	19.2885
2.1815	20.0716
2.176	19.6937
2.1706	21.27
2.1651	20.478
2.1597	20.9529
2.1543	20.9496
2.149	21.7667
2.1436	20.4873
2.1383	21.0186
2.1331	21.3161
2.1278	21.1162
2.1226	21.0281
2.1174	21.4154
2.1122	21.0992
2.1071	21.4147
2.1019	21.5643
2.0968	20.5146
2.0918	21.525
2.0867	21.2575
2.0817	20.0229
2.0767	23.2869
2.0717	21.01
2.0667	22.4502
2.0618	22.8616
2.0569	24.0572
2.052	22.7555
2.0472	20.0424
2.0423	23.2287
2.0375	21.3879
2.0327	21.0077
2.028	18.6652
2.0232	21.1171
2.0185	21.2195
2.0138	21.7366
2.0091	22.8983
2.0044	20.292
1.9998	21.0891
