Name: Lamprophyre
Type: rock
Class: Igneous
Subclass: Mafic
Particle Size: Fine
Sample No.: Lamproph_H1
Owner: JHU
Wavelength Range: All
Origin: from Spanish Peaks, Colorado, via Ward's Scientific (Cat. No. W-39)
Description: Powder from very dark gray aphanitic rock weathering to a tan color. Particle size was 0-75 micrometers. Original ASTER Spectral Library name was jhu.becknic.rock.igneous.mafic.fine.lampro1.spectrum.txt
Measurement: Directional (10 degree) hemispherical reflectance
X Units: Wavelength (micrometers)
Y Units: Reflectance (percent)
wavelength	value
14.011	1.4963
13.715	1.5712
13.43	1.808
13.158	1.3697
12.896	1.83
12.644	2.1722
12.402	3.0075
12.169	3.7692
11.945	3.5133
11.729	3.4017
11.52	3.4898
11.319	3.4218
11.125	3.0476
10.937	2.8704
10.755	2.6316
10.58	2.4387
10.41	2.3023
10.245	2.2218
10.086	2.1371
9.9313	2.2563
9.7814	2.2067
9.636	2.2169
9.4948	2.2257
9.3577	2.2259
9.2245	2.1276
9.095	2.1199
8.9691	2.1265
8.8467	1.8455
8.7275	1.7911
8.6116	1.8187
8.4986	1.9432
8.3886	2.0316
8.2814	2.1005
8.1769	2.0532
8.075	2.1375
7.9756	2.3555
7.8786	2.8455
7.784	3.3541
7.6916	3.9541
7.6014	4.6333
7.5133	5.221
7.4272	5.8231
7.343	6.4109
7.2607	6.9682
7.1803	7.4325
7.1016	7.8752
7.0246	8.2364
6.9493	8.6145
6.8755	8.9854
6.8034	9.2156
6.7327	9.3517
6.6634	9.4218
6.5956	9.615
6.5292	9.5925
6.464	9.7356
6.4002	9.88
6.3376	9.982
6.2762	9.8509
6.216	9.51
6.157	8.3374
6.099	8.0285
6.0421	8.8837
5.9863	9.6804
5.9315	10.655
5.8777	12.04
5.8249	12.796
5.773	13.368
5.722	13.611
5.6719	13.817
5.6227	14.138
5.5744	14.547
5.5268	14.895
5.4801	15.207
5.4341	15.52
5.3889	15.849
5.3445	16.047
5.3008	16.313
5.2578	16.654
5.2154	16.983
5.1738	17.273
5.1328	17.486
5.0925	17.718
5.0528	18.061
5.0137	18.34
4.9752	18.74
4.9373	19.111
4.9	19.413
4.8632	19.708
4.827	20.051
4.7913	20.304
4.7561	20.669
4.7215	20.981
4.6873	21.317
4.6536	21.6
4.6205	21.984
4.5877	22.291
4.5555	22.593
4.5237	22.837
4.4923	23.105
4.4614	23.247
4.4309	23.407
4.4008	23.562
4.3711	23.713
4.3418	23.809
4.3129	24.033
4.2844	24.224
4.2563	24.442
4.2285	24.555
4.2011	24.736
4.174	24.809
4.1473	24.952
4.1209	25.069
4.0949	25.176
4.0692	25.228
4.0438	25.309
4.0187	25.315
3.994	25.393
3.9695	25.425
3.9453	25.421
3.9214	25.474
3.8979	25.478
3.8746	25.493
3.8515	25.463
3.8288	25.468
3.8063	25.409
3.7841	25.353
3.7621	25.337
3.7404	25.2
3.7189	25.179
3.6977	25.045
3.6767	24.975
3.656	24.843
3.6355	24.764
3.6152	24.579
3.5951	24.389
3.5753	24.27
3.5557	24.105
3.5363	23.881
3.5171	23.725
3.4981	23.54
3.4793	23.272
3.4607	23.028
3.4423	22.749
3.4241	22.48
3.4061	22.138
3.3883	21.811
3.3707	21.407
3.3533	21.044
3.336	20.592
3.3189	20.171
3.302	19.792
3.2853	19.359
3.2687	18.98
3.2523	18.496
3.2361	18.007
3.22	17.466
3.204	17.004
3.1883	16.411
3.1727	15.944
3.1572	15.504
3.1419	15.085
3.1268	14.738
3.1117	14.408
3.0969	14.053
3.0821	13.891
3.0675	13.631
3.0531	13.508
3.0388	13.506
3.0246	13.449
3.0105	13.336
2.9966	13.154
2.9828	12.934
2.9692	12.759
2.9556	12.593
2.9422	12.423
2.9289	12.414
2.9157	12.39
2.9027	12.443
2.8897	12.468
2.8769	12.367
2.8642	12.392
2.8516	12.419
2.8391	12.372
2.8267	12.206
2.8144	12.351
2.8022	12.828
2.7902	13.261
2.7782	13.493
2.7664	13.861
2.7546	14.82
2.7429	16.988
2.7314	19.565
2.7199	21.581
2.7085	23.179
2.6973	24.623
2.6861	25.622
2.675	26.256
2.664	26.559
2.6531	26.741
2.6423	26.768
2.6315	26.878
2.6209	26.935
2.6103	26.917
2.5999	26.905
2.5895	26.976
2.5792	26.837
2.569	26.816
2.5588	26.862
2.5487	26.712
2.5388	26.67
2.5289	26.714
2.519	26.815
2.5093	26.667
2.4996	26.681
2.49	26.743
2.4805	26.733
2.471	26.849
2.4616	26.712
2.4523	26.811
2.4431	26.752
2.4339	26.768
2.4248	26.933
2.4157	26.85
2.4068	26.984
2.3979	26.945
2.389	26.896
2.3802	26.927
2.3715	26.905
2.3629	26.979
2.3543	26.93
2.3458	27.026
2.3373	27.022
2.3289	26.947
2.3206	26.939
2.3123	26.957
2.3041	27.019
2.2959	27.012
2.2878	27.06
2.2798	27.173
2.2718	27.054
2.2638	27.085
2.2559	27.101
2.2481	26.989
2.2403	27.13
2.2326	26.999
2.225	27.218
2.2173	27.123
2.2098	27.176
2.2023	27.247
2.1948	27.129
2.1874	27.245
2.18	27.282
2.1727	27.193
2.1655	27.243
2.1583	27.311
2.1511	27.279
2.144	27.421
2.1369	27.239
2.1299	27.42
2.1229	27.409
2.116	27.34
2.1091	27.424
2.1023	27.381
2.0955	27.406
2.0887	27.503
2.082	27.366
2.06	27.905
2.028	27.387
1.996	26.969
1.964	26.716
1.932	26.609
1.9	26.696
1.868	27.15
1.836	27.145
1.804	27.069
1.772	27.092
1.74	27.117
1.708	27.236
1.676	27.246
1.644	26.993
1.612	26.881
1.58	26.769
1.548	26.659
1.516	26.439
1.484	26.066
1.452	26.118
1.42	25.727
1.388	25.316
1.356	24.989
1.324	25.136
1.292	25.215
1.26	24.252
1.228	24.004
1.196	23.496
1.164	23.031
1.132	23.069
1.1	22.543
1.068	22.056
1.036	21.775
1.004	21.939
0.972	22.206
0.94	22.478
0.908	23.034
0.876	23.191
0.844	23.144
0.812	23.482
0.795	23.345
0.787	23.104
0.779	23.234
0.771	23.241
0.763	23.369
0.755	23.113
0.747	22.88
0.739	23.19
0.731	23.009
0.723	22.986
0.715	22.806
0.707	22.823
0.699	22.92
0.691	22.958
0.683	22.739
0.675	23.023
0.667	22.803
0.659	22.924
0.651	23.078
0.643	22.725
0.635	22.747
0.627	22.834
0.619	22.678
0.611	22.656
0.603	22.766
0.595	22.526
0.587	22.388
0.579	22.214
0.571	22.435
0.563	22.364
0.555	22.735
0.547	22.641
0.539	22.47
0.531	22.256
0.523	22.039
0.515	21.844
0.507	21.32
0.499	21.277
0.491	20.972
0.483	20.789
0.475	20.482
0.467	20.108
0.459	20.232
0.451	20.161
0.443	19.877
0.435	19.617
0.427	19.449
0.419	18.684
0.411	18.444
0.403	17.949
