Name: Basalt
Type: Rock
Class: Igneous
Subclass: Mafic
Particle Size: Solid
Sample No.: me14b
Owner: Lawrence Rowan, USGS Reston
Wavelength Range: All
Origin: Datras area, Middle East
Description: Basalt, fresh surfaceSample was Whole rock chips. Original ASTER Spectral Library name was usgs.perknic.rock.igneous.mafic.solid.me14b.spectrum.txt
Measurement: Directional Hemispherical Reflectance
X Units: Wavelength (micrometers)
Y Units: Reflectance (percent)
wavelength	value
14.051	3.193
13.826	3.3784
13.609	3.3063
13.398	3.399
13.193	3.5123
12.995	3.4093
12.802	3.5535
12.616	3.6771
12.434	4.017
12.258	4.5423
12.086	5.1603
11.92	5.4693
11.757	5.7886
11.6	6.695
11.446	7.7147
11.297	8.549
11.151	8.9095
11.009	9.3009
10.87	9.8571
10.735	9.785
10.604	9.7747
10.475	9.5069
10.35	9.8777
10.227	9.7438
10.108	9.5687
9.991	10.0837
9.877	10.1661
9.765	10.0013
9.656	9.991
9.549	9.5275
9.445	8.9095
9.343	8.24
9.243	7.7353
9.145	7.6117
9.049	8.0237
8.956	8.137
8.864	7.5911
8.774	6.8701
8.686	6.18
8.599	5.6135
8.515	5.047
8.431	4.6659
8.35	4.017
8.27	3.2754
8.192	2.3072
8.115	1.8952
8.039	1.7407
7.965	1.6995
7.893	1.6583
7.821	1.7716
7.751	1.7613
7.682	1.8025
7.614	1.8334
7.548	2.0085
7.483	2.0085
7.418	2.0806
7.355	2.1836
7.293	2.2145
7.232	2.3381
7.172	2.4205
7.113	2.6677
7.055	2.884
6.998	2.9767
6.942	3.0076
6.886	3.09
6.832	3.193
6.778	3.2033
6.726	3.2445
6.674	3.3166
6.623	3.399
6.572	3.5329
6.523	3.5844
6.474	3.5741
6.426	3.3475
6.378	2.9561
6.332	2.8531
6.286	2.678
6.24	2.6677
6.195	2.6265
6.151	2.5647
6.108	2.5338
6.065	2.5853
6.023	2.6059
5.981	2.6677
5.94	2.8428
5.899	2.884
5.859	2.9355
5.82	3.0591
5.781	3.1621
5.743	3.2033
5.705	3.2754
5.667	3.2548
5.63	3.2651
5.594	3.2857
5.558	3.3475
5.523	3.4814
5.487	3.502
5.453	3.6153
5.419	3.6771
5.385	3.7698
5.352	3.8213
5.319	3.8419
5.286	3.9346
5.254	3.9964
5.222	4.0273
5.191	4.1097
5.16	4.1715
5.129	4.1818
5.099	4.2436
5.069	4.3569
5.04	4.429
5.01	4.3775
4.981	4.5217
4.953	4.5732
4.925	4.6762
4.897	4.7792
4.869	4.8513
4.842	4.8616
4.815	4.9543
4.788	5.0264
4.762	5.0676
4.736	5.0779
4.71	5.2427
4.684	5.2942
4.659	5.3766
4.634	5.4178
4.61	5.5208
4.585	5.6547
4.561	5.7989
4.537	5.9122
4.513	5.9431
4.49	6.0049
4.467	6.0564
4.444	6.2109
4.421	6.3139
4.398	6.3345
4.376	6.4169
4.354	6.4375
4.332	6.6023
4.311	6.5508
4.289	6.798
4.268	6.7259
4.247	6.901
4.226	6.9731
4.206	6.8392
4.185	6.8598
4.165	6.8907
4.145	6.9113
4.126	6.9525
4.106	7.0349
4.086	7.0246
4.067	7.0555
4.048	6.901
4.029	6.9216
4.011	6.8186
3.992	6.6435
3.974	6.6332
3.956	6.7671
3.938	6.8907
3.92	6.8598
3.902	6.8186
3.884	6.9628
3.867	6.9422
3.85	6.9834
3.833	6.9834
3.816	7.0864
3.799	7.1791
3.782	7.2306
3.766	7.1585
3.75	7.2409
3.733	7.0658
3.717	7.1791
3.702	7.0246
3.686	7.1276
3.67	7.107
3.655	7.0246
3.639	7.0452
3.624	7.0246
3.609	6.9319
3.594	6.9731
3.579	6.8083
3.564	6.7259
3.549	6.7362
3.535	6.6229
3.521	6.386
3.506	6.3551
3.492	6.3345
3.478	6.3963
3.464	6.2109
3.45	6.283
3.437	6.1285
3.423	6.0564
3.409	6.1491
3.396	5.9843
3.383	6.1285
3.37	5.8813
3.357	5.9431
3.344	5.8195
3.331	5.8504
3.318	5.7886
3.305	5.768
3.293	5.6032
3.28	5.6444
3.268	5.6753
3.255	5.665
3.243	5.5311
3.231	5.4796
3.219	5.4487
3.207	5.2427
3.195	5.2118
3.183	5.1706
3.172	5.0779
3.16	5.047
3.149	4.8925
3.137	5.0573
3.126	4.8925
3.115	4.9028
3.103	4.8822
3.092	4.8616
3.081	4.7895
3.07	4.8101
3.06	4.7792
3.049	4.7586
3.038	4.8513
3.027	4.5114
3.017	4.8101
3.006	4.6968
2.996	4.5835
2.986	4.5217
2.975	4.4908
2.965	4.4805
2.955	4.4805
2.945	4.4805
2.935	4.6556
2.925	4.4496
2.915	4.6659
2.905	4.3775
2.896	4.6762
2.886	4.5732
2.876	4.5835
2.867	4.4908
2.857	4.9234
2.848	4.9131
2.838	4.9337
2.829	4.8307
2.82	4.429
2.811	4.841
2.802	4.6453
2.793	4.7689
2.784	4.7998
2.775	4.9543
2.766	5.2015
2.757	5.356
2.748	5.2633
2.74	5.4487
2.731	5.9019
2.722	6.2418
2.714	6.7671
2.705	6.9113
2.697	7.5293
2.688	8.3533
2.68	8.446
2.672	8.5696
2.664	8.6417
2.655	8.9816
2.647	8.6829
2.639	8.8374
2.631	9.167
2.623	8.8374
2.615	9.373
2.607	8.9713
2.599	8.858
2.592	9.1361
2.584	8.8065
2.576	9.1464
2.569	9.1258
2.561	9.0125
2.553	9.167
2.546	9.1361
2.538	9.3833
2.531	8.961
2.524	9.0537
2.516	9.0228
2.509	9.6305
2.502	9.0846
2.48	9.2005
2.456	8.9551
2.432	9.276
2.408	9.1503
2.384	9.4419
2.36	9.7709
2.336	9.5447
2.312	9.5912
2.288	9.5345
2.264	9.6102
2.24	9.54
2.216	9.8233
2.192	9.9509
2.168	10.1967
2.144	10.3347
2.12	10.1467
2.096	10.0082
2.072	10.0964
2.048	10.2116
2.024	10.1736
2	10.2311
1.976	10.1929
1.952	10.1556
1.928	9.9193
1.904	9.7508
1.88	10.3232
1.856	10.437
1.832	10.497
1.808	10.5061
1.784	10.6325
1.76	10.5798
1.736	10.5802
1.712	10.5569
1.688	10.5127
1.664	10.3129
1.64	10.211
1.616	10.0957
1.592	10.0128
1.568	9.9076
1.544	9.7727
1.52	9.6953
1.496	9.5584
1.472	9.4095
1.448	9.2918
1.424	9.1208
1.4	8.953
1.376	8.8015
1.352	8.6157
1.328	8.604
1.304	8.4112
1.28	8.3553
1.256	8.2967
1.232	8.128
1.208	8.1126
1.184	7.9669
1.16	7.9379
1.136	7.818
1.112	7.6219
1.088	7.4307
1.064	7.3708
1.04	7.3422
1.016	7.3582
0.992	7.4507
0.968	7.5493
0.944	7.7526
0.92	8.2057
0.896	8.3006
0.872	8.4368
0.848	8.2404
0.824	8.211
0.8	8.1607
0.776	8.0998
0.752	8.0628
0.728	7.9765
0.704	7.8475
0.68	7.7188
0.656	7.5657
0.632	7.4675
0.608	7.3491
0.584	7.187
0.56	6.9622
0.536	6.803
0.512	6.7315
0.488	6.6161
0.464	6.6205
0.44	6.5779
0.416	6.5706
