Name: Andesite Breccia
Type: Rock
Class: Igneous
Subclass: Intermediate
Particle Size: Solid
Sample No.: Ward28
Owner: JPL
Wavelength Range: VSWIR
Origin: Ward's Collection of American Rocks.  Sample locality - Ouray, ouray County, Colorado.
Description: A compact rock with angular fragments of varicolored greenand purple extrusive material embedded in a variegated gray-green topurple groundmass.Geologic age - Tertiary (Eocene).Collected by:  Ward's Natural Science Original ASTER Spectral Library name was jpl.perkin.rock.igneous.intermediate.solid.ward28.spectrum.txt
Measurement: Hemispherical reflectance
X Units: Wavelength (micrometers)
Y Units: Reflectance (percent)
wavelength	value
2.5	26.3012
2.494	26.3008
2.488	26.4366
2.482	26.6044
2.476	26.6162
2.47	26.8361
2.464	27.0101
2.458	27.1354
2.452	27.3056
2.446	27.3218
2.44	27.6151
2.434	27.711
2.428	28.0076
2.422	28.2532
2.416	28.2904
2.41	28.3031
2.404	28.3378
2.398	28.3121
2.392	28.0899
2.386	27.8279
2.38	27.4084
2.374	26.8799
2.368	26.1053
2.362	25.2198
2.356	24.1877
2.35	23.3955
2.344	22.8114
2.338	22.8027
2.332	23.2484
2.326	23.9865
2.32	24.9046
2.314	25.886
2.308	26.839
2.302	27.759
2.296	28.4
2.29	29.0002
2.284	29.334
2.278	29.525
2.272	29.2813
2.266	28.7722
2.26	28.3055
2.254	27.8847
2.248	28.1791
2.242	28.8962
2.236	29.7989
2.23	30.0868
2.224	30.0365
2.218	30.0044
2.212	30.3321
2.206	30.7546
2.2	31.5635
2.194	32.393
2.188	33.2324
2.182	33.9463
2.176	34.4529
2.17	34.7936
2.164	35.1333
2.158	35.3071
2.152	35.337
2.146	35.4465
2.14	35.491
2.134	35.3743
2.128	35.3074
2.122	35.161
2.116	35.0767
2.11	35.041
2.104	34.9519
2.098	34.9591
2.092	34.9394
2.086	34.9731
2.08	34.9895
2.074	34.9653
2.068	34.9084
2.062	34.8309
2.056	34.7193
2.05	34.6171
2.044	34.5156
2.038	34.3892
2.032	34.2361
2.026	34.0399
2.02	33.9294
2.014	33.7088
2.008	33.5997
2.002	33.6047
1.996	33.5074
1.99	33.5259
1.984	33.5179
1.978	33.5813
1.972	33.5119
1.966	33.4542
1.96	33.4773
1.954	33.3978
1.948	33.4993
1.942	33.4108
1.936	33.5056
1.93	33.597
1.924	33.5598
1.918	33.4907
1.912	33.568
1.906	33.5618
1.9	33.6636
1.894	33.6355
1.888	33.6817
1.882	33.6988
1.876	33.7506
1.87	33.8105
1.864	33.7451
1.858	33.7183
1.852	33.6885
1.846	33.6314
1.84	33.6574
1.834	33.5389
1.828	33.5268
1.822	33.4192
1.816	33.3366
1.81	33.3291
1.804	33.286
1.798	33.1923
1.792	33.1418
1.786	33.0472
1.78	32.9905
1.774	32.8725
1.768	32.8499
1.762	32.8323
1.756	32.7398
1.75	32.631
1.744	32.5538
1.738	32.5465
1.732	32.3984
1.726	32.4055
1.72	32.1745
1.714	32.1634
1.708	32.1214
1.702	31.913
1.696	31.8245
1.69	31.6578
1.684	31.5151
1.678	31.4885
1.672	31.3641
1.666	31.1895
1.66	31.0375
1.654	31.0189
1.648	30.9439
1.642	30.7954
1.636	30.5273
1.63	30.5906
1.624	30.3638
1.618	30.2765
1.612	30.081
1.606	29.9619
1.6	29.8338
1.594	29.7874
1.588	29.6058
1.582	29.3713
1.576	29.2322
1.57	29.0956
1.564	29.0488
1.558	28.8148
1.552	28.6908
1.546	28.6616
1.54	28.4461
1.534	28.3698
1.528	28.2555
1.522	28.1645
1.516	28.0629
1.51	28.0386
1.504	27.9548
1.498	27.8637
1.492	27.7842
1.486	27.6084
1.48	27.4938
1.474	27.3673
1.468	27.2319
1.462	27.0513
1.456	26.9225
1.45	26.7662
1.444	26.6653
1.438	26.4915
1.432	26.2916
1.426	25.9829
1.42	25.5032
1.414	25.0491
1.408	25.0811
1.402	25.2369
1.396	25.4722
1.39	25.8261
1.384	25.7435
1.378	25.6575
1.372	25.4433
1.366	25.4065
1.36	25.249
1.354	25.1017
1.348	24.7802
1.342	24.6491
1.336	24.5539
1.33	24.4078
1.324	24.2792
1.318	24.2209
1.312	23.9749
1.306	23.7986
1.3	23.7396
1.294	23.5732
1.288	23.4476
1.282	23.2739
1.276	23.19
1.27	23.0119
1.264	22.8261
1.258	22.7307
1.252	22.5898
1.246	22.3924
1.24	22.2612
1.234	22.1389
1.228	21.9929
1.222	21.9029
1.216	21.752
1.21	21.6521
1.204	21.4648
1.198	21.3867
1.192	21.2545
1.186	21.1972
1.18	21.0218
1.174	20.9248
1.168	20.835
1.162	20.7744
1.156	20.7033
1.15	20.6063
1.144	20.5924
1.138	20.4801
1.132	20.5163
1.126	20.4022
1.12	20.3888
1.114	20.3364
1.108	20.3174
1.102	20.3692
1.096	20.2325
1.09	20.2795
1.084	20.3372
1.078	20.2272
1.072	20.337
1.066	20.3145
1.06	20.3108
1.054	20.3392
1.048	20.3401
1.042	20.3402
1.036	20.379
1.03	20.3839
1.024	20.3468
1.018	20.4421
1.012	20.4303
1.006	20.436
1	20.3532
0.994	20.3601
0.988	20.3674
0.982	20.2758
0.976	20.2608
0.97	20.2468
0.964	20.1153
0.958	20.1467
0.952	20.1042
0.946	20.0317
0.94	19.9749
0.934	20.0269
0.928	19.9972
0.922	19.9125
0.916	19.9505
0.91	19.9908
0.904	20.0306
0.898	20.0236
0.892	20.051
0.886	20.1546
0.88	20.2449
0.874	20.2795
0.868	20.4006
0.862	20.4627
0.856	20.9482
0.85	21.075
0.844	21.1459
0.838	21.2107
0.832	21.2727
0.826	21.3143
0.82	21.3741
0.814	21.3809
0.808	21.3552
0.802	21.3249
0.796	21.2469
0.79	21.1442
0.784	21.0506
0.778	20.9379
0.772	20.8036
0.766	20.6898
0.76	20.5787
0.754	20.4732
0.748	20.3848
0.742	20.3081
0.736	20.2458
0.73	20.1979
0.724	20.1713
0.718	20.1563
0.712	20.1682
0.706	20.1807
0.7	20.2219
0.694	20.2713
0.688	20.3381
0.682	20.4224
0.676	20.5035
0.67	20.6009
0.664	20.7027
0.658	20.8199
0.652	20.9395
0.646	21.0705
0.64	21.2051
0.634	21.3446
0.628	21.4993
0.622	21.649
0.616	21.8059
0.61	21.9644
0.604	22.119
0.598	22.2829
0.592	22.435
0.586	22.5633
0.58	22.671
0.574	22.7561
0.568	22.8212
0.562	22.8394
0.556	22.8948
0.55	22.8897
0.544	22.8606
0.538	22.8106
0.532	22.7528
0.526	22.7087
0.52	22.635
0.514	22.5077
0.508	22.3122
0.502	22.0278
0.496	21.6618
0.49	21.4094
0.484	21.0114
0.478	20.403
0.472	19.9225
0.466	19.6996
0.46	19.4544
0.454	19.1766
0.448	19.2214
0.442	19.0589
0.436	18.6833
0.43	18.2042
0.424	17.6541
0.418	17.096
0.412	16.5529
0.406	16.127
0.4	15.9392
