Name: Diabase
Type: Rock
Class: Igneous
Subclass: Mafic
Particle Size: Solid
Sample No.: Ward37
Owner: JPL
Wavelength Range: All
Origin: Ward's Collection of American Rocks.  Sample locality - Somerville, Suffolk County, Massachusetts.
Description: Coarse grained, greenish-gray rock showing diabase texture.Composed of labradorite, biotite and pyroxene.Geologic Age - Triassic.Collected by:  Ward's Natural Science Original ASTER Spectral Library name was jpl.nicolet.rock.igneous.mafic.solid.ward37.spectrum.txt
Measurement: Hemispherical reflectance
X Units: Wavelength (micrometers)
Y Units: Reflectance (percent)
wavelength	value
15.3871	4.805
15.118	3.8963
14.8581	3.8055
14.6069	3.3347
14.3642	3.5156
14.1293	4.0345
13.9021	4.3177
13.682	4.0351
13.4687	4.3089
13.2621	4.452
13.0616	4.0581
12.8672	3.7383
12.6784	3.9806
12.4951	3.8908
12.317	4.4309
12.1439	5.1168
11.9757	5.522
11.812	6.1372
11.6527	6.9854
11.4977	7.3745
11.3468	8.2135
11.1997	8.1729
11.0564	8.6907
10.9168	9.2135
10.7806	9.8122
10.6478	10.5108
10.5182	11.2819
10.3917	12.1446
10.2683	13.1695
10.1477	14.6057
10.0299	15.7219
9.9148	16.5234
9.8024	15.6751
9.6925	16.7616
9.585	16.9621
9.4798	14.1087
9.377	12.5246
9.2763	12.1424
9.1778	11.3268
9.0814	10.6165
8.987	10.1405
8.8945	9.6991
8.8039	9.392
8.7151	9.534
8.6281	8.9284
8.5428	8.7941
8.4592	8.5904
8.3772	8.5587
8.2967	7.2694
8.2179	5.2882
8.1404	3.2393
8.0645	2.5945
7.9899	2.0896
7.9167	1.9124
7.8449	1.9207
7.7743	1.8103
7.705	1.9266
7.6369	1.9944
7.57	2.0823
7.5043	2.0634
7.4397	2.1458
7.3762	2.2605
7.3138	2.4301
7.2524	2.6246
7.1921	2.5304
7.1327	2.8136
7.0743	2.9715
7.0169	3.1263
6.9604	3.2224
6.9047	3.2184
6.85	3.3194
6.7962	3.5159
6.7431	3.5385
6.6909	3.7151
6.6395	3.8615
6.5889	3.9592
6.539	3.8952
6.49	3.8954
6.4416	3.66
6.3939	3.2575
6.347	3.2594
6.3007	3.1055
6.2551	3.1877
6.2101	3.008
6.1658	3.0704
6.1222	3.0999
6.0791	3.1348
6.0366	3.2659
5.9948	3.1143
5.9535	3.265
5.9127	3.3742
5.8726	3.4932
5.8329	3.5853
5.7938	3.692
5.7552	3.6772
5.7172	3.7765
5.6796	3.8507
5.6425	4.1152
5.6059	3.977
5.5698	4.0747
5.5341	4.1918
5.4989	4.3636
5.4641	4.4355
5.4298	4.5816
5.3959	4.6418
5.3624	4.7791
5.3294	4.6848
5.2967	4.8482
5.2644	4.8947
5.2326	5.0077
5.2011	5.0619
5.17	5.183
5.1392	5.1891
5.1088	5.2997
5.0788	5.3989
5.0491	5.4609
5.0198	5.5238
4.9908	5.6038
4.9622	5.8384
4.9338	5.9689
4.9058	6.0004
4.8781	6.1892
4.8508	6.3111
4.8237	6.3651
4.7969	6.37
4.7704	6.4989
4.7443	6.4969
4.7184	6.8874
4.6927	6.9886
4.6674	7.1492
4.6423	7.3184
4.6175	7.5933
4.593	7.7933
4.5687	8.0644
4.5447	8.3241
4.5209	8.4154
4.4974	8.9128
4.4741	9.1041
4.451	9.4203
4.4282	9.4716
4.4057	9.8688
4.3833	9.9519
4.3612	10.3428
4.3393	10.4811
4.3176	10.7706
4.2962	11.1156
4.2749	11.2033
4.2539	11.4757
4.233	11.7899
4.2124	11.7656
4.192	12.0188
4.1717	12.0032
4.1517	12.4076
4.1319	12.0057
4.1122	12.2652
4.0927	12.3883
4.0734	12.3821
4.0543	12.5971
4.0354	12.4639
4.0166	12.3753
3.9981	12.4408
3.9796	12.2702
3.9614	12.2845
3.9433	12.6281
3.9254	12.732
3.9077	12.8562
3.8901	12.9938
3.8726	12.9263
3.8554	12.74
3.8382	12.9738
3.8213	13.0053
3.8045	13.159
3.7878	13.2995
3.7713	13.2542
3.7549	13.2674
3.7386	13.122
3.7225	13.1227
3.7066	13.076
3.6907	12.7966
3.675	12.9213
3.6595	12.6824
3.644	12.4927
3.6287	12.53
3.6136	12.5147
3.5985	12.5071
3.5836	12.1375
3.5688	12.0101
3.5541	11.7978
3.5396	11.8949
3.5251	11.3696
3.5108	10.6647
3.4966	10.6112
3.4825	10.3193
3.4685	10.6529
3.4547	10.2595
3.4409	10.2979
3.4273	9.7291
3.4137	9.373
3.4003	9.6508
3.387	9.5278
3.3738	9.3901
3.3606	9.484
3.3476	9.4102
3.3347	9.3701
3.3219	9.3074
3.3092	9.3542
3.2965	9.2866
3.284	8.7416
3.2716	9.0613
3.2593	8.2912
3.247	8.5696
3.2348	8.0493
3.2228	8.2439
3.2108	8.4005
3.1989	7.8047
3.1871	7.7828
3.1754	7.6886
3.1638	7.3662
3.1523	7.3787
3.1408	7.1771
3.1294	6.9728
3.1181	6.5708
3.1069	6.394
3.0958	6.7775
3.0848	6.6163
3.0738	6.3377
3.0629	6.1315
3.0521	6.1861
3.0413	6.5205
3.0307	5.8773
3.0201	5.7998
3.0096	5.6517
2.9991	5.5124
2.9887	5.7217
2.9784	5.9625
2.9682	5.4891
2.9581	5.591
2.948	6.2161
2.9379	5.5256
2.928	5.5562
2.9181	6.2689
2.9083	5.2505
2.8985	5.6619
2.8888	5.4509
2.8792	5.5737
2.8697	5.9099
2.8602	5.7211
2.8507	5.3112
2.8413	5.5857
2.832	5.58
2.8228	5.723
2.8136	5.7492
2.8045	5.678
2.7954	5.9314
2.7864	6.0305
2.7774	5.9797
2.7685	6.0626
2.7597	6.0454
2.7509	6.3868
2.7422	7.1228
2.7335	7.1943
2.7249	8.478
2.7163	9.4557
2.7078	11.5819
2.6994	13.3343
2.691	14.688
2.6826	15.5793
2.6743	15.6692
2.666	16.4377
2.6578	16.7236
2.6497	16.7945
2.6416	16.6936
2.6336	17.1443
2.6256	17.0384
2.6176	17.5415
2.6097	16.9603
2.6018	17.3717
2.594	17.1299
2.5863	17.2412
2.5785	17.1805
2.5709	17.7279
2.5633	17.6496
2.5557	17.0749
2.5481	17.6441
2.5406	17.8677
2.5332	17.2386
2.5258	16.8657
2.5184	17.2038
2.5111	17.4787
2.5038	17.3789
2.4966	17.7973
2.4894	17.4273
2.4823	17.6903
2.4752	18.3446
2.4681	17.4034
2.4611	18.0544
2.4541	18.1813
2.4471	17.8967
2.4402	17.9304
2.4333	18.2741
2.4265	18.5533
2.4197	18.0522
2.413	18.3222
2.4063	18.3013
2.3996	18.0562
2.3929	17.8219
2.3863	18.3283
2.3798	17.9997
2.3732	17.7103
2.3667	17.7885
2.3603	17.2326
2.3538	17.0661
2.3474	17.5542
2.3411	18.0701
2.3347	17.0835
2.3285	18.497
2.3222	18.8035
2.316	19.8997
2.3098	19.5271
2.3036	19.8364
2.2975	19.9662
2.2914	20.4095
2.2854	20.5597
2.2793	21.2739
2.2733	20.8802
2.2674	20.4567
2.2614	21.22
2.2555	20.561
2.2497	20.7041
2.2438	21.2605
2.238	21.0738
2.2322	21.6941
2.2265	21.8885
2.2208	21.4492
2.2151	21.2353
2.2094	21.2219
2.2038	20.9541
2.1982	21.3451
2.1926	20.9773
2.187	22.2562
2.1815	22.4517
2.176	22.5569
2.1706	23.2561
2.1651	23.474
2.1597	24.0349
2.1543	23.9301
2.149	23.5588
2.1436	23.6856
2.1383	23.7417
2.1331	24.2295
2.1278	23.3116
2.1226	24.1873
2.1174	24.8712
2.1122	24.6092
2.1071	24.265
2.1019	23.9192
2.0968	23.0848
2.0918	23.7062
2.0867	24.8225
2.0817	25.3335
2.0767	24.5117
2.0717	24.7013
2.0667	24.6606
2.0618	25.6109
2.0569	24.4682
2.052	24.8688
2.0472	23.9413
2.0423	24.6764
2.0375	24.5564
2.0327	23.9628
2.028	23.4494
2.0232	25.2568
2.0185	23.7767
2.0138	24.4704
2.0091	24.4366
2.0044	24.9595
1.9998	24.2018
