Name: Hornblende Gneiss
Type: rock
Class: Metamorphic
Subclass: Gneis
Particle Size: Fine
Sample No.: gneiss6
Owner: JHU
Wavelength Range: All
Origin: Sample No. 465, The Hunt and Salisbury Collection at the U.S.Geological Survey, Denver, Co.
Description: Coarse grains of slightly lineated hornblende euhedra with anhedra of alkali feldspar make up the bulk of this rock.  There are scattered grains of pyrite and possibly a trace of quartz as well.  The modes were 69% hornblende, 30.4% feldspar and 0.6% opaques.  Particle size was  0-75 Micrometer. Original ASTER Spectral Library name was jhu.becknic.rock.metamorphic.gneiss.fine.gneiss6.spectrum.txt
Measurement: Directional (10 Degree) Hemispherical Reflectance
X Units: Wavelength (micrometers)
Y Units: Reflectance (percent)
wavelength	value
14.983	1.0465
14.645	1.428
14.321	1.6255
14.011	2.1444
13.715	2.1948
13.43	2.0842
13.158	1.8926
12.896	2.3615
12.644	2.8842
12.402	3.8838
12.169	4.9049
11.945	4.9014
11.729	4.2331
11.52	3.8743
11.319	3.7024
11.125	3.3583
10.937	3.1589
10.755	3.2183
10.58	3.5844
10.41	3.8393
10.245	4.0249
10.086	3.9401
9.9313	3.5539
9.7814	3.1594
9.636	3.1241
9.4948	3.0343
9.3577	2.9711
9.2245	2.775
9.095	2.6417
8.9691	2.65
8.8467	2.8434
8.7275	3.1826
8.6116	2.77
8.4986	2.8915
8.3886	3.2008
8.2814	3.637
8.1769	3.7256
8.075	3.6761
7.9756	4.0773
7.8786	4.7058
7.784	5.6234
7.6916	6.718
7.6014	7.7763
7.5133	8.8479
7.4272	9.8904
7.343	11.035
7.2607	12.319
7.1803	13.448
7.1016	14.396
7.0246	15.136
6.9493	15.909
6.8755	16.5
6.8034	17.118
6.7327	17.654
6.6634	18.201
6.5956	18.578
6.5292	18.791
6.464	19.011
6.4002	18.661
6.3376	17.934
6.2762	17.292
6.216	16.952
6.157	17.431
6.099	18.355
6.0421	18.927
5.9863	19.287
5.9315	19.471
5.8777	20.31
5.8249	21.252
5.773	21.995
5.722	22.624
5.6719	23.167
5.6227	23.818
5.5744	24.751
5.5268	25.948
5.4801	27.059
5.4341	27.831
5.3889	27.501
5.3445	27.359
5.3008	28.349
5.2578	29.742
5.2154	31.312
5.1738	31.931
5.1328	32.421
5.0925	33.223
5.0528	34.029
5.0137	34.797
4.9752	36.033
4.9373	37.67
4.9	39.391
4.8632	40.998
4.827	42.221
4.7913	43.454
4.7561	44.961
4.7215	46.378
4.6873	47.733
4.6536	49.177
4.6205	50.686
4.5877	52.111
4.5555	53.294
4.5237	53.987
4.4923	54.379
4.4614	55.042
4.4309	56.042
4.4008	56.953
4.3711	57.703
4.3418	58.283
4.3129	58.746
4.2844	59.118
4.2563	59.515
4.2285	59.829
4.2011	60.133
4.174	60.413
4.1473	60.7
4.1209	60.974
4.0949	61.208
4.0692	61.395
4.0438	61.533
4.0187	61.638
3.994	61.59
3.9695	61.553
3.9453	61.798
3.9214	62.002
3.8979	62.207
3.8746	62.265
3.8515	62.335
3.8288	62.429
3.8063	62.401
3.7841	62.437
3.7621	62.409
3.7404	62.354
3.7189	62.244
3.6977	62.147
3.6767	62.014
3.656	61.858
3.6355	61.683
3.6152	61.443
3.5951	61.231
3.5753	60.923
3.5557	60.593
3.5363	60.16
3.5171	59.551
3.4981	58.922
3.4793	58.758
3.4607	58.357
3.4423	57.743
3.4241	57.217
3.4061	56.578
3.3883	56.154
3.3707	55.573
3.3533	55.133
3.336	54.767
3.3189	54.493
3.302	54.125
3.2853	53.69
3.2687	53.176
3.2523	52.584
3.2361	51.9
3.22	51.172
3.204	50.309
3.1883	49.51
3.1727	48.819
3.1572	48.15
3.1419	47.572
3.1268	47.011
3.1117	46.36
3.0969	45.724
3.0821	45.106
3.0675	44.446
3.0531	43.811
3.0388	43.045
3.0246	42.303
3.0105	41.374
2.9966	40.395
2.9828	39.426
2.9692	38.491
2.9556	37.919
2.9422	37.646
2.9289	37.855
2.9157	38.394
2.9027	38.934
2.8897	39.201
2.8769	38.92
2.8642	38.563
2.8516	38.586
2.8391	38.248
2.8267	37.824
2.8144	37.994
2.8022	38.662
2.7902	39.035
2.7782	32.198
2.7664	25.521
2.7546	21.972
2.7429	21.724
2.7314	22.624
2.7199	25.822
2.7085	30.494
2.6973	36.641
2.6861	51.449
2.675	62.676
2.664	63.98
2.6531	64.625
2.6423	65.059
2.6315	64.936
2.6209	64.965
2.6103	65.165
2.5999	65.226
2.5895	65.286
2.5792	65.288
2.569	65.336
2.5588	65.333
2.5487	65.448
2.5388	65.419
2.5289	65.378
2.519	65.231
2.5093	65.162
2.4996	65.115
2.49	65.152
2.4805	65.173
2.471	65.156
2.4616	65.279
2.4523	65.303
2.4431	65.275
2.4339	65.101
2.4248	64.568
2.4157	63.901
2.4068	62.953
2.3979	62.125
2.389	61.905
2.3802	62.723
2.3715	63.613
2.3629	63.707
2.3543	63.19
2.3458	62.118
2.3373	61.158
2.3289	60.537
2.3206	60.564
2.3123	60.897
2.3041	61.66
2.2959	62.737
2.2878	64.402
2.2798	65.69
2.2718	66.382
2.2638	66.416
2.2559	66.289
2.2481	66.555
2.2403	67.023
2.2326	67.349
2.225	67.247
2.2173	67.324
2.2098	67.325
2.2023	67.175
2.1948	67.263
2.1874	67.265
2.18	67.185
2.1727	67.386
2.1655	67.176
2.1583	67.191
2.1511	67.133
2.144	67.08
2.1369	66.954
2.1299	66.897
2.1229	66.9
2.116	66.999
2.1091	67.045
2.1023	66.888
2.0955	67.02
2.0887	67.041
2.082	67.034
2.06	66.656
2.028	65.698
1.996	64.944
1.964	63.968
1.932	63.137
1.9	62.557
1.868	62.217
1.836	62.395
1.804	61.068
1.772	60.075
1.74	58.644
1.708	58.296
1.676	56.945
1.644	56.185
1.612	54.073
1.58	53.384
1.548	51.77
1.516	50.092
1.484	48.218
1.452	46.822
1.42	45.174
1.388	42.188
1.356	41.383
1.324	39.473
1.292	37.507
1.26	35.816
1.228	34.291
1.196	32.505
1.164	30.684
1.132	29.142
1.1	28.113
1.068	27.115
1.036	26.26
1.004	25.231
0.972	24.19
0.94	23.208
0.908	22.387
0.876	21.995
0.844	21.671
0.812	21.49
0.795	21.474
0.787	21.054
0.779	21.111
0.771	20.383
0.763	20.549
0.755	20.091
0.747	19.744
0.739	19.507
0.731	19.625
0.723	19.196
0.715	19.221
0.707	19.15
0.699	19.083
0.691	19.007
0.683	19.107
0.675	19.149
0.667	19.062
0.659	19.349
0.651	19.279
0.643	19.219
0.635	19.293
0.627	19.266
0.619	19.565
0.611	19.551
0.603	19.753
0.595	19.654
0.587	19.861
0.579	20.274
0.571	20.117
0.563	20.335
0.555	19.569
0.547	19.708
0.539	19.952
0.531	19.383
0.523	19.334
0.515	19.403
0.507	19.153
0.499	18.771
0.491	18.838
0.483	18.402
0.475	17.89
0.467	17.312
0.459	17.494
0.451	17.219
0.443	16.396
0.435	16.802
0.427	16.352
0.419	15.732
0.411	15.109
0.403	14.85
