Name: Gabbro
Type: rock
Class: Igneous
Subclass: Mafic
Particle Size: Fine
Sample No.: Gabbro_H1
Owner: JHU
Wavelength Range: All
Origin: from Escondido, San Diego County, California, via Ward'sScientific (Cat. No. W-28)
Description: Sample from which the powder was derived is a dark gray medium-grained rock composed of plagioclase, a mafic mineral and minor opaques.Particle size was 0-75 micrometers. Original ASTER Spectral Library name was jhu.becknic.rock.igneous.mafic.fine.gabbro1.spectrum.txt
Measurement: Directional (10 degree) hemispherical reflectance
X Units: Wavelength (micrometers)
Y Units: Reflectance (percent)
wavelength	value
14.011	1.3725
13.715	1.9059
13.43	1.6491
13.158	1.7836
12.896	1.8246
12.644	2.7304
12.402	4.0673
12.169	5.1236
11.945	4.8698
11.729	4.3535
11.52	3.9319
11.319	3.4577
11.125	3.1345
10.937	3.001
10.755	2.9271
10.58	3.1141
10.41	3.2665
10.245	3.1475
10.086	3.0876
9.9313	2.9296
9.7814	2.5985
9.636	2.5083
9.4948	2.4841
9.3577	2.4886
9.2245	2.3351
9.095	2.2764
8.9691	2.3613
8.8467	2.4925
8.7275	2.6353
8.6116	2.407
8.4986	2.2641
8.3886	2.441
8.2814	2.6034
8.1769	2.4891
8.075	2.5284
7.9756	2.7761
7.8786	3.1929
7.784	3.6286
7.6916	4.2468
7.6014	4.8349
7.5133	5.3271
7.4272	5.869
7.343	6.4908
7.2607	7.1002
7.1803	7.6919
7.1016	8.1752
7.0246	8.587
6.9493	9.0072
6.8755	9.3047
6.8034	9.439
6.7327	9.6979
6.6634	9.9789
6.5956	10.308
6.5292	10.469
6.464	10.723
6.4002	10.79
6.3376	10.559
6.2762	10.252
6.216	10.121
6.157	10.107
6.099	10.171
6.0421	10.58
5.9863	11.027
5.9315	11.547
5.8777	12.347
5.8249	13.087
5.773	13.643
5.722	14.057
5.6719	14.227
5.6227	14.539
5.5744	14.904
5.5268	15.232
5.4801	15.365
5.4341	15.682
5.3889	15.805
5.3445	15.996
5.3008	16.437
5.2578	16.985
5.2154	17.697
5.1738	17.944
5.1328	18.23
5.0925	18.568
5.0528	19.015
5.0137	19.552
4.9752	20.119
4.9373	20.628
4.9	21.128
4.8632	21.51
4.827	21.858
4.7913	22.246
4.7561	22.699
4.7215	23.087
4.6873	23.492
4.6536	23.897
4.6205	24.272
4.5877	24.676
4.5555	25.076
4.5237	25.267
4.4923	25.468
4.4614	25.62
4.4309	25.781
4.4008	25.9
4.3711	26.063
4.3418	26.201
4.3129	26.354
4.2844	26.405
4.2563	26.664
4.2285	26.593
4.2011	26.823
4.174	26.911
4.1473	27.067
4.1209	27.08
4.0949	27.111
4.0692	27.174
4.0438	27.215
4.0187	27.23
3.994	27.237
3.9695	27.266
3.9453	27.293
3.9214	27.364
3.8979	27.361
3.8746	27.386
3.8515	27.395
3.8288	27.441
3.8063	27.411
3.7841	27.452
3.7621	27.436
3.7404	27.431
3.7189	27.421
3.6977	27.38
3.6767	27.38
3.656	27.365
3.6355	27.318
3.6152	27.265
3.5951	27.335
3.5753	27.243
3.5557	27.187
3.5363	27.222
3.5171	27.153
3.4981	27.097
3.4793	27.033
3.4607	26.9
3.4423	26.879
3.4241	26.798
3.4061	26.635
3.3883	26.476
3.3707	26.349
3.3533	26.1
3.336	25.957
3.3189	25.77
3.302	25.61
3.2853	25.433
3.2687	25.226
3.2523	24.9
3.2361	24.507
3.22	24.076
3.204	23.644
3.1883	23.239
3.1727	22.846
3.1572	22.503
3.1419	22.254
3.1268	21.894
3.1117	21.655
3.0969	21.414
3.0821	21.151
3.0675	21.103
3.0531	20.979
3.0388	20.998
3.0246	20.827
3.0105	20.768
2.9966	20.557
2.9828	20.37
2.9692	20.204
2.9556	20.045
2.9422	19.996
2.9289	19.979
2.9157	20.004
2.9027	20.035
2.8897	20.11
2.8769	20.327
2.8642	20.53
2.8516	20.579
2.8391	20.824
2.8267	20.832
2.8144	20.954
2.8022	21.224
2.7902	21.291
2.7782	20.55
2.7664	19.414
2.7546	18.624
2.7429	17.355
2.7314	16.612
2.7199	19.037
2.7085	23.96
2.6973	24.855
2.6861	26.345
2.675	27.057
2.664	27.319
2.6531	27.184
2.6423	27.219
2.6315	27.308
2.6209	27.295
2.6103	27.227
2.5999	27.152
2.5895	27.253
2.5792	27.15
2.569	27.239
2.5588	27.159
2.5487	27.176
2.5388	27.201
2.5289	27.224
2.519	27.056
2.5093	27.24
2.4996	27.145
2.49	27.147
2.4805	27.149
2.471	27.128
2.4616	27.187
2.4523	27.093
2.4431	27.172
2.4339	27.193
2.4248	27.033
2.4157	27.041
2.4068	26.845
2.3979	26.934
2.389	26.976
2.3802	27.031
2.3715	27.187
2.3629	27.163
2.3543	27.233
2.3458	27.063
2.3373	26.987
2.3289	26.783
2.3206	26.845
2.3123	26.82
2.3041	26.967
2.2959	26.947
2.2878	27.281
2.2798	27.351
2.2718	27.473
2.2638	27.553
2.2559	27.466
2.2481	27.422
2.2403	27.62
2.2326	27.577
2.225	27.665
2.2173	27.56
2.2098	27.627
2.2023	27.5
2.1948	27.632
2.1874	27.732
2.18	27.549
2.1727	27.601
2.1655	27.634
2.1583	27.693
2.1511	27.63
2.144	27.723
2.1369	27.627
2.1299	27.663
2.1229	27.625
2.116	27.632
2.1091	27.718
2.1023	27.653
2.0955	27.634
2.0887	27.745
2.082	27.713
2.06	27.817
2.028	27.757
1.996	27.608
1.964	26.989
1.932	26.89
1.9	26.881
1.868	26.699
1.836	26.789
1.804	26.893
1.772	26.474
1.74	26.763
1.708	26.617
1.676	26.452
1.644	26.462
1.612	26.087
1.58	26.066
1.548	26.042
1.516	25.734
1.484	25.364
1.452	25.501
1.42	25.373
1.388	24.871
1.356	25.08
1.324	24.438
1.292	24.33
1.26	23.897
1.228	23.559
1.196	23.143
1.164	22.767
1.132	22.624
1.1	22.188
1.068	21.702
1.036	21.158
1.004	21.054
0.972	20.794
0.94	20.712
0.908	21
0.876	21.068
0.844	21.188
0.812	21.373
0.795	21.534
0.787	21.193
0.779	21.318
0.771	21.335
0.763	20.967
0.755	20.912
0.747	20.684
0.739	20.786
0.731	20.521
0.723	20.571
0.715	20.209
0.707	20.32
0.699	20.196
0.691	20.367
0.683	20.151
0.675	20.224
0.667	19.908
0.659	20.125
0.651	20.256
0.643	20.224
0.635	20.044
0.627	20.118
0.619	20.056
0.611	20.037
0.603	20.131
0.595	20.259
0.587	20.316
0.579	20.264
0.571	20.118
0.563	20.231
0.555	19.668
0.547	19.449
0.539	19.361
0.531	19.237
0.523	19.229
0.515	19.023
0.507	18.797
0.499	18.749
0.491	18.454
0.483	18.36
0.475	17.858
0.467	17.777
0.459	17.9
0.451	17.7
0.443	17.393
0.435	17.433
0.427	17.057
0.419	16.603
0.411	16.274
0.403	15.971
