Name: Andesite Porphyry
Type: Rock
Class: Igneous
Subclass: Intermediate
Particle Size: Solid
Sample No.: Ward30
Owner: JPL
Wavelength Range: VSWIR
Origin: Ward's Collection of American Rocks.  Sample locality - Near Ward, Boulder county, Colorado.
Description: A light gray, porphyritic rock with phenocrysts of plagioclaseand hornblende in a fine crystalline groundmass.Geologic age - Tertiary (Eocene).Collected by:  Ward's Natural Science Original ASTER Spectral Library name was jpl.perkin.rock.igneous.intermediate.solid.ward30.spectrum.txt
Measurement: Hemispherical reflectance
X Units: Wavelength (micrometers)
Y Units: Reflectance (percent)
wavelength	value
2.5	16.066
2.494	16.1339
2.488	16.1503
2.482	16.3068
2.476	16.3481
2.47	16.5236
2.464	16.6267
2.458	16.7655
2.452	16.8334
2.446	16.9645
2.44	17.1047
2.434	17.3387
2.428	17.3912
2.422	17.601
2.416	17.7731
2.41	17.9361
2.404	17.9898
2.398	17.9739
2.392	18.0445
2.386	18.0256
2.38	18.043
2.374	17.9363
2.368	17.8128
2.362	17.5793
2.356	17.3522
2.35	17.0564
2.344	16.9719
2.338	17.0568
2.332	17.2962
2.326	17.7115
2.32	18.0513
2.314	18.4162
2.308	18.8167
2.302	19.164
2.296	19.464
2.29	19.6815
2.284	19.9213
2.278	20.0361
2.272	20.0554
2.266	19.9036
2.26	19.7346
2.254	19.6714
2.248	19.8885
2.242	20.0976
2.236	20.4464
2.23	20.6236
2.224	20.6766
2.218	20.5523
2.212	20.2136
2.206	19.9102
2.2	20.0742
2.194	20.2264
2.188	20.6364
2.182	21.0245
2.176	21.3611
2.17	21.6489
2.164	21.8803
2.158	22.1208
2.152	22.408
2.146	22.5941
2.14	22.6788
2.134	22.7731
2.128	22.7145
2.122	22.6786
2.116	22.6002
2.11	22.5767
2.104	22.6228
2.098	22.5613
2.092	22.5516
2.086	22.6744
2.08	22.6807
2.074	22.621
2.068	22.7527
2.062	22.7418
2.056	22.6939
2.05	22.5804
2.044	22.5403
2.038	22.4705
2.032	22.4099
2.026	22.3005
2.02	22.2188
2.014	22.0452
2.008	21.9188
2.002	21.763
1.996	21.6941
1.99	21.5588
1.984	21.384
1.978	21.2518
1.972	21.0793
1.966	21.0065
1.96	20.8464
1.954	20.7802
1.948	20.7487
1.942	20.5694
1.936	20.5046
1.93	20.3796
1.924	20.1753
1.918	20.0425
1.912	20.0162
1.906	20.2015
1.9	20.8522
1.894	21.8548
1.888	22.607
1.882	23.2256
1.876	23.5982
1.87	23.7473
1.864	24.0298
1.858	24.1795
1.852	24.2322
1.846	24.2298
1.84	24.2911
1.834	24.2637
1.828	24.2693
1.822	24.342
1.816	24.4896
1.81	24.4406
1.804	24.492
1.798	24.4752
1.792	24.4511
1.786	24.4551
1.78	24.4015
1.774	24.4382
1.768	24.4049
1.762	24.443
1.756	24.4156
1.75	24.3786
1.744	24.3927
1.738	24.3838
1.732	24.3479
1.726	24.3872
1.72	24.3859
1.714	24.3891
1.708	24.3528
1.702	24.3324
1.696	24.3135
1.69	24.313
1.684	24.2593
1.678	24.1655
1.672	24.2144
1.666	24.2015
1.66	24.1937
1.654	24.265
1.648	24.2643
1.642	24.2366
1.636	24.1729
1.63	24.1546
1.624	24.0393
1.618	24.0824
1.612	23.9874
1.606	24.0193
1.6	23.888
1.594	23.9213
1.588	23.8157
1.582	23.8003
1.576	23.7137
1.57	23.6654
1.564	23.6247
1.558	23.5497
1.552	23.5097
1.546	23.4057
1.54	23.4718
1.534	23.4697
1.528	23.3579
1.522	23.3598
1.516	23.3054
1.51	23.2053
1.504	23.2013
1.498	23.1737
1.492	23.0738
1.486	22.9912
1.48	22.9696
1.474	22.7907
1.468	22.7411
1.462	22.7102
1.456	22.6516
1.45	22.6083
1.444	22.4626
1.438	22.4091
1.432	22.2449
1.426	22.1563
1.42	21.7775
1.414	21.1716
1.408	21.3301
1.402	21.5287
1.396	21.8364
1.39	22.2824
1.384	22.5855
1.378	22.7105
1.372	22.7488
1.366	22.8297
1.36	22.6098
1.354	22.7389
1.348	22.5543
1.342	22.5879
1.336	22.5107
1.33	22.528
1.324	22.508
1.318	22.3839
1.312	22.4098
1.306	22.3684
1.3	22.2795
1.294	22.2097
1.288	22.1691
1.282	22.1707
1.276	22.1383
1.27	22.0702
1.264	22.0286
1.258	21.9798
1.252	21.8869
1.246	21.8884
1.24	21.7526
1.234	21.7608
1.228	21.6764
1.222	21.6435
1.216	21.6038
1.21	21.545
1.204	21.5724
1.198	21.4961
1.192	21.47
1.186	21.4236
1.18	21.4239
1.174	21.2881
1.168	21.3318
1.162	21.3184
1.156	21.2955
1.15	21.2732
1.144	21.2762
1.138	21.2797
1.132	21.3617
1.126	21.2723
1.12	21.2829
1.114	21.3468
1.108	21.304
1.102	21.3242
1.096	21.3901
1.09	21.3372
1.084	21.3843
1.078	21.4474
1.072	21.4364
1.066	21.4983
1.06	21.5278
1.054	21.5007
1.048	21.5146
1.042	21.6241
1.036	21.6735
1.03	21.7462
1.024	21.717
1.018	21.6506
1.012	21.7816
1.006	21.7761
1	21.8018
0.994	21.8325
0.988	21.7452
0.982	21.8087
0.976	21.7573
0.97	21.7403
0.964	21.6272
0.958	21.6697
0.952	21.6219
0.946	21.5791
0.94	21.5841
0.934	21.4691
0.928	21.4713
0.922	21.4378
0.916	21.3894
0.91	21.3415
0.904	21.356
0.898	21.2529
0.892	21.3346
0.886	21.3131
0.88	21.4251
0.874	21.4348
0.868	21.5654
0.862	21.6336
0.856	21.964
0.85	22.0394
0.844	22.1356
0.838	22.2154
0.832	22.2922
0.826	22.3508
0.82	22.4104
0.814	22.443
0.808	22.4638
0.802	22.4416
0.796	22.4197
0.79	22.4137
0.784	22.3597
0.778	22.3078
0.772	22.2638
0.766	22.2285
0.76	22.176
0.754	22.1281
0.748	22.0775
0.742	22.0352
0.736	21.9931
0.73	21.9636
0.724	21.9327
0.718	21.9016
0.712	21.8848
0.706	21.8643
0.7	21.842
0.694	21.8328
0.688	21.8252
0.682	21.8179
0.676	21.8043
0.67	21.806
0.664	21.7938
0.658	21.7814
0.652	21.7671
0.646	21.752
0.64	21.7319
0.634	21.7201
0.628	21.6938
0.622	21.6685
0.616	21.6346
0.61	21.5913
0.604	21.541
0.598	21.4807
0.592	21.4158
0.586	21.3208
0.58	21.2075
0.574	21.0796
0.568	20.9307
0.562	20.7675
0.556	20.566
0.55	20.3607
0.544	20.1416
0.538	19.9089
0.532	19.671
0.526	19.4181
0.52	19.1528
0.514	18.8671
0.508	18.5523
0.502	18.2188
0.496	17.8774
0.49	17.613
0.484	17.2971
0.478	16.9809
0.472	16.7262
0.466	16.5446
0.46	16.3484
0.454	16.1116
0.448	15.9035
0.442	15.6232
0.436	15.2835
0.43	14.9107
0.424	14.5489
0.418	14.217
0.412	13.9268
0.406	13.6811
0.4	13.4592
