Name: Biotite Granite
Type: Rock
Class: Igneous
Subclass: Felsic
Particle Size: Solid
Sample No.: Ward10
Owner: JPL
Wavelength Range: VSWIR
Origin: Ward's Collection of American Rocks.  Sample locality - Woodbury, Washington County, Vermont.
Description: A gray, medium-grained rock consisting of feldspar, quartz,biotite and muscovite.Geologic age - Devonian.Collected by:  Ward's Natural Science Original ASTER Spectral Library name was jpl.perkin.rock.igneous.felsic.solid.ward11.spectrum.txt
Measurement: Hemispherical reflectance
X Units: Wavelength (micrometers)
Y Units: Reflectance (percent)
wavelength	value
2.5	29.8834
2.494	29.9788
2.488	29.9053
2.482	30.1355
2.476	30.1518
2.47	30.4402
2.464	30.423
2.458	30.5094
2.452	30.8653
2.446	30.8534
2.44	31.0755
2.434	31.2844
2.428	31.3624
2.422	31.5341
2.416	31.769
2.41	31.8501
2.404	31.9917
2.398	32.0794
2.392	32.1659
2.386	32.423
2.38	32.6062
2.374	32.7791
2.368	32.8616
2.362	32.917
2.356	32.9225
2.35	32.8807
2.344	32.8981
2.338	33.0736
2.332	33.1723
2.326	33.3594
2.32	33.6828
2.314	33.9617
2.308	34.1758
2.302	34.4543
2.296	34.7372
2.29	34.9728
2.284	35.193
2.278	35.3113
2.272	35.3941
2.266	35.3949
2.26	35.3199
2.254	35.2982
2.248	35.3902
2.242	35.6097
2.236	35.882
2.23	36.0205
2.224	36.0767
2.218	36.1116
2.212	36.1382
2.206	36.1222
2.2	36.2021
2.194	36.1398
2.188	36.2093
2.182	36.3212
2.176	36.3788
2.17	36.4864
2.164	36.585
2.158	36.7185
2.152	36.7096
2.146	36.751
2.14	36.7394
2.134	36.6251
2.128	36.577
2.122	36.4381
2.116	36.2869
2.11	36.1868
2.104	36.0976
2.098	35.9817
2.092	36.0208
2.086	36.023
2.08	36.1319
2.074	36.141
2.068	36.1794
2.062	36.1383
2.056	36.132
2.05	36.082
2.044	36.0922
2.038	36.0412
2.032	35.8138
2.026	35.7823
2.02	35.6748
2.014	35.5186
2.008	35.4005
2.002	35.2727
1.996	35.0055
1.99	34.8253
1.984	34.6407
1.978	34.3729
1.972	34.1796
1.966	33.9488
1.96	33.7317
1.954	33.2623
1.948	33.0158
1.942	32.5814
1.936	32.1435
1.93	31.9539
1.924	31.7361
1.918	31.7764
1.912	32.1392
1.906	32.8161
1.9	33.9078
1.894	34.9682
1.888	35.646
1.882	36.0364
1.876	36.2112
1.87	36.3753
1.864	36.6036
1.858	36.6621
1.852	36.7393
1.846	36.7572
1.84	36.7269
1.834	36.8439
1.828	36.8739
1.822	36.8156
1.816	36.8915
1.81	36.9142
1.804	36.8956
1.798	36.9258
1.792	36.9031
1.786	36.8603
1.78	36.7805
1.774	36.7893
1.768	36.746
1.762	36.7192
1.756	36.7405
1.75	36.7658
1.744	36.7337
1.738	36.7105
1.732	36.7198
1.726	36.7722
1.72	36.7449
1.714	36.7422
1.708	36.7001
1.702	36.7304
1.696	36.7685
1.69	36.7273
1.684	36.7986
1.678	36.7741
1.672	36.7719
1.666	36.7243
1.66	36.748
1.654	36.7606
1.648	36.7607
1.642	36.8609
1.636	36.7252
1.63	36.7424
1.624	36.669
1.618	36.6976
1.612	36.6468
1.606	36.683
1.6	36.5957
1.594	36.6838
1.588	36.5882
1.582	36.6392
1.576	36.5876
1.57	36.5631
1.564	36.5424
1.558	36.4935
1.552	36.4833
1.546	36.447
1.54	36.4341
1.534	36.4351
1.528	36.3467
1.522	36.3866
1.516	36.2693
1.51	36.2491
1.504	36.2463
1.498	36.1094
1.492	36.0858
1.486	36.0185
1.48	35.9334
1.474	35.8021
1.468	35.803
1.462	35.7516
1.456	35.7158
1.45	35.6598
1.444	35.558
1.438	35.4489
1.432	35.3817
1.426	35.3505
1.42	35.3148
1.414	35.2498
1.408	35.3624
1.402	35.4772
1.396	35.6992
1.39	35.797
1.384	35.9347
1.378	35.9401
1.372	35.9799
1.366	36.0687
1.36	36.0136
1.354	36.0944
1.348	36.0071
1.342	36.0239
1.336	36.0354
1.33	36.1356
1.324	36.0313
1.318	36.0034
1.312	36.0734
1.306	36.0452
1.3	36.0282
1.294	36.046
1.288	36.0504
1.282	36.0617
1.276	36.0435
1.27	36.0545
1.264	36.0807
1.258	36.1037
1.252	36.1065
1.246	36.0925
1.24	36.0844
1.234	36.1406
1.228	36.1659
1.222	36.1534
1.216	36.1877
1.21	36.2211
1.204	36.2402
1.198	36.2747
1.192	36.3281
1.186	36.3504
1.18	36.3817
1.174	36.3906
1.168	36.4344
1.162	36.4912
1.156	36.6616
1.15	36.6214
1.144	36.7333
1.138	36.7219
1.132	36.7859
1.126	36.869
1.12	36.9887
1.114	37.0004
1.108	37.1152
1.102	37.1501
1.096	37.1817
1.09	37.2151
1.084	37.3219
1.078	37.332
1.072	37.4744
1.066	37.4475
1.06	37.5514
1.054	37.6279
1.048	37.6415
1.042	37.7226
1.036	37.7796
1.03	37.8083
1.024	37.9058
1.018	37.9434
1.012	37.9444
1.006	37.9943
1	38.0557
0.994	38.0468
0.988	38.0636
0.982	38.144
0.976	38.0694
0.97	38.1467
0.964	38.1067
0.958	38.0947
0.952	38.1622
0.946	38.0776
0.94	38.1048
0.934	38.0639
0.928	38.0924
0.922	38.0072
0.916	37.9532
0.91	37.9798
0.904	37.8633
0.898	37.8401
0.892	37.8219
0.886	37.7917
0.88	37.8587
0.874	37.8497
0.868	37.9025
0.862	37.8118
0.856	37.8825
0.85	37.9016
0.844	37.9256
0.838	37.9995
0.832	38.0319
0.826	37.9912
0.82	38.0009
0.814	37.953
0.808	37.9441
0.802	37.9448
0.796	37.8705
0.79	37.8219
0.784	37.7488
0.778	37.7516
0.772	37.679
0.766	37.6301
0.76	37.5621
0.754	37.5064
0.748	37.4604
0.742	37.3973
0.736	37.3545
0.73	37.3105
0.724	37.2474
0.718	37.1923
0.712	37.1581
0.706	37.1133
0.7	37.0519
0.694	36.991
0.688	36.9285
0.682	36.9216
0.676	36.8747
0.67	36.8456
0.664	36.806
0.658	36.7778
0.652	36.7472
0.646	36.7234
0.64	36.6858
0.634	36.6567
0.628	36.6294
0.622	36.6058
0.616	36.5748
0.61	36.5255
0.604	36.4968
0.598	36.4592
0.592	36.4294
0.586	36.3595
0.58	36.2863
0.574	36.2054
0.568	36.1093
0.562	36.025
0.556	35.8397
0.55	35.7203
0.544	35.5823
0.538	35.4466
0.532	35.3146
0.526	35.2009
0.52	35.0425
0.514	34.8632
0.508	34.6532
0.502	34.418
0.496	34.1651
0.49	33.9008
0.484	33.6104
0.478	33.5572
0.472	33.4454
0.466	33.3202
0.46	33.1726
0.454	32.9837
0.448	32.7675
0.442	32.5417
0.436	32.316
0.43	32.05
0.424	31.7646
0.418	31.517
0.412	31.3151
0.406	31.095
0.4	30.8386
