Name: Dunite (Olivine Peridotite)
Type: Rock
Class: Igneous
Subclass: Ultramafic
Particle Size: Solid
Sample No.: Ward44
Owner: JPL
Wavelength Range: All
Origin: Ward's Collection of American Rocks.  Sample locality - Near Balsam, Jackson County, North Carolina.
Description: A light-green granular rock composed almost entirely ofglassy ollivine with small black grains of chromite and a few largeflakes of muscovite.Geologic age - Pre-Cambrian.Collected by:  Ward's Natural Science Original ASTER Spectral Library name was jpl.nicolet.rock.igneous.ultramafic.solid.ward44.spectrum.txt
Measurement: Hemispherical reflectance
X Units: Wavelength (micrometers)
Y Units: Reflectance (percent)
wavelength	value
15.3871	9.1535
15.118	6.9865
14.8581	5.4278
14.6069	4.4037
14.3642	3.599
14.1293	3.7879
13.9021	3.6248
13.682	4.1228
13.4687	4.6065
13.2621	5.0233
13.0616	5.5651
12.8672	5.9947
12.6784	6.5041
12.4951	7.046
12.317	7.7262
12.1439	9.0526
11.9757	10.4675
11.812	9.7076
11.6527	12.0619
11.4977	17.0301
11.3468	21.9525
11.1997	24.4305
11.0564	26.3643
10.9168	28.7588
10.7806	32.6113
10.6478	35.8919
10.5182	36.0417
10.3917	28.6754
10.2683	27.5693
10.1477	29.5681
10.0299	23.052
9.9148	19.7617
9.8024	17.8202
9.6925	15.2653
9.585	13.4359
9.4798	13.2837
9.377	11.5904
9.2763	7.4518
9.1778	4.6361
9.0814	3.4743
8.987	2.6428
8.8945	2.1282
8.8039	2.1939
8.7151	2.2216
8.6281	2.1447
8.5428	2.1966
8.4592	2.4924
8.3772	2.5731
8.2967	2.6326
8.2179	2.9074
8.1404	2.9558
8.0645	2.9806
7.9899	3.0384
7.9167	3.1704
7.8449	3.2821
7.7743	3.282
7.705	3.4477
7.6369	3.2372
7.57	3.357
7.5043	3.474
7.4397	3.3643
7.3762	3.2774
7.3138	3.3941
7.2524	3.3404
7.1921	3.5443
7.1327	3.7055
7.0743	3.7272
7.0169	3.8652
6.9604	4.0099
6.9047	3.9006
6.85	4.2195
6.7962	4.3929
6.7431	4.927
6.6909	4.9566
6.6395	5.1551
6.5889	5.2848
6.539	5.079
6.49	5.308
6.4416	5.3234
6.3939	5.2487
6.347	5.2981
6.3007	5.1559
6.2551	4.945
6.2101	5.1189
6.1658	4.9672
6.1222	4.8343
6.0791	4.6866
6.0366	4.6578
5.9948	4.57
5.9535	4.4605
5.9127	4.7135
5.8726	4.8132
5.8329	4.8676
5.7938	4.9688
5.7552	5.168
5.7172	5.2482
5.6796	5.231
5.6425	5.3335
5.6059	5.3769
5.5698	5.3685
5.5341	5.6269
5.4989	5.7824
5.4641	5.8857
5.4298	5.8735
5.3959	6.0485
5.3624	6.3206
5.3294	6.3819
5.2967	6.4459
5.2644	6.6472
5.2326	6.5083
5.2011	6.5721
5.17	6.7996
5.1392	6.9086
5.1088	7.1847
5.0788	7.3242
5.0491	7.44
5.0198	7.35
4.9908	7.2847
4.9622	7.3541
4.9338	7.3739
4.9058	7.554
4.8781	8.0846
4.8508	8.4946
4.8237	8.6889
4.7969	8.9304
4.7704	9.1639
4.7443	9.2278
4.7184	9.3808
4.6927	9.6677
4.6674	9.5094
4.6423	9.6396
4.6175	9.8111
4.593	9.8666
4.5687	10.0023
4.5447	10.1682
4.5209	10.2295
4.4974	10.3313
4.4741	10.3293
4.451	10.399
4.4282	10.5991
4.4057	10.6972
4.3833	10.7836
4.3612	10.9323
4.3393	10.8476
4.3176	10.9455
4.2962	11.0357
4.2749	11.1003
4.2539	11.1949
4.233	11.4645
4.2124	11.3627
4.192	11.6259
4.1717	11.5983
4.1517	11.6767
4.1319	11.8212
4.1122	11.8213
4.0927	11.8852
4.0734	11.9074
4.0543	12.0112
4.0354	11.8515
4.0166	11.924
3.9981	11.9114
3.9796	12.0113
3.9614	11.9638
3.9433	12.0899
3.9254	12.1066
3.9077	11.9494
3.8901	11.8358
3.8726	11.9599
3.8554	11.9556
3.8382	11.7266
3.8213	11.601
3.8045	11.619
3.7878	11.6008
3.7713	11.6023
3.7549	11.4043
3.7386	11.3729
3.7225	11.3552
3.7066	11.3319
3.6907	11.0632
3.675	10.852
3.6595	10.8266
3.644	10.5726
3.6287	10.7184
3.6136	10.345
3.5985	10.4345
3.5836	10.4474
3.5688	10.1591
3.5541	10.0612
3.5396	9.8473
3.5251	9.8982
3.5108	9.2722
3.4966	9.1678
3.4825	9.0855
3.4685	8.9277
3.4547	8.7371
3.4409	8.4702
3.4273	8.588
3.4137	8.8453
3.4003	8.8372
3.387	8.61
3.3738	8.7371
3.3606	8.7235
3.3476	8.9478
3.3347	8.8429
3.3219	8.6281
3.3092	8.6195
3.2965	8.6259
3.284	8.798
3.2716	8.2314
3.2593	8.4954
3.247	8.4368
3.2348	8.0491
3.2228	8.306
3.2108	8.1701
3.1989	7.8858
3.1871	7.7892
3.1754	7.8216
3.1638	7.4379
3.1523	7.5355
3.1408	7.1432
3.1294	7.2252
3.1181	7.0304
3.1069	7.4036
3.0958	6.7203
3.0848	6.9443
3.0738	6.6136
3.0629	6.9058
3.0521	6.5202
3.0413	6.9874
3.0307	6.7194
3.0201	6.731
3.0096	6.6138
2.9991	6.6161
2.9887	6.6543
2.9784	6.4564
2.9682	6.6512
2.9581	5.9646
2.948	6.2967
2.9379	6.7743
2.928	6.3458
2.9181	6.4174
2.9083	7.139
2.8985	6.4038
2.8888	6.686
2.8792	6.8363
2.8697	6.8721
2.8602	6.5012
2.8507	7.0618
2.8413	6.7303
2.832	6.9101
2.8228	6.9009
2.8136	6.8417
2.8045	7.0164
2.7954	7.97
2.7864	8.0441
2.7774	7.6762
2.7685	7.6572
2.7597	7.9688
2.7509	8.2024
2.7422	7.2426
2.7335	7.6476
2.7249	7.4673
2.7163	7.3785
2.7078	8.421
2.6994	9.1966
2.691	14.5274
2.6826	17.8456
2.6743	20.4675
2.666	22.0041
2.6578	22.3189
2.6497	23.0873
2.6416	24.5322
2.6336	25.009
2.6256	25.1003
2.6176	24.9495
2.6097	24.9648
2.6018	25.2977
2.594	25.6223
2.5863	24.3177
2.5785	24.2963
2.5709	24.357
2.5633	23.1699
2.5557	23.4702
2.5481	23.3598
2.5406	23.4727
2.5332	23.4434
2.5258	23.3028
2.5184	22.8202
2.5111	22.8102
2.5038	21.9105
2.4966	23.0073
2.4894	23.4737
2.4823	23.547
2.4752	23.9271
2.4681	24.5353
2.4611	25.1526
2.4541	25.3193
2.4471	24.7702
2.4402	24.354
2.4333	24.2188
2.4265	24.8068
2.4197	25.468
2.413	25.7177
2.4063	25.8045
2.3996	26.3852
2.3929	25.7655
2.3863	26.3649
2.3798	26.8045
2.3732	26.1296
2.3667	27.1664
2.3603	27.2643
2.3538	26.2415
2.3474	25.4241
2.3411	22.8748
2.3347	22.6615
2.3285	23.073
2.3222	23.5344
2.316	24.4316
2.3098	25.6569
2.3036	26.4566
2.2975	27.2693
2.2914	27.7751
2.2854	28.3322
2.2793	28.1629
2.2733	28.1053
2.2674	29.4455
2.2614	30.5549
2.2555	31.7308
2.2497	32.2654
2.2438	32.1669
2.238	33.4888
2.2322	35.5628
2.2265	35.8734
2.2208	36.5636
2.2151	37.6741
2.2094	37.7108
2.2038	37.822
2.1982	37.7161
2.1926	38.2245
2.187	37.8077
2.1815	38.4505
2.176	38.2987
2.1706	38.9123
2.1651	38.7964
2.1597	38.4416
2.1543	38.2447
2.149	38.2268
2.1436	36.7446
2.1383	37.5473
2.1331	36.1149
2.1278	36.8255
2.1226	37.2333
2.1174	37.2548
2.1122	37.6802
2.1071	37.1608
2.1019	37.4073
2.0968	37.4131
2.0918	37.9584
2.0867	37.1255
2.0817	37.7972
2.0767	38.934
2.0717	38.141
2.0667	38.7563
2.0618	37.6373
2.0569	36.8395
2.052	37.7593
2.0472	36.7812
2.0423	35.9116
2.0375	35.9753
2.0327	36.1659
2.028	35.2963
2.0232	35.1923
2.0185	35.3561
2.0138	35.1989
2.0091	34.5743
2.0044	34.0723
1.9998	33.1598
