Name: Tonalite (Bonsall Tonalite)
Type: rock
Class: Igneous
Subclass: Intermediate
Particle Size: Fine
Sample No.: Tonalite_H1
Owner: JHU
Wavelength Range: All
Origin: San Diego County, California via Ward's Scientific (Cat. No. W-24)
Description: Sample from which powder was derived is a medium-grained gray rock composed of whitish plagioclase, quartz, biotite, and a black mafic mineral.Particle size was 0-75 micrometers. Original ASTER Spectral Library name was jhu.becknic.rock.igneous.intermediate.fine.tonali1.spectrum.txt
Measurement: Directional (10 degree) hemispherical reflectance
X Units: Wavelength (micrometers)
Y Units: Reflectance (percent)
wavelength	value
14.011	2.2959
13.715	2.8031
13.43	2.6203
13.158	2.174
12.896	1.9577
12.644	1.8492
12.402	2.6161
12.169	4.9774
11.945	5.94
11.729	5.535
11.52	5.2359
11.319	4.7587
11.125	3.7621
10.937	3.1425
10.755	2.8865
10.58	2.6653
10.41	2.4408
10.245	2.3292
10.086	2.4178
9.9313	2.5177
9.7814	2.4956
9.636	2.4413
9.4948	2.4319
9.3577	3.2724
9.2245	3.5993
9.095	3.4308
8.9691	3.2967
8.8467	3.1462
8.7275	2.9414
8.6116	2.5547
8.4986	3.2358
8.3886	3.5433
8.2814	4.2455
8.1769	4.9385
8.075	3.8004
7.9756	2.8844
7.8786	2.1862
7.784	2.0747
7.6916	2.3447
7.6014	2.7206
7.5133	3.3232
7.4272	3.9682
7.343	4.7243
7.2607	5.7363
7.1803	6.762
7.1016	7.7932
7.0246	8.5338
6.9493	9.4455
6.8755	10.1
6.8034	10.443
6.7327	10.419
6.6634	10.915
6.5956	11.16
6.5292	11.565
6.464	13.407
6.4002	13.678
6.3376	12.636
6.2762	11.203
6.216	10.33
6.157	11.429
6.099	13.229
6.0421	13.889
5.9863	13.801
5.9315	13.413
5.8777	15.144
5.8249	16.771
5.773	18.014
5.722	18.847
5.6719	18.836
5.6227	17.228
5.5744	17.093
5.5268	18.584
5.4801	20.694
5.4341	21.576
5.3889	18.537
5.3445	16.504
5.3008	17.61
5.2578	20.354
5.2154	24.594
5.1738	25.827
5.1328	26.147
5.0925	26.447
5.0528	26.191
5.0137	26.512
4.9752	28.545
4.9373	31.884
4.9	35.784
4.8632	39.644
4.827	41.487
4.7913	42.837
4.7561	44.135
4.7215	45.199
4.6873	45.588
4.6536	47.285
4.6205	49.083
4.5877	50.602
4.5555	51.666
4.5237	51.838
4.4923	51.147
4.4614	51.437
4.4309	52.844
4.4008	54.299
4.3711	55.965
4.3418	57.261
4.3129	57.983
4.2844	58.523
4.2563	59.217
4.2285	59.672
4.2011	59.932
4.174	60.492
4.1473	60.928
4.1209	61.346
4.0949	61.806
4.0692	62.086
4.0438	62.254
4.0187	62.286
3.994	62.342
3.9695	62.484
3.9453	62.864
3.9214	63.01
3.8979	62.982
3.8746	62.81
3.8515	62.679
3.8288	62.628
3.8063	62.541
3.7841	62.328
3.7621	62.016
3.7404	61.734
3.7189	61.54
3.6977	61.371
3.6767	61.204
3.656	60.939
3.6355	60.624
3.6152	60.217
3.5951	59.776
3.5753	59.362
3.5557	58.945
3.5363	58.43
3.5171	57.814
3.4981	57.093
3.4793	56.743
3.4607	56.277
3.4423	55.68
3.4241	54.848
3.4061	54.296
3.3883	53.963
3.3707	53.469
3.3533	53.099
3.336	52.664
3.3189	52.122
3.302	51.513
3.2853	50.917
3.2687	50.275
3.2523	49.554
3.2361	48.902
3.22	48.191
3.204	47.478
3.1883	46.806
3.1727	46.148
3.1572	45.402
3.1419	44.642
3.1268	43.889
3.1117	43.223
3.0969	42.503
3.0821	41.828
3.0675	41.253
3.0531	40.682
3.0388	40.072
3.0246	39.484
3.0105	38.81
2.9966	38.176
2.9828	37.541
2.9692	36.973
2.9556	36.609
2.9422	36.352
2.9289	36.332
2.9157	36.298
2.9027	36.354
2.8897	36.233
2.8769	35.746
2.8642	35.252
2.8516	35.682
2.8391	35.637
2.8267	34.633
2.8144	33.631
2.8022	33.59
2.7902	33.028
2.7782	31.781
2.7664	31.607
2.7546	32.106
2.7429	33.273
2.7314	33.698
2.7199	36.446
2.7085	40.859
2.6973	46.748
2.6861	58.317
2.675	64.757
2.664	66.489
2.6531	67.078
2.6423	67.525
2.6315	67.65
2.6209	67.644
2.6103	67.904
2.5999	68.085
2.5895	68.095
2.5792	68.022
2.569	67.984
2.5588	67.952
2.5487	67.877
2.5388	67.809
2.5289	67.727
2.519	67.579
2.5093	67.525
2.4996	67.517
2.49	67.398
2.4805	67.421
2.471	67.25
2.4616	67.157
2.4523	67.234
2.4431	67.124
2.4339	67.029
2.4248	66.698
2.4157	66.264
2.4068	65.93
2.3979	65.583
2.389	65.666
2.3802	65.879
2.3715	65.977
2.3629	65.758
2.3543	65.384
2.3458	64.864
2.3373	64.544
2.3289	64.622
2.3206	64.985
2.3123	65.411
2.3041	65.788
2.2959	66.235
2.2878	66.832
2.2798	67.271
2.2718	67.265
2.2638	67.103
2.2559	66.834
2.2481	66.884
2.2403	67.303
2.2326	67.613
2.225	67.674
2.2173	67.695
2.2098	67.779
2.2023	67.704
2.1948	67.682
2.1874	67.833
2.18	67.851
2.1727	67.897
2.1655	68.023
2.1583	67.88
2.1511	67.938
2.144	67.766
2.1369	67.743
2.1299	67.775
2.1229	67.745
2.116	67.715
2.1091	67.766
2.1023	67.804
2.0955	67.732
2.0887	67.711
2.082	67.737
2.06	67.223
2.028	66.294
1.996	64.562
1.964	63.739
1.932	62.296
1.9	61.017
1.868	61.017
1.836	61.019
1.804	59.404
1.772	58.568
1.74	58.005
1.708	56.549
1.676	55.433
1.644	54.558
1.612	52.843
1.58	51.581
1.548	50.611
1.516	49.298
1.484	47.526
1.452	46.615
1.42	44.896
1.388	43.195
1.356	42.344
1.324	40.884
1.292	40.12
1.26	38.319
1.228	37.316
1.196	35.987
1.164	34.968
1.132	34.507
1.1	33.854
1.068	33.434
1.036	32.669
1.004	32.425
0.972	31.6
0.94	30.906
0.908	30.41
0.876	30.213
0.844	30.014
0.812	29.948
0.795	29.133
0.787	28.421
0.779	28.174
0.771	28.264
0.763	27.834
0.755	27.283
0.747	27.141
0.739	27.177
0.731	27.083
0.723	27.079
0.715	26.696
0.707	26.812
0.699	26.929
0.691	27.507
0.683	27.187
0.675	27.284
0.667	27.259
0.659	27.184
0.651	27.557
0.643	27.382
0.635	27.606
0.627	27.507
0.619	27.757
0.611	27.432
0.603	27.356
0.595	27.456
0.587	27.43
0.579	27.026
0.571	27.207
0.563	27.155
0.555	25.948
0.547	25.706
0.539	25.453
0.531	24.857
0.523	24.725
0.515	24.639
0.507	23.914
0.499	23.583
0.491	23.266
0.483	22.8
0.475	22.197
0.467	21.825
0.459	22.049
0.451	21.608
0.443	21.341
0.435	20.88
0.427	20.306
0.419	19.743
0.411	19.394
0.403	19.109
