Name: Argillaceous Limestone
Type: rock
Class: Sedimentary
Subclass: Limestone
Particle Size: Fine
Sample No.: limestone_6
Owner: JHU
Wavelength Range: All
Origin: Sample No. 359,  The Hunt and Salisbury Collection at the U.S.Geological Survey, Denver, Co.
Description: A fine-grained sample with uniserial and some biserial foraminiferid tests recrystallized to calcite ("globigerinid ooze").  The matrix contains cloudy brown material (clay), carbonate, quartz and a reddish-brown phase (hematite).  There are scattered subrounded grains of quartz present as well.  The reddish material occurs as irregular flecks and discontinuous bands throughout the section. Particle size was 0 - 75 Micrometers. Original ASTER Spectral Library name was jhu.becknic.rock.sedimentary.limestone.fine.limest6.spectrum.txt
Measurement: Directional (10 Degree) Hemispherical Reflectance
X Units: Wavelength (micrometers)
Y Units: Reflectance (percent)
wavelength	value
14.983	9.0509
14.645	9.606
14.321	6.9378
14.011	1.9992
13.715	9.8726
13.43	10.921
13.158	10.13
12.896	6.0734
12.644	5.6511
12.402	5.5306
12.169	11.171
11.945	12.672
11.729	11.675
11.52	6.2522
11.319	2.641
11.125	9.1842
10.937	7.0775
10.756	7.3583
10.58	7.6591
10.41	6.9489
10.245	5.0347
10.086	3.6363
9.9313	2.9633
9.7814	2.6789
9.636	2.6438
9.4948	2.8747
9.3577	3.6678
9.2245	4.2542
9.095	4.1213
8.9691	3.921
8.8467	3.9882
8.7275	4.6563
8.6116	4.8884
8.4986	6.0047
8.3886	8.3163
8.2814	12.106
8.1769	15.731
8.075	16.627
7.9756	17.922
7.8787	17.41
7.784	17.237
7.6916	16.329
7.6014	13.564
7.5133	12.67
7.4272	11.139
7.343	8.6284
7.2607	5.6805
7.1803	3.3895
7.1016	2.8771
7.0246	2.407
6.9493	2.142
6.8755	2.0444
6.8034	2.0594
6.7327	2.1285
6.6634	2.3009
6.5956	2.7025
6.5292	3.2179
6.464	4.1365
6.4002	4.7434
6.3376	3.7059
6.2762	3.1345
6.216	3.1956
6.157	3.3266
6.099	3.8255
6.0421	4.6037
5.9863	5.883
5.9315	6.9958
5.8777	8.4695
5.8249	9.2458
5.773	9.4686
5.722	10.778
5.6719	13.071
5.6227	13.112
5.5744	2.0854
5.5268	12.26
5.4801	21.949
5.4341	26.644
5.3889	27.31
5.3445	26.654
5.3008	29.228
5.2578	33.357
5.2154	38.134
5.1738	39.889
5.1328	40.528
5.0925	39.011
5.0528	40.81
5.0137	41.013
4.9752	42.849
4.9373	45.363
4.9	48.082
4.8632	50.412
4.827	51.348
4.7913	51.803
4.7561	51.413
4.7215	48.111
4.6873	39.973
4.6536	40.729
4.6205	47.805
4.5877	49.894
4.5555	50.393
4.5237	50.485
4.4923	51.014
4.4614	52.742
4.4309	54.382
4.4008	55.436
4.3711	55.986
4.3418	55.388
4.3129	55.369
4.2844	55.07
4.2563	55.053
4.2285	55.303
4.2011	55.029
4.174	54.218
4.1473	52.806
4.1209	50.327
4.0949	47.29
4.0692	42.836
4.0438	33.742
4.0187	20.98
3.994	8.7605
3.9695	7.0124
3.9453	13.248
3.9214	18.639
3.8979	20.189
3.8746	21.005
3.8515	21.933
3.8288	26.892
3.8063	36.636
3.7841	47.459
3.7621	50.042
3.7404	50.659
3.7189	51.044
3.6977	50.835
3.6767	50.332
3.656	49.492
3.6355	48.474
3.6152	47.249
3.5951	45.326
3.5753	41.623
3.5557	40.02
3.5363	34.814
3.5171	22.795
3.4981	17.109
3.4793	13.841
3.4607	20.237
3.4423	21.9
3.4241	21.615
3.4061	21.19
3.3883	20.534
3.3707	19.918
3.3533	17.413
3.336	27.43
3.3189	32.842
3.302	33.778
3.2853	34.006
3.2687	34.006
3.2523	33.909
3.2361	33.606
3.22	33.099
3.2041	32.482
3.1883	31.789
3.1727	31.088
3.1572	30.199
3.1419	29.682
3.1268	29.256
3.1117	28.491
3.0969	28.142
3.0821	27.96
3.0675	27.694
3.0531	27.428
3.0388	27.267
3.0246	27.153
3.0105	27.125
2.9966	27.253
2.9828	27.47
2.9692	27.64
2.9556	27.763
2.9422	28.043
2.9289	28.285
2.9157	28.588
2.9027	28.932
2.8897	29.341
2.8769	29.794
2.8642	30.274
2.8516	30.734
2.8391	31.113
2.8267	31.3
2.8144	31.106
2.8022	30.241
2.7902	28.035
2.7782	24.487
2.7664	21.465
2.7546	20.835
2.7429	23.149
2.7314	27.851
2.7199	36.078
2.7085	44.957
2.6973	52.924
2.6861	63.04
2.675	66.625
2.664	68.352
2.6531	70.535
2.6423	71.412
2.6315	70.97
2.6209	71.238
2.6103	71.59
2.5999	71.486
2.5895	71.307
2.5792	71.421
2.569	71.115
2.5588	69.678
2.5487	66.497
2.5388	63.679
2.5289	64.63
2.519	66.692
2.5093	67.527
2.4996	67.884
2.49	68.279
2.4805	69.093
2.471	70.244
2.4616	71.387
2.4523	72.058
2.4431	72.606
2.4339	73.135
2.4248	73.746
2.4157	74.24
2.4068	74.568
2.3979	74.723
2.389	74.942
2.3802	74.873
2.3715	74.615
2.3629	73.642
2.3543	71.934
2.3458	70.544
2.3373	70.498
2.3289	71.502
2.3206	72.565
2.3123	73.151
2.3041	73.475
2.2959	73.926
2.2878	74.484
2.2798	75.057
2.2718	75.522
2.2638	75.891
2.2559	76.076
2.2481	76.248
2.2403	76.356
2.2326	76.247
2.225	75.981
2.2173	75.769
2.2098	75.572
2.2023	75.825
2.1948	76.157
2.1874	76.534
2.18	76.896
2.1727	77.161
2.1655	77.354
2.1583	77.417
2.1511	77.523
2.144	77.663
2.1369	77.757
2.1299	77.763
2.1229	77.768
2.116	77.766
2.1091	77.772
2.1023	77.865
2.0955	77.876
2.0887	77.986
2.082	78.028
2.06	77.678
2.028	77.136
1.996	74.953
1.964	73.684
1.932	72.164
1.9	74.551
1.868	74.9
1.836	76.609
1.804	76.786
1.772	76.215
1.74	76.087
1.708	75.733
1.676	75.695
1.644	75.428
1.612	74.849
1.58	75.34
1.548	75.063
1.516	74.254
1.484	73.39
1.452	73.079
1.42	72.037
1.388	72.131
1.356	71.765
1.324	71.7
1.292	71.434
1.26	70.592
1.228	70.592
1.196	69.788
1.164	68.376
1.132	68.149
1.1	67.292
1.068	66.734
1.036	65.596
1.004	64.489
0.972	63.307
0.94	62.466
0.908	61.482
0.876	60.731
0.844	60.156
0.812	59.629
0.795	58.867
0.787	58.298
0.779	58.111
0.771	57.578
0.763	57.188
0.755	56.608
0.747	56.609
0.739	56.022
0.731	55.502
0.723	54.712
0.715	54.337
0.707	54.043
0.699	54.722
0.691	53.174
0.683	52.824
0.675	52.122
0.667	51.863
0.659	51.159
0.651	50.69
0.643	50.253
0.635	49.648
0.627	49.082
0.619	48.606
0.611	47.768
0.603	47.227
0.595	46.871
0.587	46.219
0.579	45.792
0.571	45.065
0.563	44.051
0.555	42.525
0.547	42.221
0.539	41.826
0.531	41.189
0.523	40.027
0.515	39.002
0.507	38.512
0.499	37.726
0.491	36.901
0.483	36.113
0.475	35.292
0.467	34.647
0.459	34.021
0.451	33.076
0.443	32.369
0.435	31.523
0.427	30.876
0.419	30.082
0.411	29.366
0.403	28.237
