Name: Basalt
Type: Rock
Class: Igneous
Subclass: Mafic
Particle Size: Solid
Sample No.: Me69
Owner: Lawrence Rowan, USGS Reston
Wavelength Range: All
Origin: Ghassul, Jordan
Description: Vesicular Basalt, grinder fragmentSample was Whole rock chips. Original ASTER Spectral Library name was usgs.perknic.rock.igneous.mafic.solid.me69.spectrum.txt
Measurement: Directional Hemispherical Reflectance
X Units: Wavelength (micrometers)
Y Units: Reflectance (percent)
wavelength	value
14.051	3.193
13.826	3.3681
13.609	3.4299
13.398	3.1724
13.193	3.4917
12.995	3.3063
12.802	3.4917
12.616	3.6359
12.434	3.9346
12.258	4.3672
12.086	4.841
11.92	5.2633
11.757	5.6753
11.6	6.4272
11.446	7.2512
11.297	8.0546
11.151	8.2915
11.009	8.7035
10.87	9.2082
10.735	9.4348
10.604	9.785
10.475	9.8262
10.35	10.4751
10.227	10.9695
10.108	11.2682
9.991	12.0716
9.877	12.566
9.765	13.4621
9.656	13.7402
9.549	13.5239
9.445	12.7617
9.343	11.3815
9.243	10.0013
9.145	9.2391
9.049	8.9713
8.956	8.5078
8.864	7.8589
8.774	7.2924
8.686	6.7259
8.599	6.2624
8.515	5.7268
8.431	5.4075
8.35	5.0779
8.27	4.2436
8.192	3.6256
8.115	3.2857
8.039	3.0694
7.965	3.2033
7.893	3.0797
7.821	3.1312
7.751	3.3372
7.682	3.3269
7.614	3.4299
7.548	3.3887
7.483	3.5535
7.418	3.5741
7.355	3.6668
7.293	3.7492
7.232	3.7904
7.172	3.9449
7.113	3.9346
7.055	3.9964
6.998	4.0788
6.942	4.2127
6.886	4.1303
6.832	4.3157
6.778	4.3157
6.726	4.3466
6.674	4.3466
6.623	4.5011
6.572	4.5114
6.523	4.532
6.474	4.5526
6.426	4.3672
6.378	4.2848
6.332	4.1406
6.286	4.0479
6.24	3.9449
6.195	3.7595
6.151	3.5123
6.108	3.5226
6.065	3.4711
6.023	3.4814
5.981	3.7698
5.94	3.8728
5.899	3.9964
5.859	4.3775
5.82	4.5217
5.781	4.532
5.743	4.635
5.705	4.738
5.667	4.7586
5.63	4.7895
5.594	4.7998
5.558	4.8719
5.523	4.9749
5.487	5.0573
5.453	5.1912
5.419	5.2942
5.385	5.1912
5.352	5.3972
5.319	5.3663
5.286	5.5002
5.254	5.5002
5.222	5.6444
5.191	5.665
5.16	5.7268
5.129	5.6753
5.099	5.7371
5.069	5.8195
5.04	5.8504
5.01	5.7783
4.981	5.8504
4.953	5.9328
4.925	5.8916
4.897	6.0049
4.869	5.9431
4.842	6.0461
4.815	6.0461
4.788	6.1491
4.762	6.18
4.736	6.1491
4.71	6.1388
4.684	6.2727
4.659	6.2521
4.634	6.3139
4.61	6.3345
4.585	6.4169
4.561	6.4787
4.537	6.489
4.513	6.4375
4.49	6.4993
4.467	6.592
4.444	6.5817
4.421	6.695
4.398	6.7362
4.376	6.6332
4.354	6.6744
4.332	6.6538
4.311	6.8392
4.289	6.8083
4.268	6.7671
4.247	6.7053
4.226	6.8289
4.206	6.7774
4.185	6.8495
4.165	6.7671
4.145	6.8598
4.126	6.8083
4.106	6.7259
4.086	6.7568
4.067	6.6435
4.048	6.695
4.029	6.6435
4.011	6.6641
3.992	6.6332
3.974	6.5302
3.956	6.6435
3.938	6.4787
3.92	6.4272
3.902	6.6023
3.884	6.4581
3.867	6.4169
3.85	6.4581
3.833	6.3757
3.816	6.592
3.799	6.386
3.782	6.6641
3.766	6.5611
3.75	6.4684
3.733	6.6023
3.717	6.4478
3.702	6.3345
3.686	6.3963
3.67	6.3036
3.655	6.2418
3.639	6.2727
3.624	6.3139
3.609	6.283
3.594	6.1079
3.579	6.0873
3.564	5.9328
3.549	6.0976
3.535	5.9534
3.521	5.9122
3.506	5.8092
3.492	5.768
3.478	5.6856
3.464	5.7062
3.45	5.7474
3.437	5.6753
3.423	5.4796
3.409	5.5105
3.396	5.3972
3.383	5.459
3.37	5.3766
3.357	5.4178
3.344	5.2324
3.331	5.356
3.318	5.1397
3.305	5.3972
3.293	4.9234
3.28	5.1912
3.268	5.0264
3.255	4.9852
3.243	4.8513
3.231	4.9131
3.219	4.7277
3.207	4.8307
3.195	4.6556
3.183	4.7792
3.172	4.6041
3.16	4.6453
3.149	4.5629
3.137	4.2333
3.126	4.5217
3.115	4.3569
3.103	4.3569
3.092	4.1406
3.081	4.3775
3.07	4.1509
3.06	4.3672
3.049	4.0685
3.038	4.017
3.027	4.12
3.017	4.1509
3.006	3.9655
2.996	4.1303
2.986	4.2024
2.975	4.2024
2.965	3.914
2.955	3.8831
2.945	3.7801
2.935	4.2333
2.925	4.2539
2.915	4.1097
2.905	4.1818
2.896	4.223
2.886	3.9243
2.876	3.9861
2.867	3.8934
2.857	4.1303
2.848	4.2333
2.838	4.1715
2.829	4.2539
2.82	4.0067
2.811	3.9655
2.802	4.2333
2.793	4.0273
2.784	3.8831
2.775	4.2024
2.766	4.3157
2.757	4.4908
2.748	4.5835
2.74	4.9337
2.731	5.3045
2.722	5.3766
2.714	5.3869
2.705	6.3757
2.697	6.0976
2.688	6.4169
2.68	6.9216
2.672	6.9113
2.664	7.1585
2.655	7.1173
2.647	7.1173
2.639	6.9113
2.631	7.1173
2.623	7.1688
2.615	7.2203
2.607	7.107
2.599	6.9113
2.592	7.0967
2.584	7.004
2.576	7.1379
2.569	6.8289
2.561	7.1894
2.553	7.6529
2.546	7.2306
2.538	7.1585
2.531	6.4478
2.524	7.0555
2.516	7.2203
2.509	6.9937
2.502	6.9834
2.48	7.1835
2.456	7.463
2.432	7.1611
2.408	7.5477
2.384	8.0422
2.36	7.3283
2.336	7.5067
2.312	7.4043
2.288	7.663
2.264	7.5495
2.24	7.4457
2.216	7.5251
2.192	7.8451
2.168	7.8441
2.144	7.8389
2.12	7.8107
2.096	7.7987
2.072	7.8185
2.048	7.8689
2.024	7.9294
2	7.9565
1.976	7.9785
1.952	8.0276
1.928	7.8385
1.904	7.6375
1.88	7.9436
1.856	7.9895
1.832	8.0075
1.808	8.0293
1.784	8.1521
1.76	8.0946
1.736	8.1576
1.712	8.1442
1.688	8.1207
1.664	8.2696
1.64	8.2349
1.616	8.2126
1.592	8.2669
1.568	8.205
1.544	8.2674
1.52	8.2354
1.496	8.2145
1.472	8.2286
1.448	8.17
1.424	8.1788
1.4	8.1148
1.376	8.1169
1.352	8.0732
1.328	8.1634
1.304	8.188
1.28	8.1995
1.256	8.2194
1.232	8.2361
1.208	8.1711
1.184	8.0936
1.16	8.1579
1.136	8.1637
1.112	8.12
1.088	8.1304
1.064	8.0823
1.04	8.1369
1.016	8.1733
0.992	8.1712
0.968	8.1924
0.944	8.2453
0.92	8.6274
0.896	8.7276
0.872	8.8601
0.848	8.3864
0.824	9.3318
0.8	9.4934
0.776	9.4704
0.752	9.5211
0.728	9.5366
0.704	9.4909
0.68	9.4426
0.656	9.3694
0.632	9.3355
0.608	9.3167
0.584	9.2407
0.56	9.108
0.536	8.8082
0.512	8.453
0.488	8.0937
0.464	8.0067
0.44	7.8154
0.416	7.5336
