Name: Rhyolite
Type: Rock
Class: Igneous
Subclass: Felsic
Particle Size: Solid
Sample No.: AP-961-149
Owner: United States Geological Survey, L. C. Rowan
Wavelength Range: All
Origin: Iberian Pyrite Belt, Spain
Description: Rhyolite, slightly alteredSample was Whole Rock Chips. Original ASTER Spectral Library name was usgs.perknic.rock.igneous.felsic.solid.rhy149.spectrum.txt
Measurement: Directional Hemispherical Reflectance
X Units: Wavelength (micrometers)
Y Units: Reflectance (percent)
wavelength	value
14.051	3.5741
13.79	3.605
13.538	3.4402
13.295	3.4505
13.06	4.2642
12.834	4.1715
12.616	3.8625
12.404	3.605
12.2	2.4514
12.002	2.9767
11.811	3.4505
11.626	3.811
11.446	4.1097
11.272	4.4702
11.103	4.6144
10.939	4.9749
10.78	5.0676
10.625	5.4899
10.475	6.0255
10.329	6.8701
10.187	8.446
10.049	10.2382
9.914	12.0613
9.783	10.6811
9.656	13.7711
9.532	13.6269
9.411	13.1531
9.293	14.9659
9.178	14.8217
9.065	13.2767
8.956	12.9986
8.849	13.8123
8.744	14.1522
8.642	13.2458
8.543	14.7702
8.445	15.7693
8.35	16.6654
8.257	15.8929
8.166	13.8844
8.077	8.8168
7.99	5.4384
7.905	3.2136
7.821	2.1424
7.739	1.751
7.659	1.4523
7.581	1.2051
7.504	1.1433
7.429	1.0197
7.355	1.0712
7.283	1.03
7.212	1.1742
7.143	1.1536
7.074	1.3596
7.007	1.2875
6.942	1.2875
6.877	1.339
6.814	1.4008
6.752	1.442
6.691	1.4935
6.631	1.5244
6.572	1.6377
6.514	1.6377
6.458	1.7613
6.402	1.8746
6.347	1.8128
6.293	1.7407
6.24	1.6377
6.188	1.6171
6.137	1.7304
6.086	1.9261
6.037	1.9261
5.988	1.8952
5.94	1.9673
5.893	2.0703
5.846	2.1218
5.8	2.2145
5.755	2.3175
5.711	2.369
5.667	2.4411
5.624	2.3484
5.582	2.3278
5.54	2.4617
5.499	2.5647
5.459	2.8119
5.419	2.8222
5.379	2.6368
5.341	2.5544
5.302	2.6677
5.265	2.7707
5.227	3.0591
5.191	3.2651
5.155	3.3475
5.119	3.4299
5.084	3.4402
5.049	3.4814
5.015	3.5329
4.981	3.5844
4.948	4.0994
4.915	4.3878
4.883	4.9955
4.851	5.5929
4.819	5.9843
4.788	5.9431
4.758	6.1388
4.727	6.4581
4.697	6.7568
4.668	6.901
4.638	7.313
4.61	7.9516
4.581	8.3018
4.553	8.6108
4.525	8.7344
4.498	8.549
4.47	8.6314
4.444	9.0331
4.417	9.5069
4.391	10.094
4.365	10.6605
4.34	11.2682
4.314	11.639
4.289	11.7729
4.265	11.9274
4.24	12.3291
4.216	12.6587
4.192	12.7926
4.169	13.0089
4.145	13.2767
4.122	13.4003
4.099	13.5342
4.077	13.699
4.055	13.8123
4.032	13.802
4.011	13.7196
3.989	13.8123
3.968	13.7917
3.947	13.905
3.926	14.0904
3.905	14.1007
3.884	14.0801
3.864	13.9977
3.844	13.8741
3.824	13.905
3.805	14.008
3.785	13.8535
3.766	13.6578
3.747	13.5754
3.728	13.493
3.709	13.3385
3.691	13.1531
3.673	13.1943
3.655	13.0604
3.637	12.9368
3.619	12.6175
3.601	12.4321
3.584	12.1025
3.567	11.9789
3.549	11.7729
3.533	11.4948
3.516	11.33
3.499	11.1961
3.483	10.8047
3.466	10.712
3.45	10.5678
3.434	10.3206
3.418	9.9498
3.403	10.0322
3.387	9.6923
3.372	9.5172
3.357	9.4348
3.341	9.27
3.326	9.1464
3.312	8.858
3.297	8.7756
3.282	8.5902
3.268	8.4975
3.253	8.3327
3.239	8.137
3.225	7.9207
3.211	7.7971
3.197	7.5911
3.183	7.4572
3.17	7.2924
3.156	7.1482
3.143	7.0452
3.13	7.0555
3.117	6.7671
3.103	6.7774
3.091	6.8392
3.078	6.6229
3.065	6.4066
3.052	6.6332
3.04	6.5199
3.027	6.283
3.015	6.5199
3.003	6.5199
2.991	6.3448
2.979	6.386
2.967	6.5199
2.955	6.3036
2.943	6.3757
2.932	6.3242
2.92	6.5199
2.909	6.4684
2.897	6.8495
2.886	6.8186
2.875	6.8083
2.864	6.8392
2.853	6.8598
2.842	7.1791
2.831	7.1276
2.82	7.1585
2.809	7.3439
2.799	7.3542
2.788	7.5087
2.778	7.5087
2.767	7.416
2.757	6.9113
2.747	7.7765
2.737	8.0649
2.727	8.4975
2.717	9.4142
2.707	8.9404
2.697	10.8768
2.687	16.2019
2.677	19.4361
2.668	22.0626
2.658	23.381
2.649	24.8848
2.639	25.2453
2.63	25.9766
2.62	26.3268
2.611	26.9654
2.602	27.5525
2.593	27.9233
2.584	28.2632
2.575	28.7576
2.566	28.8297
2.557	28.7679
2.548	29.561
2.54	29.2623
2.531	29.9318
2.522	30.1584
2.514	30.3747
2.505	30.6219
2.489	30.8189
2.461	31.7189
2.433	33.4189
2.405	35.2189
2.377	35.8189
2.349	36.0189
2.321	37.1189
2.293	37.6189
2.265	40.6189
2.237	42.2189
2.209	42.2189
2.181	43.1189
2.153	45.5189
2.125	48.2189
2.097	49.5189
2.069	49.2189
2.041	48.5189
2.013	47.0189
1.985	44.8189
1.957	43.7189
1.929	42.6189
1.901	43.8189
1.873	50.5189
1.845	52.3189
1.817	52.3189
1.789	51.8189
1.761	52.1189
1.733	51.5189
1.705	50.9189
1.677	50.3189
1.649	49.6189
1.621	49.5189
1.593	48.7189
1.565	47.6189
1.537	47.2189
1.509	45.9189
1.481	45.3189
1.453	44.3189
1.425	42.7189
1.397	41.3189
1.369	43.8189
1.341	43.2189
1.313	42.1189
1.285	41.3189
1.257	40.1189
1.229	38.9189
1.201	38.2189
1.173	37.6189
1.145	36.3189
1.117	35.2189
1.089	34.9189
1.061	34.9189
1.033	33.9189
1.005	34.0189
0.977	33.4189
0.949	33.2189
0.921	32.7189
0.893	32.3189
0.865	32.8189
0.837	33.4189
0.809	34.0189
0.799	34.5189
0.792	34.5189
0.785	34.2189
0.778	34.5189
0.771	34.5189
0.764	34.3189
0.757	34.1189
0.75	33.1189
0.743	33.6189
0.736	33.2189
0.729	33.4189
0.722	32.6189
0.715	32.6189
0.708	32.0189
0.701	32.0189
0.694	32.1189
0.687	31.6189
0.68	31.8189
0.673	31.9189
0.666	31.8189
0.659	31.6189
0.652	31.6189
0.645	32.0189
0.638	31.2189
0.631	31.3189
0.624	31.3189
0.617	31.9189
0.61	31.5189
0.603	31.5189
0.596	30.5189
0.589	30.4189
0.582	30.3189
0.575	29.9189
0.568	29.1189
0.561	28.1189
0.554	26.6189
0.547	25.7189
0.54	24.3189
0.533	22.9189
0.526	21.0189
0.519	20.0189
0.512	18.7189
0.505	17.2189
0.498	15.9189
0.491	14.7189
0.484	14.3189
0.477	13.7189
0.47	13.7189
0.463	13.3189
0.456	12.7189
0.449	12.5189
0.442	11.4189
0.435	10.0189
0.428	9.2189
0.421	8.2189
0.414	7.7189
0.407	7.5189
