Name: Greywacke Sandstone
Type: rock
Class: Sedimentary
Subclass: Sandstone
Particle Size: Coarse
Sample No.: greywacke_1
Owner: JHU
Wavelength Range: All
Origin: Sample No. 454, The Hunt and Salisbury Collection at the U.S.Geological Survey, Denver, Co.
Description: Sample is a clean, medium fine-grained graywacke; no lithoclasts are present. Sample is compacted, with concomitant pressure solution effects in quartz grains (some bent plagioclase as well). Biotite and irregular masses of actinolite occur primarily between grain sutures of the tectosilicates. Sodic plagioclase, microcline occur in small amounts; scattered opaques are abundant. Particle size was 500 - 1500 Micrometers. Original ASTER Spectral Library name was jhu.becknic.rock.sedimentary.sandstone.coarse.graywa1.spectrum.txt
Measurement: Directional (10 degree) Hemispherical Reflectance
X Units: Wavelength (micrometers)
Y Units: Reflectance (percent)
wavelength	value
14.0112	2.5122
13.7147	2.7237
13.3957	3.147
13.1244	3.4398
12.8639	4.6959
12.6135	3.8186
12.3727	2.8789
12.1409	2.1184
11.9176	2.6151
11.7024	3.0062
11.4948	3.4041
11.2944	3.8073
11.101	4.1829
10.914	4.6205
10.7332	5.1211
10.5584	5.6405
10.3891	6.1551
10.2251	6.8504
10.0663	7.9348
9.9123	9.0313
9.763	9.3477
9.6181	9.6947
9.4774	10.786
9.3408	15.1656
9.2081	15.9159
9.0791	15.6374
8.9536	15.6534
8.8316	15.5044
8.7129	14.6579
8.5973	12.4801
8.4847	15.5802
8.375	15.5338
8.2682	15.205
8.164	13.1694
8.0624	8.0706
7.9634	4.7593
7.8667	2.712
7.7723	1.9387
7.6802	1.4872
7.5903	1.258
7.5024	1.1638
7.4165	1.1087
7.3326	1.1314
7.2506	1.1477
7.1703	1.2044
7.0919	1.2786
7.0151	1.297
6.94	1.3455
6.8664	1.3877
6.7944	1.3956
6.7239	1.4184
6.6549	1.4861
6.5872	1.47
6.5209	1.5032
6.456	1.5897
6.3923	1.5628
6.3299	1.5195
6.2686	1.4901
6.2086	1.4554
6.1496	1.5739
6.0918	1.639
6.0351	1.6939
5.9794	1.7133
5.9247	1.7313
5.8711	1.8136
5.8184	1.8938
5.7666	2.0103
5.7157	2.0639
5.6657	2.0518
5.6166	1.9624
5.5684	1.9653
5.5209	2.0789
5.4743	2.1813
5.4284	2.2129
5.3833	2.1097
5.339	2.0863
5.2954	2.1179
5.2524	2.2012
5.2102	2.3981
5.1686	2.49
5.1277	2.5112
5.0875	2.5189
5.0479	2.528
5.0088	2.5325
4.9704	2.6582
4.9326	2.889
4.8953	3.3972
4.8586	4.0664
4.8225	4.5509
4.7868	4.9622
4.7517	5.3726
4.7172	5.7465
4.6831	5.7263
4.6495	6.4824
4.6163	7.2949
4.5837	8.0098
4.5515	8.3709
4.5197	7.9955
4.4884	7.3026
4.4576	7.4594
4.4271	8.268
4.3971	9.2693
4.3674	10.5773
4.3382	11.6616
4.3094	12.1184
4.2809	12.4686
4.2528	13.1663
4.2251	13.3948
4.1977	13.6382
4.1707	14.2071
4.144	14.6698
4.1177	15.2003
4.0917	15.7216
4.066	16.0874
4.0406	16.1001
4.0156	15.9647
3.9909	15.8639
3.9665	16.0965
3.9423	16.588
3.9185	16.7897
3.8949	16.709
3.8717	16.4994
3.8487	16.3563
3.8259	16.4059
3.8035	16.4877
3.7813	16.3489
3.7594	16.1164
3.7377	15.8932
3.7162	15.8716
3.695	15.9819
3.6741	16.0749
3.6534	15.9453
3.6329	15.7089
3.6127	15.3668
3.5926	15.0041
3.5728	14.6306
3.5532	14.1881
3.5338	13.9023
3.5147	13.5733
3.4957	13.2823
3.477	12.9993
3.4584	12.8
3.44	12.461
3.4219	12.2007
3.4039	11.8418
3.3861	11.5159
3.3685	11.1453
3.3511	10.7883
3.3339	10.4897
3.3168	10.2052
3.2999	9.8117
3.2832	9.4458
3.2666	9.0652
3.2503	8.7494
3.234	8.3752
3.218	8.0221
3.2021	7.6357
3.1863	7.192
3.1707	6.8169
3.1553	6.4276
3.14	6.0286
3.1249	5.7034
3.1099	5.467
3.095	5.2029
3.0803	4.9186
3.0657	4.7368
3.0513	4.5657
3.037	4.4274
3.0228	4.2662
3.0088	4.1889
2.9949	4.0611
2.9811	3.9932
2.9675	3.9509
2.9539	3.9343
2.9405	3.8762
2.9272	3.8786
2.9141	3.8808
2.901	3.976
2.8881	4.0209
2.8753	4.0525
2.8626	4.0958
2.85	4.0941
2.8375	4.02
2.8252	3.9814
2.8129	3.9265
2.8007	3.9217
2.7887	4.0236
2.7767	4.2214
2.7649	4.3275
2.7531	4.3923
2.7415	4.6129
2.7299	4.9546
2.7185	5.8845
2.7071	7.0368
2.6959	9.4885
2.6847	14.8349
2.6736	18.1926
2.6626	19.0013
2.6517	19.4385
2.6409	19.8256
2.6302	20.0617
2.6196	20.2457
2.609	20.3964
2.5986	20.5228
2.5882	20.5965
2.5779	20.7477
2.5677	20.8173
2.5575	20.996
2.5475	21.1487
2.5375	21.2767
2.5276	21.4791
2.5178	21.5868
2.5081	21.6978
2.4984	21.8422
2.4888	21.9581
2.4793	22.2935
2.4698	22.5784
2.4604	22.9407
2.4511	23.169
2.4419	23.4291
2.4327	23.5415
2.4236	23.4716
2.4146	23.2659
2.4056	23.0125
2.3967	22.7673
2.3879	22.2829
2.3791	21.7657
2.3704	20.7689
2.3618	19.7866
2.3532	19.1841
2.3447	19.1834
2.3363	19.7682
2.3279	20.6464
2.3195	21.5157
2.3113	22.2141
2.303	22.9902
2.2949	23.6807
2.2868	24.0185
2.2787	23.7898
2.2708	22.8744
2.2628	21.5145
2.255	20.7771
2.2471	22.2177
2.2394	25.0098
2.2317	26.9585
2.224	27.8897
2.2164	28.3532
2.2088	28.619
2.2013	29.0188
2.1939	29.3784
2.1865	29.7007
2.1791	29.8875
2.1718	30.0959
2.1646	30.1473
2.1574	30.2053
2.1502	30.1663
2.1431	30.2629
2.136	30.1691
2.129	30.232
2.122	30.0713
2.1151	30.1349
2.1082	30.2239
2.1014	30.2426
2.0946	30.2501
2.0879	30.2201
2.0812	30.3
2.056	29.5362
2.024	28.4247
1.992	27.1716
1.96	27.4226
1.928	27.1503
1.896	27.0461
1.864	26.9338
1.832	26.4987
1.8	26.3825
1.768	25.6564
1.736	24.874
1.704	23.9834
1.672	23.3033
1.64	22.0759
1.608	21.316
1.576	20.282
1.544	19.4755
1.512	19.0512
1.48	18.0065
1.448	16.9447
1.416	16.0266
1.384	14.4063
1.352	14.9768
1.32	14.0947
1.288	12.7656
1.256	12.2139
1.224	11.2536
1.192	10.5597
1.16	9.9544
1.128	9.4371
1.096	9.3948
1.064	9.4055
1.032	9.3104
1	9.5095
0.968	9.537
0.936	9.0461
0.904	8.6287
0.872	8.6054
0.84	8.9946
0.808	9.1535
0.794	8.9186
0.786	8.9482
0.778	9.1291
0.77	9.0924
0.762	8.8831
0.754	9.2484
0.746	9.0777
0.738	9.0097
0.73	9.0145
0.722	8.9813
0.714	8.8507
0.706	8.9656
0.698	8.8432
0.69	9.0687
0.682	9.0687
0.674	8.6796
0.666	9.068
0.658	9.4844
0.65	9.1729
0.642	9.0648
0.634	9.2749
0.626	9.1336
0.618	9.2407
0.61	9.1864
0.602	9.2706
0.594	9.2972
0.586	9.3427
0.578	9.5253
0.57	9.132
0.562	9.4774
0.554	8.9908
0.546	9.0315
0.538	9.0782
0.53	8.7169
0.522	8.6136
0.514	8.6322
0.506	8.7482
0.498	8.6198
0.49	8.6198
0.482	8.4169
0.474	8.2036
0.466	7.939
0.458	7.9031
0.45	7.6548
0.442	7.4798
0.434	7.1516
0.426	6.9805
0.418	6.7067
0.41	6.2494
0.402	6.094
