Name: Phyllite
Type: Rock
Class: Metamorphic
Subclass: Phyllite
Particle Size: Solid
Sample No.: Ward85
Owner: JPL
Wavelength Range: VSWIR
Origin: Ward's Collection of American Rocks.  Sample locality - Woodbridge, Connecticut.  Collected by - JPL.
Description: A fine-grained, gray, lustrous schistose rock.Collected by:  Ward's Natural Science Original ASTER Spectral Library name was jpl.perkin.rock.metamorphic.schist.solid.ward85.spectrum.txt
Measurement: Hemispherical reflectance
X Units: Wavelength (micrometers)
Y Units: Reflectance (percent)
wavelength	value
2.5	15.5298
2.494	15.5228
2.488	15.6353
2.482	15.6807
2.476	15.826
2.47	16.0913
2.464	16.2701
2.458	16.3956
2.452	16.4695
2.446	16.5976
2.44	16.7292
2.434	16.9035
2.428	17.0501
2.422	17.1135
2.416	17.183
2.41	17.1894
2.404	17.2748
2.398	17.1521
2.392	17.1367
2.386	16.8491
2.38	16.4461
2.374	15.9574
2.368	15.3501
2.362	14.7898
2.356	14.4285
2.35	14.1975
2.344	14.1475
2.338	14.3216
2.332	14.7221
2.326	15.1277
2.32	15.68
2.314	16.1284
2.308	16.6783
2.302	17.2594
2.296	17.7269
2.29	18.1995
2.284	18.4425
2.278	18.4167
2.272	18.1017
2.266	17.5383
2.26	16.9466
2.254	16.7383
2.248	17.2888
2.242	18.3083
2.236	19.3802
2.23	19.7185
2.224	19.3304
2.218	19.0786
2.212	19.3366
2.206	20.1739
2.2	21.3986
2.194	22.9253
2.188	24.4946
2.182	25.9012
2.176	26.8136
2.17	27.4648
2.164	27.8094
2.158	28.1004
2.152	28.2876
2.146	28.2908
2.14	28.3467
2.134	28.1997
2.128	28.0697
2.122	27.9955
2.116	28.047
2.11	28.2128
2.104	28.3819
2.098	28.6834
2.092	28.8619
2.086	28.9851
2.08	29.0478
2.074	28.9118
2.068	28.8392
2.062	28.7404
2.056	28.5182
2.05	28.2291
2.044	27.8849
2.038	27.5061
2.032	27.0221
2.026	26.5299
2.02	26.0787
2.014	25.8312
2.008	25.6104
2.002	25.4529
1.996	25.4143
1.99	25.5512
1.984	25.722
1.978	25.973
1.972	26.0905
1.966	26.1524
1.96	26.1433
1.954	26.105
1.948	26.2729
1.942	26.3671
1.936	26.4921
1.93	26.5355
1.924	26.4277
1.918	26.4517
1.912	26.4091
1.906	26.442
1.9	26.512
1.894	26.4863
1.888	26.7337
1.882	26.7346
1.876	26.908
1.87	26.9775
1.864	27.1841
1.858	27.1691
1.852	27.227
1.846	27.3212
1.84	27.2911
1.834	27.3289
1.828	27.3779
1.822	27.2625
1.816	27.1866
1.81	27.1288
1.804	27.0649
1.798	26.9797
1.792	26.8753
1.786	26.7624
1.78	26.5797
1.774	26.4395
1.768	26.3466
1.762	26.1633
1.756	25.9845
1.75	25.8946
1.744	25.7417
1.738	25.5927
1.732	25.458
1.726	25.2541
1.72	25.0839
1.714	24.9932
1.708	24.742
1.702	24.5884
1.696	24.3872
1.69	24.2047
1.684	23.9506
1.678	23.7942
1.672	23.7125
1.666	23.4577
1.66	23.3084
1.654	23.0619
1.648	22.9005
1.642	22.8063
1.636	22.3974
1.63	22.3142
1.624	22.1183
1.618	21.8395
1.612	21.6764
1.606	21.4843
1.6	21.3138
1.594	21.1726
1.588	20.8362
1.582	20.7076
1.576	20.4851
1.57	20.3142
1.564	20.1577
1.558	20.0301
1.552	19.8496
1.546	19.7427
1.54	19.6363
1.534	19.4583
1.528	19.3921
1.522	19.2523
1.516	19.1416
1.51	19.057
1.504	18.9132
1.498	18.8069
1.492	18.6272
1.486	18.5116
1.48	18.3214
1.474	18.2553
1.468	18.084
1.462	17.9024
1.456	17.7048
1.45	17.5578
1.444	17.432
1.438	17.2605
1.432	17.1217
1.426	16.8284
1.42	16.2383
1.414	15.5562
1.408	15.4696
1.402	15.7027
1.396	16.1802
1.39	16.5252
1.384	16.5327
1.378	16.3908
1.372	16.2259
1.366	16.1602
1.36	15.9805
1.354	15.9209
1.348	15.7251
1.342	15.5741
1.336	15.5529
1.33	15.353
1.324	15.1964
1.318	15.061
1.312	14.9954
1.306	14.8103
1.3	14.7317
1.294	14.5582
1.288	14.5346
1.282	14.3804
1.276	14.2306
1.27	14.1555
1.264	14.0109
1.258	13.858
1.252	13.8396
1.246	13.7411
1.24	13.5879
1.234	13.4982
1.228	13.43
1.222	13.363
1.216	13.2511
1.21	13.2061
1.204	13.0612
1.198	13.035
1.192	13.0005
1.186	12.9343
1.18	12.8249
1.174	12.772
1.168	12.7445
1.162	12.7417
1.156	12.6334
1.15	12.6301
1.144	12.5995
1.138	12.5444
1.132	12.5323
1.126	12.5151
1.12	12.4474
1.114	12.4384
1.108	12.5155
1.102	12.4497
1.096	12.4226
1.09	12.493
1.084	12.5311
1.078	12.3689
1.072	12.5071
1.066	12.4351
1.06	12.4764
1.054	12.5053
1.048	12.4401
1.042	12.4818
1.036	12.5485
1.03	12.5497
1.024	12.494
1.018	12.5463
1.012	12.4811
1.006	12.5004
1	12.468
0.994	12.4713
0.988	12.4355
0.982	12.4188
0.976	12.3364
0.97	12.2829
0.964	12.2404
0.958	12.1851
0.952	12.1255
0.946	12.081
0.94	12.067
0.934	12.003
0.928	11.952
0.922	11.8601
0.916	11.9234
0.91	11.9179
0.904	11.8882
0.898	11.8119
0.892	11.7635
0.886	11.8861
0.88	11.8572
0.874	11.8038
0.868	11.9269
0.862	11.9631
0.856	12.7146
0.85	12.755
0.844	12.8022
0.838	12.83
0.832	12.8815
0.826	12.9032
0.82	12.9097
0.814	12.93
0.808	12.9333
0.802	12.9342
0.796	12.8881
0.79	12.8502
0.784	12.8176
0.778	12.7604
0.772	12.6929
0.766	12.6207
0.76	12.5601
0.754	12.4955
0.748	12.4242
0.742	12.3726
0.736	12.32
0.73	12.2666
0.724	12.2352
0.718	12.199
0.712	12.1737
0.706	12.1579
0.7	12.1443
0.694	12.1422
0.688	12.1473
0.682	12.1565
0.676	12.1693
0.67	12.1821
0.664	12.2015
0.658	12.2209
0.652	12.2386
0.646	12.2593
0.64	12.2777
0.634	12.3018
0.628	12.3253
0.622	12.3433
0.616	12.3703
0.61	12.3968
0.604	12.4254
0.598	12.463
0.592	12.5102
0.586	12.5511
0.58	12.5936
0.574	12.6379
0.568	12.6828
0.562	12.7202
0.556	12.7559
0.55	12.7847
0.544	12.8088
0.538	12.8335
0.532	12.8513
0.526	12.8534
0.52	12.8321
0.514	12.7818
0.508	12.7267
0.502	12.679
0.496	12.6106
0.49	12.5651
0.484	12.4653
0.478	12.3495
0.472	12.2418
0.466	12.1231
0.46	11.9996
0.454	11.8612
0.448	11.7407
0.442	11.6222
0.436	11.4779
0.43	11.3166
0.424	11.1651
0.418	11.0321
0.412	10.9202
0.406	10.8278
0.4	10.7447
