Name: Gray Slate
Type: rock
Class: Metamorphic
Subclass: Slate
Particle Size: Fine
Sample No.: slate1
Owner: JHU
Wavelength Range: All
Origin: Sample No. 307, The Hunt and Salisbury Collection at the U.S.Geological Survey, Denver, Co.
Description: This is a light gray somewhat banded rock.  It is fine-grained to microcrystalline and consists of carbonate, quartz, some feldspar and clay.  Abundant carbonaceous granules are scattered in discontinuous bands throughout the section.Particle size was 0-75 Micrometer. Original ASTER Spectral Library name was jhu.becknic.rock.metamorphic.slate.fine.slate1.spectrum.txt
Measurement: Directional (10 Degree) Hemispherical Reflectance
X Units: Wavelength (micrometers)
Y Units: Reflectance (percent)
wavelength	value
14.983	1.1692
14.645	2.237
14.321	1.7856
14.011	2.8811
13.715	2.9789
13.43	2.8487
13.158	2.8636
12.896	2.5403
12.644	2.0807
12.402	1.5857
12.169	2.5647
11.945	3.5023
11.729	4.7512
11.52	5.1477
11.319	4.8083
11.125	4.0102
10.937	3.5051
10.755	3.7026
10.58	3.4724
10.41	3.053
10.245	2.6234
10.086	2.6073
9.9313	2.6163
9.7814	2.6725
9.636	3.1004
9.4948	3.1989
9.3577	4.0581
9.2245	4.3295
9.095	4.4081
8.9691	4.3153
8.8467	4.0777
8.7275	3.8343
8.6116	3.2872
8.4986	3.8509
8.3886	3.7739
8.2814	4.31
8.1769	5.99
8.075	5.892
7.9756	5.7572
7.8786	5.3665
7.784	5.6099
7.6916	6.6356
7.6014	7.0441
7.5133	7.6984
7.4272	7.8182
7.343	7.3688
7.2607	6.5572
7.1803	6.0589
7.1016	6.2391
7.0246	6.0514
6.9493	5.8896
6.8755	6.157
6.8034	6.4781
6.7327	6.8331
6.6634	7.7143
6.5956	8.7011
6.5292	10.125
6.464	13.047
6.4002	13.911
6.3376	12.616
6.2762	10.823
6.216	9.555
6.157	10.959
6.099	13.133
6.0421	13.526
5.9863	13.395
5.9315	12.722
5.8777	14.49
5.8249	16.433
5.773	17.497
5.722	18.09
5.6719	17.724
5.6227	15.637
5.5744	13.352
5.5268	15.927
5.4801	18.626
5.4341	19.674
5.3889	16.286
5.3445	13.658
5.3008	14.705
5.2578	17.749
5.2154	22.241
5.1738	23.67
5.1328	23.848
5.0925	23.73
5.0528	22.932
5.0137	22.786
4.9752	24.648
4.9373	27.917
4.9	31.326
4.8632	34.866
4.827	36.527
4.7913	37.246
4.7561	38.348
4.7215	39.44
4.6873	39.661
4.6536	40.723
4.6205	42.262
4.5877	43.403
4.5555	44.079
4.5237	44.084
4.4923	43.604
4.4614	43.875
4.4309	44.869
4.4008	45.792
4.3711	46.77
4.3418	47.404
4.3129	47.735
4.2844	47.892
4.2563	48.258
4.2285	48.388
4.2011	48.577
4.174	48.768
4.1473	48.94
4.1209	49.049
4.0949	49.064
4.0692	48.787
4.0438	47.636
4.0187	44.646
3.994	40.828
3.9695	38.722
3.9453	42.196
3.9214	44.757
3.8979	45.495
3.8746	45.876
3.8515	46.271
3.8288	46.898
3.8063	48.046
3.7841	49.053
3.7621	49.222
3.7404	49.117
3.7189	48.986
3.6977	48.874
3.6767	48.699
3.656	48.516
3.6355	48.169
3.6152	47.738
3.5951	47.155
3.5753	46.34
3.5557	45.398
3.5363	44.477
3.5171	43.101
3.4981	41.726
3.4793	40.489
3.4607	41.362
3.4423	41.652
3.4241	41.216
3.4061	40.562
3.3883	39.745
3.3707	38.877
3.3533	37.645
3.336	37.958
3.3189	37.906
3.302	37.506
3.2853	37.031
3.2687	36.638
3.2523	36.269
3.2361	35.744
3.22	34.869
3.204	33.868
3.1883	32.757
3.1727	31.596
3.1572	30.256
3.1419	28.863
3.1268	27.302
3.1117	25.601
3.0969	23.855
3.0821	22.195
3.0675	20.643
3.0531	19.268
3.0388	18.076
3.0246	17.095
3.0105	16.183
2.9966	15.368
2.9828	14.601
2.9692	13.84
2.9556	13.128
2.9422	12.588
2.9289	12.321
2.9157	12.47
2.9027	12.965
2.8897	13.553
2.8769	13.878
2.8642	13.84
2.8516	13.467
2.8391	12.674
2.8267	11.834
2.8144	11.028
2.8022	10.487
2.7902	9.8998
2.7782	8.2859
2.7664	7.5956
2.7546	8.8394
2.7429	12.363
2.7314	20.253
2.7199	32.227
2.7085	42.925
2.6973	46.808
2.6861	49.336
2.675	50.27
2.664	51.05
2.6531	52.311
2.6423	52.71
2.6315	52.221
2.6209	52.249
2.6103	52.486
2.5999	52.488
2.5895	52.556
2.5792	52.894
2.569	53.104
2.5588	53.252
2.5487	53.408
2.5388	53.469
2.5289	53.508
2.519	53.601
2.5093	53.654
2.4996	53.696
2.49	53.664
2.4805	53.654
2.471	53.59
2.4616	53.566
2.4523	53.547
2.4431	53.582
2.4339	53.663
2.4248	53.857
2.4157	54.044
2.4068	54.161
2.3979	54.194
2.389	54.083
2.3802	53.836
2.3715	53.421
2.3629	52.875
2.3543	52.431
2.3458	52.439
2.3373	52.851
2.3289	53.416
2.3206	53.997
2.3123	54.527
2.3041	54.915
2.2959	55.186
2.2878	55.328
2.2798	55.261
2.2718	55.018
2.2638	54.56
2.2559	54.158
2.2481	54.218
2.2403	54.256
2.2326	53.663
2.225	52.923
2.2173	53.271
2.2098	54.233
2.2023	55.161
2.1948	55.751
2.1874	56.2
2.18	56.477
2.1727	56.58
2.1655	56.565
2.1583	56.722
2.1511	56.64
2.144	56.655
2.1369	56.667
2.1299	56.588
2.1229	56.649
2.116	56.635
2.1091	56.739
2.1023	56.717
2.0955	56.876
2.0887	56.873
2.082	57.014
2.06	56.699
2.028	56.235
1.996	55.638
1.964	55.373
1.932	55.121
1.9	55.599
1.868	55.405
1.836	55.879
1.804	55.414
1.772	54.793
1.74	54.975
1.708	55.244
1.676	54.971
1.644	54.658
1.612	54.148
1.58	54.11
1.548	53.539
1.516	53.19
1.484	52.505
1.452	52.814
1.42	51.821
1.388	50.879
1.356	51.703
1.324	51.082
1.292	50.01
1.26	50.173
1.228	48.789
1.196	48.116
1.164	47.118
1.132	46.68
1.1	46.424
1.068	45.69
1.036	45.604
1.004	45.444
0.972	44.89
0.94	44.353
0.908	43.934
0.876	43.281
0.844	43.018
0.812	43.175
0.795	42.732
0.787	42.561
0.779	42.707
0.771	42.435
0.763	42.324
0.755	42.203
0.747	41.96
0.739	41.717
0.731	41.721
0.723	41.772
0.715	41.453
0.707	41.526
0.699	42.055
0.691	42.097
0.683	41.596
0.675	42.01
0.667	41.947
0.659	42.077
0.651	42.021
0.643	42.101
0.635	41.659
0.627	41.484
0.619	42.116
0.611	41.875
0.603	41.875
0.595	41.495
0.587	41.766
0.579	41.766
0.571	41.927
0.563	42.067
0.555	42.109
0.547	42.071
0.539	42.49
0.531	41.404
0.523	41.594
0.515	41.369
0.507	41.308
0.499	40.493
0.491	40.333
0.483	39.447
0.475	38.731
0.467	37.625
0.459	38.173
0.451	37.347
0.443	36.252
0.435	35.711
0.427	34.388
0.419	33.112
0.411	31.698
0.403	30.443
