Name: Norite
Type: rock
Class: Igneous
Subclass: Mafic
Particle Size: Fine
Sample No.: Norite_H1
Owner: JHU
Wavelength Range: All
Origin: from Wollaston Twp., Ontario, Canada, via Ward's Scientific (Cat.No. W-125)
Description: Sample from which powder was derived is a dark green to black, coarse-grained rock composed of gray 0.5 to 1.0 cm plagioclase laths, opaque areas of about the same size in a dark green groundmass.Particle size was 0-75 micrometers. Original ASTER Spectral Library name was jhu.becknic.rock.igneous.mafic.fine.norite1.spectrum.txt
Measurement: Directional (10 degree) hemispherical reflectance
X Units: Wavelength (micrometers)
Y Units: Reflectance (percent)
wavelength	value
14.011	0
13.715	2.9147
13.43	1.7587
13.158	0.6657
12.896	1.2977
12.644	2.0478
12.402	3.1348
12.169	4.4226
11.945	4.4545
11.729	3.7406
11.52	3.4714
11.319	3.0787
11.125	2.4684
10.937	2.2613
10.755	2.2498
10.58	2.2683
10.41	2.2999
10.245	2.3025
10.086	2.2592
9.9313	2.1878
9.7814	2.0078
9.636	1.9584
9.4948	1.7974
9.3577	1.7789
9.2245	1.7395
9.095	1.6257
8.9691	1.6727
8.8467	1.7475
8.7275	1.8921
8.6116	1.9786
8.4986	2.0039
8.3886	2.2509
8.2814	2.6078
8.1769	2.4971
8.075	2.3096
7.9756	2.4202
7.8786	2.7382
7.784	3.2892
7.6916	3.9595
7.6014	4.7477
7.5133	5.4977
7.4272	6.2062
7.343	7.0188
7.2607	7.8618
7.1803	8.6676
7.1016	9.3888
7.0246	9.9724
6.9493	10.577
6.8755	11.036
6.8034	11.414
6.7327	11.751
6.6634	12.201
6.5956	12.539
6.5292	12.796
6.464	13.165
6.4002	13.184
6.3376	12.893
6.2762	12.51
6.216	12.285
6.157	12.444
6.099	12.912
6.0421	13.13
5.9863	13.497
5.9315	13.784
5.8777	14.59
5.8249	15.398
5.773	16.119
5.722	16.588
5.6719	16.914
5.6227	17.164
5.5744	17.677
5.5268	18.439
5.4801	19.122
5.4341	19.752
5.3889	19.755
5.3445	19.701
5.3008	20.463
5.2578	21.513
5.2154	22.813
5.1738	23.674
5.1328	24.374
5.0925	25.099
5.0528	25.789
5.0137	26.492
4.9752	27.361
4.9373	28.331
4.9	29.359
4.8632	30.279
4.827	30.999
4.7913	31.655
4.7561	32.294
4.7215	32.98
4.6873	33.596
4.6536	34.334
4.6205	35.097
4.5877	35.761
4.5555	36.392
4.5237	36.785
4.4923	37.033
4.4614	37.263
4.4309	37.653
4.4008	38.093
4.3711	38.522
4.3418	38.86
4.3129	39.075
4.2844	39.215
4.2563	39.573
4.2285	39.49
4.2011	39.817
4.174	39.994
4.1473	40.07
4.1209	40.143
4.0949	40.142
4.0692	40.218
4.0438	40.258
4.0187	40.23
3.994	40.208
3.9695	40.247
3.9453	40.268
3.9214	40.258
3.8979	40.256
3.8746	40.19
3.8515	40.151
3.8288	40.116
3.8063	40.012
3.7841	39.923
3.7621	39.807
3.7404	39.685
3.7189	39.583
3.6977	39.442
3.6767	39.253
3.656	39.14
3.6355	38.946
3.6152	38.785
3.5951	38.606
3.5753	38.41
3.5557	38.224
3.5363	38.016
3.5171	37.749
3.4981	37.494
3.4793	37.264
3.4607	36.978
3.4423	36.772
3.4241	36.453
3.4061	36.004
3.3883	35.804
3.3707	35.498
3.3533	35.135
3.336	34.814
3.3189	34.498
3.302	34.253
3.2853	33.874
3.2687	33.524
3.2523	33.112
3.2361	32.574
3.22	32.157
3.204	31.65
3.1883	31.125
3.1727	30.596
3.1572	30.184
3.1419	29.774
3.1268	29.411
3.1117	29.101
3.0969	28.782
3.0821	28.515
3.0675	28.259
3.0531	28.069
3.0388	27.723
3.0246	27.404
3.0105	26.85
2.9966	26.322
2.9828	25.927
2.9692	25.631
2.9556	25.537
2.9422	25.588
2.9289	25.597
2.9157	25.663
2.9027	25.555
2.8897	25.475
2.8769	25.071
2.8642	24.831
2.8516	25.455
2.8391	25.932
2.8267	26.008
2.8144	26.022
2.8022	26.048
2.7902	25.813
2.7782	22.121
2.7664	18.983
2.7546	17.701
2.7429	18.761
2.7314	20.435
2.7199	22.532
2.7085	25.04
2.6973	28.075
2.6861	33.09
2.675	35.011
2.664	35.376
2.6531	35.656
2.6423	35.785
2.6315	35.701
2.6209	35.576
2.6103	35.721
2.5999	35.735
2.5895	35.654
2.5792	35.604
2.569	35.557
2.5588	35.533
2.5487	35.514
2.5388	35.539
2.5289	35.454
2.519	35.325
2.5093	35.361
2.4996	35.346
2.49	35.274
2.4805	35.289
2.471	35.223
2.4616	35.243
2.4523	35.183
2.4431	35.144
2.4339	35.088
2.4248	34.871
2.4157	34.785
2.4068	34.611
2.3979	34.56
2.389	34.402
2.3802	34.556
2.3715	34.505
2.3629	34.504
2.3543	34.228
2.3458	34.112
2.3373	33.976
2.3289	33.84
2.3206	33.848
2.3123	33.891
2.3041	33.933
2.2959	33.98
2.2878	34.261
2.2798	34.62
2.2718	34.625
2.2638	34.557
2.2559	34.569
2.2481	34.522
2.2403	34.469
2.2326	34.453
2.225	34.5
2.2173	34.444
2.2098	34.412
2.2023	34.357
2.1948	34.367
2.1874	34.397
2.18	34.362
2.1727	34.399
2.1655	34.26
2.1583	34.404
2.1511	34.312
2.144	34.304
2.1369	34.305
2.1299	34.307
2.1229	34.293
2.116	34.297
2.1091	34.252
2.1023	34.24
2.0955	34.307
2.0887	34.161
2.082	34.145
2.06	34.741
2.028	33.789
1.996	33.308
1.964	32.768
1.932	32.552
1.9	32.581
1.868	32.763
1.836	32.469
1.804	32.183
1.772	31.954
1.74	31.782
1.708	31.507
1.676	31.565
1.644	31.189
1.612	31.099
1.58	29.956
1.548	29.92
1.516	28.97
1.484	28.102
1.452	27.78
1.42	26.657
1.388	24.653
1.356	24.335
1.324	23.675
1.292	22.151
1.26	20.778
1.228	19.135
1.196	17.762
1.164	16.489
1.132	15.523
1.1	14.268
1.068	13.507
1.036	12.418
1.004	11.883
0.972	11.173
0.94	10.474
0.908	9.9676
0.876	9.4164
0.844	9.3557
0.812	9.6354
0.795	9.6184
0.787	9.4673
0.779	9.3995
0.771	9.1321
0.763	9.1437
0.755	8.8025
0.747	8.3848
0.739	8.2885
0.731	8.3153
0.723	7.9718
0.715	7.7113
0.707	7.7246
0.699	7.5894
0.691	7.4362
0.683	7.3212
0.675	7.3883
0.667	7.3712
0.659	7.289
0.651	7.5088
0.643	7.3876
0.635	7.5042
0.627	7.5738
0.619	7.5088
0.611	7.6912
0.603	7.5787
0.595	7.6905
0.587	7.8462
0.579	7.9048
0.571	7.973
0.563	8.2816
0.555	7.7492
0.547	7.7151
0.539	7.7229
0.531	7.597
0.523	7.6886
0.515	7.7763
0.507	7.4521
0.499	7.1091
0.491	7.0116
0.483	7.1126
0.475	6.5128
0.467	6.2351
0.459	6.2597
0.451	5.8507
0.443	5.5354
0.435	5.4721
0.427	4.7864
0.419	4.2332
0.411	3.7138
0.403	3.3985
