Name: Fossiliferous Limestone
Type: rock
Class: Sedimentary
Subclass: Limestone
Particle Size: Coarse
Sample No.: limestone_1
Owner: JHU
Wavelength Range: All
Origin: Sample No. 355,  from the Hunt and Salisbury Collection atthe U.S. Geological Survey, Denver, Co.
Description: Sample consists of a homogeneous microcrystalline carbonate matrix, with scattered flecks of reddish brown material and abundant fossils (primarily small bivalves) with recrystallized calcite. Some bivalves still show laminar structure. Very minor quartz was also noted in this section.Particle size was 500 - 1500 Micrometers. Original ASTER Spectral Library name was jhu.becknic.rock.sedimentary.limestone.coarse.limest1.spectrum.txt
Measurement: Directional (10 Degree) Hemispherical Reflectance
X Units: Wavelength (micrometers)
Y Units: Reflectance (percent)
wavelength	value
14.0112	1.7906
13.7147	2.3985
13.4304	2.868
13.1577	2.9878
12.8959	2.8003
12.6443	2.8783
12.4023	3.035
12.1694	3.2371
11.945	3.3183
11.7289	3.4326
11.5203	4.454
11.3191	6.7428
11.1248	7.434
10.937	5.4728
10.7555	4.8059
10.5799	4.5151
10.4099	4.1042
10.2454	3.5377
10.0859	3.2922
9.9313	3.2149
9.7814	3.2275
9.636	3.3505
9.4948	3.6393
9.3577	3.8559
9.2245	4.0834
9.095	4.3502
8.9691	4.4351
8.8467	4.6409
8.7275	5.0668
8.6116	4.9156
8.4986	5.4209
8.3886	6.0053
8.2814	6.9274
8.1769	7.4747
8.075	7.2954
7.9756	7.6513
7.8786	7.4873
7.784	7.5492
7.6916	7.4687
7.6014	6.9222
7.5133	6.9993
7.4272	6.9105
7.343	6.4698
7.2607	5.6073
7.1803	5.6068
7.1016	7.1792
7.0246	7.5223
6.9493	7.4131
6.8755	7.761
6.8034	8.2879
6.7327	8.9707
6.6634	10.1715
6.5956	12.248
6.5292	14.3332
6.464	15.4077
6.4002	11.6516
6.3376	6.749
6.2762	4.578
6.216	3.6011
6.157	2.8421
6.099	2.4469
6.0421	2.2364
5.9863	2.2971
5.9315	2.2407
5.8777	2.2274
5.8249	2.0643
5.773	1.9042
5.722	1.9521
5.6719	2.0949
5.6227	2.1043
5.5744	1.3203
5.5268	2.094
5.4801	3.2396
5.4341	4.2875
5.3889	5.2849
5.3445	6.0561
5.3008	7.2217
5.2578	8.5343
5.2154	10.0653
5.1738	11.0421
5.1328	11.6234
5.0925	9.1614
5.0528	12.6338
5.0137	12.672
4.9752	12.8943
4.9373	13.2232
4.9	13.7618
4.8632	14.3148
4.827	14.6225
4.7913	14.6435
4.7561	13.6343
4.7215	10.3878
4.6873	6.3496
4.6536	6.4616
4.6205	9.6626
4.5877	11.2678
4.5555	11.6689
4.5237	11.8832
4.4923	12.5196
4.4614	14.5014
4.4309	16.3599
4.4008	17.5157
4.3711	17.8928
4.3418	16.6619
4.3129	16.3365
4.2844	15.1289
4.2563	15.0409
4.2285	15.8787
4.2011	15.7838
4.174	14.8821
4.1473	13.5552
4.1209	11.6002
4.0949	9.7622
4.0692	7.8237
4.0438	5.6946
4.0187	4.0495
3.994	2.9946
3.9695	2.6598
3.9453	3.1785
3.9214	3.7527
3.8979	3.9906
3.8746	4.0478
3.8515	4.1927
3.8288	4.7584
3.8063	6.3607
3.7841	11.1015
3.7621	13.5738
3.7404	14.6828
3.7189	15.7333
3.6977	16.0565
3.6767	15.9755
3.656	15.4619
3.6355	14.8536
3.6152	13.9599
3.5951	12.4389
3.5753	9.7983
3.5557	9.1165
3.5363	7.1447
3.5171	4.866
3.4981	4.1901
3.4793	3.7894
3.4607	4.4842
3.4423	4.7662
3.4241	4.8084
3.4061	4.8193
3.3883	4.6772
3.3707	4.6507
3.3533	4.3078
3.336	5.791
3.3189	7.6818
3.302	8.4218
3.2853	8.7958
3.2687	9.0192
3.2523	9.0624
3.2361	8.8992
3.22	8.7297
3.204	8.5767
3.1883	8.4269
3.1727	8.1678
3.1572	7.6775
3.1419	7.5689
3.1268	7.4735
3.1117	7.2368
3.0969	7.1457
3.0821	7.2229
3.0675	7.26
3.0531	7.2413
3.0388	7.2794
3.0246	7.3332
3.0105	7.2445
2.9966	7.2237
2.9828	7.2368
2.9692	7.2299
2.9556	7.2091
2.9422	7.1985
2.9289	7.221
2.9157	7.2856
2.9027	7.4086
2.8897	7.5622
2.8769	7.7429
2.8642	7.8627
2.8516	8.0321
2.8391	8.2012
2.8267	8.146
2.8144	8.2113
2.8022	8.2479
2.7902	7.9522
2.7782	7.8833
2.7664	7.8618
2.7546	8.3479
2.7429	9.7718
2.7314	12.0382
2.7199	16.3143
2.7085	21.7485
2.6973	27.4857
2.6861	33.1551
2.675	36.4546
2.664	38.8618
2.6531	40.4015
2.6423	41.5123
2.6315	41.9109
2.6209	42.2805
2.6103	42.3725
2.5999	42.0787
2.5895	41.0261
2.5792	39.6258
2.569	37.6638
2.5588	33.2611
2.5487	26.4054
2.5388	22.0636
2.5289	22.9445
2.519	26.0116
2.5093	27.6799
2.4996	28.3608
2.49	29.2334
2.4805	30.9451
2.471	33.8217
2.4616	37.0067
2.4523	39.4614
2.4431	41.2283
2.4339	42.9962
2.4248	44.6136
2.4157	45.8823
2.4068	46.5657
2.3979	46.7401
2.389	47.2275
2.3802	46.6482
2.3715	44.9971
2.3629	41.5554
2.3543	36.3341
2.3458	32.7489
2.3373	32.0937
2.3289	33.9186
2.3206	36.273
2.3123	37.7563
2.3041	38.6654
2.2959	39.7792
2.2878	41.2104
2.2798	43.1496
2.2718	45.2129
2.2638	46.729
2.2559	47.8058
2.2481	48.8844
2.2403	49.6803
2.2326	50.2467
2.225	50.4565
2.2173	50.8548
2.2098	51.3943
2.2023	51.9039
2.1948	52.46
2.1874	52.8977
2.18	53.0735
2.1727	53.0838
2.1655	52.9261
2.1583	52.7234
2.1511	52.7854
2.144	53.279
2.1369	53.837
2.1299	54.0712
2.1229	54.1901
2.116	54.3008
2.1091	54.3813
2.1023	54.5138
2.0955	54.3984
2.0887	54.5526
2.082	54.6009
2.06	54.0253
2.028	53.4672
1.996	50.6557
1.964	49.2088
1.932	48.3099
1.9	49.0722
1.868	53.8492
1.836	56.2869
1.804	56.8149
1.772	56.9226
1.74	56.48
1.708	56.4237
1.676	56.4552
1.644	56.2152
1.612	56.2066
1.58	56.2232
1.548	55.0358
1.516	54.3095
1.484	53.4809
1.452	52.1628
1.42	51.3081
1.388	51.9898
1.356	52.1939
1.324	51.9145
1.292	51.0348
1.26	50.3064
1.228	49.0392
1.196	48.3885
1.164	47.2257
1.132	46.2545
1.1	45.2094
1.068	44.2611
1.036	43.5085
1.004	42.9707
0.972	42.3673
0.94	42.1614
0.908	41.5547
0.876	41.3993
0.844	41.0433
0.812	41.1377
0.795	41.5957
0.787	41.2664
0.779	41.359
0.771	41.0571
0.763	41.0104
0.755	40.7789
0.747	40.6074
0.739	40.4533
0.731	40.0409
0.723	39.6669
0.715	39.6362
0.707	39.4072
0.699	39.2248
0.691	38.6664
0.683	38.93
0.675	38.5851
0.667	38.3083
0.659	37.6704
0.651	37.8417
0.643	37.3309
0.635	36.9477
0.627	36.7471
0.619	36.3541
0.611	36.0717
0.603	35.8085
0.595	35.3346
0.587	35.2584
0.579	34.5843
0.571	33.9217
0.563	33.3101
0.555	32.2967
0.547	31.9543
0.539	30.9388
0.531	29.7923
0.523	28.9601
0.515	28.2095
0.507	27.2327
0.499	26.5496
0.491	25.9148
0.483	25.1376
0.475	24.6238
0.467	24.2883
0.459	23.3555
0.451	23.3065
0.443	22.7559
0.435	21.6162
0.427	20.7392
0.419	19.8415
0.411	19.0763
0.403	18.4784
