Name: Picrite
Type: rock
Class: Igneous
Subclass: Ultramafic
Particle Size: Fine
Sample No.: Picrite_H1
Owner: JHU
Wavelength Range: All
Origin: from Kilauea, via Rosalind Helz, USGS, Reston, VA (Cat. No. KI81-1-210.0)
Description: The sample from which the powder was derived is dark gray porphyritic rock.  Green olivine phenocrysts 1-8 mm in size make up about 8% of the rock.  There are also opaque grains less than or equal to1 mm in size.  The groundmass is dark gray and very fine-grained.Particle size was 0-75 micrometers. Original ASTER Spectral Library name was jhu.becknic.rock.igneous.ultramafic.fine.picrit1.spectrum.txt
Measurement: Directional (10 degree) hemispherical reflectance
X Units: Wavelength (micrometers)
Y Units: Reflectance (percent)
wavelength	value
14.011	2.3981
13.715	3.2234
13.43	3.5935
13.158	4.0498
12.896	4.1317
12.644	4.5178
12.402	4.4205
12.169	3.8482
11.945	2.7808
11.729	3.0187
11.52	3.601
11.319	4.2075
11.125	4.1636
10.937	4.2324
10.755	4.3542
10.58	4.1794
10.41	3.1706
10.245	3.112
10.086	2.8197
9.9313	2.8356
9.7814	2.9597
9.636	2.9946
9.4948	2.8481
9.3577	2.5509
9.2245	2.0121
9.095	1.7901
8.9691	1.6558
8.8467	1.4393
8.7275	1.316
8.6116	1.3538
8.4986	1.4948
8.3886	1.7728
8.2814	2.1971
8.1769	2.9457
8.075	4.2607
7.9756	5.8774
7.8786	7.399
7.784	8.8171
7.6916	10.177
7.6014	11.229
7.5133	12.489
7.4272	13.934
7.343	15.315
7.2607	16.235
7.1803	17.158
7.1016	17.971
7.0246	18.999
6.9493	20.187
6.8755	20.888
6.8034	21.292
6.7327	21.773
6.6634	21.912
6.5956	22.016
6.5292	22.029
6.464	22.313
6.4002	22.818
6.3376	23.28
6.2762	23.614
6.216	23.983
6.157	23.94
6.099	23.236
6.0421	21.268
5.9863	20.888
5.9315	21.959
5.8777	22.616
5.8249	23.449
5.773	24.208
5.722	23.55
5.6719	21.892
5.6227	21.681
5.5744	23.67
5.5268	24.709
5.4801	24.869
5.4341	25.447
5.3889	26.446
5.3445	27.231
5.3008	27.628
5.2578	27.952
5.2154	28.763
5.1738	29.828
5.1328	30.834
5.0925	31.57
5.0528	32.216
5.0137	32.799
4.9752	33.204
4.9373	34.632
4.9	37.081
4.8632	39.208
4.827	40.594
4.7913	41.656
4.7561	42.584
4.7215	43.567
4.6873	44.508
4.6536	45.471
4.6205	46.366
4.5877	47.229
4.5555	48.034
4.5237	48.81
4.4923	49.385
4.4614	49.917
4.4309	50.382
4.4008	50.811
4.3711	51.222
4.3418	51.627
4.3129	52.019
4.2844	52.422
4.2563	52.744
4.2285	53.11
4.2011	53.345
4.174	53.651
4.1473	53.908
4.1209	54.15
4.0949	54.349
4.0692	54.52
4.0438	54.639
4.0187	54.709
3.994	54.912
3.9695	55.115
3.9453	55.286
3.9214	55.327
3.8979	55.392
3.8746	55.447
3.8515	55.424
3.8288	55.465
3.8063	55.458
3.7841	55.428
3.7621	55.389
3.7404	55.381
3.7189	55.32
3.6977	55.271
3.6767	55.19
3.656	55.058
3.6355	54.956
3.6152	54.828
3.5951	54.686
3.5753	54.508
3.5557	54.385
3.5363	54.18
3.5171	53.865
3.4981	53.509
3.4793	53.452
3.4607	53.272
3.4423	52.982
3.4241	52.543
3.4061	52.357
3.3883	52.328
3.3707	52.19
3.3533	52.141
3.336	52.019
3.3189	51.865
3.302	51.628
3.2853	51.396
3.2687	51.189
3.2523	50.912
3.2361	50.682
3.22	50.39
3.2041	50.122
3.1883	49.884
3.1727	49.634
3.1572	49.376
3.1419	49.121
3.1268	48.899
3.1117	48.662
3.0969	48.4
3.0821	48.167
3.0675	47.97
3.0531	47.75
3.0388	47.549
3.0246	47.288
3.0105	47.074
2.9966	46.9
2.9828	46.734
2.9692	46.5
2.9556	46.382
2.9422	46.211
2.9289	46.144
2.9157	46.071
2.9027	46.013
2.8897	46.012
2.8769	45.969
2.8642	45.978
2.8516	45.983
2.8391	46.125
2.8267	46.248
2.8144	46.468
2.8022	46.883
2.7902	47.444
2.7782	48.14
2.7664	49.156
2.7546	50.483
2.7429	52.081
2.7314	53.61
2.7199	54.717
2.7085	55.565
2.6973	56.12
2.6861	56.54
2.675	56.754
2.664	56.954
2.6531	56.95
2.6423	56.895
2.6315	56.773
2.6209	56.61
2.6103	56.508
2.5999	56.351
2.5895	56.181
2.5792	56.031
2.569	55.86
2.5588	55.679
2.5487	55.514
2.5388	55.302
2.5289	55.115
2.519	54.959
2.5093	54.766
2.4996	54.614
2.49	54.446
2.4805	54.294
2.471	54.093
2.4616	53.972
2.4523	53.803
2.4431	53.631
2.4339	53.489
2.4248	53.315
2.4157	53.225
2.4068	53.05
2.3979	52.909
2.389	52.804
2.3802	52.658
2.3715	52.547
2.3629	52.432
2.3543	52.376
2.3458	52.253
2.3373	52.183
2.3289	52.081
2.3206	52.013
2.3123	51.934
2.3041	51.853
2.2959	51.713
2.2878	51.667
2.2798	51.677
2.2718	51.594
2.2638	51.486
2.2559	51.433
2.2481	51.392
2.2403	51.374
2.2326	51.339
2.225	51.315
2.2173	51.331
2.2098	51.294
2.2023	51.259
2.1948	51.264
2.1874	51.24
2.18	51.229
2.1727	51.238
2.1655	51.252
2.1583	51.256
2.1511	51.273
2.144	51.245
2.1369	51.234
2.1299	51.274
2.1229	51.303
2.116	51.257
2.1091	51.311
2.1023	51.29
2.0955	51.342
2.0887	51.251
2.082	51.293
2.06	50.853
2.028	50.38
1.996	49.627
1.964	48.932
1.932	48.376
1.9	47.527
1.868	47.527
1.836	47.629
1.804	47.857
1.772	47.308
1.74	47.577
1.708	47.489
1.676	47.292
1.644	46.94
1.612	46.297
1.58	45.656
1.548	44.917
1.516	44.417
1.484	42.56
1.452	41.382
1.42	40.009
1.388	38.056
1.356	36.513
1.324	35.457
1.292	34.56
1.26	32.819
1.228	31.977
1.196	31.438
1.164	30.918
1.132	29.317
1.1	28.386
1.068	27.286
1.036	26.772
1.004	27.318
0.972	28.128
0.94	29.493
0.908	30.962
0.876	31.7
0.844	32.049
0.812	32.753
0.795	33.499
0.787	33.675
0.779	33.794
0.771	33.981
0.763	34.357
0.755	34.12
0.747	34.19
0.739	34.365
0.731	34.407
0.723	34.422
0.715	34.267
0.707	34.328
0.699	34.113
0.691	33.852
0.683	33.988
0.675	33.697
0.667	33.682
0.659	33.298
0.651	33.398
0.643	33.148
0.635	32.763
0.627	32.82
0.619	32.698
0.611	32.234
0.603	31.803
0.595	31.871
0.587	31.408
0.579	31.197
0.571	31.521
0.563	31.202
0.555	30.399
0.547	29.599
0.539	29.327
0.531	28.931
0.523	28.216
0.515	27.928
0.507	27.216
0.499	26.852
0.491	26.393
0.483	25.764
0.475	25.312
0.467	24.877
0.459	24.497
0.451	24.224
0.443	23.738
0.435	23.509
0.427	23.324
0.419	22.64
0.411	22.466
0.403	21.819
