Name: Gray Slate
Type: Rock
Class: Metamorphic
Subclass: Slate
Particle Size: Solid
Sample No.: Ward92
Owner: JPL
Wavelength Range: VSWIR
Origin: Ward's Collection of American Rocks.  Sample locality - near Bangor, Northampton County, Pennsylvania.  Collected by - JPL.
Description: A dark gray fissile rock containing some carbonate.Geologic age - Ordovician.Collected by:  Ward's Natural Science Original ASTER Spectral Library name was jpl.perkin.rock.metamorphic.slate.solid.ward92.spectrum.txt
Measurement: Hemispherical reflectance
X Units: Wavelength (micrometers)
Y Units: Reflectance (percent)
wavelength	value
2.5	6.3873
2.494	6.2723
2.488	6.1812
2.482	6.4207
2.476	6.2508
2.47	6.3531
2.464	6.2975
2.458	6.2505
2.452	6.3118
2.446	6.3543
2.44	6.2981
2.434	6.3205
2.428	6.3443
2.422	6.2742
2.416	6.2843
2.41	6.3116
2.404	6.2729
2.398	6.3488
2.392	6.3389
2.386	6.277
2.38	6.3803
2.374	6.4148
2.368	6.3997
2.362	6.398
2.356	6.3821
2.35	6.431
2.344	6.3461
2.338	6.3699
2.332	6.4181
2.326	6.4366
2.32	6.3531
2.314	6.3762
2.308	6.4117
2.302	6.4307
2.296	6.3716
2.29	6.3923
2.284	6.5141
2.278	6.4221
2.272	6.3648
2.266	6.3816
2.26	6.3524
2.254	6.4407
2.248	6.4833
2.242	6.453
2.236	6.4639
2.23	6.3803
2.224	6.431
2.218	6.4663
2.212	6.5346
2.206	6.4888
2.2	6.549
2.194	6.5721
2.188	6.6066
2.182	6.5847
2.176	6.6481
2.17	6.6609
2.164	6.7072
2.158	6.6668
2.152	6.7213
2.146	6.7145
2.14	6.7016
2.134	6.6925
2.128	6.6582
2.122	6.7168
2.116	6.687
2.11	6.6308
2.104	6.7167
2.098	6.6606
2.092	6.6119
2.086	6.6884
2.08	6.6878
2.074	6.7225
2.068	6.7406
2.062	6.6816
2.056	6.6963
2.05	6.7696
2.044	6.7974
2.038	6.8156
2.032	6.7705
2.026	6.769
2.02	6.7853
2.014	6.8252
2.008	6.761
2.002	6.8393
1.996	6.9173
1.99	6.9054
1.984	6.8793
1.978	6.922
1.972	6.8057
1.966	6.8573
1.96	6.8634
1.954	6.8838
1.948	6.9483
1.942	6.9197
1.936	6.9515
1.93	6.946
1.924	6.8717
1.918	6.9511
1.912	6.9124
1.906	6.9521
1.9	7.0034
1.894	7.0151
1.888	6.9522
1.882	6.9674
1.876	7.0174
1.87	7.0116
1.864	6.9811
1.858	6.9911
1.852	6.9798
1.846	7.0185
1.84	7.0196
1.834	7.0752
1.828	6.9849
1.822	7.0864
1.816	7.0257
1.81	7.0098
1.804	7.0175
1.798	7.0114
1.792	7.0638
1.786	7.101
1.78	7.0702
1.774	7.0216
1.768	7.0981
1.762	7.0888
1.756	7.1265
1.75	7.0822
1.744	7.0435
1.738	7.1258
1.732	7.062
1.726	7.1185
1.72	7.132
1.714	7.1214
1.708	7.0809
1.702	7.0945
1.696	7.2038
1.69	7.181
1.684	7.1173
1.678	7.1883
1.672	7.1707
1.666	7.176
1.66	7.1072
1.654	7.1602
1.648	7.2466
1.642	7.3203
1.636	7.1481
1.63	7.1876
1.624	7.2421
1.618	7.2521
1.612	7.2696
1.606	7.2157
1.6	7.2884
1.594	7.2522
1.588	7.1414
1.582	7.2921
1.576	7.3395
1.57	7.2835
1.564	7.3091
1.558	7.3899
1.552	7.3366
1.546	7.314
1.54	7.3933
1.534	7.3764
1.528	7.3672
1.522	7.403
1.516	7.3764
1.51	7.3765
1.504	7.3534
1.498	7.4065
1.492	7.4335
1.486	7.4156
1.48	7.4177
1.474	7.5084
1.468	7.4816
1.462	7.5106
1.456	7.5349
1.45	7.4684
1.444	7.5042
1.438	7.5485
1.432	7.5087
1.426	7.5633
1.42	7.5048
1.414	7.4787
1.408	7.5709
1.402	7.5862
1.396	7.6541
1.39	7.6007
1.384	7.6081
1.378	7.6318
1.372	7.6456
1.366	7.7092
1.36	7.6765
1.354	7.6833
1.348	7.6758
1.342	7.6665
1.336	7.5842
1.33	7.7001
1.324	7.7218
1.318	7.724
1.312	7.6738
1.306	7.7338
1.3	7.7474
1.294	7.6223
1.288	7.7724
1.282	7.7266
1.276	7.7964
1.27	7.7373
1.264	7.7305
1.258	7.7713
1.252	7.7396
1.246	7.7634
1.24	7.7589
1.234	7.7837
1.228	7.7386
1.222	7.8649
1.216	7.8454
1.21	7.79
1.204	7.7727
1.198	7.7669
1.192	7.8366
1.186	7.8313
1.18	7.7443
1.174	7.7752
1.168	7.8458
1.162	7.8916
1.156	7.8601
1.15	7.8506
1.144	7.8653
1.138	7.8411
1.132	7.8246
1.126	7.8633
1.12	7.8096
1.114	7.7976
1.108	7.8744
1.102	7.873
1.096	7.9145
1.09	7.9144
1.084	7.9724
1.078	7.7673
1.072	7.9598
1.066	7.849
1.06	7.964
1.054	7.9977
1.048	7.9469
1.042	7.973
1.036	7.9769
1.03	8.023
1.024	8.0044
1.018	8.0928
1.012	8.0022
1.006	8.0957
1	8.0349
0.994	8.0508
0.988	8.1093
0.982	8.1253
0.976	8.1402
0.97	8.13
0.964	8.1337
0.958	8.1805
0.952	8.1917
0.946	8.1209
0.94	8.127
0.934	8.2082
0.928	8.1995
0.922	8.2197
0.916	8.2788
0.91	8.1867
0.904	8.1812
0.898	8.3003
0.892	8.2671
0.886	8.2954
0.88	8.3384
0.874	8.2907
0.868	8.2974
0.862	8.3223
0.856	8.7323
0.85	8.7428
0.844	8.7695
0.838	8.786
0.832	8.7986
0.826	8.8232
0.82	8.8323
0.814	8.8723
0.808	8.8729
0.802	8.888
0.796	8.8839
0.79	8.9081
0.784	8.9132
0.778	8.9356
0.772	8.9469
0.766	8.9556
0.76	8.9656
0.754	8.9752
0.748	8.9881
0.742	8.9992
0.736	9.0072
0.73	9.0254
0.724	9.0408
0.718	9.0601
0.712	9.0655
0.706	9.0821
0.7	9.0885
0.694	9.0914
0.688	9.1027
0.682	9.121
0.676	9.1395
0.67	9.155
0.664	9.1761
0.658	9.1904
0.652	9.2081
0.646	9.2215
0.64	9.2393
0.634	9.2549
0.628	9.2739
0.622	9.2963
0.616	9.3159
0.61	9.3349
0.604	9.3574
0.598	9.38
0.592	9.4059
0.586	9.427
0.58	9.4451
0.574	9.4696
0.568	9.489
0.562	9.5064
0.556	9.5294
0.55	9.5492
0.544	9.5709
0.538	9.5926
0.532	9.6113
0.526	9.6339
0.52	9.6529
0.514	9.6678
0.508	9.6796
0.502	9.6905
0.496	9.7136
0.49	9.7325
0.484	9.765
0.478	9.794
0.472	9.8164
0.466	9.8394
0.46	9.8433
0.454	9.8607
0.448	9.8741
0.442	9.8938
0.436	9.9103
0.43	9.9327
0.424	9.9527
0.418	9.9658
0.412	9.983
0.406	9.9979
0.4	9.9899
