Name: Augite-hypersthene Andesite
Type: rock
Class: Igneous
Subclass: Intermediate
Particle Size: Fine
Sample No.: Andesite_H1
Owner: JHU
Wavelength Range: All
Origin: Saipan, via Smithsonian (Cat. Number. NMNH 108982-135)
Description: Sample from which the powder is derived is brown on the weathered surface and dk. gray on fresh surfaces; porphyritic, with approx. < 1mm phenocrysts (plagioclase laths pyroxene and opaques in that order of abundance) making up about 25-30% of the rock. Groundmass gray.Particle size was 0-75 micrometers. Original ASTER Spectral Library name was jhu.becknic.rock.igneous.intermediate.fine.andesi1.spectrum.txt
Measurement: Directional (10 degree) hemispherical reflectance
X Units: Wavelength (micrometers)
Y Units: Reflectance (percent)
wavelength	value
13.861	0
13.571	1.016
13.293	1.822
13.026	2.172
12.769	2.16
12.522	2.366
12.285	3.776
12.056	4.477
11.836	3.946
11.624	3.62
11.419	3.634
11.221	3.245
11.03	2.984
10.846	2.853
10.667	2.873
10.494	2.758
10.327	2.644
10.165	2.544
10.008	2.501
9.856	2.503
9.708	2.456
9.565	2.438
9.426	2.606
9.291	2.849
9.159	3.19
9.032	3.167
8.908	2.914
8.787	2.617
8.669	2.436
8.555	2.391
8.443	2.262
8.335	2.148
8.229	2.17
8.126	2.152
8.025	2.363
7.927	2.766
7.831	3.13
7.737	3.506
7.646	3.945
7.557	4.507
7.47	5.14
7.385	5.846
7.302	6.58
7.22	7.239
7.141	7.809
7.063	8.357
6.987	8.767
6.912	9.3
6.839	9.842
6.768	10.282
6.698	10.591
6.629	10.67
6.562	11
6.496	11.129
6.432	11.431
6.369	11.41
6.307	11.136
6.246	10.446
6.186	9.31
6.128	9.094
6.07	9.937
6.014	11.242
5.959	12.577
5.904	13.727
5.851	14.521
5.799	15.007
5.747	15.351
5.697	15.71
5.647	15.905
5.598	16.309
5.551	16.742
5.503	17.065
5.457	17.201
5.411	17.104
5.367	16.444
5.322	16.148
5.279	16.936
5.237	18.244
5.194	19.336
5.153	19.946
5.113	20.39
5.073	20.615
5.033	20.888
4.994	21.365
4.956	21.984
4.919	23.146
4.881	24.21
4.845	24.991
4.809	25.623
4.774	26.085
4.739	26.471
4.704	26.903
4.67	27.345
4.637	27.692
4.604	28.098
4.572	28.449
4.54	28.759
4.508	28.983
4.477	29.139
4.446	29.257
4.416	29.366
4.386	29.505
4.356	29.684
4.327	29.928
4.299	30.083
4.27	30.277
4.242	30.391
4.215	30.495
4.188	30.565
4.161	30.647
4.134	30.721
4.108	30.809
4.082	30.901
4.056	30.959
4.031	30.996
4.006	31.043
3.982	31.108
3.957	31.097
3.933	31.142
3.91	31.14
3.886	31.124
3.863	31.147
3.84	31.115
3.817	31.074
3.795	31.006
3.773	30.945
3.751	30.869
3.73	30.745
3.708	30.691
3.687	30.587
3.666	30.484
3.646	30.357
3.625	30.202
3.605	30.086
3.585	29.898
3.565	29.764
3.546	29.586
3.527	29.381
3.507	29.158
3.489	28.908
3.47	28.753
3.451	28.525
3.433	28.214
3.415	27.918
3.397	27.707
3.38	27.371
3.362	27.155
3.345	26.847
3.327	26.526
3.31	26.195
3.294	25.871
3.277	25.518
3.26	25.163
3.244	24.82
3.228	24.48
3.212	24.055
3.196	23.704
3.18	23.361
3.165	22.965
3.15	22.582
3.134	22.215
3.119	21.867
3.104	21.534
3.09	21.277
3.075	21.14
3.06	20.945
3.046	20.884
3.032	20.709
3.018	20.48
3.004	20.254
2.99	20.035
2.976	19.832
2.962	19.631
2.949	19.459
2.936	19.332
2.922	19.23
2.909	19.162
2.896	19.138
2.883	19.085
2.87	19.056
2.858	18.932
2.845	18.752
2.833	18.533
2.821	18.249
2.808	18.013
2.796	17.975
2.784	18.161
2.772	18.6
2.76	19.114
2.749	20.045
2.737	21.56
2.726	23.91
2.714	27.092
2.703	29.269
2.692	30.429
2.68	30.996
2.67	30.9
2.659	31.734
2.648	31.892
2.637	31.909
2.626	31.776
2.616	31.786
2.605	31.573
2.595	31.333
2.584	31.766
2.574	31.73
2.564	31.685
2.554	31.819
2.544	31.742
2.534	31.801
2.524	31.759
2.514	31.744
2.504	31.644
2.495	31.561
2.485	31.597
2.476	31.654
2.466	31.548
2.457	31.542
2.448	31.489
2.438	31.442
2.429	31.443
2.42	31.424
2.411	31.27
2.402	31.229
2.393	31.328
2.385	31.226
2.376	31.254
2.367	31.239
2.359	31.084
2.35	31.1
2.341	31.099
2.332	31.06
2.324	31.076
2.315	30.895
2.307	30.877
2.299	30.913
2.291	30.875
2.283	30.778
2.275	30.775
2.267	30.714
2.259	30.706
2.251	30.657
2.243	30.676
2.235	30.54
2.227	30.554
2.219	30.586
2.211	30.646
2.203	30.617
2.195	30.551
2.187	30.541
2.179	30.624
2.171	30.552
2.163	30.577
2.155	30.573
2.147	30.587
2.139	30.567
2.131	30.586
2.123	30.541
2.115	30.583
2.107	30.633
2.099	30.542
2.091	30.545
2.083	30.499
2.064	30.654
2.032	30.348
2	30.329
1.968	30.089
1.936	29.781
1.904	29.231
1.872	29.958
1.84	30.025
1.808	30.235
1.776	30.195
1.744	30.646
1.712	30.872
1.68	30.939
1.648	30.808
1.616	31.112
1.584	30.813
1.552	30.922
1.52	31.26
1.488	30.561
1.456	30.772
1.424	30.568
1.392	30.625
1.36	30.911
1.328	30.368
1.296	30.665
1.264	30.17
1.232	30.219
1.2	30.049
1.168	29.96
1.136	30.016
1.104	29.282
1.072	28.517
1.04	27.817
1.008	27.012
0.976	26.47
0.944	26.028
0.912	26.076
0.88	27.029
0.848	28.108
0.816	28.885
0.796	28.957
0.787	29.2
0.778	29.1
0.77	29.337
0.762	29.241
0.754	29.096
0.746	29.118
0.738	29.118
0.73	29.094
0.722	29.174
0.714	28.743
0.706	28.955
0.698	28.937
0.69	29.151
0.682	28.996
0.674	28.647
0.666	28.358
0.658	28.44
0.65	28.375
0.642	28.259
0.634	27.942
0.626	27.93
0.618	27.91
0.61	27.83
0.602	27.133
0.594	27.68
0.586	27.271
0.578	26.988
0.57	27.152
0.562	26.958
0.554	26.832
0.546	26.343
0.538	26.437
0.53	26.096
0.522	25.568
0.514	25.247
0.506	24.995
0.498	24.807
0.49	24.636
0.482	24.007
0.474	23.628
0.466	23.435
0.458	23.504
0.45	23.225
0.442	22.882
0.434	22.215
0.426	21.533
0.418	21.24
0.41	20.391
0.402	19.918
