Name: Shale (Arenaceous)
Type: rock
Class: Sedimentary
Subclass: Shale
Particle Size: Fine
Sample No.: shale_1
Owner: JHU
Wavelength Range: All
Origin: Sample No. 387,  The Hunt and Salisbury Collection at the U.S.Geological Survey, Denver, Co.
Description: A well-sorted sample, consisting of medium fine-grained subangular to subrounded quartz grains set in an abundant matrix of yellowish-brown clay (kaolinite and/or illite?). The quartz grains contain numerous fluid inclusions, and there are trace amounts of plagioclase, tourmaline (schorlite), microcline, and opaques.Particle size was 0 - 75 Micrometers. Original ASTER Spectral Library name was jhu.becknic.rock.sedimentary.shale.fine.shale1.spectrum.txt
Measurement: Directional (10 Degree) Hemispherical Reflectance
X Units: Wavelength (micrometers)
Y Units: Reflectance (percent)
wavelength	value
14.983	2.0186
14.645	1.4917
14.321	0.9714
14.011	2.0688
13.715	2.9585
13.43	2.5953
13.158	2.3693
12.896	1.9821
12.644	1.4929
12.402	1.104
12.169	2.4589
11.945	3.867
11.729	4.993
11.52	4.8569
11.319	4.0981
11.125	3.0634
10.937	1.8924
10.755	1.899
10.58	2.0075
10.41	2.5337
10.245	2.5872
10.086	2.4236
9.9313	2.3743
9.7814	2.2933
9.636	2.6777
9.4948	2.942
9.3577	3.3628
9.2245	3.3218
9.095	2.7857
8.9691	2.4188
8.8467	2.9465
8.7275	2.8198
8.6116	2.3307
8.4986	2.767
8.3886	2.9012
8.2814	3.3176
8.1769	4.0806
8.075	3.4068
7.9756	2.5389
7.8786	1.7584
7.784	1.5223
7.6916	1.541
7.6014	1.5744
7.5133	1.7503
7.4272	1.9502
7.343	2.2201
7.2607	2.6599
7.1803	3.1785
7.1016	3.623
7.0246	3.9889
6.9493	4.6899
6.8755	5.2734
6.8034	5.7364
6.7327	5.9621
6.6634	6.6036
6.5956	6.9046
6.5292	7.31
6.464	8.9682
6.4002	8.8335
6.3376	7.5386
6.2762	6.0308
6.216	4.9959
6.157	5.1702
6.099	6.0173
6.0421	6.9816
5.9863	7.8635
5.9315	8.2462
5.8777	10.251
5.8249	12.235
5.773	13.953
5.722	15.252
5.6719	14.887
5.6227	12.662
5.5744	11.978
5.5268	12.497
5.4801	13.192
5.4341	13.894
5.3889	10.861
5.3445	8.973
5.3008	9.8402
5.2578	12.164
5.2154	15.589
5.1738	16.298
5.1328	16.42
5.0925	16.861
5.0528	16.875
5.0137	17.383
4.9752	19.627
4.9373	23.243
4.9	27.85
4.8632	32.766
4.827	34.992
4.7913	36.576
4.7561	37.624
4.7215	38.035
4.6873	37.442
4.6536	38.611
4.6205	40.373
4.5877	41.503
4.5555	41.944
4.5237	41.305
4.4923	39.947
4.4614	40.026
4.4309	41.207
4.4008	42.338
4.3711	43.644
4.3418	44.597
4.3129	45.049
4.2844	44.99
4.2563	45.248
4.2285	46.057
4.2011	46.33
4.174	46.749
4.1473	47.201
4.1209	47.615
4.0949	48.027
4.0692	48.35
4.0438	48.524
4.0187	48.616
3.994	48.666
3.9695	48.801
3.9453	48.887
3.9214	48.871
3.8979	48.686
3.8746	48.391
3.8515	48.097
3.8288	47.798
3.8063	47.445
3.7841	46.957
3.7621	46.349
3.7404	45.572
3.7189	45.068
3.6977	44.114
3.6767	43.941
3.656	43.52
3.6355	42.858
3.6152	42.076
3.5951	41.249
3.5753	40.418
3.5557	39.464
3.5363	38.433
3.5171	37.202
3.4981	36.173
3.4793	36.136
3.4607	35.212
3.4423	33.835
3.4241	33.052
3.4061	32.068
3.3883	31.053
3.3707	30.016
3.3533	29.267
3.336	28.526
3.3189	27.628
3.302	26.633
3.2853	25.626
3.2687	24.671
3.2523	23.765
3.2361	22.896
3.22	21.863
3.204	20.837
3.1883	19.883
3.1727	18.963
3.1572	18.072
3.1419	17.178
3.1268	16.373
3.1117	15.623
3.0969	14.978
3.0821	14.497
3.0675	14.157
3.0531	13.803
3.0388	13.491
3.0246	13.138
3.0105	12.773
2.9966	12.413
2.9828	12.014
2.9692	11.611
2.9556	11.335
2.9422	11.236
2.9289	11.092
2.9157	10.98
2.9027	10.909
2.8897	10.765
2.8769	10.706
2.8642	10.596
2.8516	10.477
2.8391	10.312
2.8267	10.015
2.8144	9.4137
2.8022	8.4479
2.7902	7.252
2.7782	5.4982
2.7664	3.1489
2.7546	2.6995
2.7429	2.7021
2.7314	2.5434
2.7199	3.1511
2.7085	2.2938
2.6973	4.0569
2.6861	13.757
2.675	22.968
2.664	28.739
2.6531	32.845
2.6423	35.232
2.6315	36.659
2.6209	37.979
2.6103	38.846
2.5999	39.317
2.5895	39.612
2.5792	40.26
2.569	40.878
2.5588	41.796
2.5487	42.281
2.5388	42.701
2.5289	43.123
2.519	43.509
2.5093	43.829
2.4996	44.24
2.49	44.359
2.4805	45.082
2.471	45.698
2.4616	45.991
2.4523	46.216
2.4431	46.59
2.4339	47.47
2.4248	48.455
2.4157	49.091
2.4068	49.374
2.3979	49.222
2.389	48.543
2.3802	48.489
2.3715	49.46
2.3629	49.728
2.3543	49.674
2.3458	50.284
2.3373	50.857
2.3289	50.826
2.3206	51.066
2.3123	51.444
2.3041	52.113
2.2959	52.584
2.2878	52.94
2.2798	53.298
2.2718	53.517
2.2638	53.637
2.2559	53.524
2.2481	53.458
2.2403	53.181
2.2326	53.184
2.225	52.574
2.2173	50.875
2.2098	44.266
2.2023	47.864
2.1948	49.325
2.1874	50.029
2.18	50.289
2.1727	50.513
2.1655	50.602
2.1583	51.164
2.1511	52.586
2.144	54.207
2.1369	55.055
2.1299	55.544
2.1229	55.666
2.116	55.787
2.1091	55.89
2.1023	56.097
2.0955	56.189
2.0887	56.206
2.082	56.372
2.06	56.165
2.028	55.68
1.996	54.045
1.964	52.016
1.932	49.6
1.9	50.811
1.868	53.63
1.836	55.607
1.804	55.357
1.772	55.263
1.74	54.64
1.708	54.729
1.676	54.372
1.644	53.631
1.612	53.809
1.58	52.974
1.548	52.752
1.516	52.156
1.484	50.973
1.452	50.283
1.42	48.89
1.388	47.448
1.356	49.88
1.324	48.551
1.292	48.121
1.26	48.498
1.228	48.229
1.196	47.099
1.164	45.955
1.132	45.81
1.1	44.972
1.068	44.484
1.036	43.141
1.004	42.638
0.972	41.878
0.94	41.019
0.908	40.073
0.876	39.408
0.844	38.565
0.812	37.809
0.795	36.826
0.787	36.7
0.779	36.377
0.771	35.767
0.763	35.474
0.755	35.281
0.747	34.952
0.739	34.598
0.731	34.272
0.723	33.827
0.715	33.495
0.707	33.046
0.699	33.439
0.691	32.853
0.683	32.948
0.675	32.045
0.667	32.059
0.659	31.695
0.651	31.301
0.643	30.789
0.635	30.486
0.627	30.17
0.619	29.91
0.611	29.361
0.603	28.92
0.595	28.993
0.587	28.805
0.579	28.448
0.571	28.128
0.563	27.418
0.555	26.983
0.547	26.598
0.539	26.303
0.531	26.203
0.523	25.562
0.515	25.144
0.507	24.752
0.499	24.326
0.491	24.04
0.483	23.844
0.475	23.2
0.467	23.001
0.459	22.752
0.451	22.055
0.443	21.923
0.435	21.425
0.427	21.339
0.419	20.737
0.411	20.253
0.403	19.845
