Name: Phosphorite
Type: Rock
Class: Sedimentary
Subclass: Shale
Particle Size: Solid
Sample No.: Phop009
Owner: USGS
Wavelength Range: All
Origin: Southeastern Idaho
Description: Phosphate ore from lower part of Meade PeakMember, Phosphoria Formation, altered (slightchemical weathering). Sample was Whole rock chips. Original ASTER Spectral Library name was usgs.perknic.rock.sedimentary.shale.solid.phop009.spectrum.txt
Measurement: Directional Hemispherical Reflectance
X Units: Wavelength (micrometers)
Y Units: Reflectance (percent)
wavelength	value
14.051	2.2145
13.826	2.2557
13.609	2.5853
13.398	2.5544
13.193	2.5441
12.995	2.5956
12.802	2.9664
12.616	2.5132
12.434	2.5235
12.258	2.3999
12.086	2.7707
11.92	3.1312
11.757	3.5535
11.6	3.8316
11.446	3.9655
11.297	4.1612
11.151	4.223
11.009	4.2127
10.87	4.1921
10.735	4.12
10.604	4.5011
10.475	4.7586
10.35	4.7895
10.227	4.9337
10.108	5.2118
9.991	5.562
9.877	6.0873
9.765	6.3036
9.656	7.2615
9.549	7.6632
9.445	7.2512
9.343	7.3954
9.243	7.0246
9.145	6.3757
9.049	5.9431
8.956	5.4899
8.864	5.6135
8.774	5.3869
8.686	5.0058
8.599	4.5423
8.515	5.0779
8.431	5.3766
8.35	5.5826
8.27	5.974
8.192	6.2109
8.115	5.5311
8.039	4.4702
7.965	3.7286
7.893	3.0282
7.821	2.6883
7.751	2.6574
7.682	2.5029
7.614	2.3484
7.548	2.266
7.483	2.266
7.418	2.2248
7.355	2.1012
7.293	2.0394
7.232	1.9055
7.172	1.8849
7.113	1.854
7.055	1.6377
6.998	1.5656
6.942	1.6274
6.886	1.6377
6.832	1.7613
6.778	2.1012
6.726	2.2763
6.674	2.5544
6.623	2.7089
6.572	2.678
6.523	2.6368
6.474	2.6368
6.426	2.4411
6.378	2.266
6.332	2.266
6.286	2.1218
6.24	2.1218
6.195	2.0291
6.151	2.0394
6.108	2.0909
6.065	2.0909
6.023	2.1733
5.981	2.3278
5.94	2.4823
5.899	2.8119
5.859	3.1415
5.82	3.5844
5.781	4.0788
5.743	4.532
5.705	5.0264
5.667	5.356
5.63	5.459
5.594	5.6547
5.558	5.8607
5.523	6.283
5.487	6.6744
5.453	7.0143
5.419	7.1791
5.385	6.6538
5.352	6.2933
5.319	6.4581
5.286	6.8186
5.254	7.4057
5.222	8.4048
5.191	8.8683
5.16	9.0331
5.129	9.2906
5.099	9.2906
5.069	9.1979
5.04	9.064
5.01	8.5902
4.981	8.9198
4.953	9.7026
4.925	10.3103
4.897	10.9695
4.869	11.4639
4.842	11.8862
4.815	11.8759
4.788	12.0716
4.762	12.3909
4.736	12.7205
4.71	12.8956
4.684	12.9265
4.659	13.1222
4.634	13.3694
4.61	13.6784
4.585	14.1625
4.561	14.3788
4.537	14.6466
4.513	14.9453
4.49	14.9041
4.467	15.0586
4.444	15.1822
4.421	15.5118
4.398	15.6766
4.376	16.0062
4.354	16.2637
4.332	16.4697
4.311	16.686
4.289	16.8817
4.268	16.6345
4.247	16.9538
4.226	17.4894
4.206	17.2834
4.185	17.3658
4.165	17.2834
4.145	17.5306
4.126	17.6027
4.106	17.7057
4.086	17.8499
4.067	17.7675
4.048	17.6851
4.029	17.613
4.011	17.5718
3.992	17.6439
3.974	17.5821
3.956	17.5718
3.938	17.4997
3.92	17.5203
3.902	17.4688
3.884	17.3658
3.867	17.0877
3.85	17.0465
3.833	16.8405
3.816	16.3358
3.799	16.3152
3.782	16.1092
3.766	15.8208
3.75	15.3264
3.733	15.3676
3.717	14.9144
3.702	14.6981
3.686	14.3376
3.67	13.9359
3.655	13.5857
3.639	13.2046
3.624	12.6278
3.609	12.2879
3.594	11.7317
3.579	11.2167
3.564	10.7326
3.549	10.2279
3.535	9.6202
3.521	9.3009
3.506	9.0537
3.492	8.9816
3.478	8.8786
3.464	9.0125
3.45	8.6005
3.437	8.5593
3.423	8.2915
3.409	8.0546
3.396	7.7456
3.383	7.5602
3.37	7.2718
3.357	7.0349
3.344	6.7156
3.331	6.6641
3.318	6.4169
3.305	6.2727
3.293	6.0152
3.28	5.7474
3.268	5.665
3.255	5.6341
3.243	5.4899
3.231	5.5002
3.219	5.4075
3.207	5.4693
3.195	5.4281
3.183	5.1294
3.172	5.1088
3.16	4.8101
3.149	4.8822
3.137	4.6453
3.126	4.7998
3.115	4.4908
3.103	4.3672
3.092	4.2745
3.081	4.1921
3.07	4.1509
3.06	4.3672
3.049	4.2127
3.038	4.1818
3.027	3.914
3.017	4.1921
3.006	4.1612
2.996	4.3157
2.986	4.6453
2.975	4.6968
2.965	4.738
2.955	4.9852
2.945	4.7792
2.935	4.738
2.925	5.0779
2.915	4.9646
2.905	5.047
2.896	5.4384
2.886	5.0985
2.876	5.3251
2.867	5.356
2.857	5.5414
2.848	5.4281
2.838	5.6753
2.829	5.5414
2.82	5.7062
2.811	5.5208
2.802	5.8195
2.793	5.6341
2.784	5.8607
2.775	5.6341
2.766	5.1294
2.757	4.9028
2.748	5.2736
2.74	6.18
2.731	6.6229
2.722	8.5902
2.714	9.579
2.705	9.1052
2.697	11.7523
2.688	18.3134
2.68	24.3904
2.672	28.2426
2.664	30.1893
2.655	31.415
2.647	33.0012
2.639	33.9385
2.631	35.0818
2.623	35.3702
2.615	36.2972
2.607	36.9152
2.599	37.4199
2.592	37.0491
2.584	37.8937
2.576	37.4096
2.569	38.0585
2.561	38.3366
2.553	38.4705
2.546	38.5632
2.538	38.0791
2.531	38.6662
2.524	38.8413
2.516	39.3151
2.509	38.8928
2.502	39.2533
2.48	40.2504
2.456	42.1055
2.432	44.6635
2.408	45.9464
2.384	47.2808
2.36	48.445
2.336	50.1229
2.312	51.9775
2.288	52.8634
2.264	52.9331
2.24	52.1726
2.216	50.4032
2.192	50.8742
2.168	51.3762
2.144	50.914
2.12	50.1364
2.096	50.9727
2.072	51.7819
2.048	51.4523
2.024	50.5869
2	50.095
1.976	49.3764
1.952	48.0955
1.928	47.5389
1.904	52.2805
1.88	60.5076
1.856	63.7094
1.832	64.3185
1.808	64.4024
1.784	64.5987
1.76	64.8284
1.736	65.2258
1.712	65.4604
1.688	65.4129
1.664	65.2673
1.64	65.3561
1.616	65.222
1.592	65.0367
1.568	64.4151
1.544	64.0635
1.52	63.6925
1.496	63.0317
1.472	62.0859
1.448	61.6305
1.424	60.8283
1.4	62.3695
1.376	64.7861
1.352	64.9801
1.328	64.8172
1.304	64.5024
1.28	64.1211
1.256	63.6103
1.232	62.9057
1.208	62.1489
1.184	61.275
1.16	60.392
1.136	59.5268
1.112	58.3411
1.088	57.1773
1.064	55.8056
1.04	54.3455
1.016	52.7687
0.992	51.0462
0.968	49.1691
0.944	47.3484
0.92	45.3094
0.896	43.6527
0.872	41.3211
0.848	39.2019
0.824	36.8805
0.8	34.3339
0.776	31.8133
0.752	29.3917
0.728	27.0899
0.704	24.896
0.68	22.9531
0.656	21.215
0.632	19.7159
0.608	18.454
0.584	17.3963
0.56	16.4572
0.536	15.5901
0.512	14.8107
0.488	14.0584
0.464	13.6186
0.44	13.0441
0.416	12.389
