Name: Hornblende Schist
Type: rock
Class: Metamorphic
Subclass: Schist
Particle Size: Fine
Sample No.: schist2
Owner: JHU
Wavelength Range: All
Origin: Sample No. 241, The Hunt and Salisbury Collection at the U.S.Geological Survey, Denver, Co.
Description: Coarse grains of euhedral to subhedral hornblende with lesser amounts of anhedral alkali feldspar characterize this sample.  Modes were 78.4% hornblende and 21.6% feldspar.    Particle size was 0-75 Micrometer. Original ASTER Spectral Library name was jhu.becknic.rock.metamorphic.schist.fine.schist2.spectrum.txt
Measurement: Directional (10 Degree) Hemispherical Reflectance
X Units: Wavelength (micrometers)
Y Units: Reflectance (percent)
wavelength	value
14.983	1.0261
14.645	1.5026
14.321	1.8486
14.011	2.5098
13.715	2.7506
13.43	2.829
13.158	2.6467
12.896	2.7063
12.644	4.0455
12.402	5.1875
12.169	5.3274
11.945	5.0581
11.729	4.7562
11.52	4.8263
11.319	4.4843
11.125	4.2047
10.937	4.2165
10.755	3.9292
10.58	4.9696
10.41	5.985
10.245	6.3976
10.086	6.3827
9.9313	5.4072
9.7814	4.041
9.636	3.9508
9.4948	4.1317
9.3577	4.8403
9.2245	4.7853
9.095	3.9238
8.9691	3.9039
8.8467	4.3046
8.7275	5.1446
8.6116	3.7317
8.4986	1.9774
8.3886	1.375
8.2814	1.2189
8.1769	1.4119
8.075	2.0321
7.9756	2.9666
7.8786	4.0896
7.784	5.1936
7.6916	6.4594
7.6014	7.6719
7.5133	8.5424
7.4272	9.4312
7.343	10.512
7.2607	11.804
7.1803	13.028
7.1016	13.841
7.0246	14.933
6.9493	16.07
6.8755	16.496
6.8034	16.952
6.7327	17.502
6.6634	18.011
6.5956	18.863
6.5292	18.858
6.464	18.476
6.4002	18.306
6.3376	17.465
6.2762	16.292
6.216	15.94
6.157	16.149
6.099	16.787
6.0421	18.143
5.9863	18.466
5.9315	18.807
5.8777	20.628
5.8249	22.287
5.773	23.62
5.722	24.615
5.6719	24.896
5.6227	25.73
5.5744	26.989
5.5268	27.877
5.4801	27.419
5.4341	27.777
5.3889	27.885
5.3445	27.65
5.3008	28.644
5.2578	29.572
5.2154	31.329
5.1738	30.372
5.1328	29.337
5.0925	29.36
5.0528	30.355
5.0137	32.377
4.9752	33.783
4.9373	35.028
4.9	36.393
4.8632	37.48
4.827	38.421
4.7913	40.09
4.7561	42.335
4.7215	44.674
4.6873	46.978
4.6536	49.066
4.6205	51.527
4.5877	53.807
4.5555	55.999
4.5237	57.626
4.4923	58.634
4.4614	59.349
4.4309	60.16
4.4008	60.876
4.3711	61.476
4.3418	62.073
4.3129	62.719
4.2844	63.424
4.2563	64.065
4.2285	64.541
4.2011	64.947
4.174	65.329
4.1473	65.714
4.1209	66.099
4.0949	66.445
4.0692	66.763
4.0438	67.014
4.0187	67.137
3.994	67.189
3.9695	67.314
3.9453	67.592
3.9214	67.804
3.8979	67.943
3.8746	67.999
3.8515	67.982
3.8288	67.953
3.8063	67.887
3.7841	67.81
3.7621	67.678
3.7404	67.487
3.7189	67.221
3.6977	66.906
3.6767	66.719
3.656	66.424
3.6355	66.097
3.6152	65.765
3.5951	65.376
3.5753	64.964
3.5557	64.478
3.5363	63.808
3.5171	62.898
3.4981	61.832
3.4793	61.564
3.4607	60.985
3.4423	60.001
3.4241	58.666
3.4061	57.763
3.3883	57.138
3.3707	56.273
3.3533	55.552
3.336	55.117
3.3189	54.834
3.302	54.513
3.2853	54.337
3.2687	53.874
3.2523	53.069
3.2361	52.08
3.22	51.032
3.204	49.947
3.1883	48.842
3.1727	47.943
3.1572	47.375
3.1419	46.821
3.1268	46.232
3.1117	45.643
3.0969	45.126
3.0821	44.6
3.0675	44.156
3.0531	43.829
3.0388	43.674
3.0246	43.522
3.0105	43.128
2.9966	42.565
2.9828	41.948
2.9692	41.366
2.9556	40.909
2.9422	40.532
2.9289	40.327
2.9157	40.602
2.9027	40.886
2.8897	41.135
2.8769	41.04
2.8642	40.984
2.8516	41.345
2.8391	41.546
2.8267	41.6
2.8144	41.96
2.8022	42.511
2.7902	41.405
2.7782	34.874
2.7664	27.592
2.7546	23.684
2.7429	20.364
2.7314	17.857
2.7199	21.98
2.7085	38.024
2.6973	43.101
2.6861	54.934
2.675	66.984
2.664	69.97
2.6531	70.215
2.6423	70.276
2.6315	70.279
2.6209	70.248
2.6103	70.217
2.5999	70.107
2.5895	69.904
2.5792	69.637
2.569	69.202
2.5588	69.262
2.5487	69.527
2.5388	69.404
2.5289	69.141
2.519	68.623
2.5093	68.259
2.4996	68.001
2.49	67.878
2.4805	67.613
2.471	67.593
2.4616	67.424
2.4523	67.841
2.4431	67.9
2.4339	68.206
2.4248	67.524
2.4157	66.7
2.4068	65.455
2.3979	63.223
2.389	61.875
2.3802	63.923
2.3715	66.742
2.3629	67.872
2.3543	67.698
2.3458	66.705
2.3373	64.507
2.3289	61.256
2.3206	59.074
2.3123	59.712
2.3041	60.479
2.2959	61.554
2.2878	65.417
2.2798	67.85
2.2718	70.057
2.2638	71.064
2.2559	70.846
2.2481	70.933
2.2403	72.751
2.2326	73.832
2.225	74.124
2.2173	74.253
2.2098	74.301
2.2023	74.385
2.1948	74.516
2.1874	74.7
2.18	74.861
2.1727	75.055
2.1655	75.147
2.1583	75.157
2.1511	75.21
2.144	75.26
2.1369	75.128
2.1299	75.039
2.1229	75.153
2.116	75.277
2.1091	75.813
2.1023	76.464
2.0955	76.699
2.0887	76.871
2.082	77.087
2.06	77.498
2.028	77.432
1.996	76.823
1.964	75.882
1.932	75.772
1.9	76.724
1.868	77.539
1.836	78.107
1.804	77.091
1.772	76.115
1.74	75.183
1.708	75.305
1.676	74.595
1.644	73.573
1.612	72.122
1.58	71.66
1.548	69.145
1.516	68.229
1.484	66.315
1.452	65.028
1.42	62.652
1.388	55.751
1.356	58.374
1.324	55.763
1.292	52.814
1.26	50.562
1.228	47.802
1.196	44.397
1.164	41.791
1.132	40.341
1.1	38.266
1.068	35.869
1.036	34.262
1.004	33.844
0.972	33.581
0.94	33.527
0.908	33.15
0.876	33.095
0.844	33.102
0.812	33.248
0.795	32.584
0.787	32.426
0.779	31.863
0.771	31.563
0.763	31.224
0.755	30.991
0.747	30.389
0.739	30.213
0.731	30.061
0.723	29.693
0.715	29.65
0.707	29.219
0.699	29.307
0.691	29.368
0.683	29.168
0.675	29.556
0.667	29.384
0.659	29.663
0.651	28.91
0.643	29.704
0.635	28.939
0.627	28.882
0.619	29.692
0.611	29.663
0.603	29.663
0.595	29.675
0.587	29.784
0.579	30.094
0.571	30.087
0.563	30.015
0.555	29.551
0.547	29.434
0.539	29.511
0.531	28.683
0.523	28.482
0.515	28.316
0.507	27.714
0.499	26.953
0.491	26.675
0.483	25.908
0.475	24.786
0.467	23.939
0.459	24.005
0.451	23.457
0.443	22.763
0.435	22.966
0.427	22.076
0.419	21.306
0.411	20.171
0.403	20.01
