Name: Olivine Basalt Porphyry
Type: Rock
Class: Igneous
Subclass: Mafic
Particle Size: Solid
Sample No.: Ward36
Owner: JPL
Wavelength Range: VSWIR
Origin: Ward's Collection of American Rocks.  Sample locality - Valmont, Boulder county, Colorado.
Description: A black, fine-grained, porphyritic rock with phenocrysts ofaugite and olivine in a fine crystalline groundmass.Geologic Age - Tertiary (Eocene).Collected by:  Ward's Natural Science Original ASTER Spectral Library name was jpl.perkin.rock.igneous.mafic.solid.ward36.spectrum.txt
Measurement: Hemispherical reflectance
X Units: Wavelength (micrometers)
Y Units: Reflectance (percent)
wavelength	value
2.5	7.8791
2.494	7.3119
2.488	7.4233
2.482	7.4779
2.476	7.6443
2.47	7.6269
2.464	7.6884
2.458	7.8464
2.452	7.8494
2.446	7.8602
2.44	8.0816
2.434	8.1277
2.428	8.1709
2.422	8.2948
2.416	8.3512
2.41	8.4715
2.404	8.4489
2.398	8.5274
2.392	8.5632
2.386	8.6814
2.38	8.7046
2.374	8.7685
2.368	8.8033
2.362	8.8401
2.356	8.9279
2.35	8.9241
2.344	8.9517
2.338	8.9565
2.332	9.0013
2.326	9.0261
2.32	9.1093
2.314	9.0995
2.308	9.1115
2.302	9.1593
2.296	9.2081
2.29	9.2622
2.284	9.3271
2.278	9.2619
2.272	9.3206
2.266	9.3923
2.26	9.3925
2.254	9.4389
2.248	9.4937
2.242	9.5
2.236	9.4584
2.23	9.5815
2.224	9.4424
2.218	9.587
2.212	9.6767
2.206	9.6452
2.2	9.7164
2.194	9.707
2.188	9.7025
2.182	9.7534
2.176	9.7352
2.17	9.753
2.164	9.7612
2.158	9.8032
2.152	9.792
2.146	9.9065
2.14	9.926
2.134	9.7766
2.128	9.8516
2.122	9.8415
2.116	9.7803
2.11	9.7999
2.104	9.7884
2.098	9.7126
2.092	9.7522
2.086	9.7324
2.08	9.7768
2.074	9.8146
2.068	9.7933
2.062	9.7795
2.056	9.7815
2.05	9.8297
2.044	9.8215
2.038	9.7955
2.032	9.8241
2.026	9.7806
2.02	9.7784
2.014	9.6528
2.008	9.6282
2.002	9.6327
1.996	9.5726
1.99	9.5491
1.984	9.434
1.978	9.4474
1.972	9.3626
1.966	9.346
1.96	9.3271
1.954	9.2844
1.948	9.2177
1.942	9.1626
1.936	9.1684
1.93	9.1138
1.924	8.9429
1.918	8.9732
1.912	8.9179
1.906	9.167
1.9	9.5878
1.894	9.9507
1.888	10.1724
1.882	10.3052
1.876	10.3091
1.87	10.4205
1.864	10.5048
1.858	10.4989
1.852	10.4958
1.846	10.5469
1.84	10.5285
1.834	10.593
1.828	10.5919
1.822	10.6046
1.816	10.5653
1.81	10.6038
1.804	10.5944
1.798	10.6474
1.792	10.6728
1.786	10.5953
1.78	10.5999
1.774	10.6165
1.768	10.5992
1.762	10.6723
1.756	10.6301
1.75	10.715
1.744	10.7274
1.738	10.6937
1.732	10.7411
1.726	10.6952
1.72	10.7363
1.714	10.815
1.708	10.7609
1.702	10.7306
1.696	10.7026
1.69	10.77
1.684	10.6995
1.678	10.7742
1.672	10.8167
1.666	10.7282
1.66	10.7773
1.654	10.7422
1.648	10.6755
1.642	10.8241
1.636	10.7232
1.63	10.76
1.624	10.7222
1.618	10.7502
1.612	10.7425
1.606	10.6682
1.6	10.7082
1.594	10.7348
1.588	10.6557
1.582	10.7261
1.576	10.6353
1.57	10.7489
1.564	10.6444
1.558	10.729
1.552	10.6749
1.546	10.6775
1.54	10.703
1.534	10.6993
1.528	10.6391
1.522	10.6487
1.516	10.5994
1.51	10.5978
1.504	10.6257
1.498	10.585
1.492	10.5628
1.486	10.5696
1.48	10.5328
1.474	10.4885
1.468	10.4992
1.462	10.4665
1.456	10.4907
1.45	10.4366
1.444	10.4265
1.438	10.415
1.432	10.309
1.426	10.266
1.42	10.3414
1.414	10.3153
1.408	10.4316
1.402	10.3977
1.396	10.4233
1.39	10.4273
1.384	10.4192
1.378	10.5053
1.372	10.4462
1.366	10.5207
1.36	10.4607
1.354	10.5005
1.348	10.4273
1.342	10.4775
1.336	10.4548
1.33	10.4791
1.324	10.4932
1.318	10.4409
1.312	10.4298
1.306	10.452
1.3	10.412
1.294	10.3771
1.288	10.5014
1.282	10.4033
1.276	10.4509
1.27	10.4223
1.264	10.4389
1.258	10.4471
1.252	10.3778
1.246	10.4743
1.24	10.4397
1.234	10.394
1.228	10.4764
1.222	10.4576
1.216	10.4857
1.21	10.4614
1.204	10.4797
1.198	10.4397
1.192	10.4759
1.186	10.4839
1.18	10.4941
1.174	10.4962
1.168	10.4961
1.162	10.473
1.156	10.5186
1.15	10.5588
1.144	10.5123
1.138	10.5125
1.132	10.5301
1.126	10.5143
1.12	10.6005
1.114	10.5198
1.108	10.6265
1.102	10.6201
1.096	10.6014
1.09	10.6703
1.084	10.6588
1.078	10.6347
1.072	10.6601
1.066	10.7254
1.06	10.6919
1.054	10.6696
1.048	10.6969
1.042	10.7319
1.036	10.708
1.03	10.7495
1.024	10.7889
1.018	10.854
1.012	10.8351
1.006	10.8747
1	10.9567
0.994	10.9168
0.988	10.9402
0.982	10.9226
0.976	11.013
0.97	11.0346
0.964	11.0358
0.958	11.0616
0.952	11.0991
0.946	11.1487
0.94	11.0946
0.934	11.1414
0.928	11.1975
0.922	11.1432
0.916	11.1566
0.91	11.1736
0.904	11.2087
0.898	11.2781
0.892	11.2491
0.886	11.2673
0.88	11.293
0.874	11.3127
0.868	11.2704
0.862	11.2581
0.856	11.2078
0.85	11.3265
0.844	11.3956
0.838	11.4347
0.832	11.4522
0.826	11.4735
0.82	11.4756
0.814	11.5269
0.808	11.5791
0.802	11.5933
0.796	11.5655
0.79	11.5637
0.784	11.5696
0.778	11.6151
0.772	11.6258
0.766	11.6403
0.76	11.6534
0.754	11.6747
0.748	11.6675
0.742	11.6796
0.736	11.7063
0.73	11.7194
0.724	11.7442
0.718	11.775
0.712	11.8095
0.706	11.8337
0.7	11.865
0.694	11.8948
0.688	11.9295
0.682	11.9578
0.676	11.997
0.67	12.0388
0.664	12.0745
0.658	12.1119
0.652	12.146
0.646	12.1872
0.64	12.2238
0.634	12.2608
0.628	12.2977
0.622	12.3319
0.616	12.37
0.61	12.4037
0.604	12.4374
0.598	12.4771
0.592	12.5083
0.586	12.5362
0.58	12.557
0.574	12.5747
0.568	12.5864
0.562	12.5853
0.556	12.5897
0.55	12.5838
0.544	12.5689
0.538	12.5481
0.532	12.5196
0.526	12.4878
0.52	12.4429
0.514	12.3984
0.508	12.3399
0.502	12.2747
0.496	12.2177
0.49	12.17
0.484	12.1375
0.478	12.0904
0.472	12.0445
0.466	11.9962
0.46	11.9433
0.454	11.8805
0.448	11.8228
0.442	11.7473
0.436	11.6692
0.43	11.5765
0.424	11.4859
0.418	11.3924
0.412	11.3025
0.406	11.2173
0.4	11.1092
