Name: Gray Sandstone
Type: Rock
Class: Sedimentary
Subclass: Sandstone
Particle Size: Solid
Sample No.: Ward58
Owner: JPL
Wavelength Range: VSWIR
Origin: Ward's Collection of American Rocks.  Sample locality - Berea, Cuyahoga County, Ohio.
Description: A light-gray, fine-grained sandstone showing fine parallelbedding lines.Geologic age - Mississippian.Collected by:  Ward's Natural Science Original ASTER Spectral Library name was jpl.perkin.rock.sedimentary.sandstone.solid.ward58.spectrum.txt
Measurement: Hemispherical reflectance
X Units: Wavelength (micrometers)
Y Units: Reflectance (percent)
wavelength	value
2.5	40.8153
2.494	40.9435
2.488	41.026
2.482	41.4334
2.476	41.9017
2.47	42.1391
2.464	42.3984
2.458	42.6401
2.452	42.8603
2.446	43.3212
2.44	43.6173
2.434	44.2356
2.428	44.938
2.422	45.4731
2.416	45.9497
2.41	46.3241
2.404	46.471
2.398	46.4661
2.392	46.3186
2.386	46.0555
2.38	46.0075
2.374	46.281
2.368	46.5329
2.362	46.6957
2.356	46.7344
2.35	47.0124
2.344	47.2264
2.338	47.6332
2.332	47.8555
2.326	47.9912
2.32	48.2579
2.314	48.6261
2.308	49.159
2.302	49.6726
2.296	50.0236
2.29	50.3679
2.284	50.6318
2.278	50.8216
2.272	51.0582
2.266	51.2623
2.26	51.3114
2.254	51.3872
2.248	51.44
2.242	51.4824
2.236	51.5161
2.23	51.3438
2.224	50.6393
2.218	48.8433
2.212	46.3658
2.206	45.1703
2.2	46.8368
2.194	48.207
2.188	49.12
2.182	49.9297
2.176	50.1195
2.17	50.0414
2.164	50.0047
2.158	50.4119
2.152	51.4866
2.146	52.927
2.14	54.1903
2.134	54.8353
2.128	55.097
2.122	55.1215
2.116	55.0558
2.11	55.1052
2.104	55.2166
2.098	55.2412
2.092	55.3523
2.086	55.463
2.08	55.7018
2.074	55.7943
2.068	55.8698
2.062	55.9966
2.056	55.9844
2.05	55.962
2.044	55.9871
2.038	56.0083
2.032	55.8704
2.026	55.8315
2.02	55.7256
2.014	55.6289
2.008	55.4948
2.002	55.3
1.996	55.0899
1.99	54.9544
1.984	54.7269
1.978	54.4941
1.972	54.3024
1.966	54.1231
1.96	53.8753
1.954	53.7729
1.948	53.5745
1.942	53.5165
1.936	53.4191
1.93	53.3078
1.924	53.2088
1.918	53.3917
1.912	53.5632
1.906	54.0682
1.9	55.0059
1.894	56.0345
1.888	56.891
1.882	57.588
1.876	57.9289
1.87	58.4388
1.864	58.629
1.858	58.6317
1.852	58.8056
1.846	58.71
1.84	58.7511
1.834	58.749
1.828	58.7172
1.822	58.5729
1.816	58.5746
1.81	58.6438
1.804	58.6265
1.798	58.6027
1.792	58.5699
1.786	58.5365
1.78	58.5662
1.774	58.6559
1.768	58.6171
1.762	58.5614
1.756	58.5917
1.75	58.5885
1.744	58.5374
1.738	58.5233
1.732	58.5142
1.726	58.5242
1.72	58.5599
1.714	58.4841
1.708	58.4356
1.702	58.3499
1.696	58.3123
1.69	58.33
1.684	58.2091
1.678	58.2427
1.672	58.0617
1.666	58.1557
1.66	58.0773
1.654	57.9612
1.648	57.883
1.642	57.9295
1.636	57.8102
1.63	57.7159
1.624	57.6692
1.618	57.5923
1.612	57.5353
1.606	57.4767
1.6	57.3858
1.594	57.3209
1.588	57.1587
1.582	57.1618
1.576	56.9664
1.57	56.8578
1.564	56.7977
1.558	56.7045
1.552	56.58
1.546	56.4495
1.54	56.3994
1.534	56.24
1.528	56.0127
1.522	56.0245
1.516	55.795
1.51	55.6802
1.504	55.4993
1.498	55.4187
1.492	55.2298
1.486	55.0992
1.48	54.9561
1.474	54.7551
1.468	54.6244
1.462	54.4954
1.456	54.2901
1.45	54.2068
1.444	54.009
1.438	53.7562
1.432	53.4356
1.426	52.9125
1.42	51.1896
1.414	48.8167
1.408	49.8933
1.402	50.2308
1.396	49.7322
1.39	51.724
1.384	52.5714
1.378	52.9021
1.372	53.0057
1.366	52.847
1.36	52.6716
1.354	52.6052
1.348	52.7379
1.342	52.6809
1.336	52.6163
1.33	52.529
1.324	52.3249
1.318	52.2492
1.312	52.1118
1.306	52.0455
1.3	51.8995
1.294	51.8506
1.288	51.732
1.282	51.7601
1.276	51.5087
1.27	51.3607
1.264	51.2745
1.258	51.1108
1.252	51.0124
1.246	50.815
1.24	50.6685
1.234	50.3811
1.228	50.4793
1.222	50.3352
1.216	50.1544
1.21	50.105
1.204	49.9926
1.198	49.8548
1.192	49.6327
1.186	49.5749
1.18	49.5104
1.174	49.4279
1.168	49.2887
1.162	49.2244
1.156	49.149
1.15	49.0044
1.144	48.9873
1.138	48.8804
1.132	48.7921
1.126	48.7786
1.12	48.6273
1.114	48.5639
1.108	48.5315
1.102	48.4753
1.096	48.4934
1.09	48.3769
1.084	48.3447
1.078	48.3169
1.072	48.2729
1.066	48.3922
1.06	48.2498
1.054	48.2233
1.048	48.2189
1.042	48.1203
1.036	48.0621
1.03	48.1668
1.024	48.0862
1.018	48.0661
1.012	48.0574
1.006	48.0211
1	47.9836
0.994	47.9725
0.988	47.9089
0.982	47.8687
0.976	47.7454
0.97	47.8296
0.964	47.5829
0.958	47.5132
0.952	47.5101
0.946	47.4979
0.94	47.4256
0.934	47.3698
0.928	47.3282
0.922	47.2641
0.916	47.2318
0.91	47.196
0.904	47.1615
0.898	47.1116
0.892	47.1915
0.886	47.1692
0.88	47.2206
0.874	47.2558
0.868	47.1674
0.862	47.2612
0.856	47.7635
0.85	47.7063
0.844	47.7165
0.838	47.7183
0.832	47.699
0.826	47.6332
0.82	47.5852
0.814	47.553
0.808	47.4739
0.802	47.3704
0.796	47.1794
0.79	47.0365
0.784	46.92
0.778	46.6929
0.772	46.578
0.766	46.3862
0.76	46.2219
0.754	46.0674
0.748	45.939
0.742	45.7837
0.736	45.653
0.73	45.5407
0.724	45.4435
0.718	45.3425
0.712	45.2628
0.706	45.1791
0.7	45.1151
0.694	45.071
0.688	44.9903
0.682	44.9488
0.676	44.9102
0.67	44.8708
0.664	44.8505
0.658	44.8139
0.652	44.7797
0.646	44.7519
0.64	44.713
0.634	44.6741
0.628	44.6553
0.622	44.6002
0.616	44.5713
0.61	44.5208
0.604	44.4618
0.598	44.396
0.592	44.3186
0.586	44.1887
0.58	44.0204
0.574	43.8172
0.568	43.5776
0.562	43.2911
0.556	42.9834
0.55	42.634
0.544	42.282
0.538	41.9024
0.532	41.5037
0.526	41.0898
0.52	40.6495
0.514	40.203
0.508	39.7295
0.502	39.2262
0.496	38.7334
0.49	38.2528
0.484	37.8009
0.478	37.3275
0.472	36.8802
0.466	36.4481
0.46	36.0577
0.454	35.6142
0.448	35.1106
0.442	34.5587
0.436	33.9266
0.43	33.2748
0.424	32.5725
0.418	31.8915
0.412	31.2248
0.406	30.5763
0.4	29.9054
