Name: Syenite
Type: Rock
Class: Igneous
Subclass: Alkalic
Particle Size: Solid
Sample No.: Ward18
Owner: JPL
Wavelength Range: VSWIR
Origin: Ward's Collection of American Rocks.  Sample locality - Golden Cycle Mine, near Victor, Teller County, Colorado.
Description: A gray, medium-grained rock spotted with black prismaticcrystals.Geologic age - Post-Oligocene.Collected by:  Ward's Natural Science Original ASTER Spectral Library name was jpl.perkin.rock.igneous.alkalic.solid.ward18.spectrum.txt
Measurement: Hemispherical reflectance
X Units: Wavelength (micrometers)
Y Units: Reflectance (percent)
wavelength	value
2.5	12.8794
2.494	12.7554
2.488	12.8355
2.482	13.1696
2.476	13.3282
2.47	13.7504
2.464	13.8363
2.458	14.3148
2.452	14.6011
2.446	14.9434
2.44	15.2742
2.434	15.6883
2.428	15.97
2.422	16.2879
2.416	16.5747
2.41	16.7521
2.404	16.9898
2.398	17.0191
2.392	17.2643
2.386	17.4018
2.38	17.5433
2.374	17.5761
2.368	17.699
2.362	17.6951
2.356	17.7321
2.35	17.6737
2.344	17.7452
2.338	17.805
2.332	17.9377
2.326	18.044
2.32	18.1871
2.314	18.3067
2.308	18.4832
2.302	18.5771
2.296	18.7463
2.29	18.8185
2.284	18.8966
2.278	18.9108
2.272	18.9574
2.266	19.0343
2.26	19.0442
2.254	19.0911
2.248	19.147
2.242	19.4029
2.236	19.4656
2.23	19.492
2.224	19.5347
2.218	19.5657
2.212	19.6433
2.206	19.5817
2.2	19.5868
2.194	19.6056
2.188	19.7322
2.182	19.8951
2.176	19.8945
2.17	19.9916
2.164	20.0667
2.158	20.0906
2.152	20.107
2.146	20.2138
2.14	20.1982
2.134	20.2314
2.128	20.2031
2.122	20.2786
2.116	20.2425
2.11	20.2483
2.104	20.1692
2.098	20.2656
2.092	20.2743
2.086	20.301
2.08	20.3774
2.074	20.4125
2.068	20.4633
2.062	20.4342
2.056	20.4377
2.05	20.4806
2.044	20.5029
2.038	20.4165
2.032	20.4619
2.026	20.4161
2.02	20.3925
2.014	20.3287
2.008	20.2152
2.002	20.1108
1.996	20.0366
1.99	19.9135
1.984	19.6827
1.978	19.4469
1.972	19.2034
1.966	19.0185
1.96	18.7318
1.954	18.4692
1.948	18.1562
1.942	17.8294
1.936	17.3224
1.93	16.805
1.924	15.7851
1.918	14.7408
1.912	14.2364
1.906	15.1231
1.9	17.0103
1.894	18.5758
1.888	19.4936
1.882	20.0501
1.876	20.5222
1.87	20.4893
1.864	20.8568
1.858	21.0094
1.852	21.0967
1.846	21.1003
1.84	21.1876
1.834	21.0906
1.828	21.0805
1.822	21.1729
1.816	21.0288
1.81	21.045
1.804	20.9737
1.798	20.9796
1.792	20.9348
1.786	20.9484
1.78	20.9901
1.774	20.9802
1.768	21.0486
1.762	21.0845
1.756	21.1196
1.75	21.1478
1.744	21.2295
1.738	21.2471
1.732	21.2916
1.726	21.3169
1.72	21.2802
1.714	21.2267
1.708	21.2853
1.702	21.3156
1.696	21.2391
1.69	21.2527
1.684	21.2816
1.678	21.2027
1.672	21.2178
1.666	21.1973
1.66	21.2377
1.654	21.1579
1.648	21.1566
1.642	21.2631
1.636	21.1822
1.63	21.0996
1.624	21.1291
1.618	21.1325
1.612	21.0515
1.606	21.1177
1.6	21.0616
1.594	21.0054
1.588	21.0736
1.582	20.9413
1.576	20.9005
1.57	20.9479
1.564	20.8948
1.558	20.8774
1.552	20.8094
1.546	20.8177
1.54	20.7416
1.534	20.75
1.528	20.7071
1.522	20.6422
1.516	20.613
1.51	20.6145
1.504	20.5404
1.498	20.5094
1.492	20.3724
1.486	20.2871
1.48	20.0646
1.474	19.9008
1.468	19.7053
1.462	19.8054
1.456	19.8661
1.45	19.6965
1.444	19.4481
1.438	19.116
1.432	18.5324
1.426	18.1914
1.42	18.3643
1.414	19.0401
1.408	19.6082
1.402	19.8721
1.396	19.9618
1.39	20.1114
1.384	20.1825
1.378	20.2016
1.372	20.2897
1.366	20.3099
1.36	20.2137
1.354	20.3121
1.348	20.3052
1.342	20.2701
1.336	20.2812
1.33	20.3575
1.324	20.3783
1.318	20.2825
1.312	20.2958
1.306	20.3351
1.3	20.3408
1.294	20.2602
1.288	20.3519
1.282	20.2774
1.276	20.3254
1.27	20.3352
1.264	20.3171
1.258	20.2379
1.252	20.3119
1.246	20.2559
1.24	20.2709
1.234	20.2281
1.228	20.2871
1.222	20.3258
1.216	20.3054
1.21	20.2613
1.204	20.2853
1.198	20.2667
1.192	20.2245
1.186	20.2643
1.18	20.2818
1.174	20.2164
1.168	20.2139
1.162	20.1637
1.156	20.2583
1.15	20.3503
1.144	20.4588
1.138	20.4635
1.132	20.5145
1.126	20.5426
1.12	20.4397
1.114	20.506
1.108	20.5139
1.102	20.5839
1.096	20.6272
1.09	20.6753
1.084	20.6221
1.078	20.6565
1.072	20.6745
1.066	20.7431
1.06	20.7253
1.054	20.7825
1.048	20.8116
1.042	20.8131
1.036	20.8834
1.03	20.9019
1.024	20.927
1.018	20.991
1.012	20.9528
1.006	21.0081
1	21.0359
0.994	21.0231
0.988	21.0393
0.982	21.1433
0.976	21.1249
0.97	21.0078
0.964	21.1752
0.958	21.2125
0.952	21.2192
0.946	21.3286
0.94	21.3579
0.934	21.3983
0.928	21.4397
0.922	21.4827
0.916	21.5437
0.91	21.6136
0.904	21.6409
0.898	21.6753
0.892	21.6938
0.886	21.7026
0.88	21.7861
0.874	21.8516
0.868	21.7681
0.862	21.7595
0.856	21.6133
0.85	21.6744
0.844	21.783
0.838	21.787
0.832	21.8392
0.826	21.848
0.82	21.8688
0.814	21.8774
0.808	21.894
0.802	21.9176
0.796	21.9267
0.79	21.9204
0.784	21.9326
0.778	21.9331
0.772	21.9439
0.766	21.9331
0.76	21.9379
0.754	21.9399
0.748	21.9617
0.742	21.9788
0.736	21.997
0.73	22.0116
0.724	22.0256
0.718	22.0534
0.712	22.0661
0.706	22.0947
0.7	22.119
0.694	22.1336
0.688	22.1608
0.682	22.1799
0.676	22.2123
0.67	22.2369
0.664	22.2706
0.658	22.3035
0.652	22.3423
0.646	22.3692
0.64	22.3988
0.634	22.4265
0.628	22.4498
0.622	22.4773
0.616	22.508
0.61	22.5283
0.604	22.5597
0.598	22.591
0.592	22.6169
0.586	22.6319
0.58	22.6343
0.574	22.6367
0.568	22.6308
0.562	22.623
0.556	22.6168
0.55	22.5988
0.544	22.582
0.538	22.5496
0.532	22.5181
0.526	22.4802
0.52	22.4292
0.514	22.3714
0.508	22.2913
0.502	22.2082
0.496	22.0942
0.49	21.9723
0.484	21.8601
0.478	21.7116
0.472	21.593
0.466	21.5537
0.46	21.4843
0.454	21.3853
0.448	21.3654
0.442	21.2745
0.436	21.1053
0.43	20.8953
0.424	20.6545
0.418	20.4096
0.412	20.18
0.406	19.9962
0.4	19.8316
