Name: Oolitic Limestone
Type: rock
Class: Sedimentary
Subclass: Limestone
Particle Size: Coarse
Sample No.: limestone_4
Owner: JHU
Wavelength Range: All
Origin: Sample No. 354,  The Hunt and Salisbury Collection at the U.S.Geological Survey, Denver, Co.
Description: Ooids (~ 1 mm diameter) with good laminar structure and occasionally with cores of recrystallized silica or carbonate are set in a micritic (microcrystalline calcite) groundmass. Some areas of this groundmass also contain recrystallized silica and carbonate. In addition there has been some compaction of the sample. While still soft, most ooids are slightly deformed with continuous boundaries. Particle size was 500 - 1500 Micrometers. Original ASTER Spectral Library name was jhu.becknic.rock.sedimentary.limestone.coarse.limest4.spectrum.txt
Measurement: Directional (10 Degree) Hemispherical Reflectance
X Units: Wavelength (micrometers)
Y Units: Reflectance (percent)
wavelength	value
14.9831	3.9558
14.6445	3.394
14.3209	3.0033
14.0112	2.0622
13.7147	2.8456
13.4304	3.754
13.1577	3.7403
12.8959	3.4639
12.6443	3.5458
12.4023	3.9427
12.1694	3.9792
11.945	3.9529
11.7289	3.5556
11.5203	4.46
11.3191	12.9382
11.1248	6.1087
10.937	5.3324
10.7555	4.3825
10.5799	4.2085
10.4099	4.5559
10.2454	4.3621
10.0859	4.2662
9.9313	4.2383
9.7814	4.3396
9.636	4.9987
9.4948	5.4496
9.3577	5.6665
9.2245	5.5574
9.095	6.2953
8.9691	6.26
8.8467	6.2967
8.7275	5.6973
8.6116	4.4751
8.4986	4.5871
8.3886	4.8803
8.2814	5.2481
8.1769	5.3255
8.075	4.9644
7.9756	4.9812
7.8786	4.7446
7.784	4.755
7.6916	4.7271
7.6014	4.6226
7.5133	4.8483
7.4272	5.1389
7.343	5.5884
7.2607	6.4596
7.1803	8.4908
7.1016	12.3175
7.0246	14.0775
6.9493	14.6203
6.8755	15.8359
6.8034	17.0964
6.7327	18.5408
6.6634	20.0569
6.5956	22.0646
6.5292	23.7941
6.464	22.7367
6.4002	10.965
6.3376	4.419
6.2762	2.2088
6.216	1.3247
6.157	1.0394
6.099	1.0204
6.0421	1.056
5.9863	1.113
5.9315	1.2404
5.8777	1.3385
5.8249	1.2871
5.773	1.2885
5.722	1.3707
5.6719	1.5573
5.6227	1.6674
5.5744	1.1085
5.5268	1.6002
5.4801	2.7217
5.4341	3.8355
5.3889	5.0089
5.3445	6.1456
5.3008	7.3294
5.2578	8.3589
5.2154	9.4961
5.1738	10.2645
5.1328	10.6868
5.0925	8.7342
5.0528	11.585
5.0137	11.6409
4.9752	11.9019
4.9373	12.4191
4.9	13.2316
4.8632	14.4623
4.827	15.2154
4.7913	15.3992
4.7561	14.4195
4.7215	10.9139
4.6873	6.2465
4.6536	6.4331
4.6205	10.2979
4.5877	12.0793
4.5555	12.4418
4.5237	12.399
4.4923	12.8238
4.4614	14.6141
4.4309	16.3751
4.4008	17.2265
4.3711	17.5402
4.3418	15.7719
4.3129	13.7296
4.2844	10.6432
4.2563	9.8743
4.2285	12.5671
4.2011	14.7524
4.174	14.4867
4.1473	13.2252
4.1209	11.2525
4.0949	9.3104
4.0692	7.1137
4.0438	4.6279
4.0187	2.8337
3.994	2.1145
3.9695	1.9547
3.9453	2.282
3.9214	2.6822
3.8979	2.8212
3.8746	2.8778
3.8515	2.9806
3.8288	3.5596
3.8063	5.451
3.7841	10.8869
3.7621	13.6198
3.7404	14.8344
3.7189	15.9801
3.6977	16.4528
3.6767	16.5319
3.656	16.1373
3.6355	15.4553
3.6152	14.5438
3.5951	12.8181
3.5753	9.4899
3.5557	8.621
3.5363	6.1245
3.5171	3.3649
3.4981	2.771
3.4793	2.4271
3.4607	3.063
3.4423	3.3176
3.4241	3.3595
3.4061	3.3483
3.3883	3.2304
3.3707	3.1568
3.3533	2.7949
3.336	4.8291
3.3189	7.8597
3.302	9.4677
3.2853	10.4862
3.2687	11.2523
3.2523	11.7283
3.2361	11.9182
3.22	12.1307
3.204	12.0823
3.1883	11.8446
3.1727	11.3586
3.1572	10.3024
3.1419	10.0812
3.1268	10.0232
3.1117	9.3199
3.0969	9.3928
3.0821	9.8056
3.0675	9.907
3.0531	9.8826
3.0388	9.9396
3.0246	9.8257
3.0105	9.7549
2.9966	9.6983
2.9828	9.5617
2.9692	9.4063
2.9556	9.2541
2.9422	9.2377
2.9289	9.2972
2.9157	9.3239
2.9027	9.4831
2.8897	9.5574
2.8769	9.8262
2.8642	10.0218
2.8516	10.2747
2.8391	10.4374
2.8267	10.5485
2.8144	10.4647
2.8022	10.1149
2.7902	9.1245
2.7782	9.404
2.7664	9.7201
2.7546	10.2558
2.7429	11.0385
2.7314	12.3765
2.7199	14.0273
2.7085	14.9679
2.6973	17.944
2.6861	22.1136
2.675	23.787
2.664	24.5303
2.6531	25.1065
2.6423	25.2761
2.6315	25.3005
2.6209	25.1986
2.6103	25.2486
2.5999	25.0956
2.5895	24.6255
2.5792	24.0404
2.569	23.3569
2.5588	21.6182
2.5487	18.2786
2.5388	15.9784
2.5289	16.4871
2.519	18.1287
2.5093	18.9472
2.4996	19.2733
2.49	19.6143
2.4805	20.4019
2.471	21.5569
2.4616	22.7438
2.4523	23.4869
2.4431	24.0074
2.4339	24.5327
2.4248	24.8784
2.4157	25.1423
2.4068	25.2218
2.3979	25.1887
2.389	25.1546
2.3802	24.9722
2.3715	24.4988
2.3629	23.4737
2.3543	21.779
2.3458	20.4694
2.3373	20.1376
2.3289	20.8422
2.3206	21.7297
2.3123	22.2763
2.3041	22.5382
2.2959	22.8276
2.2878	23.2084
2.2798	23.7846
2.2718	24.226
2.2638	24.5306
2.2559	24.7096
2.2481	25.0063
2.2403	25.164
2.2326	25.192
2.225	25.2337
2.2173	25.2285
2.2098	25.0307
2.2023	25.1465
2.1948	25.3791
2.1874	25.4082
2.18	25.5543
2.1727	25.4885
2.1655	25.4146
2.1583	25.3502
2.1511	25.5448
2.144	25.5969
2.1369	25.703
2.1299	25.7537
2.1229	25.7315
2.116	25.6599
2.1091	25.7873
2.1023	25.7116
2.0955	25.6
2.0887	25.7101
2.082	25.6839
2.06	25.5713
2.028	25.526
1.996	25.0521
1.964	24.7624
1.932	24.7917
1.9	24.851
1.868	24.8004
1.836	24.9042
1.804	24.9917
1.772	24.9126
1.74	24.6934
1.708	24.4162
1.676	24.5659
1.644	24.3234
1.612	24.443
1.58	24.1531
1.548	23.9668
1.516	23.5146
1.484	23.2181
1.452	23.0993
1.42	22.9815
1.388	22.7542
1.356	22.7221
1.324	22.6598
1.292	22.4448
1.26	22.2225
1.228	21.9728
1.196	22.1871
1.164	21.8393
1.132	21.5793
1.1	21.1749
1.068	20.8889
1.036	20.9846
1.004	20.6715
0.972	20.5323
0.94	20.6193
0.908	20.3112
0.876	20.2691
0.844	19.9931
0.812	19.9173
0.795	19.9921
0.787	19.7249
0.779	19.9513
0.771	19.6399
0.763	19.8316
0.755	19.7349
0.747	19.5995
0.739	19.5979
0.731	19.349
0.723	19.0299
0.715	19.1239
0.707	18.9034
0.699	18.903
0.691	18.625
0.683	18.7043
0.675	18.6696
0.667	18.3276
0.659	18.0756
0.651	18.0977
0.643	17.8978
0.635	17.7181
0.627	17.6447
0.619	17.3973
0.611	17.3164
0.603	17.1918
0.595	17.1313
0.587	17.2749
0.579	16.7959
0.571	16.6173
0.563	16.3065
0.555	15.7859
0.547	15.5732
0.539	15.3629
0.531	15.0805
0.523	14.7904
0.515	14.7047
0.507	14.3144
0.499	14.2631
0.491	13.9417
0.483	13.6531
0.475	13.3998
0.467	13.5141
0.459	13.0104
0.451	13.0101
0.443	12.6511
0.435	12.2062
0.427	11.9904
0.419	11.6195
0.411	11.2106
0.403	11.1128
