Name: Hornblende Schist
Type: Rock
Class: Metamorphic
Subclass: Schist
Particle Size: Solid
Sample No.: Ward86
Owner: JPL
Wavelength Range: VSWIR
Origin: Ward's Collection of American Rocks.  Sample locality - Mitchell County, North Carolina.  Collected by - JPL.
Description: A medium-grained, schistose, greenish black rock.  Thehand specimen is usually composed entirely of hornblende though smallamounts of quartz may be present.  Geologic age - Pre-CambrianCollected by:  Ward's Natural Science Original ASTER Spectral Library name was jpl.perkin.rock.metamorphic.schist.solid.ward86.spectrum.txt
Measurement: Hemispherical reflectance
X Units: Wavelength (micrometers)
Y Units: Reflectance (percent)
wavelength	value
2.5	11.1361
2.494	10.8692
2.488	10.9692
2.482	11.0622
2.476	11.1633
2.47	11.1183
2.464	11.2957
2.458	11.1524
2.452	11.2669
2.446	11.351
2.44	11.318
2.434	11.1964
2.428	11.0794
2.422	10.8957
2.416	10.6607
2.41	10.4039
2.404	10.1577
2.398	9.914
2.392	9.8512
2.386	9.8385
2.38	10.0713
2.374	10.2006
2.368	10.3043
2.362	10.259
2.356	10.0135
2.35	9.6873
2.344	9.373
2.338	9.2205
2.332	9.0793
2.326	8.9734
2.32	8.9575
2.314	8.9993
2.308	9.1392
2.302	9.2755
2.296	9.631
2.29	10.1732
2.284	10.937
2.278	11.7519
2.272	12.3952
2.266	12.6714
2.26	12.8065
2.254	12.7446
2.248	12.956
2.242	13.5681
2.236	14.2341
2.23	14.6529
2.224	14.8941
2.218	15.1015
2.212	15.2692
2.206	15.2703
2.2	15.4157
2.194	15.5749
2.188	15.6514
2.182	15.7961
2.176	15.8589
2.17	15.9175
2.164	16.0018
2.158	16.0955
2.152	16.1941
2.146	16.2759
2.14	16.2471
2.134	16.3339
2.128	16.4149
2.122	16.5636
2.116	16.6448
2.11	16.8397
2.104	17.0375
2.098	17.1937
2.092	17.3741
2.086	17.6371
2.08	17.7844
2.074	17.8861
2.068	18.0967
2.062	18.2102
2.056	18.2877
2.05	18.4194
2.044	18.5565
2.038	18.6865
2.032	18.7384
2.026	18.8632
2.02	18.8821
2.014	18.8974
2.008	18.9399
2.002	18.9906
1.996	19.0548
1.99	19.1104
1.984	19.1081
1.978	19.2235
1.972	19.2105
1.966	19.3218
1.96	19.1767
1.954	19.2206
1.948	19.2009
1.942	19.1125
1.936	19.2001
1.93	19.0573
1.924	18.9881
1.918	18.9739
1.912	18.9705
1.906	19.0495
1.9	19.3909
1.894	19.717
1.888	19.944
1.882	20.0129
1.876	19.9731
1.87	20.1669
1.864	20.1419
1.858	20.1524
1.852	20.1279
1.846	20.0758
1.84	20.0445
1.834	19.9766
1.828	19.9553
1.822	19.9277
1.816	19.8908
1.81	19.915
1.804	19.8554
1.798	19.7832
1.792	19.6957
1.786	19.56
1.78	19.4357
1.774	19.3719
1.768	19.2744
1.762	19.1772
1.756	19.1261
1.75	18.9833
1.744	18.8736
1.738	18.7771
1.732	18.6366
1.726	18.5866
1.72	18.4603
1.714	18.4012
1.708	18.1867
1.702	18.1428
1.696	17.9804
1.69	17.9372
1.684	17.8208
1.678	17.6971
1.672	17.5251
1.666	17.4732
1.66	17.3533
1.654	17.2397
1.648	17.068
1.642	17.0436
1.636	16.7607
1.63	16.6884
1.624	16.5555
1.618	16.4726
1.612	16.3195
1.606	16.1277
1.6	16.1181
1.594	15.9304
1.588	15.7481
1.582	15.6104
1.576	15.476
1.57	15.3248
1.564	15.1392
1.558	15.0668
1.552	14.9039
1.546	14.8663
1.54	14.7485
1.534	14.6222
1.528	14.4822
1.522	14.3435
1.516	14.25
1.51	14.1332
1.504	14.004
1.498	13.8583
1.492	13.7807
1.486	13.6201
1.48	13.5187
1.474	13.3899
1.468	13.2538
1.462	13.1325
1.456	12.9567
1.45	12.8827
1.444	12.7355
1.438	12.599
1.432	12.4315
1.426	12.1486
1.42	11.7435
1.414	11.2853
1.408	11.1361
1.402	11.0678
1.396	11.1095
1.39	11.347
1.384	11.3069
1.378	11.3519
1.372	11.3418
1.366	11.2401
1.36	11.075
1.354	11.051
1.348	10.9186
1.342	10.7882
1.336	10.7029
1.33	10.5623
1.324	10.5171
1.318	10.4866
1.312	10.3306
1.306	10.2436
1.3	10.0705
1.294	10.0384
1.288	9.9008
1.282	9.8368
1.276	9.8164
1.27	9.7065
1.264	9.6843
1.258	9.5558
1.252	9.5476
1.246	9.4445
1.24	9.3968
1.234	9.2945
1.228	9.2879
1.222	9.1916
1.216	9.0883
1.21	9.0992
1.204	9.0049
1.198	9.0432
1.192	8.9609
1.186	8.9386
1.18	8.8881
1.174	8.8334
1.168	8.8258
1.162	8.7419
1.156	8.7524
1.15	8.7551
1.144	8.7219
1.138	8.6801
1.132	8.6192
1.126	8.6275
1.12	8.4833
1.114	8.5569
1.108	8.5732
1.102	8.4471
1.096	8.4444
1.09	8.4818
1.084	8.4489
1.078	8.4355
1.072	8.2804
1.066	8.3121
1.06	8.349
1.054	8.3818
1.048	8.3313
1.042	8.2306
1.036	8.2534
1.03	8.179
1.024	8.2882
1.018	8.2212
1.012	8.2274
1.006	8.2617
1	8.2208
0.994	8.2665
0.988	8.2308
0.982	8.1821
0.976	8.2243
0.97	8.2318
0.964	8.193
0.958	8.1616
0.952	8.1234
0.946	8.1501
0.94	8.1453
0.934	8.1064
0.928	8.0997
0.922	8.0951
0.916	8.0333
0.91	8.0425
0.904	8.0215
0.898	8.0735
0.892	8.0003
0.886	8.1017
0.88	8.0578
0.874	8.0511
0.868	8.0409
0.862	7.9962
0.856	8.2782
0.85	8.2889
0.844	8.2862
0.838	8.3067
0.832	8.3165
0.826	8.3235
0.82	8.3291
0.814	8.3338
0.808	8.3377
0.802	8.3409
0.796	8.3215
0.79	8.3168
0.784	8.2963
0.778	8.2883
0.772	8.2746
0.766	8.2463
0.76	8.2286
0.754	8.205
0.748	8.1909
0.742	8.1745
0.736	8.1534
0.73	8.139
0.724	8.1312
0.718	8.1186
0.712	8.1043
0.706	8.0954
0.7	8.0905
0.694	8.0879
0.688	8.0828
0.682	8.0842
0.676	8.0814
0.67	8.0831
0.664	8.0857
0.658	8.0881
0.652	8.0873
0.646	8.0964
0.64	8.0999
0.634	8.1056
0.628	8.1119
0.622	8.1192
0.616	8.1274
0.61	8.1322
0.604	8.1406
0.598	8.1487
0.592	8.1565
0.586	8.1613
0.58	8.155
0.574	8.1494
0.568	8.1423
0.562	8.1249
0.556	8.1088
0.55	8.0861
0.544	8.0611
0.538	8.0257
0.532	7.9909
0.526	7.9544
0.52	7.9261
0.514	7.8866
0.508	7.84
0.502	7.785
0.496	7.7174
0.49	7.6712
0.484	7.6189
0.478	7.5571
0.472	7.4974
0.466	7.4517
0.46	7.4108
0.454	7.3593
0.448	7.3115
0.442	7.2728
0.436	7.2403
0.43	7.1631
0.424	7.0892
0.418	7.0208
0.412	6.962
0.406	6.906
0.4	6.8695
