Name: Diorite Porphyry
Type: Rock
Class: Igneous
Subclass: Intermediate
Particle Size: Solid
Sample No.: Ward32
Owner: JPL
Wavelength Range: All
Origin: Ward's Collection of American Rocks.  Sample locality - Jackson, Washington County, Wyoming.
Description: A medium grained gray porphyritic rock.  Phenocrysts includeblack hornblende and colorless to cream-colored fledspar.  There areoccasional irregular masses of glassy quartz and tiny grains of magnetite.The rock has numerous small vesicles.Collected by:  Ward's Natural Science Original ASTER Spectral Library name was jpl.nicolet.rock.igneous.intermediate.solid.ward32.spectrum.txt
Measurement: Hemispherical reflectance
X Units: Wavelength (micrometers)
Y Units: Reflectance (percent)
wavelength	value
15.3871	3.011
15.118	2.0884
14.8581	2.6985
14.6069	2.7652
14.3642	2.9217
14.1293	3.0061
13.9021	3.0403
13.682	3.1838
13.4687	3.1871
13.2621	3.4052
13.0616	3.5441
12.8672	3.8684
12.6784	3.6439
12.4951	3.6529
12.317	3.3589
12.1439	3.9321
11.9757	4.4646
11.812	4.9958
11.6527	5.2525
11.4977	5.5578
11.3468	5.9048
11.1997	6.2035
11.0564	6.5512
10.9168	6.859
10.7806	7.3595
10.6478	7.8234
10.5182	8.2227
10.3917	8.8556
10.2683	9.1615
10.1477	10.0049
10.0299	10.4876
9.9148	10.916
9.8024	11.0418
9.6925	11.5243
9.585	11.5722
9.4798	11.2609
9.377	11.3558
9.2763	10.8024
9.1778	10.6385
9.0814	10.3156
8.987	10.3442
8.8945	10.3072
8.8039	10.6258
8.7151	10.5322
8.6281	10.0688
8.5428	11.0107
8.4592	10.945
8.3772	10.9895
8.2967	10.2054
8.2179	8.8701
8.1404	6.6386
8.0645	4.6135
7.9899	3.3353
7.9167	2.6764
7.8449	2.2508
7.7743	2.1471
7.705	2.0473
7.6369	1.8992
7.57	1.8421
7.5043	1.8897
7.4397	1.9334
7.3762	1.9201
7.3138	1.7504
7.2524	1.9822
7.1921	2.0425
7.1327	2.0642
7.0743	2.3284
7.0169	2.4194
6.9604	2.4632
6.9047	2.5481
6.85	2.506
6.7962	2.5881
6.7431	2.7605
6.6909	2.9071
6.6395	3.0086
6.5889	3.0071
6.539	3.0969
6.49	3.1408
6.4416	3.0943
6.3939	2.8512
6.347	2.6975
6.3007	2.6412
6.2551	2.5076
6.2101	2.4968
6.1658	2.5012
6.1222	2.4904
6.0791	2.5427
6.0366	2.5983
5.9948	2.8952
5.9535	2.928
5.9127	2.9449
5.8726	3.177
5.8329	3.2548
5.7938	3.2939
5.7552	3.4627
5.7172	3.5201
5.6796	3.7161
5.6425	3.7731
5.6059	3.7904
5.5698	3.7757
5.5341	3.9908
5.4989	4.1736
5.4641	4.345
5.4298	4.4539
5.3959	4.507
5.3624	4.3768
5.3294	4.5808
5.2967	4.6761
5.2644	4.8453
5.2326	5.1638
5.2011	5.5141
5.17	5.6252
5.1392	5.6408
5.1088	5.913
5.0788	5.9871
5.0491	6.2386
5.0198	6.2668
4.9908	6.4505
4.9622	6.7765
4.9338	6.9087
4.9058	7.3081
4.8781	7.6485
4.8508	7.6592
4.8237	7.8885
4.7969	8.0547
4.7704	8.2447
4.7443	8.3594
4.7184	8.5477
4.6927	8.6568
4.6674	8.8663
4.6423	9.0291
4.6175	9.4184
4.593	9.6075
4.5687	9.7612
4.5447	9.9966
4.5209	10.2385
4.4974	10.2116
4.4741	10.4927
4.451	10.7268
4.4282	11.0516
4.4057	11.1844
4.3833	11.58
4.3612	11.9402
4.3393	12.0294
4.3176	12.24
4.2962	12.1802
4.2749	12.3041
4.2539	12.7091
4.233	12.7969
4.2124	13.2018
4.192	13.4999
4.1717	13.6187
4.1517	13.8058
4.1319	13.8596
4.1122	14.0373
4.0927	14.1831
4.0734	14.2254
4.0543	14.3004
4.0354	14.3084
4.0166	13.9875
3.9981	13.9719
3.9796	13.8143
3.9614	14.0544
3.9433	14.3772
3.9254	14.5328
3.9077	14.7876
3.8901	14.7544
3.8726	14.6628
3.8554	14.8389
3.8382	14.9226
3.8213	15.0051
3.8045	15.0139
3.7878	15.3724
3.7713	15.5215
3.7549	15.3562
3.7386	15.2613
3.7225	15.3236
3.7066	15.1155
3.6907	15.3633
3.675	15.2684
3.6595	15.064
3.644	15.1195
3.6287	15.0188
3.6136	15.065
3.5985	14.7383
3.5836	14.7945
3.5688	14.7104
3.5541	14.6784
3.5396	14.3274
3.5251	13.8765
3.5108	13.6404
3.4966	13.1562
3.4825	12.9836
3.4685	12.9964
3.4547	13.2126
3.4409	12.7812
3.4273	12.8118
3.4137	12.3261
3.4003	12.5546
3.387	11.9641
3.3738	11.5472
3.3606	11.7592
3.3476	11.7171
3.3347	11.968
3.3219	11.6336
3.3092	11.6041
3.2965	11.5199
3.284	11.385
3.2716	11.1955
3.2593	10.8196
3.247	10.625
3.2348	10.1957
3.2228	10.5634
3.2108	10.3446
3.1989	9.7785
3.1871	9.4843
3.1754	9.5133
3.1638	9.245
3.1523	9.5107
3.1408	9.026
3.1294	8.7891
3.1181	8.8978
3.1069	8.1353
3.0958	8.5396
3.0848	8.16
3.0738	8.4645
3.0629	8.779
3.0521	8.2084
3.0413	7.9376
3.0307	8.1829
3.0201	8.1191
3.0096	7.9229
2.9991	7.7808
2.9887	7.8874
2.9784	7.6155
2.9682	7.6303
2.9581	7.6001
2.948	7.2095
2.9379	7.8994
2.928	7.2274
2.9181	7.9619
2.9083	7.0785
2.8985	8.0891
2.8888	7.6282
2.8792	7.3782
2.8697	7.9961
2.8602	7.7708
2.8507	7.7816
2.8413	7.7229
2.832	7.7695
2.8228	7.3018
2.8136	7.6815
2.8045	8.091
2.7954	7.4588
2.7864	7.5391
2.7774	7.5526
2.7685	7.9858
2.7597	7.5903
2.7509	8.3264
2.7422	9.1478
2.7335	9.6627
2.7249	10.6491
2.7163	11.7233
2.7078	13.1589
2.6994	14.7311
2.691	16.1615
2.6826	17.9755
2.6743	18.5727
2.666	18.7289
2.6578	18.7284
2.6497	19.0159
2.6416	19.3328
2.6336	19.2378
2.6256	19.4464
2.6176	19.5629
2.6097	19.3693
2.6018	19.1492
2.594	20.3997
2.5863	19.4017
2.5785	19.4063
2.5709	19.7704
2.5633	19.5834
2.5557	20.0918
2.5481	20.2194
2.5406	19.7172
2.5332	19.968
2.5258	19.6343
2.5184	20.1365
2.5111	19.9107
2.5038	19.975
2.4966	20.1066
2.4894	19.9056
2.4823	19.9926
2.4752	20.1562
2.4681	19.5342
2.4611	20.1351
2.4541	20.6619
2.4471	20.295
2.4402	20.2774
2.4333	20.3781
2.4265	21.3121
2.4197	20.4364
2.413	20.9961
2.4063	20.435
2.3996	20.5769
2.3929	21.4084
2.3863	21.0163
2.3798	20.0955
2.3732	21.0477
2.3667	20.708
2.3603	20.6543
2.3538	20.9054
2.3474	20.5283
2.3411	20.4344
2.3347	20.5155
2.3285	20.9545
2.3222	21.2782
2.316	20.6095
2.3098	21.3888
2.3036	21.2804
2.2975	20.5749
2.2914	21.0562
2.2854	21.4316
2.2793	21.5802
2.2733	21.4077
2.2674	21.846
2.2614	22.1176
2.2555	21.6489
2.2497	22.7034
2.2438	21.1806
2.238	22.1636
2.2322	21.2702
2.2265	21.9696
2.2208	22.3204
2.2151	21.964
2.2094	21.7916
2.2038	22.599
2.1982	20.8935
2.1926	22.1031
2.187	22.9849
2.1815	21.2691
2.176	21.4071
2.1706	21.6427
2.1651	22.2151
2.1597	21.9078
2.1543	22.1375
2.149	22.9506
2.1436	21.549
2.1383	22.198
2.1331	21.8273
2.1278	21.7504
2.1226	21.7486
2.1174	22.5036
2.1122	22.7382
2.1071	21.8404
2.1019	22.0017
2.0968	22.073
2.0918	21.5785
2.0867	21.8802
2.0817	22.7247
2.0767	20.8129
2.0717	24.3957
2.0667	21.3309
2.0618	22.5791
2.0569	22.3748
2.052	21.9922
2.0472	22.1085
2.0423	21.2016
2.0375	21.7501
2.0327	22.9963
2.028	23.0113
2.0232	21.666
2.0185	23.6602
2.0138	22.3136
2.0091	23.4434
2.0044	22.247
1.9998	22.1925
