Name: Alkalic Syenite
Type: rock
Class: Igneous
Subclass: Intermediate
Particle Size: Fine
Sample No.: Syenite_H1
Owner: JHU
Wavelength Range: All
Origin: Golden Cycle Mine, near Victor, Teller County, Colorado, viaWard's Scientific (Cat. No. W-14)
Description: Sample from which powder was derived is dark gray  fine-grained rock spotted with white feldspar grains in a dark gray groundmass with scattered mafics, opaques, and sulfides.Particle size was 0-75 micrometers. Original ASTER Spectral Library name was jhu.becknic.rock.igneous.intermediate.fine.syenit1.spectrum.txt
Measurement: Directional (10 degree) hemispherical reflectance
X Units: Wavelength (micrometers)
Y Units: Reflectance (percent)
wavelength	value
14.011	0.9637
13.715	0
13.43	0.8536
13.158	1.1489
12.896	0.9237
12.644	1.1002
12.402	2.1333
12.169	3.9567
11.945	4.6425
11.729	4.6467
11.52	4.627
11.319	4.3737
11.125	4.0237
10.937	3.5088
10.755	2.9852
10.58	2.7951
10.41	2.7607
10.245	2.9937
10.086	3.1662
9.9313	3.3084
9.7814	3.2909
9.636	3.574
9.4948	3.4603
9.3577	2.7586
9.2245	2.3533
9.095	2.2943
8.9691	2.1968
8.8467	2.2891
8.7275	2.4832
8.6116	2.6013
8.4986	2.7696
8.3886	2.8673
8.2814	2.5286
8.1769	1.8291
8.075	1.3814
7.9756	1.199
7.8786	1.305
7.784	1.4698
7.6916	1.7482
7.6014	2.1232
7.5133	2.5013
7.4272	2.9093
7.343	3.3881
7.2607	3.7673
7.1803	4.271
7.1016	4.7428
7.0246	5.1454
6.9493	5.4223
6.8755	5.6334
6.8034	5.8722
6.7327	6.2013
6.6634	6.5041
6.5956	6.8137
6.5292	7.1597
6.464	7.3434
6.4002	7.3104
6.3376	7.0364
6.2762	6.6073
6.216	6.048
6.157	4.6017
6.099	4.511
6.0421	5.7039
5.9863	6.5672
5.9315	7.0013
5.8777	8.0299
5.8249	8.5277
5.773	8.7804
5.722	8.8449
5.6719	8.9737
5.6227	9.2868
5.5744	9.7572
5.5268	10.685
5.4801	11.711
5.4341	12.646
5.3889	13.578
5.3445	14.341
5.3008	14.861
5.2578	15.469
5.2154	16.016
5.1738	16.778
5.1328	17.082
5.0925	18.213
5.0528	19.031
5.0137	19.49
4.9752	19.914
4.9373	20.011
4.9	19.825
4.8632	20.065
4.827	20.47
4.7913	20.535
4.7561	20.773
4.7215	21.103
4.6873	21.39
4.6536	21.825
4.6205	22.447
4.5877	23.092
4.5555	23.641
4.5237	24.196
4.4923	24.805
4.4614	25.254
4.4309	25.723
4.4008	26.238
4.3711	26.727
4.3418	27.155
4.3129	27.707
4.2844	28.289
4.2563	28.795
4.2285	29.169
4.2011	29.5
4.174	29.801
4.1473	30.007
4.1209	30.242
4.0949	30.418
4.0692	30.566
4.0438	30.708
4.0187	30.814
3.994	30.663
3.9695	30.731
3.9453	30.861
3.9214	30.994
3.8979	31.007
3.8746	31.029
3.8515	31.046
3.8288	31.006
3.8063	30.97
3.7841	30.887
3.7621	30.835
3.7404	30.697
3.7189	30.605
3.6977	30.424
3.6767	30.289
3.656	30.019
3.6355	29.791
3.6152	29.515
3.5951	29.288
3.5753	29.006
3.5557	28.682
3.5363	28.327
3.5171	28.042
3.4981	27.625
3.4793	27.229
3.4607	26.854
3.4423	26.364
3.4241	25.866
3.4061	25.309
3.3883	24.814
3.3707	24.324
3.3533	23.654
3.336	22.962
3.3189	22.313
3.302	21.68
3.2853	20.933
3.2687	20.262
3.2523	19.385
3.2361	18.588
3.22	17.714
3.204	16.903
3.1883	16.123
3.1727	15.399
3.1572	14.644
3.1419	13.931
3.1268	13.288
3.1117	12.691
3.0969	12.161
3.0821	11.671
3.0675	11.295
3.0531	11.17
3.0388	10.986
3.0246	10.838
3.0105	10.631
2.9966	10.405
2.9828	10.03
2.9692	9.7795
2.9556	9.4317
2.9422	9.1378
2.9289	8.9245
2.9157	9.1275
2.9027	9.2564
2.8897	9.3023
2.8769	9.1743
2.8642	9.2025
2.8516	9.3089
2.8391	9.18
2.8267	9.1218
2.8144	9.2943
2.8022	9.7935
2.7902	10.32
2.7782	10.425
2.7664	10.739
2.7546	12.065
2.7429	15.288
2.7314	18.72
2.7199	21.62
2.7085	23.914
2.6973	25.819
2.6861	27.383
2.675	28.517
2.664	29.292
2.6531	29.61
2.6423	29.905
2.6315	30.18
2.6209	30.334
2.6103	30.276
2.5999	30.395
2.5895	30.448
2.5792	30.313
2.569	30.201
2.5588	30.129
2.5487	29.992
2.5388	29.817
2.5289	29.983
2.519	29.976
2.5093	30.078
2.4996	30.148
2.49	30.219
2.4805	30.34
2.471	30.438
2.4616	30.657
2.4523	30.909
2.4431	30.983
2.4339	31.118
2.4248	31.295
2.4157	31.389
2.4068	31.552
2.3979	31.72
2.389	31.738
2.3802	31.802
2.3715	31.816
2.3629	31.968
2.3543	31.936
2.3458	32.005
2.3373	31.975
2.3289	32.104
2.3206	32.152
2.3123	32.168
2.3041	32.234
2.2959	32.223
2.2878	32.258
2.2798	32.272
2.2718	32.16
2.2638	32.119
2.2559	32.006
2.2481	31.9
2.2403	32.004
2.2326	32.01
2.225	32.007
2.2173	31.897
2.2098	31.948
2.2023	31.912
2.1948	32.109
2.1874	32.096
2.18	32
2.1727	31.981
2.1655	32.037
2.1583	31.965
2.1511	31.931
2.144	32.025
2.1369	31.928
2.1299	31.985
2.1229	31.991
2.116	31.895
2.1091	31.956
2.1023	31.989
2.0955	31.88
2.0887	31.957
2.082	31.845
2.06	31.65
2.028	31.138
1.996	30.545
1.964	30.054
1.932	29.029
1.9	29
1.868	30.272
1.836	30.56
1.804	30.366
1.772	30.573
1.74	30.372
1.708	30.202
1.676	30.189
1.644	30.144
1.612	29.905
1.58	29.844
1.548	29.603
1.516	29.367
1.484	28.87
1.452	29.055
1.42	28.531
1.388	28.641
1.356	28.769
1.324	28.223
1.292	28.543
1.26	27.974
1.228	28.035
1.196	27.772
1.164	27.545
1.132	27.547
1.1	27.332
1.068	27.261
1.036	27.101
1.004	27.313
0.972	27.002
0.94	26.93
0.908	27.239
0.876	27.218
0.844	26.964
0.812	26.827
0.795	27.251
0.787	26.74
0.779	26.983
0.771	26.86
0.763	26.654
0.755	26.47
0.747	26.507
0.739	26.581
0.731	26.462
0.723	26.507
0.715	26.292
0.707	26.318
0.699	26.298
0.691	26.506
0.683	26.081
0.675	26.4
0.667	26.27
0.659	25.903
0.651	26.215
0.643	26.101
0.635	25.933
0.627	26.254
0.619	25.915
0.611	25.685
0.603	25.736
0.595	25.698
0.587	25.586
0.579	25.444
0.571	25.555
0.563	25.334
0.555	24.757
0.547	24.403
0.539	24.182
0.531	24.099
0.523	23.834
0.515	23.777
0.507	23.236
0.499	23.316
0.491	22.961
0.483	22.927
0.475	22.219
0.467	22.148
0.459	22.674
0.451	22.081
0.443	22.12
0.435	21.886
0.427	21.643
0.419	20.954
0.411	20.524
0.403	20.209
