Name: Granitoid Gneiss
Type: Rock
Class: Metamorphic
Subclass: Gneis
Particle Size: Solid
Sample No.: Ward82
Owner: JPL
Wavelength Range: All
Origin: Ward's Collection of American Rocks.  Sample locality - Salisbury, Rowan County, North Carolina.  Collected by - JPL.
Description: A flesh colored rock consisting principally of feldspar andquartz.  There are scattered specks of magnetite and another dark minerals.  There is some evidence of grain orientation, but banding isnot pronounced.Collected by:  Ward's Natural Science Original ASTER Spectral Library name was jpl.nicolet.rock.metamorphic.gneiss.solid.ward82.spectrum.txt
Measurement: Hemispherical reflectance
X Units: Wavelength (micrometers)
Y Units: Reflectance (percent)
wavelength	value
15.3871	6.9894
15.118	5.4405
14.8581	4.17
14.6069	4.4797
14.3642	4.8579
14.1293	4.9701
13.9021	5.9827
13.682	6.3108
13.4687	6.3463
13.2621	6.3016
13.0616	7.9734
12.8672	8.5822
12.6784	7.6606
12.4951	7.6767
12.317	3.637
12.1439	4.104
11.9757	5.08
11.812	5.6442
11.6527	6.1451
11.4977	6.5414
11.3468	6.9031
11.1997	7.2201
11.0564	7.7887
10.9168	8.3378
10.7806	9.0221
10.6478	9.7665
10.5182	10.6023
10.3917	11.9344
10.2683	14.1006
10.1477	17.0617
10.0299	20.8358
9.9148	23.8743
9.8024	22.8614
9.6925	24.8371
9.585	26.5774
9.4798	26.2327
9.377	28.7749
9.2763	32.2996
9.1778	32.9108
9.0814	30.4639
8.987	29.0492
8.8945	30.2069
8.8039	31.2243
8.7151	31.4252
8.6281	27.0581
8.5428	32.2664
8.4592	32.4534
8.3772	31.6286
8.2967	28.9721
8.2179	25.5201
8.1404	19.1235
8.0645	11.9501
7.9899	7.2248
7.9167	4.328
7.8449	2.6046
7.7743	1.8882
7.705	1.3206
7.6369	1.1212
7.57	1.0183
7.5043	1.0012
7.4397	0.9178
7.3762	0.9639
7.3138	1.1281
7.2524	1.0566
7.1921	1.0501
7.1327	1.2867
7.0743	1.3475
7.0169	1.4757
6.9604	1.5856
6.9047	1.6022
6.85	1.7367
6.7962	1.7689
6.7431	1.8533
6.6909	1.8864
6.6395	2.1333
6.5889	2.1747
6.539	2.2941
6.49	2.4113
6.4416	2.4504
6.3939	2.4916
6.347	2.3857
6.3007	2.3575
6.2551	2.304
6.2101	2.4059
6.1658	2.4143
6.1222	2.4945
6.0791	2.6526
6.0366	2.5658
5.9948	2.7332
5.9535	2.7221
5.9127	2.6144
5.8726	2.6893
5.8329	2.9232
5.7938	2.7715
5.7552	3.0782
5.7172	3.1017
5.6796	3.0902
5.6425	3.0288
5.6059	2.9727
5.5698	3.0658
5.5341	3.2112
5.4989	3.3607
5.4641	3.4715
5.4298	3.5401
5.3959	3.4336
5.3624	3.4851
5.3294	3.5552
5.2967	3.5696
5.2644	3.6801
5.2326	3.6449
5.2011	3.9544
5.17	3.9302
5.1392	4.1403
5.1088	4.4062
5.0788	4.4444
5.0491	4.4698
5.0198	4.6508
4.9908	4.696
4.9622	4.9256
4.9338	4.9774
4.9058	5.2356
4.8781	5.6644
4.8508	6.0457
4.8237	6.3489
4.7969	6.2678
4.7704	6.4286
4.7443	6.6254
4.7184	6.6712
4.6927	6.7076
4.6674	6.8223
4.6423	6.9396
4.6175	7.5449
4.593	7.7382
4.5687	8.0631
4.5447	8.141
4.5209	8.1855
4.4974	8.0998
4.4741	8.1557
4.451	8.6676
4.4282	9.0053
4.4057	9.3586
4.3833	9.9291
4.3612	10.5387
4.3393	11.0893
4.3176	11.115
4.2962	11.3361
4.2749	11.6608
4.2539	12.62
4.233	12.0847
4.2124	13.1869
4.192	14.2187
4.1717	14.7962
4.1517	15.0152
4.1319	15.3827
4.1122	15.693
4.0927	16.0094
4.0734	16.625
4.0543	16.6575
4.0354	16.3454
4.0166	16.4273
3.9981	16.5905
3.9796	16.6139
3.9614	16.902
3.9433	17.5156
3.9254	17.8452
3.9077	18.0566
3.8901	17.9993
3.8726	18.1024
3.8554	18.1091
3.8382	18.3515
3.8213	18.8804
3.8045	19.3808
3.7878	19.2411
3.7713	19.3575
3.7549	19.4172
3.7386	19.4121
3.7225	19.7396
3.7066	20.1707
3.6907	20.8491
3.675	21.2561
3.6595	21.5938
3.644	22.1575
3.6287	22.3355
3.6136	22.3905
3.5985	22.4381
3.5836	22.4199
3.5688	22.568
3.5541	22.5811
3.5396	22.7813
3.5251	22.3409
3.5108	21.8835
3.4966	21.3913
3.4825	21.3763
3.4685	21.4543
3.4547	21.1504
3.4409	20.9453
3.4273	20.4411
3.4137	19.9274
3.4003	19.3242
3.387	19.5848
3.3738	19.0691
3.3606	19.2285
3.3476	19.1151
3.3347	18.9177
3.3219	18.062
3.3092	17.7297
3.2965	17.5167
3.284	17.2968
3.2716	16.6713
3.2593	16.2167
3.247	16.0158
3.2348	15.5619
3.2228	15.231
3.2108	14.9092
3.1989	14.319
3.1871	14.2462
3.1754	14.1444
3.1638	13.7197
3.1523	13.3168
3.1408	12.6508
3.1294	12.8401
3.1181	12.7319
3.1069	12.5594
3.0958	11.866
3.0848	12.221
3.0738	12.0425
3.0629	11.9323
3.0521	11.7514
3.0413	11.0624
3.0307	11.804
3.0201	11.9874
3.0096	11.4712
2.9991	12.0641
2.9887	11.4246
2.9784	11.9865
2.9682	11.3473
2.9581	11.0713
2.948	11.8959
2.9379	11.291
2.928	10.6202
2.9181	11.8015
2.9083	12.0515
2.8985	12.4306
2.8888	12.2729
2.8792	11.8087
2.8697	12.4912
2.8602	12.3198
2.8507	12.6936
2.8413	12.9437
2.832	12.799
2.8228	13.3401
2.8136	13.071
2.8045	13.3598
2.7954	14.9471
2.7864	13.7002
2.7774	14.8334
2.7685	14.4963
2.7597	15.0803
2.7509	15.5127
2.7422	16.9749
2.7335	18.1299
2.7249	20.6617
2.7163	22.9386
2.7078	24.5081
2.6994	26.6281
2.691	29.8837
2.6826	32.6527
2.6743	34.0775
2.666	35.3448
2.6578	35.3136
2.6497	35.8529
2.6416	36.5038
2.6336	36.6905
2.6256	37.0708
2.6176	37.5359
2.6097	37.4781
2.6018	37.1638
2.594	38.259
2.5863	38.1146
2.5785	37.9711
2.5709	38.3034
2.5633	38.36
2.5557	38.4422
2.5481	37.8712
2.5406	37.9032
2.5332	37.6975
2.5258	38.332
2.5184	38.1738
2.5111	38.2804
2.5038	38.3541
2.4966	38.095
2.4894	38.8979
2.4823	39.0301
2.4752	39.0694
2.4681	39.361
2.4611	39.8041
2.4541	39.4044
2.4471	39.6897
2.4402	40.408
2.4333	40.0662
2.4265	40.2599
2.4197	40.1167
2.413	40.7078
2.4063	40.7885
2.3996	40.6031
2.3929	41.1506
2.3863	40.8016
2.3798	40.2862
2.3732	40.781
2.3667	41.0204
2.3603	41.1351
2.3538	40.9251
2.3474	40.618
2.3411	41.7737
2.3347	41.2715
2.3285	41.5329
2.3222	41.5021
2.316	42.0885
2.3098	42.0006
2.3036	41.7374
2.2975	42.0229
2.2914	42.8542
2.2854	41.7072
2.2793	42.0212
2.2733	42.4423
2.2674	42.6662
2.2614	42.6327
2.2555	42.0768
2.2497	42.9723
2.2438	42.8423
2.238	42.7732
2.2322	43.257
2.2265	42.3941
2.2208	42.7413
2.2151	43.3115
2.2094	43.2045
2.2038	43.5441
2.1982	42.9981
2.1926	43.688
2.187	43.1278
2.1815	44.0202
2.176	43.073
2.1706	43.4641
2.1651	44.253
2.1597	44.0778
2.1543	43.9665
2.149	44.5136
2.1436	43.5989
2.1383	43.6136
2.1331	44.5773
2.1278	44.4347
2.1226	44.0667
2.1174	42.7809
2.1122	43.6152
2.1071	43.7666
2.1019	44.3407
2.0968	44.195
2.0918	44.3587
2.0867	43.0828
2.0817	43.1234
2.0767	43.0299
2.0717	43.0029
2.0667	43.8607
2.0618	43.6992
2.0569	42.8584
2.052	43.0837
2.0472	44.0007
2.0423	45.4842
2.0375	44.6428
2.0327	43.4484
2.028	43.2534
2.0232	41.6413
2.0185	42.9869
2.0138	43.4498
2.0091	39.6449
2.0044	41.799
1.9998	41.4108
