Name: Sandstone (Micaceous Red)
Type: rock
Class: Sedimentary
Subclass: Sandstone
Particle Size: Fine
Sample No.: sandstone_3
Owner: JHU
Wavelength Range: All
Origin: Sample No. 363,  The Hunt and Salisbury Collection at the U.S.Geological Survey, Denver, Co.
Description: Sample consists of subangular to subrounded quartz grains, many (~50%) coated with ferruginous material with adhering, interstitial muscovite and green biotite mica. Interstitial carbonate, as well as larger carbonate crystals, scattered opaques and minor microcline, are present. Brown clay may be present in small amounts around the grains. Particle size was  0 - 75 Micrometers. Original ASTER Spectral Library name was jhu.becknic.rock.sedimentary.sandstone.fine.sandst3.spectrum.txt
Measurement: Directional (10 Degree) Hemispherical Reflectance
X Units: Wavelength (micrometers)
Y Units: Reflectance (percent)
wavelength	value
14.983	3.5172
14.645	3.755
14.321	3.0206
14.011	3.969
13.715	2.9135
13.43	3.8741
13.158	4.168
12.896	4.4079
12.644	4.2755
12.402	4.2352
12.169	4.6437
11.945	5.9602
11.729	6.2119
11.52	5.6097
11.319	5.1924
11.125	5.5514
10.937	4.463
10.755	4.4
10.58	4.5407
10.41	4.4978
10.245	4.0072
10.086	3.7933
9.9313	3.9006
9.7814	4.1024
9.636	4.5372
9.4948	5.052
9.3577	6.1899
9.2245	6.8902
9.095	7.0095
8.9691	7.2428
8.8467	7.5338
8.7275	7.6899
8.6116	7.1168
8.4986	8.6464
8.3886	8.9654
8.2814	10.309
8.1769	10.987
8.075	9.5385
7.9756	8.7932
7.8786	8.0645
7.784	7.5168
7.6916	7.2807
7.6014	7.4303
7.5133	7.104
7.4272	6.8383
7.343	6.332
7.2607	5.936
7.1803	5.6393
7.1016	5.7534
7.0246	7.3356
6.9493	6.9882
6.8755	6.6976
6.8034	6.7147
6.7327	6.8916
6.6634	7.6165
6.5956	8.6061
6.5292	9.9761
6.464	12.191
6.4002	13.04
6.3376	11.136
6.2762	7.7287
6.216	6.2967
6.157	6.7028
6.099	7.4488
6.0421	8.1145
5.9863	8.4643
5.9315	8.6199
5.8777	10.288
5.8249	11.919
5.773	13
5.722	13.719
5.6719	13.157
5.6227	10.958
5.5744	9.7282
5.5268	8.5715
5.4801	9.4932
5.4341	13.89
5.3889	12.923
5.3445	11.982
5.3008	13.09
5.2578	15.784
5.2154	20.337
5.1738	21.97
5.1328	22.314
5.0925	22.27
5.0528	21.362
5.0137	21.808
4.9752	23.696
4.9373	26.911
4.9	31.327
4.8632	36.023
4.827	37.831
4.7913	38.843
4.7561	39.622
4.7215	39.923
4.6873	38.653
4.6536	37.598
4.6205	38.003
4.5877	39.581
4.5555	41.18
4.5237	41.389
4.4923	40.978
4.4614	40.562
4.4309	41.168
4.4008	42.745
4.3711	44.307
4.3418	44.686
4.3129	44.065
4.2844	43.59
4.2563	43.827
4.2285	44.56
4.2011	44.916
4.174	44.985
4.1473	44.752
4.1209	44.853
4.0949	44.451
4.0692	43.262
4.0438	40.966
4.0187	36.44
3.994	28.986
3.9695	21.221
3.9453	20.817
3.9214	22.054
3.8979	25.774
3.8746	27.193
3.8515	31.844
3.8288	32.699
3.8063	28.182
3.7841	31.92
3.7621	37.211
3.7404	42.01
3.7189	43.408
3.6977	43.917
3.6767	44.089
3.656	43.859
3.6355	43.508
3.6152	42.908
3.5951	42.246
3.5753	41.451
3.5557	39.791
3.5363	38.444
3.5171	35.374
3.4981	29.714
3.4793	25.345
3.4607	23.098
3.4423	23.032
3.4241	25.767
3.4061	26.356
3.3883	26.665
3.3707	26.874
3.3533	25.113
3.336	24.167
3.3189	23.257
3.302	23.535
3.2853	28.579
3.2687	29.105
3.2523	29.02
3.2361	28.709
3.22	28.202
3.204	27.625
3.1883	26.962
3.1727	26.374
3.1572	25.806
3.1419	25.197
3.1268	24.663
3.1117	24.174
3.0969	23.737
3.0821	23.321
3.0675	23.13
3.0531	22.95
3.0388	22.752
3.0246	22.506
3.0105	22.184
2.9966	21.833
2.9828	21.531
2.9692	21.181
2.9556	20.836
2.9422	20.666
2.9289	20.516
2.9157	20.531
2.9027	20.693
2.8897	20.856
2.8769	21.06
2.8642	21.288
2.8516	21.222
2.8391	20.752
2.8267	19.675
2.8144	18.078
2.8022	15.881
2.7902	12.837
2.7782	9.9688
2.7664	8.0605
2.7546	7.6788
2.7429	8.9561
2.7314	11.432
2.7199	17.978
2.7085	27.643
2.6973	35.227
2.6861	40.513
2.675	42.555
2.664	43.535
2.6531	44.342
2.6423	44.636
2.6315	44.559
2.6209	44.544
2.6103	44.621
2.5999	44.716
2.5895	44.821
2.5792	44.97
2.569	45.003
2.5588	44.922
2.5487	44.813
2.5388	44.408
2.5289	43.849
2.519	43.458
2.5093	43.288
2.4996	43.35
2.49	43.404
2.4805	43.482
2.471	43.381
2.4616	43.318
2.4523	43.289
2.4431	43.324
2.4339	43.491
2.4248	43.701
2.4157	43.93
2.4068	44.028
2.3979	44.133
2.389	44.066
2.3802	44.016
2.3715	44.004
2.3629	43.923
2.3543	43.699
2.3458	43.504
2.3373	43.479
2.3289	43.563
2.3206	43.739
2.3123	43.967
2.3041	44.113
2.2959	44.169
2.2878	44.27
2.2798	44.329
2.2718	44.294
2.2638	44.184
2.2559	43.956
2.2481	43.829
2.2403	43.611
2.2326	43.415
2.225	43.054
2.2173	42.693
2.2098	42.376
2.2023	42.373
2.1948	42.625
2.1874	43.087
2.18	43.459
2.1727	43.766
2.1655	43.912
2.1583	44.019
2.1511	44.003
2.144	43.995
2.1369	43.955
2.1299	43.865
2.1229	43.813
2.116	43.874
2.1091	43.769
2.1023	43.723
2.0955	43.704
2.0887	43.652
2.082	43.692
2.06	43.212
2.028	42.448
1.996	41.795
1.964	41.062
1.932	39.838
1.9	40.296
1.868	39.833
1.836	40.201
1.804	39.913
1.772	39.58
1.74	39.424
1.708	39.071
1.676	38.917
1.644	38.477
1.612	38.278
1.58	38.263
1.548	38.343
1.516	37.858
1.484	37.788
1.452	37.623
1.42	37.107
1.388	37.097
1.356	37.695
1.324	37.637
1.292	37.609
1.26	38.36
1.228	38.449
1.196	38.471
1.164	38.419
1.132	39.73
1.1	40.231
1.068	40.719
1.036	40.461
1.004	40.671
0.972	40.175
0.94	39.049
0.908	37.41
0.876	36.725
0.844	36.13
0.812	36.363
0.795	35.937
0.787	35.811
0.779	35.875
0.771	35.555
0.763	35.261
0.755	35.165
0.747	34.837
0.739	34.288
0.731	33.965
0.723	33.228
0.715	32.411
0.707	31.768
0.699	31.505
0.691	30.757
0.683	30.245
0.675	29.544
0.667	29.343
0.659	28.58
0.651	27.864
0.643	27.27
0.635	26.867
0.627	26.238
0.619	25.657
0.611	25.025
0.603	24.054
0.595	23.33
0.587	22.021
0.579	20.411
0.571	18.71
0.563	16.682
0.555	14.87
0.547	13.967
0.539	13.079
0.531	12.733
0.523	12.215
0.515	12.105
0.507	11.813
0.499	11.548
0.491	11.31
0.483	11.213
0.475	10.94
0.467	10.797
0.459	10.498
0.451	10.124
0.443	9.9465
0.435	9.8847
0.427	9.8239
0.419	9.6164
0.411	9.4766
0.403	9.3701
