Name: Dacite
Type: Rock
Class: Intermediate
Subclass: Felsic
Particle Size: Solid
Sample No.: AP-939-213
Owner: United States Geological Survey, L. C. Rowan
Wavelength Range: All
Origin: Iberian Pyrite Belt, Spain
Description: Dacite, green, alteredSample was Whole Rock Chips. Original ASTER Spectral Library name was usgs.perknic.rock.igneous.felsic.solid.dac213.spectrum.txt
Measurement: Directional Hemispherical Reflectance
X Units: Wavelength (micrometers)
Y Units: Reflectance (percent)
wavelength	value
14.051	2.8016
13.79	2.9046
13.538	2.678
13.295	2.8531
13.06	3.09
12.834	3.6977
12.616	3.2445
12.404	3.4196
12.2	2.6986
12.002	2.884
11.811	3.1415
11.626	3.4608
11.446	3.9243
11.272	4.1715
11.103	4.6247
10.939	4.635
10.78	4.7277
10.625	5.0779
10.475	5.7989
10.329	6.9628
10.187	8.1576
10.049	9.5893
9.914	11.0828
9.783	11.8862
9.656	13.6887
9.532	15.4088
9.411	15.244
9.293	13.905
9.178	14.5333
9.065	14.214
8.956	12.8235
8.849	12.1746
8.744	11.9789
8.642	10.3824
8.543	10.7738
8.445	10.2485
8.35	9.0434
8.257	8.0752
8.166	7.3542
8.077	4.7998
7.99	3.0488
7.905	1.9364
7.821	1.4214
7.739	1.2154
7.659	1.0712
7.581	0.8961
7.504	0.9682
7.429	0.9064
7.355	0.9991
7.283	1.0712
7.212	1.0197
7.143	1.1124
7.074	1.1948
7.007	1.236
6.942	1.2463
6.877	1.2669
6.814	1.2978
6.752	1.3287
6.691	1.4214
6.631	1.4626
6.572	1.4729
6.514	1.5347
6.458	1.5656
6.402	1.5553
6.347	1.4935
6.293	1.4523
6.24	1.5141
6.188	1.5244
6.137	1.5965
6.086	1.5244
6.037	1.5553
5.988	1.6377
5.94	1.5347
5.893	1.6686
5.846	1.6892
5.8	1.7922
5.755	1.8334
5.711	1.8231
5.667	1.8643
5.624	1.8952
5.582	1.9261
5.54	1.957
5.499	2.0291
5.459	2.1012
5.419	2.1836
5.379	2.1424
5.341	2.1939
5.302	2.2248
5.265	2.2866
5.227	2.5235
5.191	2.5647
5.155	2.7707
5.119	2.9252
5.084	3.0179
5.049	3.0797
5.015	3.1106
4.981	3.1415
4.948	3.399
4.915	3.502
4.883	3.7595
4.851	3.9964
4.819	4.1612
4.788	4.2436
4.758	4.3157
4.727	4.5217
4.697	4.635
4.668	4.6041
4.638	4.8719
4.61	5.2839
4.581	5.4796
4.553	5.8195
4.525	6.1182
4.498	6.2521
4.47	6.5508
4.444	7.0246
4.417	7.5808
4.391	8.2503
4.365	8.9919
4.34	9.7232
4.314	10.2691
4.289	10.7017
4.265	10.9283
4.24	11.5566
4.216	11.7626
4.192	12.1437
4.169	12.36
4.145	12.7411
4.122	13.0192
4.099	13.2046
4.077	13.493
4.055	13.7093
4.032	13.802
4.011	13.8329
3.989	13.905
3.968	14.0698
3.947	14.5024
3.926	14.6569
3.905	14.7393
3.884	14.7599
3.864	14.7496
3.844	14.8526
3.824	14.832
3.805	14.6981
3.785	14.6775
3.766	14.3685
3.747	13.9668
3.728	13.7299
3.709	13.5651
3.691	13.3591
3.673	13.4518
3.655	13.4209
3.637	13.2252
3.619	12.7823
3.601	12.4733
3.584	11.9686
3.567	11.8141
3.549	11.2064
3.533	10.8562
3.516	10.3824
3.499	10.094
3.483	9.9601
3.466	9.8159
3.45	9.4966
3.434	9.1155
3.418	8.7447
3.403	8.5181
3.387	8.2297
3.372	7.9722
3.357	7.6941
3.341	7.7662
3.326	7.4469
3.312	7.1688
3.297	6.8495
3.282	6.7259
3.268	6.6847
3.253	6.4375
3.239	6.4375
3.225	6.2521
3.211	6.18
3.197	6.0564
3.183	5.7371
3.17	5.5723
3.156	5.6135
3.143	5.4075
3.13	5.3354
3.117	5.3354
3.103	5.0161
3.091	5.0779
3.078	4.8719
3.065	4.8719
3.052	4.7586
3.04	4.7483
3.027	4.5835
3.015	4.8307
3.003	4.738
2.991	4.5217
2.979	4.7586
2.967	4.9028
2.955	4.6865
2.943	4.8616
2.932	4.6453
2.92	4.8822
2.909	5.0058
2.897	5.0882
2.886	5.0779
2.875	5.15
2.864	5.0779
2.853	5.4075
2.842	5.3869
2.831	5.0882
2.82	4.8101
2.809	4.1818
2.799	4.1921
2.788	3.5638
2.778	3.4917
2.767	3.5329
2.757	3.3681
2.747	3.6359
2.737	4.0685
2.727	4.5835
2.717	5.4384
2.707	5.7371
2.697	5.8298
2.687	8.5284
2.677	11.6802
2.668	13.5445
2.658	15.2543
2.649	16.1916
2.639	16.7684
2.63	16.4903
2.62	16.9435
2.611	16.8302
2.602	17.4585
2.593	17.5512
2.584	18.2619
2.575	18.5709
2.566	19.0344
2.557	19.4052
2.548	19.879
2.54	19.8172
2.531	19.9408
2.522	19.6833
2.514	19.7039
2.505	19.8069
2.489	18.8567
2.461	17.1567
2.433	17.1567
2.405	19.0567
2.377	18.6567
2.349	16.8567
2.321	20.1567
2.293	27.8567
2.265	27.8567
2.237	19.9567
2.209	18.0567
2.181	30.8567
2.153	38.4567
2.125	39.4567
2.097	43.8567
2.069	47.1567
2.041	47.3567
2.013	46.0567
1.985	44.2567
1.957	42.2567
1.929	39.9567
1.901	39.4567
1.873	52.0567
1.845	55.8567
1.817	57.3567
1.789	57.2567
1.761	57.7567
1.733	57.5567
1.705	56.7567
1.677	56.7567
1.649	56.1567
1.621	55.8567
1.593	54.8567
1.565	52.8567
1.537	51.4567
1.509	50.4567
1.481	49.0567
1.453	46.4567
1.425	35.2567
1.397	36.0567
1.369	44.8567
1.341	44.8567
1.313	44.0567
1.285	42.2567
1.257	40.6567
1.229	39.0567
1.201	37.2567
1.173	36.2567
1.145	35.6567
1.117	34.9567
1.089	34.6567
1.061	35.1567
1.033	34.9567
1.005	35.2567
0.977	34.9567
0.949	34.4567
0.921	33.9567
0.893	33.7567
0.865	34.1567
0.837	34.6567
0.809	35.1567
0.799	34.5567
0.792	34.4567
0.785	34.6567
0.778	34.0567
0.771	34.3567
0.764	34.5567
0.757	34.5567
0.75	34.3567
0.743	34.8567
0.736	34.9567
0.729	34.5567
0.722	34.8567
0.715	35.0567
0.708	34.8567
0.701	34.9567
0.694	35.0567
0.687	35.1567
0.68	35.1567
0.673	35.7567
0.666	35.4567
0.659	35.7567
0.652	35.6567
0.645	36.1567
0.638	35.6567
0.631	35.9567
0.624	36.0567
0.617	36.3567
0.61	36.3567
0.603	36.7567
0.596	36.3567
0.589	36.3567
0.582	36.6567
0.575	36.7567
0.568	37.0567
0.561	37.7567
0.554	37.2567
0.547	36.8567
0.54	36.7567
0.533	36.8567
0.526	36.0567
0.519	36.0567
0.512	36.1567
0.505	35.6567
0.498	34.6567
0.491	34.6567
0.484	34.1567
0.477	33.7567
0.47	33.3567
0.463	32.9567
0.456	31.6567
0.449	31.8567
0.442	30.8567
0.435	30.2567
0.428	29.9567
0.421	29.1567
0.414	28.4567
0.407	28.2567
