Name: Rhyolite
Type: Rock
Class: Igneous
Subclass: Felsic
Particle Size: Solid
Sample No.: AP-937-168
Owner: United States Geological Survey, L. C. Rowan
Wavelength Range: All
Origin: Iberian Pyrite Belt, Spain
Description: Rhyolite, white, phyllicSample was Whole Rock Chips. Original ASTER Spectral Library name was usgs.perknic.rock.igneous.felsic.solid.rhy168.spectrum.txt
Measurement: Directional Hemispherical Reflectance
X Units: Wavelength (micrometers)
Y Units: Reflectance (percent)
wavelength	value
14.051	2.0806
13.79	2.2557
13.538	2.472
13.295	2.4514
13.06	2.8634
12.834	3.5432
12.616	2.8737
12.404	2.6265
12.2	1.8231
12.002	2.1836
11.811	2.4308
11.626	2.7604
11.446	3.0694
11.272	3.1621
11.103	3.4505
10.939	3.3063
10.78	3.502
10.625	3.5947
10.475	4.1509
10.329	4.4702
10.187	4.7792
10.049	5.0779
9.914	5.7062
9.783	5.8813
9.656	6.9628
9.532	7.5396
9.411	8.5387
9.293	10.7635
9.178	10.9695
9.065	10.6811
8.956	10.0631
8.849	9.7335
8.744	9.0537
8.642	7.2203
8.543	8.5078
8.445	8.652
8.35	8.6623
8.257	9.8777
8.166	10.6605
8.077	7.3336
7.99	4.9028
7.905	3.193
7.821	2.3999
7.739	1.9467
7.659	1.7922
7.581	1.5862
7.504	1.5141
7.429	1.5244
7.355	1.442
7.283	1.3905
7.212	1.5038
7.143	1.5244
7.074	1.6686
7.007	1.6789
6.942	1.6892
6.877	1.7201
6.814	1.751
6.752	1.7304
6.691	1.7716
6.631	1.8746
6.572	1.8025
6.514	1.9364
6.458	2.1836
6.402	2.2145
6.347	2.1218
6.293	2.0394
6.24	1.8849
6.188	1.8231
6.137	1.8952
6.086	2.0394
6.037	2.0394
5.988	2.1012
5.94	2.0497
5.893	2.2866
5.846	2.5441
5.8	2.8428
5.755	3.0385
5.711	3.1518
5.667	3.1209
5.624	2.8737
5.582	2.884
5.54	2.8943
5.499	3.1621
5.459	3.4196
5.419	3.3475
5.379	3.0282
5.341	2.8531
5.302	2.9767
5.265	3.2239
5.227	3.7698
5.191	4.223
5.155	4.3054
5.119	4.4496
5.084	4.4084
5.049	4.3466
5.015	4.3775
4.981	4.6144
4.948	5.4487
4.915	5.8504
4.883	7.3336
4.851	8.3533
4.819	9.1773
4.788	9.8777
4.758	10.4133
4.727	11.0622
4.697	11.33
4.668	11.5566
4.638	12.566
4.61	13.6475
4.581	14.4612
4.553	14.9041
4.525	14.5848
4.498	13.699
4.47	13.5857
4.444	14.4612
4.417	15.4912
4.391	16.8096
4.365	18.4061
4.34	19.673
4.314	20.2807
4.289	20.5382
4.265	21.2695
4.24	21.8669
4.216	22.1862
4.192	22.9175
4.169	23.5561
4.145	24.2977
4.122	25.0805
4.099	25.9457
4.077	26.7079
4.055	27.1611
4.032	27.4598
4.011	27.5834
3.989	27.9542
3.968	28.4898
3.947	29.2211
3.926	29.7361
3.905	29.9524
3.884	29.7464
3.864	29.7052
3.844	29.6228
3.824	29.6743
3.805	29.6537
3.785	29.4271
3.766	28.9327
3.747	28.2735
3.728	27.7791
3.709	27.5731
3.691	27.4083
3.673	27.501
3.655	27.5113
3.637	27.2229
3.619	26.7182
3.601	26.162
3.584	25.6367
3.567	25.1011
3.549	24.3595
3.533	23.7827
3.516	23.1647
3.499	22.5364
3.483	22.1141
3.466	21.5373
3.45	21.0326
3.434	20.4455
3.418	19.4773
3.403	18.7872
3.387	18.3546
3.372	17.9014
3.357	17.2834
3.341	16.7375
3.326	16.4182
3.312	15.6354
3.297	15.1513
3.282	14.5745
3.268	13.9977
3.253	13.6784
3.239	13.1531
3.225	12.6381
3.211	12.1437
3.197	11.6493
3.183	11.1858
3.17	10.7326
3.156	10.3412
3.143	9.8056
3.13	9.4348
3.117	9.0434
3.103	8.858
3.091	8.6005
3.078	8.0958
3.065	7.9413
3.052	7.8486
3.04	8.0443
3.027	7.519
3.015	7.3233
3.003	6.9113
2.991	6.6744
2.979	6.5302
2.967	6.6229
2.955	6.592
2.943	6.8186
2.932	6.901
2.92	6.9731
2.909	7.107
2.897	7.2924
2.886	7.4057
2.875	7.8383
2.864	7.7147
2.853	7.7147
2.842	7.8074
2.831	7.4984
2.82	7.2615
2.809	7.2203
2.799	6.6126
2.788	5.8916
2.778	4.9543
2.767	4.2951
2.757	3.9655
2.747	4.7483
2.737	5.1294
2.727	6.3345
2.717	7.5705
2.707	7.004
2.697	7.5705
2.687	13.0398
2.677	17.4997
2.668	20.8987
2.658	23.6076
2.649	25.5543
2.639	26.7285
2.63	27.1611
2.62	28.3559
2.611	28.4898
2.602	28.9224
2.593	28.9533
2.584	30.1481
2.575	30.3438
2.566	31.003
2.557	31.2605
2.548	31.5798
2.54	32.136
2.531	32.5171
2.522	32.96
2.514	33.0939
2.505	33.4338
2.489	33.1029
2.461	33.0029
2.433	34.5029
2.405	37.2029
2.377	37.7029
2.349	36.3029
2.321	38.8029
2.293	44.9029
2.265	49.3029
2.237	44.0029
2.209	38.4029
2.181	47.1029
2.153	53.5029
2.125	58.5029
2.097	62.2029
2.069	63.4029
2.041	62.9029
2.013	60.9029
1.985	56.9029
1.957	53.6029
1.929	51.3029
1.901	52.8029
1.873	68.9029
1.845	75.9029
1.817	77.1029
1.789	77.9029
1.761	79.4029
1.733	80.5029
1.705	81.4029
1.677	81.7029
1.649	81.6029
1.621	81.0029
1.593	80.3029
1.565	79.2029
1.537	77.2029
1.509	76.6029
1.481	74.5029
1.453	71.5029
1.425	62.8029
1.397	59.3029
1.369	75.0029
1.341	79.5029
1.313	80.4029
1.285	81.5029
1.257	80.6029
1.229	80.0029
1.201	80.1029
1.173	79.5029
1.145	78.3029
1.117	77.6029
1.089	76.8029
1.061	76.7029
1.033	76.5029
1.005	76.1029
0.977	75.7029
0.949	74.8029
0.921	74.8029
0.893	74.3029
0.865	73.9029
0.837	74.0029
0.809	74.0029
0.799	74.2029
0.792	74.8029
0.785	74.4029
0.778	74.5029
0.771	74.0029
0.764	74.4029
0.757	73.9029
0.75	73.7029
0.743	73.6029
0.736	72.9029
0.729	73.1029
0.722	72.8029
0.715	71.5029
0.708	71.0029
0.701	70.1029
0.694	69.6029
0.687	69.2029
0.68	68.9029
0.673	68.1029
0.666	67.7029
0.659	66.7029
0.652	66.5029
0.645	66.0029
0.638	65.5029
0.631	64.9029
0.624	64.9029
0.617	63.7029
0.61	63.4029
0.603	62.9029
0.596	62.1029
0.589	61.8029
0.582	61.0029
0.575	60.7029
0.568	60.0029
0.561	61.2029
0.554	59.6029
0.547	58.9029
0.54	58.3029
0.533	57.8029
0.526	55.6029
0.519	55.5029
0.512	54.9029
0.505	53.5029
0.498	51.9029
0.491	51.6029
0.484	50.6029
0.477	50.0029
0.47	49.9029
0.463	47.9029
0.456	45.8029
0.449	45.7029
0.442	44.4029
0.435	43.3029
0.428	42.2029
0.421	40.7029
0.414	39.1029
0.407	38.0029
