Name: Augen Gneiss
Type: rock
Class: Metamorphic
Subclass: Gneis
Particle Size: Coarse
Sample No.: gneiss8
Owner: JHU
Wavelength Range: All
Origin: Sample No. 389, The Hunt and Salisbury Collection at the U.S.Geological Survey, Denver, Co.
Description: Very large augen of microcline  enclose smaller albite and orthoclase euhedra along with anhedra of quartz and biotite euhedra.  There is minor sericitization  of the feldspars, scattered opaques (magnetite?) and some myrmeketic texture is present.  There are much lesser amounts of anhedral green amphibole in this rock along with trace amounts of zircon euhedra.  Particle size was 500-1500 Micrometer. Original ASTER Spectral Library name was jhu.becknic.rock.metamorphic.gneiss.coarse.gneiss8.spectrum.txt
Measurement: Directional (10 Degree) Hemispherical Reflectance
X Units: Wavelength (micrometers)
Y Units: Reflectance (percent)
wavelength	value
14.983	1.6558
14.645	2.048
14.321	2.2251
14.011	2.6684
13.715	2.8129
13.43	2.6521
13.158	3.0346
12.896	4.0789
12.644	3.2676
12.402	3.17
12.169	2.1013
11.945	2.69
11.729	2.9952
11.52	3.4083
11.319	3.6886
11.125	4.0922
10.937	4.6378
10.755	4.9267
10.58	5.4539
10.41	6.098
10.245	7.0502
10.086	8.7233
9.9313	10.828
9.7814	11.509
9.636	11.724
9.4948	13.599
9.3577	16.262
9.2245	17.086
9.095	15.13
8.9691	13.906
8.8467	14.501
8.7275	14.169
8.6116	11.719
8.4986	14.166
8.3886	13.634
8.2814	12.287
8.1769	10.197
8.075	6.2706
7.9756	3.4805
7.8786	1.8763
7.784	1.2726
7.6916	0.9728
7.6014	0.845
7.5133	0.799
7.4272	0.7855
7.343	0.8518
7.2607	0.8918
7.1803	0.9366
7.1016	1.0065
7.0246	1.0721
6.9493	1.1253
6.8755	1.1377
6.8034	1.1843
6.7327	1.2241
6.6634	1.2871
6.5956	1.3472
6.5292	1.3527
6.464	1.3496
6.4002	1.3768
6.3376	1.3484
6.2762	1.3423
6.216	1.3475
6.157	1.2933
6.099	1.356
6.0421	1.3972
5.9863	1.4332
5.9315	1.5133
5.8777	1.5509
5.8249	1.6497
5.773	1.6639
5.722	1.7612
5.6719	1.7941
5.6227	1.7837
5.5744	1.7977
5.5268	1.8751
5.4801	1.9312
5.4341	2.0028
5.3889	2.0181
5.3445	2.0669
5.3008	2.1422
5.2578	2.2318
5.2154	2.3303
5.1738	2.4169
5.1328	2.5152
5.0925	2.6519
5.0528	2.7179
5.0137	2.8498
4.9752	2.9751
4.9373	3.0526
4.9	3.3261
4.8632	4.037
4.827	4.5525
4.7913	4.9843
4.7561	5.4041
4.7215	5.7082
4.6873	5.3343
4.6536	6.0308
4.6205	7.0543
4.5877	7.773
4.5555	8.2031
4.5237	7.9639
4.4923	7.3228
4.4614	7.5729
4.4309	8.5256
4.4008	9.6178
4.3711	11.237
4.3418	12.854
4.3129	13.776
4.2844	14.386
4.2563	15.609
4.2285	16.133
4.2011	16.71
4.174	17.506
4.1473	18.349
4.1209	19.198
4.0949	20.148
4.0692	20.853
4.0438	21.089
4.0187	21.121
3.994	21.327
3.9695	21.813
3.9453	22.539
3.9214	23.038
3.8979	23.055
3.8746	22.823
3.8515	22.832
3.8288	23.12
3.8063	23.382
3.7841	23.281
3.7621	22.908
3.7404	22.656
3.7189	22.776
3.6977	23.152
3.6767	23.5
3.656	23.608
3.6355	23.437
3.6152	23.072
3.5951	22.717
3.5753	22.343
3.5557	21.924
3.5363	21.332
3.5171	20.504
3.4981	19.875
3.4793	19.707
3.4607	19.199
3.4423	18.333
3.4241	17.597
3.4061	16.911
3.3883	16.262
3.3707	15.58
3.3533	15.046
3.336	14.432
3.3189	13.704
3.302	12.933
3.2853	12.243
3.2687	11.494
3.2523	10.84
3.2361	10.157
3.22	9.5202
3.204	8.9168
3.1883	8.3676
3.1727	7.8597
3.1572	7.3778
3.1419	6.9612
3.1268	6.5906
3.1117	6.2571
3.0969	5.9519
3.0821	5.8349
3.0675	5.6431
3.0531	5.5448
3.0388	5.3835
3.0246	5.2459
3.0105	5.1612
2.9966	5.0205
2.9828	4.8628
2.9692	4.7351
2.9556	4.6477
2.9422	4.6809
2.9289	4.6264
2.9157	4.6402
2.9027	4.683
2.8897	4.7425
2.8769	4.8879
2.8642	4.9068
2.8516	4.9326
2.8391	4.8853
2.8267	4.8083
2.8144	4.7891
2.8022	4.8367
2.7902	4.6833
2.7782	4.6826
2.7664	4.6946
2.7546	4.8874
2.7429	5.3182
2.7314	5.9481
2.7199	7.0415
2.7085	8.0053
2.6973	11.453
2.6861	17.149
2.675	20.772
2.664	22.647
2.6531	23.947
2.6423	24.755
2.6315	25.333
2.6209	25.88
2.6103	26.409
2.5999	26.83
2.5895	27.049
2.5792	27.134
2.569	27.194
2.5588	27.346
2.5487	27.363
2.5388	27.489
2.5289	27.507
2.519	27.65
2.5093	27.719
2.4996	27.94
2.49	28.063
2.4805	28.284
2.471	28.416
2.4616	28.468
2.4523	28.538
2.4431	28.716
2.4339	28.943
2.4248	29.155
2.4157	29.34
2.4068	29.408
2.3979	29.552
2.389	29.617
2.3802	29.763
2.3715	29.905
2.3629	29.854
2.3543	29.807
2.3458	29.992
2.3373	30.372
2.3289	30.893
2.3206	31.437
2.3123	31.878
2.3041	32.361
2.2959	32.535
2.2878	32.77
2.2798	32.804
2.2718	32.716
2.2638	32.3
2.2559	32.032
2.2481	32.138
2.2403	32.392
2.2326	32.442
2.225	32.286
2.2173	31.848
2.2098	30.764
2.2023	30.893
2.1948	31.216
2.1874	31.781
2.18	32.209
2.1727	32.511
2.1655	32.748
2.1583	32.861
2.1511	32.955
2.144	33.054
2.1369	33.049
2.1299	33.048
2.1229	32.796
2.116	32.786
2.1091	32.592
2.1023	32.52
2.0955	32.607
2.0887	32.494
2.082	32.413
2.06	32.376
2.028	31.524
1.996	30.19
1.964	28.557
1.932	27.302
1.9	24.974
1.868	30.236
1.836	31.292
1.804	31.213
1.772	30.709
1.74	30.539
1.708	30.116
1.676	29.7
1.644	29.19
1.612	28.704
1.58	28.329
1.548	27.798
1.516	26.963
1.484	26.235
1.452	25.465
1.42	24.574
1.388	24.146
1.356	24.876
1.324	24.543
1.292	23.928
1.26	23.547
1.228	23.095
1.196	22.7
1.164	22.203
1.132	21.912
1.1	21.818
1.068	21.616
1.036	21.688
1.004	21.692
0.972	21.709
0.94	21.23
0.908	21.166
0.876	21.365
0.844	21.419
0.812	21.289
0.795	21.568
0.787	21.318
0.779	21.355
0.771	21.148
0.763	21.124
0.755	20.949
0.747	20.615
0.739	20.778
0.731	20.584
0.723	20.527
0.715	20.723
0.707	20.719
0.699	20.514
0.691	20.942
0.683	21.033
0.675	20.908
0.667	21.234
0.659	20.932
0.651	21.021
0.643	21.159
0.635	20.942
0.627	20.974
0.619	21.238
0.611	21.593
0.603	21.516
0.595	21.355
0.587	21.292
0.579	21.634
0.571	21.409
0.563	21.472
0.555	20.39
0.547	20.408
0.539	19.946
0.531	20.403
0.523	20.114
0.515	19.344
0.507	19.46
0.499	19.532
0.491	18.841
0.483	18.618
0.475	18.333
0.467	17.993
0.459	17.642
0.451	17.495
0.443	16.604
0.435	16.576
0.427	16.045
0.419	15.267
0.411	14.953
0.403	14.149
