Name: Rhyolite
Type: rock
Class: Igneous
Subclass: Felsic
Particle Size: Fine
Sample No.: Rhyolite_H1
Owner: JHU
Wavelength Range: All
Origin: From Pennsylvania Hill near Rosita, Custer County, Colorado, viaSmithsonian (Cat. No.:  NMNH 111123-525)
Description: Sample from which powder was derived is reddish, banded, porphyritic rock with the phenocrysts small (< 1 mm) and variable in size.Particle size was 0-75 micrometers. Original ASTER Spectral Library name was jhu.becknic.rock.igneous.felsic.fine.rhyoli1.spectrum.txt
Measurement: Directional (10 degree) hemispherical reflectance
X Units: Wavelength (micrometers)
Y Units: Reflectance (percent)
wavelength	value
14.011	2.31
13.715	0.8372
13.43	1.2675
13.158	1.3013
12.896	1.3355
12.644	1.1738
12.402	1.2904
12.169	3.6253
11.945	6.0628
11.729	6.6018
11.52	6.5698
11.319	6.4626
11.125	5.6231
10.937	4.4002
10.755	3.5995
10.58	3.0347
10.41	2.7358
10.245	2.6278
10.086	2.6564
9.9313	2.7068
9.7814	2.6958
9.636	2.6794
9.4948	2.5777
9.3577	2.5444
9.2245	3.0647
9.095	3.2311
8.9691	3.1976
8.8467	3.1823
8.7275	3.2564
8.6116	3.259
8.4986	3.0504
8.3886	2.667
8.2814	2.474
8.1769	2.134
8.075	1.8014
7.9756	1.6938
7.8786	1.6055
7.784	1.3709
7.6916	1.2764
7.6014	1.3137
7.5133	1.522
7.4272	1.8551
7.343	2.3337
7.2607	2.8774
7.1803	3.5332
7.1016	4.2028
7.0246	4.77
6.9493	5.3081
6.8755	6.007
6.8034	6.8355
6.7327	7.6444
6.6634	8.25
6.5956	8.7787
6.5292	9.5667
6.464	10.206
6.4002	10.286
6.3376	9.8371
6.2762	9.081
6.216	8.2598
6.157	7.7646
6.099	8.3348
6.0421	9.4675
5.9863	11.176
5.9315	12.616
5.8777	13.419
5.8249	13.428
5.773	13.188
5.722	12.991
5.6719	12.824
5.6227	13.093
5.5744	13.667
5.5268	14.772
5.4801	15.786
5.4341	16.33
5.3889	15.168
5.3445	12.967
5.3008	13.509
5.2578	16.205
5.2154	20.135
5.1738	23.131
5.1328	24.641
5.0925	24.984
5.0528	24.506
5.0137	24.175
4.9752	24.559
4.9373	26.627
4.9	30.875
4.8632	34.607
4.827	37.169
4.7913	38.74
4.7561	39.784
4.7215	40.5
4.6873	41.127
4.6536	41.689
4.6205	42.678
4.5877	44.065
4.5555	45.301
4.5237	46.578
4.4923	47.597
4.4614	48.348
4.4309	48.786
4.4008	49.194
4.3711	50.345
4.3418	51.915
4.3129	53.452
4.2844	54.677
4.2563	55.716
4.2285	56.554
4.2011	56.986
4.174	57.41
4.1473	57.895
4.1209	58.361
4.0949	58.858
4.0692	59.308
4.0438	59.708
4.0187	60.058
3.994	60.322
3.9695	60.455
3.9453	60.532
3.9214	60.555
3.8979	60.552
3.8746	60.493
3.8515	60.409
3.8288	60.235
3.8063	60.032
3.7841	59.69
3.7621	59.245
3.7404	58.757
3.7189	58.372
3.6977	58.066
3.6767	57.664
3.656	57.195
3.6355	56.695
3.6152	56.033
3.5951	55.334
3.5753	54.631
3.5557	53.739
3.5363	52.714
3.5171	50.575
3.4981	47.738
3.4793	48.813
3.4607	48.207
3.4423	46.469
3.4241	42.718
3.4061	42.874
3.3883	43.901
3.3707	43.452
3.3533	43.515
3.336	42.883
3.3189	42.022
3.302	41.006
3.2853	39.982
3.2687	38.953
3.2523	37.88
3.2361	36.895
3.22	35.874
3.204	34.813
3.1883	33.881
3.1727	32.871
3.1572	31.904
3.1419	31.015
3.1268	30.138
3.1117	29.365
3.0969	28.696
3.0821	28.18
3.0675	27.908
3.0531	27.59
3.0388	27.223
3.0246	26.954
3.0105	26.584
2.9966	26.125
2.9828	25.774
2.9692	25.436
2.9556	25.146
2.9422	25.081
2.9289	24.995
2.9157	25.107
2.9027	25.215
2.8897	25.464
2.8769	25.708
2.8642	25.983
2.8516	26.251
2.8391	26.619
2.8267	26.864
2.8144	27.286
2.8022	27.627
2.7902	28.024
2.7782	28.524
2.7664	28.764
2.7546	29.831
2.7429	32.344
2.7314	35.562
2.7199	39.114
2.7085	41.84
2.6973	48.294
2.6861	53.79
2.675	56.611
2.664	61.836
2.6531	63.983
2.6423	65.086
2.6315	65.146
2.6209	65.345
2.6103	65.91
2.5999	66.086
2.5895	66.123
2.5792	66.376
2.569	66.114
2.5588	66.456
2.5487	66.638
2.5388	66.752
2.5289	66.927
2.519	66.991
2.5093	67.125
2.4996	67.173
2.49	67.357
2.4805	67.486
2.471	67.659
2.4616	67.762
2.4523	67.817
2.4431	68.006
2.4339	68.275
2.4248	68.428
2.4157	68.582
2.4068	68.695
2.3979	68.781
2.389	68.815
2.3802	68.951
2.3715	68.899
2.3629	69.049
2.3543	69.034
2.3458	69.128
2.3373	69.137
2.3289	69.038
2.3206	68.998
2.3123	68.946
2.3041	68.924
2.2959	69.005
2.2878	69.015
2.2798	69.048
2.2718	69.013
2.2638	69.061
2.2559	68.977
2.2481	69.041
2.2403	69.016
2.2326	68.964
2.225	68.937
2.2173	68.842
2.2098	68.799
2.2023	68.861
2.1948	68.98
2.1874	69.028
2.18	69.185
2.1727	69.394
2.1655	69.563
2.1583	69.625
2.1511	69.697
2.144	69.746
2.1369	69.776
2.1299	69.745
2.1229	69.781
2.116	69.927
2.1091	69.889
2.1023	69.908
2.0955	69.709
2.0887	69.798
2.082	69.719
2.06	69.923
2.028	68.496
1.996	67.547
1.964	65.881
1.932	64.98
1.9	64.002
1.868	66.093
1.836	67.316
1.804	66.48
1.772	65.828
1.74	66.368
1.708	66.302
1.676	65.862
1.644	65.737
1.612	65.024
1.58	64.494
1.548	64.658
1.516	64.727
1.484	64.023
1.452	63.733
1.42	63.262
1.388	63.164
1.356	64.12
1.324	63.338
1.292	64.136
1.26	63.156
1.228	63.07
1.196	62.939
1.164	62.553
1.132	61.868
1.1	61.269
1.068	60.243
1.036	58.803
1.004	57.703
0.972	55.263
0.94	53.267
0.908	51.662
0.876	50.226
0.844	49.356
0.812	48.584
0.795	48.58
0.787	48.096
0.779	48.077
0.771	47.521
0.763	47.294
0.755	46.689
0.747	46.128
0.739	45.983
0.731	45.435
0.723	45.182
0.715	44.347
0.707	43.998
0.699	43.581
0.691	43.093
0.683	42.758
0.675	42.12
0.667	41.585
0.659	41.325
0.651	41.193
0.643	40.431
0.635	40.07
0.627	39.42
0.619	39.093
0.611	38.457
0.603	37.631
0.595	36.937
0.587	36.021
0.579	34.54
0.571	33.531
0.563	31.808
0.555	29.736
0.547	28.766
0.539	27.844
0.531	27.157
0.523	26.72
0.515	26.25
0.507	25.817
0.499	25.49
0.491	25.066
0.483	24.904
0.475	24.594
0.467	24.42
0.459	24.056
0.451	23.949
0.443	23.507
0.435	23.256
0.427	22.585
0.419	22.221
0.411	22.153
0.403	21.687
