Name: Altered volcanic tuff
Type: Rock
Class: Igneous
Subclass: Felsic
Particle Size: Solid
Sample No.: Cup6
Owner: USGS
Wavelength Range: All
Origin: Cuprite, Nevada
Description: Altered volcanic tuff, whiteSample was  Whole rock chips. Original ASTER Spectral Library name was usgs.perknic.rock.igneous.felsic.solid.cup6.spectrum.txt
Measurement: Directional Hemispherical Reflectance
X Units: Wavelength (micrometers)
Y Units: Reflectance (percent)
wavelength	value
13.9	2.554
13.68	2.812
13.467	2.915
13.261	3.286
13.06	3.698
12.866	5.016
12.677	4.439
12.494	5.119
12.316	1.833
12.143	1.802
11.975	2.297
11.811	2.657
11.652	3.069
11.497	3.286
11.346	3.409
11.199	3.605
11.056	3.718
10.916	3.862
10.78	3.924
10.647	4.151
10.518	4.367
10.391	4.553
10.268	4.944
10.147	5.253
10.029	5.655
9.914	6.283
9.802	6.952
9.692	7.643
9.585	8.724
9.479	10.146
9.377	14.935
9.276	19.858
9.178	19.467
9.081	18.344
8.987	17.386
8.894	16.799
8.804	16.264
8.715	15.615
8.628	11.639
8.543	15.79
8.459	17.325
8.377	18.128
8.297	19.858
8.218	20.981
8.14	19.096
8.064	13.009
7.99	8.765
7.917	5.644
7.845	3.492
7.774	2.441
7.705	1.782
7.637	1.215
7.57	0.927
7.504	0.824
7.44	0.783
7.376	0.762
7.314	0.762
7.252	0.803
7.192	0.793
7.133	0.875
7.074	0.927
7.017	0.917
6.96	1.04
6.905	1.009
6.85	1.071
6.796	1.081
6.743	1.174
6.691	1.246
6.64	1.36
6.589	1.277
6.539	1.37
6.49	1.452
6.442	1.494
6.394	1.566
6.347	1.442
6.301	1.442
6.255	1.463
6.21	1.401
6.166	1.38
6.122	1.421
6.079	1.473
6.037	1.483
5.995	1.483
5.954	1.555
5.913	1.576
5.873	1.751
5.833	1.875
5.794	1.916
5.755	2.029
5.717	2.05
5.68	2.225
5.643	2.215
5.606	2.215
5.57	2.215
5.534	2.307
5.499	2.39
5.464	2.513
5.43	2.523
5.396	2.523
5.363	2.369
5.33	2.369
5.297	2.41
5.265	2.534
5.233	2.606
5.201	2.781
5.17	2.822
5.139	2.853
5.109	2.863
5.079	2.884
5.049	2.966
5.02	2.936
4.991	2.833
4.962	3.049
4.934	3.162
4.906	3.306
4.878	3.677
4.851	4.099
4.824	4.388
4.797	4.645
4.771	4.82
4.744	4.985
4.719	5.006
4.693	4.862
4.668	4.738
4.643	5.253
4.618	5.675
4.593	5.768
4.569	5.933
4.545	5.696
4.521	5.418
4.498	4.8
4.474	4.686
4.451	4.82
4.428	5.047
4.406	5.202
4.384	5.655
4.361	6.159
4.34	6.551
4.318	6.747
4.296	6.633
4.275	6.829
4.254	7.004
4.233	7.138
4.213	7.303
4.192	7.313
4.172	7.601
4.152	7.807
4.132	8.055
4.112	8.364
4.093	8.59
4.074	8.848
4.055	8.796
4.036	8.683
4.017	8.343
3.998	8.024
3.98	7.88
3.962	7.962
3.944	8.446
3.926	8.858
3.908	8.982
3.89	8.899
3.873	8.755
3.856	8.806
3.838	8.817
3.822	8.848
3.805	8.951
3.788	8.899
3.771	8.704
3.755	8.528
3.739	8.384
3.723	8.353
3.707	8.25
3.691	8.395
3.675	8.312
3.66	8.168
3.644	8.075
3.629	7.952
3.614	7.777
3.599	7.571
3.584	7.2
3.569	7.272
3.554	6.922
3.54	6.757
3.525	6.623
3.511	5.912
3.497	5.809
3.483	5.583
3.469	5.511
3.455	5.315
3.441	5.088
3.428	4.8
3.414	4.666
3.401	4.738
3.387	4.82
3.374	4.769
3.361	4.81
3.348	4.666
3.335	4.656
3.322	4.635
3.309	4.532
3.297	4.45
3.284	4.213
3.272	4.264
3.259	4.089
3.247	4.089
3.235	3.935
3.223	3.996
3.211	3.78
3.199	3.77
3.187	3.698
3.176	3.801
3.164	3.492
3.152	3.471
3.141	3.368
3.13	3.368
3.118	3.275
3.107	3.286
3.096	2.956
3.085	3.018
3.074	3.121
3.063	2.925
3.052	2.843
3.042	3.008
3.031	2.822
3.02	2.905
3.01	2.946
2.999	2.554
2.989	2.472
2.979	2.833
2.968	2.699
2.958	2.791
2.948	2.616
2.938	2.699
2.928	2.719
2.918	2.544
2.909	2.585
2.899	2.606
2.889	2.802
2.879	2.585
2.87	2.678
2.86	2.802
2.851	2.657
2.842	2.833
2.832	3.306
2.823	3.018
2.814	3.203
2.805	3.317
2.796	3.234
2.787	3.296
2.778	3.348
2.769	3.317
2.76	3.306
2.751	3.739
2.742	3.945
2.734	4.625
2.725	5.088
2.717	5.83
2.708	7.447
2.7	8.796
2.691	11.258
2.683	13.864
2.675	15.244
2.666	17.191
2.658	17.788
2.65	18.633
2.642	19.426
2.634	20.178
2.626	20.518
2.618	21.331
2.61	21.331
2.602	21.98
2.594	21.908
2.586	22.238
2.579	22.33
2.571	22.464
2.563	22.722
2.556	22.691
2.548	22.876
2.541	22.547
2.533	23.082
2.526	23.062
2.519	23.741
2.511	24.174
2.504	23.824
2.488	24.593
2.464	25.744
2.44	27.91
2.416	29.798
2.392	31.223
2.368	31.549
2.344	32.023
2.32	31.533
2.296	31.408
2.272	31.568
2.248	32.059
2.224	32.566
2.2	33.613
2.176	35.841
2.152	37.472
2.128	37.897
2.104	37.362
2.08	37.313
2.056	37.098
2.032	36.949
2.008	35.94
1.984	34.077
1.96	31.963
1.936	30.621
1.912	32.086
1.888	39.05
1.864	43.785
1.84	44.417
1.816	44.281
1.792	44.092
1.768	43.793
1.744	43.92
1.72	43.982
1.696	44.093
1.672	44.253
1.648	43.926
1.624	43.467
1.6	42.929
1.576	42.404
1.552	41.863
1.528	41.2
1.504	40.347
1.48	39.408
1.456	38.851
1.432	38.574
1.408	40.058
1.384	43.272
1.36	44.312
1.336	44.554
1.312	44.478
1.288	44.137
1.264	43.662
1.24	43.109
1.216	42.594
1.192	42.037
1.168	41.586
1.144	41.273
1.12	40.842
1.096	40.307
1.072	39.827
1.048	39.244
1.024	38.714
1	38.179
0.976	37.514
0.952	36.967
0.928	36.476
0.904	36.201
0.88	35.572
0.856	34.887
0.832	34.273
0.808	33.562
0.784	32.809
0.76	32.056
0.736	31.256
0.712	30.299
0.688	29.348
0.664	28.797
0.64	28.205
0.616	27.593
0.592	26.779
0.568	25.474
0.544	23.758
0.52	22.086
0.496	20.582
0.472	19.397
0.448	18.171
0.424	16.433
0.4	14.889
