Name: Rhyolite
Type: Rock
Class: Igneous
Subclass: Felsic
Particle Size: Solid
Sample No.: AP-980-121
Owner: United States Geological Survey, L. C. Rowan
Wavelength Range: All
Origin: Iberian Pyrite Belt, Spain
Description: Rhyolite, light tan, very fine rockSample was Whole Rock Chips. Original ASTER Spectral Library name was usgs.perknic.rock.igneous.felsic.solid.rhy121.spectrum.txt
Measurement: Directional Hemispherical Reflectance
X Units: Wavelength (micrometers)
Y Units: Reflectance (percent)
wavelength	value
14.051	2.1733
13.79	2.3587
13.538	2.5956
13.295	2.4411
13.06	2.7913
12.834	3.2857
12.616	2.6677
12.404	2.5647
12.2	2.1939
12.002	2.4617
11.811	2.9664
11.626	3.3784
11.446	3.5844
11.272	3.6771
11.103	3.8934
10.939	3.8728
10.78	3.7183
10.625	3.6668
10.475	3.8934
10.329	4.3775
10.187	5.0882
10.049	5.8401
9.914	6.8804
9.783	6.8804
9.656	8.4048
9.532	9.1567
9.411	9.6099
9.293	10.9386
9.178	10.815
9.065	9.7953
8.956	8.8786
8.849	9.5584
8.744	8.8374
8.642	7.3233
8.543	8.1061
8.445	8.1061
8.35	8.3739
8.257	8.7859
8.166	8.9816
8.077	6.6023
7.99	4.7071
7.905	3.4711
7.821	2.6574
7.739	2.4411
7.659	2.1733
7.581	1.9055
7.504	1.8437
7.429	1.6686
7.355	1.6892
7.283	1.6995
7.212	1.6274
7.143	1.6068
7.074	1.648
7.007	1.6583
6.942	1.6789
6.877	1.6583
6.814	1.9055
6.752	2.0085
6.691	2.0085
6.631	2.0291
6.572	1.9673
6.514	1.9673
6.458	2.1321
6.402	2.1424
6.347	2.163
6.293	2.0085
6.24	1.8952
6.188	1.854
6.137	1.8643
6.086	1.8746
6.037	1.9055
5.988	1.9467
5.94	1.957
5.893	2.2454
5.846	2.6059
5.8	2.9973
5.755	3.3166
5.711	3.6771
5.667	3.8831
5.624	3.7286
5.582	3.7183
5.54	3.914
5.499	4.326
5.459	4.7586
5.419	4.738
5.379	4.0891
5.341	3.8419
5.302	4.0067
5.265	4.4496
5.227	5.1912
5.191	5.9019
5.155	5.9431
5.119	6.0667
5.084	6.1285
5.049	6.077
5.015	6.18
4.981	6.4169
4.948	7.4984
4.915	8.1782
4.883	9.888
4.851	11.227
4.819	11.8965
4.788	12.3497
4.758	12.7308
4.727	13.1428
4.697	13.1943
4.668	13.287
4.638	14.1625
4.61	14.9453
4.581	15.5942
4.553	15.9135
4.525	15.8929
4.498	15.2337
4.47	15.1513
4.444	15.8929
4.417	16.4285
4.391	17.3555
4.365	18.2619
4.34	19.0035
4.314	19.2507
4.289	19.3949
4.265	19.0138
4.24	19.9511
4.216	20.1365
4.192	20.1365
4.169	20.4352
4.145	20.5382
4.122	20.7339
4.099	21.0326
4.077	21.0944
4.055	21.218
4.032	21.2386
4.011	20.8575
3.989	20.9708
3.968	21.0738
3.947	21.1047
3.926	21.2283
3.905	21.1356
3.884	21.012
3.864	20.7339
3.844	20.5073
3.824	20.3425
3.805	20.3116
3.785	20.0335
3.766	19.7863
3.747	19.3331
3.728	18.9726
3.709	18.7666
3.691	18.5606
3.673	18.2516
3.655	17.9941
3.637	17.6233
3.619	17.2216
3.601	16.6551
3.584	16.2225
3.567	15.5942
3.549	15.0071
3.533	14.2861
3.516	13.7299
3.499	12.9471
3.483	12.7823
3.466	12.4836
3.45	12.0613
3.434	11.4948
3.418	10.6708
3.403	10.5987
3.387	10.5678
3.372	10.4957
3.357	10.7532
3.341	10.5987
3.326	10.5266
3.312	10.3206
3.297	9.7747
3.282	9.6408
3.268	9.4966
3.253	9.2185
3.239	9.1258
3.225	8.858
3.211	8.6108
3.197	8.6829
3.183	8.2915
3.17	8.034
3.156	7.8383
3.143	7.4881
3.13	7.3542
3.117	7.1791
3.103	6.9113
3.091	6.8392
3.078	6.6023
3.065	6.5199
3.052	6.4787
3.04	6.3963
3.027	6.2521
3.015	6.1697
3.003	6.1388
2.991	6.1594
2.979	6.2006
2.967	6.1491
2.955	6.0461
2.943	6.2521
2.932	6.4066
2.92	6.3345
2.909	6.2521
2.897	6.2315
2.886	6.4787
2.875	6.6847
2.864	6.9422
2.853	6.9113
2.842	7.1379
2.831	6.9628
2.82	7.1791
2.809	6.8289
2.799	6.4993
2.788	5.6341
2.778	4.8719
2.767	4.326
2.757	3.193
2.747	4.1406
2.737	3.7389
2.727	4.6659
2.717	5.6856
2.707	4.7998
2.697	6.592
2.687	14.2243
2.677	20.5588
2.668	23.5767
2.658	26.6049
2.649	27.5937
2.639	28.5619
2.63	29.5713
2.62	30.385
2.611	30.7249
2.602	30.7455
2.593	31.3429
2.584	31.5386
2.575	31.8064
2.566	32.6922
2.557	32.5789
2.548	33.3514
2.54	33.2896
2.531	33.6604
2.522	33.5059
2.514	33.6192
2.505	33.6707
2.489	33.2132
2.461	32.5132
2.433	32.8132
2.405	34.6132
2.377	36.1132
2.349	35.4132
2.321	37.1132
2.293	41.3132
2.265	43.8132
2.237	41.0132
2.209	35.5132
2.181	39.4132
2.153	45.1132
2.125	46.0132
2.097	47.7132
2.069	49.3132
2.041	49.4132
2.013	48.5132
1.985	47.7132
1.957	47.3132
1.929	46.3132
1.901	46.5132
1.873	53.5132
1.845	55.7132
1.817	56.8132
1.789	56.7132
1.761	56.7132
1.733	57.5132
1.705	57.2132
1.677	57.6132
1.649	57.5132
1.621	57.3132
1.593	57.8132
1.565	57.3132
1.537	57.2132
1.509	57.3132
1.481	56.8132
1.453	56.7132
1.425	53.8132
1.397	50.0132
1.369	59.0132
1.341	59.7132
1.313	59.2132
1.285	59.2132
1.257	58.7132
1.229	59.4132
1.201	59.0132
1.173	59.3132
1.145	58.8132
1.117	58.7132
1.089	58.9132
1.061	59.4132
1.033	58.9132
1.005	59.4132
0.977	58.9132
0.949	58.7132
0.921	58.6132
0.893	57.8132
0.865	57.9132
0.837	58.7132
0.809	59.0132
0.799	59.4132
0.792	59.5132
0.785	59.4132
0.778	59.4132
0.771	59.7132
0.764	59.4132
0.757	59.4132
0.75	58.3132
0.743	59.2132
0.736	58.9132
0.729	58.6132
0.722	58.4132
0.715	57.6132
0.708	57.3132
0.701	57.2132
0.694	57.5132
0.687	56.6132
0.68	56.6132
0.673	56.2132
0.666	56.1132
0.659	56.2132
0.652	55.7132
0.645	55.9132
0.638	55.9132
0.631	55.4132
0.624	54.9132
0.617	55.3132
0.61	54.9132
0.603	55.0132
0.596	53.9132
0.589	53.8132
0.582	53.9132
0.575	53.4132
0.568	52.9132
0.561	53.3132
0.554	52.0132
0.547	51.1132
0.54	49.9132
0.533	48.9132
0.526	48.4132
0.519	47.2132
0.512	46.3132
0.505	45.2132
0.498	44.3132
0.491	43.8132
0.484	43.3132
0.477	42.8132
0.47	42.4132
0.463	41.6132
0.456	40.2132
0.449	40.1132
0.442	39.1132
0.435	38.2132
0.428	37.7132
0.421	36.7132
0.414	36.1132
0.407	35.7132
