Name: Fossiliferous Limestone
Type: rock
Class: Sedimentary
Subclass: Limestone
Particle Size: Fine
Sample No.: limestone_1
Owner: JHU
Wavelength Range: All
Origin: Sample No. 355,  from the Hunt and Salisbury Collection atthe U.S. Geological Survey, Denver, Co.
Description: Sample consists of a homogeneous microcrystalline carbonate matrix, with scattered flecks of reddish brown material and abundant fossils (primarily small bivalves) with recrystallized calcite. Some bivalves still show laminar structure. Very minor quartz was also noted in this section.Particle size was 0 - 75 Micrometers. Original ASTER Spectral Library name was jhu.becknic.rock.sedimentary.limestone.fine.limest1.spectrum.txt
Measurement: Directional (10 Degree) Hemispherical Reflectance
X Units: Wavelength (micrometers)
Y Units: Reflectance (percent)
wavelength	value
14.983	19.24
14.645	20.494
14.321	16.695
14.011	1.4391
13.715	15.649
13.43	20.226
13.158	20.629
12.896	17.408
12.644	19.034
12.402	20.89
12.169	26.586
11.945	27.459
11.729	20.058
11.52	8.3016
11.319	5.2346
11.125	21.459
10.937	20.869
10.756	20.636
10.58	19.828
10.41	16.999
10.245	12.148
10.086	8.9576
9.9313	7.5772
9.7814	6.8331
9.636	6.9527
9.4948	7.9127
9.3577	9.4023
9.2245	10.473
9.095	11.895
8.9691	12.562
8.8467	13.069
8.7275	14.521
8.6116	14.28
8.4986	16.082
8.3886	19.322
8.2814	23.319
8.1769	24.957
8.075	23.894
7.9756	24.416
7.8786	22.645
7.784	21.233
7.6916	19.041
7.6014	14.981
7.5133	13.228
7.4272	10.884
7.343	7.8665
7.2607	4.7787
7.1803	3.6259
7.1016	4.2447
7.0246	4.289
6.9493	4.0898
6.8755	4.1879
6.8034	4.2835
6.7327	4.5097
6.6634	5.0293
6.5956	6.1245
6.5292	7.2267
6.464	8.901
6.4002	9.4712
6.3376	6.7376
6.2762	5.2623
6.216	5.1749
6.157	5.0655
6.099	5.6987
6.0421	6.8627
5.9863	8.7593
5.9315	10.456
5.8777	12.272
5.8249	12.775
5.773	12.671
5.722	13.982
5.6719	16.813
5.6227	17.226
5.5744	2.7281
5.5268	15.623
5.4801	29.486
5.4341	36.737
5.3889	41.525
5.3445	44.567
5.3008	48.102
5.2578	51.462
5.2154	54.748
5.1738	56.634
5.1328	57.799
5.0925	54.226
5.0528	59.434
5.0137	59.643
4.9752	60.187
4.9373	60.799
4.9	61.657
4.8632	62.438
4.827	62.822
4.7913	62.904
4.7561	61.709
4.7215	56.68
4.6873	46.492
4.6536	46.846
4.6205	55.321
4.5877	58.111
4.5555	58.755
4.5237	59.006
4.4923	59.979
4.4614	62.527
4.4309	64.609
4.4008	65.744
4.3711	66.104
4.3418	64.854
4.3129	64.551
4.2844	63.312
4.2563	62.959
4.2285	63.86
4.2011	63.628
4.174	62.469
4.1473	60.545
4.1209	57.268
4.0949	53.345
4.0692	47.669
4.0438	37.306
4.0187	22.435
3.994	10.153
3.9695	7.8886
3.9453	14.329
3.9214	20.593
3.8979	22.402
3.8746	23.358
3.8515	24.398
3.8288	29.728
3.8063	40.849
3.7841	55.308
3.7621	59.667
3.7404	61.128
3.7189	62.309
3.6977	62.61
3.6767	62.395
3.656	61.752
3.6355	60.737
3.6152	59.449
3.5951	57.084
3.5753	51.749
3.5557	49.548
3.5363	42.228
3.5171	27.312
3.4981	20.346
3.4793	16.125
3.4607	23.809
3.4423	26.592
3.4241	26.682
3.4061	26.201
3.3883	25.228
3.3707	24.32
3.3533	20.92
3.336	34.212
3.3189	44.008
3.302	46.462
3.2853	47.432
3.2687	47.811
3.2523	47.79
3.2361	47.407
3.22	46.899
3.2041	46.264
3.1883	45.515
3.1727	44.558
3.1572	43.056
3.1419	42.365
3.1268	41.921
3.1117	40.842
3.0969	40.681
3.0821	40.795
3.0675	40.66
3.0531	40.573
3.0388	40.532
3.0246	40.38
3.0105	40.172
2.9966	39.941
2.9828	39.736
2.9692	39.517
2.9556	39.336
2.9422	39.306
2.9289	39.414
2.9157	39.699
2.9027	40.096
2.8897	40.64
2.8769	41.245
2.8642	41.91
2.8516	42.588
2.8391	42.929
2.8267	42.795
2.8144	43.114
2.8022	42.961
2.7902	41.599
2.7782	40.605
2.7664	39.919
2.7546	41.875
2.7429	46.723
2.7314	52.938
2.7199	61.003
2.7085	67.877
2.6973	72.737
2.6861	76.702
2.675	78.627
2.664	79.98
2.6531	80.86
2.6423	81.343
2.6315	81.508
2.6209	81.612
2.6103	81.734
2.5999	81.635
2.5895	81.12
2.5792	80.465
2.569	79.414
2.5588	76.854
2.5487	72.09
2.5388	68.072
2.5289	68.947
2.519	71.696
2.5093	73.001
2.4996	73.557
2.49	74.163
2.4805	75.346
2.471	77.152
2.4616	78.927
2.4523	80.171
2.4431	81.105
2.4339	81.9
2.4248	82.511
2.4157	83.103
2.4068	83.329
2.3979	83.43
2.389	83.661
2.3802	83.403
2.3715	82.668
2.3629	81.129
2.3543	78.5
2.3458	76.384
2.3373	75.934
2.3289	77.114
2.3206	78.473
2.3123	79.284
2.3041	79.746
2.2959	80.308
2.2878	80.975
2.2798	81.913
2.2718	82.863
2.2638	83.465
2.2559	83.838
2.2481	84.213
2.2403	84.562
2.2326	84.711
2.225	84.87
2.2173	84.969
2.2098	85.167
2.2023	85.412
2.1948	85.629
2.1874	85.801
2.18	85.831
2.1727	85.876
2.1655	85.724
2.1583	85.779
2.1511	85.779
2.144	85.929
2.1369	86.126
2.1299	86.245
2.1229	86.273
2.116	86.31
2.1091	86.299
2.1023	86.388
2.0955	86.456
2.0887	86.403
2.082	86.497
2.06	85.901
2.028	85.009
1.996	82.421
1.964	81.578
1.932	79.774
1.9	82
1.868	83.168
1.836	83.966
1.804	83.77
1.772	83.005
1.74	83.039
1.708	83.304
1.676	83.16
1.644	82.34
1.612	82.306
1.58	82.573
1.548	82.183
1.516	81.71
1.484	80.784
1.452	79.968
1.42	79.101
1.388	79.322
1.356	79.352
1.324	79.303
1.292	77.848
1.26	78.03
1.228	78.388
1.196	77.134
1.164	75.655
1.132	75.715
1.1	75.027
1.068	74.567
1.036	73.449
1.004	72.483
0.972	71.839
0.94	71.449
0.908	70.75
0.876	70.539
0.844	71.052
0.812	71.777
0.795	71.396
0.787	71.337
0.779	71.178
0.771	70.534
0.763	70.241
0.755	70.241
0.747	70.077
0.739	69.655
0.731	69.693
0.723	68.783
0.715	69.111
0.707	68.592
0.699	68.483
0.691	67.633
0.683	67.631
0.675	67.531
0.667	67.492
0.659	66.452
0.651	66.811
0.643	65.948
0.635	65.545
0.627	65.234
0.619	65.05
0.611	64.021
0.603	63.689
0.595	63.75
0.587	63.042
0.579	62.032
0.571	61.473
0.563	60.56
0.555	59.074
0.547	57.94
0.539	56.263
0.531	54.5
0.523	53.309
0.515	51.678
0.507	50.201
0.499	48.562
0.491	47.096
0.483	45.618
0.475	44.621
0.467	43.726
0.459	42.73
0.451	42.155
0.443	40.978
0.435	38.656
0.427	37.135
0.419	34.794
0.411	33.746
0.403	32.416
