Name: Nepheline-Sodalite Syenite
Type: Rock
Class: Igneous
Subclass: Alkalic
Particle Size: Solid
Sample No.: Ward23
Owner: JPL
Wavelength Range: VSWIR
Origin: Ward's Collection of American Rocks.  Sample locality - Near Red Hill, Carroll County, New Hampshire.
Description: A gray granular rock composed of feldspar showing twinning,nepheline, sodalite and hornblende.  The sodalite is grayish to bluish-gray and can easily be distinguised in the hand specimen by its orange fluorscence in ultra-violet light. Geologic age - Late Devonian or late Carboniferous.Collected by:  Ward's Natural Science Original ASTER Spectral Library name was jpl.perkin.rock.igneous.alkalic.solid.ward23.spectrum.txt
Measurement: Hemispherical reflectance
X Units: Wavelength (micrometers)
Y Units: Reflectance (percent)
wavelength	value
2.5	16.4467
2.494	16.5608
2.488	16.6175
2.482	16.7315
2.476	16.9427
2.47	17.1223
2.464	17.1833
2.458	17.4639
2.452	17.6117
2.446	17.8016
2.44	18.0175
2.434	18.1174
2.428	18.3072
2.422	18.539
2.416	18.7574
2.41	19.0121
2.404	19.1554
2.398	19.3566
2.392	19.4745
2.386	19.655
2.38	19.8424
2.374	19.9324
2.368	20.015
2.362	20.1253
2.356	20.1331
2.35	20.2704
2.344	20.3428
2.338	20.3636
2.332	20.4983
2.326	20.5738
2.32	20.6342
2.314	20.688
2.308	20.7522
2.302	20.7816
2.296	20.8285
2.29	20.881
2.284	20.8797
2.278	20.8475
2.272	20.9662
2.266	20.9051
2.26	20.8976
2.254	20.8754
2.248	20.8285
2.242	20.8037
2.236	20.8825
2.23	20.7444
2.224	20.7963
2.218	20.7828
2.212	20.8694
2.206	20.6802
2.2	20.6013
2.194	20.5719
2.188	20.589
2.182	20.7178
2.176	20.8509
2.17	20.8948
2.164	20.9824
2.158	21.0828
2.152	21.099
2.146	21.0941
2.14	21.0676
2.134	20.984
2.128	20.939
2.122	20.8024
2.116	20.745
2.11	20.6985
2.104	20.5268
2.098	20.4274
2.092	20.4348
2.086	20.4503
2.08	20.3741
2.074	20.353
2.068	20.2747
2.062	20.2083
2.056	20.2218
2.05	20.1801
2.044	20.0941
2.038	20.0592
2.032	19.9866
2.026	19.8747
2.02	19.8198
2.014	19.6326
2.008	19.5902
2.002	19.4799
1.996	19.371
1.99	19.2395
1.984	19.072
1.978	18.8901
1.972	18.7755
1.966	18.621
1.96	18.3734
1.954	18.2735
1.948	18.1442
1.942	17.9729
1.936	17.884
1.93	17.631
1.924	17.3738
1.918	17.2591
1.912	17.2988
1.906	17.764
1.9	18.8374
1.894	19.5412
1.888	20.1036
1.882	20.5277
1.876	20.7351
1.87	21.1514
1.864	21.3472
1.858	21.2836
1.852	21.3136
1.846	21.3608
1.84	21.3411
1.834	21.4516
1.828	21.3685
1.822	21.431
1.816	21.3912
1.81	21.3305
1.804	21.344
1.798	21.2563
1.792	21.3317
1.786	21.3115
1.78	21.3093
1.774	21.3572
1.768	21.3478
1.762	21.3692
1.756	21.3439
1.75	21.3839
1.744	21.4355
1.738	21.415
1.732	21.4697
1.726	21.4677
1.72	21.4065
1.714	21.4879
1.708	21.43
1.702	21.5022
1.696	21.5071
1.69	21.4398
1.684	21.4786
1.678	21.4772
1.672	21.4927
1.666	21.3565
1.66	21.512
1.654	21.5063
1.648	21.4573
1.642	21.4642
1.636	21.3902
1.63	21.5159
1.624	21.3995
1.618	21.4494
1.612	21.4119
1.606	21.4254
1.6	21.4101
1.594	21.3585
1.588	21.2819
1.582	21.3018
1.576	21.2827
1.57	21.2446
1.564	21.2485
1.558	21.1967
1.552	21.2011
1.546	21.2059
1.54	21.1305
1.534	21.1683
1.528	21.1075
1.522	21.0562
1.516	21.073
1.51	20.9773
1.504	20.9734
1.498	20.8612
1.492	20.8394
1.486	20.7993
1.48	20.7682
1.474	20.6747
1.468	20.6719
1.462	20.6925
1.456	20.6525
1.45	20.597
1.444	20.5315
1.438	20.4622
1.432	20.0937
1.426	19.9821
1.42	20.0839
1.414	20.1358
1.408	20.2109
1.402	20.4376
1.396	20.5489
1.39	20.6951
1.384	20.7659
1.378	20.8168
1.372	20.7585
1.366	20.8409
1.36	20.8415
1.354	20.7608
1.348	20.8491
1.342	20.8393
1.336	20.7287
1.33	20.7674
1.324	20.6923
1.318	20.7146
1.312	20.7357
1.306	20.7277
1.3	20.6558
1.294	20.7097
1.288	20.6951
1.282	20.7088
1.276	20.692
1.27	20.6192
1.264	20.6126
1.258	20.6622
1.252	20.6176
1.246	20.6343
1.24	20.6612
1.234	20.6567
1.228	20.5984
1.222	20.6208
1.216	20.6178
1.21	20.655
1.204	20.5772
1.198	20.6728
1.192	20.6725
1.186	20.6559
1.18	20.6657
1.174	20.6418
1.168	20.7154
1.162	20.6541
1.156	20.7681
1.15	20.775
1.144	20.7286
1.138	20.799
1.132	20.8341
1.126	20.8222
1.12	20.904
1.114	20.9721
1.108	21.0343
1.102	21.0959
1.096	21.0152
1.09	21.0933
1.084	21.1751
1.078	21.3042
1.072	21.2759
1.066	21.3657
1.06	21.3508
1.054	21.4118
1.048	21.4808
1.042	21.581
1.036	21.4926
1.03	21.5319
1.024	21.5172
1.018	21.6245
1.012	21.6503
1.006	21.6469
1	21.602
0.994	21.6728
0.988	21.7418
0.982	21.7572
0.976	21.7719
0.97	21.6771
0.964	21.7897
0.958	21.7578
0.952	21.8375
0.946	21.8366
0.94	21.8201
0.934	21.9123
0.928	21.9387
0.922	22.0372
0.916	22.0291
0.91	22.1101
0.904	22.1842
0.898	22.2784
0.892	22.353
0.886	22.432
0.88	22.4593
0.874	22.5895
0.868	22.6919
0.862	22.7254
0.856	23.1071
0.85	23.1344
0.844	23.2036
0.838	23.2212
0.832	23.2597
0.826	23.2468
0.82	23.24
0.814	23.2167
0.808	23.1672
0.802	23.1241
0.796	23.0339
0.79	22.9793
0.784	22.9059
0.778	22.8685
0.772	22.7927
0.766	22.7159
0.76	22.6719
0.754	22.6091
0.748	22.5395
0.742	22.5013
0.736	22.4613
0.73	22.4241
0.724	22.3967
0.718	22.3686
0.712	22.3519
0.706	22.3271
0.7	22.3197
0.694	22.3092
0.688	22.2916
0.682	22.2882
0.676	22.281
0.67	22.2759
0.664	22.2893
0.658	22.3056
0.652	22.3081
0.646	22.3126
0.64	22.3228
0.634	22.3349
0.628	22.3315
0.622	22.3332
0.616	22.3276
0.61	22.3184
0.604	22.2963
0.598	22.2572
0.592	22.2095
0.586	22.1126
0.58	22.0014
0.574	21.8749
0.568	21.7511
0.562	21.6244
0.556	21.4663
0.55	21.3433
0.544	21.2332
0.538	21.1269
0.532	21.0197
0.526	20.9205
0.52	20.8188
0.514	20.6999
0.508	20.5727
0.502	20.4114
0.496	20.2405
0.49	20.0629
0.484	19.8668
0.478	19.7564
0.472	19.6503
0.466	19.5206
0.46	19.3859
0.454	19.223
0.448	19.037
0.442	18.8461
0.436	18.6629
0.43	18.476
0.424	18.3278
0.418	18.1458
0.412	18.0023
0.406	17.8557
0.4	17.7168
