Name: Basalt
Type: Rock
Class: Igneous
Subclass: Mafic
Particle Size: Solid
Sample No.: ba9a3f
Owner: Larry Rowan, USGS
Wavelength Range: All
Origin: Wadi Salima, Jordan
Description: dark gray vesicular basalt Sample was Whole rock chips. Original ASTER Spectral Library name was usgs.perknic.rock.igneous.mafic.solid.ba9a3f.spectrum.txt
Measurement: Reflectance
X Units: Wavelength (micrometers)
Y Units: Reflectance (percent)
wavelength	value
0.4	0.103
0.408	0.098
0.416	0.099
0.424	0.094
0.432	0.093
0.44	0.09
0.448	0.089
0.456	0.086
0.464	0.084
0.472	0.082
0.48	0.081
0.488	0.079
0.496	0.079
0.504	0.077
0.512	0.078
0.52	0.078
0.528	0.077
0.536	0.077
0.544	0.077
0.552	0.077
0.56	0.077
0.568	0.079
0.576	0.077
0.584	0.078
0.592	0.078
0.6	0.079
0.608	0.078
0.616	0.078
0.624	0.081
0.632	0.077
0.64	0.081
0.648	0.081
0.656	0.082
0.664	0.082
0.672	0.082
0.68	0.082
0.688	0.082
0.696	0.082
0.704	0.084
0.712	0.084
0.72	0.087
0.728	0.087
0.736	0.088
0.744	0.087
0.752	0.089
0.76	0.088
0.768	0.089
0.776	0.09
0.784	0.09
0.792	0.092
0.8	0.094
0.832	0.092
0.864	0.093
0.896	0.093
0.928	0.092
0.96	0.09
0.992	0.092
1.024	0.089
1.056	0.088
1.088	0.088
1.12	0.088
1.152	0.085
1.184	0.085
1.216	0.085
1.248	0.083
1.28	0.081
1.312	0.082
1.344	0.081
1.376	0.079
1.408	0.077
1.44	0.077
1.472	0.077
1.504	0.077
1.536	0.077
1.568	0.077
1.6	0.076
1.632	0.076
1.664	0.074
1.696	0.076
1.728	0.076
1.76	0.073
1.792	0.073
1.824	0.073
1.856	0.073
1.888	0.071
1.92	0.067
1.952	0.067
1.984	0.07
2.016	0.072
2.048	0.072
2.08	0.073
2.1021	0.0743
2.109	0.0724
2.1159	0.0722
2.1228	0.075
2.1298	0.0768
2.1368	0.0747
2.1438	0.0748
2.1509	0.0749
2.1581	0.074
2.1653	0.0737
2.1726	0.0737
2.1799	0.0712
2.1872	0.0738
2.1946	0.0721
2.2021	0.0706
2.2096	0.0698
2.2172	0.0731
2.2248	0.0741
2.2324	0.0727
2.2401	0.0738
2.2479	0.0737
2.2557	0.0745
2.2636	0.0716
2.2715	0.0731
2.2795	0.0728
2.2876	0.0727
2.2957	0.071
2.3038	0.0725
2.3121	0.0712
2.3203	0.0729
2.3287	0.0702
2.3371	0.07
2.3455	0.0709
2.354	0.0701
2.3626	0.0702
2.3712	0.0718
2.38	0.0671
2.3887	0.0705
2.3976	0.0702
2.4065	0.0695
2.4154	0.0688
2.4245	0.0682
2.4336	0.0669
2.4427	0.0672
2.452	0.0667
2.4613	0.0654
2.4707	0.0654
2.4801	0.0654
2.4896	0.0645
2.4992	0.0648
2.5089	0.0622
2.5187	0.0646
2.5285	0.063
2.5384	0.0639
2.5484	0.0617
2.5584	0.0611
2.5686	0.0572
2.5788	0.0593
2.5891	0.0564
2.5995	0.0601
2.6099	0.0552
2.6205	0.0533
2.6311	0.0538
2.6418	0.0578
2.6526	0.0529
2.6635	0.049
2.6745	0.0446
2.6856	0.0436
2.6968	0.0383
2.708	0.0309
2.7194	0.0284
2.7309	0.0323
2.7424	0.027
2.7541	0.0235
2.7658	0.0267
2.7777	0.0279
2.7896	0.0267
2.8017	0.0249
2.8138	0.0244
2.8261	0.0279
2.8385	0.0256
2.851	0.0265
2.8636	0.0272
2.8763	0.0263
2.8891	0.0266
2.902	0.0279
2.915	0.0265
2.9282	0.0283
2.9415	0.0273
2.9549	0.0277
2.9684	0.0269
2.9821	0.0268
2.9959	0.0275
3.0098	0.028
3.0238	0.0288
3.038	0.0284
3.0523	0.0275
3.0667	0.0267
3.0813	0.0283
3.096	0.0283
3.1109	0.0293
3.1259	0.0302
3.141	0.0293
3.1563	0.0306
3.1718	0.0315
3.1874	0.0321
3.2031	0.0317
3.219	0.0312
3.2351	0.0332
3.2513	0.0341
3.2677	0.0337
3.2843	0.0351
3.301	0.0349
3.3179	0.0357
3.3349	0.0368
3.3522	0.0372
3.3696	0.0376
3.3872	0.0388
3.405	0.0408
3.423	0.0408
3.4412	0.0415
3.4595	0.0412
3.4781	0.0423
3.4968	0.0428
3.5158	0.0454
3.535	0.0466
3.5544	0.0462
3.574	0.0492
3.5938	0.0487
3.6138	0.05
3.6341	0.0502
3.6545	0.0512
3.6753	0.0516
3.6962	0.0533
3.7174	0.0538
3.7389	0.0542
3.7605	0.0539
3.7825	0.054
3.8047	0.0538
3.8272	0.054
3.8499	0.0541
3.8729	0.0539
3.8962	0.0539
3.9197	0.0549
3.9436	0.0535
3.9677	0.0532
3.9921	0.053
4.0169	0.0536
4.0419	0.0555
4.0673	0.055
4.093	0.0557
4.119	0.0559
4.1453	0.0554
4.172	0.0559
4.199	0.0545
4.2264	0.0474
4.2541	0.0514
4.2822	0.0484
4.3107	0.0512
4.3395	0.0531
4.3688	0.0533
4.3984	0.0529
4.4285	0.0529
4.4589	0.0524
4.4898	0.0529
4.5211	0.0512
4.5529	0.0513
4.5851	0.0507
4.6177	0.05
4.6509	0.0498
4.6845	0.0488
4.7186	0.049
4.7532	0.0496
4.7883	0.0491
4.8239	0.0485
4.8601	0.0483
4.8968	0.0476
4.9341	0.0473
4.9719	0.0472
5.0103	0.0463
5.0493	0.0469
5.089	0.0469
5.1292	0.0465
5.1702	0.0464
5.2117	0.0444
5.254	0.0458
5.2969	0.0451
5.3405	0.0434
5.3849	0.0442
5.43	0.0432
5.4759	0.0403
5.5225	0.0403
5.57	0.0368
5.6182	0.0396
5.6673	0.0372
5.7173	0.0341
5.7682	0.0323
5.82	0.0278
5.8727	0.0247
5.9264	0.0237
5.9811	0.0217
6.0368	0.0188
6.0935	0.0231
6.1513	0.0232
6.2103	0.0273
6.2703	0.0303
6.3316	0.03
6.394	0.0313
6.4577	0.0342
6.5227	0.0322
6.589	0.0292
6.6566	0.0324
6.7257	0.033
6.7962	0.0323
6.8682	0.0314
6.9418	0.033
7.0169	0.0327
7.0937	0.0337
7.1722	0.0313
7.2524	0.0321
7.3345	0.0299
7.4184	0.0314
7.5043	0.03
7.5922	0.0293
7.6821	0.0283
7.7743	0.0283
7.8686	0.026
7.9653	0.025
8.0644	0.0241
8.166	0.0222
8.2701	0.0207
8.377	0.0205
8.4867	0.0208
8.5992	0.0241
8.7149	0.0303
8.8336	0.0387
8.9556	0.0497
9.0811	0.0578
9.2101	0.065
9.3428	0.0769
9.4795	0.0814
9.6201	0.0798
9.765	0.0732
9.9144	0.0663
10.0684	0.0609
10.2272	0.0584
10.3911	0.0554
10.5604	0.0553
10.7353	0.0535
10.9161	0.0544
11.103	0.0538
11.2965	0.0532
11.4968	0.0472
11.7044	0.0396
11.9196	0.0352
12.1429	0.0311
12.3747	0.0286
12.6155	0.0254
12.8659	0.0233
13.1264	0.022
13.3977	0.0225
13.6804	0.0226
13.9753	0.0203
