Name: Red Sandstone
Type: Rock
Class: Sedimentary
Subclass: Sandstone
Particle Size: Solid
Sample No.: Ward59
Owner: JPL
Wavelength Range: VSWIR
Origin: Ward's Collection of American Rocks.  Sample locality - Potsdam, St. Lawrence County, New York.
Description: A fine-grained, red quartz sandstone.  Bedding planes arepresent.Geologic age - Cambrian.Collected by:  Ward's Natural Science Original ASTER Spectral Library name was jpl.perkin.rock.sedimentary.sandstone.solid.ward59.spectrum.txt
Measurement: Hemispherical reflectance
X Units: Wavelength (micrometers)
Y Units: Reflectance (percent)
wavelength	value
2.5	37.6194
2.494	37.2407
2.488	37.6462
2.482	37.6907
2.476	37.7299
2.47	37.7238
2.464	37.7218
2.458	37.6548
2.452	37.5734
2.446	37.6039
2.44	37.4212
2.434	37.4883
2.428	37.7192
2.422	38.2094
2.416	38.6571
2.41	39.1652
2.404	39.5085
2.398	39.8918
2.392	40.1172
2.386	40.2921
2.38	40.4041
2.374	40.4705
2.368	40.647
2.362	40.6454
2.356	40.6241
2.35	40.4521
2.344	40.4831
2.338	40.6067
2.332	40.9575
2.326	41.3624
2.32	41.8384
2.314	42.2163
2.308	42.6185
2.302	42.9707
2.296	43.2957
2.29	43.59
2.284	43.6537
2.278	43.8048
2.272	43.9287
2.266	43.9559
2.26	43.8947
2.254	43.7726
2.248	43.7584
2.242	43.6222
2.236	43.4997
2.23	43.2492
2.224	42.9678
2.218	42.2996
2.212	40.9432
2.206	39.2744
2.2	38.2156
2.194	37.898
2.188	38.5896
2.182	39.9402
2.176	41.4241
2.17	42.544
2.164	43.4418
2.158	44.0588
2.152	44.5432
2.146	44.8647
2.14	44.9867
2.134	45.0995
2.128	44.9449
2.122	44.9312
2.116	44.7463
2.11	44.6814
2.104	44.5806
2.098	44.5612
2.092	44.7119
2.086	44.7933
2.08	44.824
2.074	44.8734
2.068	44.8538
2.062	44.899
2.056	44.8155
2.05	44.7857
2.044	44.7297
2.038	44.6863
2.032	44.5973
2.026	44.4286
2.02	44.2933
2.014	44.1979
2.008	44.0238
2.002	43.7717
1.996	43.5947
1.99	43.3441
1.984	43.2006
1.978	43.0376
1.972	42.7059
1.966	42.5378
1.96	42.4246
1.954	42.1734
1.948	42.0853
1.942	41.9741
1.936	41.868
1.93	41.8938
1.924	41.8421
1.918	41.9746
1.912	42.3541
1.906	42.7505
1.9	43.3277
1.894	43.9178
1.888	44.3813
1.882	44.7178
1.876	44.895
1.87	44.8817
1.864	45.0569
1.858	45.0946
1.852	45.1443
1.846	45.0756
1.84	45.0921
1.834	45.0537
1.828	45
1.822	45.0256
1.816	45.0211
1.81	44.983
1.804	44.9993
1.798	44.9223
1.792	44.9422
1.786	44.92
1.78	44.8462
1.774	44.8064
1.768	44.822
1.762	44.7605
1.756	44.7517
1.75	44.7921
1.744	44.7954
1.738	44.7482
1.732	44.7411
1.726	44.6937
1.72	44.7356
1.714	44.6933
1.708	44.6444
1.702	44.7062
1.696	44.5639
1.69	44.6092
1.684	44.6207
1.678	44.5447
1.672	44.5423
1.666	44.4487
1.66	44.4896
1.654	44.4192
1.648	44.3407
1.642	44.4449
1.636	44.3728
1.63	44.3387
1.624	44.3376
1.618	44.3762
1.612	44.2916
1.606	44.3194
1.6	44.3724
1.594	44.307
1.588	44.1826
1.582	44.1401
1.576	44.1173
1.57	44.1277
1.564	44.1444
1.558	44.1151
1.552	44.0663
1.546	44.0081
1.54	43.9543
1.534	43.9709
1.528	43.9347
1.522	43.8953
1.516	43.9334
1.51	43.8933
1.504	43.8064
1.498	43.7811
1.492	43.7781
1.486	43.6998
1.48	43.6956
1.474	43.7044
1.468	43.6153
1.462	43.5812
1.456	43.5544
1.45	43.5292
1.444	43.5678
1.438	43.5143
1.432	43.4845
1.426	43.2011
1.42	42.4116
1.414	40.9797
1.408	41.0708
1.402	41.66
1.396	42.6418
1.39	43.6541
1.384	44.1053
1.378	44.1735
1.372	44.2577
1.366	44.358
1.36	44.2138
1.354	44.3888
1.348	44.458
1.342	44.4586
1.336	44.4788
1.33	44.4619
1.324	44.5294
1.318	44.6568
1.312	44.6907
1.306	44.6971
1.3	44.7481
1.294	44.7795
1.288	44.7946
1.282	44.8543
1.276	44.8986
1.27	44.9658
1.264	45.0161
1.258	45.0115
1.252	45.0465
1.246	45.1246
1.24	45.2232
1.234	45.2286
1.228	45.281
1.222	45.3656
1.216	45.4009
1.21	45.4626
1.204	45.5269
1.198	45.6111
1.192	45.6815
1.186	45.716
1.18	45.7702
1.174	45.7643
1.168	45.8957
1.162	45.9515
1.156	45.9987
1.15	46.0775
1.144	46.1603
1.138	46.1799
1.132	46.2276
1.126	46.3326
1.12	46.3944
1.114	46.4111
1.108	46.4577
1.102	46.5225
1.096	46.5018
1.09	46.6175
1.084	46.705
1.078	46.5771
1.072	46.7258
1.066	46.7723
1.06	46.725
1.054	46.7616
1.048	46.7521
1.042	46.8081
1.036	46.9115
1.03	46.8483
1.024	46.8622
1.018	46.7949
1.012	46.7986
1.006	46.6964
1	46.7066
0.994	46.5523
0.988	46.4933
0.982	46.3955
0.976	46.1824
0.97	46.0284
0.964	45.7462
0.958	45.5872
0.952	45.4818
0.946	45.2603
0.94	45.0687
0.934	44.9056
0.928	44.6426
0.922	44.4106
0.916	44.2244
0.91	43.9928
0.904	43.8022
0.898	43.5016
0.892	43.2702
0.886	43.1496
0.88	42.8576
0.874	42.6363
0.868	42.3738
0.862	42.2255
0.856	41.8986
0.85	41.8743
0.844	41.8667
0.838	41.8318
0.832	41.7998
0.826	41.7794
0.82	41.7587
0.814	41.7146
0.808	41.706
0.802	41.6639
0.796	41.5956
0.79	41.5769
0.784	41.5031
0.778	41.41
0.772	41.3206
0.766	41.1684
0.76	40.9757
0.754	40.7987
0.748	40.5543
0.742	40.279
0.736	39.9549
0.73	39.6066
0.724	39.2203
0.718	38.8006
0.712	38.3419
0.706	37.8878
0.7	37.3995
0.694	36.9217
0.688	36.4781
0.682	36.0138
0.676	35.5481
0.67	35.09
0.664	34.6451
0.658	34.2074
0.652	33.8033
0.646	33.3799
0.64	32.9796
0.634	32.6135
0.628	32.1988
0.622	31.76
0.616	31.2779
0.61	30.7158
0.604	30.0525
0.598	29.263
0.592	28.281
0.586	27.0895
0.58	25.6803
0.574	24.1325
0.568	22.5555
0.562	21.0841
0.556	19.7859
0.55	18.773
0.544	18.0125
0.538	17.4444
0.532	17.0619
0.526	16.7517
0.52	16.5048
0.514	16.2962
0.508	16.1089
0.502	15.9204
0.496	15.735
0.49	15.5561
0.484	15.3765
0.478	15.2451
0.472	15.1059
0.466	14.9573
0.46	14.7977
0.454	14.6321
0.448	14.4612
0.442	14.2742
0.436	14.1168
0.43	13.9762
0.424	13.8555
0.418	13.7642
0.412	13.6774
0.406	13.5991
0.4	13.5345
