Name: Dunite (Olivine Peridotite)
Type: Rock
Class: Igneous
Subclass: Ultramafic
Particle Size: Solid
Sample No.: Ward44
Owner: JPL
Wavelength Range: VSWIR
Origin: Ward's Collection of American Rocks.  Sample locality - Near Balsam, Jackson County, North Carolina.
Description: A light-green granular rock composed almost entirely ofglassy ollivine with small black grains of chromite and a few largeflakes of muscovite.Geologic age - Pre-Cambrian.Collected by:  Ward's Natural Science Original ASTER Spectral Library name was jpl.perkin.rock.igneous.ultramafic.solid.ward44.spectrum.txt
Measurement: Hemispherical reflectance
X Units: Wavelength (micrometers)
Y Units: Reflectance (percent)
wavelength	value
2.5	18.2777
2.494	18.5261
2.488	18.8914
2.482	19.0342
2.476	19.3331
2.47	19.8319
2.464	20.285
2.458	20.6423
2.452	20.6428
2.446	20.5979
2.44	20.2308
2.434	20.2361
2.428	20.3949
2.422	20.5074
2.416	20.8787
2.41	21.042
2.404	21.0522
2.398	21.2159
2.392	21.3813
2.386	21.5657
2.38	21.7558
2.374	22.0246
2.368	22.2618
2.362	22.4348
2.356	22.3872
2.35	21.7795
2.344	20.6829
2.338	19.5559
2.332	18.891
2.326	18.8285
2.32	19.161
2.314	19.9769
2.308	20.7342
2.302	21.5938
2.296	22.235
2.29	22.7953
2.284	23.2888
2.278	23.6149
2.272	23.9643
2.266	24.7769
2.26	25.9709
2.254	26.8182
2.248	27.3308
2.242	27.9696
2.236	28.911
2.23	30.0079
2.224	31.009
2.218	31.5782
2.212	32.0128
2.206	32.4469
2.2	32.817
2.194	32.9892
2.188	33.2368
2.182	33.3676
2.176	33.566
2.17	33.6449
2.164	33.743
2.158	33.679
2.152	33.4641
2.146	33.0922
2.14	32.6832
2.134	32.3479
2.128	32.3803
2.122	32.4852
2.116	32.156
2.11	31.9469
2.104	32.0048
2.098	32.0618
2.092	32.1933
2.086	32.3238
2.08	32.4681
2.074	32.6222
2.068	32.5247
2.062	32.3773
2.056	31.9755
2.05	31.6675
2.044	31.2729
2.038	31.0262
2.032	30.7775
2.026	30.5714
2.02	30.3446
2.014	30.1123
2.008	29.7583
2.002	29.45
1.996	29.1525
1.99	28.9572
1.984	28.8116
1.978	28.7733
1.972	28.9473
1.966	29.268
1.96	29.6682
1.954	30.0894
1.948	30.3113
1.942	30.7189
1.936	30.9684
1.93	31.2723
1.924	31.6364
1.918	32.2195
1.912	32.8304
1.906	33.7734
1.9	34.7419
1.894	35.4708
1.888	36.146
1.882	36.5768
1.876	36.9539
1.87	37.157
1.864	37.3124
1.858	37.5038
1.852	37.5868
1.846	37.677
1.84	37.7199
1.834	37.6494
1.828	37.5297
1.822	37.5141
1.816	37.5045
1.81	37.5621
1.804	37.613
1.798	37.6081
1.792	37.5635
1.786	37.3741
1.78	37.2722
1.774	37.3973
1.768	37.4067
1.762	37.4264
1.756	37.3131
1.75	37.3772
1.744	37.3389
1.738	37.3852
1.732	37.351
1.726	37.3123
1.72	37.1971
1.714	37.1168
1.708	37.0161
1.702	36.8662
1.696	36.7268
1.69	36.4459
1.684	36.3928
1.678	36.2471
1.672	35.9733
1.666	35.737
1.66	35.6417
1.654	35.3618
1.648	35.1541
1.642	34.9157
1.636	34.6824
1.63	34.2601
1.624	33.941
1.618	33.7688
1.612	33.5196
1.606	33.2442
1.6	32.9231
1.594	32.5797
1.588	32.2805
1.582	32.0071
1.576	31.5852
1.57	31.2856
1.564	30.9205
1.558	30.5149
1.552	30.1401
1.546	29.8226
1.54	29.3955
1.534	28.9843
1.528	28.6314
1.522	28.2207
1.516	27.8481
1.51	27.3167
1.504	27.0064
1.498	26.5921
1.492	26.1885
1.486	25.7542
1.48	25.3831
1.474	24.9719
1.468	24.511
1.462	24.1756
1.456	23.691
1.45	23.252
1.444	22.8326
1.438	22.4697
1.432	22.0363
1.426	21.6068
1.42	21.2802
1.414	20.885
1.408	20.3827
1.402	19.474
1.396	17.9894
1.39	18.5804
1.384	18.5062
1.378	19.3674
1.372	19.374
1.366	19.1389
1.36	18.7032
1.354	18.7174
1.348	18.4984
1.342	18.3494
1.336	18.0907
1.33	17.8838
1.324	17.6196
1.318	17.4197
1.312	17.2562
1.306	17.0082
1.3	16.942
1.294	16.7773
1.288	16.5043
1.282	16.382
1.276	16.2803
1.27	16.2079
1.264	16.0604
1.258	15.974
1.252	15.8477
1.246	15.733
1.24	15.647
1.234	15.5756
1.228	15.4766
1.222	15.3882
1.216	15.248
1.21	15.2607
1.204	15.1388
1.198	15.0316
1.192	14.9269
1.186	14.9553
1.18	14.8568
1.174	14.7488
1.168	14.6283
1.162	14.5699
1.156	14.5117
1.15	14.3088
1.144	14.2929
1.138	14.1611
1.132	13.9848
1.126	13.9342
1.12	13.8496
1.114	13.73
1.108	13.578
1.102	13.4827
1.096	13.3071
1.09	13.245
1.084	13.18
1.078	13.0716
1.072	13.1015
1.066	12.9621
1.06	13.1836
1.054	13.0536
1.048	13.1628
1.042	13.1768
1.036	13.3352
1.03	13.3171
1.024	13.4557
1.018	13.5018
1.012	13.5541
1.006	13.8277
1	13.9771
0.994	14.1086
0.988	14.3515
0.982	14.4044
0.976	14.655
0.97	14.8124
0.964	15.0935
0.958	15.2717
0.952	15.4109
0.946	15.6338
0.94	15.8868
0.934	16.1458
0.928	16.2925
0.922	16.4522
0.916	16.6128
0.91	16.8448
0.904	16.9663
0.898	17.1578
0.892	17.2768
0.886	17.4574
0.88	17.5937
0.874	17.7145
0.868	17.7924
0.862	17.9295
0.856	17.9315
0.85	18.1278
0.844	18.3233
0.838	18.5227
0.832	18.725
0.826	18.9387
0.82	19.1415
0.814	19.3784
0.808	19.6079
0.802	19.8356
0.796	20.0093
0.79	20.2459
0.784	20.4716
0.778	20.6888
0.772	20.9059
0.766	21.1191
0.76	21.3502
0.754	21.5955
0.748	21.8447
0.742	22.1012
0.736	22.3443
0.73	22.5736
0.724	22.8258
0.718	23.0543
0.712	23.2885
0.706	23.4986
0.7	23.6819
0.694	23.8448
0.688	24.0104
0.682	24.1297
0.676	24.225
0.67	24.28
0.664	24.2963
0.658	24.2663
0.652	24.1995
0.646	24.0808
0.64	23.958
0.634	23.8535
0.628	23.7668
0.622	23.7018
0.616	23.6225
0.61	23.5104
0.604	23.3485
0.598	23.1499
0.592	22.8965
0.586	22.6028
0.58	22.2613
0.574	21.89
0.568	21.4833
0.562	21.0532
0.556	20.5977
0.55	20.12
0.544	19.6192
0.538	19.0866
0.532	18.5504
0.526	18.0239
0.52	17.5418
0.514	17.0301
0.508	16.5205
0.502	15.9712
0.496	15.3866
0.49	15.0009
0.484	14.7245
0.478	14.3712
0.472	13.9571
0.466	13.6161
0.46	13.3426
0.454	13.1083
0.448	12.9018
0.442	12.6839
0.436	12.3585
0.43	12.0492
0.424	11.767
0.418	11.5028
0.412	11.254
0.406	11.0241
0.4	10.7478
