Name: Arkosic Sandstone
Type: rock
Class: Sedimentary
Subclass: Sandstone
Particle Size: Fine
Sample No.: sandstone_1
Owner: JHU
Wavelength Range: All
Origin: Sample No. 362,  The Hunt and Salisbury Collection at the U.S.Geological Survey, Denver, Co.
Description: Sample is moderately sorted fine medium-grained rock with slight porosity. Well-rounded to subrounded quartz grains have fluid inclusions and ferruginous staining, and are cemented with overgrowths of chalcedony. A trace of microcline and regions of concentrated carbonaceous granules and/or opaques on the grains are present. Secondary carbonate crystallites exist in some pores. Particle size was 0 - 75 Micrometers. Original ASTER Spectral Library name was jhu.becknic.rock.sedimentary.sandstone.fine.sandst1.spectrum.txt
Measurement: Directional (10 Degree) Hemispherical Reflectance
X Units: Wavelength (micrometers)
Y Units: Reflectance (percent)
wavelength	value
14.983	6.7391
14.645	4.9544
14.321	1.7091
14.011	6.4118
13.715	8.208
13.43	7.7692
13.158	5.7527
12.896	3.1314
12.644	2.336
12.402	1.5317
12.169	2.3639
11.945	6.1466
11.729	8.8676
11.52	9.7376
11.319	10.087
11.125	9.4786
10.937	8.5315
10.755	8.5779
10.58	8.3523
10.41	8.4415
10.245	7.7034
10.086	6.2875
9.9313	5.5029
9.7814	5.087
9.636	4.5672
9.4948	4.976
9.3577	7.6956
9.2245	8.0117
9.095	7.1864
8.9691	6.6735
8.8467	6.4099
8.7275	5.9614
8.6116	4.6679
8.4986	6.2081
8.3886	6.5382
8.2814	7.5729
8.1769	9.7301
8.075	8.1967
7.9756	5.9408
7.8786	3.6188
7.784	2.5519
7.6916	2.0477
7.6014	1.5151
7.5133	1.321
7.4272	1.329
7.343	1.4105
7.2607	1.6463
7.1803	2.0279
7.1016	2.5664
7.0246	2.9199
6.9493	3.5361
6.8755	3.8409
6.8034	3.9956
6.7327	3.8537
6.6634	4.4261
6.5956	4.7756
6.5292	5.4638
6.464	9.1247
6.4002	9.784
6.3376	7.4254
6.2762	5.1529
6.216	4.0702
6.157	5.4989
6.099	8.6639
6.0421	9.8565
5.9863	9.25
5.9315	8.2085
5.8777	11.354
5.8249	15.116
5.773	18.3
5.722	20.379
5.6719	18.115
5.6227	12.253
5.5744	10.695
5.5268	12.565
5.4801	15.654
5.4341	15.683
5.3889	9.1174
5.3445	6.2998
5.3008	7.0446
5.2578	10.003
5.2154	16.044
5.1738	17.291
5.1328	16.59
5.0925	15.86
5.0528	14.408
5.0137	14.217
4.9752	16.653
4.9373	21.676
4.9	29.576
4.8632	39.883
4.827	44.811
4.7913	47.763
4.7561	49.728
4.7215	50.268
4.6873	47.86
4.6536	50.491
4.6205	53.673
4.5877	54.927
4.5555	54.453
4.5237	51.34
4.4923	46.85
4.4614	46.033
4.4309	48.157
4.4008	50.599
4.3711	53.645
4.3418	55.892
4.3129	56.47
4.2844	56.255
4.2563	57.12
4.2285	57.579
4.2011	57.945
4.174	58.702
4.1473	59.507
4.1209	60.348
4.0949	61.166
4.0692	61.687
4.0438	61.5
4.0187	60.796
3.994	59.256
3.9695	58.947
3.9453	60.539
3.9214	61.273
3.8979	61.27
3.8746	60.915
3.8515	60.662
3.8288	60.702
3.8063	60.642
3.7841	60.298
3.7621	59.601
3.7404	58.909
3.7189	58.584
3.6977	58.273
3.6767	58.186
3.656	57.802
3.6355	57.125
3.6152	56.366
3.5951	55.593
3.5753	54.765
3.5557	53.697
3.5363	52.086
3.5171	50.292
3.4981	49.571
3.4793	48.833
3.4607	47.985
3.4423	47.159
3.4241	46.612
3.4061	45.636
3.3883	44.861
3.3707	43.89
3.3533	43.476
3.336	43.198
3.3189	42.364
3.302	41.254
3.2853	40.09
3.2687	38.915
3.2523	37.772
3.2361	36.58
3.22	35.42
3.204	34.269
3.1883	33.167
3.1727	32.093
3.1572	31.1
3.1419	30.139
3.1268	29.247
3.1117	28.43
3.0969	27.732
3.0821	27.016
3.0675	26.561
3.0531	26.092
3.0388	25.593
3.0246	25.144
3.0105	24.817
2.9966	24.469
2.9828	24.064
2.9692	23.267
2.9556	22.801
2.9422	22.904
2.9289	23.064
2.9157	23.295
2.9027	23.72
2.8897	24.196
2.8769	24.683
2.8642	25.158
2.8516	25.667
2.8391	26.091
2.8267	26.405
2.8144	26.746
2.8022	26.822
2.7902	26.187
2.7782	25.937
2.7664	21.937
2.7546	25.848
2.7429	25.585
2.7314	27.179
2.7199	29.455
2.7085	29.726
2.6973	41.004
2.6861	52.557
2.675	58.652
2.664	63.072
2.6531	66.032
2.6423	67.654
2.6315	68.711
2.6209	69.624
2.6103	70.169
2.5999	70.609
2.5895	70.779
2.5792	70.785
2.569	70.992
2.5588	71.255
2.5487	71.278
2.5388	71.684
2.5289	71.901
2.519	72.142
2.5093	72.353
2.4996	72.541
2.49	72.769
2.4805	73.417
2.471	73.932
2.4616	74.308
2.4523	74.793
2.4431	75.355
2.4339	76.202
2.4248	76.924
2.4157	77.492
2.4068	77.867
2.3979	77.792
2.389	77.473
2.3802	77.453
2.3715	78.138
2.3629	78.267
2.3543	78.325
2.3458	78.688
2.3373	78.942
2.3289	78.742
2.3206	78.736
2.3123	78.804
2.3041	79.144
2.2959	79.343
2.2878	79.46
2.2798	79.533
2.2718	79.716
2.2638	79.779
2.2559	79.912
2.2481	79.9
2.2403	79.94
2.2326	80.086
2.225	79.894
2.2173	78.936
2.2098	73.61
2.2023	77.268
2.1948	77.958
2.1874	78.972
2.18	79.604
2.1727	79.618
2.1655	79.395
2.1583	79.714
2.1511	80.753
2.144	82.219
2.1369	82.948
2.1299	83.278
2.1229	83.342
2.116	83.446
2.1091	83.666
2.1023	83.812
2.0955	83.919
2.0887	83.842
2.082	83.989
2.06	83.907
2.028	83.578
1.996	80.735
1.964	78.902
1.932	76.168
1.9	79.091
1.868	80.306
1.836	82.999
1.804	83.003
1.772	82.859
1.74	81.921
1.708	82.451
1.676	82.309
1.644	81.579
1.612	81.631
1.58	81.897
1.548	81.155
1.516	81.388
1.484	79.667
1.452	78.945
1.42	77.464
1.388	78.2
1.356	79.117
1.324	79.679
1.292	79.274
1.26	79.764
1.228	79.495
1.196	78.141
1.164	76.731
1.132	76.905
1.1	76.394
1.068	75.846
1.036	75.16
1.004	73.924
0.972	73.281
0.94	72.804
0.908	71.921
0.876	71.81
0.844	71.709
0.812	72.074
0.795	71.469
0.787	71.51
0.779	71.742
0.771	71.096
0.763	70.319
0.755	70.223
0.747	70.449
0.739	69.83
0.731	70.169
0.723	68.953
0.715	69.198
0.707	68.773
0.699	70.158
0.691	68.678
0.683	68.283
0.675	68.284
0.667	67.96
0.659	67.218
0.651	67.798
0.643	66.815
0.635	66.513
0.627	66.109
0.619	66.345
0.611	65.401
0.603	65.19
0.595	65.207
0.587	64.591
0.579	63.899
0.571	63.471
0.563	61.95
0.555	60.509
0.547	59.636
0.539	57.861
0.531	56.606
0.523	55.803
0.515	53.97
0.507	52.196
0.499	50.965
0.491	49.877
0.483	48.399
0.475	47.707
0.467	46.986
0.459	45.599
0.451	45.407
0.443	44.25
0.435	42.378
0.427	40.793
0.419	38.672
0.411	37.503
0.403	36.386
