Name: Limestone Siltstone
Type: rock
Class: Sedimentary
Subclass: Siltstone
Particle Size: Coarse
Sample No.: siltstone_2
Owner: JHU
Wavelength Range: All
Origin: Sample No. 352,  The Hunt and Salisbury Collection at the U.S.Geological Survey, Denver, Co.
Description: This sample contains a microcrystalline groundmass or matrix of quartz, carbonate, and possibly some clay. There are irregular regions of larger anhedra of carbonate and quartz, with some grains of muscovite, glauconite, and green biotite.Particle size was 500 - 1500 Micrometers. Original ASTER Spectral Library name was jhu.becknic.rock.sedimentary.siltstone.coarse.siltst2.spectrum.txt
Measurement: Directional (10 Degree) Hemispherical Reflectance
X Units: Wavelength (micrometers)
Y Units: Reflectance (percent)
wavelength	value
14.0112	1.6348
13.7147	1.9057
13.4304	2.0617
13.1577	2.3589
12.8959	2.6304
12.6443	2.405
12.4023	1.9487
12.1694	1.9148
11.945	2.1091
11.7289	2.5015
11.5203	2.722
11.3191	3.0211
11.1248	2.9556
10.937	2.6986
10.7555	3.04
10.5799	3.7006
10.4099	3.9492
10.2454	3.8432
10.0859	3.9645
9.9313	4.2624
9.7814	4.655
9.636	5.5694
9.4948	5.4385
9.3577	5.8292
9.2245	6.8939
9.095	7.6407
8.9691	7.6256
8.8467	7.4251
8.7275	7.2825
8.6116	5.2584
8.4986	5.9846
8.3886	4.8713
8.2814	5.1943
8.1769	6.4846
8.075	5.1065
7.9756	4.0935
7.8786	3.1233
7.784	2.8459
7.6916	2.8847
7.6014	2.7546
7.5133	2.6993
7.4272	2.5783
7.343	2.5161
7.2607	2.5131
7.1803	2.5507
7.1016	2.6771
7.0246	2.9376
6.9493	2.9131
6.8755	3.0156
6.8034	3.0534
6.7327	2.9541
6.6634	3.1226
6.5956	3.2431
6.5292	3.3319
6.464	3.7724
6.4002	3.6473
6.3376	3.0605
6.2762	2.4435
6.216	2.2397
6.157	2.3572
6.099	2.5112
6.0421	2.6134
5.9863	2.4639
5.9315	2.487
5.8777	2.6285
5.8249	2.7768
5.773	2.9472
5.722	2.9735
5.6719	2.9146
5.6227	2.7646
5.5744	2.7765
5.5268	2.8811
5.4801	3.0311
5.4341	3.1329
5.3889	2.9522
5.3445	2.9032
5.3008	2.9958
5.2578	3.2408
5.2154	3.8702
5.1738	4.1035
5.1328	4.1547
5.0925	4.198
5.0528	4.08
5.0137	4.1104
4.9752	4.3997
4.9373	4.979
4.9	5.9266
4.8632	7.2627
4.827	7.9799
4.7913	8.5491
4.7561	9.2458
4.7215	10.0074
4.6873	10.1308
4.6536	11.0864
4.6205	12.6199
4.5877	14.1289
4.5555	15.2201
4.5237	15.2395
4.4923	14.3705
4.4614	14.8634
4.4309	16.8638
4.4008	19.5086
4.3711	22.6941
4.3418	24.8875
4.3129	25.3428
4.2844	25.3368
4.2563	26.3563
4.2285	26.6724
4.2011	27.1849
4.174	27.8402
4.1473	28.4463
4.1209	29.1587
4.0949	29.7878
4.0692	29.8715
4.0438	29.1872
4.0187	27.785
3.994	26.0565
3.9695	25.0603
3.9453	25.5166
3.9214	26.1053
3.8979	26.997
3.8746	27.1779
3.8515	28.3106
3.8288	28.1556
3.8063	27.3863
3.7841	27.9397
3.7621	28.4305
3.7404	29.0049
3.7189	28.9925
3.6977	29.3387
3.6767	29.81
3.656	30.5737
3.6355	31.2891
3.6152	31.3096
3.5951	30.7876
3.5753	29.9222
3.5557	28.7484
3.5363	28.1173
3.5171	26.7595
3.4981	24.9555
3.4793	24.0977
3.4607	23.3597
3.4423	22.9062
3.4241	22.4708
3.4061	21.8181
3.3883	21.4712
3.3707	20.7482
3.3533	20.0321
3.336	19.3016
3.3189	18.6508
3.302	18.4383
3.2853	18.9802
3.2687	18.8104
3.2523	18.5075
3.2361	18.1431
3.22	17.5605
3.204	16.7985
3.1883	16.2499
3.1727	15.7424
3.1572	15.189
3.1419	14.5614
3.1268	14.0947
3.1117	13.4828
3.0969	13.0333
3.0821	12.3833
3.0675	12.0322
3.0531	11.5812
3.0388	11.3965
3.0246	11.1025
3.0105	10.8889
2.9966	10.8924
2.9828	10.6187
2.9692	10.4467
2.9556	10.2507
2.9422	10.067
2.9289	9.9423
2.9157	10.0181
2.9027	10.1046
2.8897	10.2399
2.8769	10.3239
2.8642	10.3981
2.8516	10.0201
2.8391	9.1052
2.8267	7.7397
2.8144	6.3872
2.8022	5.3764
2.7902	4.2799
2.7782	3.7331
2.7664	3.3585
2.7546	3.5269
2.7429	3.9049
2.7314	5.2079
2.7199	7.1385
2.7085	10.818
2.6973	14.0709
2.6861	17.132
2.675	19.7803
2.664	22.3088
2.6531	23.7332
2.6423	24.0891
2.6315	23.875
2.6209	23.5187
2.6103	23.3632
2.5999	23.6467
2.5895	24.4181
2.5792	25.4608
2.569	26.3925
2.5588	27.1982
2.5487	27.1602
2.5388	26.832
2.5289	26.1724
2.519	25.5175
2.5093	24.9134
2.4996	24.2882
2.49	23.4424
2.4805	22.6924
2.471	21.7403
2.4616	20.9127
2.4523	20.5522
2.4431	20.6223
2.4339	21.2886
2.4248	22.0746
2.4157	22.6217
2.4068	22.8562
2.3979	22.8096
2.389	22.0414
2.3802	21.2618
2.3715	20.8058
2.3629	20.4012
2.3543	19.6998
2.3458	20.4359
2.3373	22.0851
2.3289	24.6894
2.3206	27.9431
2.3123	31.5458
2.3041	34.259
2.2959	35.5711
2.2878	35.7716
2.2798	35.6115
2.2718	34.3069
2.2638	30.7321
2.2559	25.9425
2.2481	23.6399
2.2403	22.9235
2.2326	21.7377
2.225	19.2647
2.2173	18.7399
2.2098	20.6572
2.2023	25.2297
2.1948	31.3078
2.1874	37.6401
2.18	42.1983
2.1727	45.1794
2.1655	47.4196
2.1583	48.5476
2.1511	49.2537
2.144	49.4975
2.1369	49.2532
2.1299	48.7001
2.1229	49.2765
2.116	50.4208
2.1091	52.4047
2.1023	54.4904
2.0955	56.87
2.0887	58.741
2.082	60.5332
2.06	63.4886
2.028	64.517
1.996	64.7756
1.964	64.4576
1.932	64.9939
1.9	63.6317
1.868	66.5789
1.836	67.0525
1.804	68.4279
1.772	68.1282
1.74	67.1064
1.708	65.9398
1.676	64.6197
1.644	62.573
1.612	61.5631
1.58	59.9779
1.548	58.1492
1.516	56.1464
1.484	54.1171
1.452	51.7799
1.42	36.4422
1.388	39.4443
1.356	46.3238
1.324	44.5819
1.292	42.5211
1.26	40.712
1.228	39.5588
1.196	38.2568
1.164	36.9893
1.132	35.6485
1.1	35.7641
1.068	35.0956
1.036	35.194
1.004	35.4481
0.972	35.0639
0.94	34.8461
0.908	34.4368
0.876	34.4929
0.844	35.3641
0.812	35.5979
0.795	35.6744
0.787	35.6879
0.779	35.2722
0.771	34.9858
0.763	34.986
0.755	34.5694
0.747	34.3503
0.739	33.7593
0.731	33.5727
0.723	33.4495
0.715	33.2203
0.707	32.7808
0.699	32.5232
0.691	32.079
0.683	31.6385
0.675	31.5732
0.667	31.8775
0.659	31.2341
0.651	31.3802
0.643	30.8849
0.635	30.632
0.627	30.3137
0.619	30.0691
0.611	29.6347
0.603	29.3485
0.595	29.4252
0.587	29.4567
0.579	29.9703
0.571	29.5059
0.563	29.4324
0.555	28.8355
0.547	29.1975
0.539	28.9933
0.531	28.4663
0.523	28.5546
0.515	28.6408
0.507	27.9456
0.499	27.9428
0.491	27.7102
0.483	27.7662
0.475	27.1319
0.467	26.7082
0.459	25.9136
0.451	24.7241
0.443	23.3411
0.435	23.0804
0.427	22.685
0.419	21.8609
0.411	20.8431
0.403	19.7228
