Name: Limestone CaCO3
Type: Rock
Class: Sedimentary
Subclass: Limestone
Particle Size: Solid
Sample No.: ro397
Owner: Larry Rowan, USGS
Wavelength Range: All
Origin: Ronda, Spain
Description: gray vesicular vuggy limestoneSample was Whole rock chips. Original ASTER Spectral Library name was usgs.perknic.rock.sedimentary.limestone.solid.ls397.spectrum.txt
Measurement: Reflectance
X Units: Wavelength (micrometers)
Y Units: Reflectance (percent)
wavelength	value
0.4	0.219
0.408	0.217
0.416	0.219
0.424	0.219
0.432	0.217
0.44	0.217
0.448	0.219
0.456	0.217
0.464	0.219
0.472	0.219
0.48	0.219
0.488	0.219
0.496	0.223
0.504	0.225
0.512	0.228
0.52	0.23
0.528	0.233
0.536	0.234
0.544	0.236
0.552	0.241
0.56	0.241
0.568	0.241
0.576	0.242
0.584	0.248
0.592	0.243
0.6	0.244
0.608	0.245
0.616	0.243
0.624	0.248
0.632	0.245
0.64	0.247
0.648	0.244
0.656	0.247
0.664	0.245
0.672	0.248
0.68	0.249
0.688	0.247
0.696	0.255
0.704	0.26
0.712	0.264
0.72	0.267
0.728	0.272
0.736	0.275
0.744	0.278
0.752	0.281
0.76	0.283
0.768	0.287
0.776	0.291
0.784	0.299
0.792	0.302
0.8	0.313
0.832	0.333
0.864	0.365
0.896	0.386
0.928	0.404
0.96	0.413
0.992	0.427
1.024	0.443
1.056	0.452
1.088	0.457
1.12	0.463
1.152	0.479
1.184	0.479
1.216	0.481
1.248	0.485
1.28	0.491
1.312	0.493
1.344	0.495
1.376	0.497
1.408	0.479
1.44	0.466
1.472	0.476
1.504	0.479
1.536	0.479
1.568	0.486
1.6	0.495
1.632	0.491
1.664	0.501
1.696	0.487
1.728	0.496
1.76	0.488
1.792	0.493
1.824	0.497
1.856	0.482
1.888	0.457
1.92	0.4
1.952	0.4
1.984	0.418
2.016	0.444
2.048	0.438
2.08	0.436
2.1021	0.4756
2.109	0.4745
2.1159	0.4776
2.1228	0.4748
2.1298	0.4748
2.1368	0.4753
2.1438	0.4721
2.1509	0.473
2.1581	0.4689
2.1653	0.4655
2.1726	0.4752
2.1799	0.4703
2.1872	0.4771
2.1946	0.4762
2.2021	0.4778
2.2096	0.4737
2.2172	0.4795
2.2248	0.4815
2.2324	0.4748
2.2401	0.4735
2.2479	0.4676
2.2557	0.4536
2.2636	0.4441
2.2715	0.4372
2.2795	0.429
2.2876	0.4175
2.2957	0.4137
2.3038	0.4052
2.3121	0.4026
2.3203	0.3973
2.3287	0.3944
2.3371	0.3829
2.3455	0.3876
2.354	0.3966
2.3626	0.4203
2.3712	0.431
2.38	0.4404
2.3887	0.4438
2.3976	0.4395
2.4065	0.436
2.4154	0.4332
2.4245	0.4235
2.4336	0.4182
2.4427	0.4056
2.452	0.3944
2.4613	0.3822
2.4707	0.3701
2.4801	0.3569
2.4896	0.3499
2.4992	0.3448
2.5089	0.3429
2.5187	0.34
2.5285	0.3269
2.5384	0.3259
2.5484	0.341
2.5584	0.369
2.5686	0.3918
2.5788	0.3967
2.5891	0.4054
2.5995	0.4112
2.6099	0.4124
2.6205	0.4114
2.6311	0.4092
2.6418	0.4082
2.6526	0.4004
2.6635	0.393
2.6745	0.3793
2.6856	0.3602
2.6968	0.3073
2.708	0.2733
2.7194	0.2577
2.7309	0.2213
2.7424	0.1923
2.7541	0.1662
2.7658	0.1467
2.7777	0.1343
2.7896	0.1174
2.8017	0.1064
2.8138	0.1001
2.8261	0.0929
2.8385	0.0851
2.851	0.0814
2.8636	0.0782
2.8763	0.0743
2.8891	0.0715
2.902	0.0691
2.915	0.0692
2.9282	0.0678
2.9415	0.0672
2.9549	0.0677
2.9684	0.0671
2.9821	0.0669
2.9959	0.0662
3.0098	0.0668
3.0238	0.066
3.038	0.0663
3.0523	0.0679
3.0667	0.0685
3.0813	0.0718
3.096	0.0728
3.1109	0.0751
3.1259	0.0764
3.141	0.0801
3.1563	0.0821
3.1718	0.0866
3.1874	0.0901
3.2031	0.0912
3.219	0.0932
3.2351	0.0956
3.2513	0.0971
3.2677	0.1005
3.2843	0.1034
3.301	0.105
3.3179	0.1046
3.3349	0.094
3.3522	0.0693
3.3696	0.072
3.3872	0.0708
3.405	0.0705
3.423	0.0716
3.4412	0.074
3.4595	0.0729
3.4781	0.0587
3.4968	0.0708
3.5158	0.0864
3.535	0.1153
3.5544	0.1275
3.574	0.133
3.5938	0.1426
3.6138	0.1489
3.6341	0.1533
3.6545	0.1561
3.6753	0.1595
3.6962	0.1624
3.7174	0.1655
3.7389	0.1655
3.7605	0.1659
3.7825	0.1612
3.8047	0.1362
3.8272	0.112
3.8499	0.0983
3.8729	0.0955
3.8962	0.0934
3.9197	0.0884
3.9436	0.0707
3.9677	0.0488
3.9921	0.0553
4.0169	0.0988
4.0419	0.1369
4.0673	0.1643
4.093	0.1809
4.119	0.193
4.1453	0.2034
4.172	0.2112
4.199	0.216
4.2264	0.2191
4.2541	0.218
4.2822	0.2209
4.3107	0.2191
4.3395	0.2192
4.3688	0.2233
4.3984	0.222
4.4285	0.2172
4.4589	0.2098
4.4898	0.2003
4.5211	0.1958
4.5529	0.1934
4.5851	0.1894
4.6177	0.1819
4.6509	0.1564
4.6845	0.1545
4.7186	0.1845
4.7532	0.1986
4.7883	0.203
4.8239	0.2029
4.8601	0.2032
4.8968	0.202
4.9341	0.2011
4.9719	0.2024
5.0103	0.2028
5.0493	0.2015
5.089	0.1813
5.1292	0.1951
5.1702	0.1911
5.2117	0.1855
5.254	0.1775
5.2969	0.1677
5.3405	0.1554
5.3849	0.1418
5.43	0.124
5.4759	0.1013
5.5225	0.0679
5.57	0.0242
5.6182	0.0633
5.6673	0.06
5.7173	0.0472
5.7682	0.0402
5.82	0.0359
5.8727	0.0317
5.9264	0.0244
5.9811	0.0202
6.0368	0.0184
6.0935	0.0195
6.1513	0.0226
6.2103	0.0268
6.2703	0.0331
6.3316	0.047
6.394	0.0752
6.4577	0.1002
6.5227	0.0968
6.589	0.0866
6.6566	0.0779
6.7257	0.0712
6.7962	0.0667
6.8682	0.0637
6.9418	0.0635
7.0169	0.0651
7.0937	0.0647
7.1722	0.0507
7.2524	0.0497
7.3345	0.0583
7.4184	0.065
7.5043	0.0691
7.5922	0.0698
7.6821	0.0776
7.7743	0.0799
7.8686	0.0806
7.9653	0.0806
8.0644	0.078
8.166	0.0799
8.2701	0.0764
8.377	0.0688
8.4867	0.0564
8.5992	0.0512
8.7149	0.0532
8.8336	0.0574
8.9556	0.0565
9.0811	0.0536
9.2101	0.0492
9.3428	0.0488
9.4795	0.0479
9.6201	0.0456
9.765	0.0442
9.9144	0.0455
10.0684	0.0496
10.2272	0.0575
10.3911	0.0625
10.5604	0.0646
10.7353	0.0666
10.9161	0.0705
11.103	0.0811
11.2965	0.0725
11.4968	0.0476
11.7044	0.059
11.9196	0.0617
12.1429	0.0578
12.3747	0.0517
12.6155	0.0503
12.8659	0.0458
13.1264	0.0458
13.3977	0.0425
13.6804	0.0347
13.9753	0.0186
