Name: Amygdaloidal Basalt
Type: Rock
Class: Igneous
Subclass: Basic
Particle Size: Solid
Sample No.: Ward34
Owner: JPL
Wavelength Range: All
Origin: Ward's Collection of American Rocks.  Sample locality - Mohawk Mine, Ahmeek, Keweenaw County, Michigan.
Description: A purplish, compact rock with innumerable amygdules of varyingsize filled largely with quartz, epidote, calcite, and chlorite.Geologic Age - Pre-Cambrian.Collected by:  Ward's Natural Science Original ASTER Spectral Library name was jpl.nicolet.rock.igneous.basic.solid.ward34.spectrum.txt
Measurement: Hemispherical reflectance
X Units: Wavelength (micrometers)
Y Units: Reflectance (percent)
wavelength	value
15.3871	2.0753
15.118	1.6529
14.8581	2.1361
14.6069	2.188
14.3642	2.0718
14.1293	2.3998
13.9021	2.3833
13.682	2.2905
13.4687	2.8021
13.2621	2.6838
13.0616	2.9113
12.8672	2.8841
12.6784	2.9364
12.4951	2.8205
12.317	2.9869
12.1439	3.3528
11.9757	3.5316
11.812	3.8088
11.6527	3.8254
11.4977	4.0332
11.3468	4.3245
11.1997	4.0815
11.0564	4.7318
10.9168	4.9955
10.7806	5.2327
10.6478	5.5885
10.5182	5.8986
10.3917	6.2338
10.2683	6.7162
10.1477	7.506
10.0299	8.012
9.9148	8.9806
9.8024	9.5891
9.6925	10.2624
9.585	10.2344
9.4798	10.1814
9.377	9.0141
9.2763	8.1576
9.1778	7.9359
9.0814	7.7172
8.987	7.791
8.8945	7.9669
8.8039	8.1498
8.7151	8.1008
8.6281	8.1051
8.5428	7.5891
8.4592	6.8177
8.3772	6.1085
8.2967	5.6501
8.2179	4.9794
8.1404	3.866
8.0645	3.0851
7.9899	2.6966
7.9167	2.3289
7.8449	2.3256
7.7743	2.1932
7.705	2.0509
7.6369	2.081
7.57	2.0006
7.5043	2.0067
7.4397	2.2327
7.3762	2.1215
7.3138	2.1622
7.2524	2.1516
7.1921	2.3498
7.1327	2.4756
7.0743	2.4254
7.0169	2.2269
6.9604	2.3551
6.9047	2.5689
6.85	2.8275
6.7962	3.0817
6.7431	3.2725
6.6909	3.5632
6.6395	3.6623
6.5889	3.7827
6.539	3.7595
6.49	3.7438
6.4416	3.5759
6.3939	3.3772
6.347	3.4745
6.3007	3.1997
6.2551	3.0359
6.2101	2.9679
6.1658	2.6987
6.1222	2.6857
6.0791	2.87
6.0366	2.7905
5.9948	2.9073
5.9535	3.077
5.9127	3.3608
5.8726	3.7469
5.8329	3.8308
5.7938	3.9949
5.7552	4.2288
5.7172	4.3602
5.6796	4.5081
5.6425	4.7637
5.6059	4.7843
5.5698	4.9163
5.5341	5.126
5.4989	5.2119
5.4641	5.5326
5.4298	5.4327
5.3959	5.5536
5.3624	5.6545
5.3294	5.6324
5.2967	5.8162
5.2644	6.0712
5.2326	6.3664
5.2011	6.6009
5.17	6.9127
5.1392	7.1405
5.1088	7.3289
5.0788	7.5109
5.0491	7.7536
5.0198	7.7204
4.9908	7.9054
4.9622	8.0198
4.9338	8.2486
4.9058	8.5297
4.8781	8.719
4.8508	8.9704
4.8237	9.0089
4.7969	9.0682
4.7704	9.0193
4.7443	9.2711
4.7184	9.2564
4.6927	9.4027
4.6674	9.5305
4.6423	9.6496
4.6175	9.8084
4.593	9.9591
4.5687	9.9848
4.5447	10.1429
4.5209	10.3774
4.4974	10.5029
4.4741	10.6415
4.451	10.7211
4.4282	10.9261
4.4057	11.1093
4.3833	11.1854
4.3612	11.4705
4.3393	11.6182
4.3176	11.7512
4.2962	11.693
4.2749	11.8558
4.2539	12.2807
4.233	12.0109
4.2124	12.593
4.192	12.9492
4.1717	12.9009
4.1517	13.19
4.1319	13.3899
4.1122	13.5953
4.0927	13.6047
4.0734	13.8671
4.0543	13.964
4.0354	14.0968
4.0166	14.2705
3.9981	14.3382
3.9796	14.2377
3.9614	14.4608
3.9433	14.4521
3.9254	14.4404
3.9077	14.3968
3.8901	14.5159
3.8726	14.5564
3.8554	14.4986
3.8382	14.4187
3.8213	14.3868
3.8045	14.1722
3.7878	13.9977
3.7713	14.1206
3.7549	14.0653
3.7386	13.775
3.7225	13.6106
3.7066	13.4486
3.6907	13.2976
3.675	13.0708
3.6595	12.9043
3.644	12.695
3.6287	12.5896
3.6136	12.374
3.5985	12.2778
3.5836	11.7961
3.5688	11.5825
3.5541	11.4907
3.5396	10.9581
3.5251	10.8392
3.5108	10.2674
3.4966	9.8077
3.4825	9.8739
3.4685	9.7345
3.4547	9.5124
3.4409	9.382
3.4273	8.9999
3.4137	8.6352
3.4003	8.599
3.387	8.2497
3.3738	8.5558
3.3606	8.0532
3.3476	7.8962
3.3347	8.0156
3.3219	7.708
3.3092	7.8826
3.2965	7.1951
3.284	6.9368
3.2716	6.9141
3.2593	6.812
3.247	6.4099
3.2348	6.3273
3.2228	5.7546
3.2108	5.826
3.1989	5.7559
3.1871	5.2278
3.1754	5.1922
3.1638	4.925
3.1523	5.1144
3.1408	4.5481
3.1294	4.2715
3.1181	4.5391
3.1069	4.1418
3.0958	4.0443
3.0848	3.9067
3.0738	4.0782
3.0629	3.9428
3.0521	4.3032
3.0413	3.8419
3.0307	3.5064
3.0201	3.7586
3.0096	3.6574
2.9991	3.8888
2.9887	3.562
2.9784	3.8174
2.9682	3.396
2.9581	3.6587
2.948	3.0665
2.9379	3.3785
2.928	3.7018
2.9181	2.3844
2.9083	4.0595
2.8985	3.8369
2.8888	3.7645
2.8792	3.4886
2.8697	4.0568
2.8602	3.6412
2.8507	3.7743
2.8413	3.8269
2.832	4.107
2.8228	3.9103
2.8136	3.8554
2.8045	2.9873
2.7954	2.748
2.7864	3.4798
2.7774	4.1342
2.7685	4.2212
2.7597	4.324
2.7509	4.6519
2.7422	5.0693
2.7335	5.2199
2.7249	6.8541
2.7163	7.7565
2.7078	9.2964
2.6994	11.2113
2.691	12.1003
2.6826	12.5455
2.6743	13.143
2.666	14.4733
2.6578	14.1482
2.6497	14.4471
2.6416	14.7194
2.6336	15.1873
2.6256	14.6863
2.6176	14.9057
2.6097	15.1812
2.6018	15.3789
2.594	15.0747
2.5863	15.319
2.5785	15.7509
2.5709	15.3708
2.5633	15.6619
2.5557	15.351
2.5481	15.3202
2.5406	14.9441
2.5332	15.5133
2.5258	15.3682
2.5184	15.6674
2.5111	14.9868
2.5038	15.5163
2.4966	15.649
2.4894	16.006
2.4823	15.5474
2.4752	15.9262
2.4681	15.6603
2.4611	15.6391
2.4541	16.1864
2.4471	16.0548
2.4402	15.9462
2.4333	15.8529
2.4265	16.4014
2.4197	16.4906
2.413	16.2295
2.4063	16.5446
2.3996	16.4122
2.3929	16.2105
2.3863	16.2322
2.3798	16.9513
2.3732	16.9642
2.3667	16.5786
2.3603	17.0373
2.3538	16.405
2.3474	17.6475
2.3411	17.3558
2.3347	17.5289
2.3285	17.1556
2.3222	17.0233
2.316	17.744
2.3098	16.9479
2.3036	16.9168
2.2975	17.0471
2.2914	17.2739
2.2854	17.0308
2.2793	17.089
2.2733	17.8045
2.2674	17.6989
2.2614	17.858
2.2555	17.2499
2.2497	17.6424
2.2438	18.0137
2.238	17.4639
2.2322	17.733
2.2265	17.9591
2.2208	17.7053
2.2151	18.3364
2.2094	17.9651
2.2038	17.9408
2.1982	18.3376
2.1926	18.1035
2.187	18.3494
2.1815	18.3551
2.176	18.0001
2.1706	18.4424
2.1651	18.2204
2.1597	18.1134
2.1543	18.747
2.149	18.0888
2.1436	18.226
2.1383	19.065
2.1331	17.7488
2.1278	18.7329
2.1226	18.025
2.1174	18.1766
2.1122	18.2019
2.1071	17.6853
2.1019	18.9493
2.0968	18.5433
2.0918	18.1419
2.0867	18.1677
2.0817	17.5704
2.0767	18.4564
2.0717	17.4641
2.0667	17.3105
2.0618	17.6802
2.0569	16.6309
2.052	17.1467
2.0472	18.163
2.0423	18.6642
2.0375	18.59
2.0327	17.6553
2.028	18.4036
2.0232	18.2058
2.0185	17.6365
2.0138	18.7514
2.0091	18.941
2.0044	18.6908
1.9998	18.4999
