Name: Augite-Mica Peridotie
Type: Rock
Class: Igneous
Subclass: Ultramafic
Particle Size: Solid
Sample No.: Ward46
Owner: JPL
Wavelength Range: All
Origin: Ward's Collection of American Rocks.  Sample locality - Murfreesboro, Pike County, Arkansas.
Description: A dense greenish black rock with porphyritic texture.  Thephenocrysts are olivine more or less altered to serpentine.Geologic age - Post-Lower Cretaceous.Collected by:  Ward's Natural Science Original ASTER Spectral Library name was jpl.nicolet.rock.igneous.ultramafic.solid.ward46.spectrum.txt
Measurement: Hemispherical reflectance
X Units: Wavelength (micrometers)
Y Units: Reflectance (percent)
wavelength	value
15.3871	4.5823
15.118	4.0307
14.8581	3.7201
14.6069	3.246
14.3642	2.7975
14.1293	2.0938
13.9021	2.4431
13.682	3.0539
13.4687	2.7171
13.2621	2.5179
13.0616	2.5892
12.8672	3.034
12.6784	3.3486
12.4951	2.8959
12.317	3.6478
12.1439	3.9468
11.9757	4.5493
11.812	4.9269
11.6527	5.662
11.4977	6.553
11.3468	6.6098
11.1997	6.9715
11.0564	7.6433
10.9168	8.5464
10.7806	8.3592
10.6478	10.3304
10.5182	11.6337
10.3917	12.5291
10.2683	13.5826
10.1477	13.6961
10.0299	14.7657
9.9148	15.8
9.8024	16.729
9.6925	17.3289
9.585	16.5071
9.4798	13.978
9.377	12.2501
9.2763	10.013
9.1778	8.1028
9.0814	6.4705
8.987	5.076
8.8945	3.9011
8.8039	2.9989
8.7151	1.8822
8.6281	2.2025
8.5428	1.4163
8.4592	1.5202
8.3772	1.5232
8.2967	1.7817
8.2179	2.0835
8.1404	1.96
8.0645	1.7067
7.9899	2.044
7.9167	1.742
7.8449	1.9311
7.7743	2.3403
7.705	2.3324
7.6369	2.3039
7.57	2.6646
7.5043	2.4697
7.4397	2.6633
7.3762	2.883
7.3138	2.7654
7.2524	2.903
7.1921	2.734
7.1327	2.8908
7.0743	2.9035
7.0169	3.2962
6.9604	3.3084
6.9047	3.4434
6.85	3.7255
6.7962	3.9876
6.7431	3.7552
6.6909	3.7228
6.6395	3.7918
6.5889	3.6716
6.539	3.7811
6.49	3.4478
6.4416	3.5861
6.3939	3.268
6.347	3.3352
6.3007	3.0284
6.2551	2.7479
6.2101	2.9031
6.1658	2.5156
6.1222	2.4418
6.0791	2.5097
6.0366	2.4825
5.9948	2.2093
5.9535	2.8157
5.9127	2.903
5.8726	3.1248
5.8329	3.2683
5.7938	3.4632
5.7552	3.5798
5.7172	3.835
5.6796	3.72
5.6425	4.0755
5.6059	3.8618
5.5698	4.3932
5.5341	4.2547
5.4989	4.3781
5.4641	4.5355
5.4298	4.3324
5.3959	4.2103
5.3624	4.768
5.3294	4.4923
5.2967	4.4994
5.2644	4.7024
5.2326	4.6456
5.2011	4.5148
5.17	4.9732
5.1392	4.7726
5.1088	4.8333
5.0788	4.7839
5.0491	4.8801
5.0198	5.0595
4.9908	4.7816
4.9622	5.0627
4.9338	5.2626
4.9058	5.1012
4.8781	5.2283
4.8508	5.4238
4.8237	5.5306
4.7969	5.3106
4.7704	5.2887
4.7443	5.4406
4.7184	5.277
4.6927	5.7068
4.6674	5.6324
4.6423	5.6979
4.6175	5.4865
4.593	5.7224
4.5687	5.5286
4.5447	5.8985
4.5209	5.755
4.4974	5.6593
4.4741	5.8043
4.451	5.9072
4.4282	5.8646
4.4057	5.7008
4.3833	5.8465
4.3612	5.9884
4.3393	6.1634
4.3176	5.6571
4.2962	6.1949
4.2749	6.2816
4.2539	6.2756
4.233	6.0843
4.2124	6.3
4.192	6.3329
4.1717	6.4393
4.1517	6.5439
4.1319	6.8572
4.1122	6.1418
4.0927	6.4785
4.0734	6.1672
4.0543	6.6936
4.0354	6.5657
4.0166	6.4006
3.9981	6.4476
3.9796	6.5936
3.9614	6.2123
3.9433	6.6251
3.9254	6.5283
3.9077	6.4743
3.8901	6.4773
3.8726	6.7077
3.8554	6.4192
3.8382	6.4984
3.8213	6.4398
3.8045	6.3458
3.7878	6.1185
3.7713	5.9011
3.7549	6.4408
3.7386	5.8486
3.7225	6.0863
3.7066	5.8925
3.6907	6.2711
3.675	5.3826
3.6595	6.1088
3.644	5.9349
3.6287	5.8129
3.6136	5.9292
3.5985	5.4713
3.5836	5.7879
3.5688	5.2314
3.5541	5.0207
3.5396	5.8796
3.5251	4.65
3.5108	5.2981
3.4966	4.8443
3.4825	5.162
3.4685	4.9958
3.4547	4.7208
3.4409	4.6569
3.4273	4.4925
3.4137	4.8469
3.4003	4.685
3.387	4.8138
3.3738	5.3185
3.3606	4.6475
3.3476	5.1256
3.3347	4.4187
3.3219	4.7927
3.3092	4.3291
3.2965	4.0508
3.284	4.8261
3.2716	4.2028
3.2593	4.3418
3.247	3.8553
3.2348	3.6472
3.2228	4.0573
3.2108	4.0788
3.1989	3.9247
3.1871	3.9726
3.1754	3.1006
3.1638	4.6514
3.1523	3.6749
3.1408	4.0582
3.1294	4.6057
3.1181	3.2054
3.1069	3.8637
3.0958	4.0655
3.0848	3.0187
3.0738	3.615
3.0629	3.3782
3.0521	4.0802
3.0413	3.2194
3.0307	3.4009
3.0201	2.9156
3.0096	4.2808
2.9991	3.6916
2.9887	4.0264
2.9784	5.3169
2.9682	4.0573
2.9581	3.5042
2.948	4.1996
2.9379	4.234
2.928	4.607
2.9181	2.5801
2.9083	4.7182
2.8985	3.496
2.8888	3.2613
2.8792	3.4628
2.8697	3.5104
2.8602	4.0674
2.8507	3.5616
2.8413	2.8991
2.832	2.9193
2.8228	3.8962
2.8136	3.201
2.8045	3.8396
2.7954	2.6471
2.7864	4.5173
2.7774	3.1468
2.7685	2.8226
2.7597	3.9098
2.7509	2.5033
2.7422	4.3971
2.7335	3.283
2.7249	3.4261
2.7163	3.5599
2.7078	4.1691
2.6994	3.4176
2.691	4.6772
2.6826	5.0864
2.6743	9.2385
2.666	8.8136
2.6578	10.2273
2.6497	9.9565
2.6416	10.8178
2.6336	9.6475
2.6256	9.5535
2.6176	10.2895
2.6097	10.8312
2.6018	12.0583
2.594	9.98
2.5863	10.694
2.5785	10.5147
2.5709	11.0648
2.5633	11.1153
2.5557	11.0514
2.5481	10.283
2.5406	10.1327
2.5332	10.2686
2.5258	10.8147
2.5184	11.2478
2.5111	10.7812
2.5038	10.6031
2.4966	10.3137
2.4894	11.3512
2.4823	10.5211
2.4752	11.6025
2.4681	12.4882
2.4611	10.8703
2.4541	11.1352
2.4471	11.3539
2.4402	12.1442
2.4333	11.3714
2.4265	12.0516
2.4197	12.8425
2.413	11.1408
2.4063	11.4474
2.3996	12.0874
2.3929	11.7461
2.3863	11.7903
2.3798	11.9426
2.3732	12.0152
2.3667	12.9883
2.3603	11.9843
2.3538	10.9381
2.3474	12.9221
2.3411	10.0477
2.3347	12.0294
2.3285	13.1447
2.3222	12.23
2.316	11.0927
2.3098	12.9016
2.3036	11.9518
2.2975	12.535
2.2914	13.6716
2.2854	12.3364
2.2793	14.0937
2.2733	13.1818
2.2674	13.5787
2.2614	13.6529
2.2555	13.5101
2.2497	13.5429
2.2438	14.6453
2.238	14.961
2.2322	16.6019
2.2265	13.6519
2.2208	14.903
2.2151	15.9938
2.2094	14.6369
2.2038	15.6951
2.1982	15.4256
2.1926	16.8129
2.187	14.5897
2.1815	16.8902
2.176	16.6478
2.1706	14.9855
2.1651	17.4514
2.1597	16.2903
2.1543	14.7151
2.149	16.8777
2.1436	15.2071
2.1383	17.6717
2.1331	14.7554
2.1278	16.3687
2.1226	13.7672
2.1174	16.9592
2.1122	16.2744
2.1071	15.7579
2.1019	16.183
2.0968	14.9579
2.0918	15.5113
2.0867	13.6336
2.0817	16.3034
2.0767	17.0007
2.0717	15.9389
2.0667	16.6284
2.0618	15.2534
2.0569	17.2059
2.052	18.1983
2.0472	14.2095
2.0423	16.3653
2.0375	16.5354
2.0327	15.7847
2.028	14.5773
2.0232	13.7746
2.0185	14.0217
2.0138	16.749
2.0091	16.5295
2.0044	13.1808
1.9998	12.9354
