Name: Sillimanite-Garnet Gneiss
Type: Rock
Class: Metamorphic
Subclass: Gneis
Particle Size: Solid
Sample No.: Ward80
Owner: JPL
Wavelength Range: All
Origin: Ward's Collection of American Rocks.  Sample locality - near Hague, Warren County, New York.  Collected by - JPL.
Description: A banded rock.  A compact, granular rock with poor gneissicstructure.  It has a mottled color; dark red due to garnet and pale green apparently due to quartz and feldpsar.  Geologic age - Pre-Cambrian.Collected by:  Ward's Natural Science Original ASTER Spectral Library name was jpl.nicolet.rock.metamorphic.gneiss.solid.ward80.spectrum.txt
Measurement: Hemispherical reflectance
X Units: Wavelength (micrometers)
Y Units: Reflectance (percent)
wavelength	value
15.3871	4.8443
15.118	5.0149
14.8581	6.1397
14.6069	8.422
14.3642	9.9293
14.1293	9.9076
13.9021	9.7241
13.682	9.3454
13.4687	8.5941
13.2621	7.6884
13.0616	7.183
12.8672	8.0417
12.6784	7.7508
12.4951	9.1843
12.317	7.9167
12.1439	8.7174
11.9757	8.7648
11.812	9.9684
11.6527	10.2181
11.4977	12.7235
11.3468	13.9505
11.1997	14.6331
11.0564	18.1599
10.9168	16.357
10.7806	12.1687
10.6478	11.1315
10.5182	13.3483
10.3917	17.6932
10.2683	19.3625
10.1477	20.8137
10.0299	22.0797
9.9148	22.7976
9.8024	22.5975
9.6925	22.5548
9.585	21.7349
9.4798	20.7801
9.377	21.479
9.2763	22.4422
9.1778	21.4084
9.0814	20.2016
8.987	19.486
8.8945	19.8147
8.8039	19.8355
8.7151	18.9966
8.6281	15.3359
8.5428	20.0751
8.4592	21.0598
8.3772	20.1889
8.2967	18.909
8.2179	16.5585
8.1404	12.7659
8.0645	8.1824
7.9899	5.3921
7.9167	3.7054
7.8449	2.9264
7.7743	2.5218
7.705	2.3636
7.6369	2.2204
7.57	2.1282
7.5043	2.241
7.4397	2.253
7.3762	2.2673
7.3138	2.3251
7.2524	2.303
7.1921	2.4748
7.1327	2.4524
7.0743	2.5424
7.0169	2.6791
6.9604	2.7766
6.9047	2.7571
6.85	2.743
6.7962	2.9447
6.7431	2.8399
6.6909	2.8289
6.6395	3.0415
6.5889	2.9955
6.539	3.0851
6.49	3.1591
6.4416	3.2698
6.3939	3.3617
6.347	3.3199
6.3007	3.4118
6.2551	3.2473
6.2101	3.4459
6.1658	3.4072
6.1222	3.5013
6.0791	3.6269
6.0366	3.5469
5.9948	3.6487
5.9535	3.5252
5.9127	3.6462
5.8726	3.6462
5.8329	3.6388
5.7938	3.6261
5.7552	3.6521
5.7172	3.6431
5.6796	3.6424
5.6425	3.5441
5.6059	3.4467
5.5698	3.5004
5.5341	3.5534
5.4989	3.6839
5.4641	3.7427
5.4298	3.8927
5.3959	3.8259
5.3624	3.8192
5.3294	3.8987
5.2967	3.9031
5.2644	4.0885
5.2326	4.1275
5.2011	4.3336
5.17	4.4546
5.1392	4.3587
5.1088	4.4989
5.0788	4.7057
5.0491	4.6177
5.0198	4.7984
4.9908	4.9849
4.9622	5.0599
4.9338	5.2167
4.9058	5.4734
4.8781	5.8016
4.8508	5.9794
4.8237	6.0816
4.7969	6.2555
4.7704	6.3807
4.7443	6.513
4.7184	6.7002
4.6927	6.6635
4.6674	6.7207
4.6423	6.9991
4.6175	7.1881
4.593	7.3294
4.5687	7.4748
4.5447	7.6512
4.5209	7.5092
4.4974	7.4326
4.4741	7.5386
4.451	7.6139
4.4282	7.881
4.4057	8
4.3833	8.1619
4.3612	8.0923
4.3393	7.9593
4.3176	8.4518
4.2962	8.6832
4.2749	8.8551
4.2539	9.16
4.233	9.2973
4.2124	9.5017
4.192	9.6864
4.1717	9.8133
4.1517	9.9399
4.1319	10.0304
4.1122	10.177
4.0927	10.1352
4.0734	10.4136
4.0543	10.3964
4.0354	10.4172
4.0166	10.4385
3.9981	10.6472
3.9796	10.5866
3.9614	10.6179
3.9433	10.7154
3.9254	10.9811
3.9077	10.8029
3.8901	10.8219
3.8726	10.7903
3.8554	10.7928
3.8382	10.8211
3.8213	10.8661
3.8045	10.759
3.7878	10.8185
3.7713	10.6628
3.7549	10.8039
3.7386	10.607
3.7225	10.9193
3.7066	10.6731
3.6907	10.7804
3.675	10.9066
3.6595	11.0894
3.644	11.1545
3.6287	11.0459
3.6136	10.9582
3.5985	11.0474
3.5836	10.9839
3.5688	10.8542
3.5541	10.8533
3.5396	10.6387
3.5251	10.6691
3.5108	10.6707
3.4966	10.5164
3.4825	10.6518
3.4685	10.3567
3.4547	10.2166
3.4409	10.2698
3.4273	10.194
3.4137	10.2397
3.4003	10.0866
3.387	9.9663
3.3738	9.6137
3.3606	9.8399
3.3476	9.4807
3.3347	9.5768
3.3219	9.2006
3.3092	9.2477
3.2965	9.2219
3.284	8.847
3.2716	8.7261
3.2593	8.6951
3.247	8.7612
3.2348	8.1814
3.2228	8.2269
3.2108	8.298
3.1989	7.7348
3.1871	7.9768
3.1754	7.5906
3.1638	7.8568
3.1523	7.2578
3.1408	7.0278
3.1294	7.4629
3.1181	7.1326
3.1069	6.9181
3.0958	7.1337
3.0848	6.3747
3.0738	6.1034
3.0629	6.3336
3.0521	6.2515
3.0413	6.087
3.0307	6.1106
3.0201	6.045
3.0096	5.8968
2.9991	5.9426
2.9887	5.4929
2.9784	5.6218
2.9682	5.3692
2.9581	5.531
2.948	5.6034
2.9379	5.6655
2.928	5.7509
2.9181	5.7207
2.9083	5.8318
2.8985	5.8523
2.8888	5.5686
2.8792	6.1645
2.8697	5.8665
2.8602	5.9693
2.8507	5.8646
2.8413	5.6895
2.832	5.7086
2.8228	5.9655
2.8136	5.8944
2.8045	6.4143
2.7954	6.5343
2.7864	5.4243
2.7774	5.0072
2.7685	5.2266
2.7597	4.9891
2.7509	5.1987
2.7422	5.3216
2.7335	5.7436
2.7249	6.0365
2.7163	6.4805
2.7078	7.357
2.6994	7.677
2.691	9.3515
2.6826	10.735
2.6743	10.5988
2.666	10.8666
2.6578	10.9784
2.6497	10.7981
2.6416	11.5282
2.6336	10.9611
2.6256	10.8786
2.6176	11.2578
2.6097	11.4332
2.6018	10.9966
2.594	11.435
2.5863	10.5771
2.5785	10.8632
2.5709	11.1325
2.5633	10.7821
2.5557	11.3768
2.5481	11.393
2.5406	11.0106
2.5332	11.3744
2.5258	10.7919
2.5184	11.2077
2.5111	11.5924
2.5038	10.928
2.4966	10.7139
2.4894	10.9175
2.4823	11.0288
2.4752	10.8638
2.4681	10.6015
2.4611	11.2096
2.4541	11.2682
2.4471	10.9184
2.4402	10.9732
2.4333	10.6445
2.4265	11.0724
2.4197	10.8735
2.413	11.7114
2.4063	11.4046
2.3996	11.1976
2.3929	10.945
2.3863	11.171
2.3798	11.0344
2.3732	11.0333
2.3667	10.7872
2.3603	11.4199
2.3538	11.0718
2.3474	11.156
2.3411	10.6899
2.3347	10.5866
2.3285	11.3927
2.3222	10.7156
2.316	11.3536
2.3098	11.0163
2.3036	11.8011
2.2975	11.3482
2.2914	11.7988
2.2854	11.831
2.2793	11.5703
2.2733	11.6108
2.2674	11.6503
2.2614	12.6041
2.2555	11.4289
2.2497	12.1127
2.2438	11.534
2.238	11.5629
2.2322	11.7278
2.2265	12.0687
2.2208	11.3491
2.2151	11.2628
2.2094	11.6318
2.2038	10.2094
2.1982	11.1104
2.1926	12.0041
2.187	11.7866
2.1815	11.0983
2.176	11.2487
2.1706	12.4642
2.1651	11.9794
2.1597	12.7773
2.1543	10.8984
2.149	12.2792
2.1436	13.2341
2.1383	12.2236
2.1331	12.3606
2.1278	12.8276
2.1226	12.3235
2.1174	12.2137
2.1122	12.5922
2.1071	12.6089
2.1019	11.9925
2.0968	13.0032
2.0918	11.451
2.0867	13.3343
2.0817	11.859
2.0767	14.7673
2.0717	13.0857
2.0667	11.9655
2.0618	11.5398
2.0569	13.7064
2.052	11.5402
2.0472	11.1387
2.0423	11.627
2.0375	12.1493
2.0327	12.772
2.028	11.4926
2.0232	14.4431
2.0185	11.2877
2.0138	14.0461
2.0091	12.1553
2.0044	12.4889
1.9998	12.9789
