Name: Augite-hypersthene Andesite
Type: rock
Class: Igneous
Subclass: Intermediate
Particle Size: Fine
Sample No.: Andesite_H2
Owner: JHU
Wavelength Range: All
Origin: Saipan, via Smithsonian (Cat. No
Description: The sample from which the powder was derived consists of a dark gray, fine-grained groundmass, with yellow (hypersthene?), dark green (augite?) and white (plagioclase) phenocrysts. The sample is also slightly vuggy.Particle size was 0-75 micrometers. Original ASTER Spectral Library name was jhu.becknic.rock.igneous.intermediate.fine.andesi2.spectrum.txt
Measurement: Directional (10 degree) hemispherical reflectance
X Units: Wavelength (micrometers)
Y Units: Reflectance (percent)
wavelength	value
14.011	0.9722
13.715	1.065
13.43	1.2657
13.158	1.6924
12.896	1.5828
12.644	1.6041
12.402	2.4774
12.169	4.1198
11.945	4.5924
11.729	4.2098
11.52	3.9415
11.319	3.7158
11.125	3.4244
10.937	3.1348
10.755	2.9268
10.58	2.6775
10.41	2.509
10.245	2.4078
10.086	2.3519
9.9313	2.3416
9.7814	2.314
9.636	2.3405
9.4948	2.3008
9.3577	2.3341
9.2245	2.6096
9.095	2.7956
8.9691	2.7759
8.8467	2.6602
8.7275	2.587
8.6116	2.5626
8.4986	2.5332
8.3886	2.4098
8.2814	2.3665
8.1769	2.2212
8.075	2.2521
7.9756	2.659
7.8786	3.169
7.784	3.5512
7.6916	3.8976
7.6014	4.2574
7.5133	4.6901
7.4272	5.0885
7.343	5.3794
7.2607	5.67
7.1803	5.8758
7.1016	6.1563
7.0246	6.0607
6.9493	6.0951
6.8755	6.3588
6.8034	7.0688
6.7327	7.8815
6.6634	8.4776
6.5956	9.0994
6.5292	9.5029
6.464	9.5665
6.4002	9.4935
6.3376	9.2444
6.2762	8.7712
6.216	7.9545
6.157	6.9665
6.099	6.8662
6.0421	7.7241
5.9863	9.5709
5.9315	11.528
5.8777	13.319
5.8249	14.6
5.773	15.49
5.722	16.108
5.6719	16.504
5.6227	16.99
5.5744	16.322
5.5268	17.935
5.4801	18.589
5.4341	18.94
5.3889	18.317
5.3445	17.048
5.3008	17.589
5.2578	19.541
5.2154	21.801
5.1738	23.558
5.1328	24.395
5.0925	24.677
5.0528	24.735
5.0137	24.949
4.9752	25.555
4.9373	26.699
4.9	28.506
4.8632	30.227
4.827	31.533
4.7913	32.358
4.7561	33.006
4.7215	33.444
4.6873	33.824
4.6536	34.256
4.6205	34.93
4.5877	35.467
4.5555	35.979
4.5237	36.35
4.4923	36.657
4.4614	36.924
4.4309	37.064
4.4008	37.243
4.3711	37.576
4.3418	37.981
4.3129	38.39
4.2844	38.841
4.2563	39.175
4.2285	39.425
4.2011	39.708
4.174	39.853
4.1473	40.032
4.1209	40.182
4.0949	40.247
4.0692	40.272
4.0438	39.992
4.0187	39.069
3.994	37.675
3.9695	37.148
3.9453	38.341
3.9214	39.108
3.8979	39.245
3.8746	39.277
3.8515	39.241
3.8288	39.483
3.8063	39.863
3.7841	40.059
3.7621	39.912
3.7404	39.705
3.7189	39.495
3.6977	39.221
3.6767	38.971
3.656	38.663
3.6355	38.341
3.6152	37.959
3.5951	37.571
3.5753	37.105
3.5557	36.556
3.5363	35.732
3.5171	34.475
3.4981	33.192
3.4793	32.697
3.4607	32.923
3.4423	32.371
3.4241	31.367
3.4061	30.697
3.3883	30.363
3.3707	29.831
3.3533	29.346
3.336	29.207
3.3189	28.753
3.302	28.06
3.2853	27.332
3.2687	26.542
3.2523	25.783
3.2361	24.973
3.22	24.145
3.204	23.299
3.1883	22.453
3.1727	21.616
3.1572	20.826
3.1419	19.975
3.1268	19.221
3.1117	18.597
3.0969	18.077
3.0821	17.697
3.0675	17.555
3.0531	17.366
3.0388	17.215
3.0246	16.981
3.0105	16.633
2.9966	16.229
2.9828	15.943
2.9692	15.625
2.9556	15.455
2.9422	15.335
2.9289	15.235
2.9157	15.234
2.9027	15.38
2.8897	15.496
2.8769	15.44
2.8642	15.342
2.8516	15.002
2.8391	14.52
2.8267	13.88
2.8144	12.995
2.8022	12.682
2.7902	12.81
2.7782	12.797
2.7664	12.948
2.7546	13.63
2.7429	15.741
2.7314	18.616
2.7199	21.96
2.7085	26.696
2.6973	30.035
2.6861	32.053
2.675	32.824
2.664	33.167
2.6531	34.004
2.6423	34.363
2.6315	34.236
2.6209	34.094
2.6103	34.465
2.5999	34.545
2.5895	34.473
2.5792	34.541
2.569	34.258
2.5588	34.362
2.5487	34.392
2.5388	34.252
2.5289	34.227
2.519	34.305
2.5093	34.191
2.4996	34.222
2.49	34.121
2.4805	34.134
2.471	34.104
2.4616	34.017
2.4523	34.082
2.4431	34.119
2.4339	33.967
2.4248	33.907
2.4157	33.946
2.4068	34.001
2.3979	33.922
2.389	33.822
2.3802	33.726
2.3715	33.723
2.3629	33.71
2.3543	33.718
2.3458	33.802
2.3373	33.996
2.3289	33.883
2.3206	33.664
2.3123	33.639
2.3041	33.533
2.2959	33.521
2.2878	33.597
2.2798	33.548
2.2718	33.689
2.2638	33.69
2.2559	33.622
2.2481	33.649
2.2403	33.566
2.2326	33.556
2.225	33.568
2.2173	33.569
2.2098	33.507
2.2023	33.736
2.1948	33.641
2.1874	33.758
2.18	33.76
2.1727	33.875
2.1655	33.793
2.1583	33.728
2.1511	33.767
2.144	33.738
2.1369	33.793
2.1299	33.832
2.1229	33.827
2.116	33.84
2.1091	33.748
2.1023	33.785
2.0955	33.721
2.0887	33.805
2.082	33.753
2.06	33.675
2.028	33.311
1.996	32.681
1.964	32.409
1.932	31.722
1.9	30.863
1.868	32.226
1.836	32.713
1.804	32.421
1.772	32.093
1.74	32.572
1.708	32.418
1.676	32.421
1.644	32.266
1.612	32.318
1.58	32.018
1.548	32.099
1.516	32.138
1.484	31.84
1.452	31.82
1.42	31.623
1.388	31.42
1.356	32.169
1.324	31.494
1.292	31.993
1.26	31.67
1.228	32.158
1.196	32.03
1.164	31.901
1.132	31.848
1.1	31.65
1.068	31.235
1.036	30.833
1.004	31.113
0.972	30.91
0.94	31.1
0.908	31.401
0.876	31.911
0.844	32.169
0.812	32.687
0.795	32.516
0.787	32.481
0.779	32.818
0.771	32.412
0.763	32.776
0.755	32.306
0.747	32.345
0.739	32.509
0.731	32.49
0.723	32.818
0.715	32.316
0.707	32.341
0.699	32.023
0.691	32.211
0.683	32.084
0.675	32.101
0.667	31.576
0.659	31.605
0.651	31.409
0.643	31.306
0.635	31.235
0.627	31.151
0.619	30.709
0.611	30.68
0.603	30.421
0.595	30.561
0.587	30.24
0.579	29.812
0.571	29.654
0.563	29.216
0.555	28.29
0.547	28.183
0.539	27.75
0.531	27.36
0.523	27.212
0.515	26.943
0.507	26.507
0.499	26.381
0.491	26.242
0.483	26.286
0.475	25.581
0.467	25.507
0.459	25.539
0.451	25.172
0.443	24.755
0.435	24.611
0.427	24.254
0.419	23.678
0.411	23.288
0.403	22.836
