Name: Marble
Type: rock
Class: Metamorphic
Subclass: Marble
Particle Size: Coarse
Sample No.: marble3
Owner: JHU
Wavelength Range: All
Origin: Sample No. 456, The Hunt and Salisbury Collection at the U.S.Geological Survey, Denver, Co.
Description: This is a medium-grained sample containing anhedral calcite with a few scattered (small) regions of recrystallized quartz.Particle size was 500-1500 Micrometer. Original ASTER Spectral Library name was jhu.becknic.rock.metamorphic.marble.coarse.marble3.spectrum.txt
Measurement: Directional (10 Degree) Hemispherical Reflectance
X Units: Wavelength (micrometers)
Y Units: Reflectance (percent)
wavelength	value
14.0112	3.2089
13.7147	3.8727
13.4304	6.1673
13.1577	5.2751
12.8959	3.9353
12.6443	4.2951
12.4023	4.4626
12.1694	4.6772
11.945	4.6768
11.7289	4.4452
11.5203	5.6936
11.3191	15.7768
11.1248	3.9806
10.937	4.2995
10.7555	3.7872
10.5799	3.6104
10.4099	3.9819
10.2454	3.9449
10.0859	3.8389
9.9313	3.76
9.7814	3.8966
9.636	4.5124
9.4948	4.9563
9.3577	4.7215
9.2245	4.6055
9.095	4.9103
8.9691	4.6806
8.8467	4.5983
8.7275	4.3116
8.6116	4.1429
8.4986	4.1667
8.3886	4.1676
8.2814	4.3348
8.1769	4.4641
8.075	4.5172
7.9756	4.6583
7.8786	4.91
7.784	5.0916
7.6916	5.3057
7.6014	5.5278
7.5133	5.8621
7.4272	6.4178
7.343	7.1416
7.2607	8.123
7.1803	10.5235
7.1016	14.6839
7.0246	16.8554
6.9493	17.5431
6.8755	19.0207
6.8034	20.9396
6.7327	23.4
6.6634	26.3609
6.5956	29.4487
6.5292	31.9731
6.464	29.8937
6.4002	13.1414
6.3376	5.0041
6.2762	2.2581
6.216	1.2894
6.157	1.0819
6.099	1.0462
6.0421	1.0949
5.9863	1.1554
5.9315	1.2343
5.8777	1.3209
5.8249	1.4013
5.773	1.4322
5.722	1.4865
5.6719	1.6076
5.6227	1.6578
5.5744	1.5858
5.5268	1.6373
5.4801	2.1006
5.4341	3.0361
5.3889	4.6983
5.3445	6.9023
5.3008	9.5992
5.2578	11.9609
5.2154	14.2416
5.1738	16.3111
5.1328	17.9517
5.0925	11.8289
5.0528	21.146
5.0137	20.9311
4.9752	20.39
4.9373	19.8696
4.9	20.1916
4.8632	20.7084
4.827	21.2403
4.7913	21.1661
4.7561	17.9861
4.7215	10.3974
4.6873	4.2264
4.6536	4.4387
4.6205	8.7652
4.5877	10.9518
4.5555	11.2841
4.5237	11.3944
4.4923	12.4718
4.4614	16.1776
4.4309	19.9507
4.4008	22.2937
4.3711	22.7784
4.3418	18.9932
4.3129	18.6597
4.2844	19.8708
4.2563	18.7855
4.2285	17.2533
4.2011	15.8384
4.174	13.8797
4.1473	11.5305
4.1209	8.6992
4.0949	6.5817
4.0692	4.8045
4.0438	3.3757
4.0187	2.7072
3.994	2.4354
3.9695	2.3333
3.9453	2.4933
3.9214	2.5856
3.8979	2.6271
3.8746	2.6314
3.8515	2.7335
3.8288	2.9081
3.8063	3.6362
3.7841	8.2092
3.7621	11.9047
3.7404	13.9504
3.7189	16.4764
3.6977	17.5899
3.6767	17.7747
3.656	17.1234
3.6355	15.8594
3.6152	14.2281
3.5951	11.237
3.5753	6.8939
3.5557	6.2937
3.5363	4.2578
3.5171	2.8884
3.4981	2.722
3.4793	2.6306
3.4607	2.7574
3.4423	2.8328
3.4241	2.8505
3.4061	2.862
3.3883	2.8699
3.3707	2.8524
3.3533	2.7127
3.336	3.6717
3.3189	6.0058
3.302	8.0998
3.2853	10.307
3.2687	12.5996
3.2523	14.5933
3.2361	16.3075
3.22	18.3307
3.204	20.054
3.1883	20.9881
3.1727	20.1636
3.1572	15.4041
3.1419	15.4881
3.1268	16.866
3.1117	13.8336
3.0969	15.5874
3.0821	19.7803
3.0675	22.277
3.0531	24.7576
3.0388	27.3889
3.0246	29.7933
3.0105	31.9978
2.9966	33.8697
2.9828	35.0531
2.9692	35.5182
2.9556	35.545
2.9422	35.7979
2.9289	36.5707
2.9157	36.9509
2.9027	37.2196
2.8897	37.671
2.8769	37.8801
2.8642	37.8919
2.8516	37.3344
2.8391	35.4685
2.8267	30.9728
2.8144	25.9393
2.8022	19.6907
2.7902	12.6733
2.7782	14.7128
2.7664	20.0112
2.7546	23.489
2.7429	26.1734
2.7314	30.9082
2.7199	37.0367
2.7085	44.332
2.6973	51.6559
2.6861	57.6579
2.675	61.0529
2.664	63.2654
2.6531	64.8592
2.6423	64.9552
2.6315	64.0357
2.6209	62.5653
2.6103	60.3572
2.5999	56.9961
2.5895	51.3429
2.5792	46.4248
2.569	41.0852
2.5588	30.5462
2.5487	19.0697
2.5388	13.7353
2.5289	14.9459
2.519	18.8233
2.5093	20.8929
2.4996	21.7712
2.49	22.9706
2.4805	25.6075
2.471	30.3067
2.4616	36.3754
2.4523	41.575
2.4431	45.8818
2.4339	50.0558
2.4248	54.0683
2.4157	57.5248
2.4068	58.4448
2.3979	58.455
2.389	59.5872
2.3802	57.299
2.3715	51.4685
2.3629	41.782
2.3543	31.1013
2.3458	25.3929
2.3373	24.4052
2.3289	27.1572
2.3206	30.7833
2.3123	32.912
2.3041	34.1095
2.2959	35.6945
2.2878	38.1163
2.2798	42.1791
2.2718	46.5896
2.2638	50.3122
2.2559	53.8065
2.2481	56.8836
2.2403	59.438
2.2326	61.5774
2.225	63.3072
2.2173	65.4526
2.2098	67.6526
2.2023	69.6351
2.1948	71.1225
2.1874	71.7183
2.18	70.8154
2.1727	69.3669
2.1655	67.1052
2.1583	66.1924
2.1511	66.5618
2.144	69.1411
2.1369	72.5193
2.1299	74.2688
2.1229	74.9612
2.116	75.956
2.1091	77.1227
2.1023	78.5804
2.0955	79.5121
2.0887	80.3084
2.082	80.9763
2.06	81.8898
2.028	81.1123
1.996	72.4102
1.964	74.9249
1.932	79.504
1.9	81.3013
1.868	72.7609
1.836	78.2754
1.804	82.6318
1.772	82.9779
1.74	81.5384
1.708	82.5479
1.676	83.9319
1.644	83.027
1.612	83.8411
1.58	83.5097
1.548	82.7542
1.516	83.7336
1.484	82.8732
1.452	82.5542
1.42	82.2025
1.388	82.109
1.356	83.5946
1.324	83.3047
1.292	82.9825
1.26	83.1325
1.228	82.557
1.196	82.7722
1.164	83.0866
1.132	82.9408
1.1	82.8374
1.068	83.4995
1.036	83.5838
1.004	84.6646
0.972	85.4764
0.94	85.7663
0.908	86.75
0.876	87.1977
0.844	87.3589
0.812	87.7346
0.795	88.8552
0.787	88.619
0.779	88.8719
0.771	88.6679
0.763	88.8621
0.755	88.8034
0.747	88.5277
0.739	88.6185
0.731	88.9742
0.723	88.9919
0.715	89.0246
0.707	88.4071
0.699	89.2501
0.691	88.8487
0.683	89.1334
0.675	88.8046
0.667	88.6187
0.659	88.7248
0.651	88.6722
0.643	88.6761
0.635	88.3526
0.627	88.3965
0.619	87.8686
0.611	88.4406
0.603	87.6552
0.595	87.4401
0.587	87.5463
0.579	87.4135
0.571	87.5839
0.563	87.626
0.555	85.5512
0.547	85.4719
0.539	85.4577
0.531	86.0734
0.523	85.1904
0.515	84.9006
0.507	84.4226
0.499	84.1081
0.491	83.8189
0.483	83.3211
0.475	82.8637
0.467	81.486
0.459	81.319
0.451	80.4772
0.443	79.7428
0.435	78.5163
0.427	77.6626
0.419	76.2298
0.411	74.7973
0.403	72.8145
