Name: Pyroxenite
Type: Rock
Class: Igneous
Subclass: Ultramafic
Particle Size: Solid
Sample No.: Ward43
Owner: JPL
Wavelength Range: VSWIR
Origin: Ward's Collection of American Rocks.  Sample locality - near Webster, Jackson County, North Carolina.
Description: A brownish granular rock composed largely of fibrousbronzite with good cleavage.   A small amount of granular green diopsidemay be seen between the bronzite crystals and small grains of chromiteare also apparent.Geologic age - Pre-Cambrian.Collected by:  Ward's Natural Science Original ASTER Spectral Library name was jpl.perkin.rock.igneous.ultramafic.solid.ward43.spectrum.txt
Measurement: Hemispherical reflectance
X Units: Wavelength (micrometers)
Y Units: Reflectance (percent)
wavelength	value
2.5	8.3852
2.494	8.1126
2.488	8.2938
2.482	8.3747
2.476	8.3016
2.47	8.376
2.464	8.4587
2.458	8.2917
2.452	8.2915
2.446	8.2874
2.44	8.3897
2.434	8.3915
2.428	8.3041
2.422	8.3097
2.416	8.3249
2.41	8.3205
2.404	8.3643
2.398	8.2515
2.392	8.2849
2.386	8.3218
2.38	8.2295
2.374	8.2339
2.368	8.2757
2.362	8.2806
2.356	8.2162
2.35	8.238
2.344	8.2098
2.338	8.1625
2.332	8.1248
2.326	8.0574
2.32	7.9702
2.314	7.9208
2.308	7.8727
2.302	7.8657
2.296	7.9315
2.29	7.9013
2.284	7.8588
2.278	7.9112
2.272	7.9309
2.266	7.9152
2.26	7.985
2.254	7.8806
2.248	7.8801
2.242	7.8614
2.236	7.8235
2.23	7.7852
2.224	7.7144
2.218	7.8093
2.212	7.8291
2.206	7.7789
2.2	7.6825
2.194	7.6141
2.188	7.6945
2.182	7.6308
2.176	7.6889
2.17	7.6314
2.164	7.6411
2.158	7.5584
2.152	7.5559
2.146	7.4898
2.14	7.4767
2.134	7.5291
2.128	7.364
2.122	7.3749
2.116	7.3077
2.11	7.3266
2.104	7.2405
2.098	7.221
2.092	7.1959
2.086	7.177
2.08	7.1272
2.074	7.1592
2.068	7.1818
2.062	7.1325
2.056	7.0522
2.05	7.0444
2.044	7.0626
2.038	7.018
2.032	7.0483
2.026	7.0704
2.02	7.0371
2.014	7.0249
2.008	6.9646
2.002	6.9822
1.996	6.9116
1.99	6.8538
1.984	6.8399
1.978	6.8695
1.972	6.8864
1.966	6.7748
1.96	6.84
1.954	6.776
1.948	6.8046
1.942	6.8454
1.936	6.793
1.93	6.7845
1.924	6.8071
1.918	6.6494
1.912	6.7445
1.906	6.6626
1.9	6.7196
1.894	6.8345
1.888	6.752
1.882	6.9063
1.876	6.8452
1.87	6.793
1.864	6.9329
1.858	6.9501
1.852	6.9571
1.846	6.8444
1.84	6.909
1.834	6.8681
1.828	6.9249
1.822	6.9208
1.816	6.9291
1.81	6.9131
1.804	6.9634
1.798	6.9682
1.792	6.9618
1.786	6.9941
1.78	6.9889
1.774	7.0164
1.768	6.9965
1.762	7.0699
1.756	7.1158
1.75	7.0785
1.744	7.1189
1.738	7.0885
1.732	7.1682
1.726	7.1986
1.72	7.2115
1.714	7.1899
1.708	7.2879
1.702	7.2624
1.696	7.3277
1.69	7.4284
1.684	7.443
1.678	7.3987
1.672	7.4266
1.666	7.4103
1.66	7.5624
1.654	7.555
1.648	7.6731
1.642	7.7161
1.636	7.7082
1.63	7.772
1.624	7.8141
1.618	7.7651
1.612	7.9209
1.606	7.9425
1.6	7.993
1.594	8.1741
1.588	8.1408
1.582	8.3046
1.576	8.2698
1.57	8.3553
1.564	8.4506
1.558	8.5189
1.552	8.6732
1.546	8.7422
1.54	8.8408
1.534	8.8719
1.528	8.9389
1.522	9.118
1.516	9.1794
1.51	9.283
1.504	9.4167
1.498	9.4873
1.492	9.6548
1.486	9.8066
1.48	9.9436
1.474	10.0696
1.468	10.1608
1.462	10.3686
1.456	10.5508
1.45	10.7083
1.444	10.8957
1.438	11.0897
1.432	11.2858
1.426	11.5028
1.42	11.7099
1.414	11.7931
1.408	12.0839
1.402	12.3775
1.396	12.473
1.39	12.7188
1.384	13.104
1.378	13.3793
1.372	13.651
1.366	14.0677
1.36	14.2342
1.354	14.5712
1.348	14.7375
1.342	15.0049
1.336	15.3163
1.33	15.5402
1.324	15.786
1.318	16.1071
1.312	16.3286
1.306	16.5683
1.3	16.7446
1.294	16.9402
1.288	17.2099
1.282	17.3502
1.276	17.5351
1.27	17.6715
1.264	17.8222
1.258	17.9151
1.252	18.0062
1.246	18.0398
1.24	18.2145
1.234	18.1641
1.228	18.2606
1.222	18.2327
1.216	18.2396
1.21	18.2012
1.204	18.1874
1.198	18.1349
1.192	18.0372
1.186	17.9591
1.18	17.776
1.174	17.6883
1.168	17.493
1.162	17.3707
1.156	17.1436
1.15	16.9787
1.144	16.6945
1.138	16.4121
1.132	16.1281
1.126	15.7945
1.12	15.3967
1.114	15.0257
1.108	14.5665
1.102	14.1644
1.096	13.7814
1.09	13.3645
1.084	12.901
1.078	12.6567
1.072	12.2917
1.066	11.8553
1.06	11.4929
1.054	11.1471
1.048	10.8366
1.042	10.5544
1.036	10.258
1.03	10.0628
1.024	9.7948
1.018	9.5829
1.012	9.3757
1.006	9.1659
1	9.0621
0.994	8.8543
0.988	8.7289
0.982	8.6188
0.976	8.4935
0.97	8.3405
0.964	8.2722
0.958	8.1648
0.952	8.0955
0.946	8.0852
0.94	8.0353
0.934	8.0476
0.928	7.9806
0.922	7.9689
0.916	7.9194
0.91	7.945
0.904	7.9622
0.898	8.0111
0.892	8.0218
0.886	8.1268
0.88	8.1379
0.874	8.3002
0.868	8.3746
0.862	8.5065
0.856	8.1495
0.85	8.3121
0.844	8.4331
0.838	8.5814
0.832	8.7297
0.826	8.875
0.82	9.0543
0.814	9.2306
0.808	9.4197
0.802	9.6331
0.796	9.8565
0.79	10.1203
0.784	10.4177
0.778	10.7138
0.772	11.056
0.766	11.4152
0.76	11.7785
0.754	12.1455
0.748	12.482
0.742	12.7753
0.736	13.0083
0.73	13.1479
0.724	13.2163
0.718	13.2125
0.712	13.1501
0.706	13.0329
0.7	12.9037
0.694	12.8059
0.688	12.7904
0.682	12.7002
0.676	12.5231
0.67	12.3938
0.664	12.3053
0.658	12.2303
0.652	12.1714
0.646	12.1169
0.64	12.0934
0.634	12.0524
0.628	11.9928
0.622	11.9228
0.616	11.8379
0.61	11.7485
0.604	11.6585
0.598	11.5893
0.592	11.5234
0.586	11.4669
0.58	11.4252
0.574	11.3968
0.568	11.3794
0.562	11.3641
0.556	11.2796
0.55	11.1829
0.544	11.1311
0.538	11.1547
0.532	11.0737
0.526	10.8958
0.52	10.6504
0.514	10.3685
0.508	9.9995
0.502	9.7485
0.496	9.6051
0.49	9.4191
0.484	9.238
0.478	9.1314
0.472	9.0622
0.466	9.0127
0.46	8.968
0.454	8.9251
0.448	8.8741
0.442	8.8102
0.436	8.7507
0.43	8.6525
0.424	8.5772
0.418	8.5785
0.412	8.5732
0.406	8.5807
0.4	8.5898
