Name: Rhyolite
Type: Rock
Class: Igneous
Subclass: Felsic
Particle Size: Solid
Sample No.: AP-939-223
Owner: United States Geological Survey, L. C. Rowan
Wavelength Range: All
Origin: Iberian Pyrite Belt, Spain
Description: Rhyolite, white, alteredSample was Whole Rock Chips. Original ASTER Spectral Library name was usgs.perknic.rock.igneous.felsic.solid.rhy223.spectrum.txt
Measurement: Directional Hemispherical Reflectance
X Units: Wavelength (micrometers)
Y Units: Reflectance (percent)
wavelength	value
14.051	2.0497
13.79	2.1939
13.538	2.2248
13.295	2.3072
13.06	2.5132
12.834	2.8016
12.616	2.9252
12.404	2.9252
12.2	2.9458
12.002	3.193
11.811	3.5123
11.626	3.6977
11.446	4.017
11.272	3.9552
11.103	4.2642
10.939	4.4084
10.78	3.5535
10.625	3.3578
10.475	3.5432
10.329	4.0685
10.187	4.5629
10.049	5.5723
9.914	6.6744
9.783	6.1491
9.656	8.0752
9.532	8.4254
9.411	8.5902
9.293	8.6726
9.178	8.6108
9.065	7.9104
8.956	6.9937
8.849	7.3645
8.744	6.3551
8.642	4.9028
8.543	4.6659
8.445	4.3054
8.35	4.0685
8.257	4.0891
8.166	4.0685
8.077	3.296
7.99	2.6368
7.905	2.2351
7.821	1.957
7.739	1.751
7.659	1.6068
7.581	1.648
7.504	1.6274
7.429	1.6789
7.355	1.6892
7.283	1.6789
7.212	1.8025
7.143	1.7716
7.074	1.8746
7.007	1.9158
6.942	1.8849
6.877	1.9467
6.814	2.0909
6.752	2.2042
6.691	2.3278
6.631	2.4102
6.572	2.3278
6.514	2.369
6.458	2.4205
6.402	2.472
6.347	2.5132
6.293	2.3793
6.24	2.3072
6.188	2.0703
6.137	1.9879
6.086	1.9364
6.037	2.1115
5.988	2.2248
5.94	2.2351
5.893	2.472
5.846	2.7398
5.8	2.8737
5.755	3.1209
5.711	3.3475
5.667	3.399
5.624	3.4093
5.582	3.4917
5.54	3.5535
5.499	3.5329
5.459	3.5947
5.419	3.6565
5.379	3.5226
5.341	3.502
5.302	3.605
5.265	3.7492
5.227	4.0788
5.191	4.2848
5.155	4.3569
5.119	4.4599
5.084	4.532
5.049	4.5938
5.015	4.7689
4.981	4.9646
4.948	5.3354
4.915	5.6238
4.883	6.2109
4.851	6.7774
4.819	7.1688
4.788	7.3851
4.758	7.6323
4.727	7.7559
4.697	7.7044
4.668	7.7559
4.638	8.2194
4.61	8.5696
4.581	8.9095
4.553	9.1361
4.525	9.2494
4.498	8.9507
4.47	9.064
4.444	9.476
4.417	10.0322
4.391	10.609
4.365	11.2373
4.34	11.8862
4.314	12.4218
4.289	12.6587
4.265	13.0295
4.24	13.3797
4.216	13.5445
4.192	13.6063
4.169	13.8432
4.145	14.111
4.122	14.4097
4.099	14.6672
4.077	14.9247
4.055	14.8732
4.032	14.9453
4.011	14.9247
3.989	14.935
3.968	15.1101
3.947	15.2749
3.926	15.3573
3.905	15.3367
3.884	15.2028
3.864	15.0689
3.844	14.9762
3.824	14.9041
3.805	14.7393
3.785	14.5539
3.766	14.2449
3.747	13.8535
3.728	13.5651
3.709	13.3385
3.691	13.1428
3.673	12.9986
3.655	12.8235
3.637	12.5454
3.619	12.0716
3.601	11.7626
3.584	11.3609
3.567	10.8974
3.549	10.6605
3.533	10.197
3.516	9.9086
3.499	9.3627
3.483	9.0743
3.466	8.858
3.45	8.6005
3.434	8.3842
3.418	7.9413
3.403	7.8177
3.387	7.6014
3.372	7.2718
3.357	7.0246
3.341	6.8083
3.326	6.7362
3.312	6.6229
3.297	6.3242
3.282	5.974
3.268	5.8916
3.253	5.6135
3.239	5.5311
3.225	5.3045
3.211	5.2942
3.197	5.1603
3.183	4.944
3.17	4.9234
3.156	4.5629
3.143	4.6762
3.13	4.3569
3.117	4.3157
3.103	4.3672
3.091	4.3157
3.078	4.0479
3.065	4.1818
3.052	4.0788
3.04	4.0376
3.027	3.9655
3.015	4.0067
3.003	3.9655
2.991	3.9449
2.979	3.9243
2.967	3.8831
2.955	3.7286
2.943	3.7801
2.932	3.7595
2.92	3.8007
2.909	3.7698
2.897	3.6874
2.886	3.6771
2.875	3.9655
2.864	3.9037
2.853	4.0788
2.842	3.9861
2.831	4.0685
2.82	3.8213
2.809	3.8316
2.799	3.4196
2.788	3.4917
2.778	3.0694
2.767	2.8016
2.757	2.1321
2.747	2.5441
2.737	2.987
2.727	2.7604
2.717	2.9046
2.707	2.7913
2.697	3.1209
2.687	6.2727
2.677	9.5069
2.668	11.8347
2.658	14.3479
2.649	15.3161
2.639	16.6654
2.63	17.3761
2.62	18.1074
2.611	18.746
2.602	19.1374
2.593	19.1374
2.584	19.9923
2.575	20.0335
2.566	20.4455
2.557	21.0326
2.548	21.1356
2.54	21.5167
2.531	21.9596
2.522	22.2789
2.514	22.2377
2.505	22.5055
2.489	22.6617
2.461	21.4617
2.433	22.4617
2.405	25.2617
2.377	25.9617
2.349	24.9617
2.321	28.0617
2.293	33.1617
2.265	37.4617
2.237	33.0617
2.209	24.6617
2.181	30.9617
2.153	38.4617
2.125	44.7617
2.097	49.1617
2.069	51.3617
2.041	51.8617
2.013	51.4617
1.985	49.6617
1.957	48.1617
1.929	45.7617
1.901	45.9617
1.873	56.7617
1.845	59.0617
1.817	59.1617
1.789	59.3617
1.761	60.5617
1.733	61.0617
1.705	60.1617
1.677	60.8617
1.649	60.8617
1.621	60.1617
1.593	60.4617
1.565	59.4617
1.537	58.5617
1.509	57.8617
1.481	57.7617
1.453	56.0617
1.425	48.1617
1.397	41.3617
1.369	53.6617
1.341	55.7617
1.313	56.3617
1.285	56.1617
1.257	53.3617
1.229	52.9617
1.201	51.1617
1.173	50.6617
1.145	49.6617
1.117	48.8617
1.089	48.3617
1.061	48.0617
1.033	47.3617
1.005	47.3617
0.977	46.8617
0.949	45.5617
0.921	44.7617
0.893	43.8617
0.865	43.6617
0.837	43.6617
0.809	44.2617
0.799	44.2617
0.792	44.7617
0.785	44.2617
0.778	44.4617
0.771	43.6617
0.764	44.0617
0.757	43.6617
0.75	43.5617
0.743	42.7617
0.736	42.5617
0.729	42.2617
0.722	42.3617
0.715	41.4617
0.708	41.2617
0.701	40.3617
0.694	40.5617
0.687	39.6617
0.68	39.7617
0.673	39.4617
0.666	38.9617
0.659	38.1617
0.652	37.8617
0.645	36.4617
0.638	36.2617
0.631	36.4617
0.624	34.6617
0.617	34.2617
0.61	33.7617
0.603	32.4617
0.596	30.8617
0.589	29.1617
0.582	28.1617
0.575	27.5617
0.568	25.3617
0.561	21.8617
0.554	19.6617
0.547	17.7617
0.54	16.3617
0.533	14.6617
0.526	13.5617
0.519	12.0617
0.512	11.3617
0.505	9.9617
0.498	8.7617
0.491	7.9617
0.484	6.9617
0.477	6.4617
0.47	6.0617
0.463	7.5617
0.456	6.3617
0.449	5.4617
0.442	4.6617
0.435	3.8617
0.428	3.0617
0.421	2.0617
0.414	1.4617
0.407	0.7617
