Name: Carbonaceous Shale
Type: rock
Class: Sedimentary
Subclass: Shale
Particle Size: Fine
Sample No.: shale_6
Owner: JHU
Wavelength Range: All
Origin: Sample No. 388,  The Hunt and Salisbury Collection at the U.S.Geological Survey, Denver, Co.
Description: Sample is foraminiferid ooze. In contrast to shale.3, there is more brown clay material in the groundmass, and about equal amounts of quartz and carbonate. There are also numerous granules of carbonaceous material and/or an opaque phase disseminated throughout the sample, resulting in a very dark color. The biserial and trocho/plani- spiral tests are filled with recrystallized calcite. Particle size was 0 - 75 Micrometers. Original ASTER Spectral Library name was jhu.becknic.rock.sedimentary.shale.fine.shale6.spectrum.txt
Measurement: Directional (10 Degree) Hemispherical Reflectance
X Units: Wavelength (micrometers)
Y Units: Reflectance (percent)
wavelength	value
14.983	5.7236
14.645	6.1008
14.321	4.9168
14.011	2.6677
13.715	5.6805
13.43	6.1456
13.158	5.9739
12.896	4.7666
12.644	4.3434
12.402	4.3501
12.169	6.7732
11.945	7.8246
11.729	8.4839
11.52	5.6921
11.319	3.4701
11.125	6.215
10.937	4.7517
10.755	4.639
10.58	4.7136
10.41	4.4564
10.245	3.6292
10.086	3.0007
9.9313	2.6895
9.7814	2.5754
9.636	2.6514
9.4948	2.7774
9.3577	3.3384
9.2245	3.795
9.095	3.8724
8.9691	3.8547
8.8467	4.0031
8.7275	4.3775
8.6116	4.3145
8.4986	5.0835
8.3886	6.332
8.2814	8.635
8.1769	11.465
8.075	12.402
7.9756	13.387
7.8786	13.306
7.784	13.455
7.6916	13.318
7.6014	11.953
7.5133	11.518
7.4272	10.476
7.343	8.4413
7.2607	5.7885
7.1803	3.8715
7.1016	3.5011
7.0246	2.9825
6.9493	2.6263
6.8755	2.4944
6.8034	2.5031
6.7327	2.6729
6.6634	2.9659
6.5956	3.5809
6.5292	4.451
6.464	5.8152
6.4002	6.6699
6.3376	5.7269
6.2762	5.0413
6.216	4.8557
6.157	4.8884
6.099	5.5169
6.0421	6.1826
5.9863	7.2167
5.9315	7.9958
5.8777	9.2675
5.8249	10.152
5.773	10.505
5.722	11.311
5.6719	12.396
5.6227	12.018
5.5744	4.1232
5.5268	11.099
5.4801	15.41
5.4341	17.486
5.3889	17.269
5.3445	16.624
5.3008	17.711
5.2578	19.537
5.2154	21.619
5.1738	22.41
5.1328	22.755
5.0925	22.555
5.0528	22.909
5.0137	23.041
4.9752	23.829
4.9373	24.899
4.9	25.889
4.8632	26.695
4.827	27.087
4.7913	27.282
4.7561	27.328
4.7215	26.885
4.6873	25.271
4.6536	25.465
4.6205	27.111
4.5877	27.661
4.5555	27.848
4.5237	27.908
4.4923	28.005
4.4614	28.346
4.4309	28.695
4.4008	28.973
4.3711	29.151
4.3418	29.084
4.3129	29.021
4.2844	28.835
4.2563	28.79
4.2285	29.137
4.2011	29.236
4.174	29.144
4.1473	28.922
4.1209	28.53
4.0949	27.879
4.0692	26.757
4.0438	23.808
4.0187	18.209
3.994	10.696
3.9695	9.0269
3.9453	13.503
3.9214	16.835
3.8979	17.84
3.8746	18.337
3.8515	18.912
3.8288	21.072
3.8063	24.44
3.7841	27.432
3.7621	28.172
3.7404	28.352
3.7189	28.408
3.6977	28.317
3.6767	28.075
3.656	27.837
3.6355	27.565
3.6152	27.131
3.5951	26.415
3.5753	25.201
3.5557	24.28
3.5363	22.332
3.5171	17.253
3.4981	14.226
3.4793	12.854
3.4607	15.5
3.4423	15.575
3.4241	14.348
3.4061	14.637
3.3883	14.734
3.3707	15.031
3.3533	14.567
3.336	18.244
3.3189	19.692
3.302	19.856
3.2853	19.983
3.2687	20.082
3.2523	20.325
3.2361	20.416
3.22	20.236
3.204	19.928
3.1883	19.605
3.1727	19.19
3.1572	18.719
3.1419	18.267
3.1268	17.868
3.1117	17.372
3.0969	16.89
3.0821	16.568
3.0675	16.23
3.0531	15.92
3.0388	15.674
3.0246	15.509
3.0105	15.423
2.9966	15.443
2.9828	15.661
2.9692	15.713
2.9556	15.805
2.9422	15.801
2.9289	15.889
2.9157	16.061
2.9027	16.244
2.8897	16.458
2.8769	16.655
2.8642	16.785
2.8516	16.873
2.8391	16.746
2.8267	16.486
2.8144	16.132
2.8022	15.489
2.7902	14.251
2.7782	11.999
2.7664	10.067
2.7546	9.3613
2.7429	10.399
2.7314	12.297
2.7199	16.967
2.7085	22.745
2.6973	26.127
2.6861	28.045
2.675	28.419
2.664	28.585
2.6531	29.143
2.6423	29.313
2.6315	29.002
2.6209	29.068
2.6103	29.128
2.5999	29.064
2.5895	29.021
2.5792	29.153
2.569	29.142
2.5588	29.003
2.5487	28.792
2.5388	28.571
2.5289	28.606
2.519	28.783
2.5093	28.885
2.4996	28.844
2.49	28.848
2.4805	28.905
2.471	28.986
2.4616	28.972
2.4523	29.002
2.4431	29
2.4339	29.044
2.4248	29.06
2.4157	29.069
2.4068	29.149
2.3979	29.115
2.389	29.09
2.3802	29.049
2.3715	29.022
2.3629	28.907
2.3543	28.743
2.3458	28.6
2.3373	28.6
2.3289	28.65
2.3206	28.739
2.3123	28.781
2.3041	28.833
2.2959	28.824
2.2878	28.83
2.2798	28.863
2.2718	28.883
2.2638	28.855
2.2559	28.841
2.2481	28.802
2.2403	28.827
2.2326	28.692
2.225	28.587
2.2173	28.536
2.2098	28.473
2.2023	28.464
2.1948	28.508
2.1874	28.513
2.18	28.5
2.1727	28.55
2.1655	28.55
2.1583	28.554
2.1511	28.556
2.144	28.535
2.1369	28.454
2.1299	28.455
2.1229	28.454
2.116	28.414
2.1091	28.385
2.1023	28.347
2.0955	28.365
2.0887	28.306
2.082	28.324
2.06	28.232
2.028	27.847
1.996	27.562
1.964	26.866
1.932	26.26
1.9	27.026
1.868	25.96
1.836	26.237
1.804	26.078
1.772	25.857
1.74	25.547
1.708	25.459
1.676	25.239
1.644	24.833
1.612	24.611
1.58	24.363
1.548	24.301
1.516	23.928
1.484	23.469
1.452	23.136
1.42	22.796
1.388	22.715
1.356	21.937
1.324	21.69
1.292	21.347
1.26	21.252
1.228	20.894
1.196	20.191
1.164	19.552
1.132	19.413
1.1	18.952
1.068	18.532
1.036	17.892
1.004	17.384
0.972	16.956
0.94	16.43
0.908	15.888
0.876	15.554
0.844	15.048
0.812	14.784
0.795	14.345
0.787	14.372
0.779	14.105
0.771	13.805
0.763	13.608
0.755	13.512
0.747	13.24
0.739	13.215
0.731	12.889
0.723	12.696
0.715	12.598
0.707	12.186
0.699	12.895
0.691	12.064
0.683	11.799
0.675	11.699
0.667	11.577
0.659	11.252
0.651	11.228
0.643	10.85
0.635	10.85
0.627	10.579
0.619	10.53
0.611	10.174
0.603	10.03
0.595	9.8949
0.587	9.7616
0.579	9.6781
0.571	9.3933
0.563	9.1904
0.555	9.1609
0.547	9.2368
0.539	8.8422
0.531	8.7776
0.523	8.6629
0.515	8.5558
0.507	8.0658
0.499	7.9892
0.491	7.9611
0.483	7.7652
0.475	7.5849
0.467	7.1623
0.459	6.8899
0.451	6.8711
0.443	6.6816
0.435	6.4952
0.427	6.5162
0.419	6.3024
0.411	5.9641
0.403	6.0623
