Name: Serpentine Marble
Type: rock
Class: Metamorphic
Subclass: Marble
Particle Size: Fine
Sample No.: marble2
Owner: JHU
Wavelength Range: All
Origin: Sample No. 460, The Hunt and Salisbury Collection at the U.S.Geological Survey, Denver, Co.
Description: This sample consists of coarse-grained anhedral carbonate with numerous regions of serpentine (possibly brucite--MgOH2, at least in part) as an alteration/reaction of the carbonate.  There are scattered subhedra of monticellite, tremolite, and phlogopite, with a few grains of idocrase (?) also noted in this section.Particle size was 0-75 Micrometer. Original ASTER Spectral Library name was jhu.becknic.rock.metamorphic.marble.fine.marble2.spectrum.txt
Measurement: Directional (10 Degree) Hemispherical Reflectance
X Units: Wavelength (micrometers)
Y Units: Reflectance (percent)
wavelength	value
14.983	5.1976
14.645	6.1106
14.321	7.5206
14.011	2.6071
13.715	4.3176
13.43	9.4994
13.158	11.614
12.896	12.465
12.644	13.464
12.402	14.153
12.169	15.44
11.945	16.852
11.729	13.011
11.52	8.1098
11.319	4.8071
11.125	11.809
10.937	9.4302
10.755	6.7097
10.58	5.1294
10.41	4.5201
10.245	4.4775
10.086	4.7062
9.9313	5.1709
9.7814	5.981
9.636	6.8281
9.4948	7.3444
9.3577	7.6352
9.2245	7.8282
9.095	10.99
8.9691	18.096
8.8467	20.816
8.7275	20.77
8.6116	18.089
8.4986	16.961
8.3886	17.404
8.2814	19.181
8.1769	18.935
8.075	18.17
7.9756	18.707
7.8786	18.027
7.784	17.139
7.6916	15.656
7.6014	13.494
7.5133	12.28
7.4272	10.696
7.343	8.4411
7.2607	5.825
7.1803	4.419
7.1016	4.5049
7.0246	4.5428
6.9493	4.2137
6.8755	4.1947
6.8034	4.3766
6.7327	4.6925
6.6634	5.2871
6.5956	6.2891
6.5292	7.7879
6.464	9.8655
6.4002	10.527
6.3376	8.7108
6.2762	6.6595
6.216	6.2155
6.157	6.21
6.099	6.5475
6.0421	7.6051
5.9863	8.9732
5.9315	10.389
5.8777	11.796
5.8249	12.534
5.773	12.763
5.722	13.91
5.6719	15.801
5.6227	15.877
5.5744	5.0733
5.5268	11.502
5.4801	16.795
5.4341	26.566
5.3889	31.683
5.3445	35.091
5.3008	38.032
5.2578	40.394
5.2154	42.165
5.1738	43.169
5.1328	43.547
5.0925	42.422
5.0528	43.496
5.0137	43.929
4.9752	44.789
4.9373	45.575
4.9	46.55
4.8632	47.415
4.827	47.177
4.7913	47.631
4.7561	48.514
4.7215	47.296
4.6873	42.507
4.6536	41.801
4.6205	45.489
4.5877	47.669
4.5555	49.008
4.5237	49.888
4.4923	51.075
4.4614	51.964
4.4309	52.646
4.4008	53.734
4.3711	54.343
4.3418	53.805
4.3129	53.469
4.2844	53.591
4.2563	53.81
4.2285	53.788
4.2011	53.916
4.174	53.428
4.1473	52.333
4.1209	50.802
4.0949	48.539
4.0692	44.758
4.0438	37.034
4.0187	24.703
3.994	13.43
3.9695	10.074
3.9453	14.506
3.9214	18.742
3.8979	21.616
3.8746	22.822
3.8515	25.148
3.8288	28.875
3.8063	32.404
3.7841	41.075
3.7621	46.977
3.7404	51.05
3.7189	52.327
3.6977	52.534
3.6767	52.818
3.656	52.499
3.6355	51.956
3.6152	51.208
3.5951	49.864
3.5753	46.88
3.5557	44.769
3.5363	40.074
3.5171	29.076
3.4981	22.124
3.4793	17.805
3.4607	21.814
3.4423	23.806
3.4241	25.428
3.4061	25.389
3.3883	25.003
3.3707	24.47
3.3533	21.414
3.336	28.436
3.3189	31.953
3.302	33.621
3.2853	38.493
3.2687	38.971
3.2523	38.921
3.2361	38.48
3.22	38.05
3.204	37.449
3.1883	36.61
3.1727	35.617
3.1572	34.306
3.1419	33.23
3.1268	32.331
3.1117	31.274
3.0969	30.539
3.0821	30.072
3.0675	29.506
3.0531	28.784
3.0388	28.032
3.0246	27.287
3.0105	26.46
2.9966	25.622
2.9828	24.804
2.9692	24.014
2.9556	23.209
2.9422	22.577
2.9289	22.107
2.9157	21.861
2.9027	21.765
2.8897	21.724
2.8769	21.743
2.8642	21.532
2.8516	21.208
2.8391	20.651
2.8267	19.687
2.8144	18.624
2.8022	18.046
2.7902	18.315
2.7782	18.134
2.7664	17.858
2.7546	16.697
2.7429	13.706
2.7314	13.034
2.7199	10.767
2.7085	9.8463
2.6973	22.283
2.6861	42.431
2.675	53.664
2.664	57.904
2.6531	58.884
2.6423	60.726
2.6315	61.208
2.6209	61.231
2.6103	60.989
2.5999	60.784
2.5895	60.178
2.5792	59.532
2.569	58.689
2.5588	57.147
2.5487	56.223
2.5388	54.713
2.5289	54.71
2.519	54.466
2.5093	53.946
2.4996	54.992
2.49	56.467
2.4805	56.815
2.471	58.575
2.4616	59.855
2.4523	60.074
2.4431	59.405
2.4339	59.375
2.4248	60.556
2.4157	60.594
2.4068	60.885
2.3979	61.033
2.389	61.492
2.3802	61.685
2.3715	61.614
2.3629	62.119
2.3543	61.217
2.3458	58.605
2.3373	55.484
2.3289	55.49
2.3206	56.072
2.3123	58.122
2.3041	59.598
2.2959	60.568
2.2878	61.299
2.2798	61.948
2.2718	61.938
2.2638	63.673
2.2559	64.492
2.2481	64.62
2.2403	65.04
2.2326	66.229
2.225	67.101
2.2173	67.392
2.2098	67.671
2.2023	67.793
2.1948	67.773
2.1874	67.888
2.18	67.893
2.1727	67.829
2.1655	67.808
2.1583	67.785
2.1511	67.539
2.144	67.363
2.1369	67.165
2.1299	67.015
2.1229	67.306
2.116	67.192
2.1091	67.155
2.1023	67.34
2.0955	67.464
2.0887	67.627
2.082	67.733
2.06	68.243
2.028	66.607
1.996	65.013
1.964	63.943
1.932	63.668
1.9	64.648
1.868	66.177
1.836	66.802
1.804	66.695
1.772	66.219
1.74	65.937
1.708	66.524
1.676	66.397
1.644	66.038
1.612	65.425
1.58	65.704
1.548	65.368
1.516	64.467
1.484	63.752
1.452	63.533
1.42	62.931
1.388	58.529
1.356	62.41
1.324	62.321
1.292	61.785
1.26	61.444
1.228	60.854
1.196	60.531
1.164	59.876
1.132	59.113
1.1	59.067
1.068	58.407
1.036	59.265
1.004	58.903
0.972	58.679
0.94	58.449
0.908	58.222
0.876	57.893
0.844	57.644
0.812	57.54
0.795	57.302
0.787	57.009
0.779	56.813
0.771	56.424
0.763	56.664
0.755	56.275
0.747	55.985
0.739	55.496
0.731	55.734
0.723	55.443
0.715	55.439
0.707	55.243
0.699	55.971
0.691	56.02
0.683	55.92
0.675	56.271
0.667	56.12
0.659	56.829
0.651	56.42
0.643	56.929
0.635	56.57
0.627	56.769
0.619	56.881
0.611	57.841
0.603	57.133
0.595	56.944
0.587	57.002
0.579	57.312
0.571	57.747
0.563	56.885
0.555	56.242
0.547	55.93
0.539	56.356
0.531	55.04
0.523	55.162
0.515	54.695
0.507	54.58
0.499	53.694
0.491	53.28
0.483	52.778
0.475	51.35
0.467	49.166
0.459	48.572
0.451	47.671
0.443	46.58
0.435	46.444
0.427	46.458
0.419	46.421
0.411	45.527
0.403	45.357
