Name: Chiastolic Slate
Type: rock
Class: Metamorphic
Subclass: Slate
Particle Size: Coarse
Sample No.: slate3
Owner: JHU
Wavelength Range: All
Origin: Sample No. 462, The Hunt and Salisbury Collection at the U.S.Geological Survey, Denver, Co.
Description: This dark lineated rock is composed of porphyroblasts of chiastolic andalusite set in a matrix of angular quartz fragments, abundant carbonaceous granules, and either muscovite or illite (hydromuscovite) with a few biotite grains present as well.  The phyllosilicate shows typical 001 cleavage and nearly parallel extinction, but unlike muscovite the birefringence is gray, possibly due either to the thinness of the crystals or abundant small carbonaceous material. Particle size was 500-1500 Micrometer.  Original ASTER Spectral Library name was jhu.becknic.rock.metamorphic.slate.coarse.slate3.spectrum.txt
Measurement: Directional (10 Degree) Hemispherical Reflectance
X Units: Wavelength (micrometers)
Y Units: Reflectance (percent)
wavelength	value
14.0112	2.5311
13.7147	2.6797
13.4304	2.9417
13.1577	2.9111
12.8959	3.0989
12.6443	2.9766
12.4023	2.5249
12.1694	2.4138
11.945	2.6684
11.7289	2.991
11.5203	3.2907
11.3191	3.52
11.1248	3.7437
10.937	3.8649
10.7555	4.1325
10.5799	4.4224
10.4099	4.8935
10.2454	5.5249
10.0859	6.1927
9.9313	6.7303
9.7814	6.82
9.636	7.8213
9.4948	7.6294
9.3577	8.2685
9.2245	8.6801
9.095	8.3378
8.9691	7.8684
8.8467	7.6292
8.7275	6.8779
8.6116	5.9104
8.4986	6.6172
8.3886	6.3255
8.2814	6.2501
8.1769	5.8579
8.075	4.2566
7.9756	3.2426
7.8786	2.6485
7.784	2.5053
7.6916	2.417
7.6014	2.3557
7.5133	2.3461
7.4272	2.3466
7.343	2.2887
7.2607	2.3778
7.1803	2.3655
7.1016	2.374
7.0246	2.3096
6.9493	2.3356
6.8755	2.4228
6.8034	2.4663
6.7327	2.5405
6.6634	2.527
6.5956	2.5758
6.5292	2.5833
6.464	2.6333
6.4002	2.6399
6.3376	2.6321
6.2762	2.6278
6.216	2.5672
6.157	2.6596
6.099	2.6761
6.0421	2.7058
5.9863	2.7802
5.9315	2.7768
5.8777	2.8306
5.8249	2.912
5.773	2.9428
5.722	2.9775
5.6719	2.9881
5.6227	2.9825
5.5744	2.9914
5.5268	3.0305
5.4801	3.0838
5.4341	3.101
5.3889	3.1206
5.3445	3.0701
5.3008	3.1235
5.2578	3.1915
5.2154	3.2467
5.1738	3.2806
5.1328	3.3151
5.0925	3.3003
5.0528	3.3606
5.0137	3.3814
4.9752	3.4118
4.9373	3.4358
4.9	3.485
4.8632	3.507
4.827	3.5372
4.7913	3.5628
4.7561	3.5869
4.7215	3.5905
4.6873	3.629
4.6536	3.664
4.6205	3.6991
4.5877	3.7351
4.5555	3.7257
4.5237	3.7499
4.4923	3.7544
4.4614	3.7932
4.4309	3.7862
4.4008	3.8236
4.3711	3.8315
4.3418	3.8327
4.3129	3.8893
4.2844	3.8984
4.2563	3.8953
4.2285	3.9042
4.2011	3.9329
4.174	3.9324
4.1473	3.9817
4.1209	3.954
4.0949	3.9839
4.0692	4.0186
4.0438	4.0071
4.0187	3.992
3.994	4.0121
3.9695	4.0413
3.9453	4.0365
3.9214	4.0451
3.8979	4.0774
3.8746	4.1037
3.8515	4.0657
3.8288	4.094
3.8063	4.1169
3.7841	4.1131
3.7621	4.1086
3.7404	4.1109
3.7189	4.1339
3.6977	4.1233
3.6767	4.127
3.656	4.1064
3.6355	4.1134
3.6152	4.1327
3.5951	4.1099
3.5753	4.1212
3.5557	4.0966
3.5363	4.1169
3.5171	4.1282
3.4981	4.1451
3.4793	4.1277
3.4607	4.1391
3.4423	4.1296
3.4241	4.1437
3.4061	4.0803
3.3883	4.1212
3.3707	4.0891
3.3533	4.0475
3.336	4.0705
3.3189	4.0465
3.302	4.0307
3.2853	4.0196
3.2687	4.059
3.2523	4.036
3.2361	4.0262
3.22	4.049
3.204	4.0693
3.1883	4.0102
3.1727	4.0317
3.1572	3.9769
3.1419	4.0155
3.1268	3.9934
3.1117	3.9849
3.0969	3.9164
3.0821	3.9016
3.0675	3.8738
3.0531	3.8358
3.0388	3.8093
3.0246	3.8099
3.0105	3.77
2.9966	3.7446
2.9828	3.7999
2.9692	3.754
2.9556	3.7656
2.9422	3.7748
2.9289	3.7771
2.9157	3.7685
2.9027	3.791
2.8897	3.847
2.8769	3.8533
2.8642	3.8793
2.8516	3.8822
2.8391	3.9044
2.8267	3.7592
2.8144	3.8387
2.8022	3.7329
2.7902	3.7643
2.7782	3.6089
2.7664	3.4541
2.7546	3.3822
2.7429	3.5575
2.7314	3.8174
2.7199	4.1487
2.7085	4.3305
2.6973	4.4327
2.6861	4.6281
2.675	4.6055
2.664	4.6495
2.6531	4.772
2.6423	4.8235
2.6315	4.7468
2.6209	4.779
2.6103	4.8273
2.5999	4.8134
2.5895	4.8449
2.5792	4.8565
2.569	4.9017
2.5588	4.9136
2.5487	4.8957
2.5388	4.9199
2.5289	4.9254
2.519	4.9794
2.5093	4.9478
2.4996	4.9505
2.49	4.9665
2.4805	4.9873
2.471	5.0012
2.4616	5.0313
2.4523	5.0132
2.4431	4.9871
2.4339	5.0004
2.4248	5.0354
2.4157	5.0371
2.4068	5.0723
2.3979	5.1053
2.389	5.0789
2.3802	5.1278
2.3715	5.1555
2.3629	5.1105
2.3543	5.1503
2.3458	5.1644
2.3373	5.117
2.3289	5.1572
2.3206	5.151
2.3123	5.2162
2.3041	5.1792
2.2959	5.2649
2.2878	5.2247
2.2798	5.2383
2.2718	5.2682
2.2638	5.2653
2.2559	5.2433
2.2481	5.2869
2.2403	5.2995
2.2326	5.2522
2.225	5.3285
2.2173	5.3055
2.2098	5.2615
2.2023	5.2297
2.1948	5.273
2.1874	5.3254
2.18	5.3292
2.1727	5.3336
2.1655	5.3706
2.1583	5.4187
2.1511	5.4333
2.144	5.3875
2.1369	5.4469
2.1299	5.378
2.1229	5.446
2.116	5.4194
2.1091	5.4627
2.1023	5.4672
2.0955	5.5503
2.0887	5.4953
2.082	5.4464
2.06	5.5236
2.028	5.6384
1.996	5.5267
1.964	5.6877
1.932	5.6649
1.9	5.7835
1.868	5.8367
1.836	5.8244
1.804	6.0419
1.772	6.0108
1.74	5.8984
1.708	5.925
1.676	6.1342
1.644	6.2081
1.612	6.2443
1.58	6.2234
1.548	6.3315
1.516	6.1644
1.484	6.3871
1.452	6.2445
1.42	6.2994
1.388	6.4715
1.356	6.4896
1.324	6.5964
1.292	6.7172
1.26	6.7108
1.228	6.5897
1.196	6.8992
1.164	6.8122
1.132	6.9445
1.1	6.9696
1.068	7.1719
1.036	7.1875
1.004	7.1817
0.972	7.3668
0.94	7.3623
0.908	7.5626
0.876	7.5871
0.844	7.5777
0.812	7.7052
0.795	7.9785
0.787	8.0039
0.779	8.1143
0.771	8.0112
0.763	8.0832
0.755	8.1079
0.747	8.0169
0.739	8.0646
0.731	8.1628
0.723	8.1673
0.715	8.1424
0.707	8.1768
0.699	8.2393
0.691	8.1674
0.683	8.3106
0.675	8.2108
0.667	8.3317
0.659	8.2796
0.651	8.3382
0.643	8.3406
0.635	8.5356
0.627	8.5108
0.619	8.5707
0.611	8.5787
0.603	8.4427
0.595	8.5319
0.587	8.5742
0.579	8.5486
0.571	8.65
0.563	8.6532
0.555	8.5911
0.547	8.5803
0.539	8.7312
0.531	8.6929
0.523	8.5326
0.515	8.6385
0.507	8.5545
0.499	8.586
0.491	8.5694
0.483	8.574
0.475	8.6366
0.467	8.4839
0.459	8.6444
0.451	8.4912
0.443	8.5611
0.435	8.3801
0.427	8.2889
0.419	8.0898
0.411	8.0522
0.403	7.8043
