Name: Basalt
Type: Rock
Class: Igneous
Subclass: Mafic
Particle Size: Solid
Sample No.: Me64
Owner: Lawrence Rowan, USGS Reston
Wavelength Range: All
Origin: Tel Megadiur, Middle East
Description: Basalt, fresh surfaceSample was Whole rock chips. Original ASTER Spectral Library name was usgs.perknic.rock.igneous.mafic.solid.me64.spectrum.txt
Measurement: Directional Hemispherical Reflectance
X Units: Wavelength (micrometers)
Y Units: Reflectance (percent)
wavelength	value
14.051	2.2351
13.826	2.2557
13.609	2.2351
13.398	2.4617
13.193	2.472
12.995	2.4411
12.802	2.4102
12.616	2.472
12.434	2.6059
12.258	2.9561
12.086	3.2754
11.92	3.4711
11.757	3.6462
11.6	3.8522
11.446	4.5629
11.297	5.1294
11.151	5.2015
11.009	5.3972
10.87	5.6135
10.735	5.4899
10.604	5.2015
10.475	5.2427
10.35	5.2736
10.227	5.2015
10.108	5.3148
9.991	5.4796
9.877	5.6238
9.765	5.6856
9.656	5.6753
9.549	5.4899
9.445	5.1912
9.343	4.8616
9.243	4.7277
9.145	4.635
9.049	4.5732
8.956	4.6041
8.864	4.4084
8.774	4.1612
8.686	3.9655
8.599	3.7286
8.515	3.4711
8.431	3.2342
8.35	3.0179
8.27	2.472
8.192	1.7922
8.115	1.4317
8.039	1.2154
7.965	1.3596
7.893	1.3287
7.821	1.2669
7.751	1.3184
7.682	1.4008
7.614	1.3802
7.548	1.4214
7.483	1.4626
7.418	1.5759
7.355	1.6171
7.293	1.5656
7.232	1.6686
7.172	1.7613
7.113	1.8643
7.055	2.0291
6.998	2.1218
6.942	2.1733
6.886	2.1012
6.832	2.1424
6.778	2.2042
6.726	2.2969
6.674	2.2145
6.623	2.3999
6.572	2.4617
6.523	2.472
6.474	2.4617
6.426	2.2557
6.378	2.0085
6.332	1.9055
6.286	1.7716
6.24	1.7819
6.195	1.7716
6.151	1.7407
6.108	1.7819
6.065	1.7716
6.023	1.854
5.981	1.854
5.94	1.8025
5.899	1.8643
5.859	2.0497
5.82	2.0188
5.781	2.1218
5.743	2.1527
5.705	2.1218
5.667	2.163
5.63	2.2763
5.594	2.2351
5.558	2.2454
5.523	2.2454
5.487	2.3999
5.453	2.4102
5.419	2.4926
5.385	2.5647
5.352	2.5338
5.319	2.678
5.286	2.678
5.254	2.6677
5.222	2.781
5.191	2.781
5.16	2.9149
5.129	2.9252
5.099	2.9149
5.069	3.0385
5.04	3.1106
5.01	3.1724
4.981	3.193
4.953	3.2857
4.925	3.3475
4.897	3.3269
4.869	3.3887
4.842	3.4608
4.815	3.5329
4.788	3.5535
4.762	3.6565
4.736	3.5844
4.71	3.5844
4.684	3.6771
4.659	3.7801
4.634	3.8625
4.61	3.9037
4.585	4.0273
4.561	4.0273
4.537	4.1303
4.513	4.2024
4.49	4.3466
4.467	4.2951
4.444	4.4393
4.421	4.532
4.398	4.5938
4.376	4.6144
4.354	4.6659
4.332	4.7174
4.311	4.6659
4.289	4.7071
4.268	4.738
4.247	4.7998
4.226	4.8307
4.206	4.9749
4.185	4.9337
4.165	4.9955
4.145	5.0985
4.126	5.0676
4.106	5.1294
4.086	5.0779
4.067	5.0882
4.048	5.0779
4.029	5.0573
4.011	4.8925
3.992	4.9955
3.974	4.9234
3.956	5.0367
3.938	4.9749
3.92	5.0779
3.902	5.0779
3.884	5.0161
3.867	5.1088
3.85	5.0985
3.833	4.9543
3.816	5.1912
3.799	5.1294
3.782	5.2633
3.766	5.2942
3.75	5.356
3.733	5.3972
3.717	5.3354
3.702	5.3869
3.686	5.2633
3.67	5.253
3.655	5.2221
3.639	5.2942
3.624	5.1294
3.609	5.1912
3.594	5.1809
3.579	5.0573
3.564	4.944
3.549	4.944
3.535	4.8204
3.521	4.6453
3.506	4.532
3.492	4.532
3.478	4.5629
3.464	4.4084
3.45	4.5114
3.437	4.429
3.423	4.2745
3.409	4.2333
3.396	4.3775
3.383	4.2951
3.37	4.2848
3.357	4.1612
3.344	4.1097
3.331	4.0582
3.318	4.223
3.305	4.2848
3.293	4.0994
3.28	4.12
3.268	4.1818
3.255	4.1097
3.243	4.0994
3.231	4.1406
3.219	4.0685
3.207	3.9346
3.195	4.017
3.183	3.8831
3.172	3.7389
3.16	3.7904
3.149	3.7595
3.137	3.6153
3.126	3.4299
3.115	3.6977
3.103	3.5535
3.092	3.5432
3.081	3.5947
3.07	3.5432
3.06	3.6462
3.049	3.4505
3.038	3.5432
3.027	3.5535
3.017	3.5741
3.006	3.6153
2.996	3.5123
2.986	3.3269
2.975	3.5123
2.965	3.3269
2.955	3.4917
2.945	3.296
2.935	3.2548
2.925	3.3269
2.915	3.4093
2.905	3.4093
2.896	3.3372
2.886	3.4093
2.876	3.5432
2.867	3.5947
2.857	3.3166
2.848	3.605
2.838	3.5535
2.829	3.6462
2.82	3.4608
2.811	3.502
2.802	3.8213
2.793	3.6153
2.784	3.3681
2.775	3.7389
2.766	3.7595
2.757	3.6874
2.748	4.017
2.74	4.1509
2.731	4.1715
2.722	4.4496
2.714	5.1397
2.705	5.6856
2.697	5.8092
2.688	6.2727
2.68	6.283
2.672	6.7156
2.664	6.798
2.655	6.798
2.647	7.0349
2.639	7.0864
2.631	7.1791
2.623	7.2409
2.615	7.004
2.607	7.1894
2.599	7.725
2.592	7.4366
2.584	7.21
2.576	7.2718
2.569	7.4366
2.561	7.3542
2.553	6.8289
2.546	7.0658
2.538	7.0555
2.531	7.2718
2.524	7.0555
2.516	7.1894
2.509	7.4263
2.502	6.8804
2.48	7.2718
2.456	7.4288
2.432	7.9083
2.408	8.05
2.384	8.0415
2.36	8.3393
2.336	8.0247
2.312	8.3365
2.288	8.2819
2.264	8.4224
2.24	8.729
2.216	8.7538
2.192	9.0485
2.168	9.0931
2.144	9.1907
2.12	9.0698
2.096	9.0488
2.072	9.0993
2.048	9.0242
2.024	9.043
2	8.9589
1.976	8.8854
1.952	8.7725
1.928	8.5458
1.904	8.3618
1.88	9.1912
1.856	9.4537
1.832	9.5021
1.808	9.5421
1.784	9.6544
1.76	9.6244
1.736	9.6129
1.712	9.5605
1.688	9.6344
1.664	9.621
1.64	9.5293
1.616	9.4366
1.592	9.3337
1.568	9.1502
1.544	8.9395
1.52	8.7374
1.496	8.5571
1.472	8.344
1.448	8.156
1.424	7.9362
1.4	7.7913
1.376	7.7052
1.352	7.4652
1.328	7.487
1.304	7.3135
1.28	7.2222
1.256	7.1457
1.232	6.9986
1.208	6.9551
1.184	6.8418
1.16	6.7709
1.136	6.7224
1.112	6.5982
1.088	6.4088
1.064	6.3688
1.04	6.3847
1.016	6.3676
0.992	6.4253
0.968	6.4937
0.944	6.5667
0.92	6.8639
0.896	6.9781
0.872	7.0856
0.848	6.8266
0.824	7.0074
0.8	6.9916
0.776	6.9382
0.752	6.8592
0.728	6.7463
0.704	6.5785
0.68	6.4138
0.656	6.2545
0.632	6.1298
0.608	5.9848
0.584	5.806
0.56	5.6252
0.536	5.4578
0.512	5.3662
0.488	5.2342
0.464	5.2161
0.44	5.0493
0.416	4.9542
