Name: Basalt
Type: Rock
Class: Igneous
Subclass: Mafic
Particle Size: Solid
Sample No.: ba9b1f
Owner: Larry Rowan, USGS
Wavelength Range: All
Origin: Wadi Salima, Jordan
Description: fine grained, dark gray basalt Sample was Whole rock chips. Original ASTER Spectral Library name was usgs.perknic.rock.igneous.mafic.solid.ba9b1f.spectrum.txt
Measurement: Reflectance
X Units: Wavelength (micrometers)
Y Units: Reflectance (percent)
wavelength	value
0.4	0.1167
0.408	0.1157
0.416	0.1157
0.424	0.1117
0.432	0.1087
0.44	0.1047
0.448	0.1017
0.456	0.0987
0.464	0.0977
0.472	0.0937
0.48	0.0917
0.488	0.0907
0.496	0.0897
0.504	0.0897
0.512	0.0907
0.52	0.0907
0.528	0.0877
0.536	0.0897
0.544	0.0867
0.552	0.0897
0.56	0.0907
0.568	0.0897
0.576	0.0907
0.584	0.0907
0.592	0.0907
0.6	0.0907
0.608	0.0907
0.616	0.0897
0.624	0.0907
0.632	0.0907
0.64	0.0937
0.648	0.0917
0.656	0.0907
0.664	0.0937
0.672	0.0917
0.68	0.0937
0.688	0.0947
0.696	0.0917
0.704	0.0947
0.712	0.0947
0.72	0.0967
0.728	0.0947
0.736	0.0967
0.744	0.0967
0.752	0.0947
0.76	0.0987
0.768	0.0987
0.776	0.0987
0.784	0.0987
0.792	0.0987
0.8	0.0987
0.832	0.0987
0.864	0.0987
0.896	0.0997
0.928	0.0997
0.96	0.0987
0.992	0.0987
1.024	0.0987
1.056	0.0967
1.088	0.0967
1.12	0.0967
1.152	0.0957
1.184	0.0957
1.216	0.0937
1.248	0.0937
1.28	0.0937
1.312	0.0937
1.344	0.0927
1.376	0.0907
1.408	0.0887
1.44	0.0897
1.472	0.0897
1.504	0.0887
1.536	0.0897
1.568	0.0897
1.6	0.0887
1.632	0.0887
1.664	0.0877
1.696	0.0877
1.728	0.0877
1.76	0.0857
1.792	0.0857
1.824	0.0857
1.856	0.0857
1.888	0.0827
1.92	0.0787
1.952	0.0797
1.984	0.0827
2.016	0.0837
2.048	0.0837
2.08	0.0837
2.1021	0.0872
2.109	0.0861
2.1159	0.0866
2.1228	0.0884
2.1298	0.087
2.1368	0.0873
2.1438	0.0887
2.1509	0.0849
2.1581	0.0877
2.1653	0.0866
2.1726	0.0859
2.1799	0.086
2.1872	0.0864
2.1946	0.0827
2.2021	0.0824
2.2096	0.0839
2.2172	0.0832
2.2248	0.0863
2.2324	0.0835
2.2401	0.0842
2.2479	0.0859
2.2557	0.0848
2.2636	0.0841
2.2715	0.0856
2.2795	0.0835
2.2876	0.0836
2.2957	0.0846
2.3038	0.0824
2.3121	0.0825
2.3203	0.0834
2.3287	0.0807
2.3371	0.0833
2.3455	0.0833
2.354	0.0807
2.3626	0.0824
2.3712	0.0837
2.38	0.0798
2.3887	0.0808
2.3976	0.0792
2.4065	0.0813
2.4154	0.0796
2.4245	0.0798
2.4336	0.0767
2.4427	0.0773
2.452	0.0776
2.4613	0.0763
2.4707	0.0757
2.4801	0.0752
2.4896	0.0747
2.4992	0.0737
2.5089	0.0736
2.5187	0.0726
2.5285	0.0735
2.5384	0.0735
2.5484	0.0732
2.5584	0.0733
2.5686	0.0713
2.5788	0.0718
2.5891	0.0712
2.5995	0.07
2.6099	0.07
2.6205	0.0714
2.6311	0.0697
2.6418	0.069
2.6526	0.0676
2.6635	0.0643
2.6745	0.0591
2.6856	0.0504
2.6968	0.0384
2.708	0.0343
2.7194	0.0347
2.7309	0.0316
2.7424	0.0309
2.7541	0.0278
2.7658	0.0294
2.7777	0.0303
2.7896	0.0316
2.8017	0.0298
2.8138	0.0313
2.8261	0.0303
2.8385	0.0318
2.851	0.0325
2.8636	0.0298
2.8763	0.0327
2.8891	0.0315
2.902	0.0308
2.915	0.0309
2.9282	0.0319
2.9415	0.032
2.9549	0.0323
2.9684	0.0334
2.9821	0.033
2.9959	0.0329
3.0098	0.0338
3.0238	0.0339
3.038	0.0346
3.0523	0.0353
3.0667	0.0344
3.0813	0.0345
3.096	0.0357
3.1109	0.035
3.1259	0.0372
3.141	0.0359
3.1563	0.0373
3.1718	0.0377
3.1874	0.0381
3.2031	0.0394
3.219	0.0398
3.2351	0.0412
3.2513	0.0423
3.2677	0.0432
3.2843	0.0437
3.301	0.0448
3.3179	0.0456
3.3349	0.0466
3.3522	0.0467
3.3696	0.0485
3.3872	0.0498
3.405	0.0497
3.423	0.0526
3.4412	0.0524
3.4595	0.0533
3.4781	0.0538
3.4968	0.0552
3.5158	0.0559
3.535	0.0556
3.5544	0.0568
3.574	0.0575
3.5938	0.058
3.6138	0.0576
3.6341	0.0592
3.6545	0.0592
3.6753	0.0593
3.6962	0.06
3.7174	0.0604
3.7389	0.0607
3.7605	0.0606
3.7825	0.0606
3.8047	0.0604
3.8272	0.0617
3.8499	0.0615
3.8729	0.0615
3.8962	0.0608
3.9197	0.0613
3.9436	0.0609
3.9677	0.0606
3.9921	0.0602
4.0169	0.0603
4.0419	0.0606
4.0673	0.0592
4.093	0.0594
4.119	0.0594
4.1453	0.0589
4.172	0.0583
4.199	0.0579
4.2264	0.0569
4.2541	0.0567
4.2822	0.0564
4.3107	0.0555
4.3395	0.0557
4.3688	0.0555
4.3984	0.0544
4.4285	0.0545
4.4589	0.0531
4.4898	0.0524
4.5211	0.0517
4.5529	0.0519
4.5851	0.0505
4.6177	0.0497
4.6509	0.0486
4.6845	0.0483
4.7186	0.0471
4.7532	0.046
4.7883	0.0458
4.8239	0.0446
4.8601	0.0444
4.8968	0.0431
4.9341	0.0432
4.9719	0.042
5.0103	0.0418
5.0493	0.0412
5.089	0.0401
5.1292	0.0405
5.1702	0.0401
5.2117	0.04
5.254	0.0403
5.2969	0.0396
5.3405	0.0392
5.3849	0.0389
5.43	0.038
5.4759	0.0377
5.5225	0.0376
5.57	0.0368
5.6182	0.0369
5.6673	0.0363
5.7173	0.0351
5.7682	0.034
5.82	0.0322
5.8727	0.03
5.9264	0.028
5.9811	0.0252
6.0368	0.0241
6.0935	0.0234
6.1513	0.0242
6.2103	0.0266
6.2703	0.0286
6.3316	0.029
6.394	0.0288
6.4577	0.0293
6.5227	0.0284
6.589	0.0284
6.6566	0.0279
6.7257	0.0273
6.7962	0.0272
6.8682	0.0276
6.9418	0.0272
7.0169	0.0275
7.0937	0.0266
7.1722	0.0254
7.2524	0.0247
7.3345	0.0247
7.4184	0.0238
7.5043	0.0231
7.5922	0.0222
7.6821	0.0218
7.7743	0.0205
7.8686	0.02
7.9653	0.0194
8.0644	0.0188
8.166	0.0188
8.2701	0.0201
8.377	0.0222
8.4867	0.026
8.5992	0.0336
8.7149	0.0464
8.8336	0.0612
8.9556	0.077
9.0811	0.0938
9.2101	0.1048
9.3428	0.1217
9.4795	0.1281
9.6201	0.1172
9.765	0.1009
9.9144	0.0913
10.0684	0.0797
10.2272	0.0735
10.3911	0.0663
10.5604	0.0609
10.7353	0.0582
10.9161	0.0618
11.103	0.0606
11.2965	0.0585
11.4968	0.0533
11.7044	0.0455
11.9196	0.0393
12.1429	0.0345
12.3747	0.0302
12.6155	0.0273
12.8659	0.0268
13.1264	0.0261
13.3977	0.0261
13.6804	0.0264
13.9753	0.0258
