Name: Quartzite
Type: Rock
Class: Metamorphic
Subclass: Quartzite
Particle Size: Solid
Sample No.: AP-958-111
Owner: United States Geological Survey, L. C. Rowan
Wavelength Range: All
Origin: Iberian Pyrite Belt, Spain
Description: Quartzite, light gray, silicifiedSample was Whole Rock Chips. Original ASTER Spectral Library name was usgs.perknic.rock.metamorphic.quartzite.solid.qua111.spectrum.txt
Measurement: Directional Hemispherical Reflectance
X Units: Wavelength (micrometers)
Y Units: Reflectance (percent)
wavelength	value
14.051	3.1003
13.79	3.6256
13.538	4.0067
13.295	4.5114
13.06	5.5105
12.834	9.2494
12.616	6.5714
12.404	7.519
12.2	1.133
12.002	2.0703
11.811	2.5441
11.626	3.0591
11.446	3.502
11.272	3.6977
11.103	4.017
10.939	4.1612
10.78	4.7071
10.625	4.8822
10.475	5.2942
10.329	5.7886
10.187	6.4375
10.049	7.107
9.914	8.1267
9.783	9.5996
9.656	11.3815
9.532	14.4715
9.411	21.7845
9.293	33.1351
9.178	34.4741
9.065	34.0518
8.956	32.548
8.849	30.385
8.744	28.0675
8.642	22.0626
8.543	27.089
8.445	29.2314
8.35	30.3747
8.257	33.1763
8.166	32.96
8.077	19.5288
7.99	10.4545
7.905	5.1088
7.821	2.6265
7.739	1.6068
7.659	0.9991
7.581	0.6283
7.504	0.5356
7.429	0.3811
7.355	0.4326
7.283	0.4223
7.212	0.4635
7.143	0.5047
7.074	0.6077
7.007	0.5974
6.942	0.6592
6.877	0.6901
6.814	0.6798
6.752	0.7931
6.691	0.7313
6.631	0.7313
6.572	0.8137
6.514	0.7622
6.458	0.8961
6.402	0.9064
6.347	0.8034
6.293	0.7622
6.24	0.8343
6.188	0.7931
6.137	0.8549
6.086	0.9682
6.037	1.0506
5.988	0.9991
5.94	0.9785
5.893	1.0609
5.846	1.1536
5.8	1.2566
5.755	1.3699
5.711	1.4214
5.667	1.3802
5.624	1.2051
5.582	1.2051
5.54	1.2051
5.499	1.2978
5.459	1.4523
5.419	1.3184
5.379	1.2257
5.341	1.1124
5.302	1.1433
5.265	1.1948
5.227	1.3287
5.191	1.5038
5.155	1.4935
5.119	1.5141
5.084	1.3802
5.049	1.3699
5.015	1.4111
4.981	1.4832
4.948	1.5965
4.915	1.7613
4.883	2.3587
4.851	3.3372
4.819	4.0685
4.788	4.6762
4.758	5.15
4.727	5.4384
4.697	5.0573
4.668	4.8719
4.638	6.2006
4.61	7.2409
4.581	7.7353
4.553	7.4263
4.525	6.1388
4.498	4.5423
4.47	4.1612
4.444	4.5732
4.417	5.0367
4.391	5.768
4.365	7.21
4.34	8.1061
4.314	8.2091
4.289	7.7456
4.265	7.3439
4.24	8.24
4.216	8.8271
4.192	8.9198
4.169	9.4348
4.145	10.0322
4.122	10.5163
4.099	11.33
4.077	12.0613
4.055	12.3394
4.032	12.2673
4.011	12.0716
3.989	12.1746
3.968	12.7823
3.947	13.2664
3.926	13.6887
3.905	13.7711
3.884	13.3797
3.864	13.1016
3.844	12.9574
3.824	13.2767
3.805	13.4415
3.785	13.287
3.766	13.0192
3.747	12.6587
3.728	12.5454
3.709	12.875
3.691	13.4312
3.673	13.7196
3.655	13.9977
3.637	13.8947
3.619	13.493
3.601	13.2561
3.584	12.9265
3.567	12.6278
3.549	12.2364
3.533	12.2055
3.516	11.8965
3.499	11.7317
3.483	11.5154
3.466	11.5669
3.45	11.2167
3.434	10.7429
3.418	10.2588
3.403	9.9292
3.387	9.5996
3.372	9.3421
3.357	9.0022
3.341	8.8683
3.326	8.3842
3.312	8.1782
3.297	7.9619
3.282	7.7868
3.268	7.7456
3.253	7.5087
3.239	7.416
3.225	7.1379
3.211	6.9422
3.197	6.7053
3.183	6.5302
3.17	6.4581
3.156	5.9122
3.143	5.8813
3.13	5.7165
3.117	5.3766
3.103	5.3045
3.091	5.1191
3.078	5.0779
3.065	4.9646
3.052	4.841
3.04	4.6041
3.027	4.5217
3.015	4.429
3.003	4.4599
2.991	4.4908
2.979	4.5732
2.967	4.532
2.955	4.5835
2.943	4.5217
2.932	4.6453
2.92	4.5011
2.909	4.738
2.897	4.7895
2.886	4.9337
2.875	4.944
2.864	5.1397
2.853	5.5929
2.842	5.665
2.831	5.768
2.82	5.9637
2.809	6.1491
2.799	6.2418
2.788	6.4478
2.778	5.6032
2.767	4.9337
2.757	4.2127
2.747	4.7277
2.737	5.0676
2.727	5.8813
2.717	8.4563
2.707	11.9789
2.697	16.0989
2.687	18.7151
2.677	20.3734
2.668	21.5682
2.658	22.2686
2.649	22.7218
2.639	23.2368
2.63	23.484
2.62	23.5561
2.611	23.793
2.602	24.0608
2.593	24.7612
2.584	24.7303
2.575	24.6994
2.566	24.7612
2.557	25.0496
2.548	24.9878
2.54	25.132
2.531	25.4513
2.522	25.5955
2.514	25.3998
2.505	25.2041
2.489	24.8423
2.461	24.3423
2.433	24.5423
2.405	25.5423
2.377	26.5423
2.349	25.7423
2.321	26.5423
2.293	27.2423
2.265	29.4423
2.237	28.9423
2.209	26.8423
2.181	25.8423
2.153	29.0423
2.125	29.5423
2.097	30.4423
2.069	30.2423
2.041	30.2423
2.013	29.8423
1.985	29.3423
1.957	28.8423
1.929	28.7423
1.901	28.9423
1.873	31.5423
1.845	32.2423
1.817	32.1423
1.789	32.0423
1.761	32.6423
1.733	32.3423
1.705	32.0423
1.677	32.4423
1.649	31.5423
1.621	32.1423
1.593	31.8423
1.565	31.5423
1.537	31.5423
1.509	32.0423
1.481	31.1423
1.453	31.2423
1.425	30.7423
1.397	29.0423
1.369	32.1423
1.341	32.0423
1.313	31.3423
1.285	31.3423
1.257	31.5423
1.229	31.5423
1.201	31.2423
1.173	31.5423
1.145	30.9423
1.117	31.1423
1.089	31.1423
1.061	31.2423
1.033	30.9423
1.005	31.2423
0.977	30.7423
0.949	30.9423
0.921	30.7423
0.893	30.4423
0.865	30.2423
0.837	30.2423
0.809	30.4423
0.799	29.9423
0.792	29.9423
0.785	30.2423
0.778	29.9423
0.771	30.0423
0.764	29.6423
0.757	30.0423
0.75	29.6423
0.743	29.9423
0.736	30.0423
0.729	29.3423
0.722	29.3423
0.715	28.8423
0.708	29.1423
0.701	28.7423
0.694	28.7423
0.687	28.3423
0.68	28.2423
0.673	28.3423
0.666	28.2423
0.659	28.3423
0.652	27.8423
0.645	28.0423
0.638	27.7423
0.631	27.6423
0.624	27.6423
0.617	28.0423
0.61	27.6423
0.603	27.7423
0.596	26.8423
0.589	26.9423
0.582	26.6423
0.575	26.7423
0.568	26.5423
0.561	26.8423
0.554	26.1423
0.547	26.0423
0.54	25.7423
0.533	25.5423
0.526	25.1423
0.519	25.0423
0.512	24.9423
0.505	24.3423
0.498	23.9423
0.491	24.1423
0.484	23.9423
0.477	23.8423
0.47	23.9423
0.463	23.9423
0.456	23.2423
0.449	23.8423
0.442	23.0423
0.435	23.4423
0.428	23.4423
0.421	22.9423
0.414	22.8423
0.407	22.8423
