Name: Chocolate "Marble" Limestone
Type: Rock
Class: Sedimentary
Subclass: Limestone
Particle Size: Solid
Sample No.: Ward68
Owner: JPL
Wavelength Range: All
Origin: Ward's Collection of American Rocks.  Sample locality - Knoxville, Knox Coutny, Tennessee.
Description: A brownish, partially crystalline limestone.Geologic age - Ordovician.Collected by:  Ward's Natural Science Original ASTER Spectral Library name was jpl.nicolet.rock.sedimentary.limestone.solid.ward68.spectrum.txt
Measurement: Hemispherical reflectance
X Units: Wavelength (micrometers)
Y Units: Reflectance (percent)
wavelength	value
15.3871	3.8877
15.118	4.6011
14.8581	4.1668
14.6069	4.6409
14.3642	4.6857
14.1293	4.6957
13.9021	2.4915
13.682	3.9366
13.4687	4.6246
13.2621	4.7126
13.0616	4.8956
12.8672	5.0315
12.6784	4.9188
12.4951	5.019
12.317	5.3192
12.1439	5.6293
11.9757	5.8216
11.812	5.6695
11.6527	6.597
11.4977	9.4302
11.3468	21.3163
11.1997	10.0129
11.0564	7.2905
10.9168	6.8487
10.7806	6.272
10.6478	5.8313
10.5182	6.0425
10.3917	6.2169
10.2683	6.2476
10.1477	5.9774
10.0299	6.0166
9.9148	5.8988
9.8024	6.1297
9.6925	6.3955
9.585	6.5732
9.4798	6.8791
9.377	6.7462
9.2763	6.8189
9.1778	6.7119
9.0814	7.3758
8.987	7.2962
8.8945	7.48
8.8039	7.8478
8.7151	7.3233
8.6281	6.9739
8.5428	6.6991
8.4592	6.8194
8.3772	7.3001
8.2967	7.5079
8.2179	7.8274
8.1404	7.9624
8.0645	7.7769
7.9899	8.3347
7.9167	8.2437
7.8449	8.4187
7.7743	8.6405
7.705	8.7878
7.6369	8.8555
7.57	9.1969
7.5043	9.6724
7.4397	10.3061
7.3762	10.903
7.3138	11.8554
7.2524	13.5336
7.1921	16.2137
7.1327	20.125
7.0743	25.7997
7.0169	26.6514
6.9604	27.2966
6.9047	28.2318
6.85	29.7176
6.7962	31.6433
6.7431	33.7145
6.6909	37.2029
6.6395	40.4614
6.5889	42.3609
6.539	43.547
6.49	43.4086
6.4416	32.5845
6.3939	17.1383
6.347	8.7102
6.3007	4.2552
6.2551	2.8837
6.2101	2.0376
6.1658	1.583
6.1222	1.4356
6.0791	1.3071
6.0366	1.3092
5.9948	1.365
5.9535	1.4736
5.9127	1.589
5.8726	1.6706
5.8329	1.6241
5.7938	1.7025
5.7552	1.8116
5.7172	1.9013
5.6796	1.9899
5.6425	2.1736
5.6059	2.0777
5.5698	1.7194
5.5341	1.8299
5.4989	2.5158
5.4641	3.041
5.4298	3.4321
5.3959	3.6341
5.3624	4.0279
5.3294	4.4649
5.2967	4.7009
5.2644	5.004
5.2326	5.2348
5.2011	5.4552
5.17	5.5453
5.1392	5.7564
5.1088	5.1756
5.0788	5.9999
5.0491	6.0581
5.0198	6.1504
4.9908	6.241
4.9622	6.1723
4.9338	6.2818
4.9058	6.2435
4.8781	6.4267
4.8508	6.4937
4.8237	6.6846
4.7969	6.5772
4.7704	6.6093
4.7443	6.2568
4.7184	5.6964
4.6927	4.8129
4.6674	4.6204
4.6423	5.0838
4.6175	5.8105
4.593	6.1448
4.5687	6.2599
4.5447	6.4832
4.5209	6.4052
4.4974	6.5169
4.4741	7.1429
4.451	7.5418
4.4282	7.8983
4.4057	8.0947
4.3833	8.3624
4.3612	8.1743
4.3393	7.9119
4.3176	7.8679
4.2962	7.9604
4.2749	7.6779
4.2539	8.0532
4.233	7.6015
4.2124	7.8687
4.192	8.0639
4.1717	7.881
4.1517	7.3563
4.1319	7.1816
4.1122	6.8231
4.0927	6.4255
4.0734	5.7686
4.0543	5.2681
4.0354	4.3555
4.0166	4.1399
3.9981	3.55
3.9796	3.2905
3.9614	3.3439
3.9433	3.5881
3.9254	3.7696
3.9077	4.0918
3.8901	3.9446
3.8726	4.1055
3.8554	4.2356
3.8382	4.2805
3.8213	4.5757
3.8045	5.5579
3.7878	6.9938
3.7713	7.7497
3.7549	8.5571
3.7386	9.1211
3.7225	9.154
3.7066	9.5155
3.6907	9.7381
3.675	9.7055
3.6595	9.5319
3.644	9.4226
3.6287	9.0914
3.6136	8.8738
3.5985	8.2377
3.5836	7.5346
3.5688	7.0168
3.5541	6.6221
3.5396	6.4372
3.5251	4.9209
3.5108	4.2167
3.4966	4.0045
3.4825	4.0633
3.4685	4.0436
3.4547	4.2983
3.4409	4.4402
3.4273	4.4757
3.4137	4.5748
3.4003	4.3228
3.387	4.7435
3.3738	4.4085
3.3606	4.324
3.3476	4.4006
3.3347	5.4204
3.3219	6.1864
3.3092	6.5697
3.2965	7.1108
3.284	7.0598
3.2716	7.0076
3.2593	7.6074
3.247	7.7566
3.2348	7.5478
3.2228	7.5027
3.2108	7.7489
3.1989	7.1976
3.1871	7.2405
3.1754	7.2738
3.1638	7.4045
3.1523	6.8337
3.1408	6.1995
3.1294	6.7707
3.1181	6.3085
3.1069	6.4364
3.0958	6.4189
3.0848	6.5111
3.0738	6.255
3.0629	6.4436
3.0521	6.3462
3.0413	6.5331
3.0307	6.2658
3.0201	6.6421
3.0096	6.5879
2.9991	6.4403
2.9887	6.2959
2.9784	6.0381
2.9682	6.4844
2.9581	6.2113
2.948	6.5679
2.9379	6.1734
2.928	6.5047
2.9181	6.8856
2.9083	6.6626
2.8985	6.7608
2.8888	6.6292
2.8792	7.3518
2.8697	7.2282
2.8602	6.928
2.8507	7.0333
2.8413	7.2813
2.832	7.3163
2.8228	7.623
2.8136	6.5443
2.8045	8.6765
2.7954	7.2378
2.7864	7.086
2.7774	8.0339
2.7685	7.8294
2.7597	7.9671
2.7509	8.7048
2.7422	9.2633
2.7335	10.2803
2.7249	11.6795
2.7163	13.5223
2.7078	15.2621
2.6994	17.5303
2.691	18.87
2.6826	19.3558
2.6743	20.4209
2.666	21.5119
2.6578	21.019
2.6497	21.5482
2.6416	21.8064
2.6336	21.5224
2.6256	21.9152
2.6176	21.8069
2.6097	21.7714
2.6018	21.1048
2.594	21.9938
2.5863	20.7536
2.5785	20.4319
2.5709	19.5467
2.5633	18.4361
2.5557	15.3763
2.5481	13.2508
2.5406	12.068
2.5332	12.249
2.5258	12.896
2.5184	14.4443
2.5111	14.2754
2.5038	14.8523
2.4966	15.2106
2.4894	15.2049
2.4823	16.3541
2.4752	16.7168
2.4681	17.8232
2.4611	18.5476
2.4541	19.716
2.4471	20.3714
2.4402	20.6241
2.4333	21.212
2.4265	21.7979
2.4197	21.5369
2.413	22.4764
2.4063	22.0037
2.3996	22.8948
2.3929	22.8096
2.3863	22.399
2.3798	22.49
2.3732	21.4117
2.3667	21.2845
2.3603	19.7085
2.3538	18.2134
2.3474	16.3922
2.3411	16.367
2.3347	16.1261
2.3285	16.8407
2.3222	18.1305
2.316	18.2402
2.3098	18.5312
2.3036	18.4689
2.2975	19.166
2.2914	19.4811
2.2854	20.2674
2.2793	21.2062
2.2733	21.904
2.2674	22.013
2.2614	21.7962
2.2555	22.5713
2.2497	23.8765
2.2438	23.0687
2.238	23.09
2.2322	23.2586
2.2265	23.7785
2.2208	23.4424
2.2151	23.2799
2.2094	24.3059
2.2038	23.6611
2.1982	23.6888
2.1926	22.9063
2.187	24.0001
2.1815	24.0381
2.176	24.3983
2.1706	24.0209
2.1651	23.8712
2.1597	22.7295
2.1543	23.5035
2.149	23.8011
2.1436	24.5259
2.1383	25.0143
2.1331	25.0214
2.1278	24.6169
2.1226	24.4454
2.1174	24.9404
2.1122	24.8675
2.1071	24.6349
2.1019	23.2714
2.0968	24.9907
2.0918	24.1708
2.0867	23.6339
2.0817	24.71
2.0767	23.7582
2.0717	25.3383
2.0667	26.1127
2.0618	25.0642
2.0569	25.8432
2.052	24.3711
2.0472	23.8656
2.0423	23.2745
2.0375	24.0278
2.0327	23.4056
2.028	24.0652
2.0232	24.7342
2.0185	24.3757
2.0138	25.1572
2.0091	24.6254
2.0044	23.0594
1.9998	22.8956
