Name: Phosphorite
Type: Rock
Class: Sedimentary
Subclass: Shale
Particle Size: Solid
Sample No.: Phop02a
Owner: USGS
Wavelength Range: All
Origin: Southeastern Idaho
Description: Phosphate ore from lower part of Meade PeakMember, Phosphoria Formation, unaltered (no chemicalweathering). Sample was Whole rock chips. Original ASTER Spectral Library name was usgs.perknic.rock.sedimentary.shale.solid.phop02a.spectrum.txt
Measurement: Directional Hemispherical Reflectance
X Units: Wavelength (micrometers)
Y Units: Reflectance (percent)
wavelength	value
14.051	1.3081
13.826	1.5759
13.609	1.5759
13.398	1.854
13.193	1.9467
12.995	1.9776
12.802	1.9673
12.616	1.8231
12.434	1.957
12.258	1.751
12.086	1.9467
11.92	2.0188
11.757	2.2969
11.6	2.2042
11.446	2.163
11.297	2.3587
11.151	2.575
11.009	2.6059
10.87	2.7089
10.735	2.8222
10.604	2.9149
10.475	3.1003
10.35	2.7707
10.227	3.3269
10.108	3.5432
9.991	3.811
9.877	4.1612
9.765	4.7483
9.656	5.9122
9.549	6.6126
9.445	6.2727
9.343	6.1594
9.243	5.8813
9.145	5.2633
9.049	5.665
8.956	5.5723
8.864	4.8101
8.774	3.2857
8.686	2.6368
8.599	2.1321
8.515	2.369
8.431	2.3793
8.35	2.4308
8.27	2.575
8.192	2.6162
8.115	2.3072
8.039	2.0085
7.965	1.8025
7.893	1.6274
7.821	1.5347
7.751	1.545
7.682	1.6068
7.614	1.4935
7.548	1.545
7.483	1.5553
7.418	1.3493
7.355	1.4317
7.293	1.2978
7.232	1.339
7.172	1.2257
7.113	1.1742
7.055	1.0712
6.998	0.9476
6.942	0.927
6.886	0.9785
6.832	0.9991
6.778	1.03
6.726	1.2154
6.674	1.2875
6.623	1.3596
6.572	1.4832
6.523	1.5862
6.474	1.6171
6.426	1.6583
6.378	1.6068
6.332	1.6068
6.286	1.5965
6.24	1.6583
6.195	1.5759
6.151	1.5347
6.108	1.7098
6.065	1.6377
6.023	1.7201
5.981	1.9673
5.94	2.2351
5.899	2.4823
5.859	2.9458
5.82	3.5123
5.781	4.1612
5.743	4.9234
5.705	5.3045
5.667	5.1294
5.63	5.6959
5.594	5.6959
5.558	6.4272
5.523	7.1894
5.487	7.7662
5.453	8.2503
5.419	8.2709
5.385	7.8486
5.352	7.5087
5.319	7.5808
5.286	7.8692
5.254	8.343
5.222	8.8271
5.191	8.7962
5.16	8.9198
5.129	8.961
5.099	8.6108
5.069	7.5293
5.04	6.0152
5.01	4.5114
4.981	4.6453
4.953	5.2221
4.925	5.871
4.897	6.3345
4.869	6.2727
4.842	6.3757
4.815	6.077
4.788	5.9843
4.762	6.6023
4.736	7.1276
4.71	7.1894
4.684	7.2203
4.659	7.1997
4.634	7.4675
4.61	7.8589
4.585	8.5593
4.561	8.9198
4.537	9.5378
4.513	10.2073
4.49	10.609
4.467	10.9592
4.444	11.1755
4.421	11.4227
4.398	11.4021
4.376	11.4021
4.354	11.4639
4.332	10.9901
4.311	9.888
4.289	8.1679
4.268	6.4993
4.247	7.4675
4.226	9.5893
4.206	11.4021
4.185	12.2982
4.165	12.8029
4.145	13.1634
4.126	13.0398
4.106	13.184
4.086	12.8956
4.067	12.6381
4.048	12.1231
4.029	11.7317
4.011	11.1137
3.992	11.5566
3.974	11.0313
3.956	11.639
3.938	11.7626
3.92	12.154
3.902	12.1849
3.884	12.3703
3.867	12.3806
3.85	12.4012
3.833	12.1849
3.816	12.1437
3.799	12.154
3.782	11.8553
3.766	11.7935
3.75	11.5257
3.733	11.5051
3.717	11.4021
3.702	11.1137
3.686	10.8356
3.67	10.6296
3.655	10.4957
3.639	10.1352
3.624	10.0219
3.609	9.7438
3.594	9.5893
3.579	9.1258
3.564	9.0537
3.549	8.7035
3.535	8.3842
3.521	8.3636
3.506	8.0855
3.492	7.828
3.478	7.6117
3.464	7.3851
3.45	7.1791
3.437	7.0864
3.423	6.9628
3.409	6.8289
3.396	6.6435
3.383	6.5302
3.37	6.2521
3.357	6.1182
3.344	6.0255
3.331	5.7165
3.318	5.665
3.305	5.6341
3.293	5.3766
3.28	5.4178
3.268	5.1603
3.255	5.0573
3.243	4.8616
3.231	4.7483
3.219	4.9234
3.207	4.6247
3.195	4.532
3.183	4.3981
3.172	4.3363
3.16	4.1921
3.149	4.3157
3.137	3.9964
3.126	3.9449
3.115	3.8419
3.103	3.9346
3.092	3.9449
3.081	3.502
3.07	3.7286
3.06	3.811
3.049	3.5947
3.038	3.502
3.027	3.6153
3.017	3.5329
3.006	3.5226
2.996	3.5844
2.986	3.7904
2.975	3.4814
2.965	3.6565
2.955	3.7698
2.945	3.6977
2.935	3.6153
2.925	3.6977
2.915	3.8728
2.905	3.8625
2.896	3.8419
2.886	3.6462
2.876	3.9449
2.867	3.8728
2.857	4.017
2.848	4.1303
2.838	4.0994
2.829	4.0788
2.82	3.9655
2.811	4.2539
2.802	4.5423
2.793	4.3466
2.784	4.4393
2.775	4.3672
2.766	4.9131
2.757	5.2633
2.748	5.9637
2.74	7.1997
2.731	8.6211
2.722	11.3403
2.714	14.4612
2.705	16.6345
2.697	19.364
2.688	22.3098
2.68	25.2865
2.672	26.8212
2.664	27.8306
2.655	29.1387
2.647	29.7979
2.639	30.7249
2.631	31.3326
2.623	31.4047
2.615	32.1257
2.607	32.3935
2.599	32.6716
2.592	33.1763
2.584	33.2896
2.576	33.1454
2.569	33.5986
2.561	33.4956
2.553	33.5574
2.546	32.9394
2.538	33.3514
2.531	33.2587
2.524	33.2278
2.516	33.4441
2.509	33.372
2.502	34.0312
2.48	34.1969
2.456	35.4661
2.432	36.6857
2.408	38.476
2.384	39.9946
2.36	41.0459
2.336	42.5741
2.312	44.241
2.288	44.4084
2.264	44.4255
2.24	44.2232
2.216	44.6958
2.192	45.2892
2.168	45.6664
2.144	45.3115
2.12	44.2524
2.096	43.5216
2.072	43.087
2.048	42.4076
2.024	41.2655
2	40.0231
1.976	38.6585
1.952	37.3038
1.928	36.5779
1.904	39.4647
1.88	45.766
1.856	47.5511
1.832	47.3798
1.808	47.2141
1.784	47.2409
1.76	46.9238
1.736	46.8359
1.712	46.6129
1.688	46.2812
1.664	45.8804
1.64	45.5846
1.616	45.1914
1.592	44.7439
1.568	44.205
1.544	43.5614
1.52	42.9324
1.496	42.2047
1.472	41.3652
1.448	40.6907
1.424	40.0738
1.4	40.6356
1.376	41.0232
1.352	40.5534
1.328	40.3559
1.304	39.9748
1.28	39.3571
1.256	38.8011
1.232	38.0544
1.208	37.3539
1.184	36.5406
1.16	35.8018
1.136	35.0772
1.112	34.2008
1.088	33.3287
1.064	32.5396
1.04	31.6502
1.016	30.8078
0.992	29.9708
0.968	29.2488
0.944	28.492
0.92	27.6364
0.896	27.0524
0.872	26.2837
0.848	25.8578
0.824	24.7694
0.8	23.3289
0.776	21.9078
0.752	20.3577
0.728	18.7976
0.704	17.2736
0.68	15.8774
0.656	14.5696
0.632	13.4287
0.608	12.3552
0.584	11.3852
0.56	10.4512
0.536	9.5401
0.512	8.7269
0.488	7.9798
0.464	7.5468
0.44	6.9314
0.416	6.3177
