Name: Phosphorite
Type: Rock
Class: Sedimentary
Subclass: Shale
Particle Size: Solid
Sample No.: Phop011
Owner: USGS
Wavelength Range: All
Origin: Southeastern Idaho
Description: Phosphate ore from lower part of Meade PeakMember, Phosphoria Formation, altered (slightchemical weathering), contains hydroxylapatite, quartz,and muscovite. Sample was Whole rock chips. Original ASTER Spectral Library name was usgs.perknic.rock.sedimentary.shale.solid.phop011.spectrum.txt
Measurement: Directional Hemispherical Reflectance
X Units: Wavelength (micrometers)
Y Units: Reflectance (percent)
wavelength	value
14.051	2.3793
13.826	2.6162
13.609	2.7192
13.398	3.0076
13.193	3.1415
12.995	3.3681
12.802	3.7595
12.616	3.3063
12.434	3.0076
12.258	2.4514
12.086	2.8737
11.92	2.9973
11.757	3.2239
11.6	3.6153
11.446	3.5638
11.297	3.8522
11.151	4.1509
11.009	4.1715
10.87	4.2127
10.735	4.3569
10.604	4.6659
10.475	5.1706
10.35	5.562
10.227	6.2624
10.108	6.9319
9.991	7.5396
9.877	8.1164
9.765	9.0846
9.656	10.5472
9.549	11.4124
9.445	10.9695
9.343	10.5781
9.243	10.0219
9.145	9.3215
9.049	9.4554
8.956	9.1155
8.864	8.4151
8.774	7.5808
8.686	6.8289
8.599	5.7783
8.515	6.901
8.431	7.0967
8.35	7.5396
8.27	8.24
8.192	8.7344
8.115	8.0546
8.039	6.5405
7.965	5.3251
7.893	4.3157
7.821	3.5844
7.751	3.3887
7.682	3.1724
7.614	2.9355
7.548	2.7501
7.483	2.5647
7.418	2.4823
7.355	2.3896
7.293	2.2454
7.232	2.1115
7.172	2.0394
7.113	1.8952
7.055	1.6686
6.998	1.6686
6.942	1.5656
6.886	1.648
6.832	1.6789
6.778	1.7407
6.726	1.8334
6.674	1.957
6.623	2.0497
6.572	2.0806
6.523	2.1939
6.474	2.3175
6.426	2.2557
6.378	2.2866
6.332	2.2866
6.286	2.2042
6.24	2.2248
6.195	2.1527
6.151	2.0497
6.108	2.1218
6.065	2.1321
6.023	2.2042
5.981	2.2454
5.94	2.4617
5.899	2.7501
5.859	3.0488
5.82	3.4299
5.781	3.8522
5.743	4.3054
5.705	4.5011
5.667	4.4702
5.63	4.4393
5.594	4.3878
5.558	4.6041
5.523	4.9955
5.487	5.3766
5.453	5.7268
5.419	5.6753
5.385	5.1706
5.352	4.7998
5.319	4.944
5.286	5.1397
5.254	5.6959
5.222	6.4066
5.191	6.7156
5.16	6.8804
5.129	6.9113
5.099	6.8186
5.069	6.3551
5.04	5.8607
5.01	5.1706
4.981	5.2942
4.953	5.8401
4.925	6.3139
4.897	6.8186
4.869	7.0967
4.842	7.3233
4.815	7.2512
4.788	7.21
4.762	7.6735
4.736	7.9516
4.71	8.0649
4.684	8.1782
4.659	8.1576
4.634	8.4975
4.61	8.8065
4.585	9.2803
4.561	9.4863
4.537	9.8159
4.513	10.2176
4.49	10.4648
4.467	10.5575
4.444	10.8665
4.421	10.9592
4.398	11.1034
4.376	11.2476
4.354	11.4227
4.332	11.2888
4.311	10.7944
4.289	9.8777
4.268	8.6211
4.247	9.5069
4.226	11.1034
4.206	12.0201
4.185	12.5042
4.165	12.7205
4.145	12.8338
4.126	13.0192
4.106	12.9883
4.086	12.9162
4.067	12.8647
4.048	12.5969
4.029	12.3085
4.011	11.9583
3.992	12.1746
3.974	11.8862
3.956	12.3394
3.938	12.4012
3.92	12.6381
3.902	12.7823
3.884	12.7308
3.867	12.6278
3.85	12.6999
3.833	12.6896
3.816	12.5763
3.799	12.463
3.782	12.2982
3.766	12.2261
3.75	11.9686
3.733	11.948
3.717	11.7214
3.702	11.536
3.686	11.3609
3.67	11.1755
3.655	10.8459
3.639	10.6811
3.624	10.5369
3.609	10.1764
3.594	9.888
3.579	9.5996
3.564	9.3112
3.549	9.0022
3.535	8.7035
3.521	8.5387
3.506	8.3739
3.492	8.4872
3.478	8.1473
3.464	7.9928
3.45	7.931
3.437	7.5911
3.423	7.4057
3.409	7.1379
3.396	7.1173
3.383	7.0555
3.37	6.7568
3.357	6.7465
3.344	6.489
3.331	6.3345
3.318	6.1903
3.305	6.0976
3.293	6.0049
3.28	5.871
3.268	5.6959
3.255	5.7062
3.243	5.6547
3.231	5.5517
3.219	5.5414
3.207	5.1706
3.195	5.2324
3.183	5.1088
3.172	4.8925
3.16	4.9028
3.149	4.7998
3.137	4.7586
3.126	4.7071
3.115	4.4908
3.103	4.6247
3.092	4.3363
3.081	4.3878
3.07	4.326
3.06	4.2436
3.049	4.1921
3.038	4.2024
3.027	4.0891
3.017	4.2539
3.006	4.2127
2.996	4.1097
2.986	4.3672
2.975	4.3775
2.965	4.2333
2.955	4.2127
2.945	4.2539
2.935	4.3363
2.925	4.2436
2.915	4.6762
2.905	4.6041
2.896	4.6247
2.886	4.7174
2.876	4.738
2.867	4.8719
2.857	4.8719
2.848	4.7895
2.838	4.7277
2.829	4.6144
2.82	4.429
2.811	4.6041
2.802	4.2848
2.793	4.2024
2.784	4.2848
2.775	4.326
2.766	4.0067
2.757	4.223
2.748	4.532
2.74	4.9955
2.731	6.3139
2.722	8.549
2.714	11.6802
2.705	14.5642
2.697	17.2937
2.688	20.4249
2.68	22.7527
2.672	24.411
2.664	25.6573
2.655	26.2547
2.647	27.4701
2.639	27.8718
2.631	28.4074
2.623	28.9018
2.615	29.2726
2.607	29.4065
2.599	29.9215
2.592	30.0966
2.584	30.1996
2.576	29.9421
2.569	30.488
2.561	30.5601
2.553	30.6528
2.546	30.7043
2.538	31.0339
2.531	30.5189
2.524	31.0854
2.516	31.2193
2.509	31.0339
2.502	31.5077
2.48	31.9414
2.456	33.2358
2.432	34.8217
2.408	36.363
2.384	37.2663
2.36	37.8816
2.336	39.9843
2.312	41.1448
2.288	41.674
2.264	41.2419
2.24	41.1014
2.216	41.3334
2.192	42.4065
2.168	43.5355
2.144	43.0698
2.12	42.1549
2.096	41.7391
2.072	41.8352
2.048	41.3891
2.024	40.5817
2	39.6906
1.976	38.8472
1.952	37.6791
1.928	36.9103
1.904	39.0767
1.88	44.6365
1.856	46.2323
1.832	46.2128
1.808	46.1029
1.784	46.1062
1.76	45.874
1.736	45.8199
1.712	45.5894
1.688	45.3227
1.664	45.0607
1.64	44.8278
1.616	44.4616
1.592	44.1899
1.568	43.6577
1.544	43.285
1.52	42.8751
1.496	42.315
1.472	41.7457
1.448	41.1222
1.424	40.4902
1.4	41.0843
1.376	41.6901
1.352	41.3128
1.328	41.3382
1.304	41.126
1.28	40.7879
1.256	40.5346
1.232	40.1837
1.208	39.8568
1.184	39.4612
1.16	39.1579
1.136	38.865
1.112	38.4408
1.088	38.128
1.064	37.8375
1.04	37.5598
1.016	37.1842
0.992	36.8788
0.968	36.5482
0.944	36.4433
0.92	36.2671
0.896	36.4544
0.872	36.2502
0.848	35.9453
0.824	35.4141
0.8	34.6818
0.776	33.5655
0.752	32.3341
0.728	30.9813
0.704	29.4542
0.68	27.9057
0.656	26.4525
0.632	25.0717
0.608	23.9228
0.584	22.9366
0.56	21.8639
0.536	20.5364
0.512	19.0072
0.488	17.5146
0.464	16.5826
0.44	15.1533
0.416	13.392
