Name: Argillaceous Limestone
Type: rock
Class: Sedimentary
Subclass: Limestone
Particle Size: Coarse
Sample No.: limestone_6
Owner: JHU
Wavelength Range: All
Origin: Sample No. 359,  The Hunt and Salisbury Collection at the U.S.Geological Survey, Denver, Co.
Description: A fine-grained sample with uniserial and some biserial foraminiferid tests recrystallized to calcite ("globigerinid ooze").  The matrix contains cloudy brown material (clay), carbonate, quartz and a reddish-brown phase (hematite).  There are scattered subrounded grains of quartz present as well.  The reddish material occurs as irregular flecks and discontinuous bands throughout the section. Particle size was 500 - 1500 Micrometers. Original ASTER Spectral Library name was jhu.becknic.rock.sedimentary.limestone.coarse.limest6.spectrum.txt
Measurement: Directional (10 Degree) Hemispherical Reflectance
X Units: Wavelength (micrometers)
Y Units: Reflectance (percent)
wavelength	value
14.9831	2.0082
14.6445	1.473
14.3209	1.4337
14.0112	1.1358
13.7147	1.8602
13.4304	2.0572
13.1577	2.255
12.8959	2.1815
12.6443	2.0335
12.4023	1.9194
12.1694	2.1411
11.945	2.3864
11.7289	2.6197
11.5203	3.3502
11.3191	2.0932
11.1248	3.2013
10.937	2.6592
10.7555	2.6893
10.5799	2.8039
10.4099	2.8352
10.2454	2.6976
10.0859	2.5725
9.9313	2.4785
9.7814	2.469
9.636	2.5252
9.4948	2.7374
9.3577	3.2721
9.2245	3.6865
9.095	3.6148
8.9691	3.4549
8.8467	3.4113
8.7275	3.5686
8.6116	3.4656
8.4986	4.2018
8.3886	5.0496
8.2814	6.484
8.1769	7.5812
8.075	7.6451
7.9756	8.2019
7.8786	7.9866
7.784	8.1159
7.6916	8.1259
7.6014	7.392
7.5133	7.5075
7.4272	7.377
7.343	6.8144
7.2607	5.5791
7.1803	4.2504
7.1016	4.1258
7.0246	3.5042
6.9493	3.264
6.8755	3.238
6.8034	3.3372
6.7327	3.4864
6.6634	3.8608
6.5956	4.4578
6.5292	5.1086
6.464	5.6189
6.4002	5.3679
6.3376	3.6744
6.2762	2.8188
6.216	2.4122
6.157	2.0856
6.099	2.002
6.0421	1.9381
5.9863	2.0617
5.9315	2.1103
5.8777	2.2405
5.8249	2.263
5.773	2.1683
5.722	2.3139
5.6719	2.6173
5.6227	2.6545
5.5744	1.2068
5.5268	2.6732
5.4801	4.4235
5.4341	5.6201
5.3889	5.8517
5.3445	5.7208
5.3008	6.5567
5.2578	8.0148
5.2154	10.1852
5.1738	11.0006
5.1328	11.3347
5.0925	10.4104
5.0528	11.6165
5.0137	11.7342
4.9752	12.7646
4.9373	14.2871
4.9	16.0987
4.8632	17.7422
4.827	18.487
4.7913	18.8406
4.7561	18.4832
4.7215	16.1243
4.6873	11.055
4.6536	11.433
4.6205	15.8354
4.5877	17.3906
4.5555	17.7932
4.5237	17.9622
4.4923	18.4027
4.4614	19.9101
4.4309	21.3857
4.4008	22.4002
4.3711	22.9697
4.3418	22.3841
4.3129	22.3895
4.2844	22.1937
4.2563	22.2567
4.2285	22.5039
4.2011	22.3062
4.174	21.6042
4.1473	20.4834
4.1209	18.6026
4.0949	16.5001
4.0692	13.8992
4.0438	9.8951
4.0187	6.085
3.994	3.5224
3.9695	3.0599
3.9453	4.2558
3.9214	5.4226
3.8979	5.8531
3.8746	6.0686
3.8515	6.3244
3.8288	7.7403
3.8063	11.3605
3.7841	17.5303
3.7621	19.4395
3.7404	19.9325
3.7189	20.3519
3.6977	20.2951
3.6767	20.0026
3.656	19.4175
3.6355	18.7987
3.6152	17.9547
3.5951	16.7708
3.5753	14.5403
3.5557	13.8682
3.5363	11.5301
3.5171	7.252
3.4981	5.8761
3.4793	5.0889
3.4607	6.735
3.4423	7.1949
3.4241	7.1301
3.4061	7.0635
3.3883	6.8684
3.3707	6.7452
3.3533	6.0772
3.336	9.1425
3.3189	11.1618
3.302	11.5881
3.2853	11.7712
3.2687	11.8507
3.2523	11.8408
3.2361	11.7742
3.22	11.5822
3.204	11.3856
3.1883	11.1625
3.1727	10.88
3.1572	10.5023
3.1419	10.337
3.1268	10.2878
3.1117	9.9406
3.0969	9.8096
3.0821	9.7888
3.0675	9.6879
3.0531	9.7184
3.0388	9.6341
3.0246	9.6552
3.0105	9.682
2.9966	9.6744
2.9828	9.7994
2.9692	9.8856
2.9556	9.9591
2.9422	10.04
2.9289	10.2454
2.9157	10.3427
2.9027	10.5397
2.8897	10.7649
2.8769	10.9385
2.8642	11.1391
2.8516	11.3788
2.8391	11.5824
2.8267	11.6764
2.8144	11.6933
2.8022	11.3918
2.7902	10.6342
2.7782	9.4691
2.7664	8.6357
2.7546	8.4181
2.7429	9.2732
2.7314	10.9281
2.7199	14.5031
2.7085	19.2195
2.6973	24.6127
2.6861	33.2461
2.675	37.8773
2.664	40.1767
2.6531	41.7743
2.6423	42.7031
2.6315	43.0938
2.6209	43.2958
2.6103	43.567
2.5999	43.7233
2.5895	43.5386
2.5792	43.2831
2.569	42.6865
2.5588	40.7392
2.5487	36.5764
2.5388	33.4038
2.5289	34.4605
2.519	36.638
2.5093	37.7129
2.4996	38.2005
2.49	38.6642
2.4805	39.6865
2.471	41.1936
2.4616	42.6995
2.4523	43.77
2.4431	44.5522
2.4339	45.3715
2.4248	46.2542
2.4157	47.0285
2.4068	47.4972
2.3979	47.8529
2.389	48.1418
2.3802	48.0847
2.3715	47.6642
2.3629	46.2056
2.3543	43.716
2.3458	41.761
2.3373	41.717
2.3289	43.0768
2.3206	44.5069
2.3123	45.4809
2.3041	45.9712
2.2959	46.5945
2.2878	47.4666
2.2798	48.309
2.2718	49.1691
2.2638	49.6411
2.2559	50.1057
2.2481	50.3575
2.2403	50.532
2.2326	50.4636
2.225	49.9956
2.2173	49.6726
2.2098	49.2989
2.2023	49.7256
2.1948	50.2793
2.1874	50.9258
2.18	51.4411
2.1727	51.9062
2.1655	52.0261
2.1583	52.2624
2.1511	52.4002
2.144	52.754
2.1369	52.8038
2.1299	52.8852
2.1229	52.9492
2.116	52.9212
2.1091	53.0183
2.1023	53.1
2.0955	53.1175
2.0887	53.3262
2.082	53.3231
2.06	53.5323
2.028	53.1759
1.996	52.4293
1.964	51.6127
1.932	51.0105
1.9	49.8354
1.868	54.9676
1.836	56.4281
1.804	57.1341
1.772	57.2227
1.74	57.2787
1.708	56.7657
1.676	56.3965
1.644	56.2391
1.612	56.7253
1.58	56.4029
1.548	55.9866
1.516	56.2496
1.484	55.429
1.452	54.6336
1.42	54.0305
1.388	53.5359
1.356	55.1411
1.324	54.6554
1.292	54.8306
1.26	53.5743
1.228	52.6145
1.196	52.4761
1.164	51.6797
1.132	50.6515
1.1	50.5537
1.068	50.0776
1.036	49.1161
1.004	48.585
0.972	48.3266
0.94	47.897
0.908	47.2189
0.876	46.8295
0.844	46.9821
0.812	46.3342
0.795	46.4939
0.787	46.5273
0.779	46.2343
0.771	45.9342
0.763	45.6467
0.755	45.3129
0.747	45.1344
0.739	44.8533
0.731	44.3704
0.723	44.4471
0.715	44.1004
0.707	43.9313
0.699	43.3406
0.691	43.6108
0.683	42.6385
0.675	42.5027
0.667	42.4855
0.659	41.9707
0.651	41.9812
0.643	41.3642
0.635	41.806
0.627	40.6439
0.619	40.4676
0.611	39.4383
0.603	39.5086
0.595	39.3095
0.587	39.0561
0.579	39.2544
0.571	38.1949
0.563	37.9087
0.555	36.8711
0.547	36.3876
0.539	35.9745
0.531	35.1731
0.523	34.7619
0.515	34.3622
0.507	33.3984
0.499	33.0169
0.491	32.3855
0.483	32.3632
0.475	31.7479
0.467	30.5431
0.459	30.727
0.451	29.9767
0.443	29.255
0.435	28.5485
0.427	28.0473
0.419	27.3748
0.411	26.3226
0.403	25.3814
