Name: Muscovite-Biotite Granite
Type: Rock
Class: Igneous
Subclass: Felsic
Particle Size: Solid
Sample No.: Ward12
Owner: JPL
Wavelength Range: VSWIR
Origin: Ward's Collection of American Rocks.  Sample locality - Concord, Merrimack County, New Hampshire.
Description: A light-colored medium-grained rock composed of feldspar,quartz, muscovite and biotite.Geologic age - Late Paleozoic.Collected by:  Ward's Natural Science Original ASTER Spectral Library name was jpl.perkin.rock.igneous.felsic.solid.ward12.spectrum.txt
Measurement: Hemispherical reflectance
X Units: Wavelength (micrometers)
Y Units: Reflectance (percent)
wavelength	value
2.5	22.694
2.494	22.6102
2.488	22.6467
2.482	22.5937
2.476	22.5427
2.47	22.4282
2.464	22.2345
2.458	22.2017
2.452	22.0814
2.446	22.0418
2.44	22.0713
2.434	22.1868
2.428	22.3783
2.422	22.5997
2.416	22.8686
2.41	23.0956
2.404	23.3064
2.398	23.3327
2.392	23.4501
2.386	23.4668
2.38	23.4714
2.374	23.3952
2.368	23.2876
2.362	23.1669
2.356	23.0773
2.35	22.9527
2.344	23.1574
2.338	23.5155
2.332	23.9796
2.326	24.6349
2.32	25.2918
2.314	26.0278
2.308	26.7549
2.302	27.3423
2.296	27.8404
2.29	28.2304
2.284	28.2814
2.278	28.2487
2.272	28.1298
2.266	27.8745
2.26	27.5365
2.254	27.3965
2.248	27.1961
2.242	27.0746
2.236	26.8414
2.23	26.3283
2.224	25.629
2.218	24.9091
2.212	24.4195
2.206	24.2446
2.2	24.5026
2.194	25.0169
2.188	26.006
2.182	27.1894
2.176	28.3158
2.17	29.2352
2.164	29.8888
2.158	30.3636
2.152	30.7147
2.146	30.9077
2.14	31.0518
2.134	31.0125
2.128	30.8187
2.122	30.7246
2.116	30.6831
2.11	30.7009
2.104	30.8274
2.098	31.0245
2.092	31.3477
2.086	31.5478
2.08	31.709
2.074	31.852
2.068	31.8871
2.062	31.8341
2.056	31.8531
2.05	31.8831
2.044	31.8524
2.038	31.8519
2.032	31.8077
2.026	31.7547
2.02	31.7502
2.014	31.6896
2.008	31.5705
2.002	31.5401
1.996	31.5185
1.99	31.5957
1.984	31.5629
1.978	31.537
1.972	31.4941
1.966	31.5092
1.96	31.5038
1.954	31.4165
1.948	31.5375
1.942	31.5538
1.936	31.6003
1.93	31.5279
1.924	31.5063
1.918	31.4234
1.912	31.4807
1.906	31.5178
1.9	31.5678
1.894	31.7862
1.888	31.9616
1.882	32.1197
1.876	32.2914
1.87	32.2851
1.864	32.2843
1.858	32.1777
1.852	32.1973
1.846	32.0471
1.84	32.1219
1.834	32.053
1.828	31.9769
1.822	32.0043
1.816	31.9718
1.81	31.9643
1.804	31.9724
1.798	31.919
1.792	31.8653
1.786	31.8248
1.78	31.8086
1.774	31.8032
1.768	31.735
1.762	31.7029
1.756	31.6773
1.75	31.5931
1.744	31.6394
1.738	31.647
1.732	31.605
1.726	31.5601
1.72	31.4919
1.714	31.3757
1.708	31.3731
1.702	31.3535
1.696	31.2327
1.69	31.2248
1.684	31.1425
1.678	31.1723
1.672	31.0074
1.666	30.8499
1.66	30.8384
1.654	30.8161
1.648	30.7933
1.642	30.7829
1.636	30.6651
1.63	30.7561
1.624	30.6358
1.618	30.5217
1.612	30.5223
1.606	30.5007
1.6	30.3942
1.594	30.3408
1.588	30.2725
1.582	30.2267
1.576	30.1417
1.57	30.1106
1.564	30.0705
1.558	30.0239
1.552	29.9689
1.546	29.8688
1.54	29.8114
1.534	29.7481
1.528	29.7339
1.522	29.664
1.516	29.6277
1.51	29.4925
1.504	29.482
1.498	29.4177
1.492	29.3373
1.486	29.3238
1.48	29.2232
1.474	29.1997
1.468	29.0456
1.462	28.9611
1.456	28.9445
1.45	28.7806
1.444	28.7056
1.438	28.4616
1.432	27.9582
1.426	27.0492
1.42	25.7758
1.414	24.6398
1.408	24.9626
1.402	25.5308
1.396	26.7111
1.39	27.7112
1.384	28.0381
1.378	28.0968
1.372	28.1952
1.366	28.1734
1.36	28.1592
1.354	28.0629
1.348	28.0362
1.342	27.9507
1.336	27.7988
1.33	27.8054
1.324	27.7828
1.318	27.5892
1.312	27.5916
1.306	27.4551
1.3	27.479
1.294	27.4021
1.288	27.3741
1.282	27.358
1.276	27.2244
1.27	27.2196
1.264	27.1377
1.258	27.1358
1.252	27.0115
1.246	26.911
1.24	26.8816
1.234	26.8169
1.228	26.7649
1.222	26.7371
1.216	26.7012
1.21	26.6615
1.204	26.6545
1.198	26.6042
1.192	26.4604
1.186	26.4294
1.18	26.4564
1.174	26.4355
1.168	26.3835
1.162	26.3481
1.156	26.3948
1.15	26.3321
1.144	26.3581
1.138	26.3972
1.132	26.2608
1.126	26.3682
1.12	26.2433
1.114	26.3606
1.108	26.3943
1.102	26.3096
1.096	26.3098
1.09	26.431
1.084	26.4726
1.078	26.4509
1.072	26.4884
1.066	26.4428
1.06	26.5836
1.054	26.5819
1.048	26.6645
1.042	26.7122
1.036	26.6795
1.03	26.761
1.024	26.8367
1.018	26.8305
1.012	26.834
1.006	26.9206
1	26.9125
0.994	26.9399
0.988	26.9206
0.982	26.8462
0.976	26.8424
0.97	26.8239
0.964	26.758
0.958	26.8332
0.952	26.8871
0.946	26.8781
0.94	26.8816
0.934	26.89
0.928	26.8844
0.922	27.0561
0.916	27.0744
0.91	27.1356
0.904	27.2462
0.898	27.3616
0.892	27.4571
0.886	27.5639
0.88	27.7507
0.874	27.9655
0.868	28.0883
0.862	28.3072
0.856	28.5596
0.85	28.6446
0.844	28.7113
0.838	28.778
0.832	28.8034
0.826	28.863
0.82	28.9046
0.814	28.9188
0.808	28.9554
0.802	28.9511
0.796	28.9629
0.79	28.9493
0.784	28.9529
0.778	28.9437
0.772	28.9169
0.766	28.8882
0.76	28.8439
0.754	28.8143
0.748	28.769
0.742	28.7237
0.736	28.6788
0.73	28.6519
0.724	28.6088
0.718	28.5604
0.712	28.5038
0.706	28.4592
0.7	28.3995
0.694	28.3483
0.688	28.2963
0.682	28.2411
0.676	28.1773
0.67	28.1333
0.664	28.0875
0.658	28.0232
0.652	27.9788
0.646	27.9261
0.64	27.8734
0.634	27.8182
0.628	27.7572
0.622	27.7088
0.616	27.6502
0.61	27.5842
0.604	27.523
0.598	27.4774
0.592	27.4278
0.586	27.3717
0.58	27.3051
0.574	27.2612
0.568	27.2166
0.562	27.1874
0.556	27.0839
0.55	27.0264
0.544	26.9777
0.538	26.9117
0.532	26.8509
0.526	26.7826
0.52	26.7102
0.514	26.6204
0.508	26.5089
0.502	26.4148
0.496	26.2783
0.49	26.1157
0.484	25.9178
0.478	25.857
0.472	25.7801
0.466	25.6987
0.46	25.5996
0.454	25.4488
0.448	25.2584
0.442	25.0387
0.436	24.84
0.43	24.6105
0.424	24.3574
0.418	24.1206
0.412	23.8834
0.406	23.6479
0.4	23.3797
