Name: Granite
Type: rock
Class: Igneous
Subclass: Felsic
Particle Size: Fine
Sample No.: Granite_H2
Owner: JHU
Wavelength Range: All
Origin: From Santa Rita Mountains, Arizona via Smithsonian (Cat. No.NMNH 113640-17)
Description: Powder derived from a gray, medium-grained rock consisting of white feldspar grains, some of which contain red or pinkish cores, quartz, and minor biotite.  Some of the feldspar appears to be perthitic.Particle size was 0-75 micrometers Original ASTER Spectral Library name was jhu.becknic.rock.igneous.felsic.fine.granit2.spectrum.txt
Measurement: Directional (10 degree) hemispherical reflectance
X Units: Wavelength (micrometers)
Y Units: Reflectance (percent)
wavelength	value
14.011	1.92
13.715	2.4787
13.43	2.9147
13.158	2.3049
12.896	2.4517
12.644	1.849
12.402	2.5376
12.169	4.5347
11.945	7.1535
11.729	8.3088
11.52	8.3771
11.319	8.2481
11.125	7.7649
10.937	6.87
10.755	5.9883
10.58	5.0733
10.41	4.4892
10.245	4.1707
10.086	4.1083
9.9313	4.2543
9.7814	4.1161
9.636	4.474
9.4948	4.5975
9.3577	5.7483
9.2245	6.2646
9.095	5.76
8.9691	5.5176
8.8467	5.5392
8.7275	5.4876
8.6116	4.878
8.4986	6.1566
8.3886	6.3527
8.2814	6.5969
8.1769	6.9797
8.075	5.0888
7.9756	3.4114
7.8786	2.2099
7.784	1.7018
7.6916	1.5581
7.6014	1.5138
7.5133	1.7156
7.4272	1.9282
7.343	2.3051
7.2607	2.7996
7.1803	3.4854
7.1016	4.3193
7.0246	4.8229
6.9493	5.302
6.8755	5.6892
6.8034	5.8943
6.7327	5.9325
6.6634	6.5707
6.5956	6.9459
6.5292	7.5114
6.464	9.6488
6.4002	9.9881
6.3376	8.7096
6.2762	7.1852
6.216	6.333
6.157	7.3483
6.099	9.333
6.0421	10.121
5.9863	10.123
5.9315	9.5392
5.8777	11.003
5.8249	12.356
5.773	12.957
5.722	13.198
5.6719	12.501
5.6227	10.776
5.5744	10.33
5.5268	12.022
5.4801	14.451
5.4341	15.375
5.3889	12.476
5.3445	10.657
5.3008	11.478
5.2578	13.846
5.2154	18.111
5.1738	19.715
5.1328	20.18
5.0925	20.648
5.0528	20.143
5.0137	20.279
4.9752	22.324
4.9373	26.039
4.9	30.048
4.8632	35.024
4.827	37.175
4.7913	37.58
4.7561	38.337
4.7215	39.276
4.6873	38.876
4.6536	40.22
4.6205	42.223
4.5877	43.818
4.5555	45.055
4.5237	45.309
4.4923	44.515
4.4614	45.061
4.4309	46.89
4.4008	48.65
4.3711	50.753
4.3418	52.443
4.3129	53.448
4.2844	53.957
4.2563	54.933
4.2285	55.413
4.2011	55.917
4.174	56.48
4.1473	56.967
4.1209	57.411
4.0949	57.841
4.0692	58.109
4.0438	57.938
4.0187	57.308
3.994	56.509
3.9695	56.212
3.9453	57.378
3.9214	58.106
3.8979	58.17
3.8746	58.106
3.8515	58.106
3.8288	58.317
3.8063	58.58
3.7841	58.669
3.7621	58.424
3.7404	58.197
3.7189	58.116
3.6977	58.11
3.6767	58.118
3.656	57.986
3.6355	57.746
3.6152	57.455
3.5951	57.091
3.5753	56.718
3.5557	56.318
3.5363	55.834
3.5171	54.936
3.4981	54.026
3.4793	53.491
3.4607	53.423
3.4423	52.854
3.4241	51.943
3.4061	51.259
3.3883	50.895
3.3707	50.226
3.3533	49.657
3.336	49.284
3.3189	48.634
3.302	47.773
3.2853	46.832
3.2687	45.901
3.2523	44.889
3.2361	43.88
3.22	42.817
3.204	41.707
3.1883	40.569
3.1727	39.442
3.1572	38.303
3.1419	37.211
3.1268	36.139
3.1117	35.171
3.0969	34.303
3.0821	33.527
3.0675	32.937
3.0531	32.227
3.0388	31.705
3.0246	31.038
3.0105	30.413
2.9966	29.794
2.9828	29.184
2.9692	28.537
2.9556	28.091
2.9422	27.961
2.9289	27.861
2.9157	27.992
2.9027	28.245
2.8897	28.619
2.8769	29.073
2.8642	29.536
2.8516	30.022
2.8391	30.495
2.8267	30.911
2.8144	31.222
2.8022	31.187
2.7902	30.717
2.7782	29.45
2.7664	27.5
2.7546	27.656
2.7429	30.527
2.7314	34.56
2.7199	40.886
2.7085	44.175
2.6973	50.665
2.6861	57.167
2.675	59.153
2.664	61.067
2.6531	62.188
2.6423	62.668
2.6315	62.632
2.6209	62.736
2.6103	63.083
2.5999	63.204
2.5895	63.242
2.5792	63.38
2.569	63.267
2.5588	63.479
2.5487	63.493
2.5388	63.555
2.5289	63.553
2.519	63.529
2.5093	63.627
2.4996	63.575
2.49	63.662
2.4805	63.703
2.471	63.818
2.4616	63.815
2.4523	63.841
2.4431	63.845
2.4339	63.93
2.4248	64.06
2.4157	64.077
2.4068	64.217
2.3979	64.222
2.389	64.203
2.3802	64.023
2.3715	64.219
2.3629	64.265
2.3543	64.151
2.3458	64.204
2.3373	64.224
2.3289	64.383
2.3206	64.409
2.3123	64.53
2.3041	64.617
2.2959	64.596
2.2878	64.666
2.2798	64.667
2.2718	64.677
2.2638	64.54
2.2559	64.475
2.2481	64.512
2.2403	64.385
2.2326	64.392
2.225	64.282
2.2173	64.147
2.2098	63.861
2.2023	64.022
2.1948	64.185
2.1874	64.328
2.18	64.489
2.1727	64.579
2.1655	64.643
2.1583	64.855
2.1511	64.803
2.144	64.88
2.1369	64.801
2.1299	64.837
2.1229	64.812
2.116	64.824
2.1091	64.722
2.1023	64.757
2.0955	64.68
2.0887	64.787
2.082	64.771
2.06	64.964
2.028	64.309
1.996	63.211
1.964	61.93
1.932	61.143
1.9	61.575
1.868	62.121
1.836	62.778
1.804	62.258
1.772	62.045
1.74	62.305
1.708	61.982
1.676	61.729
1.644	61.857
1.612	61.335
1.58	60.906
1.548	61.407
1.516	60.953
1.484	60.088
1.452	60.485
1.42	60.088
1.388	60.235
1.356	60.563
1.324	60.125
1.292	60.345
1.26	59.706
1.228	59.964
1.196	59.863
1.164	59.835
1.132	59.923
1.1	59.597
1.068	59.461
1.036	58.906
1.004	59.225
0.972	58.189
0.94	57.785
0.908	57.339
0.876	56.345
0.844	55.959
0.812	55.714
0.795	54.973
0.787	55.176
0.779	55.464
0.771	54.964
0.763	55.373
0.755	54.641
0.747	54.538
0.739	54.937
0.731	54.058
0.723	54.181
0.715	53.59
0.707	53.349
0.699	53.425
0.691	53.38
0.683	52.636
0.675	52.345
0.667	51.897
0.659	51.849
0.651	51.308
0.643	50.855
0.635	51.005
0.627	50.508
0.619	50.108
0.611	49.459
0.603	48.802
0.595	48.274
0.587	47.401
0.579	46.313
0.571	45.218
0.563	43.58
0.555	41.247
0.547	39.898
0.539	38.861
0.531	38.62
0.523	37.613
0.515	37.209
0.507	36.455
0.499	36.069
0.491	35.666
0.483	35.188
0.475	34.375
0.467	34.212
0.459	34.255
0.451	33.802
0.443	33.129
0.435	32.711
0.427	31.669
0.419	30.86
0.411	30.073
0.403	29.805
