Name: Banded Hornfels
Type: rock
Class: Metamorphic
Subclass: Hornfel
Particle Size: Fine
Sample No.: hornfel1
Owner: JHU
Wavelength Range: All
Origin: Sample No. 470, The Hunt and Salisbury Collection at the U.S.Geological Survey, Denver, Co.
Description: This is a fine-grained to microcrystalline sample showing relict bedding.  It consists of a pleochroic greenish brown phase--probably epidote; and cordierite or andalusite.  The latter occur as the coarser grains in veins parallel to the bedding, as well as finer material along with the epidote in the groundmass.  In addition there are scattered grains of calcite and opaques, along with veinlets of carbonaceous material which again parallel the bedding. Particle size was 0-75 Micrometer.   Original ASTER Spectral Library name was jhu.becknic.rock.metamorphic.hornfels.fine.hornfe1.spectrum.txt
Measurement: Directional (10 Degree) Hemispherical Reflectance
X Units: Wavelength (micrometers)
Y Units: Reflectance (percent)
wavelength	value
14.983	0.7415
14.645	1.7818
14.321	2.5368
14.011	2.6682
13.715	2.9981
13.43	3.6427
13.158	3.5527
12.896	3.8897
12.644	4.8235
12.402	6.1196
12.169	6.7507
11.945	6.3514
11.729	5.433
11.52	5.473
11.319	5.1027
11.125	4.8673
10.937	4.5499
10.755	4.1102
10.58	4.064
10.41	3.9821
10.245	3.5783
10.086	3.4137
9.9313	3.8783
9.7814	3.7362
9.636	3.7415
9.4948	3.8421
9.3577	4.4315
9.2245	4.4109
9.095	4.4711
8.9691	4.5263
8.8467	4.1365
8.7275	3.8608
8.6116	3.888
8.4986	4.3086
8.3886	4.8505
8.2814	5.4598
8.1769	6.0199
8.075	6.7881
7.9756	8.0697
7.8786	9.2396
7.784	10.417
7.6916	11.398
7.6014	11.668
7.5133	12.368
7.4272	12.747
7.343	12.168
7.2607	10.951
7.1803	9.9733
7.1016	9.9832
7.0246	9.834
6.9493	9.7405
6.8755	9.8719
6.8034	10.276
6.7327	10.971
6.6634	12.007
6.5956	13.731
6.5292	15.547
6.464	17.426
6.4002	19.008
6.3376	19.652
6.2762	19.864
6.216	20.255
6.157	20.11
6.099	19.793
6.0421	20.776
5.9863	22.534
5.9315	24.937
5.8777	27.188
5.8249	28.156
5.773	28.908
5.722	29.762
5.6719	30.567
5.6227	31.181
5.5744	25.298
5.5268	32.919
5.4801	35.334
5.4341	36.299
5.3889	37.265
5.3445	38.266
5.3008	38.907
5.2578	39.947
5.2154	41.002
5.1738	40.94
5.1328	40.06
5.0925	37.736
5.0528	38.559
5.0137	41.653
4.9752	42.569
4.9373	42.894
4.9	43.473
4.8632	44.727
4.827	46.543
4.7913	48.476
4.7561	49.532
4.7215	51.396
4.6873	52.501
4.6536	53.682
4.6205	56.207
4.5877	58.336
4.5555	60.075
4.5237	61.77
4.4923	62.832
4.4614	63.615
4.4309	64.092
4.4008	64.422
4.3711	64.84
4.3418	65.321
4.3129	65.996
4.2844	66.838
4.2563	67.519
4.2285	68.017
4.2011	68.407
4.174	68.593
4.1473	68.619
4.1209	68.358
4.0949	67.872
4.0692	66.788
4.0438	63.719
4.0187	57.235
3.994	46.964
3.9695	45.095
3.9453	52.062
3.9214	56.255
3.8979	57.262
3.8746	57.707
3.8515	58.204
3.8288	60.776
3.8063	64.631
3.7841	67.58
3.7621	67.891
3.7404	67.756
3.7189	67.562
3.6977	67.22
3.6767	66.846
3.656	66.382
3.6355	65.945
3.6152	65.421
3.5951	64.745
3.5753	63.594
3.5557	62.94
3.5363	61.099
3.5171	55.753
3.4981	52.038
3.4793	49.383
3.4607	53.604
3.4423	54.309
3.4241	53.763
3.4061	53.009
3.3883	52.239
3.3707	51.206
3.3533	49.097
3.336	53.227
3.3189	54.251
3.302	53.628
3.2853	52.769
3.2687	51.753
3.2523	50.656
3.2361	49.579
3.22	48.463
3.204	47.412
3.1883	46.419
3.1727	45.364
3.1572	44.216
3.1419	43.17
3.1268	42.113
3.1117	41.049
3.0969	40.186
3.0821	39.517
3.0675	38.982
3.0531	38.545
3.0388	38.33
3.0246	38.056
3.0105	37.661
2.9966	37.057
2.9828	36.523
2.9692	36.11
2.9556	35.777
2.9422	35.613
2.9289	35.583
2.9157	35.602
2.9027	35.661
2.8897	35.832
2.8769	35.913
2.8642	36.266
2.8516	36.885
2.8391	36.98
2.8267	36.466
2.8144	35.702
2.8022	35.325
2.7902	34.134
2.7782	33.618
2.7664	32.688
2.7546	33.352
2.7429	33.132
2.7314	29.611
2.7199	28.98
2.7085	29.413
2.6973	28.91
2.6861	40.235
2.675	69.002
2.664	72.235
2.6531	72.877
2.6423	73.022
2.6315	73.401
2.6209	73.918
2.6103	74.423
2.5999	74.64
2.5895	74.612
2.5792	74.614
2.569	74.618
2.5588	74.464
2.5487	74.271
2.5388	73.892
2.5289	74.063
2.519	74.253
2.5093	74.347
2.4996	74.376
2.49	74.411
2.4805	74.406
2.471	74.297
2.4616	74.071
2.4523	73.76
2.4431	73.598
2.4339	73.755
2.4248	73.924
2.4157	73.536
2.4068	72.891
2.3979	72.042
2.389	71.244
2.3802	71.199
2.3715	72.191
2.3629	72.926
2.3543	72.407
2.3458	71.105
2.3373	70.004
2.3289	69.522
2.3206	70.554
2.3123	72.373
2.3041	74.117
2.2959	75.206
2.2878	76.169
2.2798	76.992
2.2718	77.155
2.2638	76.766
2.2559	75.351
2.2481	74.308
2.2403	76.079
2.2326	78.472
2.225	79.589
2.2173	80.011
2.2098	80.238
2.2023	80.2
2.1948	80.189
2.1874	80.272
2.18	80.298
2.1727	80.254
2.1655	80.203
2.1583	80.227
2.1511	80.104
2.144	80.11
2.1369	80.101
2.1299	79.917
2.1229	79.904
2.116	79.779
2.1091	79.652
2.1023	79.67
2.0955	79.751
2.0887	79.786
2.082	80.003
2.06	79.951
2.028	78.708
1.996	77.757
1.964	76.025
1.932	75.775
1.9	74.738
1.868	76.524
1.836	75.912
1.804	74.827
1.772	74.054
1.74	72.956
1.708	73.49
1.676	71.997
1.644	71.213
1.612	69.746
1.58	69.004
1.548	67.381
1.516	66.477
1.484	65.506
1.452	63.857
1.42	62.717
1.388	59.219
1.356	59.552
1.324	57.997
1.292	56.389
1.26	55.203
1.228	53.719
1.196	51.838
1.164	50.28
1.132	49.322
1.1	48.798
1.068	48.142
1.036	48.887
1.004	48.452
0.972	47.532
0.94	46.989
0.908	46.114
0.876	45.375
0.844	45.035
0.812	44.461
0.795	45
0.787	44.826
0.779	45.074
0.771	44.501
0.763	44.395
0.755	43.983
0.747	43.641
0.739	43.789
0.731	43.498
0.723	43.066
0.715	43.234
0.707	43.112
0.699	43.251
0.691	43.493
0.683	43.493
0.675	43.508
0.667	43.445
0.659	43.678
0.651	43.616
0.643	44.206
0.635	43.655
0.627	43.479
0.619	43.919
0.611	43.678
0.603	43.577
0.595	43.306
0.587	43.581
0.579	43.168
0.571	43.123
0.563	42.958
0.555	42.698
0.547	42.55
0.539	42.139
0.531	41.587
0.523	41.059
0.515	40.32
0.507	39.741
0.499	39.247
0.491	38.845
0.483	37.864
0.475	37.046
0.467	36.466
0.459	37.195
0.451	36.77
0.443	35.854
0.435	36.024
0.427	35.016
0.419	34.254
0.411	33.686
0.403	33.177
