Name: Diabase
Type: rock
Class: Igneous
Subclass: Mafic
Particle Size: Fine
Sample No.: Diabase_H2
Owner: JHU
Wavelength Range: All
Origin: from Jersey City, Hudson County, New Jersey, via Ward's Scientific(Cat. No. W-33)
Description: Powder derived from medium-grained gray rock consisting of plagioclase, pyroxenes and opaques.Particle size was 0-75 micrometers. Original ASTER Spectral Library name was jhu.becknic.rock.igneous.mafic.fine.diabas2.spectrum.txt
Measurement: Directional (10 degree) hemispherical reflectance
X Units: Wavelength (micrometers)
Y Units: Reflectance (percent)
wavelength	value
14.011	0.8587
13.715	1.2319
13.43	1.7175
13.158	2.0779
12.896	2.5697
12.644	3.4603
12.402	4.3898
12.169	5.159
11.945	4.4524
11.729	4.1574
11.52	4.0556
11.319	3.9052
11.125	3.3914
10.937	3.1017
10.755	3.1847
10.58	3.0618
10.41	3.0935
10.245	2.898
10.086	2.6397
9.9313	2.5603
9.7814	2.753
9.636	2.7546
9.4948	2.8425
9.3577	3.1788
9.2245	3.3229
9.095	3.4315
8.9691	3.393
8.8467	2.7361
8.7275	2.3407
8.6116	2.1663
8.4986	2.4005
8.3886	2.3914
8.2814	2.4891
8.1769	2.3543
8.075	2.2361
7.9756	2.4119
7.8786	2.9532
7.784	3.7092
7.6916	4.7463
7.6014	5.6224
7.5133	6.6337
7.4272	7.6491
7.343	8.6628
7.2607	9.5634
7.1803	10.359
7.1016	11.182
7.0246	11.914
6.9493	12.596
6.8755	13.103
6.8034	13.316
6.7327	13.196
6.6634	13.095
6.5956	13.082
6.5292	13.138
6.464	13.46
6.4002	13.67
6.3376	13.65
6.2762	13.39
6.216	13.331
6.157	13.605
6.099	13.975
6.0421	14.638
5.9863	15.226
5.9315	16.38
5.8777	17.849
5.8249	18.778
5.773	19.621
5.722	20.343
5.6719	20.645
5.6227	20.731
5.5744	21.326
5.5268	21.958
5.4801	22.314
5.4341	22.347
5.3889	22.024
5.3445	21.867
5.3008	21.733
5.2578	22.038
5.2154	22.722
5.1738	23.063
5.1328	23.617
5.0925	24.014
5.0528	24.708
5.0137	25.774
4.9752	26.791
4.9373	27.886
4.9	28.873
4.8632	29.915
4.827	30.919
4.7913	31.915
4.7561	32.817
4.7215	33.907
4.6873	35.015
4.6536	36.141
4.6205	37.331
4.5877	38.364
4.5555	39.282
4.5237	39.878
4.4923	40.362
4.4614	40.714
4.4309	41.124
4.4008	41.575
4.3711	41.975
4.3418	42.32
4.3129	42.833
4.2844	43.283
4.2563	43.383
4.2285	43.842
4.2011	43.868
4.174	44.015
4.1473	44.189
4.1209	44.33
4.0949	44.489
4.0692	44.585
4.0438	44.729
4.0187	44.837
3.994	45.014
3.9695	44.988
3.9453	45.181
3.9214	45.214
3.8979	45.327
3.8746	45.421
3.8515	45.47
3.8288	45.493
3.8063	45.509
3.7841	45.533
3.7621	45.55
3.7404	45.491
3.7189	45.516
3.6977	45.477
3.6767	45.491
3.656	45.349
3.6355	45.442
3.6152	45.369
3.5951	45.389
3.5753	45.213
3.5557	45.202
3.5363	45.076
3.5171	44.962
3.4981	44.744
3.4793	44.726
3.4607	44.574
3.4423	44.401
3.4241	44.182
3.4061	43.933
3.3883	43.777
3.3707	43.623
3.3533	43.496
3.336	43.227
3.3189	42.882
3.302	42.657
3.2853	42.311
3.2687	42.021
3.2523	41.65
3.2361	41.199
3.22	40.756
3.204	40.397
3.1883	39.901
3.1727	39.52
3.1572	39.089
3.1419	38.629
3.1268	38.277
3.1117	37.946
3.0969	37.633
3.0821	37.345
3.0675	37.13
3.0531	36.888
3.0388	36.52
3.0246	36.337
3.0105	35.96
2.9966	35.541
2.9828	34.91
2.9692	34.558
2.9556	34.18
2.9422	34.108
2.9289	33.758
2.9157	33.639
2.9027	33.657
2.8897	33.654
2.8769	33.776
2.8642	33.609
2.8516	33.386
2.8391	33.322
2.8267	33.274
2.8144	33.447
2.8022	34.03
2.7902	34.235
2.7782	34.686
2.7664	35.298
2.7546	36.095
2.7429	36.464
2.7314	37.254
2.7199	39.283
2.7085	44.547
2.6973	45.805
2.6861	47.454
2.675	48.609
2.664	48.93
2.6531	48.899
2.6423	48.792
2.6315	48.874
2.6209	48.778
2.6103	48.611
2.5999	48.382
2.5895	48.164
2.5792	48.12
2.569	47.927
2.5588	47.814
2.5487	47.608
2.5388	47.325
2.5289	47.27
2.519	46.915
2.5093	46.803
2.4996	46.675
2.49	46.497
2.4805	46.137
2.471	46.031
2.4616	45.794
2.4523	45.663
2.4431	45.332
2.4339	44.953
2.4248	44.796
2.4157	44.789
2.4068	44.43
2.3979	44.203
2.389	44.149
2.3802	43.925
2.3715	43.716
2.3629	43.597
2.3543	43.535
2.3458	43.239
2.3373	43.028
2.3289	43.082
2.3206	42.732
2.3123	42.586
2.3041	42.446
2.2959	42.471
2.2878	42.377
2.2798	42.302
2.2718	42.085
2.2638	41.869
2.2559	41.859
2.2481	41.475
2.2403	41.412
2.2326	41.271
2.225	41.156
2.2173	41.137
2.2098	40.917
2.2023	40.723
2.1948	40.91
2.1874	40.732
2.18	40.511
2.1727	40.282
2.1655	40.258
2.1583	40.045
2.1511	39.914
2.144	39.597
2.1369	39.57
2.1299	39.679
2.1229	39.289
2.116	39.33
2.1091	39.158
2.1023	39.061
2.0955	38.758
2.0887	38.728
2.082	38.533
2.06	38.178
2.028	37.597
1.996	37.208
1.964	36.46
1.932	36.119
1.9	36.662
1.868	36.662
1.836	37.352
1.804	37.45
1.772	37.833
1.74	38.777
1.708	39.228
1.676	40.098
1.644	40.852
1.612	41.399
1.58	41.942
1.548	42.864
1.516	42.974
1.484	42.809
1.452	43.723
1.42	43.228
1.388	42.85
1.356	42.804
1.324	42.037
1.292	42.084
1.26	41.357
1.228	40.9
1.196	39.801
1.164	38.861
1.132	38.091
1.1	35.825
1.068	33.449
1.036	31.009
1.004	29.251
0.972	27.558
0.94	26.684
0.908	27.065
0.876	28.018
0.844	29.405
0.812	31.724
0.795	33.612
0.787	33.769
0.779	33.915
0.771	34.368
0.763	34.643
0.755	34.457
0.747	34.493
0.739	34.762
0.731	34.737
0.723	34.788
0.715	34.474
0.707	34.5
0.699	34.292
0.691	34.413
0.683	34.482
0.675	34.408
0.667	33.781
0.659	33.911
0.651	33.927
0.643	33.414
0.635	33.345
0.627	33.566
0.619	33.427
0.611	32.897
0.603	32.947
0.595	32.907
0.587	32.693
0.579	32.452
0.571	32.468
0.563	32.244
0.555	31.47
0.547	31.862
0.539	31.537
0.531	31.056
0.523	31.093
0.515	30.735
0.507	30.1
0.499	29.88
0.491	29.341
0.483	29.097
0.475	28.49
0.467	28.122
0.459	28.744
0.451	27.999
0.443	27.797
0.435	27.554
0.427	26.791
0.419	26.214
0.411	25.818
0.403	24.963
