Name: Tourmaline-Mica Schist
Type: Rock
Class: Metamorphic
Subclass: Schist
Particle Size: Solid
Sample No.: Ward89
Owner: JPL
Wavelength Range: VSWIR
Origin: Ward's Collection of American Rocks.  Sample locality - near Custer, Black Hills, South Dakota.  Collected by - JPL.
Description: A light-colored schistose rock composed of small flakes ofwhite mica, and grains of quartz.  Abundant black prismatic tourmalinecrystals are arranged more or less parallel to the schistosity.Collected by:  Ward's Natural Science Original ASTER Spectral Library name was jpl.perkin.rock.metamorphic.schist.solid.ward89.spectrum.txt
Measurement: Hemispherical reflectance
X Units: Wavelength (micrometers)
Y Units: Reflectance (percent)
wavelength	value
2.5	15.1326
2.494	14.5744
2.488	14.8021
2.482	14.8299
2.476	14.8397
2.47	15.1699
2.464	15.2469
2.458	15.4201
2.452	15.6331
2.446	15.8303
2.44	16.0219
2.434	16.2092
2.428	16.1369
2.422	16.1337
2.416	15.9497
2.41	15.7409
2.404	15.4921
2.398	15.1788
2.392	14.7892
2.386	14.0878
2.38	13.4561
2.374	12.8896
2.368	12.8559
2.362	13.3461
2.356	14.1734
2.35	15.078
2.344	15.9742
2.338	16.5598
2.332	16.9441
2.326	17.3054
2.32	17.5763
2.314	17.4411
2.308	17.0801
2.302	16.5144
2.296	16.6505
2.29	17.6455
2.284	18.8493
2.278	19.5922
2.272	19.4256
2.266	18.8273
2.26	17.8315
2.254	16.8046
2.248	16.1375
2.242	16.4354
2.236	17.1671
2.23	17.7465
2.224	17.5439
2.218	16.8732
2.212	15.9454
2.206	15.1024
2.2	15.226
2.194	16.3662
2.188	17.5693
2.182	17.9928
2.176	17.9652
2.17	18.4409
2.164	19.2579
2.158	19.7793
2.152	19.9895
2.146	20.1038
2.14	20.1605
2.134	20.2435
2.128	20.3023
2.122	20.2631
2.116	20.3174
2.11	20.2229
2.104	20.1659
2.098	20.1104
2.092	20.0552
2.086	19.9762
2.08	19.8884
2.074	19.7442
2.068	19.5766
2.062	19.4669
2.056	19.3525
2.05	19.3571
2.044	19.3313
2.038	19.31
2.032	19.2292
2.026	19.2556
2.02	19.2063
2.014	19.1342
2.008	19.1832
2.002	19.1608
1.996	19.1146
1.99	19.074
1.984	19.0162
1.978	19.0024
1.972	18.9356
1.966	18.7946
1.96	18.6974
1.954	18.7353
1.948	18.5572
1.942	18.5135
1.936	18.3029
1.93	18.297
1.924	18.2215
1.918	18.4158
1.912	18.2315
1.906	18.2116
1.9	18.2019
1.894	17.9317
1.888	17.8468
1.882	17.7068
1.876	17.6087
1.87	17.6108
1.864	17.3691
1.858	17.2522
1.852	17.1839
1.846	17.0997
1.84	16.9142
1.834	16.8703
1.828	16.7291
1.822	16.5542
1.816	16.4308
1.81	16.3078
1.804	16.1478
1.798	16.1097
1.792	15.9706
1.786	15.9156
1.78	15.7844
1.774	15.6617
1.768	15.6061
1.762	15.4779
1.756	15.3723
1.75	15.2516
1.744	15.1694
1.738	15.1089
1.732	14.9973
1.726	14.8487
1.72	14.7716
1.714	14.679
1.708	14.541
1.702	14.4866
1.696	14.348
1.69	14.2467
1.684	14.0039
1.678	13.9764
1.672	13.8642
1.666	13.6923
1.66	13.604
1.654	13.4559
1.648	13.4871
1.642	13.3549
1.636	13.1819
1.63	13.0584
1.624	12.9794
1.618	12.8968
1.612	12.8151
1.606	12.6835
1.6	12.5763
1.594	12.4756
1.588	12.3995
1.582	12.2822
1.576	12.2944
1.57	12.0925
1.564	12.0154
1.558	12.0175
1.552	11.8554
1.546	11.79
1.54	11.7156
1.534	11.6454
1.528	11.5722
1.522	11.44
1.516	11.3278
1.51	11.3122
1.504	11.2633
1.498	11.0917
1.492	11.0545
1.486	10.9331
1.48	10.7808
1.474	10.6895
1.468	10.57
1.462	10.5454
1.456	10.45
1.45	10.265
1.444	9.9468
1.438	9.7611
1.432	9.9305
1.426	10.092
1.42	10.0803
1.414	9.9579
1.408	10.0346
1.402	10.0725
1.396	10.0598
1.39	10.004
1.384	9.9821
1.378	9.9709
1.372	9.8722
1.366	9.8423
1.36	9.7915
1.354	9.752
1.348	9.6975
1.342	9.6679
1.336	9.6004
1.33	9.5684
1.324	9.5299
1.318	9.4532
1.312	9.4539
1.306	9.4917
1.3	9.3537
1.294	9.3006
1.288	9.3504
1.282	9.2696
1.276	9.2309
1.27	9.2651
1.264	9.151
1.258	9.1977
1.252	9.1499
1.246	9.1261
1.24	9.1496
1.234	9.0424
1.228	9.0695
1.222	9.0658
1.216	9.1057
1.21	9.0374
1.204	9.02
1.198	9.0267
1.192	9.0299
1.186	9.0712
1.18	9.0587
1.174	9.0331
1.168	9.0408
1.162	9.0734
1.156	9.1382
1.15	9.1265
1.144	9.1292
1.138	9.213
1.132	9.2419
1.126	9.1649
1.12	9.2553
1.114	9.2317
1.108	9.2549
1.102	9.3027
1.096	9.3412
1.09	9.3411
1.084	9.3194
1.078	9.4478
1.072	9.558
1.066	9.5654
1.06	9.6477
1.054	9.7332
1.048	9.7346
1.042	9.7857
1.036	9.9164
1.03	9.9756
1.024	10.0222
1.018	10.0511
1.012	10.1172
1.006	10.2759
1	10.3113
0.994	10.3997
0.988	10.4755
0.982	10.5673
0.976	10.6099
0.97	10.7119
0.964	10.8235
0.958	10.9178
0.952	10.9911
0.946	11.0252
0.94	11.2017
0.934	11.2625
0.928	11.275
0.922	11.3696
0.916	11.4564
0.91	11.4391
0.904	11.5113
0.898	11.5268
0.892	11.4955
0.886	11.5624
0.88	11.5421
0.874	11.4652
0.868	11.4448
0.862	11.2688
0.856	11.9115
0.85	11.8863
0.844	11.7904
0.838	11.6762
0.832	11.6083
0.826	11.5047
0.82	11.4281
0.814	11.3228
0.808	11.2647
0.802	11.2137
0.796	11.1325
0.79	11.0756
0.784	11.0467
0.778	11.0133
0.772	10.9974
0.766	10.9684
0.76	10.9645
0.754	10.961
0.748	10.9617
0.742	10.9676
0.736	10.9619
0.73	10.9689
0.724	10.9881
0.718	11.0049
0.712	11.0151
0.706	11.0426
0.7	11.0701
0.694	11.1011
0.688	11.1302
0.682	11.1769
0.676	11.2132
0.67	11.2588
0.664	11.2955
0.658	11.3405
0.652	11.3886
0.646	11.4369
0.64	11.4745
0.634	11.4966
0.628	11.5207
0.622	11.5328
0.616	11.5352
0.61	11.5228
0.604	11.4961
0.598	11.4668
0.592	11.4294
0.586	11.3682
0.58	11.306
0.574	11.228
0.568	11.1428
0.562	11.053
0.556	10.9898
0.55	10.9017
0.544	10.8222
0.538	10.7433
0.532	10.6676
0.526	10.5874
0.52	10.4972
0.514	10.4118
0.508	10.3321
0.502	10.269
0.496	10.2264
0.49	10.1908
0.484	10.1462
0.478	10.0855
0.472	10.0214
0.466	9.9718
0.46	9.9376
0.454	9.8958
0.448	9.8433
0.442	9.8107
0.436	9.7747
0.43	9.7552
0.424	9.742
0.418	9.7467
0.412	9.7547
0.406	9.7579
0.4	9.7691
