Name: Rhyolite
Type: Rock
Class: Igneous
Subclass: Felsic
Particle Size: Solid
Sample No.: AP-981-175
Owner: United States Geological Survey, L. C. Rowan
Wavelength Range: All
Origin: Iberian Pyrite Belt, Spain
Description: Rhyolite, paragonitic alteredSample was Whole Rock Chips. Original ASTER Spectral Library name was usgs.perknic.rock.igneous.felsic.solid.rhy175.spectrum.txt
Measurement: Directional Hemispherical Reflectance
X Units: Wavelength (micrometers)
Y Units: Reflectance (percent)
wavelength	value
14.051	2.8325
13.79	3.09
13.538	3.4402
13.295	3.5947
13.06	3.502
12.834	3.6565
12.616	3.5638
12.404	3.1312
12.2	2.9046
12.002	3.0591
11.811	3.5123
11.626	4.1406
11.446	4.6659
11.272	4.9955
11.103	5.7165
10.939	6.1697
10.78	6.1182
10.625	5.6959
10.475	5.9843
10.329	7.3954
10.187	9.4142
10.049	10.6296
9.914	11.7317
9.783	12.9059
9.656	14.9762
9.532	15.2234
9.411	13.9977
9.293	17.3761
9.178	18.5709
9.065	18.0147
8.956	16.9229
8.849	16.3255
8.744	14.2655
8.642	10.1764
8.543	10.7944
8.445	9.3524
8.35	8.0752
8.257	7.9722
8.166	8.2503
8.077	6.5714
7.99	5.1603
7.905	4.017
7.821	3.4814
7.739	3.3372
7.659	3.2445
7.581	3.0488
7.504	2.9149
7.429	2.7501
7.355	2.6162
7.283	2.4926
7.212	2.5338
7.143	2.1733
7.074	1.9879
7.007	1.8849
6.942	1.8849
6.877	2.0188
6.814	2.0806
6.752	2.2557
6.691	2.3587
6.631	2.4102
6.572	2.3999
6.514	2.5441
6.458	2.781
6.402	2.8531
6.347	2.6471
6.293	2.5441
6.24	2.3999
6.188	2.2969
6.137	2.4411
6.086	2.5338
6.037	2.6265
5.988	2.5956
5.94	2.4926
5.893	2.5956
5.846	2.8016
5.8	2.9561
5.755	3.0797
5.711	3.1106
5.667	3.0179
5.624	2.8531
5.582	2.8222
5.54	2.8222
5.499	2.9046
5.459	3.0179
5.419	3.0179
5.379	2.8222
5.341	2.7501
5.302	2.8634
5.265	3.09
5.227	3.502
5.191	3.8213
5.155	3.8831
5.119	4.0479
5.084	3.9861
5.049	3.9861
5.015	3.9861
4.981	4.1818
4.948	4.5526
4.915	4.8204
4.883	5.6135
4.851	6.0255
4.819	6.489
4.788	6.695
4.758	6.9834
4.727	7.2512
4.697	7.3954
4.668	7.6838
4.638	8.2606
4.61	8.9198
4.581	9.3009
4.553	9.5584
4.525	9.579
4.498	9.3009
4.47	9.2288
4.444	9.8571
4.417	10.3
4.391	10.8665
4.365	11.4742
4.34	11.7111
4.314	11.7317
4.289	11.8141
4.265	11.948
4.24	12.257
4.216	12.1952
4.192	12.1849
4.169	12.2982
4.145	12.5042
4.122	12.6278
4.099	12.8338
4.077	13.0295
4.055	13.1016
4.032	13.184
4.011	13.1119
3.989	13.0707
3.968	13.0913
3.947	13.0501
3.926	12.9677
3.905	12.7617
3.884	12.7926
3.864	12.5969
3.844	12.3703
3.824	12.1334
3.805	12.0098
3.785	11.7832
3.766	11.4639
3.747	11.021
3.728	10.6914
3.709	10.4133
3.691	10.1146
3.673	9.8365
3.655	9.6614
3.637	9.1052
3.619	8.755
3.601	8.4666
3.584	7.9413
3.567	7.519
3.549	7.1791
3.533	7.004
3.516	7.0349
3.499	7.0658
3.483	6.7568
3.466	6.7259
3.45	6.4478
3.434	6.2933
3.418	6.1491
3.403	6.0049
3.387	5.6238
3.372	5.4384
3.357	5.1809
3.341	5.0985
3.326	4.9646
3.312	4.8925
3.297	4.7689
3.282	4.8204
3.268	4.8925
3.253	4.8925
3.239	4.8822
3.225	4.9131
3.211	4.9749
3.197	4.7792
3.183	4.8101
3.17	4.8616
3.156	4.8307
3.143	4.8513
3.13	4.6968
3.117	4.7174
3.103	4.7586
3.091	4.5938
3.078	4.5629
3.065	4.6659
3.052	4.5011
3.04	4.5835
3.027	4.4908
3.015	4.532
3.003	4.5732
2.991	4.7689
2.979	4.6968
2.967	4.9028
2.955	5.0985
2.943	5.2324
2.932	5.459
2.92	5.5105
2.909	5.7268
2.897	5.6238
2.886	5.7474
2.875	5.7886
2.864	5.6753
2.853	6.1388
2.842	6.2727
2.831	6.0461
2.82	6.0049
2.809	6.3551
2.799	6.18
2.788	5.4899
2.778	4.1715
2.767	3.5123
2.757	2.9458
2.747	2.7089
2.737	2.5338
2.727	3.0591
2.717	3.5741
2.707	5.9431
2.697	7.21
2.687	10.0013
2.677	12.3703
2.668	13.4827
2.658	13.9771
2.649	15.4088
2.639	15.5324
2.63	15.3779
2.62	15.8208
2.611	15.9444
2.602	16.3667
2.593	17.0156
2.584	17.7572
2.575	17.9426
2.566	17.9838
2.557	18.2619
2.548	19.1168
2.54	19.2507
2.531	19.4773
2.522	18.7151
2.514	18.5194
2.505	17.9014
2.489	17.5353
2.461	16.0353
2.433	15.5353
2.405	17.1353
2.377	19.0353
2.349	18.6353
2.321	19.6353
2.293	23.4353
2.265	27.2353
2.237	26.7353
2.209	21.0353
2.181	16.9353
2.153	25.6353
2.125	27.3353
2.097	29.1353
2.069	30.1353
2.041	31.0353
2.013	31.0353
1.985	30.9353
1.957	31.3353
1.929	31.1353
1.901	31.5353
1.873	35.3353
1.845	35.9353
1.817	35.9353
1.789	36.0353
1.761	36.4353
1.733	36.2353
1.705	36.5353
1.677	36.7353
1.649	36.6353
1.621	36.8353
1.593	36.8353
1.565	37.1353
1.537	36.5353
1.509	37.3353
1.481	37.5353
1.453	36.7353
1.425	35.4353
1.397	27.6353
1.369	37.5353
1.341	38.1353
1.313	38.2353
1.285	38.2353
1.257	37.6353
1.229	37.0353
1.201	36.6353
1.173	36.4353
1.145	36.0353
1.117	35.3353
1.089	33.9353
1.061	33.5353
1.033	33.3353
1.005	32.6353
0.977	32.1353
0.949	31.7353
0.921	31.6353
0.893	31.2353
0.865	31.1353
0.837	31.5353
0.809	32.2353
0.799	32.6353
0.792	32.9353
0.785	33.0353
0.778	33.3353
0.771	33.3353
0.764	33.4353
0.757	33.6353
0.75	33.4353
0.743	33.3353
0.736	33.1353
0.729	32.8353
0.722	32.8353
0.715	32.8353
0.708	32.0353
0.701	31.4353
0.694	31.7353
0.687	31.1353
0.68	30.9353
0.673	31.3353
0.666	30.6353
0.659	30.9353
0.652	30.7353
0.645	30.9353
0.638	30.4353
0.631	30.6353
0.624	30.8353
0.617	30.8353
0.61	30.6353
0.603	30.8353
0.596	30.2353
0.589	30.2353
0.582	29.7353
0.575	29.6353
0.568	29.1353
0.561	29.3353
0.554	28.2353
0.547	26.7353
0.54	25.3353
0.533	23.6353
0.526	22.3353
0.519	20.7353
0.512	19.9353
0.505	18.4353
0.498	17.4353
0.491	16.8353
0.484	16.2353
0.477	16.0353
0.47	16.3353
0.463	16.3353
0.456	15.8353
0.449	16.0353
0.442	14.8353
0.435	14.1353
0.428	13.5353
0.421	12.5353
0.414	11.8353
0.407	11.9353
