Name: Chocolate "Marble" Limestone
Type: Rock
Class: Sedimentary
Subclass: Limestone
Particle Size: Solid
Sample No.: Ward68
Owner: JPL
Wavelength Range: VSWIR
Origin: Ward's Collection of American Rocks.  Sample locality - Knoxville, Knox Coutny, Tennessee.
Description: A brownish, partially crystalline limestone.Geologic age - Ordovician.Collected by:  Ward's Natural Science Original ASTER Spectral Library name was jpl.perkin.rock.sedimentary.limestone.solid.ward68.spectrum.txt
Measurement: Hemispherical reflectance
X Units: Wavelength (micrometers)
Y Units: Reflectance (percent)
wavelength	value
2.5	13.0133
2.494	12.8726
2.488	13.2673
2.482	13.6588
2.476	14.354
2.47	15.1387
2.464	15.8618
2.458	16.637
2.452	17.4237
2.446	17.9975
2.44	18.4817
2.434	18.9552
2.428	19.2443
2.422	19.7366
2.416	20.0155
2.41	20.2033
2.404	20.3572
2.398	20.3896
2.392	20.4441
2.386	20.4633
2.38	20.3013
2.374	19.9821
2.368	19.3096
2.362	18.3602
2.356	17.1244
2.35	15.9155
2.344	14.918
2.338	14.551
2.332	14.6471
2.326	15.0637
2.32	15.6712
2.314	16.1745
2.308	16.4893
2.302	16.8505
2.296	17.0784
2.29	17.4726
2.284	17.9471
2.278	18.5111
2.272	19.0429
2.266	19.5074
2.26	19.9483
2.254	20.2674
2.248	20.5625
2.242	20.8287
2.236	21.068
2.23	21.1884
2.224	21.2921
2.218	21.4051
2.212	21.6526
2.206	21.7153
2.2	21.8033
2.194	21.8254
2.188	21.8077
2.182	21.8854
2.176	21.8392
2.17	21.7913
2.164	21.6558
2.158	21.7835
2.152	21.7794
2.146	21.7695
2.14	22.0011
2.134	21.9909
2.128	22.0573
2.122	21.9624
2.116	21.9043
2.11	21.9354
2.104	21.9053
2.098	21.8372
2.092	21.7853
2.086	21.8664
2.08	21.8483
2.074	21.8643
2.068	21.8706
2.062	21.8733
2.056	21.8139
2.05	21.7657
2.044	21.7818
2.038	21.6672
2.032	21.6622
2.026	21.5098
2.02	21.4363
2.014	21.3069
2.008	21.1398
2.002	20.9359
1.996	20.768
1.99	20.6646
1.984	20.738
1.978	20.7524
1.972	20.6498
1.966	20.566
1.96	20.5913
1.954	20.5498
1.948	20.4426
1.942	20.5343
1.936	20.4131
1.93	20.5213
1.924	20.4219
1.918	20.5317
1.912	20.7428
1.906	20.8321
1.9	21.1247
1.894	21.3353
1.888	21.5307
1.882	21.568
1.876	21.6248
1.87	21.6794
1.864	21.9611
1.858	22.0062
1.852	22.1035
1.846	22.0897
1.84	22.2111
1.834	22.1758
1.828	22.288
1.822	22.2933
1.816	22.2883
1.81	22.3051
1.804	22.3079
1.798	22.3228
1.792	22.3629
1.786	22.2849
1.78	22.2979
1.774	22.308
1.768	22.288
1.762	22.3392
1.756	22.2811
1.75	22.256
1.744	22.3339
1.738	22.3892
1.732	22.3432
1.726	22.319
1.72	22.386
1.714	22.3393
1.708	22.4479
1.702	22.4036
1.696	22.3639
1.69	22.3998
1.684	22.4434
1.678	22.4455
1.672	22.4749
1.666	22.4843
1.66	22.5148
1.654	22.441
1.648	22.4409
1.642	22.5517
1.636	22.4921
1.63	22.4615
1.624	22.5504
1.618	22.4936
1.612	22.4914
1.606	22.5422
1.6	22.5979
1.594	22.5829
1.588	22.6061
1.582	22.582
1.576	22.6212
1.57	22.6136
1.564	22.6152
1.558	22.6931
1.552	22.6993
1.546	22.6886
1.54	22.6804
1.534	22.6941
1.528	22.7417
1.522	22.7307
1.516	22.7389
1.51	22.7085
1.504	22.7318
1.498	22.7762
1.492	22.7871
1.486	22.7853
1.48	22.8064
1.474	22.8362
1.468	22.8702
1.462	22.8438
1.456	22.9697
1.45	22.9441
1.444	22.9708
1.438	22.9802
1.432	23.0579
1.426	23.0856
1.42	23.1388
1.414	23.1688
1.408	23.2849
1.402	23.459
1.396	23.5558
1.39	23.6913
1.384	23.7937
1.378	23.7322
1.372	23.8751
1.366	23.9433
1.36	23.9032
1.354	24.0452
1.348	24.0722
1.342	24.1399
1.336	24.2196
1.33	24.2394
1.324	24.313
1.318	24.3957
1.312	24.4512
1.306	24.4728
1.3	24.5577
1.294	24.6061
1.288	24.7644
1.282	24.728
1.276	24.8717
1.27	24.8569
1.264	24.9102
1.258	25.0215
1.252	25.1056
1.246	25.2166
1.24	25.1899
1.234	25.3565
1.228	25.401
1.222	25.4963
1.216	25.5462
1.21	25.5893
1.204	25.6458
1.198	25.7571
1.192	25.8564
1.186	25.9509
1.18	26.0419
1.174	26.131
1.168	26.2301
1.162	26.3042
1.156	26.3508
1.15	26.4942
1.144	26.5413
1.138	26.7051
1.132	26.7093
1.126	26.8383
1.12	26.9364
1.114	27.0555
1.108	27.1871
1.102	27.288
1.096	27.4044
1.09	27.5325
1.084	27.6554
1.078	27.6924
1.072	27.8528
1.066	28.034
1.06	28.1526
1.054	28.164
1.048	28.4634
1.042	28.4633
1.036	28.6158
1.03	28.732
1.024	28.8335
1.018	28.9071
1.012	29.0598
1.006	29.1588
1	29.2115
0.994	29.2758
0.988	29.2866
0.982	29.389
0.976	29.4236
0.97	29.4317
0.964	29.4364
0.958	29.4788
0.952	29.4936
0.946	29.4388
0.94	29.4521
0.934	29.3523
0.928	29.3746
0.922	29.3263
0.916	29.2664
0.91	29.2246
0.904	29.1172
0.898	29.0943
0.892	29.081
0.886	29.0592
0.88	29.0004
0.874	29.0205
0.868	29.0361
0.862	28.9742
0.856	28.9786
0.85	29.0515
0.844	29.0714
0.838	29.1106
0.832	29.1459
0.826	29.1669
0.82	29.1853
0.814	29.1668
0.808	29.1647
0.802	29.1637
0.796	29.1163
0.79	29.0617
0.784	29.0158
0.778	28.9327
0.772	28.8137
0.766	28.7106
0.76	28.5721
0.754	28.4081
0.748	28.2251
0.742	28.0193
0.736	27.8222
0.73	27.5568
0.724	27.3177
0.718	27.0454
0.712	26.7714
0.706	26.5007
0.7	26.2374
0.694	25.9649
0.688	25.7215
0.682	25.4655
0.676	25.2255
0.67	25
0.664	24.7728
0.658	24.5569
0.652	24.3644
0.646	24.1703
0.64	23.9676
0.634	23.7821
0.628	23.59
0.622	23.3914
0.616	23.1835
0.61	22.9503
0.604	22.6778
0.598	22.3709
0.592	21.9869
0.586	21.5124
0.58	20.9526
0.574	20.3039
0.568	19.6279
0.562	18.9484
0.556	18.2809
0.55	17.7484
0.544	17.3611
0.538	17.0432
0.532	16.8033
0.526	16.6245
0.52	16.4868
0.514	16.3693
0.508	16.2579
0.502	16.1409
0.496	16.011
0.49	15.8728
0.484	15.763
0.478	15.7267
0.472	15.6702
0.466	15.6047
0.46	15.5284
0.454	15.4344
0.448	15.3227
0.442	15.2004
0.436	15.0691
0.43	14.9389
0.424	14.8275
0.418	14.7322
0.412	14.6579
0.406	14.5766
0.4	14.5046
