Name: Basalt
Type: Rock
Class: Igneous
Subclass: Mafic
Particle Size: Solid
Sample No.: Me5
Owner: Lawrence Rowan, USGS Reston
Wavelength Range: All
Origin: Gilat, Middle East
Description: Basalt, weathered, smooth surfaceSample was Whole rock chips.ME5, BASALT, GILAT, WEATHERED SMOOTH SURFACEMeasurement: Directional Hemispherical Reflectance Original ASTER Spectral Library name was usgs.perknic.rock.igneous.mafic.solid.me5.spectrum.txt
Measurement: Hemispherical reflectance
X Units: Wavelength (micrometers)
Y Units: Reflectance (percent)
wavelength	value
14.013	2.4411
13.79	2.7295
13.573	2.7604
13.363	2.7398
13.16	2.8943
12.962	2.9458
12.771	3.1003
12.585	3.1724
12.404	3.3578
12.229	3.5329
12.058	3.9449
11.892	4.2745
11.731	4.7998
11.574	5.2427
11.421	5.6032
11.272	6.0152
11.127	6.2521
10.985	6.6435
10.848	6.7877
10.713	6.901
10.582	7.0452
10.454	7.1688
10.329	7.519
10.207	7.9722
10.088	8.5181
9.972	9.27
9.858	9.8262
9.747	10.3412
9.638	10.815
9.532	10.6193
9.428	9.8365
9.326	8.6932
9.226	7.8074
9.129	7.416
9.034	7.1791
8.94	6.9216
8.849	6.3242
8.759	5.5826
8.671	5.1294
8.585	4.9028
8.501	4.6453
8.418	4.3466
8.337	3.9861
8.257	3.3166
8.179	2.4823
8.102	1.9158
8.027	1.8334
7.953	1.7201
7.881	1.6068
7.809	1.6789
7.739	1.751
7.671	1.751
7.603	1.8025
7.537	1.7922
7.472	2.0085
7.408	2.0291
7.345	2.1012
7.283	2.1012
7.222	2.1115
7.162	2.0497
7.103	2.2557
7.046	2.266
6.989	2.3175
6.932	2.2866
6.877	2.2866
6.823	2.2763
6.77	2.3175
6.717	2.3484
6.665	2.3484
6.614	2.3999
6.564	2.4411
6.514	2.5441
6.466	2.5029
6.418	2.3999
6.37	2.3999
6.324	2.2351
6.278	2.2557
6.233	2.1836
6.188	2.0291
6.144	2.0188
6.101	2.0188
6.058	2.1012
6.016	2.1733
5.974	2.1836
5.933	2.3072
5.893	2.5132
5.853	2.575
5.813	2.7192
5.775	2.8325
5.736	2.9046
5.698	3.0797
5.661	3.0797
5.624	3.1621
5.588	3.2445
5.552	3.1724
5.517	3.3166
5.482	3.4917
5.447	3.5432
5.413	3.5741
5.379	3.7389
5.346	3.811
5.313	3.811
5.281	3.9449
5.249	4.0273
5.217	4.1715
5.186	4.3466
5.155	4.4187
5.124	4.4702
5.094	4.5938
5.064	4.7277
5.035	4.8616
5.005	4.9543
4.977	5.0264
4.948	5.1397
4.92	5.2736
4.892	5.4281
4.865	5.5105
4.837	5.6238
4.81	5.6856
4.784	5.8401
4.758	5.8813
4.731	6.0461
4.706	6.0976
4.68	6.1491
4.655	6.2933
4.63	6.489
4.605	6.6435
4.581	6.8907
4.557	7.0246
4.533	7.21
4.509	7.3336
4.486	7.5499
4.463	7.6529
4.44	7.7559
4.417	7.8898
4.395	8.1267
4.372	8.1988
4.35	8.3636
4.329	8.5593
4.307	8.5181
4.286	8.7447
4.265	8.8786
4.244	8.8889
4.223	9.0949
4.202	9.3112
4.182	9.2494
4.162	9.3421
4.142	9.4554
4.122	9.5584
4.103	9.6202
4.083	9.7335
4.064	9.6408
4.045	9.5687
4.026	9.4554
4.008	9.4451
3.989	9.3421
3.971	9.27
3.953	9.3524
3.935	9.5069
3.917	9.6614
3.899	9.5275
3.882	9.6305
3.864	9.7953
3.847	9.6511
3.83	9.6408
3.813	9.7129
3.796	9.7129
3.78	9.9704
3.763	9.9086
3.747	9.7953
3.731	9.7026
3.715	9.682
3.699	9.682
3.683	9.4451
3.667	9.5378
3.652	9.3627
3.637	9.2391
3.621	9.2288
3.606	9.1773
3.591	8.9713
3.576	8.8889
3.562	8.652
3.547	8.4975
3.533	8.3121
3.518	7.7044
3.504	6.8495
3.49	7.1688
3.476	7.1173
3.462	7.1173
3.448	6.9525
3.434	6.7465
3.421	6.077
3.407	6.077
3.394	6.489
3.381	6.4169
3.367	6.2933
3.354	6.6229
3.341	6.5714
3.329	6.6744
3.316	6.5405
3.303	6.6023
3.291	6.4478
3.278	6.4375
3.266	6.4066
3.253	6.2212
3.241	6.1388
3.229	6.1285
3.217	5.9946
3.205	5.9122
3.193	5.7165
3.182	5.6135
3.17	5.356
3.158	5.4075
3.147	5.3663
3.135	5.3148
3.124	5.0779
3.113	5.0058
3.102	4.9852
3.091	4.7792
3.079	4.7895
3.069	4.8719
3.058	4.6762
3.047	4.8307
3.036	4.7174
3.026	4.8204
3.015	4.7689
3.005	4.7071
2.994	4.4805
2.984	4.4702
2.974	4.5526
2.963	4.532
2.953	4.4393
2.943	4.3775
2.933	4.4084
2.923	4.4084
2.913	4.5011
2.904	4.3569
2.894	4.5114
2.884	4.3775
2.875	4.2642
2.865	4.5938
2.856	4.5526
2.846	4.3981
2.837	4.6247
2.828	4.326
2.818	4.5217
2.809	4.5732
2.8	4.3466
2.791	4.4599
2.782	4.4599
2.773	4.4805
2.764	4.6865
2.756	4.5629
2.747	4.8616
2.738	5.2633
2.729	5.9431
2.721	6.0667
2.712	7.1688
2.704	8.2194
2.695	9.9704
2.687	12.1849
2.679	12.2158
2.67	13.2046
2.662	13.3797
2.654	13.9462
2.646	13.9565
2.638	14.0183
2.63	14.0698
2.622	14.0492
2.614	14.3994
2.606	14.3376
2.598	14.2037
2.59	14.2655
2.583	14.1934
2.575	14.1522
2.567	14.214
2.56	14.4612
2.552	13.802
2.545	14.111
2.537	14.0904
2.53	13.6578
2.522	14.626
2.515	14.1419
2.508	14.3788
2.5	14.1728
2.476	15.1269
2.452	14.9078
2.428	15.3902
2.404	15.3288
2.38	15.9871
2.356	16.1239
2.332	16.2161
2.308	16.1805
2.284	16.2167
2.26	16.5818
2.236	16.7205
2.212	17.0958
2.188	17.5672
2.164	17.8333
2.14	18.1062
2.116	17.9683
2.092	18.0168
2.068	18.2334
2.044	18.4843
2.02	18.55
1.996	18.6208
1.972	18.5707
1.948	18.5008
1.924	18.1098
1.9	18.1799
1.876	19.7061
1.852	20.0888
1.828	20.1701
1.804	20.3482
1.78	20.5435
1.756	20.6114
1.732	20.7013
1.708	20.7225
1.684	20.6959
1.66	20.3661
1.636	20.2562
1.612	20.1091
1.588	19.966
1.564	19.8377
1.54	19.7074
1.516	19.5721
1.492	19.4044
1.468	19.1461
1.444	18.9653
1.42	18.7227
1.396	18.7285
1.372	18.7726
1.348	18.6217
1.324	18.4861
1.3	18.4348
1.276	18.4118
1.252	18.3362
1.228	18.3704
1.204	18.228
1.18	18.2138
1.156	18.1576
1.132	17.9659
1.108	17.8205
1.084	17.6561
1.06	17.6158
1.036	17.6612
1.012	17.7849
0.988	18.0088
0.964	18.3659
0.94	18.8835
0.916	19.5828
0.892	19.8131
0.868	19.9735
0.844	17.9299
0.82	19.198
0.796	19.2461
0.772	19.2163
0.748	19.1736
0.724	19.0123
0.7	18.7638
0.676	18.4287
0.652	18.1185
0.628	17.7925
0.604	17.39
0.58	16.751
0.556	15.7565
0.532	14.7979
0.508	14.0309
0.484	13.2501
0.46	12.8039
0.436	12.0948
0.412	11.3748
