Name: Siliceous Oolite
Type: Rock
Class: Sedimentary
Subclass: Siliceou
Particle Size: Solid
Sample No.: Ward77
Owner: JPL
Wavelength Range: VSWIR
Origin: Ward's Collection of American Rocks.  Sample locality - State College, Center County, Pennsylvania.
Description: A light gray rock consisting of small gray siliceous oolitescemented by a light gray compact silica.Geologic age - Cambrian.Collected by:  Ward's Natural Science Original ASTER Spectral Library name was jpl.perkin.rock.sedimentary.siliceous.solid.ward77.spectrum.txt
Measurement: Hemispherical reflectance
X Units: Wavelength (micrometers)
Y Units: Reflectance (percent)
wavelength	value
2.5	42.6618
2.494	42.5776
2.488	42.9194
2.482	43.205
2.476	43.5323
2.47	43.8916
2.464	44.2793
2.458	44.7222
2.452	45.022
2.446	45.3894
2.44	45.7555
2.434	46.2122
2.428	46.5747
2.422	46.8744
2.416	47.2671
2.41	47.5996
2.404	47.9357
2.398	48.2691
2.392	48.524
2.386	48.8596
2.38	49.127
2.374	49.4366
2.368	49.6355
2.362	49.8973
2.356	50.0119
2.35	50.155
2.344	50.3748
2.338	50.4428
2.332	50.5162
2.326	50.6627
2.32	50.7428
2.314	50.8386
2.308	50.8759
2.302	51.0031
2.296	50.9871
2.29	51.0631
2.284	51.1035
2.278	51.1514
2.272	51.2204
2.266	51.2863
2.26	51.2035
2.254	51.1958
2.248	51.308
2.242	51.2952
2.236	51.3341
2.23	51.3125
2.224	51.3653
2.218	51.3509
2.212	51.479
2.206	51.4679
2.2	51.6778
2.194	51.8481
2.188	52.0618
2.182	52.383
2.176	52.7069
2.17	52.9905
2.164	53.132
2.158	53.3384
2.152	53.3435
2.146	53.4344
2.14	53.3996
2.134	53.3155
2.128	53.1149
2.122	52.9201
2.116	52.6688
2.11	52.3796
2.104	52.0116
2.098	51.8865
2.092	51.7605
2.086	51.6495
2.08	51.523
2.074	51.4088
2.068	51.3024
2.062	51.2039
2.056	50.995
2.05	50.8591
2.044	50.6711
2.038	50.4107
2.032	50.2025
2.026	49.8843
2.02	49.5395
2.014	49.2296
2.008	48.8707
2.002	48.4492
1.996	48.1203
1.99	47.6852
1.984	47.2567
1.978	46.8019
1.972	46.41
1.966	46.0146
1.96	45.6522
1.954	45.4087
1.948	45.0688
1.942	44.9617
1.936	44.856
1.93	44.8237
1.924	44.8781
1.918	45.0432
1.912	45.5684
1.906	46.3557
1.9	47.5336
1.894	48.9114
1.888	50.3107
1.882	51.3738
1.876	52.1342
1.87	52.7065
1.864	52.9299
1.858	53.1589
1.852	53.1658
1.846	53.1559
1.84	53.2204
1.834	53.1235
1.828	53.1191
1.822	53.017
1.816	52.9214
1.81	52.9061
1.804	52.8505
1.798	52.7815
1.792	52.7711
1.786	52.714
1.78	52.6704
1.774	52.6488
1.768	52.603
1.762	52.5897
1.756	52.5378
1.75	52.5299
1.744	52.5222
1.738	52.515
1.732	52.5002
1.726	52.4952
1.72	52.4087
1.714	52.3732
1.708	52.3402
1.702	52.2238
1.696	52.0562
1.69	52.0553
1.684	51.9952
1.678	51.8907
1.672	51.8983
1.666	51.7469
1.66	51.6741
1.654	51.5909
1.648	51.5447
1.642	51.5118
1.636	51.381
1.63	51.3169
1.624	51.1816
1.618	51.1058
1.612	51.0234
1.606	50.9383
1.6	50.8366
1.594	50.7095
1.588	50.6151
1.582	50.4743
1.576	50.4366
1.57	50.246
1.564	50.1969
1.558	50.0956
1.552	49.8828
1.546	49.7849
1.54	49.6578
1.534	49.457
1.528	49.3212
1.522	49.1705
1.516	49.0092
1.51	48.9224
1.504	48.6795
1.498	48.5875
1.492	48.3842
1.486	48.1707
1.48	47.9593
1.474	47.8154
1.468	47.6296
1.462	47.5598
1.456	47.5084
1.45	47.2996
1.444	47.2117
1.438	47.162
1.432	47.0643
1.426	47.0269
1.42	47.0676
1.414	47.0309
1.408	47.1251
1.402	47.2529
1.396	47.4552
1.39	47.5362
1.384	47.5087
1.378	47.5737
1.372	47.4588
1.366	47.4178
1.36	47.2419
1.354	47.204
1.348	47.0931
1.342	46.9355
1.336	46.8751
1.33	46.7515
1.324	46.6252
1.318	46.5695
1.312	46.4004
1.306	46.3146
1.3	46.1566
1.294	46.0745
1.288	45.9081
1.282	45.6973
1.276	45.6696
1.27	45.4419
1.264	45.2932
1.258	45.198
1.252	45.0914
1.246	44.8952
1.24	44.7462
1.234	44.6106
1.228	44.4516
1.222	44.3167
1.216	44.1649
1.21	43.9783
1.204	43.8317
1.198	43.6848
1.192	43.5202
1.186	43.3658
1.18	43.1729
1.174	43.0222
1.168	42.8571
1.162	42.7149
1.156	42.5219
1.15	42.3542
1.144	42.211
1.138	41.971
1.132	41.8133
1.126	41.6197
1.12	41.4776
1.114	41.2615
1.108	41.0508
1.102	40.9445
1.096	40.7592
1.09	40.61
1.084	40.4443
1.078	40.1938
1.072	40.0323
1.066	39.8523
1.06	39.6534
1.054	39.3975
1.048	39.2703
1.042	39.1073
1.036	38.9745
1.03	38.8302
1.024	38.6475
1.018	38.4802
1.012	38.3091
1.006	38.1473
1	37.9735
0.994	37.8274
0.988	37.6677
0.982	37.5311
0.976	37.433
0.97	37.2217
0.964	37.0566
0.958	36.963
0.952	36.8141
0.946	36.6672
0.94	36.5147
0.934	36.4619
0.928	36.3469
0.922	36.221
0.916	36.104
0.91	36.0148
0.904	35.9142
0.898	35.8805
0.892	35.82
0.886	35.7026
0.88	35.6505
0.874	35.5921
0.868	35.5433
0.862	35.5329
0.856	35.3573
0.85	35.3204
0.844	35.1727
0.838	35.0797
0.832	34.9687
0.826	34.8491
0.82	34.7193
0.814	34.5968
0.808	34.4918
0.802	34.3368
0.796	34.1903
0.79	34.0991
0.784	33.949
0.778	33.8084
0.772	33.6324
0.766	33.5025
0.76	33.3262
0.754	33.1833
0.748	33.0121
0.742	32.8517
0.736	32.691
0.73	32.5251
0.724	32.3329
0.718	32.1612
0.712	31.9891
0.706	31.8218
0.7	31.6613
0.694	31.4854
0.688	31.3345
0.682	31.1799
0.676	31.0324
0.67	30.8886
0.664	30.7478
0.658	30.6123
0.652	30.4856
0.646	30.3598
0.64	30.2492
0.634	30.1241
0.628	30.011
0.622	29.8983
0.616	29.7831
0.61	29.6674
0.604	29.5436
0.598	29.4349
0.592	29.3093
0.586	29.1559
0.58	28.9802
0.574	28.7791
0.568	28.5577
0.562	28.2989
0.556	28.0228
0.55	27.7149
0.544	27.3841
0.538	27.0331
0.532	26.6734
0.526	26.3178
0.52	25.967
0.514	25.618
0.508	25.2976
0.502	24.9855
0.496	24.6924
0.49	24.4283
0.484	24.2087
0.478	23.9984
0.472	23.8411
0.466	23.7114
0.46	23.5961
0.454	23.5058
0.448	23.345
0.442	23.0893
0.436	22.7859
0.43	22.4683
0.424	22.1826
0.418	21.9438
0.412	21.7363
0.406	21.5408
0.4	21.3409
