Name: Serpentine Marble
Type: rock
Class: Metamorphic
Subclass: Marble
Particle Size: Fine
Sample No.: marble5
Owner: JHU
Wavelength Range: All
Origin: Sample No. 361, The Hunt and Salisbury Collection at the U.S.Geological Survey, Denver, Co.
Description: A  medium grained sample of anhedral calcite heavily altered to serpentine. Particle size was 0-75 Micrometer. Original ASTER Spectral Library name was jhu.becknic.rock.metamorphic.marble.fine.marble5.spectrum.txt
Measurement: Directional (10 Degree) Hemispherical Reflectance
X Units: Wavelength (micrometers)
Y Units: Reflectance (percent)
wavelength	value
14.983	1.9592
14.645	3.776
14.321	5.4025
14.011	1.8706
13.715	4.217
13.43	7.8957
13.158	9.9846
12.896	10.903
12.644	12.311
12.402	13.63
12.169	14.857
11.945	15.26
11.729	12.002
11.52	7.3991
11.319	4.5504
11.125	10.213
10.937	8.4269
10.755	5.2694
10.58	3.1148
10.41	2.5091
10.245	2.4089
10.086	2.5564
9.9313	2.8032
9.7814	3.1324
9.636	3.6394
9.4948	4.1033
9.3577	3.7959
9.2245	3.5347
9.095	5.5507
8.9691	10.77
8.8467	13.779
8.7275	15.273
8.6116	14.119
8.4986	13.385
8.3886	13.704
8.2814	15.16
8.1769	16.535
8.075	16.711
7.9756	17.445
7.8786	17.055
7.784	16.522
7.6916	15.231
7.6014	13.113
7.5133	11.908
7.4272	10.366
7.343	8.1244
7.2607	5.5465
7.1803	4.1497
7.1016	4.2523
7.0246	4.1658
6.9493	3.731
6.8755	3.6628
6.8034	3.7538
6.7327	4.0263
6.6634	4.4311
6.5956	5.2161
6.5292	6.3441
6.464	7.9385
6.4002	8.4356
6.3376	7.7024
6.2762	6.6813
6.216	6.6365
6.157	6.6687
6.099	7.1059
6.0421	8.3669
5.9863	9.9541
5.9315	11.371
5.8777	12.778
5.8249	13.684
5.773	13.899
5.722	14.841
5.6719	16.595
5.6227	16.66
5.5744	6.1181
5.5268	13.246
5.4801	19.638
5.4341	27.405
5.3889	31.298
5.3445	34.226
5.3008	37.34
5.2578	40.213
5.2154	42.526
5.1738	43.549
5.1328	43.514
5.0925	42.346
5.0528	43.121
5.0137	43.315
4.9752	44.807
4.9373	45.583
4.9	46.471
4.8632	48.096
4.827	48.018
4.7913	47.987
4.7561	49.215
4.7215	48.803
4.6873	44.788
4.6536	44.363
4.6205	48.004
4.5877	50.044
4.5555	51.183
4.5237	51.977
4.4923	53.081
4.4614	54.069
4.4309	54.814
4.4008	55.676
4.3711	56.1
4.3418	55.653
4.3129	55.422
4.2844	55.589
4.2563	55.876
4.2285	55.627
4.2011	55.796
4.174	55.343
4.1473	54.382
4.1209	52.844
4.0949	50.592
4.0692	46.773
4.0438	39.195
4.0187	26.287
3.994	15.368
3.9695	11.892
3.9453	16.68
3.9214	21.616
3.8979	24.299
3.8746	25.485
3.8515	27.451
3.8288	31.205
3.8063	35.836
3.7841	44.212
3.7621	49.063
3.7404	51.913
3.7189	52.527
3.6977	52.482
3.6767	52.552
3.656	52.162
3.6355	51.465
3.6152	50.428
3.5951	49.009
3.5753	46.463
3.5557	44.357
3.5363	39.655
3.5171	30.154
3.4981	23.75
3.4793	19.762
3.4607	23.545
3.4423	25.648
3.4241	26.854
3.4061	26.681
3.3883	26.129
3.3707	25.515
3.3533	22.909
3.336	29.022
3.3189	33.207
3.302	34.349
3.2853	37.36
3.2687	37.613
3.2523	37.413
3.2361	37.016
3.22	36.876
3.204	36.592
3.1883	35.948
3.1727	35.159
3.1572	34.218
3.1419	33.361
3.1268	32.722
3.1117	32.038
3.0969	31.63
3.0821	31.521
3.0675	31.281
3.0531	30.903
3.0388	30.533
3.0246	30.185
3.0105	29.721
2.9966	29.292
2.9828	28.864
2.9692	28.409
2.9556	27.933
2.9422	27.381
2.9289	26.993
2.9157	26.771
2.9027	26.803
2.8897	26.725
2.8769	26.498
2.8642	25.802
2.8516	24.956
2.8391	24.391
2.8267	23.267
2.8144	21.357
2.8022	19.911
2.7902	20.672
2.7782	20.13
2.7664	17.554
2.7546	15.32
2.7429	8.8287
2.7314	8.2836
2.7199	5.955
2.7085	3.7689
2.6973	11.265
2.6861	32.56
2.675	48.713
2.664	58.126
2.6531	60.11
2.6423	63.647
2.6315	65.039
2.6209	65.296
2.6103	64.928
2.5999	64.493
2.5895	63.532
2.5792	62.128
2.569	60.671
2.5588	58.792
2.5487	58.305
2.5388	57.266
2.5289	57.002
2.519	55.81
2.5093	54.75
2.4996	55.916
2.49	58.223
2.4805	59.138
2.471	62.064
2.4616	64.049
2.4523	63.562
2.4431	62.641
2.4339	62.204
2.4248	63.734
2.4157	64.423
2.4068	64.76
2.3979	64.901
2.389	66.07
2.3802	66.467
2.3715	67.246
2.3629	69.1
2.3543	68.171
2.3458	62.355
2.3373	56.502
2.3289	56.559
2.3206	57.059
2.3123	60.867
2.3041	64.141
2.2959	66.373
2.2878	67.782
2.2798	68.437
2.2718	67.671
2.2638	71.252
2.2559	73.771
2.2481	74.034
2.2403	75.009
2.2326	77.846
2.225	80.333
2.2173	81.733
2.2098	82.281
2.2023	82.643
2.1948	82.84
2.1874	82.889
2.18	83.117
2.1727	83.16
2.1655	83.06
2.1583	82.77
2.1511	82.162
2.144	81.212
2.1369	80.233
2.1299	79.411
2.1229	80.397
2.116	80.412
2.1091	80.196
2.1023	80.594
2.0955	80.627
2.0887	81.459
2.082	82.655
2.06	83.971
2.028	81.097
1.996	78.099
1.964	75.914
1.932	75.19
1.9	77.292
1.868	84.185
1.836	87.059
1.804	86.855
1.772	87.028
1.74	87.159
1.708	89.107
1.676	89.175
1.644	88.549
1.612	87.806
1.58	88.65
1.548	87.429
1.516	86.759
1.484	86.351
1.452	84.628
1.42	83.915
1.388	71.061
1.356	84.42
1.324	87.671
1.292	87.671
1.26	87.873
1.228	87.672
1.196	87.104
1.164	86.566
1.132	86.453
1.1	86.747
1.068	85.297
1.036	86.81
1.004	86.13
0.972	85.929
0.94	84.686
0.908	85.381
0.876	84.896
0.844	84.484
0.812	84.407
0.795	84.563
0.787	84.218
0.779	84.613
0.771	84.058
0.763	84.137
0.755	84.579
0.747	84.182
0.739	83.801
0.731	84.098
0.723	83.624
0.715	83.576
0.707	83.433
0.699	84.328
0.691	84.326
0.683	83.525
0.675	84.058
0.667	83.231
0.659	84.404
0.651	83.272
0.643	83.642
0.635	82.449
0.627	82.697
0.619	83.876
0.611	83.292
0.603	82.281
0.595	82.444
0.587	82.683
0.579	83.612
0.571	83.502
0.563	82.97
0.555	82.45
0.547	81.891
0.539	82.44
0.531	81.051
0.523	80.745
0.515	79.998
0.507	79.373
0.499	78.546
0.491	78.14
0.483	77.182
0.475	75.45
0.467	71.913
0.459	69.966
0.451	68.003
0.443	67.461
0.435	67.323
0.427	66.774
0.419	67.806
0.411	67.561
0.403	68.782
