Name: Hypersthene Gabbro (Norite)
Type: Rock
Class: Igneous
Subclass: Mafic
Particle Size: Solid
Sample No.: Ward40
Owner: JPL
Wavelength Range: VSWIR
Origin: Ward's Collection of American Rocks.  Sample locality - Elizabethtown, Essex County, New York.
Description: A brownish-black, granular rock composed of hypersthene,plagioclase, garnet and magnetite.Geologic age - Pre-Cambrian.Collected by:  Ward's Natural Science Original ASTER Spectral Library name was jpl.perkin.rock.igneous.mafic.solid.ward40.spectrum.txt
Measurement: Hemispherical reflectance
X Units: Wavelength (micrometers)
Y Units: Reflectance (percent)
wavelength	value
2.5	6.7551
2.494	6.496
2.488	6.5328
2.482	6.5008
2.476	6.5531
2.47	6.4375
2.464	6.579
2.458	6.5349
2.452	6.4927
2.446	6.4221
2.44	6.5088
2.434	6.4415
2.428	6.4965
2.422	6.4973
2.416	6.5133
2.41	6.4157
2.404	6.4326
2.398	6.4457
2.392	6.4844
2.386	6.4259
2.38	6.4723
2.374	6.4023
2.368	6.4203
2.362	6.4187
2.356	6.4005
2.35	6.4361
2.344	6.403
2.338	6.3537
2.332	6.3503
2.326	6.3316
2.32	6.2889
2.314	6.358
2.308	6.3497
2.302	6.3892
2.296	6.3927
2.29	6.4263
2.284	6.4113
2.278	6.4484
2.272	6.4048
2.266	6.3826
2.26	6.4487
2.254	6.3374
2.248	6.3568
2.242	6.3084
2.236	6.3802
2.23	6.401
2.224	6.2969
2.218	6.2918
2.212	6.4975
2.206	6.4287
2.2	6.287
2.194	6.3836
2.188	6.4222
2.182	6.4157
2.176	6.4292
2.17	6.3848
2.164	6.4033
2.158	6.3581
2.152	6.4345
2.146	6.3933
2.14	6.3769
2.134	6.314
2.128	6.2914
2.122	6.299
2.116	6.2394
2.11	6.1472
2.104	6.087
2.098	6.1495
2.092	6.0798
2.086	6.1292
2.08	6.103
2.074	6.0897
2.068	6.129
2.062	6.1267
2.056	6.1006
2.05	6.0768
2.044	6.0439
2.038	6.1232
2.032	6.0727
2.026	6.0581
2.02	6.1008
2.014	6.1256
2.008	6.1131
2.002	6.0807
1.996	6.1548
1.99	6.0966
1.984	6.206
1.978	6.1034
1.972	6.1409
1.966	6.1606
1.96	6.1447
1.954	6.2246
1.948	6.3169
1.942	6.3612
1.936	6.3015
1.93	6.3998
1.924	6.2215
1.918	6.3293
1.912	6.2453
1.906	6.2564
1.9	6.2505
1.894	6.2518
1.888	6.1397
1.882	6.1857
1.876	6.2919
1.87	6.1605
1.864	6.2125
1.858	6.2304
1.852	6.2227
1.846	6.1622
1.84	6.223
1.834	6.2013
1.828	6.1853
1.822	6.2177
1.816	6.1826
1.81	6.208
1.804	6.148
1.798	6.1561
1.792	6.2243
1.786	6.3156
1.78	6.3069
1.774	6.2916
1.768	6.2982
1.762	6.2942
1.756	6.2357
1.75	6.3521
1.744	6.3352
1.738	6.359
1.732	6.378
1.726	6.4108
1.72	6.4214
1.714	6.4029
1.708	6.4652
1.702	6.4147
1.696	6.4455
1.69	6.4639
1.684	6.4892
1.678	6.5081
1.672	6.4352
1.666	6.5109
1.66	6.5652
1.654	6.5056
1.648	6.5399
1.642	6.6788
1.636	6.5209
1.63	6.5934
1.624	6.6731
1.618	6.5884
1.612	6.6702
1.606	6.7941
1.6	6.8428
1.594	6.8133
1.588	6.8268
1.582	6.8212
1.576	6.8964
1.57	6.988
1.564	6.9605
1.558	7.0538
1.552	6.9948
1.546	7.0499
1.54	7.1283
1.534	7.1031
1.528	7.0793
1.522	7.1113
1.516	7.2179
1.51	7.1795
1.504	7.2168
1.498	7.2287
1.492	7.2878
1.486	7.2648
1.48	7.2732
1.474	7.2761
1.468	7.277
1.462	7.3123
1.456	7.3203
1.45	7.317
1.444	7.3654
1.438	7.3432
1.432	7.3207
1.426	7.326
1.42	7.3286
1.414	7.2847
1.408	7.2995
1.402	7.269
1.396	7.3303
1.39	7.2815
1.384	7.3055
1.378	7.3066
1.372	7.2513
1.366	7.305
1.36	7.2227
1.354	7.2643
1.348	7.215
1.342	7.1878
1.336	7.2225
1.33	7.1963
1.324	7.1181
1.318	7.1442
1.312	7.0971
1.306	7.1259
1.3	7.08
1.294	7.0398
1.288	7.1164
1.282	7.0311
1.276	7.0586
1.27	6.9622
1.264	6.9872
1.258	6.9314
1.252	6.9725
1.246	6.9101
1.24	6.9228
1.234	6.8984
1.228	6.8587
1.222	6.8645
1.216	6.87
1.21	6.8802
1.204	6.8544
1.198	6.8162
1.192	6.8139
1.186	6.86
1.18	6.8684
1.174	6.7661
1.168	6.8901
1.162	6.8058
1.156	6.7776
1.15	6.7633
1.144	6.8266
1.138	6.7756
1.132	6.7339
1.126	6.7972
1.12	6.6944
1.114	6.757
1.108	6.7441
1.102	6.7719
1.096	6.6988
1.09	6.7471
1.084	6.7282
1.078	6.734
1.072	6.7592
1.066	6.7047
1.06	6.649
1.054	6.7278
1.048	6.6319
1.042	6.7808
1.036	6.7969
1.03	6.7022
1.024	6.7128
1.018	6.7512
1.012	6.7236
1.006	6.7641
1	6.6676
0.994	6.7602
0.988	6.7409
0.982	6.768
0.976	6.6757
0.97	6.7489
0.964	6.7418
0.958	6.7635
0.952	6.809
0.946	6.8212
0.94	6.8334
0.934	6.8545
0.928	6.8285
0.922	6.8916
0.916	6.8827
0.91	6.9359
0.904	6.9569
0.898	6.9993
0.892	7.0601
0.886	7.1357
0.88	7.1446
0.874	7.1609
0.868	7.2663
0.862	7.2072
0.856	7.0137
0.85	7.0323
0.844	7.0658
0.838	7.0874
0.832	7.102
0.826	7.1103
0.82	7.1208
0.814	7.1343
0.808	7.1292
0.802	7.1267
0.796	7.1191
0.79	7.1081
0.784	7.0998
0.778	7.0866
0.772	7.0667
0.766	7.0497
0.76	7.0355
0.754	7.0182
0.748	6.9923
0.742	6.9759
0.736	6.9565
0.73	6.937
0.724	6.9174
0.718	6.8914
0.712	6.881
0.706	6.8581
0.7	6.8482
0.694	6.8355
0.688	6.8281
0.682	6.8197
0.676	6.8157
0.67	6.812
0.664	6.8086
0.658	6.811
0.652	6.8142
0.646	6.8091
0.64	6.8108
0.634	6.805
0.628	6.805
0.622	6.8039
0.616	6.8041
0.61	6.803
0.604	6.8032
0.598	6.807
0.592	6.8037
0.586	6.798
0.58	6.788
0.574	6.7804
0.568	6.7796
0.562	6.7809
0.556	6.7309
0.55	6.7158
0.544	6.7076
0.538	6.6907
0.532	6.6723
0.526	6.6532
0.52	6.622
0.514	6.5757
0.508	6.5102
0.502	6.4377
0.496	6.3603
0.49	6.2736
0.484	6.1608
0.478	6.1644
0.472	6.1385
0.466	6.1185
0.46	6.0942
0.454	6.0524
0.448	5.9898
0.442	5.9043
0.436	5.8236
0.43	5.7324
0.424	5.6497
0.418	5.5786
0.412	5.5236
0.406	5.4824
0.4	5.4465
