Name: Rhyolite
Type: Rock
Class: Igneous
Subclass: Felsic
Particle Size: Solid
Sample No.: AP-937-200
Owner: United States Geological Survey, L. C. Rowan
Wavelength Range: All
Origin: Iberian Pyrite Belt, Spain
Description: Rhyolite, light tan, alteredSample was Whole Rock Chips. Original ASTER Spectral Library name was usgs.perknic.rock.igneous.felsic.solid.rhy200.spectrum.txt
Measurement: Directional Hemispherical Reflectance
X Units: Wavelength (micrometers)
Y Units: Reflectance (percent)
wavelength	value
14.051	2.1218
13.79	2.3896
13.538	2.7295
13.295	2.8943
13.06	3.09
12.834	3.605
12.616	3.5844
12.404	3.4917
12.2	3.4196
12.002	3.6977
11.811	4.1509
11.626	4.6453
11.446	5.2118
11.272	5.5929
11.103	6.5611
10.939	6.9937
10.78	5.6753
10.625	5.4899
10.475	6.0564
10.329	7.5087
10.187	9.5275
10.049	11.9789
9.914	14.8835
9.783	14.6775
9.656	19.57
9.532	21.9699
9.411	21.8875
9.293	20.0644
9.178	17.3452
9.065	13.4827
8.956	11.7317
8.849	14.2243
8.744	11.8862
8.642	8.4151
8.543	7.5396
8.445	6.8598
8.35	6.4581
8.257	6.489
8.166	6.5302
8.077	5.0573
7.99	3.6874
7.905	2.5853
7.821	2.0394
7.739	1.8849
7.659	1.6995
7.581	1.5965
7.504	1.4523
7.429	1.5862
7.355	1.4832
7.283	1.4935
7.212	1.5347
7.143	1.5965
7.074	1.648
7.007	1.5862
6.942	1.6789
6.877	1.7716
6.814	1.8334
6.752	1.8849
6.691	2.0394
6.631	1.9673
6.572	2.1115
6.514	2.1218
6.458	2.2351
6.402	2.1527
6.347	2.2145
6.293	2.1115
6.24	2.1115
6.188	2.0085
6.137	1.8952
6.086	1.9261
6.037	1.8643
5.988	1.9879
5.94	2.0394
5.893	2.1527
5.846	2.5235
5.8	2.6471
5.755	2.7913
5.711	2.8943
5.667	2.987
5.624	2.9046
5.582	2.9252
5.54	3.0591
5.499	3.0591
5.459	3.1209
5.419	3.09
5.379	3.0591
5.341	3.09
5.302	3.1415
5.265	3.3578
5.227	3.5432
5.191	3.7389
5.155	3.811
5.119	3.8831
5.084	3.9964
5.049	3.9449
5.015	4.1406
4.981	4.3054
4.948	4.6247
4.915	4.8513
4.883	5.6753
4.851	6.3654
4.819	6.7465
4.788	7.1997
4.758	7.4263
4.727	7.5602
4.697	7.5293
4.668	7.5396
4.638	8.1061
4.61	8.5284
4.581	8.9198
4.553	9.2597
4.525	9.1979
4.498	8.6932
4.47	8.549
4.444	9.0537
4.417	9.5378
4.391	10.1558
4.365	10.9798
4.34	11.8038
4.314	12.1746
4.289	12.3497
4.265	12.5763
4.24	13.2973
4.216	13.4518
4.192	13.7505
4.169	14.1934
4.145	14.7702
4.122	15.2234
4.099	15.8517
4.077	16.2843
4.055	16.7066
4.032	16.8714
4.011	17.0362
3.989	17.304
3.968	17.5203
3.947	18.0456
3.926	18.231
3.905	18.4988
3.884	18.2516
3.864	18.2207
3.844	18.0559
3.824	18.1692
3.805	18.0868
3.785	17.922
3.766	17.3246
3.747	16.9847
3.728	16.5624
3.709	16.4285
3.691	16.1607
3.673	16.0783
3.655	15.9032
3.637	15.5015
3.619	14.9968
3.601	14.3582
3.584	13.802
3.567	13.1531
3.549	12.4424
3.533	11.7214
3.516	11.0931
3.499	10.6605
3.483	10.3824
3.466	10.1558
3.45	9.7541
3.434	9.2185
3.418	8.5799
3.403	8.4666
3.387	7.9825
3.372	7.9516
3.357	7.725
3.341	7.416
3.326	7.004
3.312	6.6332
3.297	6.4581
3.282	6.2727
3.268	6.0667
3.253	5.8298
3.239	5.6856
3.225	5.3354
3.211	5.2118
3.197	5.047
3.183	4.6247
3.17	4.5835
3.156	4.5011
3.143	4.3569
3.13	4.1818
3.117	4.017
3.103	4.0582
3.091	3.8625
3.078	3.9243
3.065	3.9037
3.052	3.7801
3.04	3.7389
3.027	3.708
3.015	3.5741
3.003	3.8007
2.991	3.6565
2.979	3.6256
2.967	3.4814
2.955	3.3681
2.943	3.6565
2.932	3.4711
2.92	3.4814
2.909	3.4814
2.897	3.5432
2.886	3.5741
2.875	3.4711
2.864	3.5432
2.853	3.7286
2.842	3.5432
2.831	3.8316
2.82	3.8522
2.809	3.6359
2.799	3.6771
2.788	3.399
2.778	3.3372
2.767	3.4196
2.757	2.6883
2.747	2.6471
2.737	2.3587
2.727	2.9664
2.717	3.4093
2.707	3.708
2.697	4.4805
2.687	7.519
2.677	10.5575
2.668	12.7411
2.658	15.1616
2.649	16.4182
2.639	17.0877
2.63	17.51
2.62	18.5915
2.611	19.1065
2.602	18.9932
2.593	19.3537
2.584	19.9717
2.575	20.2395
2.566	20.6721
2.557	21.6403
2.548	21.6197
2.54	22.0008
2.531	21.9802
2.522	22.1038
2.514	22.5776
2.505	22.6394
2.489	22.7454
2.461	22.9454
2.433	24.3454
2.405	27.1454
2.377	28.7454
2.349	29.3454
2.321	31.0454
2.293	35.3454
2.265	38.4454
2.237	35.7454
2.209	29.6454
2.181	33.1454
2.153	37.8454
2.125	39.4454
2.097	41.4454
2.069	43.1454
2.041	42.6454
2.013	40.8454
1.985	38.7454
1.957	36.8454
1.929	34.5454
1.901	34.6454
1.873	50.0454
1.845	57.0454
1.817	58.3454
1.789	58.6454
1.761	59.8454
1.733	60.0454
1.705	60.0454
1.677	60.4454
1.649	60.2454
1.621	60.0454
1.593	59.4454
1.565	58.7454
1.537	56.9454
1.509	56.7454
1.481	54.3454
1.453	52.8454
1.425	48.6454
1.397	44.3454
1.369	57.5454
1.341	58.7454
1.313	59.1454
1.285	58.7454
1.257	57.2454
1.229	56.0454
1.201	55.2454
1.173	54.2454
1.145	52.8454
1.117	50.5454
1.089	49.2454
1.061	48.6454
1.033	47.3454
1.005	46.6454
0.977	45.8454
0.949	44.9454
0.921	44.4454
0.893	43.7454
0.865	43.9454
0.837	44.2454
0.809	45.0454
0.799	44.6454
0.792	45.0454
0.785	45.0454
0.778	45.0454
0.771	44.7454
0.764	44.7454
0.757	44.7454
0.75	44.4454
0.743	44.4454
0.736	44.0454
0.729	43.4454
0.722	43.1454
0.715	42.8454
0.708	42.5454
0.701	41.4454
0.694	41.4454
0.687	40.8454
0.68	40.7454
0.673	40.3454
0.666	40.2454
0.659	40.2454
0.652	39.9454
0.645	39.9454
0.638	39.4454
0.631	39.4454
0.624	39.1454
0.617	39.4454
0.61	39.1454
0.603	38.8454
0.596	37.9454
0.589	37.4454
0.582	36.9454
0.575	35.9454
0.568	34.7454
0.561	32.4454
0.554	30.3454
0.547	29.1454
0.54	28.0454
0.533	26.3454
0.526	25.6454
0.519	23.9454
0.512	23.1454
0.505	22.5454
0.498	21.8454
0.491	21.3454
0.484	21.0454
0.477	21.0454
0.47	21.0454
0.463	22.0454
0.456	21.8454
0.449	21.9454
0.442	21.4454
0.435	20.7454
0.428	20.4454
0.421	20.1454
0.414	19.8454
0.407	19.8454
