Name: Basalt
Type: Rock
Class: Igneous
Subclass: Mafic
Particle Size: Solid
Sample No.: Me28b
Owner: Lawrence Rowan, USGS Reston
Wavelength Range: All
Origin: Q. Ata, Middle East
Description: Basalt, cut surface, basalt bowl base fragmentSample was Whole rock chips. Original ASTER Spectral Library name was usgs.perknic.rock.igneous.mafic.solid.me28b.spectrum.txt
Measurement: Directional Hemispherical Reflectance
X Units: Wavelength (micrometers)
Y Units: Reflectance (percent)
wavelength	value
14.051	2.9664
13.826	3.0385
13.609	3.0694
13.398	3.2342
13.193	3.3166
12.995	3.3166
12.802	3.4093
12.616	3.5226
12.434	3.7183
12.258	4.2539
12.086	4.7895
11.92	5.0985
11.757	5.7165
11.6	6.4375
11.446	7.1482
11.297	8.0546
11.151	8.4151
11.009	8.8889
10.87	9.0125
10.735	8.9095
10.604	8.4872
10.475	8.4254
10.35	8.446
10.227	8.2091
10.108	8.1164
9.991	8.3945
9.877	8.4975
9.765	8.4151
9.656	8.3018
9.549	7.9516
9.445	7.519
9.343	7.3748
9.243	7.21
9.145	7.107
9.049	7.1379
8.956	7.0246
8.864	6.489
8.774	5.8813
8.686	5.7371
8.599	5.5517
8.515	5.4899
8.431	5.2633
8.35	4.841
8.27	3.8728
8.192	2.6265
8.115	2.0394
8.039	1.6686
7.965	1.5759
7.893	1.6377
7.821	1.6171
7.751	1.6686
7.682	1.854
7.614	1.8746
7.548	1.9055
7.483	2.0394
7.418	2.1527
7.355	2.2969
7.293	2.1939
7.232	2.2557
7.172	2.3999
7.113	2.5235
7.055	2.6162
6.998	2.6162
6.942	2.781
6.886	2.7192
6.832	2.8016
6.778	2.8943
6.726	2.9458
6.674	2.987
6.623	3.0488
6.572	3.1106
6.523	3.0282
6.474	3.1724
6.426	3.09
6.378	3.09
6.332	3.0797
6.286	3.1003
6.24	3.0797
6.195	2.9561
6.151	2.987
6.108	3.1209
6.065	3.0591
6.023	3.0694
5.981	3.2239
5.94	3.2136
5.899	3.3784
5.859	3.4917
5.82	3.6874
5.781	3.7389
5.743	3.7595
5.705	3.8728
5.667	3.9346
5.63	3.9655
5.594	4.0479
5.558	3.9552
5.523	4.2642
5.487	4.1715
5.453	4.2642
5.419	4.4496
5.385	4.4805
5.352	4.4908
5.319	4.6144
5.286	4.6762
5.254	4.7689
5.222	4.8513
5.191	4.9234
5.16	5.0264
5.129	5.15
5.099	5.2015
5.069	5.3972
5.04	5.4178
5.01	5.459
4.981	5.6753
4.953	5.768
4.925	5.8504
4.897	5.9019
4.869	6.0461
4.842	6.077
4.815	6.1594
4.788	6.3036
4.762	6.3448
4.736	6.4993
4.71	6.5508
4.684	6.6744
4.659	6.8804
4.634	6.9525
4.61	7.1173
4.585	7.2512
4.561	7.2924
4.537	7.6117
4.513	7.725
4.49	7.7353
4.467	8.0031
4.444	7.9825
4.421	8.1885
4.398	8.3842
4.376	8.4666
4.354	8.5387
4.332	8.6726
4.311	8.7756
4.289	8.9816
4.268	8.9816
4.247	9.1361
4.226	9.3215
4.206	9.3936
4.185	9.3833
4.165	9.5069
4.145	9.6202
4.126	9.5893
4.106	9.7953
4.086	9.8365
4.067	9.9086
4.048	9.9807
4.029	9.991
4.011	10.094
3.992	10.094
3.974	10.0837
3.956	10.1867
3.938	10.1867
3.92	10.3
3.902	10.3309
3.884	10.4133
3.867	10.5369
3.85	10.5781
3.833	10.6914
3.816	10.5266
3.799	10.6399
3.782	10.6502
3.766	10.4957
3.75	10.5266
3.733	10.4442
3.717	10.4545
3.702	10.506
3.686	10.3412
3.67	10.3721
3.655	10.403
3.639	10.2279
3.624	10.0734
3.609	10.094
3.594	10.0219
3.579	9.8983
3.564	9.7541
3.549	9.7541
3.535	9.7232
3.521	9.3524
3.506	9.3627
3.492	9.2391
3.478	9.167
3.464	9.1052
3.45	8.9404
3.437	8.961
3.423	8.755
3.409	8.6005
3.396	8.4975
3.383	8.4666
3.37	8.3636
3.357	8.3224
3.344	8.1885
3.331	8.2606
3.318	8.1782
3.305	8.1473
3.293	8.0546
3.28	7.8795
3.268	7.9413
3.255	7.7971
3.243	7.7559
3.231	7.7662
3.219	7.519
3.207	7.6323
3.195	7.5087
3.183	7.4778
3.172	7.2306
3.16	7.3027
3.149	7.2718
3.137	7.2615
3.126	7.0967
3.115	7.1894
3.103	6.7877
3.092	7.0864
3.081	7.0143
3.07	7.1688
3.06	6.8598
3.049	6.8804
3.038	6.9422
3.027	7.0143
3.017	7.1379
3.006	7.004
2.996	7.0864
2.986	6.9628
2.975	7.107
2.965	6.7877
2.955	6.9113
2.945	6.8186
2.935	6.8392
2.925	6.9113
2.915	7.0143
2.905	6.9525
2.896	7.004
2.886	7.0349
2.876	7.107
2.867	7.004
2.857	7.21
2.848	7.2821
2.838	7.2821
2.829	7.4366
2.82	7.2203
2.811	7.4263
2.802	7.5602
2.793	7.8383
2.784	7.8383
2.775	8.1473
2.766	7.7868
2.757	8.4357
2.748	8.446
2.74	9.4657
2.731	9.5069
2.722	10.1455
2.714	10.8871
2.705	12.1025
2.697	12.9883
2.688	13.7505
2.68	14.5436
2.672	14.9865
2.664	15.5736
2.655	15.2852
2.647	15.3676
2.639	15.8208
2.631	15.7075
2.623	16.0886
2.615	15.6766
2.607	16.0886
2.599	15.4912
2.592	16.0062
2.584	16.1092
2.576	15.965
2.569	16.0474
2.561	15.9444
2.553	16.3255
2.546	15.9547
2.538	15.6457
2.531	16.3255
2.524	16.2431
2.516	15.3882
2.509	15.9444
2.502	16.0371
2.48	16.3463
2.456	16.7238
2.432	16.3191
2.408	16.2985
2.384	16.9811
2.36	17.0263
2.336	16.9712
2.312	17.275
2.288	17.3082
2.264	17.178
2.24	17.543
2.216	17.5094
2.192	17.861
2.168	18.1273
2.144	18.3898
2.12	18.3319
2.096	18.231
2.072	18.4304
2.048	18.5926
2.024	18.7203
2	18.7795
1.976	18.8884
1.952	18.8558
1.928	18.4402
1.904	18.259
1.88	19.1493
1.856	19.3166
1.832	19.4091
1.808	19.4602
1.784	19.6279
1.76	19.6591
1.736	19.6409
1.712	19.71
1.688	19.906
1.664	20.1312
1.64	20.2524
1.616	20.2798
1.592	20.282
1.568	20.2184
1.544	20.139
1.52	20.0971
1.496	19.9774
1.472	19.8212
1.448	19.7294
1.424	19.5804
1.4	19.5162
1.376	19.5121
1.352	19.3513
1.328	19.4359
1.304	19.4486
1.28	19.3599
1.256	19.3781
1.232	19.3635
1.208	19.3673
1.184	19.3119
1.16	19.3521
1.136	19.274
1.112	19.1894
1.088	19.0761
1.064	18.9814
1.04	18.9894
1.016	19.0819
0.992	19.2111
0.968	19.2758
0.944	19.4097
0.92	19.7719
0.896	20.1355
0.872	20.4661
0.848	21.4429
0.824	21.8144
0.8	21.9021
0.776	22.0274
0.752	22.1123
0.728	22.0816
0.704	21.991
0.68	21.784
0.656	21.588
0.632	21.453
0.608	21.2442
0.584	20.797
0.56	20.0873
0.536	19.4993
0.512	19.0599
0.488	18.5952
0.464	18.437
0.44	17.9592
0.416	17.495
