Name: Quartz Conglomerate
Type: Rock
Class: Sedimentary
Subclass: Conglomerate
Particle Size: Solid
Sample No.: Ward48
Owner: JPL
Wavelength Range: All
Origin: Ward's Collection of American Rocks.  Sample locality - Nanticoke, Luzerne County, Pennsylvania.
Description: The gray hand specimen consists of subangular to roundepebbles of milky quartz of varying size with coarser sand grains fillingthe interstices between the large pebbles.  The cement is silica.Geologic age - Pennsylvanian.Collected by:  Ward's Natural Science Original ASTER Spectral Library name was jpl.nicolet.rock.sedimentary.conglomerate.solid.ward48.spectrum.txt
Measurement: Hemispherical reflectance
X Units: Wavelength (micrometers)
Y Units: Reflectance (percent)
wavelength	value
15.3871	4.2401
15.118	5.4673
14.8581	5.5836
14.6069	6.6651
14.3642	6.7075
14.1293	5.8158
13.9021	6.2942
13.682	7.4773
13.4687	7.9038
13.2621	9.0251
13.0616	11.263
12.8672	17.7274
12.6784	14.0634
12.4951	17.9543
12.317	2.1874
12.1439	3.1666
11.9757	4.3109
11.812	5.3969
11.6527	6.376
11.4977	7.1549
11.3468	7.1421
11.1997	7.9532
11.0564	8.4344
10.9168	8.7288
10.7806	9.208
10.6478	10.3627
10.5182	10.3078
10.3917	11.5551
10.2683	11.817
10.1477	13.2463
10.0299	14.53
9.9148	16.809
9.8024	18.5129
9.6925	21.8016
9.585	26.1326
9.4798	33.3419
9.377	49.6487
9.2763	60.2661
9.1778	61.4471
9.0814	60.8146
8.987	59.9639
8.8945	59.6452
8.8039	57.2931
8.7151	53.601
8.6281	38.021
8.5428	54.2862
8.4592	55.6777
8.3772	55.1361
8.2967	54.5915
8.2179	52.55
8.1404	42.8592
8.0645	26.9708
7.9899	16.4846
7.9167	9.7413
7.8449	6.0954
7.7743	3.7825
7.705	2.1799
7.6369	1.6095
7.57	1.2032
7.5043	1.1064
7.4397	0.764
7.3762	0.6533
7.3138	0.7539
7.2524	0.6711
7.1921	0.8392
7.1327	1.0317
7.0743	0.9008
7.0169	1.0599
6.9604	1.2414
6.9047	1.2589
6.85	1.2588
6.7962	1.4259
6.7431	1.4324
6.6909	1.5603
6.6395	1.4959
6.5889	1.8285
6.539	1.7024
6.49	1.8936
6.4416	1.9422
6.3939	1.6458
6.347	2.1807
6.3007	1.7189
6.2551	2.0722
6.2101	1.9113
6.1658	1.903
6.1222	2.1486
6.0791	2.4644
6.0366	2.0232
5.9948	2.0951
5.9535	2.1423
5.9127	2.0706
5.8726	2.2231
5.8329	2.7395
5.7938	2.6087
5.7552	2.3772
5.7172	2.8646
5.6796	2.8538
5.6425	2.8211
5.6059	2.5741
5.5698	2.4145
5.5341	2.774
5.4989	2.7701
5.4641	3.0656
5.4298	2.9818
5.3959	2.8377
5.3624	2.8511
5.3294	2.5796
5.2967	2.6616
5.2644	2.8483
5.2326	3.1464
5.2011	3.1658
5.17	3.2005
5.1392	3.3537
5.1088	3.2747
5.0788	3.2068
5.0491	3.3645
5.0198	3.1191
4.9908	3.4737
4.9622	3.6511
4.9338	3.7665
4.9058	4.308
4.8781	4.962
4.8508	5.6054
4.8237	5.833
4.7969	6.1448
4.7704	6.7312
4.7443	6.8517
4.7184	6.9346
4.6927	6.5226
4.6674	6.6969
4.6423	7.5806
4.6175	8.3095
4.593	8.5156
4.5687	8.4058
4.5447	8.1715
4.5209	7.3839
4.4974	6.6542
4.4741	6.642
4.451	6.6703
4.4282	7.0562
4.4057	7.4947
4.3833	7.9573
4.3612	8.7485
4.3393	8.9848
4.3176	9.1846
4.2962	8.7711
4.2749	8.4581
4.2539	8.935
4.233	9.6446
4.2124	9.8261
4.192	10.1313
4.1717	10.4311
4.1517	10.9141
4.1319	10.9354
4.1122	11.3013
4.0927	11.6086
4.0734	12.0328
4.0543	12.1668
4.0354	12.0447
4.0166	11.8225
3.9981	11.8946
3.9796	12.3671
3.9614	13.0198
3.9433	13.3433
3.9254	13.3771
3.9077	13.4506
3.8901	13.0399
3.8726	12.9293
3.8554	12.9354
3.8382	12.8997
3.8213	13.4864
3.8045	13.4783
3.7878	13.3195
3.7713	12.5692
3.7549	12.7662
3.7386	12.1648
3.7225	12.8968
3.7066	12.6686
3.6907	13.1423
3.675	13.6868
3.6595	13.7123
3.644	13.9649
3.6287	13.9959
3.6136	13.5008
3.5985	13.5105
3.5836	13.2948
3.5688	13.4603
3.5541	13.3813
3.5396	13.3681
3.5251	12.929
3.5108	12.7878
3.4966	12.6016
3.4825	12.56
3.4685	12.3558
3.4547	12.079
3.4409	11.7513
3.4273	11.5908
3.4137	11.3417
3.4003	11.1286
3.387	10.7123
3.3738	10.8789
3.3606	10.589
3.3476	10.3243
3.3347	9.7744
3.3219	9.6615
3.3092	9.3269
3.2965	9.3561
3.284	8.7924
3.2716	8.3984
3.2593	8.7616
3.247	8.2091
3.2348	8.3871
3.2228	8.2389
3.2108	7.6265
3.1989	7.6543
3.1871	7.0119
3.1754	7.3846
3.1638	7.6473
3.1523	6.8726
3.1408	6.8951
3.1294	5.8965
3.1181	7.4005
3.1069	6.4129
3.0958	6.5954
3.0848	7.2552
3.0738	5.7557
3.0629	6.635
3.0521	6.241
3.0413	6.3647
3.0307	6.0482
3.0201	6.066
3.0096	6.7536
2.9991	7.0931
2.9887	6.0072
2.9784	6.409
2.9682	5.4207
2.9581	5.7012
2.948	6.4433
2.9379	6.1149
2.928	6.8246
2.9181	5.4939
2.9083	7.0029
2.8985	5.863
2.8888	6.528
2.8792	6.149
2.8697	6.0515
2.8602	6.1356
2.8507	7.8302
2.8413	6.3711
2.832	6.8592
2.8228	7.4364
2.8136	6.9356
2.8045	7.5254
2.7954	8.0812
2.7864	7.8068
2.7774	8.401
2.7685	8.1733
2.7597	7.3069
2.7509	8.3542
2.7422	9.28
2.7335	9.8076
2.7249	10.5461
2.7163	11.5208
2.7078	14.1868
2.6994	14.895
2.691	16.2211
2.6826	18.9483
2.6743	20.3605
2.666	21.9623
2.6578	22.5345
2.6497	23.5307
2.6416	23.5523
2.6336	24.6854
2.6256	24.6621
2.6176	25.8544
2.6097	25.6217
2.6018	26.1859
2.594	26.1676
2.5863	26.0682
2.5785	26.7149
2.5709	27.4748
2.5633	27.7135
2.5557	29.0337
2.5481	28.4748
2.5406	27.9562
2.5332	28.7052
2.5258	27.7616
2.5184	28.2897
2.5111	28.9112
2.5038	28.8882
2.4966	28.5195
2.4894	28.6195
2.4823	29.0377
2.4752	29.3814
2.4681	30.2632
2.4611	30.1499
2.4541	30.4158
2.4471	31.7851
2.4402	30.2776
2.4333	30.8835
2.4265	32.8928
2.4197	32.5899
2.413	31.8825
2.4063	33.6479
2.3996	32.5264
2.3929	32.0991
2.3863	32.5374
2.3798	32.818
2.3732	33.0008
2.3667	33.2677
2.3603	34.089
2.3538	33.3284
2.3474	34.1984
2.3411	34.9743
2.3347	34.7245
2.3285	36.4348
2.3222	35.2435
2.316	35.5256
2.3098	36.6857
2.3036	36.8832
2.2975	36.3746
2.2914	37.7256
2.2854	38.0744
2.2793	39.4554
2.2733	39.168
2.2674	38.0909
2.2614	37.3563
2.2555	39.28
2.2497	38.9963
2.2438	39.927
2.238	39.0646
2.2322	39.0769
2.2265	37.8268
2.2208	36.8949
2.2151	35.8918
2.2094	33.3122
2.2038	35.8759
2.1982	36.0738
2.1926	34.8371
2.187	36.6069
2.1815	33.6654
2.176	34.6682
2.1706	35.0033
2.1651	36.4109
2.1597	38.5604
2.1543	38.6661
2.149	38.0928
2.1436	40.2625
2.1383	41.4605
2.1331	39.3503
2.1278	42.1752
2.1226	40.9231
2.1174	39.1986
2.1122	39.9702
2.1071	41.9154
2.1019	42.1016
2.0968	40.8494
2.0918	40.4467
2.0867	40.1939
2.0817	40.5356
2.0767	40.2588
2.0717	41.0367
2.0667	41.2878
2.0618	39.2358
2.0569	41.6833
2.052	42.2604
2.0472	42.5416
2.0423	37.5714
2.0375	41.7273
2.0327	41.9375
2.028	41.884
2.0232	40.1607
2.0185	40.3975
2.0138	39.7403
2.0091	40.7341
2.0044	40.1892
1.9998	38.1224
