Name: Basalt
Type: Rock
Class: Igneous
Subclass: Mafic
Particle Size: Solid
Sample No.: Me17
Owner: Lawrence Rowan, USGS Reston
Wavelength Range: All
Origin: Small T. Malhata, Middle East
Description: Basalt fragment from vessel wall, smooth weatheredsurfaceSample was Whole rock chips. Original ASTER Spectral Library name was usgs.perknic.rock.igneous.mafic.solid.me17.spectrum.txt
Measurement: Directional Hemispherical Reflectance
X Units: Wavelength (micrometers)
Y Units: Reflectance (percent)
wavelength	value
14.051	2.8737
13.826	2.7707
13.609	2.884
13.398	3.0591
13.193	3.0282
12.995	2.9973
12.802	3.0282
12.616	3.2342
12.434	3.3578
12.258	3.6668
12.086	3.9964
11.92	4.1303
11.757	4.4702
11.6	5.2015
11.446	6.2727
11.297	5.974
11.151	6.1388
11.009	6.18
10.87	6.3036
10.735	6.386
10.604	6.3757
10.475	6.4581
10.35	6.489
10.227	6.5302
10.108	6.7568
9.991	7.0658
9.877	7.5499
9.765	7.3954
9.656	7.5808
9.549	7.6117
9.445	7.3954
9.343	7.0967
9.243	6.4375
9.145	6.4993
9.049	6.3963
8.956	6.5405
8.864	6.18
8.774	5.8916
8.686	5.665
8.599	5.5311
8.515	5.5929
8.431	5.5826
8.35	5.5208
8.27	5.5002
8.192	5.0161
8.115	4.5526
8.039	4.223
7.965	4.2024
7.893	4.0891
7.821	4.1406
7.751	4.0994
7.682	4.0788
7.614	4.0479
7.548	3.9552
7.483	4.0582
7.418	3.9552
7.355	3.9346
7.293	3.5638
7.232	3.3784
7.172	3.3681
7.113	3.6256
7.055	3.708
6.998	3.6153
6.942	3.502
6.886	3.4814
6.832	3.502
6.778	3.5741
6.726	3.502
6.674	3.5638
6.623	3.6668
6.572	3.8316
6.523	4.0685
6.474	4.0685
6.426	4.1921
6.378	3.7595
6.332	3.1518
6.286	2.8428
6.24	2.7192
6.195	2.6368
6.151	2.4926
6.108	2.4926
6.065	2.4205
6.023	2.3999
5.981	2.5029
5.94	2.5544
5.899	2.6883
5.859	2.8634
5.82	2.9561
5.781	3.0591
5.743	3.1003
5.705	3.1827
5.667	3.3269
5.63	3.3578
5.594	3.1312
5.558	2.8325
5.523	3.3681
5.487	3.7286
5.453	3.914
5.419	4.0891
5.385	4.1921
5.352	4.2951
5.319	4.3981
5.286	4.5217
5.254	4.6453
5.222	4.841
5.191	4.9749
5.16	5.0058
5.129	5.1706
5.099	5.1912
5.069	5.3766
5.04	5.459
5.01	5.6444
4.981	5.7886
4.953	5.8916
4.925	6.0461
4.897	6.1697
4.869	6.2624
4.842	6.4066
4.815	6.5611
4.788	6.6847
4.762	6.8289
4.736	6.8289
4.71	6.8083
4.684	6.8289
4.659	7.0658
4.634	7.2924
4.61	7.5087
4.585	7.6426
4.561	7.931
4.537	8.0546
4.513	8.2297
4.49	8.446
4.467	8.4666
4.444	8.6417
4.421	8.9095
4.398	9.0537
4.376	9.1258
4.354	9.2906
4.332	9.4966
4.311	9.5481
4.289	9.6099
4.268	9.6408
4.247	9.9807
4.226	9.9086
4.206	10.1867
4.185	10.094
4.165	10.3103
4.145	10.3927
4.126	10.506
4.106	10.403
4.086	10.3721
4.067	10.3515
4.048	9.9807
4.029	9.3112
4.011	8.6623
3.992	7.931
3.974	7.6323
3.956	7.7044
3.938	8.4975
3.92	9.0228
3.902	9.1567
3.884	9.3936
3.867	9.3524
3.85	9.5172
3.833	9.5893
3.816	10.0734
3.799	10.3515
3.782	10.9283
3.766	10.9592
3.75	10.9695
3.733	11.1034
3.717	11.124
3.702	11.2167
3.686	10.9695
3.67	10.9386
3.655	10.9695
3.639	10.7841
3.624	10.7841
3.609	10.7841
3.594	10.5266
3.579	10.2382
3.564	10.1146
3.549	9.9086
3.535	9.6099
3.521	8.8477
3.506	7.8692
3.492	7.7971
3.478	7.5808
3.464	7.931
3.45	8.0031
3.437	7.6941
3.423	7.1379
3.409	7.1173
3.396	7.4469
3.383	7.4675
3.37	7.4984
3.357	7.5602
3.344	7.7147
3.331	8.0134
3.318	8.1782
3.305	8.0649
3.293	8.0958
3.28	8.034
3.268	7.7971
3.255	7.8177
3.243	7.6838
3.231	7.6941
3.219	7.4366
3.207	7.2924
3.195	7.3027
3.183	7.1791
3.172	6.8083
3.16	7.0555
3.149	6.7877
3.137	6.5714
3.126	6.4993
3.115	6.4272
3.103	6.4272
3.092	6.3757
3.081	6.283
3.07	6.2418
3.06	6.2624
3.049	6.0873
3.038	6.1182
3.027	6.0049
3.017	6.0152
3.006	5.8298
2.996	5.7474
2.986	5.8195
2.975	5.8092
2.965	5.974
2.955	5.8916
2.945	5.8092
2.935	5.7371
2.925	5.9122
2.915	5.8401
2.905	5.8092
2.896	5.9431
2.886	6.1491
2.876	6.0049
2.867	5.8607
2.857	6.3551
2.848	6.1079
2.838	6.1903
2.829	5.8298
2.82	5.9843
2.811	5.768
2.802	5.9431
2.793	5.665
2.784	5.6341
2.775	5.5414
2.766	5.7165
2.757	5.8607
2.748	6.0049
2.74	6.7568
2.731	7.4675
2.722	8.446
2.714	8.6726
2.705	8.1267
2.697	10.4648
2.688	13.3591
2.68	14.7187
2.672	15.5221
2.664	15.9547
2.655	16.3152
2.647	16.5624
2.639	16.377
2.631	16.583
2.623	16.2946
2.615	16.995
2.607	16.6448
2.599	17.0156
2.592	16.8302
2.584	16.6757
2.576	16.9023
2.569	16.6448
2.561	16.789
2.553	16.8302
2.546	16.7581
2.538	16.2225
2.531	16.9744
2.524	16.2534
2.516	16.9332
2.509	16.5212
2.502	16.8714
2.48	16.464
2.456	17.0228
2.432	17.3005
2.408	17.6139
2.384	17.6776
2.36	17.9039
2.336	18.329
2.312	18.3242
2.288	18.3772
2.264	18.511
2.24	18.8128
2.216	19.1064
2.192	19.3581
2.168	19.876
2.144	20.206
2.12	20.2378
2.096	20.1892
2.072	20.5689
2.048	20.8388
2.024	20.9414
2	21.1035
1.976	21.2115
1.952	21.2717
1.928	21.1605
1.904	20.9011
1.88	22.2049
1.856	22.5866
1.832	22.7577
1.808	22.9382
1.784	23.2179
1.76	23.3286
1.736	23.4298
1.712	23.5517
1.688	23.759
1.664	23.8688
1.64	23.9565
1.616	23.9348
1.592	23.9368
1.568	23.841
1.544	23.7927
1.52	23.6531
1.496	23.4894
1.472	23.3766
1.448	23.1968
1.424	23.0289
1.4	23.0016
1.376	23.1219
1.352	22.9338
1.328	23.0543
1.304	23.0539
1.28	23.0829
1.256	23.1371
1.232	23.2213
1.208	23.2412
1.184	23.248
1.16	23.269
1.136	23.2678
1.112	23.1678
1.088	23.0636
1.064	23.0573
1.04	23.2179
1.016	23.431
0.992	23.7558
0.968	24.274
0.944	24.7984
0.92	25.5718
0.896	26.2056
0.872	26.5275
0.848	26.9798
0.824	27.2558
0.8	27.5493
0.776	27.7235
0.752	27.8704
0.728	27.9673
0.704	27.9362
0.68	27.9256
0.656	27.7729
0.632	27.7218
0.608	27.5727
0.584	27.1789
0.56	26.2692
0.536	24.9881
0.512	23.7797
0.488	22.6276
0.464	21.8383
0.44	20.5699
0.416	18.8863
