Name: Basalt
Type: Rock
Class: Igneous
Subclass: Mafic
Particle Size: Solid
Sample No.: Ward35
Owner: JPL
Wavelength Range: VSWIR
Origin: Ward's Collection of American Rocks.  Sample locality - Chimney Rock, Somerset County, New Jersey.
Description: A greenish-black rock with aphanitic texture, and occasionalred bands due to iron oxide stain.Geologic Age - Upper Triassic.Collected by:  Ward's Natural Science Original ASTER Spectral Library name was jpl.perkin.rock.igneous.mafic.solid.ward35.spectrum.txt
Measurement: Hemispherical reflectance
X Units: Wavelength (micrometers)
Y Units: Reflectance (percent)
wavelength	value
2.5	3.454
2.494	3.8414
2.488	3.5041
2.482	3.677
2.476	3.7699
2.47	3.841
2.464	3.5673
2.458	3.7405
2.452	3.8245
2.446	3.6667
2.44	3.6897
2.434	3.7786
2.428	3.7702
2.422	3.8234
2.416	3.7056
2.41	3.7642
2.404	3.6786
2.398	3.7448
2.392	3.761
2.386	3.7269
2.38	3.7239
2.374	3.7025
2.368	3.7505
2.362	3.7557
2.356	3.7077
2.35	3.6957
2.344	3.7197
2.338	3.7444
2.332	3.7684
2.326	3.7034
2.32	3.7075
2.314	3.7242
2.308	3.6907
2.302	3.6912
2.296	3.6625
2.29	3.7464
2.284	3.8048
2.278	3.7799
2.272	3.7686
2.266	3.7567
2.26	3.653
2.254	3.761
2.248	3.7658
2.242	3.8184
2.236	3.7125
2.23	3.724
2.224	3.7162
2.218	3.8215
2.212	3.8564
2.206	3.7749
2.2	3.762
2.194	3.8165
2.188	3.8251
2.182	3.8506
2.176	3.7766
2.17	3.9153
2.164	3.9057
2.158	3.8411
2.152	3.8848
2.146	3.8928
2.14	3.9255
2.134	3.9691
2.128	4.007
2.122	3.9357
2.116	3.9295
2.11	3.9631
2.104	3.9199
2.098	3.8612
2.092	3.9655
2.086	3.985
2.08	3.9375
2.074	3.9259
2.068	3.9426
2.062	4.0007
2.056	4.0482
2.05	3.9845
2.044	4.0212
2.038	4.044
2.032	4.0413
2.026	4.0867
2.02	4.0226
2.014	4.1058
2.008	4.1271
2.002	4.0637
1.996	4.0823
1.99	4.1075
1.984	4.0827
1.978	4.0437
1.972	4.1081
1.966	4.0818
1.96	4.0612
1.954	4.0613
1.948	4.1396
1.942	4.1618
1.936	4.0816
1.93	4.1461
1.924	4.0475
1.918	4.0742
1.912	4.061
1.906	4.1159
1.9	4.1607
1.894	4.2081
1.888	4.2925
1.882	4.297
1.876	4.3023
1.87	4.2395
1.864	4.3506
1.858	4.3496
1.852	4.406
1.846	4.3234
1.84	4.3498
1.834	4.4328
1.828	4.4395
1.822	4.4431
1.816	4.4416
1.81	4.4294
1.804	4.4252
1.798	4.4784
1.792	4.4036
1.786	4.5124
1.78	4.413
1.774	4.4761
1.768	4.5171
1.762	4.4487
1.756	4.4981
1.75	4.5197
1.744	4.5131
1.738	4.5116
1.732	4.5168
1.726	4.5016
1.72	4.5999
1.714	4.5112
1.708	4.5345
1.702	4.5912
1.696	4.5653
1.69	4.5223
1.684	4.5441
1.678	4.6141
1.672	4.4886
1.666	4.5285
1.66	4.649
1.654	4.5957
1.648	4.6603
1.642	4.6795
1.636	4.6252
1.63	4.6893
1.624	4.6956
1.618	4.701
1.612	4.7424
1.606	4.7652
1.6	4.6434
1.594	4.7738
1.588	4.672
1.582	4.7438
1.576	4.7512
1.57	4.7232
1.564	4.7712
1.558	4.7889
1.552	4.7805
1.546	4.7922
1.54	4.7912
1.534	4.767
1.528	4.8413
1.522	4.806
1.516	4.8509
1.51	4.8287
1.504	4.8536
1.498	4.8262
1.492	4.8474
1.486	4.8435
1.48	4.8681
1.474	4.7854
1.468	4.766
1.462	4.7628
1.456	4.8445
1.45	4.8788
1.444	4.8487
1.438	4.9007
1.432	4.8631
1.426	4.8392
1.42	4.9208
1.414	4.8747
1.408	4.9341
1.402	4.9176
1.396	4.9637
1.39	4.9975
1.384	5.0043
1.378	4.9401
1.372	4.953
1.366	5.0119
1.36	4.9086
1.354	5.0754
1.348	4.9776
1.342	4.9294
1.336	4.9592
1.33	4.9731
1.324	4.9691
1.318	4.9885
1.312	4.9452
1.306	4.9337
1.3	5.0232
1.294	4.8696
1.288	4.9644
1.282	5.008
1.276	4.9193
1.27	4.9216
1.264	4.9729
1.258	4.9184
1.252	4.9997
1.246	4.9506
1.24	4.9757
1.234	4.9272
1.228	4.9491
1.222	4.9525
1.216	4.9203
1.21	4.8705
1.204	4.9127
1.198	4.9436
1.192	4.9012
1.186	4.962
1.18	4.8839
1.174	4.9304
1.168	4.9107
1.162	4.8807
1.156	4.927
1.15	4.8924
1.144	4.8747
1.138	4.8384
1.132	4.8392
1.126	4.8845
1.12	4.8884
1.114	4.81
1.108	4.8231
1.102	4.7462
1.096	4.6638
1.09	4.8226
1.084	4.6298
1.078	4.7629
1.072	4.7696
1.066	4.632
1.06	4.6556
1.054	4.7199
1.048	4.7313
1.042	4.6891
1.036	4.6694
1.03	4.6924
1.024	4.6775
1.018	4.6955
1.012	4.6504
1.006	4.659
1	4.6953
0.994	4.8118
0.988	4.7427
0.982	4.7904
0.976	4.7768
0.97	4.7678
0.964	4.8382
0.958	4.8078
0.952	4.9434
0.946	4.9327
0.94	4.9468
0.934	4.9559
0.928	4.9581
0.922	4.959
0.916	5.1125
0.91	5.1662
0.904	5.1444
0.898	5.2416
0.892	5.2229
0.886	5.3103
0.88	5.3994
0.874	5.423
0.868	5.4663
0.862	5.4875
0.856	5.7358
0.85	5.771
0.844	5.8254
0.838	5.8607
0.832	5.9085
0.826	5.9487
0.82	5.9884
0.814	6.0156
0.808	6.04
0.802	6.0615
0.796	6.0675
0.79	6.0815
0.784	6.084
0.778	6.0805
0.772	6.0707
0.766	6.0713
0.76	6.0593
0.754	6.0439
0.748	6.0337
0.742	6.0164
0.736	5.9994
0.73	5.9797
0.724	5.9642
0.718	5.9417
0.712	5.9214
0.706	5.9009
0.7	5.8806
0.694	5.8572
0.688	5.8373
0.682	5.8196
0.676	5.7987
0.67	5.7753
0.664	5.7549
0.658	5.7369
0.652	5.7209
0.646	5.7039
0.64	5.6868
0.634	5.6726
0.628	5.6597
0.622	5.652
0.616	5.6409
0.61	5.6338
0.604	5.6247
0.598	5.6201
0.592	5.6182
0.586	5.607
0.58	5.5932
0.574	5.5796
0.568	5.5563
0.562	5.5313
0.556	5.4884
0.55	5.4449
0.544	5.3967
0.538	5.3395
0.532	5.2732
0.526	5.2017
0.52	5.1298
0.514	5.0558
0.508	4.9846
0.502	4.9364
0.496	4.8978
0.49	4.8709
0.484	4.8591
0.478	4.8607
0.472	4.8616
0.466	4.8601
0.46	4.8532
0.454	4.8341
0.448	4.8115
0.442	4.7829
0.436	4.7581
0.43	4.7336
0.424	4.725
0.418	4.7316
0.412	4.7488
0.406	4.7687
0.4	4.785
