Name: Quartz-Sericite Schist
Type: Rock
Class: Metamorphic
Subclass: Schist
Particle Size: Solid
Sample No.: Ward90
Owner: JPL
Wavelength Range: VSWIR
Origin: Ward's Collection of American Rocks.  Sample locality - Edge Hill, Montgomery County, Pennsylvania.  Collected by - JPL.
Description: A thinly laminated rock consisting principally of quartzwith a small amount of white mica and a few black specks of a metallicmineral.  Geologic age - CambrianCollected by:  Ward's Natural Science Original ASTER Spectral Library name was jpl.perkin.rock.metamorphic.schist.solid.ward90.spectrum.txt
Measurement: Hemispherical reflectance
X Units: Wavelength (micrometers)
Y Units: Reflectance (percent)
wavelength	value
2.5	44.9478
2.494	44.823
2.488	44.5996
2.482	44.7791
2.476	44.823
2.47	44.8208
2.464	44.6471
2.458	44.5093
2.452	44.4624
2.446	44.5415
2.44	44.7272
2.434	45.4211
2.428	46.2142
2.422	47.0461
2.416	47.7069
2.41	48.0889
2.404	48.2226
2.398	48.1168
2.392	47.6846
2.386	47.3033
2.38	47.1812
2.374	47.4307
2.368	47.9805
2.362	48.3094
2.356	48.6299
2.35	49.0289
2.344	49.7117
2.338	50.6038
2.332	51.7864
2.326	52.8466
2.32	54.1915
2.314	55.4937
2.308	56.7335
2.302	57.9138
2.296	58.5322
2.29	58.8773
2.284	59.0534
2.278	59.0665
2.272	58.9167
2.266	58.5066
2.26	57.3111
2.254	55.4113
2.248	53.4032
2.242	52.1883
2.236	51.8414
2.23	52.0037
2.224	51.4699
2.218	49.3579
2.212	46.283
2.206	45.114
2.2	47.3637
2.194	50.3846
2.188	53.739
2.182	56.7678
2.176	58.5718
2.17	59.479
2.164	59.9577
2.158	60.8549
2.152	62.4691
2.146	64.6341
2.14	66.3619
2.134	67.3463
2.128	67.7205
2.122	67.8345
2.116	68.1707
2.11	68.6881
2.104	69.5606
2.098	70.1043
2.092	70.7265
2.086	71.3173
2.08	71.8643
2.074	72.1838
2.068	72.6426
2.062	72.8303
2.056	73.0821
2.05	73.2397
2.044	73.3758
2.038	73.5077
2.032	73.5684
2.026	73.6011
2.02	73.6369
2.014	73.7461
2.008	73.6769
2.002	73.7092
1.996	73.7389
1.99	73.7003
1.984	73.5766
1.978	73.5505
1.972	73.4476
1.966	73.4412
1.96	73.4002
1.954	73.2408
1.948	73.2557
1.942	73.2558
1.936	73.0702
1.93	72.9771
1.924	73.0422
1.918	73.143
1.912	73.1115
1.906	73.5412
1.9	73.9822
1.894	74.5139
1.888	74.8337
1.882	75.1637
1.876	75.3925
1.87	75.4788
1.864	75.5161
1.858	75.3593
1.852	75.2441
1.846	75.1339
1.84	75.1832
1.834	75.3308
1.828	75.3473
1.822	75.2512
1.816	75.1527
1.81	75.2858
1.804	75.3304
1.798	75.2749
1.792	75.276
1.786	75.258
1.78	75.3083
1.774	75.2164
1.768	75.2348
1.762	75.2281
1.756	75.2058
1.75	75.1602
1.744	75.1117
1.738	75.0769
1.732	75.0675
1.726	75.1069
1.72	74.9953
1.714	74.9227
1.708	74.7729
1.702	74.7064
1.696	74.6752
1.69	74.6545
1.684	74.5172
1.678	74.4351
1.672	74.2781
1.666	74.3006
1.66	74.1728
1.654	74.1145
1.648	74.01
1.642	73.8354
1.636	73.8424
1.63	73.6617
1.624	73.7101
1.618	73.5388
1.612	73.4204
1.606	73.3147
1.6	73.3128
1.594	73.1116
1.588	73.0719
1.582	72.9136
1.576	72.8183
1.57	72.7209
1.564	72.6227
1.558	72.4612
1.552	72.3686
1.546	72.2098
1.54	72.0474
1.534	71.9731
1.528	71.8667
1.522	71.7161
1.516	71.5435
1.51	71.4823
1.504	71.2668
1.498	71.0923
1.492	70.9675
1.486	70.7806
1.48	70.6215
1.474	70.453
1.468	70.3167
1.462	70.142
1.456	69.8861
1.45	69.32
1.444	68.5132
1.438	66.9227
1.432	64.3109
1.426	61.3184
1.42	58.1663
1.414	55.2324
1.408	58.2573
1.402	60.2866
1.396	62.3343
1.39	65.1744
1.384	66.4574
1.378	67.0083
1.372	67.1022
1.366	67.0927
1.36	66.8112
1.354	66.7807
1.348	67.0745
1.342	66.7953
1.336	66.5832
1.33	66.4726
1.324	66.2526
1.318	66.1809
1.312	66.0175
1.306	65.902
1.3	65.7396
1.294	65.5538
1.288	65.5288
1.282	65.4265
1.276	65.3393
1.27	65.0701
1.264	64.8416
1.258	64.6517
1.252	64.4575
1.246	64.2202
1.24	64.0709
1.234	63.8339
1.228	63.6501
1.222	63.4004
1.216	63.3354
1.21	63.1123
1.204	62.9753
1.198	62.7351
1.192	62.5501
1.186	62.366
1.18	62.2257
1.174	62.0663
1.168	61.9283
1.162	61.743
1.156	61.6238
1.15	61.5267
1.144	61.3795
1.138	61.232
1.132	61.1497
1.126	61.1457
1.12	61.0401
1.114	60.9313
1.108	60.8918
1.102	60.8097
1.096	60.8327
1.09	60.7009
1.084	60.7366
1.078	60.6467
1.072	60.6476
1.066	60.6893
1.06	60.6095
1.054	60.5512
1.048	60.5917
1.042	60.5825
1.036	60.4481
1.03	60.5066
1.024	60.4252
1.018	60.4684
1.012	60.3548
1.006	60.2855
1	60.2176
0.994	60.1963
0.988	60.0214
0.982	59.8716
0.976	59.7526
0.97	59.4638
0.964	59.4477
0.958	59.4115
0.952	59.3909
0.946	59.2707
0.94	59.245
0.934	59.2104
0.928	59.1308
0.922	59.2091
0.916	59.1358
0.91	59.1214
0.904	59.1916
0.898	59.2325
0.892	59.2702
0.886	59.3013
0.88	59.2757
0.874	59.3644
0.868	59.412
0.862	59.3579
0.856	59.5619
0.85	59.575
0.844	59.5742
0.838	59.4662
0.832	59.4195
0.826	59.3605
0.82	59.2084
0.814	59.0383
0.808	58.8697
0.802	58.6634
0.796	58.4278
0.79	58.2408
0.784	58.1311
0.778	57.9314
0.772	57.837
0.766	57.7709
0.76	57.7283
0.754	57.6838
0.748	57.6467
0.742	57.6525
0.736	57.6791
0.73	57.7182
0.724	57.7373
0.718	57.7619
0.712	57.7971
0.706	57.8398
0.7	57.852
0.694	57.8708
0.688	57.9141
0.682	57.9173
0.676	57.9434
0.67	57.9573
0.664	57.9604
0.658	57.9708
0.652	57.9857
0.646	58.0029
0.64	58.0078
0.634	58.0242
0.628	58.046
0.622	58.0368
0.616	58.0467
0.61	58.0408
0.604	58.0236
0.598	58.0327
0.592	58.0033
0.586	57.9286
0.58	57.7896
0.574	57.6059
0.568	57.3488
0.562	56.992
0.556	56.5649
0.55	56.0472
0.544	55.462
0.538	54.7745
0.532	54.0538
0.526	53.2848
0.52	52.4998
0.514	51.6538
0.508	50.7887
0.502	49.8784
0.496	48.9388
0.49	48.0075
0.484	47.2497
0.478	46.5327
0.472	45.8613
0.466	45.251
0.46	44.6279
0.454	43.7923
0.448	42.6412
0.442	41.724
0.436	40.9729
0.43	39.9061
0.424	38.8565
0.418	37.8948
0.412	36.9825
0.406	36.0032
0.4	35.0406
