Name: Trachyte
Type: Rock
Class: Igneous
Subclass: Alkalic
Particle Size: Solid
Sample No.: Ward17
Owner: JPL
Wavelength Range: All
Origin: Ward's Collection of American Rocks.  Sample locality - Mineral Hill, near Cripple Creek, Teller County, Colorado.
Description: A very fine-grained, porphyritic rock, light gray in color.Geologic age - Tertiary (Post-Oligocene).Collected by:  Ward's Natural Science Original ASTER Spectral Library name was jpl.nicolet.rock.igneous.alkalic.solid.ward17.spectrum.txt
Measurement: Hemispherical reflectance
X Units: Wavelength (micrometers)
Y Units: Reflectance (percent)
wavelength	value
15.3871	2.4516
15.118	2.3422
14.8581	2.2997
14.6069	2.0809
14.3642	2.5776
14.1293	2.0949
13.9021	2.7017
13.682	2.6917
13.4687	2.6575
13.2621	2.6494
13.0616	3.0516
12.8672	2.9145
12.6784	3.2307
12.4951	3.1721
12.317	3.0709
12.1439	3.7059
11.9757	4.0675
11.812	4.4826
11.6527	4.5523
11.4977	4.7011
11.3468	5.1471
11.1997	5.6884
11.0564	5.9089
10.9168	6.1473
10.7806	6.499
10.6478	6.8567
10.5182	7.226
10.3917	7.581
10.2683	8.1168
10.1477	8.6022
10.0299	9.1711
9.9148	9.3406
9.8024	9.954
9.6925	9.7927
9.585	9.8962
9.4798	9.8908
9.377	10.4634
9.2763	12.367
9.1778	15.2692
9.0814	16.032
8.987	15.8881
8.8945	15.3705
8.8039	15.0526
8.7151	14.6453
8.6281	14.3794
8.5428	13.5128
8.4592	12.3753
8.3772	9.9275
8.2967	11.0676
8.2179	10.5126
8.1404	9.1709
8.0645	7.1316
7.9899	6.0445
7.9167	4.9948
7.8449	4.0309
7.7743	3.3305
7.705	2.7002
7.6369	2.3968
7.57	2.2937
7.5043	2.1751
7.4397	2.146
7.3762	2.3101
7.3138	2.1651
7.2524	2.3617
7.1921	2.4351
7.1327	2.681
7.0743	2.8399
7.0169	2.7622
6.9604	2.8176
6.9047	3.0546
6.85	3.1822
6.7962	3.4736
6.7431	3.4612
6.6909	3.7414
6.6395	3.9502
6.5889	3.9807
6.539	4.0935
6.49	4.3936
6.4416	4.3666
6.3939	4.3524
6.347	4.3508
6.3007	4.0424
6.2551	3.7969
6.2101	3.7521
6.1658	3.7277
6.1222	3.7537
6.0791	4.0812
6.0366	4.3419
5.9948	4.7097
5.9535	5.0514
5.9127	5.314
5.8726	5.446
5.8329	5.5311
5.7938	5.5125
5.7552	5.5489
5.7172	5.8162
5.6796	5.8179
5.6425	5.8865
5.6059	6.0152
5.5698	6.129
5.5341	6.5882
5.4989	6.8432
5.4641	7.1655
5.4298	7.2178
5.3959	6.9092
5.3624	6.3564
5.3294	6.1263
5.2967	6.5558
5.2644	7.3348
5.2326	8.5831
5.2011	9.8062
5.17	10.4189
5.1392	10.9695
5.1088	11.2317
5.0788	11.0919
5.0491	11.0149
5.0198	10.9892
4.9908	11.1985
4.9622	11.6339
4.9338	12.7939
4.9058	14.9466
4.8781	16.5314
4.8508	17.8635
4.8237	18.7143
4.7969	19.5845
4.7704	20.2184
4.7443	20.8094
4.7184	21.3625
4.6927	21.7989
4.6674	22.2966
4.6423	22.9402
4.6175	24.0062
4.593	24.8712
4.5687	25.698
4.5447	26.4788
4.5209	27.3309
4.4974	27.8698
4.4741	28.5569
4.451	28.8899
4.4282	29.0711
4.4057	29.3469
4.3833	30.0748
4.3612	31.3824
4.3393	32.6971
4.3176	33.7904
4.2962	34.8184
4.2749	35.8616
4.2539	36.3688
4.233	37.0945
4.2124	37.2477
4.192	37.3448
4.1717	37.7731
4.1517	38.2947
4.1319	38.5126
4.1122	38.9192
4.0927	39.1689
4.0734	39.3465
4.0543	39.6272
4.0354	39.738
4.0166	39.9956
3.9981	39.858
3.9796	40.1078
3.9614	40.0475
3.9433	40.1324
3.9254	40.3252
3.9077	40.3209
3.8901	40.3878
3.8726	40.5421
3.8554	40.6308
3.8382	40.7242
3.8213	40.8695
3.8045	40.8363
3.7878	40.8074
3.7713	40.7639
3.7549	40.6458
3.7386	40.6362
3.7225	40.4985
3.7066	40.7067
3.6907	40.4925
3.675	40.5835
3.6595	40.698
3.644	40.747
3.6287	40.5205
3.6136	40.4199
3.5985	40.1538
3.5836	39.9598
3.5688	39.9197
3.5541	39.6484
3.5396	39.2804
3.5251	38.9213
3.5108	38.1677
3.4966	37.4474
3.4825	37.0356
3.4685	37.0018
3.4547	37.0729
3.4409	36.6013
3.4273	35.792
3.4137	35.212
3.4003	35.1945
3.387	35.3798
3.3738	34.69
3.3606	35.3317
3.3476	35.625
3.3347	35.5732
3.3219	35.1092
3.3092	35.0965
3.2965	34.6393
3.284	34.3947
3.2716	34.1652
3.2593	33.6068
3.247	33.3475
3.2348	33.0344
3.2228	32.6331
3.2108	32.2609
3.1989	31.8049
3.1871	31.4789
3.1754	31.1953
3.1638	30.6496
3.1523	30.2469
3.1408	29.7522
3.1294	29.1683
3.1181	28.9906
3.1069	28.5943
3.0958	27.7726
3.0848	27.815
3.0738	27.7632
3.0629	27.4389
3.0521	27.0521
3.0413	26.9551
3.0307	26.6161
3.0201	26.6672
3.0096	26.4972
2.9991	26.2522
2.9887	26.1012
2.9784	25.5347
2.9682	25.6472
2.9581	25.2067
2.948	25.2901
2.9379	24.9745
2.928	25.0425
2.9181	25.2406
2.9083	24.9795
2.8985	25.2282
2.8888	25.6873
2.8792	25.4756
2.8697	25.7979
2.8602	26.0864
2.8507	26.4679
2.8413	26.3102
2.832	26.0648
2.8228	26.9398
2.8136	26.8358
2.8045	27.2192
2.7954	26.7791
2.7864	28.2176
2.7774	28.7405
2.7685	29.7255
2.7597	29.8241
2.7509	31.0659
2.7422	33.5646
2.7335	34.0288
2.7249	36.8476
2.7163	39.4356
2.7078	41.8998
2.6994	43.6831
2.691	45.0154
2.6826	46.1798
2.6743	46.9122
2.666	48.4783
2.6578	47.3157
2.6497	47.3503
2.6416	47.5718
2.6336	47.9255
2.6256	47.8671
2.6176	48.9017
2.6097	48.3136
2.6018	48.1954
2.594	48.8966
2.5863	48.2954
2.5785	48.2824
2.5709	47.8613
2.5633	48.6433
2.5557	47.531
2.5481	47.6045
2.5406	47.9645
2.5332	47.7604
2.5258	48.101
2.5184	47.2851
2.5111	47.5415
2.5038	47.7786
2.4966	47.8745
2.4894	47.3685
2.4823	47.1692
2.4752	47.8451
2.4681	47.3761
2.4611	47.7959
2.4541	47.8484
2.4471	47.5585
2.4402	47.5917
2.4333	47.2512
2.4265	48.0827
2.4197	47.5421
2.413	47.6
2.4063	47.3927
2.3996	47.5867
2.3929	47.3545
2.3863	47.0088
2.3798	47.2683
2.3732	47.69
2.3667	47.1541
2.3603	47.0606
2.3538	46.3348
2.3474	46.9702
2.3411	47.2774
2.3347	46.7416
2.3285	46.8644
2.3222	47.1117
2.316	47.0091
2.3098	46.8063
2.3036	47.0926
2.2975	47.0842
2.2914	46.9701
2.2854	46.5422
2.2793	46.313
2.2733	46.036
2.2674	46.1417
2.2614	46.4643
2.2555	46.0257
2.2497	46.2109
2.2438	45.833
2.238	45.8566
2.2322	45.695
2.2265	45.6601
2.2208	46.0613
2.2151	45.4863
2.2094	45.4515
2.2038	45.2363
2.1982	45.2105
2.1926	45.7301
2.187	45.2213
2.1815	45.1096
2.176	44.9808
2.1706	45.1619
2.1651	44.9646
2.1597	44.8821
2.1543	44.1369
2.149	44.6396
2.1436	44.4781
2.1383	44.1795
2.1331	44.7083
2.1278	42.7679
2.1226	44.2992
2.1174	45.0962
2.1122	44.1265
2.1071	44.2589
2.1019	44.704
2.0968	43.5319
2.0918	43.8688
2.0867	43.0585
2.0817	43.8783
2.0767	43.0207
2.0717	43.8864
2.0667	43.0665
2.0618	43.6402
2.0569	43.9971
2.052	44.4064
2.0472	42.0517
2.0423	43.2067
2.0375	43.3471
2.0327	43.3044
2.028	43.5562
2.0232	42.0229
2.0185	43.7037
2.0138	42.0414
2.0091	43.9895
2.0044	42.1764
1.9998	42.4684
