Name: Aplite
Type: Rock
Class: Igneous
Subclass: Felsic
Particle Size: Solid
Sample No.: Ward16
Owner: JPL
Wavelength Range: VSWIR
Origin: Ward's Collection of American Rocks.  Sample locality - Boulder County, Colorado.
Description: A fine-grained pink rock composed of quartz, glassy feldsparand biotite.  The hand specimen occasionally has irregular stringers andpatches of coarser grain.Geologic age - Pre-Cambrian.Collected by:  Ward's Natural Science Original ASTER Spectral Library name was jpl.perkin.rock.igneous.felsic.solid.ward16.spectrum.txt
Measurement: Hemispherical reflectance
X Units: Wavelength (micrometers)
Y Units: Reflectance (percent)
wavelength	value
2.5	20.7131
2.494	20.9207
2.488	20.7319
2.482	20.9953
2.476	21.0092
2.47	21.1447
2.464	21.2254
2.458	21.3026
2.452	21.1539
2.446	21.1984
2.44	21.2682
2.434	21.3535
2.428	21.6784
2.422	21.8864
2.416	22.1989
2.41	22.3992
2.404	22.6972
2.398	22.8154
2.392	22.9504
2.386	23.0954
2.38	23.1578
2.374	23.3217
2.368	23.4051
2.362	23.533
2.356	23.5501
2.35	23.6229
2.344	23.6629
2.338	23.9405
2.332	24.1855
2.326	24.4448
2.32	24.6911
2.314	24.9714
2.308	25.238
2.302	25.5145
2.296	25.6976
2.29	25.8491
2.284	25.9278
2.278	26.0248
2.272	26.0965
2.266	26.1805
2.26	26.0909
2.254	26.0027
2.248	25.8366
2.242	25.789
2.236	25.6861
2.23	25.4002
2.224	25.0786
2.218	24.4687
2.212	23.7067
2.206	23.1045
2.2	22.857
2.194	23.0682
2.188	23.6369
2.182	24.2587
2.176	24.8136
2.17	25.2246
2.164	25.6262
2.158	25.9387
2.152	26.248
2.146	26.5948
2.14	26.7598
2.134	26.8183
2.128	26.7644
2.122	26.722
2.116	26.5915
2.11	26.4827
2.104	26.3924
2.098	26.2888
2.092	26.3438
2.086	26.3248
2.08	26.3469
2.074	26.3397
2.068	26.3426
2.062	26.2788
2.056	26.2664
2.05	25.8961
2.044	25.7826
2.038	25.6766
2.032	25.6211
2.026	25.4503
2.02	25.3089
2.014	25.1676
2.008	25.018
2.002	24.8073
1.996	24.6722
1.99	24.4118
1.984	24.2931
1.978	24.0009
1.972	23.9082
1.966	23.6994
1.96	23.5625
1.954	23.4894
1.948	23.3324
1.942	23.2567
1.936	23.1616
1.93	22.9316
1.924	22.6534
1.918	22.3145
1.912	21.9814
1.906	22.1439
1.9	23.1795
1.894	24.3248
1.888	25.3724
1.882	26.1466
1.876	26.5343
1.87	27.0575
1.864	27.0947
1.858	27.2161
1.852	27.3219
1.846	27.3205
1.84	27.3398
1.834	27.4326
1.828	27.379
1.822	27.3758
1.816	27.3756
1.81	27.4266
1.804	27.3969
1.798	27.4187
1.792	27.4752
1.786	27.4445
1.78	27.5175
1.774	27.5172
1.768	27.5854
1.762	27.6261
1.756	27.617
1.75	27.6688
1.744	27.7136
1.738	27.7309
1.732	27.8456
1.726	27.8289
1.72	27.7965
1.714	27.8223
1.708	27.8366
1.702	27.8694
1.696	27.824
1.69	27.837
1.684	27.8303
1.678	27.9145
1.672	27.937
1.666	27.8468
1.66	27.8626
1.654	27.879
1.648	27.8314
1.642	27.9815
1.636	27.9743
1.63	28.0191
1.624	27.9926
1.618	27.9211
1.612	27.9557
1.606	28.0417
1.6	27.9446
1.594	27.9633
1.588	27.9737
1.582	27.9453
1.576	27.877
1.57	27.9804
1.564	28.0018
1.558	27.983
1.552	27.9168
1.546	27.9281
1.54	27.9047
1.534	27.9243
1.528	27.9232
1.522	27.8907
1.516	27.8652
1.51	27.7955
1.504	27.8465
1.498	27.8158
1.492	27.6839
1.486	27.7286
1.48	27.6112
1.474	27.5369
1.468	27.4979
1.462	27.4591
1.456	27.4981
1.45	27.4285
1.444	27.4074
1.438	27.1691
1.432	27.0476
1.426	26.7027
1.42	25.9646
1.414	25.1172
1.408	25.4769
1.402	26.059
1.396	26.7983
1.39	27.5935
1.384	28.0521
1.378	28.4253
1.372	28.4851
1.366	28.6674
1.36	28.7154
1.354	28.7907
1.348	28.8944
1.342	28.9586
1.336	28.9787
1.33	28.9794
1.324	29.08
1.318	29.0126
1.312	29.1179
1.306	29.0905
1.3	29.161
1.294	29.1582
1.288	29.3137
1.282	29.2724
1.276	29.3485
1.27	29.3093
1.264	29.3835
1.258	29.4463
1.252	29.4609
1.246	29.482
1.24	29.5329
1.234	29.5483
1.228	29.5604
1.222	29.668
1.216	29.6327
1.21	29.6425
1.204	29.7447
1.198	29.7075
1.192	29.7857
1.186	29.8327
1.18	29.7869
1.174	29.8201
1.168	29.8372
1.162	29.8518
1.156	29.8999
1.15	29.977
1.144	30.0173
1.138	30.0012
1.132	30.0494
1.126	30.0263
1.12	30.1109
1.114	30.0547
1.108	30.1428
1.102	30.1151
1.096	30.1622
1.09	30.0675
1.084	30.1802
1.078	30.216
1.072	30.1995
1.066	30.1113
1.06	30.1684
1.054	30.2295
1.048	30.1542
1.042	30.0892
1.036	30.1428
1.03	30.0472
1.024	30.0555
1.018	29.955
1.012	29.8599
1.006	29.8043
1	29.7258
0.994	29.6588
0.988	29.5306
0.982	29.4075
0.976	29.2311
0.97	29.0086
0.964	28.9247
0.958	28.7474
0.952	28.636
0.946	28.6237
0.94	28.4321
0.934	28.3214
0.928	28.249
0.922	28.1712
0.916	28.103
0.91	28.0251
0.904	27.9896
0.898	27.9393
0.892	28.0153
0.886	28.0628
0.88	28.1199
0.874	28.1546
0.868	28.2012
0.862	28.3594
0.856	28.2127
0.85	28.287
0.844	28.3711
0.838	28.419
0.832	28.4849
0.826	28.5819
0.82	28.6584
0.814	28.715
0.808	28.7986
0.802	28.8567
0.796	28.9214
0.79	28.9728
0.784	29.0465
0.778	29.1061
0.772	29.1274
0.766	29.1423
0.76	29.1343
0.754	29.1061
0.748	29.0651
0.742	28.9632
0.736	28.8523
0.73	28.718
0.724	28.5743
0.718	28.3796
0.712	28.1695
0.706	27.9527
0.7	27.731
0.694	27.4883
0.688	27.2635
0.682	27.0438
0.676	26.8199
0.67	26.6075
0.664	26.4086
0.658	26.2135
0.652	26.0287
0.646	25.8446
0.64	25.6629
0.634	25.4851
0.628	25.2908
0.622	25.0781
0.616	24.8402
0.61	24.5511
0.604	24.2021
0.598	23.7949
0.592	23.3042
0.586	22.7433
0.58	22.1274
0.574	21.5152
0.568	20.9318
0.562	20.4137
0.556	19.9384
0.55	19.5733
0.544	19.2919
0.538	19.0585
0.532	18.8741
0.526	18.7179
0.52	18.5763
0.514	18.4453
0.508	18.298
0.502	18.154
0.496	17.9857
0.49	17.8374
0.484	17.7316
0.478	17.6725
0.472	17.6058
0.466	17.5269
0.46	17.4317
0.454	17.3072
0.448	17.1473
0.442	16.9624
0.436	16.7929
0.43	16.6162
0.424	16.4381
0.418	16.2725
0.412	16.1139
0.406	15.9598
0.4	15.7944
