Name: Rhyolite
Type: Rock
Class: Igneous
Subclass: Felsic
Particle Size: Solid
Sample No.: AP-938-90
Owner: United States Geological Survey, L. C. Rowan
Wavelength Range: All
Origin: Iberian Pyrite Belt, Spain
Description: Rhyolite, fine silicifiedSample was  Whole Rock Chips. Original ASTER Spectral Library name was usgs.perknic.rock.igneous.felsic.solid.rhy90.spectrum.txt
Measurement: Directional Hemispherical Reflectance
X Units: Wavelength (micrometers)
Y Units: Reflectance (percent)
wavelength	value
14.051	1.7201
13.79	1.9055
13.538	2.1424
13.295	2.1321
13.06	2.2866
12.834	2.5235
12.616	2.4411
12.404	2.2969
12.2	2.2969
12.002	2.6574
11.811	3.1827
11.626	3.4402
11.446	3.7801
11.272	3.914
11.103	4.3878
10.939	4.6144
10.78	3.7492
10.625	3.7183
10.475	4.0685
10.329	4.841
10.187	5.9843
10.049	7.2615
9.914	8.7035
9.783	8.2194
9.656	10.7326
9.532	11.742
9.411	10.9798
9.293	10.0631
9.178	8.961
9.065	7.0658
8.956	6.1491
8.849	6.9113
8.744	5.6753
8.642	4.4187
8.543	4.4702
8.445	4.3569
8.35	4.3466
8.257	4.4187
8.166	4.429
8.077	3.4093
7.99	2.9149
7.905	2.3999
7.821	2.0085
7.739	1.8746
7.659	1.7407
7.581	1.648
7.504	1.5656
7.429	1.545
7.355	1.4832
7.283	1.5347
7.212	1.5965
7.143	1.5759
7.074	1.5862
7.007	1.5141
6.942	1.5347
6.877	1.5759
6.814	1.6995
6.752	1.8334
6.691	1.9055
6.631	1.9673
6.572	2.0909
6.514	1.9982
6.458	2.0291
6.402	2.1424
6.347	2.1115
6.293	2.1424
6.24	2.0703
6.188	1.9673
6.137	1.8849
6.086	1.8334
6.037	1.854
5.988	1.8952
5.94	1.9776
5.893	2.1733
5.846	2.3587
5.8	2.5029
5.755	2.5853
5.711	2.7192
5.667	2.9458
5.624	2.987
5.582	3.0385
5.54	3.1415
5.499	3.1827
5.459	3.3475
5.419	3.3681
5.379	3.3578
5.341	3.3578
5.302	3.4917
5.265	3.5947
5.227	3.7801
5.191	3.9449
5.155	4.0273
5.119	4.1715
5.084	4.3466
5.049	4.3775
5.015	4.5217
4.981	4.6762
4.948	5.0264
4.915	5.253
4.883	5.8298
4.851	6.4066
4.819	6.798
4.788	6.9216
4.758	7.1379
4.727	7.4984
4.697	7.6941
4.668	7.7765
4.638	8.24
4.61	8.8889
4.581	9.3318
4.553	9.6408
4.525	9.785
4.498	9.5481
4.47	9.5275
4.444	9.9704
4.417	10.5575
4.391	11.1549
4.365	12.0201
4.34	12.7205
4.314	13.2973
4.289	13.6269
4.265	13.9668
4.24	14.4921
4.216	14.7599
4.192	14.6775
4.169	15.141
4.145	15.4088
4.122	15.7693
4.099	16.171
4.077	16.3976
4.055	16.5521
4.032	16.583
4.011	16.583
3.989	16.6036
3.968	16.9641
3.947	16.9332
3.926	17.1598
3.905	17.1701
3.884	17.1495
3.864	16.995
3.844	16.7478
3.824	16.8096
3.805	16.6036
3.785	16.3976
3.766	16.0165
3.747	15.7693
3.728	15.3573
3.709	15.1204
3.691	14.8732
3.673	14.6054
3.655	14.1728
3.637	13.8432
3.619	13.5136
3.601	12.9162
3.584	12.4836
3.567	11.8862
3.549	11.4742
3.533	10.7532
3.516	10.1764
3.499	9.5275
3.483	9.5172
3.466	9.1876
3.45	8.8271
3.434	8.4151
3.418	7.9722
3.403	7.7559
3.387	7.7044
3.372	7.7559
3.357	7.622
3.341	7.7147
3.326	7.3336
3.312	7.1379
3.297	6.9628
3.282	6.6641
3.268	6.4581
3.253	6.4478
3.239	6.2418
3.225	6.0873
3.211	5.974
3.197	5.7783
3.183	5.7165
3.17	5.4899
3.156	5.1809
3.143	5.15
3.13	4.7483
3.117	4.8101
3.103	4.5423
3.091	4.5732
3.078	4.326
3.065	4.4084
3.052	4.3466
3.04	4.0582
3.027	4.1509
3.015	4.1715
3.003	4.1509
2.991	4.2127
2.979	4.1097
2.967	3.8831
2.955	4.1612
2.943	3.7389
2.932	4.1715
2.92	4.1921
2.909	4.3981
2.897	4.2848
2.886	4.0582
2.875	4.5114
2.864	4.1818
2.853	4.3569
2.842	4.326
2.831	4.3466
2.82	4.3878
2.809	4.6247
2.799	3.9449
2.788	3.8934
2.778	3.5226
2.767	3.1827
2.757	2.7707
2.747	3.2857
2.737	3.2548
2.727	3.5226
2.717	3.9243
2.707	3.5432
2.697	3.9243
2.687	7.4469
2.677	11.5051
2.668	14.9865
2.658	17.6027
2.649	19.0859
2.639	20.7545
2.63	21.8978
2.62	22.4437
2.611	23.1338
2.602	23.7312
2.593	24.2359
2.584	24.7612
2.575	25.029
2.566	25.6573
2.557	26.1723
2.548	26.4195
2.54	26.7285
2.531	26.986
2.522	27.5113
2.514	27.5731
2.505	27.7585
2.489	28.0014
2.461	29.9014
2.433	32.6014
2.405	35.7014
2.377	37.8014
2.349	40.1014
2.321	43.3014
2.293	44.2014
2.265	47.6014
2.237	47.2014
2.209	45.4014
2.181	49.4014
2.153	54.7014
2.125	57.0014
2.097	57.6014
2.069	57.2014
2.041	55.9014
2.013	51.5014
1.985	47.0014
1.957	43.3014
1.929	39.4014
1.901	37.9014
1.873	61.5014
1.845	72.8014
1.817	74.7014
1.789	74.7014
1.761	76.4014
1.733	76.9014
1.705	76.9014
1.677	77.6014
1.649	76.9014
1.621	77.0014
1.593	75.5014
1.565	74.1014
1.537	73.2014
1.509	70.0014
1.481	67.2014
1.453	64.4014
1.425	57.3014
1.397	57.2014
1.369	71.0014
1.341	73.0014
1.313	73.2014
1.285	71.1014
1.257	70.4014
1.229	68.3014
1.201	66.6014
1.173	65.5014
1.145	63.7014
1.117	62.8014
1.089	61.4014
1.061	60.4014
1.033	59.0014
1.005	58.1014
0.977	57.2014
0.949	56.1014
0.921	55.9014
0.893	55.4014
0.865	55.4014
0.837	56.5014
0.809	57.5014
0.799	57.0014
0.792	56.8014
0.785	57.1014
0.778	56.7014
0.771	56.2014
0.764	55.6014
0.757	55.7014
0.75	54.8014
0.743	54.6014
0.736	54.2014
0.729	53.7014
0.722	53.1014
0.715	51.7014
0.708	51.5014
0.701	50.2014
0.694	49.4014
0.687	49.0014
0.68	48.7014
0.673	47.9014
0.666	47.7014
0.659	47.2014
0.652	46.6014
0.645	46.6014
0.638	46.0014
0.631	45.4014
0.624	44.9014
0.617	45.1014
0.61	44.3014
0.603	44.4014
0.596	43.4014
0.589	42.8014
0.582	42.3014
0.575	41.6014
0.568	41.0014
0.561	40.0014
0.554	38.6014
0.547	36.9014
0.54	35.2014
0.533	34.1014
0.526	32.4014
0.519	30.7014
0.512	29.5014
0.505	28.1014
0.498	26.9014
0.491	25.9014
0.484	25.1014
0.477	24.4014
0.47	24.4014
0.463	23.4014
0.456	21.9014
0.449	21.3014
0.442	20.7014
0.435	20.0014
0.428	19.7014
0.421	19.1014
0.414	18.4014
0.407	18.0014
