Name: Green Schist
Type: rock
Class: Metamorphic
Subclass: Schist
Particle Size: Coarse
Sample No.: schist1
Owner: JHU
Wavelength Range: All
Origin: Sample No. 392, The Hunt and Salisbury Collection at the U.S.Geological Survey, Denver, Co.
Description: This is a medium to coarse-grained sample containing tremolite-actinolite crystals and talc.  Amphibole is heavily altered to talc, and in addition to these phases there is quartz and some carbonate, as an alteration product, along with opaque grains.  There may be heavily altered plagioclase present in this sample as well.  Modes were 50.6% talc, 38% amphibole, 5.4% quartz, 3.6% calcite, 2.4% plagioclase remnants.  Particle size was 500-1500 Micrometer.  Original ASTER Spectral Library name was jhu.becknic.rock.metamorphic.schist.coarse.schist1.spectrum.txt
Measurement: Directional (10 Degree) Hemispherical Reflectance
X Units: Wavelength (micrometers)
Y Units: Reflectance (percent)
wavelength	value
14.983	2.582
14.645	2.524
14.321	2.1096
14.011	1.9073
13.715	1.9769
13.43	2.3926
13.158	2.8143
12.896	1.9097
12.644	2.0906
12.402	2.2519
12.169	2.5697
11.945	2.9808
11.729	3.2851
11.52	3.6917
11.319	4.3674
11.125	4.6923
10.937	4.6792
10.755	4.5244
10.58	6.2683
10.41	7.4436
10.245	7.9762
10.086	8.9748
9.9313	8.6675
9.7814	6.9477
9.636	7.8829
9.4948	7.2539
9.3577	6.8042
9.2245	6.0464
9.095	5.1406
8.9691	4.9864
8.8467	5.6575
8.7275	6.0137
8.6116	4.8296
8.4986	3.8348
8.3886	3.6669
8.2814	3.2145
8.1769	2.5666
8.075	1.9447
7.9756	1.675
7.8786	1.5329
7.784	1.4922
7.6916	1.5227
7.6014	1.5511
7.5133	1.595
7.4272	1.6385
7.343	1.6902
7.2607	1.7574
7.1803	1.8687
7.1016	2.0797
7.0246	2.1939
6.9493	2.2554
6.8755	2.3215
6.8034	2.3795
6.7327	2.4638
6.6634	2.5562
6.5956	2.6142
6.5292	2.6206
6.464	2.5974
6.4002	2.4281
6.3376	2.2756
6.2762	2.1974
6.216	2.1849
6.157	2.2168
6.099	2.2689
6.0421	2.3319
5.9863	2.358
5.9315	2.3504
5.8777	2.406
5.8249	2.4965
5.773	2.5382
5.722	2.5718
5.6719	2.6137
5.6227	2.6831
5.5744	2.7137
5.5268	2.8723
5.4801	2.9981
5.4341	3.1359
5.3889	3.2498
5.3445	3.3078
5.3008	3.3895
5.2578	3.4615
5.2154	3.5956
5.1738	3.6564
5.1328	3.7732
5.0925	3.916
5.0528	4.0126
5.0137	4.0886
4.9752	4.15
4.9373	4.1727
4.9	4.2433
4.8632	4.3728
4.827	4.6205
4.7913	4.912
4.7561	5.3816
4.7215	6.0963
4.6873	6.6237
4.6536	7.0204
4.6205	7.3609
4.5877	7.9731
4.5555	8.9516
4.5237	9.9242
4.4923	10.937
4.4614	11.915
4.4309	12.905
4.4008	13.721
4.3711	14.417
4.3418	15.006
4.3129	15.609
4.2844	16.146
4.2563	16.625
4.2285	17.067
4.2011	17.515
4.174	17.914
4.1473	18.263
4.1209	18.496
4.0949	18.6
4.0692	18.533
4.0438	18.115
4.0187	17.262
3.994	16.34
3.9695	16.384
3.9453	17.303
3.9214	17.778
3.8979	17.92
3.8746	17.938
3.8515	17.899
3.8288	18.061
3.8063	18.377
3.7841	18.58
3.7621	18.45
3.7404	18.218
3.7189	17.97
3.6977	17.72
3.6767	17.496
3.656	17.129
3.6355	16.742
3.6152	16.346
3.5951	15.952
3.5753	15.455
3.5557	14.944
3.5363	14.345
3.5171	13.576
3.4981	12.963
3.4793	12.495
3.4607	12.356
3.4423	12.026
3.4241	11.677
3.4061	11.333
3.3883	10.888
3.3707	10.418
3.3533	9.9231
3.336	9.6884
3.3189	9.3116
3.302	8.891
3.2853	8.5415
3.2687	8.2663
3.2523	7.9459
3.2361	7.5783
3.22	7.1248
3.204	6.7258
3.1883	6.4139
3.1727	6.1859
3.1572	5.9185
3.1419	5.6438
3.1268	5.3715
3.1117	5.1361
3.0969	4.9002
3.0821	4.693
3.0675	4.5611
3.0531	4.4353
3.0388	4.3605
3.0246	4.1921
3.0105	4.0294
2.9966	3.8191
2.9828	3.7334
2.9692	3.6643
2.9556	3.6434
2.9422	3.6936
2.9289	3.7194
2.9157	3.7684
2.9027	3.8298
2.8897	3.934
2.8769	3.9851
2.8642	4.0285
2.8516	4.1149
2.8391	4.1412
2.8267	4.1111
2.8144	4.1225
2.8022	4.1862
2.7902	4.3368
2.7782	4.6288
2.7664	4.9594
2.7546	5.102
2.7429	4.9854
2.7314	5.1725
2.7199	6.0649
2.7085	11.472
2.6973	16.428
2.6861	18.526
2.675	20.424
2.664	21.666
2.6531	22.229
2.6423	22.511
2.6315	22.689
2.6209	22.846
2.6103	23.017
2.5999	23.114
2.5895	23.148
2.5792	23.191
2.569	23.313
2.5588	23.589
2.5487	23.893
2.5388	24.052
2.5289	24.246
2.519	24.413
2.5093	24.526
2.4996	24.604
2.49	24.826
2.4805	25.063
2.471	25.593
2.4616	26.151
2.4523	26.989
2.4431	27.57
2.4339	28.179
2.4248	28.19
2.4157	27.724
2.4068	26.635
2.3979	25.003
2.389	23.973
2.3802	23.769
2.3715	22.048
2.3629	18.713
2.3543	16.563
2.3458	16.17
2.3373	16.546
2.3289	17.239
2.3206	18.215
2.3123	19.826
2.3041	21.261
2.2959	22.869
2.2878	25.543
2.2798	26.804
2.2718	26.943
2.2638	25.611
2.2559	24.538
2.2481	25.79
2.2403	29.606
2.2326	32.453
2.225	33.726
2.2173	35.157
2.2098	36.788
2.2023	37.938
2.1948	39.293
2.1874	40.639
2.18	41.57
2.1727	42.28
2.1655	42.688
2.1583	42.915
2.1511	43.074
2.144	43.146
2.1369	42.992
2.1299	42.794
2.1229	42.815
2.116	42.914
2.1091	43.628
2.1023	44.484
2.0955	44.828
2.0887	45.021
2.082	45.133
2.06	44.934
2.028	44.449
1.996	42.856
1.964	43.397
1.932	43.933
1.9	43.622
1.868	44.706
1.836	45.243
1.804	45.323
1.772	45.493
1.74	45.348
1.708	44.686
1.676	44.689
1.644	44.219
1.612	43.645
1.58	42.9
1.548	42.374
1.516	41.585
1.484	41.896
1.452	41.263
1.42	40.458
1.388	35.611
1.356	39.617
1.324	38.405
1.292	36.927
1.26	35.018
1.228	33.303
1.196	31.153
1.164	29.04
1.132	27.346
1.1	26.278
1.068	25.207
1.036	25.904
1.004	25.477
0.972	25.14
0.94	24.979
0.908	24.533
0.876	24.744
0.844	25.946
0.812	26.695
0.795	28.049
0.787	28.272
0.779	28.286
0.771	28.385
0.763	28.536
0.755	28.633
0.747	28.305
0.739	28.631
0.731	28.453
0.723	28.75
0.715	28.929
0.707	28.692
0.699	29.045
0.691	29.428
0.683	29.366
0.675	29.522
0.667	30.244
0.659	29.831
0.651	30.106
0.643	30.574
0.635	30.433
0.627	30.608
0.619	30.853
0.611	31.565
0.603	31.156
0.595	31.493
0.587	31.928
0.579	32.18
0.571	31.877
0.563	31.942
0.555	31.526
0.547	31.544
0.539	30.898
0.531	30.838
0.523	30.082
0.515	29.576
0.507	28.621
0.499	27.714
0.491	26.455
0.483	25.824
0.475	24.596
0.467	22.968
0.459	21.361
0.451	20.219
0.443	19.385
0.435	18.347
0.427	15.89
0.419	14.459
0.411	12.694
0.403	10.483
