Name: Limestone CaCO3
Type: Rock
Class: Sedimentary
Subclass: Limestone
Particle Size: Solid
Sample No.: ro353
Owner: Larry Rowan, USGS
Wavelength Range: All
Origin: Ronda, Spain
Description: light gray limestone Sample was Whole rock chips. Original ASTER Spectral Library name was usgs.perknic.rock.sedimentary.limestone.solid.ls353.spectrum.txt
Measurement: Reflectance
X Units: Wavelength (micrometers)
Y Units: Reflectance (percent)
wavelength	value
0.4	0.4035
0.408	0.408
0.416	0.411
0.424	0.4148
0.432	0.4238
0.44	0.4275
0.448	0.4293
0.456	0.433
0.464	0.4368
0.472	0.4405
0.48	0.4427
0.488	0.4432
0.496	0.45
0.504	0.4527
0.512	0.456
0.52	0.4635
0.528	0.4635
0.536	0.469
0.544	0.4733
0.552	0.4778
0.56	0.48
0.568	0.4858
0.576	0.4913
0.584	0.4918
0.592	0.4938
0.6	0.4943
0.608	0.4943
0.616	0.497
0.624	0.498
0.632	0.5005
0.64	0.5002
0.648	0.5002
0.656	0.5055
0.664	0.5035
0.672	0.5045
0.68	0.5108
0.688	0.5078
0.696	0.5108
0.704	0.5122
0.712	0.5122
0.72	0.515
0.728	0.5155
0.736	0.5152
0.744	0.5145
0.752	0.5175
0.76	0.5168
0.768	0.5152
0.776	0.516
0.784	0.5138
0.792	0.5142
0.8	0.5125
0.832	0.5135
0.864	0.5155
0.896	0.516
0.928	0.516
0.96	0.5158
0.992	0.5158
1.024	0.5158
1.056	0.5188
1.088	0.5212
1.12	0.524
1.152	0.5268
1.184	0.5292
1.216	0.5308
1.248	0.5315
1.28	0.5345
1.312	0.5327
1.344	0.529
1.376	0.4958
1.408	0.4695
1.44	0.4637
1.472	0.4733
1.504	0.4878
1.536	0.4993
1.568	0.5062
1.6	0.5115
1.632	0.5138
1.664	0.515
1.696	0.5112
1.728	0.5032
1.76	0.5
1.792	0.497
1.824	0.4785
1.856	0.4425
1.888	0.3857
1.92	0.3505
1.952	0.355
1.984	0.3638
2.016	0.4015
2.048	0.425
2.08	0.4333
2.1021	0.4468
2.109	0.4452
2.1159	0.4475
2.1228	0.4433
2.1298	0.4429
2.1368	0.4412
2.1438	0.4313
2.1509	0.4269
2.1581	0.4246
2.1653	0.4256
2.1726	0.4344
2.1799	0.4308
2.1872	0.4346
2.1946	0.4315
2.2021	0.427
2.2096	0.4178
2.2172	0.4109
2.2248	0.4022
2.2324	0.3854
2.2401	0.3721
2.2479	0.3611
2.2557	0.3532
2.2636	0.3396
2.2715	0.3281
2.2795	0.3125
2.2876	0.291
2.2957	0.2809
2.3038	0.275
2.3121	0.2646
2.3203	0.2571
2.3287	0.2473
2.3371	0.2403
2.3455	0.2488
2.354	0.2692
2.3626	0.3047
2.3712	0.3254
2.38	0.339
2.3887	0.3391
2.3976	0.3383
2.4065	0.337
2.4154	0.3347
2.4245	0.3211
2.4336	0.3078
2.4427	0.2928
2.452	0.2797
2.4613	0.2616
2.4707	0.2452
2.4801	0.2278
2.4896	0.2181
2.4992	0.2131
2.5089	0.2092
2.5187	0.2001
2.5285	0.1844
2.5384	0.1802
2.5484	0.206
2.5584	0.242
2.5686	0.267
2.5788	0.2803
2.5891	0.2905
2.5995	0.2983
2.6099	0.3022
2.6205	0.3021
2.6311	0.2993
2.6418	0.2935
2.6526	0.2881
2.6635	0.2766
2.6745	0.262
2.6856	0.234
2.6968	0.1985
2.708	0.1614
2.7194	0.1319
2.7309	0.1264
2.7424	0.1171
2.7541	0.1092
2.7658	0.1036
2.7777	0.0968
2.7896	0.093
2.8017	0.0925
2.8138	0.0927
2.8261	0.0906
2.8385	0.0893
2.851	0.088
2.8636	0.0858
2.8763	0.085
2.8891	0.0833
2.902	0.0816
2.915	0.0808
2.9282	0.0806
2.9415	0.0801
2.9549	0.0805
2.9684	0.0807
2.9821	0.0807
2.9959	0.0816
3.0098	0.0817
3.0238	0.0831
3.038	0.0833
3.0523	0.0835
3.0667	0.0843
3.0813	0.0848
3.096	0.0851
3.1109	0.0851
3.1259	0.0876
3.141	0.0891
3.1563	0.0902
3.1718	0.0941
3.1874	0.0969
3.2031	0.0984
3.219	0.0998
3.2351	0.1003
3.2513	0.1005
3.2677	0.1002
3.2843	0.0977
3.301	0.0916
3.3179	0.0858
3.3349	0.0716
3.3522	0.0578
3.3696	0.0615
3.3872	0.0619
3.405	0.0625
3.423	0.0622
3.4412	0.0611
3.4595	0.0592
3.4781	0.0531
3.4968	0.0576
3.5158	0.0655
3.535	0.0848
3.5544	0.0978
3.574	0.103
3.5938	0.1204
3.6138	0.1297
3.6341	0.1343
3.6545	0.138
3.6753	0.1394
3.6962	0.138
3.7174	0.1336
3.7389	0.125
3.7605	0.1138
3.7825	0.0976
3.8047	0.0728
3.8272	0.0626
3.8499	0.0576
3.8729	0.0566
3.8962	0.0546
3.9197	0.052
3.9436	0.0467
3.9677	0.0421
3.9921	0.0462
4.0169	0.0563
4.0419	0.0703
4.0673	0.0836
4.093	0.0936
4.119	0.1017
4.1453	0.1098
4.172	0.1162
4.199	0.1189
4.2264	0.1173
4.2541	0.112
4.2822	0.1127
4.3107	0.114
4.3395	0.1163
4.3688	0.1215
4.3984	0.1187
4.4285	0.1132
4.4589	0.1055
4.4898	0.0979
4.5211	0.0938
4.5529	0.0916
4.5851	0.0886
4.6177	0.0818
4.6509	0.0688
4.6845	0.0682
4.7186	0.0842
4.7532	0.0947
4.7883	0.0972
4.8239	0.0959
4.8601	0.0938
4.8968	0.0923
4.9341	0.0901
4.9719	0.0889
5.0103	0.0877
5.0493	0.0856
5.089	0.0721
5.1292	0.0798
5.1702	0.0768
5.2117	0.0727
5.254	0.0677
5.2969	0.0625
5.3405	0.0566
5.3849	0.05
5.43	0.0427
5.4759	0.0354
5.5225	0.0278
5.57	0.0225
5.6182	0.0293
5.6673	0.0274
5.7173	0.0248
5.7682	0.0233
5.82	0.0226
5.8727	0.0216
5.9264	0.0195
5.9811	0.0175
6.0368	0.0168
6.0935	0.0163
6.1513	0.0181
6.2103	0.0247
6.2703	0.0397
6.3316	0.0807
6.394	0.1815
6.4577	0.3384
6.5227	0.3446
6.589	0.3172
6.6566	0.2873
6.7257	0.2581
6.7962	0.2342
6.8682	0.2173
6.9418	0.2037
7.0169	0.1996
7.0937	0.179
7.1722	0.1325
7.2524	0.1089
7.3345	0.1018
7.4184	0.0959
7.5043	0.0906
7.5922	0.0868
7.6821	0.0863
7.7743	0.0844
7.8686	0.0829
7.9653	0.0813
8.0644	0.0782
8.166	0.0781
8.2701	0.0759
8.377	0.0709
8.4867	0.0684
8.5992	0.069
8.7149	0.0755
8.8336	0.0803
8.9556	0.0809
9.0811	0.0783
9.2101	0.0726
9.3428	0.0758
9.4795	0.0765
9.6201	0.076
9.765	0.0704
9.9144	0.0641
10.0684	0.0616
10.2272	0.0619
10.3911	0.0621
10.5604	0.059
10.7353	0.0597
10.9161	0.0644
11.103	0.0748
11.2965	0.1674
11.4968	0.0707
11.7044	0.0581
11.9196	0.0578
12.1429	0.0536
12.3747	0.0513
12.6155	0.0483
12.8659	0.046
13.1264	0.0456
13.3977	0.0442
13.6804	0.0362
13.9753	0.0372
