Name: Green Quartzite
Type: rock
Class: Metamorphic
Subclass: Quartzite
Particle Size: Fine
Sample No.: qrtzit6
Owner: JHU
Wavelength Range: All
Origin: Sample No. 475, The Hunt and Salisbury Collection at the U.S.Geological Survey, Denver, Co.
Description: This medium to coarse-grained rock is composed of well compacted rounded to subrounded strained quartz grains showing pressure solution effects, with some silica recrystallization and fluid inclusions present.  In the remaining small interstices and rimming the quartz is what appears to be fine to microcrystalline chlorite.  Additionally there are scattered opaques present in this section. Particle size was 0-75 Micrometer. Original ASTER Spectral Library name was jhu.becknic.rock.metamorphic.quartzite.fine.qrtzit6.spectrum.txt
Measurement: Directional (10 Degree) Hemispherical Reflectance
X Units: Wavelength (micrometers)
Y Units: Reflectance (percent)
wavelength	value
14.983	11.339
14.645	7.2387
14.321	2.0906
14.011	8.2608
13.715	10.052
13.43	9.0187
13.158	6.2121
12.896	3.439
12.644	2.554
12.402	1.853
12.169	2.678
11.945	7.2234
11.729	10.505
11.52	11.27
11.319	11.58
11.125	10.958
10.937	10.054
10.755	9.2913
10.58	8.689
10.41	8.2783
10.245	6.8062
10.086	5.4133
9.9313	5.0566
9.7814	4.7301
9.636	4.2956
9.4948	4.7311
9.3577	8.0351
9.2245	9.1772
9.095	8.7579
8.9691	8.4258
8.8467	7.9437
8.7275	7.1203
8.6116	5.2385
8.4986	7.1615
8.3886	6.8723
8.2814	7.8103
8.1769	10.163
8.075	8.2516
7.9756	6.1001
7.8786	3.7057
7.784	2.6241
7.6916	2.1063
7.6014	1.3905
7.5133	1.0905
7.4272	0.9483
7.343	1.0535
7.2607	1.4154
7.1803	2.0871
7.1016	3.0288
7.0246	3.8222
6.9493	5.1164
6.8755	5.8467
6.8034	5.8718
6.7327	5.2547
6.6634	5.9297
6.5956	6.1024
6.5292	6.6501
6.464	11.825
6.4002	12.839
6.3376	9.6379
6.2762	6.4833
6.216	4.9132
6.157	7.042
6.099	11.64
6.0421	13.139
5.9863	11.612
5.9315	9.6848
5.8777	13.477
5.8249	17.85
5.773	21.413
5.722	23.78
5.6719	21.067
5.6227	13.697
5.5744	11.962
5.5268	14.021
5.4801	17.887
5.4341	18.079
5.3889	10.252
5.3445	6.8447
5.3008	7.639
5.2578	10.939
5.2154	18.113
5.1738	19.587
5.1328	18.725
5.0925	17.768
5.0528	15.919
5.0137	15.593
4.9752	18.198
4.9373	23.672
4.9	32.311
4.8632	43.964
4.827	49.324
4.7913	52.591
4.7561	54.841
4.7215	55.81
4.6873	52.754
4.6536	56.03
4.6205	59.737
4.5877	61.05
4.5555	60.519
4.5237	56.597
4.4923	51.095
4.4614	50.045
4.4309	52.533
4.4008	55.227
4.3711	58.747
4.3418	61.202
4.3129	61.567
4.2844	61.389
4.2563	62.507
4.2285	62.413
4.2011	62.49
4.174	63.246
4.1473	64.072
4.1209	64.949
4.0949	65.955
4.0692	66.673
4.0438	66.778
4.0187	66.613
3.994	66.718
3.9695	67.125
3.9453	67.669
3.9214	67.928
3.8979	67.731
3.8746	67.263
3.8515	66.971
3.8288	67.051
3.8063	67.125
3.7841	66.859
3.7621	66.338
3.7404	65.939
3.7189	66.002
3.6977	66.388
3.6767	66.779
3.656	66.885
3.6355	66.726
3.6152	66.535
3.5951	66.294
3.5753	66.075
3.5557	65.894
3.5363	65.592
3.5171	64.91
3.4981	63.987
3.4793	64.192
3.4607	63.97
3.4423	63.3
3.4241	61.965
3.4061	61.629
3.3883	61.903
3.3707	61.646
3.3533	61.604
3.336	61.292
3.3189	60.897
3.302	60.427
3.2853	59.944
3.2687	59.438
3.2523	58.94
3.2361	58.424
3.22	57.922
3.204	57.419
3.1883	56.833
3.1727	56.235
3.1572	55.681
3.1419	55.026
3.1268	54.384
3.1117	53.948
3.0969	53.554
3.0821	53.158
3.0675	52.784
3.0531	52.403
3.0388	52.006
3.0246	51.749
3.0105	51.482
2.9966	51.258
2.9828	50.988
2.9692	50.627
2.9556	50.325
2.9422	50.278
2.9289	50.236
2.9157	50.208
2.9027	50.349
2.8897	50.524
2.8769	50.804
2.8642	51.071
2.8516	51.385
2.8391	51.565
2.8267	51.449
2.8144	50.847
2.8022	48.603
2.7902	43.167
2.7782	37.468
2.7664	28.669
2.7546	24.526
2.7429	27.264
2.7314	31.452
2.7199	44.778
2.7085	59.128
2.6973	65.441
2.6861	68.507
2.675	69.141
2.664	70.893
2.6531	71.65
2.6423	71.944
2.6315	71.899
2.6209	71.946
2.6103	72.002
2.5999	72.168
2.5895	72.244
2.5792	72.308
2.569	72.346
2.5588	72.433
2.5487	72.504
2.5388	72.558
2.5289	72.495
2.519	72.405
2.5093	72.266
2.4996	72.159
2.49	72.09
2.4805	72.033
2.471	71.942
2.4616	71.824
2.4523	71.719
2.4431	71.593
2.4339	71.609
2.4248	71.757
2.4157	71.944
2.4068	72.171
2.3979	72.254
2.389	72.2
2.3802	72.188
2.3715	72.194
2.3629	72.172
2.3543	72.079
2.3458	71.996
2.3373	72.092
2.3289	72.325
2.3206	72.472
2.3123	72.63
2.3041	72.723
2.2959	72.776
2.2878	72.834
2.2798	72.848
2.2718	72.794
2.2638	72.769
2.2559	72.745
2.2481	72.659
2.2403	72.521
2.2326	72.357
2.225	72.217
2.2173	71.914
2.2098	71.32
2.2023	70.702
2.1948	70.502
2.1874	71.072
2.18	71.702
2.1727	72.217
2.1655	72.437
2.1583	72.566
2.1511	72.68
2.144	72.655
2.1369	72.663
2.1299	72.715
2.1229	72.676
2.116	72.655
2.1091	72.713
2.1023	72.69
2.0955	72.671
2.0887	72.667
2.082	72.609
2.06	72.43
2.028	71.538
1.996	70.717
1.964	69.575
1.932	69.194
1.9	69.198
1.868	69.201
1.836	69.437
1.804	68.913
1.772	68.509
1.74	68.041
1.708	68.473
1.676	68.241
1.644	68.26
1.612	66.887
1.58	67.942
1.548	67.103
1.516	66.551
1.484	65.775
1.452	65.649
1.42	65.692
1.388	64.492
1.356	65.25
1.324	64.34
1.292	63.893
1.26	63.563
1.228	63.325
1.196	61.601
1.164	60.644
1.132	61.003
1.1	59.972
1.068	59.548
1.036	59.359
1.004	58.721
0.972	57.949
0.94	57.53
0.908	57.114
0.876	56.253
0.844	55.563
0.812	54.912
0.795	54.769
0.787	54.28
0.779	54.281
0.771	53.983
0.763	54.031
0.755	53.838
0.747	53.642
0.739	53.351
0.731	53.681
0.723	53.2
0.715	53.003
0.707	52.808
0.699	53.448
0.691	52.802
0.683	52.602
0.675	52.55
0.667	52.298
0.659	52.195
0.651	51.403
0.643	51.288
0.635	50.652
0.627	50.357
0.619	51.131
0.611	50.476
0.603	50.071
0.595	49.827
0.587	49.856
0.579	49.856
0.571	50.162
0.563	49.905
0.555	50.08
0.547	49.63
0.539	49.784
0.531	48.45
0.523	48.725
0.515	48.237
0.507	47.801
0.499	46.742
0.491	46.469
0.483	45.976
0.475	45.159
0.467	44.01
0.459	45.328
0.451	44.22
0.443	43.735
0.435	43.174
0.427	42.147
0.419	41.65
0.411	40.255
0.403	39.628
