Name: Tuff
Type: Rock
Class: Igneous
Subclass: Felsic
Particle Size: Solid
Sample No.: Ward04
Owner: JPL
Wavelength Range: All
Origin: Ward's Collection of American Rocks.  Sample locality - Cripple Creek, Teller county, Colorado.
Description: A light-gray felsitic rock, somewhat porous and earthy inappearance, with speckles of pyrite.Geologic age - Tertiary (Oligocene).Collected by:  Ward's Natural Science Original ASTER Spectral Library name was jpl.nicolet.rock.igneous.felsic.solid.ward04.spectrum.txt
Measurement: Hemispherical reflectance
X Units: Wavelength (micrometers)
Y Units: Reflectance (percent)
wavelength	value
15.3871	3.4587
15.118	2.7441
14.8581	2.7752
14.6069	2.942
14.3642	2.7477
14.1293	2.7097
13.9021	3.0563
13.682	2.7027
13.4687	3.3177
13.2621	2.9749
13.0616	3.2258
12.8672	3.2257
12.6784	3.0037
12.4951	2.9925
12.317	2.3393
12.1439	3.0831
11.9757	3.5679
11.812	3.7859
11.6527	3.9211
11.4977	4.4329
11.3468	4.4561
11.1997	4.8979
11.0564	5.2462
10.9168	5.3109
10.7806	5.2987
10.6478	5.9565
10.5182	6.5318
10.3917	7.1467
10.2683	8.0744
10.1477	9.1735
10.0299	10.0064
9.9148	10.9221
9.8024	10.6137
9.6925	11.6505
9.585	12.005
9.4798	10.8518
9.377	10.6264
9.2763	10.6069
9.1778	10.0477
9.0814	9.1928
8.987	8.7669
8.8945	9.0055
8.8039	9.2061
8.7151	9.1439
8.6281	8.8314
8.5428	10.0765
8.4592	10.4861
8.3772	10.7699
8.2967	10.3481
8.2179	9.7984
8.1404	7.592
8.0645	5.4977
7.9899	4.3272
7.9167	3.5418
7.8449	2.9497
7.7743	2.977
7.705	2.6565
7.6369	2.5198
7.57	2.0422
7.5043	2.2845
7.4397	2.1911
7.3762	2.1975
7.3138	2.2424
7.2524	2.0388
7.1921	2.1852
7.1327	2.2779
7.0743	2.275
7.0169	2.4074
6.9604	2.4421
6.9047	2.3513
6.85	2.5844
6.7962	2.4651
6.7431	2.6145
6.6909	2.639
6.6395	2.7458
6.5889	2.7431
6.539	2.6931
6.49	2.7688
6.4416	2.9218
6.3939	2.9096
6.347	2.7996
6.3007	2.6286
6.2551	2.3729
6.2101	2.2125
6.1658	2.0961
6.1222	2.2603
6.0791	2.3741
6.0366	2.4335
5.9948	2.5586
5.9535	2.687
5.9127	2.7666
5.8726	2.9911
5.8329	3.1274
5.7938	3.3726
5.7552	3.5053
5.7172	3.509
5.6796	3.6797
5.6425	3.6568
5.6059	3.6273
5.5698	3.6732
5.5341	3.929
5.4989	4.1443
5.4641	4.4576
5.4298	4.5275
5.3959	4.5557
5.3624	4.431
5.3294	4.5014
5.2967	4.8476
5.2644	4.9463
5.2326	5.1964
5.2011	5.6232
5.17	5.8314
5.1392	6.024
5.1088	6.1131
5.0788	6.2547
5.0491	6.3318
5.0198	6.4984
4.9908	6.8056
4.9622	7.5088
4.9338	7.9367
4.9058	8.429
4.8781	9.1928
4.8508	9.7359
4.8237	10.2282
4.7969	10.2331
4.7704	10.373
4.7443	10.9654
4.7184	11.2496
4.6927	11.6567
4.6674	12.0656
4.6423	12.5182
4.6175	13.3292
4.593	13.9973
4.5687	14.5234
4.5447	15.0362
4.5209	15.2148
4.4974	15.5135
4.4741	15.8234
4.451	16.3479
4.4282	16.8098
4.4057	17.3956
4.3833	17.9127
4.3612	18.4895
4.3393	18.9987
4.3176	18.9765
4.2962	19.1453
4.2749	19.0838
4.2539	19.9128
4.233	19.6351
4.2124	20.9081
4.192	21.5103
4.1717	21.9116
4.1517	22.174
4.1319	22.317
4.1122	22.7776
4.0927	23.0348
4.0734	23.1497
4.0543	23.3445
4.0354	23.3252
4.0166	23.4111
3.9981	23.7422
3.9796	23.8188
3.9614	23.7796
3.9433	23.8405
3.9254	24.0023
3.9077	24.0026
3.8901	23.9903
3.8726	23.9008
3.8554	23.6852
3.8382	23.5861
3.8213	23.5317
3.8045	23.4854
3.7878	23.1215
3.7713	22.8681
3.7549	22.6235
3.7386	22.266
3.7225	21.9843
3.7066	21.5263
3.6907	21.1327
3.675	21.0563
3.6595	20.5694
3.644	20.4738
3.6287	19.8536
3.6136	19.4327
3.5985	18.9744
3.5836	18.7056
3.5688	17.8783
3.5541	17.4447
3.5396	17.0983
3.5251	16.3013
3.5108	15.6035
3.4966	15.0683
3.4825	14.8364
3.4685	14.499
3.4547	14.1813
3.4409	13.3442
3.4273	12.9117
3.4137	12.1659
3.4003	12.1641
3.387	11.8137
3.3738	11.5979
3.3606	11.6261
3.3476	11.1151
3.3347	10.8782
3.3219	10.7564
3.3092	10.3785
3.2965	10.0257
3.284	9.9131
3.2716	9.6984
3.2593	9.7047
3.247	9.1534
3.2348	8.9763
3.2228	8.5442
3.2108	8.7625
3.1989	8.4174
3.1871	8.1006
3.1754	8.1374
3.1638	7.8856
3.1523	7.719
3.1408	7.4136
3.1294	7.3167
3.1181	7.182
3.1069	7.5494
3.0958	6.4864
3.0848	6.6544
3.0738	6.8363
3.0629	6.5456
3.0521	6.6715
3.0413	6.4643
3.0307	6.8236
3.0201	6.801
3.0096	6.2494
2.9991	5.9224
2.9887	6.1933
2.9784	6.0025
2.9682	5.7036
2.9581	6.5269
2.948	6.1196
2.9379	6.4027
2.928	6.2191
2.9181	6.4714
2.9083	5.9
2.8985	6.2141
2.8888	5.4134
2.8792	5.9634
2.8697	5.8047
2.8602	6.3397
2.8507	6.5091
2.8413	5.9979
2.832	5.9103
2.8228	6.1255
2.8136	6.0514
2.8045	6.1737
2.7954	6.0769
2.7864	5.5895
2.7774	5.7755
2.7685	5.6131
2.7597	4.6377
2.7509	5.7939
2.7422	6.0736
2.7335	5.6527
2.7249	5.8903
2.7163	6.0477
2.7078	5.4346
2.6994	6.3706
2.691	8.8195
2.6826	14.5556
2.6743	19.0693
2.666	21.6752
2.6578	24.4401
2.6497	26.1457
2.6416	27.4547
2.6336	28.4839
2.6256	29.5114
2.6176	30.3345
2.6097	30.9967
2.6018	31.437
2.594	31.3218
2.5863	31.6943
2.5785	32.3269
2.5709	32.7814
2.5633	32.9638
2.5557	33.4894
2.5481	33.8649
2.5406	34.3734
2.5332	34.5354
2.5258	34.9869
2.5184	35.6102
2.5111	35.6496
2.5038	35.8116
2.4966	36.7071
2.4894	36.755
2.4823	36.6482
2.4752	37.4834
2.4681	38.0693
2.4611	38.4169
2.4541	38.4919
2.4471	38.0568
2.4402	39.1376
2.4333	40.1744
2.4265	40.4353
2.4197	40.4682
2.413	40.8412
2.4063	41.105
2.3996	40.9366
2.3929	40.7299
2.3863	40.3168
2.3798	40.2092
2.3732	41.9695
2.3667	42.5081
2.3603	43.2989
2.3538	43.1961
2.3474	42.3123
2.3411	43.2435
2.3347	42.7043
2.3285	42.9947
2.3222	43.2957
2.316	43.437
2.3098	44.4472
2.3036	45.3163
2.2975	45.8221
2.2914	47.3729
2.2854	47.9571
2.2793	48.0953
2.2733	48.614
2.2674	48.9987
2.2614	48.6201
2.2555	48.9439
2.2497	47.3645
2.2438	48.0609
2.238	49.1053
2.2322	48.6613
2.2265	48.9476
2.2208	47.7698
2.2151	44.936
2.2094	41.2991
2.2038	42.9646
2.1982	45.5365
2.1926	45.7174
2.187	47.2205
2.1815	47.7292
2.176	48.1472
2.1706	48.258
2.1651	48.4003
2.1597	48.2402
2.1543	49.7608
2.149	50.9425
2.1436	51.1893
2.1383	51.3446
2.1331	52.3504
2.1278	53.6024
2.1226	52.4847
2.1174	53.777
2.1122	52.5342
2.1071	54.0362
2.1019	53.9374
2.0968	53.1913
2.0918	52.8403
2.0867	53.1227
2.0817	52.6761
2.0767	53.1482
2.0717	53.0918
2.0667	53.8566
2.0618	54.3755
2.0569	55.6665
2.052	55.1389
2.0472	53.9483
2.0423	52.9628
2.0375	53.2045
2.0327	53.2869
2.028	53.5993
2.0232	52.9505
2.0185	51.795
2.0138	53.4223
2.0091	52.3575
2.0044	52.7761
1.9998	53.7496
