Name: Anthophyllite Mica Schist
Type: rock
Class: Metamorphic
Subclass: Schist
Particle Size: Coarse
Sample No.: schist8
Owner: JHU
Wavelength Range: All
Origin: Sample No. 396, The Hunt and Salisbury Collection at the U.S.Geological Survey, Denver, Co.
Description: This is a very coarse-grained rock consisting of acicular anthophyllite crystals and biotite, the latter containing many haloes from abundant zircon inclusions.  The modes gave 52.1% biotite and 47.9% anthophyllite.Particle size was 500-1500 Micrometer. Original ASTER Spectral Library name was jhu.becknic.rock.metamorphic.schist.coarse.schist8.spectrum.txt
Measurement: Directional (10 Degree) Hemispherical Reflectance
X Units: Wavelength (micrometers)
Y Units: Reflectance (percent)
wavelength	value
14.9831	2.6758
14.6445	2.7087
14.3209	2.1844
14.0112	2.0738
13.7147	1.9118
13.4304	1.9253
13.1577	2.0342
12.8959	2.3461
12.6443	2.2952
12.4023	2.4733
12.1694	2.8013
11.945	3.2579
11.7289	3.6529
11.5203	4.0697
11.3191	4.6416
11.1248	5.1086
10.937	5.3584
10.7555	6.2922
10.5799	7.8872
10.4099	9.8212
10.2454	11.343
10.0859	13.0396
9.9313	16.6306
9.7814	19.3315
9.636	19.0348
9.4948	18.0657
9.3577	15.6301
9.2245	11.7394
9.095	8.5808
8.9691	7.2686
8.8467	5.5166
8.7275	3.9226
8.6116	2.6597
8.4986	1.2883
8.3886	0.9132
8.2814	0.8573
8.1769	0.9039
8.075	0.9529
7.9756	1.0396
7.8786	1.1261
7.784	1.2168
7.6916	1.3489
7.6014	1.4465
7.5133	1.5419
7.4272	1.6575
7.343	1.7863
7.2607	1.9478
7.1803	2.1176
7.1016	2.2777
7.0246	2.4044
6.9493	2.6246
6.8755	2.798
6.8034	3.054
6.7327	3.2816
6.6634	3.457
6.5956	3.4836
6.5292	3.5463
6.464	3.4873
6.4002	3.3239
6.3376	3.2044
6.2762	3.0445
6.216	2.7996
6.157	2.6552
6.099	2.5874
6.0421	2.6405
5.9863	2.7958
5.9315	2.9694
5.8777	3.129
5.8249	3.2164
5.773	3.3
5.722	3.373
5.6719	3.4819
5.6227	3.6079
5.5744	3.7244
5.5268	3.8944
5.4801	4.0782
5.4341	4.3174
5.3889	4.5803
5.3445	4.8907
5.3008	5.2692
5.2578	5.5787
5.2154	5.9514
5.1738	6.331
5.1328	6.4904
5.0925	6.5726
5.0528	6.6623
5.0137	6.7561
4.9752	6.8504
4.9373	6.9486
4.9	7.1405
4.8632	7.4313
4.827	7.7673
4.7913	8.2556
4.7561	8.8695
4.7215	9.5138
4.6873	10.2113
4.6536	10.984
4.6205	11.7977
4.5877	12.6194
4.5555	13.3822
4.5237	13.9788
4.4923	14.4422
4.4614	14.8105
4.4309	15.0719
4.4008	15.2469
4.3711	15.3954
4.3418	15.5148
4.3129	15.6256
4.2844	15.7563
4.2563	15.8709
4.2285	15.9867
4.2011	16.1632
4.174	16.3263
4.1473	16.4416
4.1209	16.6093
4.0949	16.7438
4.0692	16.8937
4.0438	17.0633
4.0187	17.2795
3.994	17.4761
3.9695	17.6854
3.9453	17.8654
3.9214	18.0397
3.8979	18.1586
3.8746	18.2362
3.8515	18.2917
3.8288	18.2507
3.8063	18.2135
3.7841	18.196
3.7621	18.0975
3.7404	18.02
3.7189	17.8933
3.6977	17.7297
3.6767	17.6134
3.656	17.4296
3.6355	17.2343
3.6152	16.9482
3.5951	16.6294
3.5753	16.2394
3.5557	15.7992
3.5363	15.4456
3.5171	15.16
3.4981	14.9263
3.4793	14.7745
3.4607	14.5066
3.4423	14.1673
3.4241	13.8611
3.4061	13.4346
3.3883	12.9562
3.3707	12.4859
3.3533	11.9959
3.336	11.6682
3.3189	11.3397
3.302	11.0029
3.2853	10.6896
3.2687	10.445
3.2523	10.1975
3.2361	9.9624
3.22	9.646
3.204	9.4146
3.1883	9.174
3.1727	8.9346
3.1572	8.6424
3.1419	8.2952
3.1268	7.9906
3.1117	7.6911
3.0969	7.4803
3.0821	7.2702
3.0675	7.1464
3.0531	7.014
3.0388	6.8707
3.0246	6.7493
3.0105	6.695
2.9966	6.5387
2.9828	6.4575
2.9692	6.2943
2.9556	6.1593
2.9422	6.0795
2.9289	5.9692
2.9157	5.8906
2.9027	5.8749
2.8897	5.9566
2.8769	5.967
2.8642	5.9995
2.8516	5.9457
2.8391	5.879
2.8267	5.775
2.8144	5.5041
2.8022	5.1299
2.7902	4.795
2.7782	4.4332
2.7664	4.2291
2.7546	4.1232
2.7429	4.4675
2.7314	4.4898
2.7199	4.9049
2.7085	5.6322
2.6973	6.1724
2.6861	8.2857
2.675	13.7517
2.664	14.8609
2.6531	15.107
2.6423	15.0897
2.6315	15.1932
2.6209	15.4565
2.6103	15.6024
2.5999	15.6431
2.5895	15.5254
2.5792	15.3613
2.569	15.3722
2.5588	15.3791
2.5487	15.4939
2.5388	15.4563
2.5289	15.4098
2.519	15.2202
2.5093	15.1079
2.4996	15.0279
2.49	14.8969
2.4805	14.7207
2.471	14.4962
2.4616	14.2861
2.4523	14.1227
2.4431	14.0638
2.4339	14.0439
2.4248	14.0725
2.4157	13.7356
2.4068	13.2484
2.3979	12.8172
2.389	12.4731
2.3802	12.4956
2.3715	13.0912
2.3629	13.3164
2.3543	13.1333
2.3458	12.5389
2.3373	11.8962
2.3289	11.2715
2.3206	11.326
2.3123	11.927
2.3041	12.8117
2.2959	13.7626
2.2878	14.7965
2.2798	15.776
2.2718	16.0488
2.2638	15.825
2.2559	14.7861
2.2481	14.0628
2.2403	15.7743
2.2326	18.3236
2.225	19.5636
2.2173	20.1284
2.2098	20.3898
2.2023	20.5461
2.1948	20.7136
2.1874	20.7962
2.18	20.8306
2.1727	20.9606
2.1655	20.998
2.1583	21.0598
2.1511	21.0731
2.144	21.1583
2.1369	21.1654
2.1299	21.1588
2.1229	21.303
2.116	21.3755
2.1091	21.4816
2.1023	21.5794
2.0955	21.8169
2.0887	21.9372
2.082	22.1709
2.06	23.0396
2.028	23.56
1.996	23.7858
1.964	23.8783
1.932	23.9048
1.9	23.6129
1.868	26.1646
1.836	27.0713
1.804	27.6841
1.772	27.5607
1.74	27.8279
1.708	27.7166
1.676	27.5251
1.644	27.132
1.612	26.3197
1.58	25.5273
1.548	24.7556
1.516	24.0391
1.484	22.9548
1.452	21.7891
1.42	20.7022
1.388	17.299
1.356	19.2723
1.324	18.5113
1.292	17.5745
1.26	16.632
1.228	15.943
1.196	15.0869
1.164	14.4477
1.132	13.6516
1.1	13.1532
1.068	12.3848
1.036	11.5014
1.004	10.9351
0.972	10.3481
0.94	9.9035
0.908	9.7834
0.876	9.8553
0.844	10.3881
0.812	11.2606
0.795	11.3415
0.787	11.6539
0.779	11.7244
0.771	11.9289
0.763	11.957
0.755	11.9996
0.747	12.0105
0.739	12.0204
0.731	11.8606
0.723	11.8985
0.715	11.7953
0.707	11.7539
0.699	11.512
0.691	11.2234
0.683	11.0606
0.675	10.9245
0.667	10.9271
0.659	10.7617
0.651	10.7172
0.643	10.4368
0.635	10.3796
0.627	10.2545
0.619	10.105
0.611	9.9468
0.603	9.816
0.595	9.6283
0.587	9.4938
0.579	9.149
0.571	9.0621
0.563	8.7432
0.555	8.6397
0.547	8.3195
0.539	8.1481
0.531	8.1018
0.523	7.9168
0.515	7.7851
0.507	7.7298
0.499	7.4145
0.491	7.3377
0.483	7.3166
0.475	7.2999
0.467	7.1368
0.459	6.9256
0.451	6.5858
0.443	6.4712
0.435	6.2034
0.427	5.946
0.419	5.5693
0.411	5.5592
0.403	5.3277
