Name: Oolitic Limestone
Type: rock
Class: Sedimentary
Subclass: Limestone
Particle Size: Fine
Sample No.: limestone_7
Owner: JHU
Wavelength Range: All
Origin: Sample No. 358,  The Hunt and Salisbury Collection at the U.S.Geological Survey, Denver, Co.
Description: Ooids in the sample are small (0.5-0.75 mm) with laminar structures largely destroyed by dolomitic recrystallization. Carbonate crystals show a heterogeneous distribution, from microcrystalline to fine medium-grained. Abundant quartz fragments and some altered plagioclase (albite twinning), opaques, carbonaceous material, ferruginous clay, and a brown-green to colorless micaceous mineral are also present. Particle size was 0 - 75 Micrometers. Original ASTER Spectral Library name was jhu.becknic.rock.sedimentary.limestone.fine.limest7.spectrum.txt
Measurement: Directional (10 Degree) Hemispherical Reflectance
X Units: Wavelength (micrometers)
Y Units: Reflectance (percent)
wavelength	value
14.983	9.7301
14.645	6.8371
14.321	3.8004
14.011	4.9625
13.715	3.319
13.43	8.3556
13.158	7.4595
12.896	3.2451
12.644	2.5687
12.402	1.9971
12.169	5.9907
11.945	10.17
11.729	9.5295
11.52	6.955
11.319	3.0019
11.125	10.644
10.937	11.34
10.756	11.595
10.58	11.5
10.41	11.591
10.245	11.074
10.086	9.3294
9.9313	8.2755
9.7814	6.8435
9.636	5.3224
9.4948	4.6392
9.3577	5.3378
9.2245	4.6075
9.095	3.8279
8.9691	3.5807
8.8467	3.3337
8.7275	3.1518
8.6116	2.8688
8.4986	3.2946
8.3886	3.6678
8.2814	4.369
8.1769	6.1567
8.075	7.9506
7.9756	9.6602
7.8786	10.558
7.784	11.247
7.6916	12.215
7.6014	12.375
7.5133	11.694
7.4272	10.64
7.343	8.6296
7.2607	6.2029
7.1803	4.5814
7.1016	3.7381
7.0246	3.9214
6.9493	3.4227
6.8755	3.2006
6.8034	3.1274
6.7327	3.2583
6.6634	3.418
6.5956	3.7784
6.5292	4.2781
6.464	5.1507
6.4002	6.1186
6.3376	7.0633
6.2762	5.0245
6.216	4.0074
6.157	4.2885
6.099	4.7036
6.0421	5.0477
5.9863	5.5242
5.9315	5.8891
5.8777	7.4772
5.8249	9.3239
5.773	10.793
5.722	12.022
5.6719	11.917
5.6227	9.9055
5.5744	6.1544
5.5268	5.6097
5.4801	8.1015
5.4341	14.77
5.3889	12.799
5.3445	10.682
5.3008	12.156
5.2578	16.138
5.2154	22.403
5.1738	23.926
5.1328	23.472
5.0925	22.519
5.0528	21.478
5.0137	21.797
4.9752	24.376
4.9373	28.685
4.9	34.45
4.8632	40.118
4.827	42.332
4.7913	43.448
4.7561	43.76
4.7215	42.752
4.6873	39.749
4.6536	38.185
4.6205	39.064
4.5877	40.985
4.5555	42.285
4.5237	42.484
4.4923	42.005
4.4614	41.43
4.4309	42.288
4.4008	44.017
4.3711	45.576
4.3418	45.814
4.3129	45.634
4.2844	45.604
4.2563	46.274
4.2285	46.585
4.2011	46.921
4.174	46.729
4.1473	46.18
4.1209	45.632
4.0949	44.286
4.0692	41.571
4.0438	36.169
4.0187	27.053
3.994	17.201
3.9695	11.057
3.9453	12.028
3.9214	14.222
3.8979	18.342
3.8746	20.575
3.8515	25.108
3.8288	25.072
3.8063	23.891
3.7841	29.957
3.7621	36.453
3.7404	41.677
3.7189	43.115
3.6977	43.573
3.6767	43.596
3.656	43.241
3.6355	42.67
3.6152	41.848
3.5951	40.784
3.5753	39.104
3.5557	36.77
3.5363	34.179
3.5171	28.471
3.4981	22.094
3.4793	18.096
3.4607	17.312
3.4423	18.331
3.4241	19.871
3.4061	20.343
3.3883	20.781
3.3707	20.591
3.3533	19.197
3.336	19.975
3.3189	19.605
3.302	21.791
3.2853	24.981
3.2687	25.21
3.2523	24.876
3.2361	24.335
3.22	23.68
3.2041	23.016
3.1883	22.317
3.1727	21.567
3.1572	20.872
3.1419	20.133
3.1268	19.511
3.1117	18.906
3.0969	18.37
3.0821	17.952
3.0675	17.637
3.0531	17.344
3.0388	17.103
3.0246	16.871
3.0105	16.58
2.9966	16.349
2.9828	16.112
2.9692	15.913
2.9556	15.649
2.9422	15.656
2.9289	15.686
2.9157	15.894
2.9027	16.139
2.8897	16.467
2.8769	16.934
2.8642	17.482
2.8516	18.122
2.8391	18.819
2.8267	19.525
2.8144	20.213
2.8022	20.712
2.7902	20.86
2.7782	22.226
2.7664	24.512
2.7546	28.39
2.7429	33.307
2.7314	39.501
2.7199	45.161
2.7085	51.093
2.6973	55.161
2.6861	57.888
2.675	59.473
2.664	61.471
2.6531	62.873
2.6423	63.65
2.6315	63.785
2.6209	64.211
2.6103	64.641
2.5999	64.741
2.5895	64.729
2.5792	64.75
2.569	64.537
2.5588	64.189
2.5487	63.244
2.5388	61.872
2.5289	61.043
2.519	60.975
2.5093	61.382
2.4996	61.942
2.49	62.688
2.4805	63.388
2.471	63.913
2.4616	64.522
2.4523	65.289
2.4431	66.157
2.4339	66.873
2.4248	67.477
2.4157	67.915
2.4068	68.258
2.3979	68.584
2.389	68.851
2.3802	68.988
2.3715	69.068
2.3629	68.939
2.3543	68.499
2.3458	67.822
2.3373	67.265
2.3289	67.004
2.3206	67.005
2.3123	67.142
2.3041	67.344
2.2959	67.535
2.2878	67.773
2.2798	67.981
2.2718	68.176
2.2638	68.396
2.2559	68.703
2.2481	68.972
2.2403	69.173
2.2326	69.322
2.225	69.46
2.2173	69.54
2.2098	69.671
2.2023	69.832
2.1948	69.932
2.1874	70.2
2.18	70.46
2.1727	70.687
2.1655	70.864
2.1583	71.017
2.1511	70.951
2.144	71.135
2.1369	71.125
2.1299	71.17
2.1229	71.172
2.116	71.232
2.1091	71.291
2.1023	71.24
2.0955	71.247
2.0887	71.233
2.082	71.303
2.06	70.999
2.028	70.4
1.996	68.645
1.964	68.021
1.932	66.378
1.9	68.074
1.868	68.472
1.836	69.555
1.804	70.402
1.772	69.75
1.74	70.16
1.708	70.16
1.676	70.304
1.644	69.783
1.612	69.902
1.58	70.114
1.548	69.934
1.516	69.747
1.484	69.142
1.452	68.145
1.42	67.717
1.388	68.737
1.356	68.307
1.324	67.923
1.292	67.475
1.26	67.472
1.228	68.367
1.196	67.036
1.164	65.816
1.132	66.105
1.1	65.693
1.068	65.491
1.036	64.616
1.004	63.859
0.972	63.384
0.94	63.25
0.908	62.867
0.876	62.407
0.844	62.575
0.812	62.823
0.795	62.748
0.787	62.576
0.779	62.884
0.771	62.441
0.763	61.955
0.755	61.858
0.747	61.775
0.739	61.465
0.731	61.659
0.723	60.714
0.715	60.688
0.707	60.379
0.699	60.434
0.691	60.462
0.683	60.038
0.675	59.135
0.667	59.038
0.659	58.518
0.651	58.315
0.643	57.41
0.635	56.906
0.627	56.266
0.619	56.139
0.611	54.851
0.603	54.26
0.595	54.469
0.587	53.376
0.579	52.967
0.571	52.275
0.563	50.754
0.555	49.716
0.547	49.387
0.539	48.499
0.531	47.894
0.523	46.913
0.515	45.782
0.507	44.7
0.499	44.036
0.491	42.784
0.483	41.701
0.475	40.696
0.467	39.722
0.459	38.74
0.451	37.796
0.443	36.293
0.435	34.971
0.427	33.944
0.419	32.535
0.411	31.494
0.403	30.057
