Name: Dolomite Marble
Type: Rock
Class: Metamorphic
Subclass: Marble
Particle Size: Solid
Sample No.: Ward97
Owner: JPL
Wavelength Range: All
Origin: Ward's Collection of American Rocks.  Sample locality - Thornwood, Westchester County, New York.  Collected by - JPL.
Description: A coarse granular marble composed mainly of dolomite.Geologic age -  Pre-CambrianCollected by:  Ward's Natural Science Original ASTER Spectral Library name was jpl.nicolet.rock.metamorphic.marble.solid.ward97.spectrum.txt
Measurement: Hemispherical reflectance
X Units: Wavelength (micrometers)
Y Units: Reflectance (percent)
wavelength	value
15.3871	3.6304
15.118	2.9823
14.8581	4.0128
14.6069	3.73
14.3642	4.1535
14.1293	3.6463
13.9021	4.505
13.682	4.7042
13.4687	2.5082
13.2621	3.9037
13.0616	4.1999
12.8672	4.782
12.6784	5.0025
12.4951	5.4835
12.317	5.4414
12.1439	5.9573
11.9757	5.8945
11.812	5.9596
11.6527	5.7824
11.4977	7.3408
11.3468	13.1009
11.1997	24.9232
11.0564	6.5178
10.9168	4.9815
10.7806	4.9759
10.6478	5.1433
10.5182	5.4865
10.3917	5.9649
10.2683	5.7742
10.1477	6.1195
10.0299	6.111
9.9148	6.6197
9.8024	6.6889
9.6925	6.6396
9.585	6.8869
9.4798	6.7831
9.377	6.7494
9.2763	6.5211
9.1778	6.6526
9.0814	6.251
8.987	6.2785
8.8945	6.2714
8.8039	6.5814
8.7151	6.843
8.6281	6.646
8.5428	6.663
8.4592	6.7989
8.3772	6.6245
8.2967	6.7159
8.2179	6.8407
8.1404	7.0802
8.0645	7.1594
7.9899	7.3309
7.9167	7.4902
7.8449	7.939
7.7743	8.1873
7.705	8.2052
7.6369	8.539
7.57	8.9811
7.5043	9.7025
7.4397	10.1085
7.3762	10.6219
7.3138	11.6748
7.2524	12.9192
7.1921	14.3848
7.1327	17.2226
7.0743	20.2375
7.0169	29.1193
6.9604	31.1393
6.9047	31.9909
6.85	33.7004
6.7962	36.0751
6.7431	37.7309
6.6909	40.6208
6.6395	45.98
6.5889	49.7871
6.539	51.4443
6.49	53.4414
6.4416	52.3909
6.3939	49.7724
6.347	34.1073
6.3007	15.3284
6.2551	6.9931
6.2101	3.8596
6.1658	2.2137
6.1222	1.3549
6.0791	1.3152
6.0366	0.8364
5.9948	1.0036
5.9535	0.7828
5.9127	1.0118
5.8726	1.2162
5.8329	1.1677
5.7938	1.3894
5.7552	1.1972
5.7172	1.4376
5.6796	1.8289
5.6425	1.6579
5.6059	1.8384
5.5698	1.842
5.5341	2.0108
5.4989	1.9394
5.4641	1.7004
5.4298	2.1649
5.3959	2.5903
5.3624	2.9249
5.3294	3.046
5.2967	3.2994
5.2644	3.6366
5.2326	3.9481
5.2011	4.2882
5.17	4.6797
5.1392	4.9813
5.1088	5.5312
5.0788	5.2835
5.0491	5.2488
5.0198	6.1566
4.9908	6.5546
4.9622	6.8821
4.9338	6.8686
4.9058	7.2661
4.8781	7.4654
4.8508	7.4798
4.8237	7.3657
4.7969	7.6495
4.7704	7.475
4.7443	7.418
4.7184	6.9583
4.6927	6.3145
4.6674	5.2285
4.6423	4.7444
4.6175	4.8643
4.593	5.0473
4.5687	5.6942
4.5447	5.9135
4.5209	6.5893
4.4974	7.2025
4.4741	7.1431
4.451	6.7836
4.4282	6.2822
4.4057	6.982
4.3833	7.6166
4.3612	8.1566
4.3393	7.2425
4.3176	6.7382
4.2962	6.4467
4.2749	5.9363
4.2539	6.8179
4.233	7.2801
4.2124	8.0907
4.192	8.3162
4.1717	8.2174
4.1517	7.8145
4.1319	7.8665
4.1122	7.6713
4.0927	7.1506
4.0734	6.6475
4.0543	6.3222
4.0354	5.8124
4.0166	4.899
3.9981	4.2689
3.9796	4.164
3.9614	3.96
3.9433	3.5955
3.9254	3.8749
3.9077	3.9013
3.8901	4.1835
3.8726	4.1582
3.8554	4.3217
3.8382	4.8915
3.8213	4.4048
3.8045	4.4803
3.7878	4.4701
3.7713	4.5388
3.7549	5.4457
3.7386	6.8771
3.7225	7.3926
3.7066	8.0102
3.6907	9.0451
3.675	9.2204
3.6595	9.6392
3.644	9.9688
3.6287	9.7579
3.6136	9.8941
3.5985	10.0728
3.5836	9.1955
3.5688	9.3195
3.5541	7.8142
3.5396	7.5618
3.5251	6.9283
3.5108	5.5903
3.4966	4.8498
3.4825	4.6732
3.4685	4.0384
3.4547	4.1946
3.4409	4.2811
3.4273	3.8717
3.4137	4.466
3.4003	4.6408
3.387	4.4382
3.3738	4.6101
3.3606	4.8942
3.3476	4.4818
3.3347	4.4966
3.3219	4.6469
3.3092	3.8857
3.2965	4.9222
3.284	5.6121
3.2716	7.2018
3.2593	6.6578
3.247	7.1912
3.2348	7.3943
3.2228	8.0403
3.2108	7.8602
3.1989	7.388
3.1871	7.9703
3.1754	8.0537
3.1638	7.8259
3.1523	7.7862
3.1408	7.4228
3.1294	7.3831
3.1181	7.4917
3.1069	7.8112
3.0958	8.1052
3.0848	6.4521
3.0738	6.578
3.0629	7.3241
3.0521	7.1282
3.0413	6.824
3.0307	7.3569
3.0201	7.7735
3.0096	7.996
2.9991	8.1039
2.9887	7.0488
2.9784	6.7056
2.9682	7.6007
2.9581	7.8785
2.948	7.5849
2.9379	7.2146
2.928	7.2332
2.9181	8.0343
2.9083	8.4826
2.8985	9.1121
2.8888	7.8242
2.8792	7.886
2.8697	8.9307
2.8602	8.8348
2.8507	8.9478
2.8413	8.1287
2.832	9.3125
2.8228	9.4766
2.8136	9.138
2.8045	8.5182
2.7954	8.8002
2.7864	8.8747
2.7774	7.7878
2.7685	8.6754
2.7597	8.999
2.7509	9.9902
2.7422	10.2621
2.7335	12.3446
2.7249	13.8446
2.7163	14.6794
2.7078	16.7733
2.6994	16.4365
2.691	17.3242
2.6826	18.7977
2.6743	22.559
2.666	24.7137
2.6578	26.6804
2.6497	27.7626
2.6416	28.3282
2.6336	28.9996
2.6256	29.3937
2.6176	30.543
2.6097	30.0494
2.6018	30.421
2.594	29.9712
2.5863	29.6121
2.5785	29.6067
2.5709	27.0098
2.5633	26.3896
2.5557	24.2047
2.5481	20.4674
2.5406	17.7156
2.5332	13.2325
2.5258	12.7523
2.5184	12.8466
2.5111	11.6284
2.5038	12.7429
2.4966	13.4217
2.4894	13.4388
2.4823	13.5377
2.4752	15.583
2.4681	15.5725
2.4611	15.8493
2.4541	16.6282
2.4471	16.9642
2.4402	18.8757
2.4333	20.59
2.4265	22.3644
2.4197	25.1239
2.413	26.1716
2.4063	27.0319
2.3996	26.7155
2.3929	28.7211
2.3863	28.1586
2.3798	29.8339
2.3732	31.3199
2.3667	31.891
2.3603	31.5168
2.3538	30.6297
2.3474	25.4211
2.3411	20.5813
2.3347	19.2231
2.3285	17.3648
2.3222	17.8119
2.316	17.3189
2.3098	18.2773
2.3036	18.4753
2.2975	18.0311
2.2914	20.6452
2.2854	19.9369
2.2793	21.009
2.2733	20.3657
2.2674	21.6242
2.2614	22.7429
2.2555	24.641
2.2497	26.4335
2.2438	27.6591
2.238	29.8802
2.2322	32.1325
2.2265	31.1599
2.2208	32.3367
2.2151	33.9623
2.2094	36.3779
2.2038	36.1747
2.1982	37.7486
2.1926	38.7306
2.187	39.5712
2.1815	38.9701
2.176	39.9509
2.1706	41.2519
2.1651	42.1688
2.1597	41.8961
2.1543	37.331
2.149	37.6457
2.1436	39.1539
2.1383	38.3049
2.1331	38.4074
2.1278	39.0982
2.1226	38.5809
2.1174	38.8726
2.1122	42.94
2.1071	40.92
2.1019	42.9182
2.0968	41.7513
2.0918	43.5262
2.0867	44.1435
2.0817	45.7265
2.0767	43.9135
2.0717	42.9783
2.0667	45.4231
2.0618	44.7686
2.0569	46.5714
2.052	43.9455
2.0472	44.8667
2.0423	45.1592
2.0375	45.0067
2.0327	46.4762
2.028	43.9703
2.0232	43.8177
2.0185	42.7533
2.0138	43.6142
2.0091	39.6863
2.0044	42.2217
1.9998	40.0179
