Name: Basalt
Type: Rock
Class: Igneous
Subclass: Mafic
Particle Size: Solid
Sample No.: Me11a
Owner: Lawrence Rowan, USGS Reston
Wavelength Range: All
Origin: Jebel, Jordan
Description: Basalt, fresh surfaceSample was Whole rock chips. Original ASTER Spectral Library name was usgs.perknic.rock.igneous.mafic.solid.me11a.spectrum.txt
Measurement: Directional Hemispherical Reflectance
X Units: Wavelength (micrometers)
Y Units: Reflectance (percent)
wavelength	value
14.051	3.8728
13.826	3.7286
13.609	3.5844
13.398	3.811
13.193	3.9449
12.995	3.9655
12.802	4.0479
12.616	4.3981
12.434	4.7174
12.258	5.2015
12.086	5.8813
11.92	6.4684
11.757	7.2924
11.6	8.3636
11.446	9.8468
11.297	10.6914
11.151	10.9798
11.009	11.639
10.87	11.8965
10.735	12.1952
10.604	12.4218
10.475	12.2055
10.35	13.6269
10.227	14.1831
10.108	14.1419
9.991	14.9762
9.877	15.6251
9.765	15.9547
9.656	16.2122
9.549	15.9856
9.445	14.626
9.343	12.6278
9.243	11.5978
9.145	11.8347
9.049	11.4536
8.956	10.0837
8.864	8.1988
8.774	6.695
8.686	5.6959
8.599	5.0161
8.515	4.429
8.431	4.2745
8.35	3.8728
8.27	3.5123
8.192	2.9355
8.115	2.5956
8.039	2.3999
7.965	2.3175
7.893	2.3587
7.821	2.2969
7.751	2.2969
7.682	2.3793
7.614	2.4205
7.548	2.5029
7.483	2.5132
7.418	2.5338
7.355	2.6883
7.293	2.7295
7.232	2.884
7.172	2.8943
7.113	3.0076
7.055	3.0385
6.998	3.1518
6.942	3.1518
6.886	3.296
6.832	3.296
6.778	3.4402
6.726	3.2548
6.674	3.3887
6.623	3.5329
6.572	3.5844
6.523	3.4917
6.474	3.4814
6.426	3.4608
6.378	3.2548
6.332	3.2342
6.286	3.1003
6.24	3.0282
6.195	3.0076
6.151	2.9458
6.108	2.9767
6.065	2.9561
6.023	2.9355
5.981	3.09
5.94	3.1415
5.899	3.2754
5.859	3.3784
5.82	3.5638
5.781	3.4917
5.743	3.605
5.705	3.7183
5.667	3.7183
5.63	3.8419
5.594	3.8419
5.558	3.7801
5.523	3.9449
5.487	3.8831
5.453	4.017
5.419	4.0273
5.385	4.0582
5.352	4.0891
5.319	3.9964
5.286	4.1097
5.254	4.0994
5.222	4.1303
5.191	4.1509
5.16	4.1612
5.129	4.1406
5.099	4.1509
5.069	4.1921
5.04	4.2436
5.01	4.2848
4.981	4.3466
4.953	4.3672
4.925	4.326
4.897	4.5011
4.869	4.429
4.842	4.532
4.815	4.5835
4.788	4.6247
4.762	4.6247
4.736	4.7277
4.71	4.7586
4.684	4.8719
4.659	4.8307
4.634	4.9646
4.61	4.9234
4.585	4.944
4.561	5.0573
4.537	5.0676
4.513	5.0985
4.49	5.2118
4.467	5.2221
4.444	5.3045
4.421	5.3148
4.398	5.4075
4.376	5.356
4.354	5.3972
4.332	5.356
4.311	5.4178
4.289	5.5311
4.268	5.5105
4.247	5.4487
4.226	5.6547
4.206	5.562
4.185	5.5517
4.165	5.5517
4.145	5.5208
4.126	5.5002
4.106	5.4899
4.086	5.5517
4.067	5.562
4.048	5.665
4.029	5.6135
4.011	5.459
3.992	5.6753
3.974	5.4178
3.956	5.5929
3.938	5.6341
3.92	5.6547
3.902	5.4796
3.884	5.6753
3.867	5.5517
3.85	5.6135
3.833	5.6238
3.816	5.6032
3.799	5.6238
3.782	5.4899
3.766	5.5723
3.75	5.4693
3.733	5.4075
3.717	5.6341
3.702	5.4693
3.686	5.5414
3.67	5.4487
3.655	5.4693
3.639	5.4178
3.624	5.5517
3.609	5.4796
3.594	5.4075
3.579	5.3869
3.564	5.4693
3.549	5.459
3.535	5.4899
3.521	5.3251
3.506	5.2942
3.492	5.2015
3.478	5.15
3.464	5.1397
3.45	5.2015
3.437	5.2633
3.423	5.1809
3.409	5.047
3.396	5.1603
3.383	5.0779
3.37	4.9749
3.357	4.9852
3.344	4.8101
3.331	4.9234
3.318	4.8925
3.305	4.9646
3.293	4.841
3.28	4.8925
3.268	4.7895
3.255	4.8719
3.243	4.7689
3.231	4.7895
3.219	4.6865
3.207	4.5217
3.195	4.7689
3.183	4.4702
3.172	4.5938
3.16	4.6762
3.149	4.5526
3.137	4.4805
3.126	4.5938
3.115	4.4084
3.103	4.326
3.092	4.3363
3.081	4.6144
3.07	4.3157
3.06	4.326
3.049	4.2951
3.038	4.2951
3.027	4.429
3.017	4.12
3.006	4.2127
2.996	4.2333
2.986	4.4187
2.975	4.0376
2.965	4.12
2.955	4.3363
2.945	4.2951
2.935	4.0994
2.925	4.0067
2.915	4.4187
2.905	4.12
2.896	4.1097
2.886	4.2333
2.876	4.0788
2.867	4.4702
2.857	4.3878
2.848	4.1406
2.838	4.2436
2.829	4.0685
2.82	3.9552
2.811	4.2745
2.802	4.2642
2.793	4.2539
2.784	4.326
2.775	4.2539
2.766	3.8316
2.757	4.3466
2.748	4.1509
2.74	5.1088
2.731	4.7586
2.722	5.2324
2.714	5.1191
2.705	5.9534
2.697	5.7165
2.688	6.283
2.68	6.4787
2.672	6.4684
2.664	6.6435
2.655	6.4375
2.647	6.5714
2.639	7.0658
2.631	6.9731
2.623	6.6126
2.615	6.7362
2.607	6.8907
2.599	6.6229
2.592	6.8392
2.584	6.695
2.576	6.9216
2.569	6.8289
2.561	6.9216
2.553	6.3242
2.546	6.7259
2.538	6.5508
2.531	6.3757
2.524	6.9216
2.516	6.3654
2.509	6.18
2.502	6.9216
2.48	7.3925
2.456	7.3733
2.432	7.1813
2.408	7.6492
2.384	7.9961
2.36	8.0311
2.336	7.9695
2.312	8.0764
2.288	8.0869
2.264	7.926
2.24	8.1257
2.216	8.257
2.192	8.3408
2.168	8.4078
2.144	8.6135
2.12	8.3582
2.096	8.4376
2.072	8.4784
2.048	8.5317
2.024	8.5387
2	8.601
1.976	8.5991
1.952	8.5448
1.928	8.4557
1.904	8.2703
1.88	8.5633
1.856	8.562
1.832	8.659
1.808	8.63
1.784	8.7262
1.76	8.7341
1.736	8.7072
1.712	8.701
1.688	8.7326
1.664	8.7378
1.64	8.7068
1.616	8.6404
1.592	8.5877
1.568	8.5715
1.544	8.4837
1.52	8.4261
1.496	8.4195
1.472	8.3685
1.448	8.2257
1.424	8.1591
1.4	8.1528
1.376	8.0419
1.352	7.9176
1.328	7.8912
1.304	7.7772
1.28	7.7344
1.256	7.7233
1.232	7.6113
1.208	7.5727
1.184	7.5232
1.16	7.5293
1.136	7.4749
1.112	7.4636
1.088	7.3693
1.064	7.3584
1.04	7.3675
1.016	7.4414
0.992	7.5075
0.968	7.6636
0.944	7.7832
0.92	8.0765
0.896	8.2745
0.872	8.3301
0.848	5.2425
0.824	7.7105
0.8	8.0871
0.776	8.1094
0.752	8.0961
0.728	8.1348
0.704	8.117
0.68	8.054
0.656	8.0745
0.632	8.0698
0.608	8.0916
0.584	8.1215
0.56	8.1426
0.536	8.1122
0.512	8.1122
0.488	8.0939
0.464	8.0776
0.44	8.155
0.416	8.1474
