Name: Argillaceous Shale
Type: rock
Class: Sedimentary
Subclass: Shale
Particle Size: Coarse
Sample No.: shale_7
Owner: JHU
Wavelength Range: All
Origin: Sample No. 386,  The Hunt and Salisbury Collection at the U.S.Geological Survey, Denver, Co.
Description: Sample contains microcrystalline brownish clay, quartz, and some carbonate, with discontinuous and irregular bands of hematite(?). There are fine-grained angular to subangular quartz grains throughout the sample, with regions of more concentrated grains rimmed by the opaque phase.Particle size was 500 - 1500 Micrometers. Original ASTER Spectral Library name was jhu.becknic.rock.sedimentary.shale.coarse.shale7.spectrum.txt
Measurement: Directional (10 Degree) Hemispherical Reflectance
X Units: Wavelength (micrometers)
Y Units: Reflectance (percent)
wavelength	value
14.9831	1.1725
14.6445	1.3885
14.3209	1.3596
14.0112	1.6274
13.7147	1.7318
13.4304	1.9343
13.1577	2.0885
12.8959	2.1086
12.6443	1.9019
12.4023	1.5218
12.1694	1.7077
11.945	1.9999
11.7289	2.2611
11.5203	2.5465
11.3191	2.6216
11.1248	2.6758
10.937	2.4911
10.7555	2.5216
10.5799	2.6886
10.4099	2.9008
10.2454	3.0691
10.0859	3.3022
9.9313	3.6072
9.7814	3.9129
9.636	4.3984
9.4948	4.8064
9.3577	5.2417
9.2245	4.8976
9.095	4.4455
8.9691	4.3607
8.8467	4.4396
8.7275	4.3574
8.6116	3.8402
8.4986	4.3863
8.3886	4.5504
8.2814	5.0894
8.1769	5.7442
8.075	5.0994
7.9756	4.5857
7.8786	4.0851
7.784	4.0216
7.6916	4.2137
7.6014	4.1826
7.5133	4.1907
7.4272	4.3508
7.343	4.2366
7.2607	3.7959
7.1803	3.1376
7.1016	2.869
7.0246	2.7295
6.9493	2.4908
6.8755	2.3852
6.8034	2.4015
6.7327	2.5268
6.6634	2.7866
6.5956	3.125
6.5292	3.4225
6.464	3.6103
6.4002	3.2418
6.3376	2.6334
6.2762	2.1079
6.216	1.7283
6.157	1.5166
6.099	1.4709
6.0421	1.567
5.9863	1.7392
5.9315	1.8465
5.8777	2.0961
5.8249	2.3589
5.773	2.5801
5.722	2.7729
5.6719	2.8842
5.6227	2.7724
5.5744	2.4899
5.5268	2.8051
5.4801	3.0059
5.4341	3.2176
5.3889	3.0009
5.3445	2.8264
5.3008	2.9758
5.2578	3.3311
5.2154	3.844
5.1738	4.0446
5.1328	4.1189
5.0925	4.1696
5.0528	4.1618
5.0137	4.2324
4.9752	4.5379
4.9373	5.0091
4.9	5.5578
4.8632	6.1248
4.827	6.3748
4.7913	6.5435
4.7561	6.6181
4.7215	6.6818
4.6873	6.6803
4.6536	6.8776
4.6205	7.1417
4.5877	7.319
4.5555	7.3977
4.5237	7.4372
4.4923	7.4384
4.4614	7.5426
4.4309	7.7884
4.4008	8.1003
4.3711	8.4051
4.3418	8.631
4.3129	8.8228
4.2844	8.9744
4.2563	9.1499
4.2285	9.4004
4.2011	9.5468
4.174	9.6661
4.1473	9.7862
4.1209	9.8693
4.0949	9.9205
4.0692	9.9096
4.0438	9.6372
4.0187	8.9322
3.994	7.3501
3.9695	6.5591
3.9453	7.2755
3.9214	7.8362
3.8979	8.3039
3.8746	8.4718
3.8515	8.8053
3.8288	9.0954
3.8063	9.0371
3.7841	9.426
3.7621	9.6678
3.7404	9.7388
3.7189	9.6924
3.6977	9.5771
3.6767	9.4726
3.656	9.3301
3.6355	9.1586
3.6152	8.9701
3.5951	8.7624
3.5753	8.4761
3.5557	8.1967
3.5363	7.9156
3.5171	7.4199
3.4981	6.9278
3.4793	6.6252
3.4607	6.6874
3.4423	6.5555
3.4241	6.3715
3.4061	6.2401
3.3883	6.2145
3.3707	6.1366
3.3533	6.0004
3.336	6.0132
3.3189	5.914
3.302	5.7939
3.2853	5.765
3.2687	5.6495
3.2523	5.5725
3.2361	5.4702
3.22	5.344
3.204	5.2149
3.1883	5.0842
3.1727	4.9042
3.1572	4.7695
3.1419	4.5824
3.1268	4.4306
3.1117	4.3174
3.0969	4.1469
3.0821	4.0413
3.0675	3.9825
3.0531	3.9004
3.0388	3.8592
3.0246	3.8061
3.0105	3.7495
2.9966	3.6749
2.9828	3.6484
2.9692	3.5745
2.9556	3.4959
2.9422	3.4537
2.9289	3.4416
2.9157	3.4786
2.9027	3.4843
2.8897	3.5264
2.8769	3.5816
2.8642	3.5605
2.8516	3.5773
2.8391	3.5719
2.8267	3.5155
2.8144	3.4109
2.8022	3.3261
2.7902	3.1165
2.7782	2.8193
2.7664	2.5543
2.7546	2.425
2.7429	2.6377
2.7314	3.1482
2.7199	3.9899
2.7085	5.389
2.6973	7.0685
2.6861	9.3665
2.675	10.6745
2.664	11.3792
2.6531	11.9928
2.6423	12.3445
2.6315	12.4873
2.6209	12.6377
2.6103	12.7791
2.5999	12.8733
2.5895	12.9723
2.5792	13.1153
2.569	13.1876
2.5588	13.2835
2.5487	13.3027
2.5388	13.3737
2.5289	13.3825
2.519	13.4469
2.5093	13.5044
2.4996	13.5544
2.49	13.6285
2.4805	13.6775
2.471	13.7457
2.4616	13.7926
2.4523	13.8528
2.4431	13.9262
2.4339	14.0418
2.4248	14.2134
2.4157	14.3532
2.4068	14.4993
2.3979	14.6111
2.389	14.7003
2.3802	14.7704
2.3715	14.8015
2.3629	14.8074
2.3543	14.7941
2.3458	14.797
2.3373	14.8962
2.3289	15.0558
2.3206	15.1917
2.3123	15.3409
2.3041	15.4394
2.2959	15.5474
2.2878	15.5668
2.2798	15.6218
2.2718	15.6277
2.2638	15.5633
2.2559	15.5275
2.2481	15.4804
2.2403	15.4354
2.2326	15.3388
2.225	15.1905
2.2173	15.1053
2.2098	15.0755
2.2023	15.1531
2.1948	15.3641
2.1874	15.5434
2.18	15.7397
2.1727	15.8794
2.1655	15.9789
2.1583	16.0618
2.1511	16.0883
2.144	16.1347
2.1369	16.1236
2.1299	16.1179
2.1229	16.1286
2.116	16.1759
2.1091	16.2039
2.1023	16.1946
2.0955	16.2425
2.0887	16.2451
2.082	16.3138
2.06	16.1059
2.028	16.3409
1.996	16.0798
1.964	15.6147
1.932	15.219
1.9	14.7576
1.868	16.4269
1.836	16.9651
1.804	16.9185
1.772	16.8988
1.74	16.8929
1.708	16.9129
1.676	17.081
1.644	16.9775
1.612	17.0868
1.58	17.0747
1.548	17.0592
1.516	16.793
1.484	16.6897
1.452	16.6114
1.42	16.3146
1.388	16.2438
1.356	16.5325
1.324	16.4705
1.292	16.4147
1.26	16.3321
1.228	16.1198
1.196	16.1618
1.164	15.975
1.132	15.923
1.1	15.7765
1.068	15.654
1.036	15.7173
1.004	15.6352
0.972	15.6007
0.94	15.7801
0.908	15.667
0.876	15.7163
0.844	15.5525
0.812	15.467
0.795	15.752
0.787	15.6608
0.779	15.7049
0.771	15.5338
0.763	15.7334
0.755	15.5255
0.747	15.6786
0.739	15.7041
0.731	15.4372
0.723	15.3873
0.715	15.4049
0.707	15.2728
0.699	15.2741
0.691	15.0447
0.683	15.1402
0.675	15.1837
0.667	15.0967
0.659	14.8851
0.651	14.8585
0.643	14.8123
0.635	14.6487
0.627	14.6698
0.619	14.5227
0.611	14.5099
0.603	14.37
0.595	14.2603
0.587	14.2732
0.579	13.9993
0.571	14.0015
0.563	13.8931
0.555	13.6258
0.547	13.6774
0.539	13.3859
0.531	13.3405
0.523	13.1683
0.515	13.0923
0.507	12.8223
0.499	12.8163
0.491	12.8019
0.483	12.5117
0.475	12.2804
0.467	12.2387
0.459	11.8633
0.451	11.7431
0.443	11.4438
0.435	10.9822
0.427	10.7866
0.419	10.4835
0.411	10.1039
0.403	10.0157
