Name: Aporhyolite (felsite)
Type: Rock
Class: Igneous
Subclass: Felsic
Particle Size: Solid
Sample No.: Ward05
Owner: JPL
Wavelength Range: VSWIR
Origin: Ward's Collection of American Rocks.  Sample locality - Mattapan, Suffolk County, Massachusetts.
Description: A dense felsitic rock varying in color from salmon to red.The original flow structure is often apparent.Geologic age - Devonian or Carboniferous. Geologic name - Mattapan Felsite.Collected by:  Ward's Natural Science Original ASTER Spectral Library name was jpl.perkin.rock.igneous.felsic.solid.ward05.spectrum.txt
Measurement: Hemispherical reflectance
X Units: Wavelength (micrometers)
Y Units: Reflectance (percent)
wavelength	value
2.5	19.1848
2.494	18.8715
2.488	18.8901
2.482	18.8575
2.476	18.6862
2.47	18.5649
2.464	18.5491
2.458	18.3312
2.452	18.3005
2.446	18.3573
2.44	18.4137
2.434	18.4459
2.428	18.6353
2.422	18.7947
2.416	18.8643
2.41	18.8754
2.404	18.9546
2.398	18.9482
2.392	18.8706
2.386	18.7197
2.38	18.6311
2.374	18.6393
2.368	18.6072
2.362	18.6016
2.356	18.6211
2.35	18.6878
2.344	18.8448
2.338	19.132
2.332	19.5353
2.326	19.8641
2.32	20.2623
2.314	20.636
2.308	20.8452
2.302	20.9809
2.296	21.0767
2.29	21.0951
2.284	21.0537
2.278	21.0497
2.272	21.0567
2.266	20.8044
2.26	20.3856
2.254	19.8799
2.248	19.4944
2.242	19.1859
2.236	19.1389
2.23	19.0441
2.224	18.7382
2.218	18.4256
2.212	18.4946
2.206	18.8523
2.2	19.5262
2.194	20.3569
2.188	20.9173
2.182	21.463
2.176	21.6745
2.17	21.8915
2.164	21.9483
2.158	22.0657
2.152	22.1482
2.146	22.197
2.14	22.1885
2.134	22.1833
2.128	22.1531
2.122	22.1007
2.116	22.0956
2.11	22.0615
2.104	22.0778
2.098	22.0401
2.092	22.1365
2.086	22.1599
2.08	22.1784
2.074	22.2297
2.068	22.2206
2.062	22.2958
2.056	22.27
2.05	22.2928
2.044	22.3266
2.038	22.2815
2.032	22.3254
2.026	22.3407
2.02	22.2222
2.014	22.2826
2.008	22.2882
2.002	22.2777
1.996	22.1814
1.99	22.1489
1.984	22.1086
1.978	22.0613
1.972	21.9879
1.966	21.9144
1.96	21.9079
1.954	21.8401
1.948	21.8413
1.942	21.7848
1.936	21.8474
1.93	21.6747
1.924	21.6617
1.918	21.6398
1.912	21.5841
1.906	21.7724
1.9	21.7964
1.894	22.0232
1.888	22.1485
1.882	22.1963
1.876	22.1488
1.87	22.1303
1.864	22.2162
1.858	22.2392
1.852	22.258
1.846	22.2134
1.84	22.2728
1.834	22.2054
1.828	22.2784
1.822	22.2795
1.816	22.2747
1.81	22.2699
1.804	22.3124
1.798	22.2991
1.792	22.2861
1.786	22.2724
1.78	22.2448
1.774	22.1747
1.768	22.2683
1.762	22.1951
1.756	22.1961
1.75	22.2518
1.744	22.1946
1.738	22.2308
1.732	22.2013
1.726	22.2782
1.72	22.2172
1.714	22.2162
1.708	22.2186
1.702	22.2701
1.696	22.2072
1.69	22.2502
1.684	22.2156
1.678	22.2555
1.672	22.305
1.666	22.3421
1.66	22.3205
1.654	22.3446
1.648	22.3079
1.642	22.4617
1.636	22.3496
1.63	22.4021
1.624	22.4972
1.618	22.487
1.612	22.4344
1.606	22.4651
1.6	22.4111
1.594	22.4681
1.588	22.4799
1.582	22.4964
1.576	22.5483
1.57	22.5607
1.564	22.5519
1.558	22.6121
1.552	22.6093
1.546	22.6745
1.54	22.6516
1.534	22.6687
1.528	22.6929
1.522	22.7338
1.516	22.772
1.51	22.7813
1.504	22.8311
1.498	22.7993
1.492	22.8733
1.486	22.8653
1.48	22.9178
1.474	22.9627
1.468	23.0107
1.462	23.01
1.456	23.0038
1.45	23.0721
1.444	22.9523
1.438	22.8057
1.432	22.5283
1.426	22.0523
1.42	21.6456
1.414	21.5625
1.408	22.0572
1.402	22.712
1.396	23.2456
1.39	23.5414
1.384	23.575
1.378	23.7499
1.372	23.7821
1.366	23.8911
1.36	24.0136
1.354	23.9301
1.348	24.0996
1.342	24.1514
1.336	24.2109
1.33	24.2345
1.324	24.25
1.318	24.3629
1.312	24.4604
1.306	24.5027
1.3	24.5888
1.294	24.6538
1.288	24.801
1.282	24.8886
1.276	24.9328
1.27	25.1133
1.264	25.1318
1.258	25.155
1.252	25.2746
1.246	25.3621
1.24	25.4538
1.234	25.5965
1.228	25.6419
1.222	25.6918
1.216	25.7609
1.21	25.906
1.204	25.9894
1.198	26.1058
1.192	26.149
1.186	26.3255
1.18	26.3645
1.174	26.4552
1.168	26.5067
1.162	26.6194
1.156	26.6468
1.15	26.8079
1.144	26.847
1.138	26.9814
1.132	27.0424
1.126	27.0687
1.12	27.1157
1.114	27.2211
1.108	27.2596
1.102	27.3949
1.096	27.427
1.09	27.5114
1.084	27.6087
1.078	27.5493
1.072	27.6007
1.066	27.6698
1.06	27.7082
1.054	27.7193
1.048	27.753
1.042	27.6708
1.036	27.6833
1.03	27.6156
1.024	27.5253
1.018	27.4567
1.012	27.3266
1.006	27.2084
1	27.041
0.994	26.8503
0.988	26.592
0.982	26.2844
0.976	25.9768
0.97	25.6439
0.964	25.3442
0.958	24.9899
0.952	24.691
0.946	24.3926
0.94	24.0059
0.934	23.6977
0.928	23.3708
0.922	23.1377
0.916	22.9041
0.91	22.609
0.904	22.3738
0.898	22.1804
0.892	22.0561
0.886	21.8642
0.88	21.7281
0.874	21.6447
0.868	21.602
0.862	21.5736
0.856	21.4762
0.85	21.4649
0.844	21.4982
0.838	21.562
0.832	21.612
0.826	21.6741
0.82	21.7618
0.814	21.8195
0.808	21.9244
0.802	22.013
0.796	22.0946
0.79	22.1467
0.784	22.1917
0.778	22.23
0.772	22.2475
0.766	22.2362
0.76	22.1782
0.754	22.0808
0.748	21.9461
0.742	21.7808
0.736	21.5603
0.73	21.3074
0.724	21.0142
0.718	20.7048
0.712	20.3697
0.706	20.0425
0.7	19.7174
0.694	19.3802
0.688	19.0717
0.682	18.7774
0.676	18.5003
0.67	18.2447
0.664	18.0074
0.658	17.8296
0.652	17.6287
0.646	17.4496
0.64	17.2751
0.634	17.1227
0.628	16.9583
0.622	16.7806
0.616	16.5793
0.61	16.3244
0.604	16.0004
0.598	15.5955
0.592	15.0859
0.586	14.4838
0.58	13.8345
0.574	13.1967
0.568	12.6368
0.562	12.1883
0.556	11.8168
0.55	11.5854
0.544	11.4373
0.538	11.3436
0.532	11.287
0.526	11.259
0.52	11.2465
0.514	11.2378
0.508	11.2282
0.502	11.2159
0.496	11.1895
0.49	11.1582
0.484	11.1176
0.478	11.1695
0.472	11.1949
0.466	11.2141
0.46	11.2138
0.454	11.1756
0.448	11.0965
0.442	11.0565
0.436	11.0759
0.43	11.0707
0.424	11.0525
0.418	11.0375
0.412	11.0134
0.406	10.9375
0.4	10.8568
