Name: Phosphorite
Type: Rock
Class: Sedimentary
Subclass: Shale
Particle Size: Solid
Sample No.: Phop002
Owner: USGS
Wavelength Range: All
Origin: Southeastern Idaho
Description: Phosphate ore from lower part of Meade PeakMember, Phosphoria Formation, unaltered (no chemicalweathering), contains quartz, hydroxylapatite, muscovite,and buddingtonite. Sample was Whole rock chips. Original ASTER Spectral Library name was usgs.perknic.rock.sedimentary.shale.solid.phop002.spectrum.txt
Measurement: Directional Hemispherical Reflectance
X Units: Wavelength (micrometers)
Y Units: Reflectance (percent)
wavelength	value
14.051	1.9879
13.826	2.1115
13.609	2.163
13.398	2.3278
13.193	2.2763
12.995	2.0806
12.802	2.3072
12.616	1.9158
12.434	1.9776
12.258	1.8849
12.086	2.3793
11.92	2.8531
11.757	3.2342
11.6	3.5741
11.446	3.5226
11.297	3.605
11.151	3.5638
11.009	3.2445
10.87	3.2754
10.735	3.2754
10.604	3.4196
10.475	3.4711
10.35	3.1003
10.227	3.09
10.108	3.1415
9.991	3.193
9.877	3.5123
9.765	3.5638
9.656	3.9861
9.549	4.2436
9.445	4.4805
9.343	5.0779
9.243	5.3766
9.145	4.9646
9.049	4.944
8.956	4.7792
8.864	4.8307
8.774	4.8101
8.686	4.4393
8.599	3.9037
8.515	4.635
8.431	4.9749
8.35	5.047
8.27	5.5311
8.192	5.9019
8.115	5.3457
8.039	4.2848
7.965	3.6256
7.893	2.9664
7.821	2.5338
7.751	2.4926
7.682	2.4205
7.614	2.4617
7.548	2.3896
7.483	2.2866
7.418	2.3072
7.355	2.1012
7.293	1.9879
7.232	1.8334
7.172	1.7613
7.113	1.4935
7.055	1.5244
6.998	1.2669
6.942	1.3905
6.886	1.4729
6.832	1.7613
6.778	2.0806
6.726	2.3484
6.674	2.678
6.623	2.9355
6.572	2.9149
6.523	3.0591
6.474	3.0179
6.426	2.8119
6.378	2.5544
6.332	2.4205
6.286	2.3072
6.24	2.1527
6.195	2.1527
6.151	2.2763
6.108	2.4514
6.065	2.5544
6.023	2.9458
5.981	3.2857
5.94	3.5741
5.899	4.3157
5.859	5.0985
5.82	6.0564
5.781	7.1482
5.743	8.1885
5.705	8.9507
5.667	8.9816
5.63	8.6005
5.594	8.2812
5.558	8.6417
5.523	9.3112
5.487	10.2588
5.453	10.7841
5.419	10.6296
5.385	9.1464
5.352	8.0958
5.319	8.2606
5.286	8.9404
5.254	10.2073
5.222	12.0098
5.191	13.0604
5.16	13.2046
5.129	13.2664
5.099	13.3385
5.069	12.6793
5.04	12.0304
5.01	10.6296
4.981	11.1034
4.953	12.6381
4.925	13.7505
4.897	15.2543
4.869	16.1607
4.842	16.7169
4.815	16.5521
4.788	16.5418
4.762	17.4585
4.736	18.1074
4.71	18.3958
4.684	18.2722
4.659	18.4988
4.634	18.7975
4.61	19.5082
4.585	20.291
4.561	20.5897
4.537	21.0841
4.513	21.3004
4.49	21.3519
4.467	21.4549
4.444	21.836
4.421	22.248
4.398	22.454
4.376	22.7836
4.354	23.3398
4.332	23.4222
4.311	23.484
4.289	23.0514
4.268	21.939
4.247	22.6806
4.226	23.7209
4.206	24.1432
4.185	24.3698
4.165	24.4625
4.145	24.6273
4.126	24.6479
4.106	24.7921
4.086	24.6479
4.067	24.5037
4.048	24.3595
4.029	23.9372
4.011	23.7209
3.992	23.9372
3.974	23.69
3.956	23.8342
3.938	23.8342
3.92	23.8239
3.902	23.5355
3.884	23.4531
3.867	23.1235
3.85	22.9381
3.833	22.7218
3.816	22.2686
3.799	22.0317
3.782	21.5579
3.766	21.3313
3.75	20.8575
3.733	20.4352
3.717	19.879
3.702	19.5288
3.686	19.261
3.67	18.643
3.655	18.0868
3.639	17.5512
3.624	17.0362
3.609	16.3049
3.594	15.7899
3.579	15.2646
3.564	14.4921
3.549	13.7505
3.535	13.2046
3.521	12.8338
3.506	12.4733
3.492	12.3085
3.478	11.8244
3.464	11.7214
3.45	11.6081
3.437	11.1343
3.423	10.7841
3.409	10.3824
3.396	10.0219
3.383	9.7129
3.37	8.9816
3.357	8.8065
3.344	8.343
3.331	8.0752
3.318	7.5499
3.305	7.2615
3.293	6.7259
3.28	6.6332
3.268	6.5405
3.255	6.2521
3.243	6.2212
3.231	6.0049
3.219	6.0152
3.207	5.7268
3.195	5.7165
3.183	5.4384
3.172	4.9852
3.16	5.047
3.149	4.6453
3.137	4.6453
3.126	4.4702
3.115	4.5011
3.103	4.4496
3.092	4.326
3.081	4.2642
3.07	4.2539
3.06	4.3466
3.049	4.3569
3.038	4.12
3.027	4.017
3.017	4.2127
3.006	4.223
2.996	4.3466
2.986	4.2436
2.975	4.5114
2.965	4.3672
2.955	4.5938
2.945	4.7689
2.935	4.6968
2.925	4.7586
2.915	4.8822
2.905	4.8101
2.896	4.8925
2.886	5.2942
2.876	5.0882
2.867	5.4487
2.857	5.3663
2.848	5.356
2.838	5.7783
2.829	5.6032
2.82	6.3242
2.811	5.7886
2.802	5.9534
2.793	6.0873
2.784	6.0976
2.775	5.7474
2.766	5.5723
2.757	5.2221
2.748	6.1182
2.74	7.0246
2.731	8.755
2.722	10.6193
2.714	12.4527
2.705	11.6493
2.697	14.9865
2.688	24.3698
2.68	30.6631
2.672	34.2372
2.664	36.8843
2.655	39.2224
2.647	40.7468
2.639	41.9416
2.631	42.2815
2.623	43.4042
2.615	43.7235
2.607	43.569
2.599	44.7432
2.592	44.702
2.584	44.8771
2.576	45.6187
2.569	45.5569
2.561	46.0719
2.553	46.3397
2.546	46.0616
2.538	46.3397
2.531	46.6796
2.524	46.3912
2.516	47.1843
2.509	47.2461
2.502	47.4006
2.48	47.6785
2.456	49.3688
2.432	51.1678
2.408	52.4464
2.384	53.5616
2.36	54.943
2.336	56.7171
2.312	58.2324
2.288	59.2011
2.264	59.3616
2.24	58.8667
2.216	57.4829
2.192	58.5047
2.168	59.1305
2.144	59.366
2.12	58.558
2.096	58.6906
2.072	58.9244
2.048	58.4333
2.024	57.446
2	56.5722
1.976	55.575
1.952	54.4103
1.928	53.4738
1.904	56.707
1.88	64.4889
1.856	67.1107
1.832	67.2951
1.808	67.3648
1.784	67.5819
1.76	67.6846
1.736	67.8392
1.712	67.9263
1.688	67.8108
1.664	67.6023
1.64	67.5927
1.616	67.4351
1.592	67.1485
1.568	66.6517
1.544	66.0927
1.52	65.5795
1.496	64.7755
1.472	63.9442
1.448	63.4178
1.424	62.4091
1.4	63.4854
1.376	65.3079
1.352	65.2701
1.328	65.1889
1.304	64.7983
1.28	64.2923
1.256	63.6118
1.232	62.8476
1.208	62.0566
1.184	61.0735
1.16	60.0669
1.136	59.0359
1.112	57.7986
1.088	56.5875
1.064	55.4751
1.04	54.3205
1.016	53.2133
0.992	52.1818
0.968	51.2109
0.944	50.1778
0.92	49.1554
0.896	48.6587
0.872	47.7075
0.848	46.535
0.824	45.1394
0.8	43.4186
0.776	41.3823
0.752	39.1328
0.728	36.7566
0.704	34.3959
0.68	32.2094
0.656	30.2249
0.632	28.4767
0.608	26.9503
0.584	25.5958
0.56	24.3019
0.536	23.0743
0.512	21.974
0.488	21.0486
0.464	20.5777
0.44	19.926
0.416	19.1511
