Name: Basalt
Type: Rock
Class: Igneous
Subclass: Mafic
Particle Size: Solid
Sample No.: Me13a
Owner: Lawrence Rowan, USGS Reston
Wavelength Range: All
Origin: Kerak Plateau, Middle East
Description: Basalt, fresh surfaceSample was Whole rock chips. Original ASTER Spectral Library name was usgs.perknic.rock.igneous.mafic.solid.me13a.spectrum.txt
Measurement: Directional Hemispherical Reflectance
X Units: Wavelength (micrometers)
Y Units: Reflectance (percent)
wavelength	value
14.051	3.3269
13.826	3.502
13.609	3.5226
13.398	3.6359
13.193	3.7698
12.995	3.8522
12.802	3.9552
12.616	3.9037
12.434	4.326
12.258	4.6865
12.086	5.356
11.92	5.9122
11.757	6.4478
11.6	7.2512
11.446	8.5284
11.297	9.682
11.151	10.1661
11.009	10.815
10.87	11.33
10.735	11.5566
10.604	11.4536
10.475	11.2373
10.35	11.4742
10.227	11.6596
10.108	11.7008
9.991	12.1746
9.877	12.6072
9.765	12.8235
9.656	12.7926
9.549	12.4218
9.445	11.6905
9.343	10.4957
9.243	9.4966
9.145	9.1361
9.049	9.4142
8.956	9.3318
8.864	9.1979
8.774	9.1773
8.686	8.8683
8.599	8.5799
8.515	8.3018
8.431	7.8383
8.35	7.21
8.27	5.7165
8.192	3.6153
8.115	2.6162
8.039	2.1527
7.965	1.8746
7.893	1.8128
7.821	1.7922
7.751	1.8231
7.682	1.8437
7.614	1.9261
7.548	1.9158
7.483	1.9879
7.418	2.0909
7.355	2.1836
7.293	2.1939
7.232	2.3072
7.172	2.4926
7.113	2.6677
7.055	2.8325
6.998	2.8943
6.942	3.0694
6.886	2.9767
6.832	3.1209
6.778	3.2136
6.726	3.2033
6.674	3.3475
6.623	3.4402
6.572	3.4299
6.523	3.4196
6.474	3.3681
6.426	3.1827
6.378	2.9561
6.332	2.8325
6.286	2.7913
6.24	2.6677
6.195	2.6677
6.151	2.5956
6.108	2.5441
6.065	2.5853
6.023	2.6986
5.981	2.6677
5.94	2.7707
5.899	2.8222
5.859	2.8737
5.82	3.0282
5.781	3.0591
5.743	3.1106
5.705	3.1003
5.667	3.2239
5.63	3.2239
5.594	3.2754
5.558	3.2754
5.523	3.3269
5.487	3.3784
5.453	3.4196
5.419	3.5432
5.385	3.5638
5.352	3.5535
5.319	3.6771
5.286	3.6874
5.254	3.7801
5.222	3.7904
5.191	3.8625
5.16	3.9037
5.129	4.0067
5.099	3.9655
5.069	4.0891
5.04	4.1509
5.01	4.2024
4.981	4.223
4.953	4.3775
4.925	4.2951
4.897	4.4393
4.869	4.429
4.842	4.4908
4.815	4.5732
4.788	4.5835
4.762	4.6659
4.736	4.7277
4.71	4.7792
4.684	4.8925
4.659	4.841
4.634	4.8616
4.61	5.0058
4.585	4.9852
4.561	5.1294
4.537	5.2839
4.513	5.2736
4.49	5.3354
4.467	5.4693
4.444	5.3972
4.421	5.4487
4.398	5.562
4.376	5.5208
4.354	5.7062
4.332	5.6444
4.311	5.7062
4.289	5.9534
4.268	5.8607
4.247	5.9843
4.226	5.9637
4.206	5.9637
4.185	5.9019
4.165	5.9328
4.145	5.9225
4.126	5.9431
4.106	5.9122
4.086	6.0255
4.067	5.9122
4.048	5.8813
4.029	5.8916
4.011	5.9328
3.992	5.8607
3.974	5.7989
3.956	5.9328
3.938	5.8607
3.92	6.0049
3.902	5.9534
3.884	6.1079
3.867	6.0564
3.85	6.0564
3.833	6.0255
3.816	6.0667
3.799	6.077
3.782	6.1079
3.766	6.1182
3.75	6.1285
3.733	6.1697
3.717	6.1285
3.702	6.0873
3.686	6.1491
3.67	6.1491
3.655	6.0976
3.639	6.0049
3.624	6.1697
3.609	5.9534
3.594	6.0976
3.579	5.9534
3.564	5.9843
3.549	5.9019
3.535	5.7989
3.521	5.8607
3.506	5.5929
3.492	5.5826
3.478	5.5105
3.464	5.6547
3.45	5.5414
3.437	5.6341
3.423	5.5517
3.409	5.5311
3.396	5.3251
3.383	5.3869
3.37	5.3972
3.357	5.3972
3.344	5.2221
3.331	5.2942
3.318	5.2221
3.305	5.253
3.293	5.253
3.28	5.1088
3.268	4.9955
3.255	4.9234
3.243	4.944
3.231	4.9852
3.219	4.8101
3.207	4.7689
3.195	4.8101
3.183	4.7071
3.172	4.6556
3.16	4.5629
3.149	4.635
3.137	4.6556
3.126	4.4908
3.115	4.4496
3.103	4.3363
3.092	4.3466
3.081	4.4702
3.07	4.4908
3.06	4.3054
3.049	4.5011
3.038	4.4084
3.027	4.3878
3.017	4.429
3.006	4.3157
2.996	4.4187
2.986	4.2642
2.975	4.2127
2.965	4.3054
2.955	4.1509
2.945	4.3363
2.935	4.4187
2.925	4.223
2.915	4.3054
2.905	4.4084
2.896	4.4599
2.886	4.0685
2.876	4.2951
2.867	4.4187
2.857	4.6865
2.848	4.4496
2.838	4.3363
2.829	4.5011
2.82	4.1818
2.811	4.3878
2.802	4.12
2.793	4.3775
2.784	4.326
2.775	4.5011
2.766	4.1406
2.757	4.1406
2.748	4.841
2.74	4.8307
2.731	5.0161
2.722	4.8925
2.714	5.5723
2.705	5.4075
2.697	5.7268
2.688	6.6435
2.68	7.1276
2.672	7.1585
2.664	7.0555
2.655	7.0967
2.647	7.3542
2.639	7.4469
2.631	7.2409
2.623	7.3336
2.615	7.5911
2.607	7.4469
2.599	7.5911
2.592	7.3851
2.584	7.828
2.576	7.3542
2.569	7.416
2.561	7.2924
2.553	7.622
2.546	7.0967
2.538	7.7044
2.531	7.416
2.524	7.5602
2.516	7.2512
2.509	7.7147
2.502	7.5911
2.48	7.3946
2.456	7.5764
2.432	8.0276
2.408	7.6497
2.384	7.3867
2.36	7.9185
2.336	7.8105
2.312	7.6686
2.288	8.111
2.264	8.08
2.24	8.1926
2.216	8.255
2.192	8.3191
2.168	8.5305
2.144	8.6275
2.12	8.4523
2.096	8.4752
2.072	8.5459
2.048	8.7019
2.024	8.649
2	8.7106
1.976	8.7809
1.952	8.6751
1.928	8.7011
1.904	8.4771
1.88	8.7624
1.856	8.8727
1.832	8.8769
1.808	8.9384
1.784	9.0586
1.76	9.0669
1.736	9.0391
1.712	9.09
1.688	9.1245
1.664	9.0823
1.64	9.017
1.616	8.9846
1.592	8.9769
1.568	8.9515
1.544	8.8897
1.52	8.8026
1.496	8.7181
1.472	8.7001
1.448	8.6066
1.424	8.5463
1.4	8.4357
1.376	8.342
1.352	8.2352
1.328	8.2886
1.304	8.1845
1.28	8.1559
1.256	8.1402
1.232	8.1178
1.208	8.103
1.184	8.0019
1.16	8.089
1.136	7.9852
1.112	7.8977
1.088	7.8144
1.064	7.7451
1.04	7.8121
1.016	7.8815
0.992	8.1134
0.968	8.277
0.944	8.5306
0.92	9.0114
0.896	9.2581
0.872	9.365
0.848	8.5069
0.824	9.5649
0.8	9.6428
0.776	9.7068
0.752	9.8134
0.728	9.8769
0.704	9.9233
0.68	9.9489
0.656	9.9503
0.632	9.9523
0.608	9.9822
0.584	9.9939
0.56	9.9648
0.536	9.928
0.512	9.9
0.488	9.8262
0.464	9.797
0.44	9.8214
0.416	9.8447
