Name: Limestone Breccia
Type: Rock
Class: Sedimentary
Subclass: Breccia
Particle Size: Solid
Sample No.: Ward47
Owner: JPL
Wavelength Range: VSWIR
Origin: Ward's Collection of American Rocks.  Sample locality - Two-Mile Canyon, near Boulder, Boulder County, Colorado.
Description: A pale reddish-brown rock composed of angular fragments oflimestone and sandy shale with a calcareous cement.Geologic age - Probably Permian.Collected by:  Ward's Natural Science Original ASTER Spectral Library name was jpl.perkin.rock.sedimentary.breccia.solid.ward47.spectrum.txt
Measurement: Hemispherical reflectance
X Units: Wavelength (micrometers)
Y Units: Reflectance (percent)
wavelength	value
2.5	18.451
2.494	18.3627
2.488	18.9596
2.482	19.6497
2.476	20.4882
2.47	21.6432
2.464	22.6871
2.458	23.7173
2.452	24.7279
2.446	25.6436
2.44	26.4911
2.434	27.499
2.428	28.217
2.422	28.9774
2.416	29.6257
2.41	30.0717
2.404	30.3804
2.398	30.2579
2.392	30.2314
2.386	30.0694
2.38	29.816
2.374	29.4815
2.368	28.8275
2.362	27.4852
2.356	25.7756
2.35	24.0781
2.344	22.9028
2.338	22.4781
2.332	22.6933
2.326	23.3484
2.32	24.1955
2.314	25.0146
2.308	25.6525
2.302	26.1614
2.296	26.7637
2.29	27.5022
2.284	28.3156
2.278	29.4318
2.272	30.4771
2.266	31.4224
2.26	32.2569
2.254	32.8927
2.248	33.4234
2.242	33.9806
2.236	34.4441
2.23	34.7272
2.224	34.7005
2.218	33.5276
2.212	31.6367
2.206	30.9472
2.2	32.1731
2.194	33.2093
2.188	33.9345
2.182	34.3996
2.176	34.4191
2.17	34.1087
2.164	33.7807
2.158	34.0016
2.152	34.7319
2.146	36.0386
2.14	37.169
2.134	37.9451
2.128	38.2211
2.122	38.3581
2.116	38.3163
2.11	38.4082
2.104	38.638
2.098	38.722
2.092	38.8579
2.086	38.9888
2.08	39.1506
2.074	39.1698
2.068	39.3404
2.062	39.3771
2.056	39.4271
2.05	39.4328
2.044	39.428
2.038	39.3729
2.032	39.2585
2.026	39.1203
2.02	38.8749
2.014	38.5924
2.008	38.2361
2.002	37.6823
1.996	37.3294
1.99	37.454
1.984	37.6532
1.978	37.6909
1.972	37.5511
1.966	37.6345
1.96	37.4431
1.954	37.3908
1.948	37.4295
1.942	37.3721
1.936	37.3209
1.93	37.2616
1.924	37.2817
1.918	37.3066
1.912	37.4099
1.906	37.787
1.9	38.4691
1.894	39.0086
1.888	39.148
1.882	39.0401
1.876	38.6715
1.87	39.3026
1.864	39.7092
1.858	39.9611
1.852	40.0441
1.846	40.0898
1.84	40.1596
1.834	40.3543
1.828	40.4181
1.822	40.477
1.816	40.5471
1.81	40.6411
1.804	40.6099
1.798	40.644
1.792	40.6876
1.786	40.6422
1.78	40.5969
1.774	40.6295
1.768	40.5841
1.762	40.4674
1.756	40.4873
1.75	40.5127
1.744	40.4621
1.738	40.5368
1.732	40.5757
1.726	40.5439
1.72	40.5674
1.714	40.6763
1.708	40.6682
1.702	40.704
1.696	40.6918
1.69	40.7108
1.684	40.7428
1.678	40.6585
1.672	40.6581
1.666	40.6814
1.66	40.6035
1.654	40.6605
1.648	40.5753
1.642	40.7181
1.636	40.6773
1.63	40.6754
1.624	40.6339
1.618	40.6303
1.612	40.6193
1.606	40.7658
1.6	40.5757
1.594	40.6441
1.588	40.6071
1.582	40.6088
1.576	40.5094
1.57	40.4668
1.564	40.5111
1.558	40.4687
1.552	40.4874
1.546	40.4589
1.54	40.426
1.534	40.4331
1.528	40.435
1.522	40.3849
1.516	40.3463
1.51	40.3569
1.504	40.2881
1.498	40.3353
1.492	40.2544
1.486	40.2217
1.48	40.269
1.474	40.2075
1.468	40.1577
1.462	40.1921
1.456	40.0853
1.45	40.078
1.444	40.0681
1.438	39.9931
1.432	39.9129
1.426	39.6598
1.42	38.7741
1.414	37.0365
1.408	38.2828
1.402	37.8461
1.396	37.9239
1.39	39.1166
1.384	39.774
1.378	40.2177
1.372	40.3408
1.366	40.4366
1.36	40.3165
1.354	40.4748
1.348	40.7116
1.342	40.6509
1.336	40.7151
1.33	40.7298
1.324	40.747
1.318	40.789
1.312	40.843
1.306	40.8656
1.3	40.9809
1.294	40.9742
1.288	41.0181
1.282	41.072
1.276	41.0536
1.27	41.1175
1.264	41.1968
1.258	41.1523
1.252	41.1914
1.246	41.1851
1.24	41.1926
1.234	41.2394
1.228	41.2459
1.222	41.343
1.216	41.3102
1.21	41.4095
1.204	41.4371
1.198	41.4927
1.192	41.4589
1.186	41.5032
1.18	41.5212
1.174	41.6057
1.168	41.6317
1.162	41.6331
1.156	41.7138
1.15	41.7244
1.144	41.78
1.138	41.8118
1.132	41.8453
1.126	41.7958
1.12	41.9126
1.114	41.9491
1.108	41.9276
1.102	42.0304
1.096	42.0901
1.09	42.0538
1.084	42.2547
1.078	42.1926
1.072	42.2997
1.066	42.1986
1.06	42.3464
1.054	42.4191
1.048	42.3846
1.042	42.4107
1.036	42.4456
1.03	42.4333
1.024	42.358
1.018	42.363
1.012	42.3505
1.006	42.3235
1	42.2191
0.994	42.0964
0.988	42.0088
0.982	41.8505
0.976	41.6757
0.97	41.476
0.964	41.285
0.958	41.1505
0.952	40.933
0.946	40.7041
0.94	40.4678
0.934	40.3351
0.928	40.1011
0.922	39.8175
0.916	39.6219
0.91	39.5153
0.904	39.26
0.898	39.1004
0.892	38.9936
0.886	38.8538
0.88	38.667
0.874	38.6192
0.868	38.4771
0.862	38.449
0.856	38.772
0.85	38.678
0.844	38.6471
0.838	38.6049
0.832	38.6048
0.826	38.5637
0.82	38.5704
0.814	38.5873
0.808	38.5465
0.802	38.5597
0.796	38.5074
0.79	38.4529
0.784	38.398
0.778	38.3388
0.772	38.2393
0.766	38.1066
0.76	37.9831
0.754	37.8075
0.748	37.5963
0.742	37.3543
0.736	37.0871
0.73	36.8027
0.724	36.5012
0.718	36.1439
0.712	35.7939
0.706	35.4395
0.7	35.0715
0.694	34.7125
0.688	34.3642
0.682	34.0263
0.676	33.6755
0.67	33.3562
0.664	33.0644
0.658	32.7433
0.652	32.4409
0.646	32.1325
0.64	31.8278
0.634	31.5124
0.628	31.1787
0.622	30.8375
0.616	30.4426
0.61	29.9881
0.604	29.4681
0.598	28.8385
0.592	28.0911
0.586	27.1842
0.58	26.1463
0.574	25.0153
0.568	23.8838
0.562	22.8163
0.556	21.9616
0.55	21.256
0.544	20.7192
0.538	20.3177
0.532	20.0242
0.526	19.7994
0.52	19.6155
0.514	19.4697
0.508	19.3384
0.502	19.2406
0.496	19.1239
0.49	19.0309
0.484	18.9523
0.478	18.7332
0.472	18.5639
0.466	18.406
0.46	18.2523
0.454	18.1099
0.448	17.9859
0.442	17.8428
0.436	17.6783
0.43	17.5325
0.424	17.3848
0.418	17.2521
0.412	17.1174
0.406	16.9693
0.4	16.8001
