Name: Limestone
Type: rock
Class: Sedimentary
Subclass: Limestone
Particle Size: Fine
Sample No.: limestone_3
Owner: JHU
Wavelength Range: All
Origin: Sample No. 381,  The Hunt and Salisbury Collection at the U.S.Geological Survey, Denver, Co.
Description: This is a very clean fine-grained to microcrystalline carbonate with little, if any, trace of clay.  There is, however, a trace of opaque material present.Particle size was 0 - 75 Micrometers. Original ASTER Spectral Library name was jhu.becknic.rock.sedimentary.limestone.fine.limest3.spectrum.txt
Measurement: Directional (10 Degree) Hemispherical Reflectance
X Units: Wavelength (micrometers)
Y Units: Reflectance (percent)
wavelength	value
14.983	16.346
14.645	18.839
14.321	19.79
14.011	13.483
13.715	1.6923
13.43	14.804
13.158	29.599
12.896	35.202
12.644	37.377
12.402	39.035
12.169	39.514
11.945	37.976
11.729	13.013
11.52	11.289
11.319	6.9103
11.125	29.902
10.937	31.704
10.755	33.036
10.58	33.494
10.41	34.206
10.245	31.71
10.086	29.084
9.9313	26.686
9.7814	25.003
9.636	23.777
9.4948	26.659
9.3577	25.792
9.2245	26.206
9.095	20.571
8.9691	26.019
8.8467	25.942
8.7275	24.299
8.6116	24.852
8.4986	20.985
8.3886	17.742
8.2814	21.22
8.1769	17.453
8.075	16.027
7.9756	16.66
7.8786	16.899
7.784	15.007
7.6916	12.626
7.6014	12.777
7.5133	10.555
7.4272	9.1458
7.343	7.621
7.2607	5.9024
7.1803	5.0842
7.1016	5.1834
7.0246	7.8102
6.9493	7.8651
6.8755	7.9771
6.8034	8.4539
6.7327	8.8929
6.6634	9.7386
6.5956	11.054
6.5292	12.596
6.464	14.321
6.4002	15.798
6.3376	15.617
6.2762	7.5899
6.216	4.9125
6.157	4.6814
6.099	3.7786
6.0421	4.2892
5.9863	5.1934
5.9315	6.4224
5.8777	7.6873
5.8249	8.9621
5.773	9.8023
5.722	10.824
5.6719	11.564
5.6227	10.6
5.5744	8.3039
5.5268	3.9593
5.4801	3.6801
5.4341	15.53
5.3889	26.04
5.3445	31.263
5.3008	33.968
5.2578	37.746
5.2154	41.345
5.1738	43.789
5.1328	45.61
5.0925	46.241
5.0528	44.131
5.0137	48.558
4.9752	49.207
4.9373	49.565
4.9	49.734
4.8632	49.835
4.827	49.814
4.7913	49.668
4.7561	49.433
4.7215	48.641
4.6873	45.979
4.6536	39.017
4.6205	37.214
4.5877	39.848
4.5555	43.342
4.5237	45.171
4.4923	47.885
4.4614	46.701
4.4309	45.267
4.4008	47.422
4.3711	49.1
4.3418	47.966
4.3129	44.607
4.2844	40.848
4.2563	40.81
4.2285	43.567
4.2011	47.347
4.174	47.499
4.1473	46.211
4.1209	45.996
4.0949	44.859
4.0692	42.227
4.0438	37.798
4.0187	29.921
3.994	18.185
3.9695	7.3569
3.9453	6.7279
3.9214	7.9056
3.8979	12.524
3.8746	14.275
3.8515	20.568
3.8288	22.606
3.8063	15.24
3.7841	21.102
3.7621	30.231
3.7404	40.98
3.7189	44.504
3.6977	46.058
3.6767	47.219
3.656	47.645
3.6355	47.711
3.6152	47.59
3.5951	47.247
3.5753	46.61
3.5557	43.752
3.5363	42.501
3.5171	37.242
3.4981	24.554
3.4793	16.052
3.4607	12.786
3.4423	12.902
3.4241	18.623
3.4061	20.408
3.3883	21.89
3.3707	23.976
3.3533	20.128
3.336	18.267
3.3189	17.215
3.302	17.43
3.2853	34.343
3.2687	38.216
3.2523	39.669
3.2361	40.299
3.22	40.426
3.204	40.367
3.1883	39.993
3.1727	39.516
3.1572	38.774
3.1419	37.511
3.1268	36.684
3.1117	35.98
3.0969	35.31
3.0821	34.521
3.0675	34.338
3.0531	34.083
3.0388	33.631
3.0246	33.366
3.0105	32.901
2.9966	32.364
2.9828	31.765
2.9692	31.156
2.9556	30.788
2.9422	30.55
2.9289	30.404
2.9157	30.504
2.9027	30.7
2.8897	31.127
2.8769	31.717
2.8642	32.41
2.8516	33.033
2.8391	34.053
2.8267	34.913
2.8144	35.733
2.8022	36.557
2.7902	37.125
2.7782	37.504
2.7664	37.679
2.7546	39.537
2.7429	41.382
2.7314	43.368
2.7199	44.853
2.7085	45.33
2.6973	46.934
2.6861	47.813
2.675	48.4
2.664	48.69
2.6531	48.922
2.6423	49.006
2.6315	48.879
2.6209	48.878
2.6103	48.936
2.5999	48.915
2.5895	48.798
2.5792	48.71
2.569	48.537
2.5588	48.333
2.5487	47.975
2.5388	46.842
2.5289	45.503
2.519	44.666
2.5093	44.78
2.4996	45.177
2.49	45.63
2.4805	46.149
2.471	46.268
2.4616	46.375
2.4523	46.56
2.4431	47.023
2.4339	47.384
2.4248	47.61
2.4157	47.804
2.4068	47.856
2.3979	47.843
2.389	47.858
2.3802	47.86
2.3715	47.923
2.3629	47.932
2.3543	47.712
2.3458	47.329
2.3373	46.751
2.3289	46.142
2.3206	46.051
2.3123	46.146
2.3041	46.289
2.2959	46.403
2.2878	46.505
2.2798	46.597
2.2718	46.577
2.2638	46.655
2.2559	46.743
2.2481	46.933
2.2403	47.027
2.2326	47.104
2.225	47.07
2.2173	47.069
2.2098	47.121
2.2023	47.018
2.1948	47.111
2.1874	46.954
2.18	46.998
2.1727	46.94
2.1655	46.992
2.1583	46.968
2.1511	46.894
2.144	46.781
2.1369	46.689
2.1299	46.736
2.1229	46.554
2.116	46.675
2.1091	46.738
2.1023	46.618
2.0955	46.619
2.0887	46.535
2.082	46.447
2.06	46.5
2.028	46.158
1.996	45.068
1.964	44.411
1.932	43.502
1.9	45.131
1.868	42.949
1.836	43.316
1.804	43.246
1.772	42.55
1.74	42.739
1.708	42.121
1.676	41.958
1.644	41.506
1.612	41.227
1.58	41.145
1.548	41.212
1.516	40.455
1.484	40.043
1.452	39.761
1.42	39.333
1.388	39.425
1.356	38.542
1.324	38.264
1.292	37.721
1.26	38.078
1.228	37.631
1.196	37.109
1.164	36.172
1.132	36.589
1.1	35.845
1.068	35.797
1.036	35.382
1.004	34.896
0.972	34.397
0.94	34.328
0.908	33.934
0.876	33.768
0.844	33.701
0.812	33.847
0.795	33.444
0.787	33.221
0.779	33.381
0.771	33.061
0.763	33.057
0.755	32.671
0.747	32.827
0.739	32.858
0.731	32.829
0.723	32.566
0.715	32.246
0.707	32.181
0.699	31.717
0.691	32.653
0.683	32.355
0.675	32.054
0.667	32.29
0.659	31.92
0.651	31.852
0.643	31.719
0.635	31.518
0.627	31.213
0.619	31.38
0.611	31.112
0.603	30.699
0.595	31.165
0.587	30.857
0.579	30.717
0.571	30.603
0.563	30.096
0.555	29.791
0.547	29.716
0.539	29.42
0.531	29.344
0.523	29.186
0.515	28.76
0.507	28.764
0.499	28.457
0.491	28.045
0.483	27.948
0.475	27.712
0.467	27.182
0.459	26.988
0.451	26.406
0.443	26.201
0.435	25.962
0.427	25.617
0.419	25.133
0.411	24.835
0.403	24.331
