Name: Tourmaline Schist
Type: rock
Class: Metamorphic
Subclass: Schist
Particle Size: Fine
Sample No.: schist4
Owner: JHU
Wavelength Range: All
Origin: Sample No. 468, The Hunt and Salisbury Collection at the U.S.Geological Survey, Denver, Co.
Description: This is a very coarse-grained rock containing euhedral brown tourmaline poikiloblastically enclosing quartz remnants, large subhedra of muscovite enclosing remnants of tourmaline or much lesser quartz, and recrystallized quartz.  Magnetite occurs scattered throughout this rock as well.  Modes were 35% quartz, 33% tourmaline, 30.6% muscovite and 1.4% opaques.   Particle size was 0-75 Micrometer. Original ASTER Spectral Library name was jhu.becknic.rock.metamorphic.schist.fine.schist4.spectrum.txt
Measurement: Directional (10 Degree) Hemispherical Reflectance
X Units: Wavelength (micrometers)
Y Units: Reflectance (percent)
wavelength	value
14.983	4.1488
14.645	3.2036
14.321	2.3677
14.011	3.4682
13.715	3.843
13.43	4.096
13.158	3.9885
12.896	3.4831
12.644	3.0627
12.402	2.8534
12.169	3.4895
11.945	5.3776
11.729	6.6699
11.52	7.8909
11.319	8.6627
11.125	8.0143
10.937	7.1874
10.756	6.22
10.58	5.2737
10.41	4.3917
10.245	4.0739
10.086	4.0083
9.9313	4.0803
9.7814	4.3572
9.636	5.0842
9.4948	5.4742
9.3577	6.3538
9.2245	5.8437
9.095	5.9744
8.9691	6.1328
8.8467	6.022
8.7275	5.9318
8.6116	4.7773
8.4986	6.2287
8.3886	6.1241
8.2814	6.425
8.1769	6.319
8.075	4.4308
7.9756	3.2903
7.8786	2.5162
7.784	2.1709
7.6916	2.0279
7.6014	1.8635
7.5133	1.9284
7.4272	2.1441
7.343	2.1249
7.2607	1.9781
7.1803	1.9255
7.1016	2.0601
7.0246	2.5294
6.9493	3.852
6.8755	5.46
6.8034	6.7002
6.7327	7.3425
6.6634	8.3856
6.5956	9.052
6.5292	9.9107
6.464	12.67
6.4002	13.42
6.3376	12.467
6.2762	10.896
6.216	9.9306
6.157	11.347
6.099	13.321
6.0421	13.408
5.9863	12.703
5.9315	12.131
5.8777	14.273
5.8249	16.781
5.773	18.573
5.722	19.572
5.6719	18.934
5.6227	16.262
5.5744	15.417
5.5268	16.563
5.4801	18.892
5.4341	19.893
5.3889	16.088
5.3445	13.79
5.3008	14.762
5.2578	17.6
5.2154	22.09
5.1738	23.24
5.1328	22.861
5.0925	22.176
5.0528	21.169
5.0137	21.072
4.9752	22.766
4.9373	25.921
4.9	29.914
4.8632	33.995
4.827	36.062
4.7913	37.631
4.7561	39.386
4.7215	41.032
4.6873	41.62
4.6536	43.142
4.6205	44.054
4.5877	43.814
4.5555	42.857
4.5237	41.218
4.4923	39.331
4.4614	38.589
4.4309	38.783
4.4008	39.22
4.3711	40.006
4.3418	40.801
4.3129	41.405
4.2844	42.104
4.2563	43.113
4.2285	44.174
4.2011	45.352
4.174	46.855
4.1473	48.396
4.1209	49.889
4.0949	51.068
4.0692	51.707
4.0438	51.748
4.0187	51.365
3.994	50.924
3.9695	50.459
3.9453	49.84
3.9214	48.793
3.8979	47.061
3.8746	44.863
3.8515	43.13
3.8288	42.739
3.8063	43.476
3.7841	44.541
3.7621	45.392
3.7404	45.796
3.7189	45.968
3.6977	46.258
3.6767	47.117
3.656	48.256
3.6355	49.299
3.6152	50.053
3.5951	50.551
3.5753	50.644
3.5557	50.49
3.5363	50.325
3.5171	50.194
3.4981	49.918
3.4793	49.71
3.4607	49.272
3.4423	48.795
3.4241	48.324
3.4061	47.835
3.3883	47.538
3.3707	46.987
3.3533	46.454
3.336	45.854
3.3189	45.249
3.302	44.676
3.2853	44.135
3.2687	43.617
3.2523	43.187
3.2361	42.74
3.22	42.3
3.2041	41.777
3.1883	41.166
3.1727	40.677
3.1572	40.078
3.1419	39.424
3.1268	38.797
3.1117	38.104
3.0969	37.433
3.0821	36.72
3.0675	36.143
3.0531	35.59
3.0388	35.175
3.0246	34.703
3.0105	34.355
2.9966	33.943
2.9828	33.482
2.9692	33.139
2.9556	33.016
2.9422	33.065
2.9289	32.726
2.9157	31.675
2.9027	28.944
2.8897	24.854
2.8769	21.289
2.8642	19.324
2.8516	18.733
2.8391	19.556
2.8267	18.055
2.8144	15.985
2.8022	14.972
2.7902	18.548
2.7782	20.968
2.7664	29.593
2.7546	28.436
2.7429	38.227
2.7314	48.053
2.7199	47.649
2.7085	50.676
2.6973	55.158
2.6861	54.548
2.675	60.276
2.664	63.023
2.6531	63.795
2.6423	63.986
2.6315	63.564
2.6209	63.22
2.6103	62.93
2.5999	62.817
2.5895	62.675
2.5792	62.715
2.569	62.864
2.5588	63.071
2.5487	63.242
2.5388	63.288
2.5289	63.293
2.519	63.202
2.5093	63.078
2.4996	63.124
2.49	63.254
2.4805	63.516
2.471	63.711
2.4616	64.063
2.4523	64.471
2.4431	64.886
2.4339	65.017
2.4248	65.036
2.4157	64.811
2.4068	64.498
2.3979	63.817
2.389	62.804
2.3802	60.306
2.3715	58.887
2.3629	60.116
2.3543	62.706
2.3458	64.558
2.3373	65.137
2.3289	65.633
2.3206	66.068
2.3123	66.121
2.3041	64.904
2.2959	64.534
2.2878	66.799
2.2798	67.711
2.2718	67.381
2.2638	66.514
2.2559	64.949
2.2481	63.504
2.2403	64.603
2.2326	65.969
2.225	65.73
2.2173	64.375
2.2098	61.958
2.2023	61.087
2.1948	63.903
2.1874	65.91
2.18	66.085
2.1727	66.228
2.1655	67.066
2.1583	67.446
2.1511	67.494
2.144	67.419
2.1369	67.491
2.1299	67.499
2.1229	67.714
2.116	67.528
2.1091	67.589
2.1023	67.375
2.0955	67.34
2.0887	67.487
2.082	67.278
2.06	67.026
2.028	65.784
1.996	65.03
1.964	64.146
1.932	63.223
1.9	62.827
1.868	62.117
1.836	61.557
1.804	59.988
1.772	58.104
1.74	57.48
1.708	56.587
1.676	55.242
1.644	53.936
1.612	51.937
1.58	51.487
1.548	48.917
1.516	47.689
1.484	45.89
1.452	44.402
1.42	42.925
1.388	41.369
1.356	40.467
1.324	39.112
1.292	37.772
1.26	36.724
1.228	35.925
1.196	35.027
1.164	34.255
1.132	33.927
1.1	34.268
1.068	34.56
1.036	35.602
1.004	36.912
0.972	38.281
0.94	39.759
0.908	40.717
0.876	40.493
0.844	38.982
0.812	36.691
0.795	35.721
0.787	35.181
0.779	34.895
0.771	34.343
0.763	34.081
0.755	34.035
0.747	33.448
0.739	33.159
0.731	33.317
0.723	33.129
0.715	32.981
0.707	33.129
0.699	33.463
0.691	33.398
0.683	33.498
0.675	33.777
0.667	34.105
0.659	34.168
0.651	34.145
0.643	34.719
0.635	34.172
0.627	34.617
0.619	34.904
0.611	35.179
0.603	34.673
0.595	34.657
0.587	34.545
0.579	34.132
0.571	34.074
0.563	33.593
0.555	33.418
0.547	32.765
0.539	32.665
0.531	31.626
0.523	31.473
0.515	30.879
0.507	30.458
0.499	29.829
0.491	29.587
0.483	28.933
0.475	28.42
0.467	28.104
0.459	28.446
0.451	28.092
0.443	27.774
0.435	27.947
0.427	27.586
0.419	27.414
0.411	27.135
0.403	27.284
