Name: Basalt
Type: rock
Class: Igneous
Subclass: Mafic
Particle Size: Fine
Sample No.: Basalt_H5
Owner: JHU
Wavelength Range: All
Origin: from Kilauea Iki Drill core, via Rosalind Helz, USGS, Reston, VA(Cat. No. KI 79-3-100)
Description: Sample from which the powder is derived is gray, medium-grained, slightly vesicular rock with plagioclase laths less than or equal to 3 mm, opaques, and a green phase approx. 1-2 mm in size, set in a grayish groundmass.Particle size was 0-75 micrometers. Original ASTER Spectral Library name was jhu.becknic.rock.igneous.mafic.fine.basal5.spectrum.txt
Measurement: Directional (10 degree) hemispherical reflectance
X Units: Wavelength (micrometers)
Y Units: Reflectance (percent)
wavelength	value
14.011	1.9068
13.715	2.279
13.43	2.0655
13.158	2.1729
12.896	2.3221
12.644	2.7199
12.402	3.4242
12.169	4.5907
11.945	4.2893
11.729	3.9281
11.52	3.7978
11.319	3.6878
11.125	3.3564
10.937	3.1793
10.755	3.0288
10.58	2.9055
10.41	2.7769
10.245	2.5141
10.086	2.5504
9.9313	2.6288
9.7814	2.5476
9.636	2.4342
9.4948	2.4249
9.3577	2.6418
9.2245	2.7989
9.095	2.9911
8.9691	2.8812
8.8467	2.5692
8.7275	2.3582
8.6116	2.2959
8.4986	2.3478
8.3886	2.4216
8.2814	2.6452
8.1769	2.6559
8.075	2.7844
7.9756	3.179
7.8786	3.7015
7.784	4.3575
7.6916	5.1302
7.6014	5.9128
7.5133	6.7615
7.4272	7.5904
7.343	8.4272
7.2607	9.1233
7.1803	9.7758
7.1016	10.47
7.0246	11.095
6.9493	11.711
6.8755	12.211
6.8034	12.592
6.7327	12.7
6.6634	12.616
6.5956	12.666
6.5292	12.736
6.464	12.901
6.4002	13.146
6.3376	13.347
6.2762	13.421
6.216	13.419
6.157	13.403
6.099	13.753
6.0421	14.274
5.9863	14.897
5.9315	15.647
5.8777	16.352
5.8249	16.87
5.773	17.421
5.722	17.889
5.6719	18.24
5.6227	18.58
5.5744	19.042
5.5268	19.475
5.4801	19.777
5.4341	19.907
5.3889	19.779
5.3445	19.491
5.3008	19.616
5.2578	20.222
5.2154	20.982
5.1738	21.518
5.1328	21.931
5.0925	22.25
5.0528	22.668
5.0137	23.232
4.9752	23.94
4.9373	24.681
4.9	25.492
4.8632	26.153
4.827	26.707
4.7913	27.206
4.7561	27.722
4.7215	28.319
4.6873	28.843
4.6536	29.368
4.6205	29.917
4.5877	30.47
4.5555	30.896
4.5237	31.268
4.4923	31.555
4.4614	31.746
4.4309	31.907
4.4008	32.071
4.3711	32.2
4.3418	32.348
4.3129	32.501
4.2844	32.615
4.2563	32.693
4.2285	32.792
4.2011	32.827
4.174	32.889
4.1473	32.911
4.1209	32.901
4.0949	32.924
4.0692	32.915
4.0438	32.907
4.0187	32.865
3.994	32.83
3.9695	32.85
3.9453	32.803
3.9214	32.771
3.8979	32.722
3.8746	32.683
3.8515	32.653
3.8288	32.609
3.8063	32.566
3.7841	32.498
3.7621	32.442
3.7404	32.388
3.7189	32.35
3.6977	32.276
3.6767	32.184
3.656	32.149
3.6355	32.058
3.6152	31.976
3.5951	31.892
3.5753	31.842
3.5557	31.742
3.5363	31.644
3.5171	31.554
3.4981	31.476
3.4793	31.385
3.4607	31.319
3.4423	31.187
3.4241	31.042
3.4061	30.917
3.3883	30.841
3.3707	30.816
3.3533	30.692
3.336	30.596
3.3189	30.465
3.302	30.328
3.2853	30.199
3.2687	30.074
3.2523	29.944
3.2361	29.796
3.22	29.624
3.204	29.466
3.1883	29.341
3.1727	29.181
3.1572	29.06
3.1419	28.953
3.1268	28.794
3.1117	28.651
3.0969	28.479
3.0821	28.383
3.0675	28.288
3.0531	28.211
3.0388	28.103
3.0246	27.959
3.0105	27.831
2.9966	27.707
2.9828	27.55
2.9692	27.393
2.9556	27.351
2.9422	27.163
2.9289	27.048
2.9157	26.982
2.9027	26.867
2.8897	26.764
2.8769	26.697
2.8642	26.593
2.8516	26.492
2.8391	26.437
2.8267	26.382
2.8144	26.385
2.8022	26.302
2.7902	26.291
2.7782	26.305
2.7664	26.353
2.7546	26.43
2.7429	26.588
2.7314	26.897
2.7199	27.343
2.7085	27.666
2.6973	27.782
2.6861	27.787
2.675	27.743
2.664	27.682
2.6531	27.622
2.6423	27.551
2.6315	27.419
2.6209	27.28
2.6103	27.165
2.5999	27.033
2.5895	26.905
2.5792	26.794
2.569	26.646
2.5588	26.499
2.5487	26.36
2.5388	26.207
2.5289	26.066
2.519	25.971
2.5093	25.888
2.4996	25.734
2.49	25.572
2.4805	25.532
2.471	25.33
2.4616	25.303
2.4523	25.124
2.4431	24.991
2.4339	24.91
2.4248	24.809
2.4157	24.712
2.4068	24.638
2.3979	24.521
2.389	24.466
2.3802	24.353
2.3715	24.343
2.3629	24.272
2.3543	24.229
2.3458	24.189
2.3373	24.144
2.3289	24.081
2.3206	24.061
2.3123	23.967
2.3041	24.013
2.2959	23.954
2.2878	23.921
2.2798	23.899
2.2718	23.923
2.2638	23.893
2.2559	23.846
2.2481	23.864
2.2403	23.869
2.2326	23.825
2.225	23.824
2.2173	23.862
2.2098	23.925
2.2023	23.939
2.1948	23.964
2.1874	23.927
2.18	24.027
2.1727	24.013
2.1655	24.025
2.1583	24.069
2.1511	24.054
2.144	24.163
2.1369	24.114
2.1299	24.218
2.1229	24.288
2.116	24.256
2.1091	24.285
2.1023	24.306
2.0955	24.396
2.0887	24.466
2.082	24.496
2.06	24.468
2.028	24.438
1.996	24.317
1.964	24.261
1.932	24.198
1.9	24.59
1.868	24.59
1.836	24.896
1.804	24.848
1.772	24.781
1.74	25.062
1.708	25.009
1.676	25.025
1.644	25.296
1.612	24.926
1.58	24.91
1.548	24.879
1.516	24.75
1.484	24.473
1.452	24.605
1.42	24.294
1.388	24.229
1.356	23.901
1.324	23.554
1.292	23.43
1.26	23.081
1.228	23.274
1.196	22.775
1.164	22.399
1.132	21.894
1.1	20.75
1.068	19.38
1.036	18.319
1.004	18.203
0.972	18.22
0.94	18.754
0.908	19.835
0.876	20.699
0.844	21.35
0.812	21.973
0.795	21.365
0.787	21.313
0.779	21.729
0.771	21.547
0.763	21.479
0.755	21.417
0.747	21.281
0.739	21.492
0.731	21.218
0.723	21.382
0.715	21.203
0.707	20.931
0.699	21.021
0.691	21.338
0.683	21.021
0.675	21.005
0.667	20.885
0.659	20.807
0.651	20.853
0.643	20.607
0.635	20.528
0.627	20.512
0.619	20.353
0.611	20.133
0.603	20.135
0.595	20.18
0.587	19.733
0.579	19.672
0.571	20.013
0.563	19.733
0.555	19.802
0.547	19.597
0.539	19.515
0.531	19.198
0.523	19.087
0.515	19.082
0.507	18.56
0.499	18.514
0.491	18.704
0.483	18.615
0.475	18.015
0.467	18.033
0.459	18.255
0.451	17.878
0.443	17.788
0.435	17.731
0.427	17.46
0.419	16.9
0.411	16.762
0.403	16.471
