Name: Basanite
Type: Rock
Class: Igneous
Subclass: Mafic
Particle Size: Solid
Sample No.: Mewy327b
Owner: Lawrence Rowan, USGS Reston
Wavelength Range: All
Origin: Yizreel Valley, Middle East
Description: Basanite, cut surfaceSample was Whole rock chips. Original ASTER Spectral Library name was usgs.perknic.rock.igneous.mafic.solid.mewy327b.spectrum.txt
Measurement: Directional Hemispherical Reflectance
X Units: Wavelength (micrometers)
Y Units: Reflectance (percent)
wavelength	value
14.051	4.0273
13.826	3.9037
13.609	3.7492
13.398	3.9346
13.193	3.7492
12.995	4.0067
12.802	3.9449
12.616	4.2127
12.434	4.4805
12.258	4.8719
12.086	5.562
11.92	5.9946
11.757	6.6023
11.6	7.5808
11.446	8.5078
11.297	9.27
11.151	9.8365
11.009	10.4854
10.87	10.8562
10.735	10.9798
10.604	11.1652
10.475	11.0931
10.35	11.7523
10.227	12.1128
10.108	12.0304
9.991	12.3703
9.877	12.8544
9.765	13.0913
9.656	13.2767
9.549	13.0707
9.445	12.772
9.343	11.742
9.243	10.8562
9.145	10.5472
9.049	10.4236
8.956	9.7129
8.864	8.4769
8.774	7.5705
8.686	6.9731
8.599	6.4272
8.515	6.0873
8.431	5.5311
8.35	5.0882
8.27	4.3054
8.192	3.4917
8.115	3.193
8.039	3.0385
7.965	2.9973
7.893	3.0694
7.821	2.9458
7.751	3.0694
7.682	3.0179
7.614	3.0591
7.548	3.0591
7.483	3.1621
7.418	3.1621
7.355	3.2239
7.293	3.3475
7.232	3.3269
7.172	3.3578
7.113	3.3372
7.055	3.4196
6.998	3.4196
6.942	3.4917
6.886	3.5329
6.832	3.4814
6.778	3.502
6.726	3.4917
6.674	3.4608
6.623	3.502
6.572	3.5226
6.523	3.4711
6.474	3.5123
6.426	3.4814
6.378	3.4917
6.332	3.4196
6.286	3.4299
6.24	3.4299
6.195	3.2754
6.151	3.193
6.108	3.193
6.065	3.2033
6.023	3.1621
5.981	3.3475
5.94	3.3887
5.899	3.4711
5.859	3.605
5.82	3.7801
5.781	3.8007
5.743	3.8316
5.705	3.9037
5.667	3.9758
5.63	3.9449
5.594	3.9552
5.558	3.9346
5.523	4.0788
5.487	4.0891
5.453	4.1509
5.419	4.1921
5.385	4.2024
5.352	4.2024
5.319	4.2436
5.286	4.2436
5.254	4.2848
5.222	4.2642
5.191	4.3054
5.16	4.2951
5.129	4.3981
5.099	4.3878
5.069	4.3569
5.04	4.4599
5.01	4.3569
4.981	4.3569
4.953	4.4599
4.925	4.4805
4.897	4.4393
4.869	4.5217
4.842	4.5217
4.815	4.5011
4.788	4.6247
4.762	4.4496
4.736	4.6247
4.71	4.5217
4.684	4.5732
4.659	4.6453
4.634	4.6247
4.61	4.7071
4.585	4.7277
4.561	4.7895
4.537	4.7483
4.513	4.7586
4.49	4.841
4.467	4.7174
4.444	4.7998
4.421	4.8822
4.398	4.7998
4.376	4.8616
4.354	4.8719
4.332	4.8616
4.311	4.841
4.289	4.8719
4.268	4.7895
4.247	4.8513
4.226	4.8925
4.206	4.9028
4.185	4.9028
4.165	4.9234
4.145	4.9646
4.126	4.9234
4.106	4.9131
4.086	4.841
4.067	4.8822
4.048	4.8822
4.029	4.9337
4.011	4.8101
3.992	4.944
3.974	4.9234
3.956	4.9131
3.938	4.8307
3.92	4.9028
3.902	4.8925
3.884	4.9028
3.867	4.8307
3.85	4.9028
3.833	4.8307
3.816	4.8822
3.799	4.8925
3.782	4.9028
3.766	4.9543
3.75	4.841
3.733	4.8307
3.717	4.8101
3.702	4.8925
3.686	4.841
3.67	4.8719
3.655	4.841
3.639	4.841
3.624	4.8204
3.609	4.9131
3.594	4.9131
3.579	4.7586
3.564	4.7895
3.549	4.8513
3.535	4.7483
3.521	4.8204
3.506	4.532
3.492	4.6762
3.478	4.6659
3.464	4.7277
3.45	4.738
3.437	4.7689
3.423	4.6144
3.409	4.5835
3.396	4.635
3.383	4.5217
3.37	4.5423
3.357	4.4908
3.344	4.5114
3.331	4.5114
3.318	4.4496
3.305	4.5938
3.293	4.5011
3.28	4.4599
3.268	4.5732
3.255	4.5629
3.243	4.4805
3.231	4.4702
3.219	4.3775
3.207	4.2642
3.195	4.4084
3.183	4.4908
3.172	4.4084
3.16	4.326
3.149	4.3157
3.137	4.5217
3.126	4.4702
3.115	4.2642
3.103	4.326
3.092	4.2951
3.081	4.3054
3.07	4.223
3.06	4.3569
3.049	4.326
3.038	4.3672
3.027	4.1715
3.017	4.3569
3.006	4.2127
2.996	4.1715
2.986	4.2951
2.975	4.4496
2.965	4.326
2.955	4.2642
2.945	4.1818
2.935	4.2745
2.925	4.2951
2.915	4.1921
2.905	4.2642
2.896	4.3878
2.886	4.3466
2.876	4.2642
2.867	4.2024
2.857	4.4496
2.848	4.2642
2.838	4.3569
2.829	4.3054
2.82	4.6041
2.811	4.4187
2.802	4.6247
2.793	4.5835
2.784	4.429
2.775	4.6968
2.766	4.2024
2.757	4.1715
2.748	4.5217
2.74	4.5011
2.731	4.9646
2.722	5.2221
2.714	4.9749
2.705	5.6238
2.697	5.3766
2.688	5.4384
2.68	6.0049
2.672	5.7474
2.664	5.9019
2.655	5.9534
2.647	6.0667
2.639	6.1182
2.631	5.3972
2.623	5.9946
2.615	5.9534
2.607	5.7577
2.599	5.7989
2.592	5.974
2.584	6.1491
2.576	5.7165
2.569	5.9328
2.561	6.18
2.553	6.0564
2.546	6.1903
2.538	5.9534
2.531	6.0976
2.524	6.0564
2.516	6.0049
2.509	6.3036
2.502	5.7268
2.48	5.8964
2.456	6.2613
2.432	5.8969
2.408	5.9461
2.384	6.4806
2.36	6.66
2.336	6.3252
2.312	6.5918
2.288	6.4796
2.264	6.6046
2.24	6.6998
2.216	6.6733
2.192	7.0538
2.168	7.0532
2.144	7.1237
2.12	7.0062
2.096	6.988
2.072	7.0293
2.048	7.0839
2.024	7.1608
2	7.2033
1.976	7.2799
1.952	7.3318
1.928	7.2818
1.904	7.0824
1.88	7.2386
1.856	7.3356
1.832	7.3948
1.808	7.4011
1.784	7.53
1.76	7.5382
1.736	7.5595
1.712	7.5711
1.688	7.6832
1.664	7.6506
1.64	7.6319
1.616	7.5962
1.592	7.6195
1.568	7.6618
1.544	7.6611
1.52	7.6374
1.496	7.6846
1.472	7.7032
1.448	7.7277
1.424	7.7754
1.4	7.7834
1.376	7.7927
1.352	7.6923
1.328	7.8466
1.304	7.8128
1.28	7.8636
1.256	7.9107
1.232	7.9991
1.208	8.0055
1.184	8.0215
1.16	8.125
1.136	8.1634
1.112	8.2111
1.088	8.3024
1.064	8.3368
1.04	8.4915
1.016	8.6292
0.992	8.8461
0.968	8.9917
0.944	9.2773
0.92	9.6506
0.896	9.8831
0.872	9.9982
0.848	9.9413
0.824	10.1132
0.8	10.311
0.776	10.424
0.752	10.5535
0.728	10.711
0.704	10.8174
0.68	10.9723
0.656	11.1406
0.632	11.2814
0.608	11.4685
0.584	11.6351
0.56	11.82
0.536	12.0017
0.512	12.195
0.488	12.3302
0.464	12.5821
0.44	12.8007
0.416	12.9803
