Name: Basalt
Type: rock
Class: Igneous
Subclass: Mafic
Particle Size: Fine
Sample No.: Basalt_H1
Owner: JHU
Wavelength Range: All
Origin: from Chimney Rock, Somerset County, New Jersey, via Ward'sScientific (Cat. No. W-36)
Description: The sample from which the powder was derived is greenish-black aphanitic rock.Particle size was 0-75 micrometers. Original ASTER Spectral Library name was jhu.becknic.rock.igneous.mafic.fine.basal1.spectrum.txt
Measurement: Directional (10 degree) hemispherical reflectance
X Units: Wavelength (micrometers)
Y Units: Reflectance (percent)
wavelength	value
14.011	3.2175
13.715	3.9037
13.43	2.6625
13.158	2.4347
12.896	2.6133
12.644	2.2964
12.402	3.3876
12.169	4.2052
11.945	3.9455
11.729	3.4003
11.52	3.367
11.319	3.2192
11.125	2.8837
10.937	2.6724
10.755	2.7298
10.58	2.5709
10.41	2.5078
10.245	2.4169
10.086	2.3751
9.9313	2.3208
9.7814	2.1182
9.636	2.209
9.4948	2.3049
9.3577	2.4298
9.2245	2.4607
9.095	2.4652
8.9691	2.3358
8.8467	1.9769
8.7275	1.6816
8.6116	1.5455
8.4986	1.575
8.3886	1.6286
8.2814	1.5779
8.1769	1.4571
8.075	1.6031
7.9756	2.0177
7.8786	2.5556
7.784	3.2724
7.6916	3.9691
7.6014	4.714
7.5133	5.4797
7.4272	6.2418
7.343	6.9117
7.2607	7.5086
7.1803	8.1031
7.1016	8.5317
7.0246	8.8999
6.9493	9.3949
6.8755	9.7776
6.8034	10.321
6.7327	10.471
6.6634	10.509
6.5956	10.575
6.5292	10.667
6.464	10.767
6.4002	10.735
6.3376	10.577
6.2762	10.424
6.216	9.6654
6.157	8.6913
6.099	8.6028
6.0421	9.209
5.9863	10.4
5.9315	11.422
5.8777	12.558
5.8249	13.493
5.773	14.201
5.722	14.832
5.6719	15.151
5.6227	15.444
5.5744	15.721
5.5268	15.996
5.4801	16.167
5.4341	16.279
5.3889	16.262
5.3445	16.219
5.3008	16.393
5.2578	16.538
5.2154	16.779
5.1738	17.075
5.1328	17.413
5.0925	17.682
5.0528	18.087
5.0137	18.437
4.9752	18.865
4.9373	19.254
4.9	19.609
4.8632	19.905
4.827	20.188
4.7913	20.406
4.7561	20.704
4.7215	21.067
4.6873	21.322
4.6536	21.604
4.6205	21.876
4.5877	22.131
4.5555	22.382
4.5237	22.479
4.4923	22.67
4.4614	22.744
4.4309	22.858
4.4008	22.963
4.3711	23.09
4.3418	23.14
4.3129	23.273
4.2844	23.507
4.2563	23.407
4.2285	23.66
4.2011	23.594
4.174	23.66
4.1473	23.721
4.1209	23.723
4.0949	23.804
4.0692	23.833
4.0438	23.892
4.0187	23.884
3.994	23.914
3.9695	23.934
3.9453	23.968
3.9214	23.988
3.8979	24.013
3.8746	23.998
3.8515	23.899
3.8288	24
3.8063	23.916
3.7841	23.834
3.7621	23.764
3.7404	23.684
3.7189	23.682
3.6977	23.59
3.6767	23.504
3.656	23.471
3.6355	23.383
3.6152	23.262
3.5951	23.07
3.5753	23.03
3.5557	22.874
3.5363	22.744
3.5171	22.609
3.4981	22.407
3.4793	22.302
3.4607	22.124
3.4423	21.893
3.4241	21.638
3.4061	21.347
3.3883	21.192
3.3707	21.045
3.3533	20.685
3.336	20.508
3.3189	20.208
3.302	19.938
3.2853	19.613
3.2687	19.232
3.2523	18.925
3.2361	18.569
3.22	18.303
3.204	17.848
3.1883	17.548
3.1727	17.085
3.1572	16.728
3.1419	16.258
3.1268	15.797
3.1117	15.606
3.0969	15.198
3.0821	15
3.0675	14.878
3.0531	14.614
3.0388	14.488
3.0246	14.37
3.0105	14.24
2.9966	13.995
2.9828	13.669
2.9692	13.483
2.9556	13.333
2.9422	13.185
2.9289	13.184
2.9157	13.102
2.9027	13.188
2.8897	13.182
2.8769	13.374
2.8642	13.287
2.8516	13.283
2.8391	13.356
2.8267	13.356
2.8144	13.375
2.8022	13.354
2.7902	13.167
2.7782	13.267
2.7664	13.097
2.7546	13.188
2.7429	14.094
2.7314	15.362
2.7199	17.184
2.7085	20.416
2.6973	22.107
2.6861	22.828
2.675	23.196
2.664	23.155
2.6531	23.601
2.6423	23.723
2.6315	23.541
2.6209	23.416
2.6103	23.619
2.5999	23.541
2.5895	23.46
2.5792	23.535
2.569	23.251
2.5588	23.361
2.5487	23.301
2.5388	23.364
2.5289	23.2
2.519	23.214
2.5093	23.299
2.4996	23.035
2.49	23.06
2.4805	23.039
2.471	22.912
2.4616	22.743
2.4523	22.898
2.4431	22.745
2.4339	22.834
2.4248	22.711
2.4157	22.621
2.4068	22.692
2.3979	22.48
2.389	22.501
2.3802	22.614
2.3715	22.393
2.3629	22.463
2.3543	22.563
2.3458	22.34
2.3373	22.532
2.3289	22.416
2.3206	22.342
2.3123	22.182
2.3041	22.254
2.2959	22.323
2.2878	22.314
2.2798	22.424
2.2718	22.38
2.2638	22.257
2.2559	22.466
2.2481	22.21
2.2403	22.346
2.2326	22.276
2.225	22.537
2.2173	22.39
2.2098	22.356
2.2023	22.4
2.1948	22.575
2.1874	22.324
2.18	22.462
2.1727	22.454
2.1655	22.406
2.1583	22.569
2.1511	22.476
2.144	22.662
2.1369	22.838
2.1299	22.688
2.1229	22.752
2.116	22.767
2.1091	22.719
2.1023	22.566
2.0955	22.607
2.0887	22.809
2.082	22.803
2.06	22.642
2.028	22.556
1.996	22.562
1.964	22.349
1.932	22.202
1.9	22.562
1.868	22.925
1.836	23.387
1.804	23.298
1.772	23.316
1.74	23.671
1.708	23.627
1.676	23.651
1.644	23.733
1.612	23.644
1.58	23.555
1.548	23.859
1.516	23.559
1.484	23.383
1.452	23.499
1.42	23.437
1.388	23.435
1.356	23.372
1.324	23.099
1.292	23.106
1.26	22.836
1.228	22.84
1.196	22.811
1.164	22.529
1.132	22.174
1.1	21.304
1.068	20.028
1.036	19.151
1.004	18.764
0.972	18.7
0.94	19.32
0.908	20.398
0.876	21.439
0.844	22.081
0.812	22.811
0.795	22.462
0.787	22.313
0.779	22.439
0.771	22.549
0.763	22.089
0.755	22.415
0.747	21.995
0.739	21.812
0.731	21.832
0.723	21.791
0.715	21.62
0.707	21.346
0.699	21.42
0.691	21.305
0.683	21.188
0.675	21.064
0.667	20.946
0.659	20.766
0.651	20.897
0.643	20.567
0.635	20.585
0.627	20.36
0.619	20.297
0.611	19.979
0.603	20.069
0.595	20.188
0.587	19.938
0.579	19.692
0.571	19.562
0.563	19.768
0.555	19.636
0.547	19.491
0.539	19.394
0.531	19.067
0.523	18.972
0.515	18.463
0.507	18.143
0.499	18.088
0.491	17.806
0.483	17.699
0.475	17.101
0.467	17.116
0.459	17.04
0.451	16.891
0.443	16.347
0.435	16.277
0.427	15.483
0.419	15.039
0.411	14.843
0.403	14.512
