Name: Mica Schist
Type: Rock
Class: Metamorphic
Subclass: Schist
Particle Size: Solid
Sample No.: Ward83
Owner: JPL
Wavelength Range: All
Origin: Ward's Collection of American Rocks.  Sample locality - Manhattan Island, New York.  Collected by - JPL.
Description: A schistose rock composed of muscovite, biotite, and quartzwith small amounts of feldspar and garnet.   Geologic age: Pre-CambrianCollected by:  Ward's Natural Science Original ASTER Spectral Library name was jpl.nicolet.rock.metamorphic.schist.solid.ward83.spectrum.txt
Measurement: Hemispherical reflectance
X Units: Wavelength (micrometers)
Y Units: Reflectance (percent)
wavelength	value
15.3871	2.8978
15.118	3.7884
14.8581	3.9701
14.6069	4.1984
14.3642	4.2984
14.1293	3.705
13.9021	4.3454
13.682	4.5891
13.4687	4.8012
13.2621	4.7406
13.0616	5.123
12.8672	6.8209
12.6784	6.2287
12.4951	7.0934
12.317	4.4375
12.1439	5.1305
11.9757	5.9526
11.812	6.3321
11.6527	6.9851
11.4977	7.7244
11.3468	8.0958
11.1997	8.6098
11.0564	9.6808
10.9168	9.9413
10.7806	9.8049
10.6478	10.2811
10.5182	11.7055
10.3917	13.764
10.2683	15.7164
10.1477	18.0481
10.0299	20.1803
9.9148	22.2243
9.8024	23.9511
9.6925	26.4821
9.585	28.2784
9.4798	27.8389
9.377	31.1573
9.2763	33.0782
9.1778	31.0028
9.0814	27.8798
8.987	25.6881
8.8945	23.3829
8.8039	20.9412
8.7151	16.6658
8.6281	11.2759
8.5428	14.2355
8.4592	13.9599
8.3772	13.4987
8.2967	13.3413
8.2179	12.8614
8.1404	10.5309
8.0645	7.1136
7.9899	4.8944
7.9167	3.4456
7.8449	2.8191
7.7743	2.5782
7.705	2.4094
7.6369	2.4752
7.57	2.3206
7.5043	2.3897
7.4397	2.4671
7.3762	2.5273
7.3138	2.6841
7.2524	2.835
7.1921	3.0468
7.1327	3.0582
7.0743	3.2885
7.0169	3.4838
6.9604	3.3729
6.9047	3.539
6.85	3.7182
6.7962	3.9409
6.7431	4.0311
6.6909	4.189
6.6395	4.4348
6.5889	4.4983
6.539	4.6847
6.49	4.8145
6.4416	4.8884
6.3939	4.9277
6.347	4.9298
6.3007	5.0125
6.2551	4.9434
6.2101	4.9428
6.1658	4.6874
6.1222	4.6572
6.0791	4.5281
6.0366	4.488
5.9948	4.473
5.9535	4.3314
5.9127	4.3859
5.8726	4.6021
5.8329	4.7089
5.7938	4.7284
5.7552	4.6927
5.7172	4.9496
5.6796	4.8256
5.6425	5.0218
5.6059	4.9936
5.5698	4.9342
5.5341	5.1376
5.4989	5.1909
5.4641	5.4231
5.4298	5.5169
5.3959	5.6189
5.3624	5.8155
5.3294	5.8836
5.2967	6.2523
5.2644	6.4294
5.2326	6.7698
5.2011	7.1648
5.17	7.3645
5.1392	7.5903
5.1088	7.9054
5.0788	7.8198
5.0491	7.997
5.0198	8.041
4.9908	8.0708
4.9622	8.1586
4.9338	8.2394
4.9058	8.516
4.8781	8.9442
4.8508	9.2488
4.8237	9.6279
4.7969	9.8921
4.7704	10.2719
4.7443	10.636
4.7184	10.8054
4.6927	10.9547
4.6674	11.2943
4.6423	11.9219
4.6175	12.4308
4.593	12.8649
4.5687	13.2061
4.5447	13.298
4.5209	13.3686
4.4974	13.0794
4.4741	13.2058
4.451	13.5584
4.4282	13.994
4.4057	14.7052
4.3833	15.0202
4.3612	15.5468
4.3393	15.7919
4.3176	16.1004
4.2962	16.0326
4.2749	16.1062
4.2539	16.3973
4.233	16.4138
4.2124	16.5892
4.192	16.744
4.1717	16.9263
4.1517	17.1129
4.1319	17.1606
4.1122	17.4291
4.0927	17.6498
4.0734	17.7717
4.0543	17.9652
4.0354	18.0416
4.0166	18.2418
3.9981	18.2238
3.9796	18.3695
3.9614	18.5521
3.9433	18.512
3.9254	18.9106
3.9077	18.8406
3.8901	18.8727
3.8726	18.7848
3.8554	18.6731
3.8382	18.8955
3.8213	19.1189
3.8045	18.9118
3.7878	19.0476
3.7713	18.6913
3.7549	18.7481
3.7386	18.2499
3.7225	18.2629
3.7066	18.2946
3.6907	18.2635
3.675	18.5138
3.6595	18.6269
3.644	18.3625
3.6287	18.5272
3.6136	18.4399
3.5985	18.4735
3.5836	18.2867
3.5688	18.3318
3.5541	17.8489
3.5396	17.9533
3.5251	17.6959
3.5108	17.4643
3.4966	17.3832
3.4825	17.2249
3.4685	17.2323
3.4547	17.1568
3.4409	17.0831
3.4273	16.7943
3.4137	16.7166
3.4003	16.6406
3.387	16.2526
3.3738	16.1978
3.3606	15.7954
3.3476	15.9276
3.3347	15.7971
3.3219	15.2196
3.3092	15.4796
3.2965	14.9286
3.284	14.9216
3.2716	14.6355
3.2593	14.368
3.247	14.5875
3.2348	14.3336
3.2228	13.9457
3.2108	13.8182
3.1989	13.3767
3.1871	13.2536
3.1754	12.9889
3.1638	12.7794
3.1523	12.9737
3.1408	12.3223
3.1294	11.9223
3.1181	11.9264
3.1069	11.4527
3.0958	11.5652
3.0848	11.1226
3.0738	11.4948
3.0629	10.7336
3.0521	11.0021
3.0413	11.2552
3.0307	11.0049
3.0201	10.5517
3.0096	10.5965
2.9991	10.9282
2.9887	10.4824
2.9784	10.2222
2.9682	10.2011
2.9581	10.1287
2.948	10.1227
2.9379	9.8225
2.928	10.3524
2.9181	9.3311
2.9083	9.5918
2.8985	10.1409
2.8888	10.1835
2.8792	9.6298
2.8697	9.8846
2.8602	9.9879
2.8507	9.9535
2.8413	9.8558
2.832	9.211
2.8228	8.663
2.8136	8.2955
2.8045	7.2847
2.7954	6.7669
2.7864	6.2441
2.7774	5.641
2.7685	5.1524
2.7597	5.3817
2.7509	5.4053
2.7422	5.8518
2.7335	5.7453
2.7249	6.3595
2.7163	7.4651
2.7078	9.6426
2.6994	12.1414
2.691	13.8932
2.6826	15.1042
2.6743	15.8542
2.666	16.8274
2.6578	16.9485
2.6497	17.3427
2.6416	17.5779
2.6336	17.7511
2.6256	17.3268
2.6176	18.188
2.6097	17.4447
2.6018	18.2046
2.594	18.4243
2.5863	17.8517
2.5785	19.3413
2.5709	19.1804
2.5633	19.0019
2.5557	19.7326
2.5481	19.1451
2.5406	19.4019
2.5332	19.2291
2.5258	19.0521
2.5184	18.6326
2.5111	19.0665
2.5038	18.4545
2.4966	18.4547
2.4894	17.7408
2.4823	18.3569
2.4752	17.6424
2.4681	17.6856
2.4611	17.7684
2.4541	16.8364
2.4471	16.5706
2.4402	17.6045
2.4333	17.4247
2.4265	17.3846
2.4197	17.824
2.413	18.3426
2.4063	17.8465
2.3996	17.8975
2.3929	17.8544
2.3863	17.4692
2.3798	18.0812
2.3732	18.6867
2.3667	18.3726
2.3603	17.3962
2.3538	17.3648
2.3474	17.2757
2.3411	16.9577
2.3347	18.7627
2.3285	19.2106
2.3222	19.357
2.316	20.2405
2.3098	21.3816
2.3036	21.607
2.2975	21.6996
2.2914	22.0875
2.2854	22.0188
2.2793	23.2112
2.2733	22.2548
2.2674	22.593
2.2614	21.5619
2.2555	21.5703
2.2497	21.0535
2.2438	21.474
2.238	21.2739
2.2322	21.6761
2.2265	21.7015
2.2208	20.813
2.2151	19.5565
2.2094	18.6909
2.2038	16.9375
2.1982	18.0452
2.1926	17.3136
2.187	20.2112
2.1815	20.2995
2.176	22.6751
2.1706	22.8477
2.1651	23.9183
2.1597	24.537
2.1543	24.4635
2.149	24.7188
2.1436	26.1699
2.1383	24.493
2.1331	25.6233
2.1278	26.0171
2.1226	26.0385
2.1174	25.8576
2.1122	24.7528
2.1071	25.0865
2.1019	24.8883
2.0968	26.7715
2.0918	26.4416
2.0867	25.8932
2.0817	26.5114
2.0767	26.1135
2.0717	26.3158
2.0667	29.0433
2.0618	25.9401
2.0569	26.6135
2.052	26.2832
2.0472	26.1905
2.0423	25.5771
2.0375	27.7464
2.0327	25.7018
2.028	26.3289
2.0232	25.4222
2.0185	26.046
2.0138	26.1197
2.0091	27.0436
2.0044	25.6166
1.9998	26.1781
