Name: Gray Limestone (Birdseye Limestone)
Type: Rock
Class: Sedimentary
Subclass: Limestone
Particle Size: Solid
Sample No.: Ward70
Owner: JPL
Wavelength Range: All
Origin: Ward's Collection of American Rocks.  Sample locality - Chaumont, Jefferson County, New York.
Description: A dark gray, compact limestone with conchoidal fracturcontaining small round and irregular spots of crystalline calcite.Geologic age - Ordovician.Collected by:  Ward's Natural Science Original ASTER Spectral Library name was jpl.nicolet.rock.sedimentary.limestone.solid.ward70.spectrum.txt
Measurement: Hemispherical reflectance
X Units: Wavelength (micrometers)
Y Units: Reflectance (percent)
wavelength	value
15.3871	4.0537
15.118	4.7728
14.8581	5.538
14.6069	5.278
14.3642	4.6409
14.1293	4.6172
13.9021	2.9924
13.682	3.94
13.4687	4.4718
13.2621	4.9412
13.0616	4.7806
12.8672	4.9949
12.6784	4.7187
12.4951	4.9545
12.317	4.9971
12.1439	5.2754
11.9757	5.4103
11.812	5.3294
11.6527	6.1433
11.4977	9.6933
11.3468	18.7354
11.1997	12.7906
11.0564	8.5566
10.9168	7.5776
10.7806	6.9117
10.6478	6.4347
10.5182	6.2554
10.3917	6.3379
10.2683	6.1773
10.1477	5.8709
10.0299	5.7116
9.9148	5.7497
9.8024	6.0202
9.6925	6.3774
9.585	6.3724
9.4798	6.6623
9.377	7.01
9.2763	7.1867
9.1778	7.4778
9.0814	7.7991
8.987	8.526
8.8945	9.6472
8.8039	9.9457
8.7151	10.574
8.6281	10.0621
8.5428	9.9773
8.4592	9.2517
8.3772	9.0673
8.2967	9.2987
8.2179	9.1189
8.1404	8.7696
8.0645	8.505
7.9899	8.9544
7.9167	8.7991
7.8449	9.0906
7.7743	9.0142
7.705	9.1581
7.6369	9.1993
7.57	9.272
7.5043	9.6651
7.4397	10.2132
7.3762	10.9385
7.3138	11.6391
7.2524	13.0151
7.1921	15.5538
7.1327	19.3568
7.0743	24.8139
7.0169	26.0277
6.9604	26.698
6.9047	27.4552
6.85	28.6715
6.7962	30.0404
6.7431	31.4199
6.6909	33.3589
6.6395	35.3691
6.5889	37.3036
6.539	37.7594
6.49	36.5188
6.4416	29.8935
6.3939	19.4758
6.347	12.177
6.3007	6.8459
6.2551	5.2339
6.2101	3.6508
6.1658	3.2062
6.1222	2.5781
6.0791	2.5755
6.0366	2.3743
5.9948	2.3367
5.9535	2.3198
5.9127	2.1448
5.8726	2.1803
5.8329	2.0932
5.7938	2.0848
5.7552	2.0252
5.7172	2.1799
5.6796	2.1411
5.6425	2.3626
5.6059	2.0393
5.5698	1.6748
5.5341	2.0427
5.4989	2.6425
5.4641	3.1316
5.4298	3.5962
5.3959	3.9233
5.3624	4.1651
5.3294	4.5014
5.2967	4.6178
5.2644	5.0492
5.2326	5.4474
5.2011	5.6383
5.17	5.8563
5.1392	5.9605
5.1088	5.3714
5.0788	6.0094
5.0491	6.0798
5.0198	6.3011
4.9908	6.3837
4.9622	6.4051
4.9338	6.5809
4.9058	6.7108
4.8781	6.948
4.8508	6.9692
4.8237	7.1644
4.7969	7.1516
4.7704	7.0364
4.7443	6.6713
4.7184	5.854
4.6927	4.8653
4.6674	4.5886
4.6423	4.912
4.6175	5.6751
4.593	6.0551
4.5687	6.1974
4.5447	6.1733
4.5209	6.536
4.4974	6.5067
4.4741	6.971
4.451	7.318
4.4282	7.7655
4.4057	8.2371
4.3833	8.4964
4.3612	8.4076
4.3393	8.2589
4.3176	8.0387
4.2962	8.3607
4.2749	8.1775
4.2539	8.4405
4.233	8.2157
4.2124	8.4175
4.192	8.3423
4.1717	7.9981
4.1517	7.8256
4.1319	7.4215
4.1122	6.8681
4.0927	6.2622
4.0734	5.9974
4.0543	5.2714
4.0354	4.4879
4.0166	3.7157
3.9981	3.4717
3.9796	3.1164
3.9614	3.0191
3.9433	3.1443
3.9254	3.5745
3.9077	3.633
3.8901	3.6334
3.8726	3.623
3.8554	3.8555
3.8382	3.9271
3.8213	4.2439
3.8045	4.9395
3.7878	6.2889
3.7713	7.2266
3.7549	7.9115
3.7386	8.7267
3.7225	9.3293
3.7066	9.3353
3.6907	9.9125
3.675	9.7652
3.6595	9.6075
3.644	9.592
3.6287	9.4389
3.6136	9.267
3.5985	8.5216
3.5836	7.5694
3.5688	6.9848
3.5541	6.5528
3.5396	5.8323
3.5251	4.7613
3.5108	4.0808
3.4966	3.9519
3.4825	3.6885
3.4685	3.5909
3.4547	4.1365
3.4409	3.9906
3.4273	4.0638
3.4137	4.3331
3.4003	4.2805
3.387	4.2479
3.3738	4.1996
3.3606	3.9214
3.3476	4.0113
3.3347	4.8204
3.3219	5.7637
3.3092	6.0336
3.2965	6.6353
3.284	7.0118
3.2716	7.4974
3.2593	7.803
3.247	7.2988
3.2348	7.8721
3.2228	7.477
3.2108	7.8165
3.1989	7.5263
3.1871	7.2386
3.1754	7.2681
3.1638	7.0915
3.1523	6.6935
3.1408	6.7975
3.1294	6.4663
3.1181	6.715
3.1069	6.2561
3.0958	6.6669
3.0848	6.7147
3.0738	6.5236
3.0629	6.4767
3.0521	6.0754
3.0413	6.2555
3.0307	6.634
3.0201	6.249
3.0096	5.9982
2.9991	6.3927
2.9887	6.6713
2.9784	5.9099
2.9682	6.2071
2.9581	6.0518
2.948	6.386
2.9379	6.3297
2.928	6.5699
2.9181	6.9131
2.9083	5.9138
2.8985	6.1207
2.8888	6.5303
2.8792	6.0867
2.8697	6.6575
2.8602	6.4175
2.8507	6.5752
2.8413	6.8277
2.832	7.0604
2.8228	6.529
2.8136	6.9192
2.8045	6.4639
2.7954	6.813
2.7864	6.0175
2.7774	6.1936
2.7685	6.5722
2.7597	7.0883
2.7509	7.3864
2.7422	7.3421
2.7335	8.3834
2.7249	10.2704
2.7163	11.4738
2.7078	11.9049
2.6994	13.8682
2.691	16.4497
2.6826	17.8466
2.6743	17.9458
2.666	18.6131
2.6578	19.1622
2.6497	19.1026
2.6416	19.4946
2.6336	19.4887
2.6256	19.7989
2.6176	19.2393
2.6097	19.7239
2.6018	19.369
2.594	19.2353
2.5863	19.1086
2.5785	18.8594
2.5709	18.0385
2.5633	17.3635
2.5557	15.5745
2.5481	13.6605
2.5406	12.1412
2.5332	12.4053
2.5258	13.3612
2.5184	13.2393
2.5111	14.2695
2.5038	14.1929
2.4966	14.9331
2.4894	14.3754
2.4823	15.3632
2.4752	15.8624
2.4681	16.2762
2.4611	17.2229
2.4541	18.1082
2.4471	18.6883
2.4402	19.0261
2.4333	18.9823
2.4265	19.4303
2.4197	19.6849
2.413	19.7519
2.4063	20.6729
2.3996	20.5538
2.3929	19.836
2.3863	20.1223
2.3798	20.3531
2.3732	20.9361
2.3667	19.7477
2.3603	18.8807
2.3538	17.6133
2.3474	16.6412
2.3411	16.5211
2.3347	16.3751
2.3285	16.5178
2.3222	17.6989
2.316	17.8702
2.3098	17.703
2.3036	17.7382
2.2975	18.7014
2.2914	18.3394
2.2854	18.9579
2.2793	19.5834
2.2733	19.8313
2.2674	19.2242
2.2614	20.168
2.2555	20.268
2.2497	20.4806
2.2438	21.5153
2.238	20.6257
2.2322	21.7307
2.2265	22.0518
2.2208	21.2519
2.2151	21.3026
2.2094	20.8919
2.2038	21.1098
2.1982	22.1819
2.1926	21.825
2.187	21.8818
2.1815	22.137
2.176	22.8002
2.1706	21.9345
2.1651	21.1038
2.1597	21.623
2.1543	22.8758
2.149	21.7482
2.1436	22.0158
2.1383	21.7173
2.1331	22.8249
2.1278	20.9809
2.1226	23.3623
2.1174	22.7199
2.1122	22.1194
2.1071	21.8386
2.1019	23.3092
2.0968	22.5128
2.0918	22.3653
2.0867	22.3803
2.0817	22.24
2.0767	21.1512
2.0717	22.0403
2.0667	23.5375
2.0618	20.6537
2.0569	23.0544
2.052	20.3594
2.0472	22.4901
2.0423	21.1603
2.0375	21.0893
2.0327	20.5981
2.028	22.3124
2.0232	21.0139
2.0185	22.0156
2.0138	22.2241
2.0091	22.8295
2.0044	19.7819
1.9998	21.0993
