Name: Basalt
Type: Rock
Class: Igneous
Subclass: Mafic
Particle Size: Solid
Sample No.: Me13
Owner: Lawrence Rowan, USGS Reston
Wavelength Range: All
Origin: Abu Matar, Middle East
Description: Basalt bowl base, cut surfaceSample was Whole rock chips. Original ASTER Spectral Library name was usgs.perknic.rock.igneous.mafic.solid.me13b.spectrum.txt
Measurement: Directional Hemispherical Reflectance
X Units: Wavelength (micrometers)
Y Units: Reflectance (percent)
wavelength	value
14.051	11.639
13.826	11.8244
13.609	11.9377
13.398	12.1128
13.193	12.0304
12.995	12.1128
12.802	12.1231
12.616	12.0922
12.434	12.2158
12.258	12.4836
12.086	12.7514
11.92	12.9368
11.757	13.3179
11.6	13.7711
11.446	13.9359
11.297	14.4818
11.151	14.6981
11.009	14.9968
10.87	15.2131
10.735	15.1822
10.604	15.244
10.475	15.0174
10.35	14.9865
10.227	14.8835
10.108	14.8835
9.991	15.1307
9.877	15.3779
9.765	15.2543
9.656	15.3882
9.549	15.5221
9.445	15.3779
9.343	15.1513
9.243	14.935
9.145	14.8835
9.049	15.038
8.956	15.0792
8.864	15.2028
8.774	14.9144
8.686	14.6054
8.599	14.4818
8.515	14.2655
8.431	14.1831
8.35	13.8329
8.27	13.2355
8.192	12.1849
8.115	11.4742
8.039	11.1755
7.965	10.8974
7.893	10.8253
7.821	10.8356
7.751	10.9077
7.682	10.7944
7.614	10.9489
7.548	10.9901
7.483	10.8871
7.418	11.0107
7.355	11.0004
7.293	11.0725
7.232	11.0931
7.172	11.0725
7.113	11.1549
7.055	11.1549
6.998	11.1961
6.942	11.2579
6.886	11.2476
6.832	11.2167
6.778	11.3506
6.726	11.2991
6.674	11.4433
6.623	11.5154
6.572	11.3918
6.523	11.433
6.474	11.4948
6.426	11.4536
6.378	11.4021
6.332	11.4639
6.286	11.4124
6.24	11.4639
6.195	11.2373
6.151	11.2373
6.108	11.3094
6.065	11.33
6.023	11.3094
5.981	11.33
5.94	11.1652
5.899	11.2682
5.859	11.3918
5.82	11.4845
5.781	11.6081
5.743	11.7626
5.705	11.7523
5.667	11.8759
5.63	11.9789
5.594	11.9583
5.558	11.9583
5.523	12.0819
5.487	12.1437
5.453	12.2055
5.419	12.2673
5.385	12.2982
5.352	12.3394
5.319	12.4424
5.286	12.463
5.254	12.5248
5.222	12.7205
5.191	12.7926
5.16	12.8853
5.129	12.9265
5.099	13.0089
5.069	13.0913
5.04	13.2252
5.01	13.2046
4.981	13.3385
4.953	13.4106
4.925	13.6166
4.897	13.6887
4.869	13.7402
4.842	13.7917
4.815	13.9462
4.788	13.9771
4.762	14.0492
4.736	13.9359
4.71	14.1316
4.684	14.2449
4.659	14.4097
4.634	14.4818
4.61	14.5951
4.585	14.7496
4.561	14.7084
4.537	14.8938
4.513	14.9453
4.49	15.0895
4.467	15.1925
4.444	15.3367
4.421	15.4706
4.398	15.5942
4.376	15.7281
4.354	15.862
4.332	15.9959
4.311	16.2431
4.289	16.3461
4.268	16.5212
4.247	16.5933
4.226	16.8714
4.206	16.9847
4.185	17.1186
4.165	17.2113
4.145	17.2628
4.126	17.4379
4.106	17.4379
4.086	17.4997
4.067	17.5512
4.048	17.6233
4.029	17.716
4.011	17.6233
3.992	17.6954
3.974	17.5924
3.956	17.6645
3.938	17.8087
3.92	17.9014
3.902	17.9117
3.884	17.9117
3.867	18.0456
3.85	18.0559
3.833	18.0353
3.816	18.0147
3.799	18.0765
3.782	18.0353
3.766	18.1074
3.75	18.0559
3.733	18.0971
3.717	18.1177
3.702	18.1074
3.686	18.025
3.67	18.0147
3.655	17.8911
3.639	17.9632
3.624	18.0147
3.609	17.8087
3.594	17.7778
3.579	17.6748
3.564	17.5512
3.549	17.6027
3.535	17.2422
3.521	16.8611
3.506	15.7487
3.492	16.4079
3.478	16.5315
3.464	16.5315
3.45	16.4079
3.437	15.7693
3.423	15.1822
3.409	15.4191
3.396	15.965
3.383	15.965
3.37	16.1607
3.357	16.377
3.344	16.3255
3.331	16.4491
3.318	16.4182
3.305	16.2534
3.293	16.0268
3.28	15.9444
3.268	15.9959
3.255	15.8311
3.243	15.7796
3.231	15.6148
3.219	15.6251
3.207	15.5427
3.195	15.4397
3.183	15.1307
3.172	15.1925
3.16	15.1719
3.149	14.7908
3.137	14.8526
3.126	14.5539
3.115	14.6672
3.103	14.4921
3.092	14.1934
3.081	14.3891
3.07	14.1625
3.06	14.111
3.049	14.2758
3.038	14.1934
3.027	14.1007
3.017	14.008
3.006	14.0595
2.996	14.1007
2.986	13.9874
2.975	13.9153
2.965	13.6578
2.955	13.7814
2.945	14.111
2.935	13.699
2.925	13.8638
2.915	14.0183
2.905	13.9153
2.896	14.008
2.886	14.1316
2.876	14.0286
2.867	14.1831
2.857	14.1934
2.848	14.0698
2.838	14.0286
2.829	14.0698
2.82	13.9668
2.811	14.2758
2.802	14.0698
2.793	14.0801
2.784	14.4818
2.775	14.5024
2.766	14.5539
2.757	14.3891
2.748	15.5427
2.74	15.5839
2.731	15.7796
2.722	16.5006
2.714	17.1701
2.705	17.2113
2.697	18.3443
2.688	19.6524
2.68	20.0232
2.672	20.8678
2.664	21.2489
2.655	21.1459
2.647	21.5888
2.639	22.0008
2.631	21.8875
2.623	21.7124
2.615	21.9184
2.607	21.6197
2.599	22.0111
2.592	22.351
2.584	22.0935
2.576	21.836
2.569	22.4437
2.561	21.9905
2.553	22.0523
2.546	21.8772
2.538	22.0626
2.531	22.1656
2.524	22.557
2.516	22.2686
2.509	22.4128
2.502	22.4128
2.48	21.6637
2.456	21.9978
2.432	21.7615
2.408	22.077
2.384	22.2395
2.36	22.5146
2.336	22.6635
2.312	22.2709
2.288	22.5652
2.264	22.6148
2.24	22.693
2.216	23.0319
2.192	23.1462
2.168	23.4318
2.144	23.7002
2.12	23.6774
2.096	23.5955
2.072	23.7673
2.048	23.9613
2.024	24.0731
2	24.0994
1.976	24.103
1.952	24.0586
1.928	23.9995
1.904	24.0478
1.88	24.6675
1.856	24.849
1.832	24.9594
1.808	25.0417
1.784	25.1426
1.76	25.0967
1.736	25.1614
1.712	25.1687
1.688	25.1894
1.664	25.2066
1.64	25.1349
1.616	25.058
1.592	24.9399
1.568	24.9135
1.544	24.7604
1.52	24.6332
1.496	24.5179
1.472	24.3605
1.448	24.2139
1.424	24.1079
1.4	23.9685
1.376	23.8732
1.352	23.7317
1.328	23.7186
1.304	23.6694
1.28	23.6108
1.256	23.5603
1.232	23.6184
1.208	23.5436
1.184	23.5612
1.16	23.5608
1.136	23.5374
1.112	23.4587
1.088	23.3742
1.064	23.369
1.04	23.4642
1.016	23.6789
0.992	23.8844
0.968	24.2207
0.944	24.6318
0.92	25.2703
0.896	25.4878
0.872	25.857
0.848	24.3935
0.824	25.5733
0.8	25.7623
0.776	25.8084
0.752	25.8895
0.728	25.9431
0.704	25.9472
0.68	25.8922
0.656	25.859
0.632	25.8537
0.608	25.8514
0.584	25.7182
0.56	25.3914
0.536	24.9742
0.512	24.4804
0.488	23.8773
0.464	23.5402
0.44	23.0108
0.416	22.3207
