Name: Chloritic Gneiss
Type: rock
Class: Metamorphic
Subclass: Gneis
Particle Size: Coarse
Sample No.: Gneiss1
Owner: JHU
Wavelength Range: All
Origin: Sample No. 380, The Hunt and Salisbury Collection at the U.S.Geological Survey, Denver, Co.
Description: This is a greenish rock containing only 20% quartz, 35% albite, a mixture of chlorite and muscovite (40%) and 5% rutile.Particle size was 500-1500  Micrometers. Original ASTER Spectral Library name was jhu.becknic.rock.metamorphic.gneiss.coarse.gneiss1.spectrum.txt
Measurement: Directional (10 Degree) Hemispherical Reflectance
X Units: Wavelength (micrometers)
Y Units: Reflectance (percent)
wavelength	value
14.9831	2.3653
14.6445	2.0747
14.3209	2.0132
14.0112	2.2777
13.7147	2.2805
13.4304	2.7535
13.1577	2.9086
12.8959	3.1504
12.6443	3.0189
12.4023	2.6476
12.1694	2.0681
11.945	2.4821
11.7289	2.7516
11.5203	3.0774
11.3191	3.2984
11.1248	3.4665
10.937	3.6212
10.7555	3.862
10.5799	4.2532
10.4099	4.7977
10.2454	5.9239
10.0859	7.5108
9.9313	8.617
9.7814	7.9779
9.636	10.9234
9.4948	9.766
9.3577	10.7531
9.2245	11.5263
9.095	11.0946
8.9691	10.9712
8.8467	11.8275
8.7275	12.1709
8.6116	10.6868
8.4986	12.3426
8.3886	13.1551
8.2814	12.7307
8.1769	10.8855
8.075	6.5094
7.9756	3.6825
7.8786	1.9523
7.784	1.3051
7.6916	0.9904
7.6014	0.8291
7.5133	0.7914
7.4272	0.7777
7.343	0.8
7.2607	0.8469
7.1803	0.9238
7.1016	1.033
7.0246	1.0714
6.9493	1.1071
6.8755	1.1834
6.8034	1.2641
6.7327	1.3075
6.6634	1.3856
6.5956	1.4337
6.5292	1.478
6.464	1.6032
6.4002	1.6444
6.3376	1.5883
6.2762	1.5592
6.216	1.531
6.157	1.5841
6.099	1.7048
6.0421	1.7621
5.9863	1.7981
5.9315	1.8261
5.8777	1.8798
5.8249	2.0141
5.773	2.0229
5.722	2.0205
5.6719	2.0572
5.6227	2.03
5.5744	2.0454
5.5268	2.1695
5.4801	2.3601
5.4341	2.5114
5.3889	2.658
5.3445	2.7369
5.3008	2.7989
5.2578	2.8657
5.2154	3.0376
5.1738	3.2413
5.1328	3.4334
5.0925	3.6948
5.0528	3.8885
5.0137	3.9593
4.9752	4.2452
4.9373	4.9182
4.9	5.057
4.8632	6.1636
4.827	7.2146
4.7913	6.9799
4.7561	7.441
4.7215	8.3558
4.6873	8.6604
4.6536	9.4999
4.6205	11.2473
4.5877	12.7326
4.5555	13.6503
4.5237	13.7145
4.4923	13.5755
4.4614	14.3769
4.4309	15.7899
4.4008	17.3998
4.3711	19.7682
4.3418	21.9069
4.3129	23.4324
4.2844	24.555
4.2563	26.1921
4.2285	26.9399
4.2011	27.8105
4.174	28.8292
4.1473	29.7389
4.1209	30.6198
4.0949	31.5522
4.0692	32.1963
4.0438	32.2143
4.0187	32.0203
3.994	32.0488
3.9695	32.4492
3.9453	33.0178
3.9214	33.3915
3.8979	33.2577
3.8746	32.7812
3.8515	32.4428
3.8288	32.3493
3.8063	32.3204
3.7841	31.9446
3.7621	31.3407
3.7404	30.8514
3.7189	30.8668
3.6977	31.1574
3.6767	31.5169
3.656	31.6803
3.6355	31.5282
3.6152	31.1754
3.5951	30.8178
3.5753	30.3475
3.5557	29.8296
3.5363	29.1989
3.5171	28.348
3.4981	27.6248
3.4793	27.2312
3.4607	26.5859
3.4423	26.0512
3.4241	25.5209
3.4061	24.8368
3.3883	24.4827
3.3707	23.9804
3.3533	23.992
3.336	23.8587
3.3189	23.288
3.302	22.7068
3.2853	22.1863
3.2687	21.6293
3.2523	21.1015
3.2361	20.5873
3.22	20.0308
3.204	19.4857
3.1883	18.9791
3.1727	18.5166
3.1572	18.1055
3.1419	17.692
3.1268	17.2759
3.1117	16.9084
3.0969	16.5695
3.0821	16.1551
3.0675	15.7509
3.0531	15.3125
3.0388	15.0243
3.0246	14.9073
3.0105	14.815
2.9966	14.6099
2.9828	14.4093
2.9692	14.1578
2.9556	13.9714
2.9422	13.8201
2.9289	13.6652
2.9157	13.5153
2.9027	13.4772
2.8897	13.3583
2.8769	12.7468
2.8642	11.019
2.8516	9.1285
2.8391	7.9518
2.8267	7.6712
2.8144	7.3313
2.8022	6.7372
2.7902	6.681
2.7782	6.9136
2.7664	6.1908
2.7546	6.1413
2.7429	6.9991
2.7314	7.8545
2.7199	8.6724
2.7085	8.1739
2.6973	10.6479
2.6861	21.1448
2.675	29.5397
2.664	34.2857
2.6531	37.181
2.6423	38.964
2.6315	40.0735
2.6209	40.9859
2.6103	41.636
2.5999	42.2704
2.5895	42.9016
2.5792	43.5481
2.569	44.2171
2.5588	44.9924
2.5487	45.4719
2.5388	45.6451
2.5289	45.6635
2.519	45.4369
2.5093	45.1395
2.4996	44.7928
2.49	44.4297
2.4805	44.1943
2.471	43.8393
2.4616	43.6849
2.4523	43.8517
2.4431	44.2907
2.4339	45.0104
2.4248	45.9136
2.4157	46.6177
2.4068	46.5353
2.3979	45.5023
2.389	43.876
2.3802	42.6576
2.3715	42.1857
2.3629	41.991
2.3543	42.5144
2.3458	44.5081
2.3373	47.106
2.3289	49.4384
2.3206	51.0838
2.3123	51.1986
2.3041	52.9695
2.2959	52.4076
2.2878	49.0704
2.2798	47.9964
2.2718	48.305
2.2638	48.8783
2.2559	48.2865
2.2481	47.0214
2.2403	46.9487
2.2326	47.6885
2.225	47.4621
2.2173	46.697
2.2098	45.9506
2.2023	48.6105
2.1948	52.3936
2.1874	56.3721
2.18	59.3482
2.1727	61.2512
2.1655	62.3886
2.1583	63.5453
2.1511	65.2221
2.144	66.8247
2.1369	67.7504
2.1299	68.3029
2.1229	68.8061
2.116	69.5268
2.1091	70.4108
2.1023	71.5037
2.0955	72.3617
2.0887	73.0257
2.082	73.6876
2.06	75.5592
2.028	75.6208
1.996	74.6689
1.964	73.6859
1.932	72.7331
1.9	72.4343
1.868	79.8653
1.836	82.3221
1.804	82.6615
1.772	82.6671
1.74	83.5967
1.708	83.3939
1.676	83.4261
1.644	83.454
1.612	83.0057
1.58	82.4652
1.548	82.4628
1.516	81.2386
1.484	80.8052
1.452	75.341
1.42	65.2495
1.388	68.7986
1.356	79.2687
1.324	80.3328
1.292	80.2641
1.26	80.5918
1.228	80.3913
1.196	79.7574
1.164	79.0363
1.132	77.9293
1.1	76.9647
1.068	75.8442
1.036	75.7297
1.004	74.8132
0.972	73.5999
0.94	73.4184
0.908	73.0208
0.876	72.915
0.844	72.6911
0.812	70.1353
0.795	69.9951
0.787	69.1671
0.779	67.5081
0.771	66.0132
0.763	64.5882
0.755	62.2733
0.747	60.0672
0.739	57.8256
0.731	55.6736
0.723	53.171
0.715	51.139
0.707	48.5221
0.699	46.252
0.691	43.4395
0.683	41.69
0.675	41.6915
0.667	40.5208
0.659	38.7232
0.651	37.6963
0.643	36.7287
0.635	35.8992
0.627	35.2284
0.619	34.9214
0.611	35.2271
0.603	35.1842
0.595	35.5393
0.587	36.1708
0.579	36.9887
0.571	37.8142
0.563	39.0782
0.555	39.7361
0.547	41.2485
0.539	41.8969
0.531	43.068
0.523	43.3411
0.515	43.1328
0.507	42.3584
0.499	40.9855
0.491	39.8509
0.483	37.9808
0.475	36.7117
0.467	35.7967
0.459	34.4753
0.451	33.8323
0.443	32.9567
0.435	32.1312
0.427	31.4644
0.419	30.9178
0.411	30.7839
0.403	30.9418
