Name: Shale (Phosphatic)
Type: rock
Class: Sedimentary
Subclass: Shale
Particle Size: Fine
Sample No.: shale_2
Owner: JHU
Wavelength Range: All
Origin: Sample No. 384,  The Hunt and Salisbury Collection at the U.S.Geological Survey, Denver, Co.
Description: Slightly porous sample of whitish to brown oolites of phosphatic material, ~0.5 - 1.5 mm in size, collophane (amorphous calcium carbonophosphate, yellowish brown and isotropic) in oolitic form, frequently zoned. Fine-grained angular to subangular quartz occurs throughout, often in ooid cores. Silica recrystallization in some spots, carbonaceous material in oolite cores and rims are present. Particle size was 0 - 75 Micrometers. Original ASTER Spectral Library name was jhu.becknic.rock.sedimentary.shale.fine.shale2.spectrum.txt
Measurement: Directional (10 Degree) Hemispherical Reflectance
X Units: Wavelength (micrometers)
Y Units: Reflectance (percent)
wavelength	value
14.983	3.732
14.645	4.8119
14.321	5.3111
14.011	6.9598
13.715	8.2267
13.43	9.1823
13.158	10.045
12.896	9.2974
12.644	9.4954
12.402	9.8437
12.169	12.03
11.945	12.363
11.729	12.168
11.52	4.6977
11.319	9.9974
11.125	11.479
10.937	11.436
10.755	11.504
10.58	10.192
10.41	5.353
10.245	7.747
10.086	6.5977
9.9313	4.2196
9.7814	3.5125
9.636	4.2177
9.4948	3.8883
9.3577	3.6647
9.2245	2.9268
9.095	3.2323
8.9691	3.8416
8.8467	3.5657
8.7275	1.5137
8.6116	0.9814
8.4986	0.9203
8.3886	0.9655
8.2814	1.2809
8.1769	1.6804
8.075	2.672
7.9756	3.6645
7.8786	4.882
7.784	6.2155
7.6916	7.4846
7.6014	8.2637
7.5133	8.7553
7.4272	8.555
7.343	7.3126
7.2607	5.1465
7.1803	2.9514
7.1016	1.7472
7.0246	1.1121
6.9493	1.005
6.8755	0.8383
6.8034	1.0351
6.7327	1.4574
6.6634	2.1825
6.5956	3.5373
6.5292	5.7662
6.464	8.3423
6.4002	10.285
6.3376	10.637
6.2762	10.413
6.216	10.119
6.157	10.412
6.099	10.893
6.0421	11.831
5.9863	13.987
5.9315	16.715
5.8777	20.803
5.8249	25.695
5.773	29.556
5.722	31.594
5.6719	28.462
5.6227	31.009
5.5744	32.467
5.5268	37.032
5.4801	39.518
5.4341	40.41
5.3889	38.783
5.3445	37.268
5.3008	37.971
5.2578	39.423
5.2154	40.516
5.1738	39.353
5.1328	40.003
5.0925	37.221
5.0528	29.785
5.0137	16.034
4.9752	16.046
4.9373	21.497
4.9	24.022
4.8632	23.097
4.827	21.699
4.7913	20.155
4.7561	24.148
4.7215	26.195
4.6873	26.043
4.6536	25.774
4.6205	27.106
4.5877	31.78
4.5555	34.067
4.5237	37.704
4.4923	40.756
4.4614	41.979
4.4309	42.629
4.4008	42.565
4.3711	42.606
4.3418	41.736
4.3129	38.764
4.2844	28.757
4.2563	25.86
4.2285	37.566
4.2011	43.048
4.174	44.601
4.1473	44.955
4.1209	44.618
4.0949	43.651
4.0692	41.857
4.0438	39.531
4.0187	36.219
3.994	37.423
3.9695	36.049
3.9453	38.52
3.9214	39.466
3.8979	40.199
3.8746	40.594
3.8515	40.769
3.8288	40.668
3.8063	40.407
3.7841	40.007
3.7621	39.576
3.7404	39.121
3.7189	38.685
3.6977	38.158
3.6767	37.534
3.656	36.741
3.6355	35.848
3.6152	34.937
3.5951	33.985
3.5753	32.908
3.5557	31.657
3.5363	29.995
3.5171	28.607
3.4981	28.044
3.4793	26.755
3.4607	25.451
3.4423	25.251
3.4241	25.137
3.4061	24.662
3.3883	24.272
3.3707	23.609
3.3533	23.411
3.336	23.039
3.3189	22.468
3.302	21.82
3.2853	21.169
3.2687	20.566
3.2523	20.057
3.2361	19.476
3.22	18.916
3.204	18.376
3.1883	17.833
3.1727	17.381
3.1572	16.88
3.1419	16.492
3.1268	16.089
3.1117	15.769
3.0969	15.493
3.0821	15.237
3.0675	15.084
3.0531	14.899
3.0388	14.85
3.0246	14.715
3.0105	14.568
2.9966	14.521
2.9828	14.388
2.9692	14.387
2.9556	14.433
2.9422	14.505
2.9289	14.716
2.9157	14.909
2.9027	15.246
2.8897	15.576
2.8769	16
2.8642	16.515
2.8516	17.032
2.8391	17.429
2.8267	17.782
2.8144	19
2.8022	20.348
2.7902	21.931
2.7782	23.87
2.7664	25.879
2.7546	29.216
2.7429	33.638
2.7314	39.227
2.7199	45.282
2.7085	49.329
2.6973	55.627
2.6861	61.694
2.675	64.197
2.664	65.76
2.6531	67.411
2.6423	68.455
2.6315	68.793
2.6209	69.426
2.6103	70.091
2.5999	70.484
2.5895	70.689
2.5792	70.814
2.569	70.876
2.5588	70.898
2.5487	70.682
2.5388	70.455
2.5289	70.539
2.519	70.739
2.5093	70.842
2.4996	71.013
2.49	71.119
2.4805	71.382
2.471	71.683
2.4616	71.98
2.4523	72.378
2.4431	72.831
2.4339	73.235
2.4248	73.604
2.4157	74.245
2.4068	74.777
2.3979	75.334
2.389	75.705
2.3802	76.043
2.3715	76.355
2.3629	76.615
2.3543	76.831
2.3458	77.208
2.3373	77.605
2.3289	77.98
2.3206	78.223
2.3123	78.369
2.3041	78.565
2.2959	78.647
2.2878	78.709
2.2798	78.59
2.2718	78.563
2.2638	78.661
2.2559	78.742
2.2481	78.767
2.2403	78.852
2.2326	78.952
2.225	78.983
2.2173	78.891
2.2098	78.791
2.2023	78.887
2.1948	79.123
2.1874	79.211
2.18	79.326
2.1727	79.248
2.1655	79.256
2.1583	79.226
2.1511	79.041
2.144	79.161
2.1369	79.057
2.1299	79.034
2.1229	78.77
2.116	78.723
2.1091	78.672
2.1023	78.679
2.0955	78.541
2.0887	78.48
2.082	78.294
2.06	78.118
2.028	76.803
1.996	74.196
1.964	71.923
1.932	69.153
1.9	74.603
1.868	76.682
1.836	79.642
1.804	79.567
1.772	78.363
1.74	77.87
1.708	78.4
1.676	77.907
1.644	76.918
1.612	76.615
1.58	76.427
1.548	75.693
1.516	75.05
1.484	73.496
1.452	72.097
1.42	71.055
1.388	72.415
1.356	70.729
1.324	71.21
1.292	70.435
1.26	69.157
1.228	68.262
1.196	66.368
1.164	64.319
1.132	63.578
1.1	62.543
1.068	61.273
1.036	59.253
1.004	57.621
0.972	55.908
0.94	54.358
0.908	52.163
0.876	50.225
0.844	48.534
0.812	46.714
0.795	45.709
0.787	45.125
0.779	44.632
0.771	43.624
0.763	43.041
0.755	42.171
0.747	41.863
0.739	41.198
0.731	40.729
0.723	39.53
0.715	39.272
0.707	38.61
0.699	40.228
0.691	36.918
0.683	36.434
0.675	35.933
0.667	35.093
0.659	34.513
0.651	34.166
0.643	33.304
0.635	32.8
0.627	32.098
0.619	31.461
0.611	30.784
0.603	30.172
0.595	30.232
0.587	29.408
0.579	29.164
0.571	28.654
0.563	28.046
0.555	27.014
0.547	26.608
0.539	25.918
0.531	25.535
0.523	24.789
0.515	24.17
0.507	23.384
0.499	22.866
0.491	22.275
0.483	21.684
0.475	20.944
0.467	20.54
0.459	20.123
0.451	19.855
0.443	19.217
0.435	18.316
0.427	17.611
0.419	17.009
0.411	16.317
0.403	15.805
