Name: Lithographic Limestone
Type: rock
Class: Sedimentary
Subclass: Limestone
Particle Size: Fine
Sample No.: limestone_5
Owner: JHU
Wavelength Range: All
Origin: Sample No. 356,  The Hunt and Salisbury Collection at the U.S.Geological Survey, Denver, Co.
Description: The sample is a homogeneous microcrystalline carbonate with scattered flecks of a reddish brown (Fe-rich ?) material, which sometimes occurs as discontinuous bands throughout the section.Particle size was 0 - 75 Micrometers. Original ASTER Spectral Library name was jhu.becknic.rock.sedimentary.limestone.fine.limest5.spectrum.txt
Measurement: Directional (10 Degree) Hemispherical Reflectance
X Units: Wavelength (micrometers)
Y Units: Reflectance (percent)
wavelength	value
14.983	21.745
14.645	23.119
14.321	19.25
14.011	1.5537
13.715	22.309
13.43	28.219
13.158	27.659
12.896	25.164
12.644	25.979
12.402	27.66
12.169	30.579
11.945	31.546
11.729	21.272
11.52	8.4536
11.319	4.9641
11.125	23.524
10.937	21.264
10.756	21.688
10.58	21.861
10.41	21.264
10.245	17.029
10.086	12.548
9.9313	9.3305
9.7814	8.2938
9.636	8.1742
9.4948	10.027
9.3577	11.436
9.2245	12.743
9.095	15.142
8.9691	17.138
8.8467	21.332
8.7275	23.51
8.6116	20.858
8.4986	20.802
8.3886	23.605
8.2814	26.912
8.1769	27.818
8.075	26.153
7.9756	26.545
7.8786	24.446
7.784	22.917
7.6916	20.43
7.6014	16
7.5133	14.349
7.4272	11.769
7.343	8.2161
7.2607	4.8708
7.1803	3.3031
7.1016	3.6995
7.0246	3.6782
6.9493	3.583
6.8755	3.6598
6.8034	3.7914
6.7327	3.9664
6.6634	4.4216
6.5956	5.5808
6.5292	6.596
6.464	8.0742
6.4002	9.4653
6.3376	7.3048
6.2762	6.093
6.216	6.0791
6.157	5.9266
6.099	6.5371
6.0421	7.724
5.9863	9.7038
5.9315	11.366
5.8777	13.023
5.8249	13.237
5.773	12.929
5.722	14.314
5.6719	17.447
5.6227	17.976
5.5744	2.6019
5.5268	16.366
5.4801	31.021
5.4341	39.215
5.3889	45.543
5.3445	50.056
5.3008	54.286
5.2578	57.521
5.2154	60.186
5.1738	62.011
5.1328	63.352
5.0925	58.695
5.0528	65.466
5.0137	65.738
4.9752	65.946
4.9373	66.188
4.9	66.784
4.8632	67.426
4.827	67.775
4.7913	67.872
4.7561	66.175
4.7215	59.941
4.6873	47.922
4.6536	48.491
4.6205	58.204
4.5877	61.224
4.5555	61.879
4.5237	62.141
4.4923	63.304
4.4614	66.287
4.4309	68.77
4.4008	70.097
4.3711	70.426
4.3418	68.76
4.3129	68.609
4.2844	68.962
4.2563	68.542
4.2285	67.991
4.2011	67.207
4.174	65.636
4.1473	63.292
4.1209	59.52
4.0949	55.275
4.0692	49.356
4.0438	38.441
4.0187	23.608
3.994	10.055
3.9695	7.9137
3.9453	14.918
3.9214	21.167
3.8979	22.989
3.8746	23.985
3.8515	25.049
3.8288	30.733
3.8063	42.594
3.7841	58.194
3.7621	63.169
3.7404	64.966
3.7189	66.501
3.6977	66.943
3.6767	66.824
3.656	66.162
3.6355	65.107
3.6152	63.674
3.5951	60.937
3.5753	54.872
3.5557	52.972
3.5363	45.083
3.5171	28.36
3.4981	20.994
3.4793	16.546
3.4607	25.133
3.4423	28.007
3.4241	28.248
3.4061	27.741
3.3883	26.632
3.3707	25.616
3.3533	21.76
3.336	37.198
3.3189	48.324
3.302	51.503
3.2853	53.037
3.2687	53.832
3.2523	54.049
3.2361	53.991
3.22	53.783
3.2041	53.396
3.1883	52.861
3.1727	52.008
3.1572	50.462
3.1419	49.931
3.1268	49.751
3.1117	48.635
3.0969	48.775
3.0821	49.274
3.0675	49.431
3.0531	49.506
3.0388	49.531
3.0246	49.531
3.0105	49.358
2.9966	49.22
2.9828	49.178
2.9692	48.942
2.9556	48.871
2.9422	48.814
2.9289	48.89
2.9157	49.13
2.9027	49.379
2.8897	49.83
2.8769	50.291
2.8642	50.803
2.8516	51.211
2.8391	51.43
2.8267	51.252
2.8144	50.743
2.8022	49.519
2.7902	47.184
2.7782	46.231
2.7664	44.974
2.7546	45.988
2.7429	48.611
2.7314	52.075
2.7199	58.343
2.7085	57.894
2.6973	62.956
2.6861	76.943
2.675	81.448
2.664	83.543
2.6531	85.092
2.6423	85.807
2.6315	85.879
2.6209	86.075
2.6103	86.266
2.5999	86.011
2.5895	85.357
2.5792	84.596
2.569	83.512
2.5588	80.374
2.5487	74.789
2.5388	70.496
2.5289	71.667
2.519	74.735
2.5093	76.119
2.4996	76.722
2.49	77.383
2.4805	78.725
2.471	80.838
2.4616	82.948
2.4523	84.46
2.4431	85.66
2.4339	86.632
2.4248	87.535
2.4157	88.219
2.4068	88.487
2.3979	88.626
2.389	88.779
2.3802	88.516
2.3715	87.682
2.3629	85.548
2.3543	82.222
2.3458	79.788
2.3373	79.336
2.3289	80.664
2.3206	82.267
2.3123	83.29
2.3041	83.674
2.2959	84.294
2.2878	85.145
2.2798	86.356
2.2718	87.567
2.2638	88.33
2.2559	88.959
2.2481	89.568
2.2403	90.039
2.2326	90.335
2.225	90.504
2.2173	90.652
2.2098	90.475
2.2023	90.795
2.1948	91.188
2.1874	91.444
2.18	91.551
2.1727	91.541
2.1655	91.372
2.1583	91.346
2.1511	91.498
2.144	92.005
2.1369	92.323
2.1299	92.479
2.1229	92.593
2.116	92.66
2.1091	92.72
2.1023	92.856
2.0955	92.86
2.0887	92.96
2.082	92.943
2.06	93.426
2.028	92.503
1.996	90.403
1.964	88.554
1.932	87.69
1.9	88.865
1.868	88.373
1.836	90.35
1.804	91.735
1.772	90.609
1.74	90.458
1.708	90.635
1.676	90.749
1.644	90.534
1.612	89.803
1.58	90.177
1.548	90.305
1.516	89.736
1.484	88.91
1.452	88.061
1.42	87.721
1.388	89.251
1.356	90.417
1.324	87.795
1.292	87.842
1.26	88.999
1.228	87.925
1.196	87.942
1.164	86.43
1.132	86.555
1.1	86.483
1.068	86.476
1.036	85.033
1.004	84.921
0.972	84.638
0.94	84.432
0.908	84.115
0.876	84.078
0.844	84.232
0.812	84.721
0.795	84.296
0.787	84.066
0.779	84.606
0.771	83.854
0.763	83.561
0.755	83.561
0.747	83.323
0.739	83.265
0.731	83.071
0.723	82.358
0.715	82.002
0.707	81.753
0.699	83.027
0.691	81.968
0.683	82.406
0.675	81.002
0.667	81.755
0.659	80.79
0.651	80.733
0.643	80.791
0.635	80.287
0.627	79.611
0.619	80.001
0.611	78.802
0.603	78.45
0.595	78.746
0.587	78.201
0.579	77.53
0.571	77.208
0.563	75.686
0.555	73.857
0.547	72.788
0.539	71.407
0.531	70.391
0.523	68.48
0.515	67.428
0.507	65.555
0.499	64.354
0.491	62.635
0.483	61.058
0.475	60.187
0.467	59.125
0.459	58.537
0.451	57.584
0.443	56.258
0.435	54.243
0.427	52.513
0.419	50.096
0.411	48.694
0.403	46.753
