Name: Vesicular Basalt
Type: Rock
Class: Igneous
Subclass: Mafic
Particle Size: Solid
Sample No.: Ward33
Owner: JPL
Wavelength Range: All
Origin: Ward's Collection of American Rocks.  Sample locality - Tenderfoot Mountain, 1/4 mile north of Salida, Chaffee County, Colorado.
Description: A black, semi-glassy rock containing abundant vesicles linedwith a white crust of opaline material.  A few very small phenocrysts offeldspar and augite are visible.Geologic Age - Tertiary (probably Eocene).Collected by:  Ward's Natural Science Original ASTER Spectral Library name was jpl.nicolet.rock.igneous.mafic.solid.ward33.spectrum.txt
Measurement: Hemispherical reflectance
X Units: Wavelength (micrometers)
Y Units: Reflectance (percent)
wavelength	value
15.3871	4.1213
15.118	4.1449
14.8581	4.105
14.6069	4.208
14.3642	3.6872
14.1293	3.6351
13.9021	4.1391
13.682	3.8675
13.4687	4.3433
13.2621	4.3537
13.0616	4.4024
12.8672	3.3942
12.6784	4.241
12.4951	3.7986
12.317	4.2101
12.1439	4.5742
11.9757	4.7113
11.812	5.978
11.6527	6.2954
11.4977	6.8972
11.3468	6.7139
11.1997	7.0893
11.0564	7.4879
10.9168	8.1976
10.7806	9.1393
10.6478	9.948
10.5182	10.9265
10.3917	11.724
10.2683	12.3907
10.1477	14.1258
10.0299	15.5045
9.9148	16.1162
9.8024	15.7292
9.6925	16.2313
9.585	16.594
9.4798	14.2654
9.377	12.7513
9.2763	11.0045
9.1778	10.4858
9.0814	9.2839
8.987	7.7565
8.8945	8.1334
8.8039	8.0691
8.7151	8.7799
8.6281	8.8927
8.5428	9.0508
8.4592	9.2352
8.3772	9.1544
8.2967	7.746
8.2179	5.8928
8.1404	5.253
8.0645	4.185
7.9899	3.6241
7.9167	3.7315
7.8449	3.5716
7.7743	3.3837
7.705	3.2502
7.6369	3.0407
7.57	3.626
7.5043	3.0767
7.4397	3.352
7.3762	3.4246
7.3138	3.2842
7.2524	3.4394
7.1921	3.6907
7.1327	3.4749
7.0743	3.6642
7.0169	3.5504
6.9604	3.7677
6.9047	3.5909
6.85	3.5076
6.7962	3.4898
6.7431	4.0892
6.6909	4.1966
6.6395	4.1664
6.5889	3.9619
6.539	3.957
6.49	3.8151
6.4416	3.5529
6.3939	3.7528
6.347	3.811
6.3007	3.8914
6.2551	3.6457
6.2101	3.5963
6.1658	3.6223
6.1222	3.891
6.0791	3.5824
6.0366	3.6325
5.9948	3.6337
5.9535	3.5712
5.9127	4.0728
5.8726	4.1748
5.8329	4.0072
5.7938	4.2535
5.7552	4.333
5.7172	4.0044
5.6796	4.527
5.6425	4.5001
5.6059	4.5685
5.5698	4.6262
5.5341	4.587
5.4989	4.7494
5.4641	5.244
5.4298	5.1863
5.3959	5.3186
5.3624	5.4323
5.3294	5.471
5.2967	5.3294
5.2644	5.5631
5.2326	5.5601
5.2011	5.6887
5.17	5.7919
5.1392	5.8595
5.1088	6.0426
5.0788	6.0884
5.0491	6.4254
5.0198	6.487
4.9908	6.5182
4.9622	6.5669
4.9338	7.1235
4.9058	7.0003
4.8781	7.0633
4.8508	6.906
4.8237	7.1519
4.7969	7.1437
4.7704	7.3569
4.7443	7.4107
4.7184	7.5513
4.6927	7.86
4.6674	7.8452
4.6423	8.0158
4.6175	8.0617
4.593	8.3146
4.5687	8.6194
4.5447	8.7982
4.5209	8.8378
4.4974	9.0778
4.4741	9.2221
4.451	9.4263
4.4282	9.3858
4.4057	9.3071
4.3833	9.5166
4.3612	9.7022
4.3393	9.9323
4.3176	9.7071
4.2962	9.7113
4.2749	9.9854
4.2539	9.8964
4.233	10.0862
4.2124	10.2299
4.192	10.2616
4.1717	10.3298
4.1517	10.4019
4.1319	10.2097
4.1122	10.0739
4.0927	10.77
4.0734	10.2775
4.0543	10.6127
4.0354	10.332
4.0166	10.4207
3.9981	10.4869
3.9796	10.2262
3.9614	10.4705
3.9433	10.5561
3.9254	10.3035
3.9077	10.3841
3.8901	10.7415
3.8726	10.4623
3.8554	10.341
3.8382	10.5438
3.8213	10.0332
3.8045	10.2527
3.7878	10.544
3.7713	10.4357
3.7549	10.2834
3.7386	10.3709
3.7225	9.9549
3.7066	10.2256
3.6907	10.4545
3.675	10.1838
3.6595	9.8097
3.644	9.9921
3.6287	9.7577
3.6136	10.0118
3.5985	9.6419
3.5836	10.2985
3.5688	9.8114
3.5541	9.8078
3.5396	9.169
3.5251	9.7756
3.5108	9.2437
3.4966	9.3413
3.4825	9.0274
3.4685	8.2216
3.4547	8.8475
3.4409	8.8942
3.4273	8.2144
3.4137	8.0516
3.4003	8.6827
3.387	8.2751
3.3738	8.2621
3.3606	7.9977
3.3476	8.2453
3.3347	7.9497
3.3219	7.9922
3.3092	8.052
3.2965	8.2457
3.284	8.3872
3.2716	7.2466
3.2593	7.9248
3.247	7.0849
3.2348	7.5763
3.2228	7.0783
3.2108	7.2705
3.1989	7.2223
3.1871	6.7304
3.1754	7.1947
3.1638	6.6474
3.1523	6.1906
3.1408	6.4523
3.1294	5.9843
3.1181	5.8169
3.1069	5.5353
3.0958	5.9903
3.0848	5.6079
3.0738	6.0551
3.0629	4.7489
3.0521	6.4921
3.0413	5.3101
3.0307	5.6533
3.0201	4.9226
3.0096	5.3097
2.9991	4.7005
2.9887	4.972
2.9784	6.0036
2.9682	4.335
2.9581	5.2019
2.948	4.4927
2.9379	4.7981
2.928	5.3803
2.9181	4.6544
2.9083	4.7613
2.8985	4.9897
2.8888	4.5092
2.8792	4.3977
2.8697	4.4183
2.8602	4.4023
2.8507	4.1498
2.8413	5.0627
2.832	4.9237
2.8228	3.996
2.8136	4.0575
2.8045	4.5355
2.7954	4.4763
2.7864	5.085
2.7774	4.2719
2.7685	5.0865
2.7597	5.1739
2.7509	6.5255
2.7422	6.2843
2.7335	6.8957
2.7249	7.5294
2.7163	7.997
2.7078	9.3898
2.6994	10.279
2.691	11.4078
2.6826	11.0775
2.6743	11.4816
2.666	11.2863
2.6578	10.8178
2.6497	11.4377
2.6416	11.1347
2.6336	11.4723
2.6256	10.7124
2.6176	11.6404
2.6097	11.4836
2.6018	10.8097
2.594	11.5909
2.5863	11.3462
2.5785	11.7256
2.5709	11.1592
2.5633	11.6685
2.5557	11.8006
2.5481	10.6269
2.5406	11.4791
2.5332	10.0339
2.5258	10.8431
2.5184	10.336
2.5111	10.9373
2.5038	11.253
2.4966	10.7543
2.4894	10.138
2.4823	11.6497
2.4752	11.0722
2.4681	11.0567
2.4611	11.2796
2.4541	10.9308
2.4471	11.1384
2.4402	10.5093
2.4333	10.2057
2.4265	11.1297
2.4197	11.0841
2.413	11.0857
2.4063	10.8434
2.3996	10.5878
2.3929	10.2333
2.3863	10.3762
2.3798	12.0515
2.3732	11.6252
2.3667	10.4044
2.3603	11.2304
2.3538	10.9911
2.3474	10.9935
2.3411	11.0322
2.3347	10.3472
2.3285	10.8139
2.3222	10.9822
2.316	10.277
2.3098	9.7142
2.3036	10.8252
2.2975	11.344
2.2914	11.1105
2.2854	11.47
2.2793	11.2363
2.2733	11.8053
2.2674	11.4089
2.2614	10.6281
2.2555	10.2739
2.2497	10.5005
2.2438	10.9068
2.238	10.075
2.2322	8.8042
2.2265	10.7918
2.2208	11.563
2.2151	10.493
2.2094	10.8935
2.2038	11.5006
2.1982	10.5387
2.1926	12.3851
2.187	11.6589
2.1815	10.3147
2.176	12.5572
2.1706	10.6881
2.1651	12.015
2.1597	11.5544
2.1543	11.2974
2.149	11.869
2.1436	11.0123
2.1383	10.298
2.1331	12.3397
2.1278	11.688
2.1226	12.3575
2.1174	11.6606
2.1122	11.5867
2.1071	12.9908
2.1019	12.272
2.0968	11.5567
2.0918	11.5992
2.0867	10.4437
2.0817	12.6167
2.0767	12.0553
2.0717	11.6785
2.0667	12.6883
2.0618	11.0784
2.0569	10.0342
2.052	11.274
2.0472	11.0716
2.0423	10.8852
2.0375	12.9578
2.0327	11.0085
2.028	9.5724
2.0232	12.1817
2.0185	11.0008
2.0138	12.532
2.0091	11.4834
2.0044	12.813
1.9998	13.005
