Name: Phosphorite
Type: Rock
Class: Sedimentary
Subclass: Shale
Particle Size: Solid
Sample No.: Phop005
Owner: USGS
Wavelength Range: All
Origin: Southeastern Idaho
Description: Phosphate ore from upper part of Meade PeakMember, Phosphoria Formation, unaltered (no chemicalweathering), contains quartz, hydroxylapatite, muscovite,and microcline. Sample was Whole rock chips. Original ASTER Spectral Library name was usgs.perknic.rock.sedimentary.shale.solid.phop005.spectrum.txt
Measurement: Directional Hemispherical Reflectance
X Units: Wavelength (micrometers)
Y Units: Reflectance (percent)
wavelength	value
14.051	2.5441
13.826	2.6471
13.609	3.0385
13.398	2.9664
13.193	3.2445
12.995	3.3784
12.802	3.9655
12.616	3.4402
12.434	3.3887
12.258	2.8222
12.086	2.8943
11.92	3.3887
11.757	3.811
11.6	4.1509
11.446	4.4805
11.297	4.7071
11.151	5.0882
11.009	5.4487
10.87	5.2221
10.735	4.8925
10.604	5.0058
10.475	5.6135
10.35	6.1594
10.227	7.1894
10.108	8.1988
9.991	9.7541
9.877	10.9489
9.765	11.5875
9.656	13.8226
9.549	15.4088
9.445	15.3058
9.343	15.7281
9.243	14.6878
9.145	13.2767
9.049	12.3909
8.956	11.1961
8.864	11.5257
8.774	10.6193
8.686	9.1567
8.599	7.519
8.515	8.3842
8.431	8.2194
8.35	8.2297
8.27	8.6108
8.192	9.4039
8.115	8.5902
8.039	6.5714
7.965	5.2015
7.893	3.9758
7.821	3.2342
7.751	2.9973
7.682	2.7913
7.614	2.5956
7.548	2.3999
7.483	2.2557
7.418	2.163
7.355	2.06
7.293	1.9673
7.232	2.0085
7.172	1.7716
7.113	1.6892
7.055	1.5759
6.998	1.4832
6.942	1.3596
6.886	1.5141
6.832	1.5347
6.778	1.7613
6.726	1.957
6.674	2.0703
6.623	2.3896
6.572	2.3999
6.523	2.3484
6.474	2.5441
6.426	2.6471
6.378	2.5029
6.332	2.3896
6.286	2.2248
6.24	2.163
6.195	2.2454
6.151	2.3175
6.108	2.2969
6.065	2.3484
6.023	2.5235
5.981	2.6471
5.94	2.7192
5.899	3.1106
5.859	3.502
5.82	4.0067
5.781	4.3981
5.743	5.0264
5.705	5.3663
5.667	5.2118
5.63	4.9749
5.594	4.5732
5.558	4.7895
5.523	5.1706
5.487	5.6444
5.453	6.0873
5.419	5.9431
5.385	4.8719
5.352	4.3672
5.319	4.4393
5.286	4.7586
5.254	5.5105
5.222	6.5508
5.191	7.1997
5.16	7.2615
5.129	7.3439
5.099	7.3542
5.069	6.9216
5.04	6.5096
5.01	5.4693
4.981	5.6959
4.953	6.6332
4.925	7.4984
4.897	8.8065
4.869	9.6305
4.842	10.3618
4.815	9.9601
4.788	9.8983
4.762	10.9386
4.736	12.0098
4.71	12.2261
4.684	12.1334
4.659	12.1952
4.634	12.8441
4.61	13.5754
4.585	15.0998
4.561	15.553
4.537	16.2534
4.513	16.7478
4.49	16.8611
4.467	17.0877
4.444	17.51
4.421	18.2104
4.398	18.6327
4.376	19.2507
4.354	19.9511
4.332	20.3013
4.311	20.3322
4.289	19.9099
4.268	18.8181
4.247	20.2292
4.226	21.4858
4.206	21.6197
4.185	21.6712
4.165	21.9802
4.145	22.2068
4.126	22.3098
4.106	22.5261
4.086	22.4128
4.067	22.2583
4.048	22.1244
4.029	21.1562
4.011	20.1056
3.992	20.7751
3.974	19.8687
3.956	21.012
3.938	21.5064
3.92	21.8772
3.902	21.7639
3.884	21.5476
3.867	21.2798
3.85	21.2386
3.833	20.909
3.816	20.497
3.799	20.2086
3.782	19.7657
3.766	19.3228
3.75	19.0035
3.733	18.5297
3.717	18.0868
3.702	17.6027
3.686	17.0259
3.67	16.3873
3.655	15.8414
3.639	15.4191
3.624	14.6981
3.609	13.9668
3.594	13.1737
3.579	12.4424
3.564	11.536
3.549	10.9901
3.535	10.3412
3.521	10.2382
3.506	10.1764
3.492	10.1867
3.478	9.991
3.464	9.7541
3.45	9.5172
3.437	9.3112
3.423	9.0537
3.409	8.6932
3.396	8.24
3.383	8.0031
3.37	7.6941
3.357	7.3645
3.344	7.004
3.331	6.7671
3.318	6.7053
3.305	6.4993
3.293	6.2109
3.28	6.2315
3.268	6.0976
3.255	5.9843
3.243	6.0152
3.231	6.0461
3.219	6.0152
3.207	6.0049
3.195	5.5826
3.183	5.5311
3.172	5.4384
3.16	5.3457
3.149	5.2221
3.137	5.1191
3.126	4.7689
3.115	4.8822
3.103	4.6968
3.092	4.6556
3.081	4.5938
3.07	4.532
3.06	4.4496
3.049	4.5835
3.038	4.429
3.027	4.2951
3.017	4.4393
3.006	4.3157
2.996	4.6556
2.986	4.4187
2.975	4.5835
2.965	4.9543
2.955	4.7792
2.945	4.9749
2.935	4.9234
2.925	5.1809
2.915	4.9749
2.905	5.0676
2.896	5.1912
2.886	5.5723
2.876	5.6959
2.867	5.3354
2.857	5.3766
2.848	5.459
2.838	5.5414
2.829	5.6341
2.82	5.1912
2.811	5.15
2.802	5.1191
2.793	5.15
2.784	4.6144
2.775	4.3363
2.766	3.5638
2.757	3.1106
2.748	3.9655
2.74	4.0273
2.731	4.635
2.722	5.3045
2.714	6.4375
2.705	5.3045
2.697	6.7156
2.688	12.8544
2.68	19.2198
2.672	23.9372
2.664	27.4804
2.655	29.4477
2.647	30.9721
2.639	32.4038
2.631	33.4544
2.623	33.7325
2.615	34.7316
2.607	35.2672
2.599	35.4835
2.592	35.7925
2.584	36.6474
2.576	36.5753
2.569	37.1006
2.561	37.5435
2.553	38.007
2.546	38.0482
2.538	38.2645
2.531	38.522
2.524	38.1203
2.516	39.2121
2.509	38.8722
2.502	39.5623
2.48	40.0499
2.456	41.8939
2.432	43.6074
2.408	45.0099
2.384	45.7947
2.36	46.9451
2.336	48.5823
2.312	50.2047
2.288	51.316
2.264	51.1637
2.24	49.714
2.216	46.8625
2.192	48.3232
2.168	49.5064
2.144	49.453
2.12	48.6967
2.096	49.099
2.072	49.9526
2.048	49.7449
2.024	48.9259
2	48.3733
1.976	47.7332
1.952	46.5396
1.928	45.4898
1.904	47.9449
1.88	54.6005
1.856	56.6312
1.832	56.7413
1.808	56.6175
1.784	56.4771
1.76	56.3536
1.736	56.3046
1.712	56.1223
1.688	55.7689
1.664	55.4643
1.64	55.1769
1.616	54.7424
1.592	54.3379
1.568	53.5733
1.544	53.0748
1.52	52.4766
1.496	51.7692
1.472	50.9504
1.448	50.3698
1.424	48.9462
1.4	49.2148
1.376	50.3106
1.352	50.0946
1.328	49.956
1.304	49.4942
1.28	49.0542
1.256	48.4381
1.232	47.8291
1.208	47.2135
1.184	46.6796
1.16	46.0901
1.136	45.53
1.112	44.8965
1.088	44.3159
1.064	43.6085
1.04	43.0243
1.016	42.385
0.992	41.6478
0.968	40.8274
0.944	40.0626
0.92	39.2889
0.896	38.975
0.872	38.3301
0.848	38.4373
0.824	37.5538
0.8	36.4817
0.776	35.2622
0.752	33.8465
0.728	32.4736
0.704	30.9743
0.68	29.5227
0.656	28.1514
0.632	26.9311
0.608	25.8107
0.584	24.8032
0.56	23.7396
0.536	22.5159
0.512	21.2686
0.488	20.077
0.464	19.4353
0.44	18.6066
0.416	17.3744
