Name: Illite-bearing Shale
Type: rock
Class: Sedimentary
Subclass: Shale
Particle Size: Coarse
Sample No.: shale_5
Owner: JHU
Wavelength Range: All
Origin: Sample No. 449,  The Hunt and Salisbury Collection at the U.S.Geological Survey, Denver, Co.
Description: Sample is very homogeneously fine grained to microcrystalline, consisting of a yellowish-brown to cloudy material (clay) and some very fine grained quartz. There is also, scattered throughout, a reddish brown opaque phase (hematite?), and perhaps carbonaceous material as well.Particle size was 500 - 1500 Micrometers. Original ASTER Spectral Library name was jhu.becknic.rock.sedimentary.shale.coarse.shale5.spectrum.txt
Measurement: Directional (10 Degree) Hemispherical Reflectance
X Units: Wavelength (micrometers)
Y Units: Reflectance (percent)
wavelength	value
14.0112	1.6597
13.7147	1.9832
13.4304	2.0495
13.1577	2.2375
12.8959	2.4581
12.6443	2.2471
12.4023	1.8344
12.1694	1.927
11.945	2.1414
11.7289	2.3969
11.5203	2.6917
11.3191	2.9269
11.1248	3.0405
10.937	2.8708
10.7555	2.957
10.5799	3.3008
10.4099	3.5887
10.2454	3.8332
10.0859	4.0595
9.9313	4.4198
9.7814	4.9222
9.636	5.9484
9.4948	6.5753
9.3577	6.5164
9.2245	6.3924
9.095	6.6827
8.9691	6.5934
8.8467	6.5881
8.7275	6.4922
8.6116	5.1739
8.4986	5.7094
8.3886	5.1276
8.2814	5.2517
8.1769	5.507
8.075	4.4487
7.9756	3.6109
7.8786	2.8783
7.784	2.6263
7.6916	2.5838
7.6014	2.4311
7.5133	2.3431
7.4272	2.1983
7.343	2.0359
7.2607	1.959
7.1803	1.8016
7.1016	1.6875
7.0246	1.633
6.9493	1.6624
6.8755	1.7418
6.8034	1.9272
6.7327	2.0262
6.6634	2.0799
6.5956	2.1152
6.5292	2.2272
6.464	2.4206
6.4002	2.2818
6.3376	2.1502
6.2762	1.955
6.216	1.8249
6.157	1.7313
6.099	1.7248
6.0421	1.7353
5.9863	1.8571
5.9315	1.9028
5.8777	1.9645
5.8249	2.1985
5.773	2.295
5.722	2.3904
5.6719	2.3906
5.6227	2.3306
5.5744	2.299
5.5268	2.4043
5.4801	2.4962
5.4341	2.5763
5.3889	2.4883
5.3445	2.4263
5.3008	2.5069
5.2578	2.7218
5.2154	2.9883
5.1738	3.1676
5.1328	3.2378
5.0925	3.2944
5.0528	3.273
5.0137	3.3115
4.9752	3.4944
4.9373	3.7839
4.9	4.1207
4.8632	4.5282
4.827	4.7332
4.7913	4.9239
4.7561	5.1256
4.7215	5.3259
4.6873	5.4438
4.6536	5.706
4.6205	6.0099
4.5877	6.3025
4.5555	6.5363
4.5237	6.659
4.4923	6.66
4.4614	6.8267
4.4309	7.1634
4.4008	7.4991
4.3711	7.8563
4.3418	8.0981
4.3129	8.1917
4.2844	7.927
4.2563	7.596
4.2285	8.4638
4.2011	8.8472
4.174	9.0526
4.1473	9.2511
4.1209	9.4501
4.0949	9.6347
4.0692	9.7504
4.0438	9.7837
4.0187	9.6739
3.994	9.2738
3.9695	8.9392
3.9453	9.0559
3.9214	9.26
3.8979	9.5047
3.8746	9.6023
3.8515	9.7251
3.8288	9.6167
3.8063	9.4141
3.7841	9.4531
3.7621	9.3925
3.7404	9.2511
3.7189	9.0528
3.6977	8.8822
3.6767	8.6532
3.656	8.4303
3.6355	8.1778
3.6152	7.8914
3.5951	7.5562
3.5753	7.1837
3.5557	6.8217
3.5363	6.5937
3.5171	6.4817
3.4981	6.4145
3.4793	6.2776
3.4607	6.118
3.4423	5.9997
3.4241	5.8443
3.4061	5.6627
3.3883	5.4745
3.3707	5.3254
3.3533	5.1804
3.336	5.078
3.3189	4.9541
3.302	4.9024
3.2853	4.8291
3.2687	4.7983
3.2523	4.7742
3.2361	4.7023
3.22	4.6344
3.204	4.5631
3.1883	4.5028
3.1727	4.4102
3.1572	4.3315
3.1419	4.2777
3.1268	4.2028
3.1117	4.1511
3.0969	4.088
3.0821	4.0109
3.0675	3.9698
3.0531	3.925
3.0388	3.8973
3.0246	3.8475
3.0105	3.8341
2.9966	3.8312
2.9828	3.8295
2.9692	3.8011
2.9556	3.7851
2.9422	3.751
2.9289	3.7757
2.9157	3.8207
2.9027	3.8111
2.8897	3.8805
2.8769	3.9205
2.8642	3.9418
2.8516	3.9238
2.8391	3.8458
2.8267	3.7766
2.8144	3.6312
2.8022	3.4128
2.7902	3.212
2.7782	2.8539
2.7664	2.5242
2.7546	2.4027
2.7429	2.662
2.7314	3.1629
2.7199	3.8984
2.7085	5.0514
2.6973	6.4678
2.6861	8.2462
2.675	9.1696
2.664	9.9127
2.6531	11.0381
2.6423	11.5386
2.6315	11.2743
2.6209	11.4581
2.6103	11.6798
2.5999	11.7547
2.5895	12.0571
2.5792	12.4342
2.569	12.7115
2.5588	12.9287
2.5487	13.1345
2.5388	13.2815
2.5289	13.32
2.519	13.3555
2.5093	13.3259
2.4996	13.2735
2.49	13.2775
2.4805	13.1867
2.471	13.1283
2.4616	13.0364
2.4523	12.9824
2.4431	13.027
2.4339	13.2324
2.4248	13.5864
2.4157	13.9499
2.4068	14.3004
2.3979	14.4626
2.389	14.4371
2.3802	14.3191
2.3715	14.1444
2.3629	13.8915
2.3543	13.5721
2.3458	13.5554
2.3373	13.9652
2.3289	14.6054
2.3206	15.2813
2.3123	16.0769
2.3041	16.7126
2.2959	17.1595
2.2878	17.4196
2.2798	17.3643
2.2718	16.8531
2.2638	16.3133
2.2559	15.9061
2.2481	15.6749
2.2403	15.5529
2.2326	14.9734
2.225	14.4126
2.2173	14.1446
2.2098	14.4954
2.2023	15.0287
2.1948	15.766
2.1874	16.7332
2.18	17.6646
2.1727	18.3453
2.1655	18.8166
2.1583	19.0783
2.1511	19.1408
2.144	19.2257
2.1369	19.0961
2.1299	19.092
2.1229	19.1119
2.116	19.1172
2.1091	19.1664
2.1023	19.3401
2.0955	19.4705
2.0887	19.564
2.082	19.5237
2.06	19.6302
2.028	19.478
1.996	18.9561
1.964	18.4205
1.932	17.7326
1.9	16.2702
1.868	19.5622
1.836	20.0345
1.804	19.8864
1.772	19.5618
1.74	19.3236
1.708	18.7969
1.676	18.2573
1.644	17.8229
1.612	17.425
1.58	16.8585
1.548	16.4742
1.516	15.8015
1.484	15.2764
1.452	14.8247
1.42	13.9489
1.388	13.6594
1.356	13.6539
1.324	13.2767
1.292	12.7499
1.26	12.4204
1.228	12.2228
1.196	12.0217
1.164	11.8751
1.132	11.6114
1.1	11.4906
1.068	11.4349
1.036	11.8539
1.004	12.0049
0.972	12.1127
0.94	12.4812
0.908	12.6828
0.876	12.915
0.844	13.2473
0.812	13.3061
0.795	13.5583
0.787	13.3927
0.779	13.4288
0.771	13.2461
0.763	13.4763
0.755	13.5553
0.747	13.5325
0.739	13.5047
0.731	13.569
0.723	13.5903
0.715	13.9033
0.707	13.9652
0.699	14.1824
0.691	14.2037
0.683	14.3983
0.675	14.6455
0.667	14.8731
0.659	14.864
0.651	15.1016
0.643	15.4943
0.635	15.4763
0.627	15.8158
0.619	16.0498
0.611	16.3338
0.603	16.3751
0.595	16.5494
0.587	16.982
0.579	17.038
0.571	17.2523
0.563	17.2418
0.555	17.3317
0.547	17.5271
0.539	17.772
0.531	17.4555
0.523	17.8333
0.515	17.8104
0.507	17.6797
0.499	17.4956
0.491	17.6766
0.483	17.3254
0.475	17.2644
0.467	17.1607
0.459	16.5502
0.451	16.5733
0.443	16.2115
0.435	16.1657
0.427	15.4589
0.419	15.0451
0.411	14.8335
0.403	14.4627
