Name: Purple-banded Sandstone
Type: rock
Class: Sedimentary
Subclass: Sandstone
Particle Size: Fine
Sample No.: sandstone_6
Owner: JHU
Wavelength Range: All
Origin: Sample No. 453,  The Hunt and Salisbury Collection at the U.S.Geological Survey, Denver, Co.
Description: This low porosity sandstone contains fine-grained, well-sorted subangular quartz set in a ferruginous clay matrix. There has been a moderate amount of silica recrystallization, and in places, it acts as silica cement In addition, there has been minor pressure solution of the quartz. There are scattered opaques, brown and green glauconite, zircon, and a trace of microcline. Particle size was 0 - 75 Micrometers. Original ASTER Spectral Library name was jhu.becknic.rock.sedimentary.sandstone.fine.sandst6.spectrum.txt
Measurement: Directional (10 Degree) Hemispherical Reflectance
X Units: Wavelength (micrometers)
Y Units: Reflectance (percent)
wavelength	value
14.983	2.2595
14.645	1.63
14.321	1.1268
14.011	2.1645
13.715	3.2091
13.43	2.5607
13.158	2.2033
12.896	2.4117
12.644	1.715
12.402	1.6504
12.169	2.4835
11.945	4.2426
11.729	5.2798
11.52	5.1377
11.319	4.3015
11.125	3.1757
10.937	2.1178
10.755	1.8929
10.58	1.9016
10.41	2.6365
10.245	3.0457
10.086	2.8816
9.9313	2.7857
9.7814	2.645
9.636	3.6718
9.4948	4.5343
9.3577	6.0743
9.2245	6.588
9.095	5.268
8.9691	3.934
8.8467	6.7682
8.7275	7.1331
8.6116	5.8574
8.4986	7.6506
8.3886	8.2637
8.2814	9.4321
8.1769	10.093
8.075	7.1862
7.9756	4.8216
7.8786	2.9898
7.784	2.3845
7.6916	2.1799
7.6014	2.0065
7.5133	2.1091
7.4272	2.2443
7.343	2.4911
7.2607	3.032
7.1803	3.6361
7.1016	4.1663
7.0246	4.5305
6.9493	5.263
6.8755	5.6687
6.8034	5.8782
6.7327	5.8986
6.6634	6.5404
6.5956	6.8331
6.5292	7.401
6.464	10.175
6.4002	10.58
6.3376	8.8228
6.2762	6.9347
6.216	5.9879
6.157	7.2541
6.099	9.4783
6.0421	10.251
5.9863	10.067
5.9315	9.2531
5.8777	11.196
5.8249	12.974
5.773	14.478
5.722	15.376
5.6719	14.203
5.6227	11.38
5.5744	10.533
5.5268	10.72
5.4801	11.186
5.4341	12.293
5.3889	9.2652
5.3445	7.6664
5.3008	8.326
5.2578	10.096
5.2154	13.118
5.1738	13.562
5.1328	13.708
5.0925	14.471
5.0528	14.642
5.0137	15.229
4.9752	17.528
4.9373	21.567
4.9	27.062
4.8632	33.821
4.827	37.234
4.7913	39.889
4.7561	41.569
4.7215	41.992
4.6873	40.561
4.6536	42.305
4.6205	45.546
4.5877	47.64
4.5555	48.33
4.5237	46.636
4.4923	43.639
4.4614	43.586
4.4309	45.371
4.4008	47.161
4.3711	49.32
4.3418	50.908
4.3129	51.414
4.2844	51.097
4.2563	51.532
4.2285	52.248
4.2011	52.521
4.174	53.02
4.1473	53.527
4.1209	54.083
4.0949	54.576
4.0692	54.967
4.0438	55.048
4.0187	54.945
3.994	54.839
3.9695	54.947
3.9453	55.253
3.9214	55.273
3.8979	55.019
3.8746	54.603
3.8515	54.234
3.8288	53.959
3.8063	53.677
3.7841	53.138
3.7621	52.455
3.7404	51.383
3.7189	50.81
3.6977	49.291
3.6767	49.877
3.656	49.988
3.6355	49.504
3.6152	48.738
3.5951	48.004
3.5753	47.459
3.5557	46.775
3.5363	45.251
3.5171	42.932
3.4981	42.892
3.4793	43.627
3.4607	42.7
3.4423	41.233
3.4241	41.024
3.4061	40.304
3.3883	39.5
3.3707	38.502
3.3533	37.891
3.336	37.592
3.3189	36.765
3.302	35.662
3.2853	34.5
3.2687	33.36
3.2523	32.245
3.2361	31.136
3.22	30.017
3.204	28.965
3.1883	28.051
3.1727	27.346
3.1572	26.808
3.1419	26.239
3.1268	25.715
3.1117	25.254
3.0969	24.77
3.0821	24.463
3.0675	24.093
3.0531	23.777
3.0388	23.517
3.0246	23.282
3.0105	23.049
2.9966	22.682
2.9828	22.225
2.9692	21.745
2.9556	21.203
2.9422	20.826
2.9289	20.319
2.9157	19.959
2.9027	19.356
2.8897	18.8
2.8769	18.533
2.8642	18.068
2.8516	17.383
2.8391	17.042
2.8267	16.387
2.8144	15.15
2.8022	13.47
2.7902	11.226
2.7782	7.7775
2.7664	3.5179
2.7546	3.1963
2.7429	2.9839
2.7314	2.34
2.7199	2.6391
2.7085	1.9073
2.6973	3.6531
2.6861	11.743
2.675	19.5
2.664	25.182
2.6531	29.692
2.6423	32.371
2.6315	34.293
2.6209	35.79
2.6103	36.674
2.5999	37.217
2.5895	37.647
2.5792	38.025
2.569	38.508
2.5588	39.309
2.5487	39.46
2.5388	40.022
2.5289	40.446
2.519	40.933
2.5093	41.268
2.4996	41.681
2.49	41.803
2.4805	42.882
2.471	43.624
2.4616	43.865
2.4523	44.21
2.4431	44.805
2.4339	46.122
2.4248	47.321
2.4157	48.017
2.4068	48.356
2.3979	47.883
2.389	46.773
2.3802	46.62
2.3715	47.968
2.3629	48.245
2.3543	48.201
2.3458	49.166
2.3373	49.768
2.3289	49.345
2.3206	49.405
2.3123	49.704
2.3041	50.659
2.2959	51.239
2.2878	51.617
2.2798	52.09
2.2718	52.657
2.2638	52.992
2.2559	53.154
2.2481	53.16
2.2403	52.911
2.2326	53.092
2.225	52.459
2.2173	49.882
2.2098	39.629
2.2023	45.424
2.1948	47.179
2.1874	48.322
2.18	48.822
2.1727	48.396
2.1655	47.801
2.1583	48.142
2.1511	50.081
2.144	52.74
2.1369	54.167
2.1299	54.821
2.1229	55.047
2.116	55.115
2.1091	55.433
2.1023	55.82
2.0955	55.884
2.0887	55.927
2.082	56.245
2.06	56.517
2.028	56.11
1.996	55.444
1.964	54.311
1.932	53.2
1.9	54.747
1.868	53.559
1.836	55.089
1.804	54.207
1.772	53.848
1.74	53.666
1.708	53.843
1.676	53.397
1.644	53.005
1.612	52.832
1.58	53.239
1.548	53.277
1.516	53.294
1.484	52.648
1.452	52.55
1.42	51.683
1.388	48.731
1.356	51.697
1.324	52.616
1.292	53.341
1.26	53.978
1.228	54.157
1.196	54.41
1.164	54.224
1.132	54.994
1.1	55.392
1.068	55.805
1.036	55.879
1.004	55.856
0.972	55.991
0.94	56.117
0.908	56.214
0.876	56.318
0.844	56.972
0.812	57.784
0.795	57.241
0.787	57.153
0.779	57.449
0.771	57.206
0.763	56.816
0.755	56.429
0.747	56.624
0.739	56.133
0.731	56.004
0.723	55.303
0.715	54.936
0.707	54.641
0.699	54.301
0.691	54.708
0.683	54.565
0.675	53.562
0.667	54.125
0.659	53.618
0.651	53.372
0.643	53.215
0.635	52.913
0.627	52.561
0.619	52.511
0.611	52.055
0.603	52.052
0.595	51.584
0.587	50.915
0.579	51.016
0.571	50.381
0.563	49.468
0.555	47.183
0.547	46.587
0.539	45.6
0.531	44.683
0.523	43.216
0.515	42.09
0.507	41.106
0.499	39.636
0.491	38.406
0.483	37.322
0.475	36.801
0.467	36.048
0.459	36.37
0.451	35.574
0.443	34.674
0.435	32.92
0.427	30.934
0.419	28.786
0.411	27.657
0.403	26.007
