Name: Limestone CaCO3
Type: Rock
Class: Sedimentary
Subclass: Limestone
Particle Size: Solid
Sample No.: ro367
Owner: Larry Rowan, USGS
Wavelength Range: All
Origin: Ronda, Spain
Description: white limestone. Sample was Whole rock chips. Original ASTER Spectral Library name was usgs.perknic.rock.sedimentary.limestone.solid.ls367.spectrum.txt
Measurement: Reflectance
X Units: Wavelength (micrometers)
Y Units: Reflectance (percent)
wavelength	value
0.4	0.451
0.408	0.459
0.416	0.465
0.424	0.474
0.432	0.475
0.44	0.485
0.448	0.486
0.456	0.495
0.464	0.496
0.472	0.501
0.48	0.505
0.488	0.505
0.496	0.513
0.504	0.518
0.512	0.521
0.52	0.523
0.528	0.534
0.536	0.541
0.544	0.536
0.552	0.546
0.56	0.548
0.568	0.553
0.576	0.549
0.584	0.553
0.592	0.559
0.6	0.558
0.608	0.557
0.616	0.557
0.624	0.554
0.632	0.556
0.64	0.556
0.648	0.558
0.656	0.562
0.664	0.564
0.672	0.56
0.68	0.569
0.688	0.563
0.696	0.576
0.704	0.576
0.712	0.576
0.72	0.578
0.728	0.581
0.736	0.582
0.744	0.58
0.752	0.581
0.76	0.582
0.768	0.584
0.776	0.584
0.784	0.581
0.792	0.581
0.8	0.587
0.832	0.587
0.864	0.582
0.896	0.581
0.928	0.578
0.96	0.579
0.992	0.58
1.024	0.581
1.056	0.582
1.088	0.592
1.12	0.595
1.152	0.597
1.184	0.602
1.216	0.606
1.248	0.602
1.28	0.611
1.312	0.613
1.344	0.604
1.376	0.587
1.408	0.538
1.44	0.523
1.472	0.532
1.504	0.556
1.536	0.565
1.568	0.579
1.6	0.581
1.632	0.581
1.664	0.581
1.696	0.569
1.728	0.549
1.76	0.556
1.792	0.558
1.824	0.525
1.856	0.466
1.888	0.427
1.92	0.382
1.952	0.379
1.984	0.382
2.016	0.442
2.048	0.473
2.08	0.485
2.1021	0.4623
2.109	0.4632
2.1159	0.4593
2.1228	0.4512
2.1298	0.4471
2.1368	0.4376
2.1438	0.4151
2.1509	0.3967
2.1581	0.3984
2.1653	0.4055
2.1726	0.4163
2.1799	0.4272
2.1872	0.4298
2.1946	0.4322
2.2021	0.4247
2.2096	0.4133
2.2172	0.4075
2.2248	0.3899
2.2324	0.3703
2.2401	0.3541
2.2479	0.3337
2.2557	0.3125
2.2636	0.2916
2.2715	0.2732
2.2795	0.2491
2.2876	0.2278
2.2957	0.2163
2.3038	0.2112
2.3121	0.2061
2.3203	0.1935
2.3287	0.1801
2.3371	0.1663
2.3455	0.1722
2.354	0.1964
2.3626	0.2445
2.3712	0.2853
2.38	0.3215
2.3887	0.3342
2.3976	0.3263
2.4065	0.3236
2.4154	0.319
2.4245	0.2988
2.4336	0.2781
2.4427	0.254
2.452	0.2322
2.4613	0.2088
2.4707	0.1847
2.4801	0.1683
2.4896	0.1552
2.4992	0.1514
2.5089	0.1461
2.5187	0.1395
2.5285	0.1249
2.5384	0.12
2.5484	0.1407
2.5584	0.1828
2.5686	0.2194
2.5788	0.2438
2.5891	0.2675
2.5995	0.286
2.6099	0.2973
2.6205	0.3004
2.6311	0.2982
2.6418	0.292
2.6526	0.2848
2.6635	0.271
2.6745	0.256
2.6856	0.2334
2.6968	0.2026
2.708	0.1693
2.7194	0.1404
2.7309	0.1245
2.7424	0.1093
2.7541	0.1017
2.7658	0.0949
2.7777	0.0881
2.7896	0.0826
2.8017	0.0832
2.8138	0.0806
2.8261	0.0776
2.8385	0.0792
2.851	0.0775
2.8636	0.0765
2.8763	0.0731
2.8891	0.0725
2.902	0.0708
2.915	0.0696
2.9282	0.0697
2.9415	0.0696
2.9549	0.0695
2.9684	0.0707
2.9821	0.0692
2.9959	0.0696
3.0098	0.0695
3.0238	0.0712
3.038	0.0691
3.0523	0.0699
3.0667	0.0709
3.0813	0.0706
3.096	0.0699
3.1109	0.0701
3.1259	0.0702
3.141	0.0714
3.1563	0.0728
3.1718	0.075
3.1874	0.0769
3.2031	0.0788
3.219	0.0788
3.2351	0.0776
3.2513	0.0781
3.2677	0.0774
3.2843	0.074
3.301	0.0709
3.3179	0.0667
3.3349	0.0548
3.3522	0.0435
3.3696	0.0456
3.3872	0.0467
3.405	0.0471
3.423	0.0474
3.4412	0.0479
3.4595	0.0448
3.4781	0.0402
3.4968	0.0442
3.5158	0.0485
3.535	0.0606
3.5544	0.0698
3.574	0.0718
3.5938	0.0833
3.6138	0.0906
3.6341	0.0938
3.6545	0.0975
3.6753	0.0987
3.6962	0.0977
3.7174	0.0943
3.7389	0.0883
3.7605	0.0818
3.7825	0.0728
3.8047	0.0546
3.8272	0.047
3.8499	0.0431
3.8729	0.0417
3.8962	0.0414
3.9197	0.0401
3.9436	0.0359
3.9677	0.0313
3.9921	0.0344
4.0169	0.042
4.0419	0.051
4.0673	0.0592
4.093	0.0646
4.119	0.0701
4.1453	0.0755
4.172	0.0792
4.199	0.0821
4.2264	0.084
4.2541	0.0856
4.2822	0.0855
4.3107	0.0835
4.3395	0.0835
4.3688	0.0883
4.3984	0.0859
4.4285	0.0817
4.4589	0.0747
4.4898	0.0671
4.5211	0.0654
4.5529	0.0645
4.5851	0.0622
4.6177	0.0577
4.6509	0.0491
4.6845	0.0488
4.7186	0.0594
4.7532	0.0681
4.7883	0.0716
4.8239	0.0713
4.8601	0.07
4.8968	0.069
4.9341	0.0678
4.9719	0.0676
5.0103	0.0683
5.0493	0.067
5.089	0.053
5.1292	0.0619
5.1702	0.0592
5.2117	0.0561
5.254	0.052
5.2969	0.0478
5.3405	0.0429
5.3849	0.038
5.43	0.0331
5.4759	0.0287
5.5225	0.0224
5.57	0.0179
5.6182	0.0237
5.6673	0.0216
5.7173	0.0198
5.7682	0.0185
5.82	0.0178
5.8727	0.0168
5.9264	0.0158
5.9811	0.0143
6.0368	0.0126
6.0935	0.0127
6.1513	0.014
6.2103	0.0178
6.2703	0.0284
6.3316	0.06
6.394	0.1514
6.4577	0.3047
6.5227	0.3102
6.589	0.2841
6.6566	0.2564
6.7257	0.2305
6.7962	0.2097
6.8682	0.1965
6.9418	0.185
7.0169	0.1829
7.0937	0.1678
7.1722	0.1223
7.2524	0.0986
7.3345	0.0917
7.4184	0.0852
7.5043	0.0808
7.5922	0.077
7.6821	0.0764
7.7743	0.0731
7.8686	0.0723
7.9653	0.0705
8.0644	0.0677
8.166	0.0675
8.2701	0.0649
8.377	0.0605
8.4867	0.0579
8.5992	0.0585
8.7149	0.0623
8.8336	0.0662
8.9556	0.0669
9.0811	0.0663
9.2101	0.0586
9.3428	0.0625
9.4795	0.0648
9.6201	0.0607
9.765	0.056
9.9144	0.0538
10.0684	0.0559
10.2272	0.0568
10.3911	0.0591
10.5604	0.0552
10.7353	0.0582
10.9161	0.0688
11.103	0.075
11.2965	0.1715
11.4968	0.0704
11.7044	0.0538
11.9196	0.0522
12.1429	0.0504
12.3747	0.0478
12.6155	0.0449
12.8659	0.0435
13.1264	0.0443
13.3977	0.0422
13.6804	0.0346
13.9753	0.0339
