Name: Siltstone
Type: rock
Class: Sedimentary
Subclass: Siltstone
Particle Size: Coarse
Sample No.: siltstone_1
Owner: JHU
Wavelength Range: All
Origin: Sample No. 455,  The Hunt and Salisbury Collection at the U.S.Geological Survey, Denver, Co.
Description: This is a very fine-grained, lineated/laminated sample consisting of brownish clay and very fine quartz particles (about equal amounts), along with tiny slivers of another phase (feldspar?). There are abundant small flecks and discontinuous lenses of carbonaceous and opaque material present as well.Particle size was 500 - 1500 Micrometers. Original ASTER Spectral Library name was jhu.becknic.rock.sedimentary.siltstone.coarse.siltst1.spectrum.txt
Measurement: Directional (10 Degree) Hemispherical Reflectance
X Units: Wavelength (micrometers)
Y Units: Reflectance (percent)
wavelength	value
14.0112	1.9311
13.7147	1.625
13.4304	1.7217
13.1577	1.7095
12.8959	1.6449
12.6443	1.6038
12.4023	2.0803
12.1694	2.7637
11.945	3.1651
11.7289	3.4795
11.5203	3.6183
11.3191	3.8501
11.1248	3.9011
10.937	3.8377
10.7555	3.6918
10.5799	3.5458
10.4099	3.4152
10.2454	3.3996
10.0859	3.5317
9.9313	3.7175
9.7814	3.6939
9.636	3.9633
9.4948	3.5389
9.3577	3.1706
9.2245	3.0084
9.095	2.7861
8.9691	2.6737
8.8467	2.6536
8.7275	2.9412
8.6116	3.296
8.4986	3.6194
8.3886	3.8018
8.2814	3.5291
8.1769	2.8902
8.075	2.3255
7.9756	1.9861
7.8786	1.8473
7.784	1.8193
7.6916	1.8657
7.6014	1.9097
7.5133	1.9715
7.4272	2.049
7.343	2.1454
7.2607	2.2945
7.1803	2.4759
7.1016	2.5821
7.0246	2.5845
6.9493	2.712
6.8755	2.9491
6.8034	3.229
6.7327	3.4788
6.6634	3.7472
6.5956	3.8777
6.5292	4.0131
6.464	4.1064
6.4002	4.0621
6.3376	3.8013
6.2762	3.6176
6.216	3.4468
6.157	3.2984
6.099	3.4353
6.0421	3.7145
5.9863	4.1635
5.9315	4.5081
5.8777	4.7787
5.8249	4.9656
5.773	5.0067
5.722	5.0098
5.6719	5.0295
5.6227	5.1845
5.5744	5.3443
5.5268	5.7743
5.4801	6.3202
5.4341	6.7595
5.3889	7.156
5.3445	7.4263
5.3008	7.7469
5.2578	8.1944
5.2154	8.7724
5.1738	9.5085
5.1328	10.2371
5.0925	11.0288
5.0528	11.6425
5.0137	11.9987
4.9752	12.5126
4.9373	13.1017
4.9	13.2051
4.8632	13.7157
4.827	14.1437
4.7913	14.1236
4.7561	14.4509
4.7215	14.955
4.6873	15.3232
4.6536	15.7565
4.6205	16.4238
4.5877	17.1394
4.5555	17.8608
4.5237	18.6076
4.4923	19.3245
4.4614	20.0467
4.4309	20.6429
4.4008	21.2145
4.3711	21.803
4.3418	22.3706
4.3129	22.9254
4.2844	23.4352
4.2563	23.8882
4.2285	24.2896
4.2011	24.6392
4.174	24.8928
4.1473	25.1311
4.1209	25.3524
4.0949	25.5118
4.0692	25.6206
4.0438	25.7189
4.0187	25.8051
3.994	25.8388
3.9695	25.8793
3.9453	25.862
3.9214	25.8439
3.8979	25.7604
3.8746	25.6297
3.8515	25.4807
3.8288	25.3141
3.8063	25.1248
3.7841	24.8498
3.7621	24.604
3.7404	24.2819
3.7189	23.9896
3.6977	23.6367
3.6767	23.2938
3.656	22.9168
3.6355	22.4889
3.6152	22.0382
3.5951	21.5413
3.5753	20.9991
3.5557	20.3744
3.5363	19.7445
3.5171	19.0683
3.4981	18.7138
3.4793	18.6975
3.4607	18.291
3.4423	17.8447
3.4241	17.5735
3.4061	17.1622
3.3883	16.6373
3.3707	16.1451
3.3533	15.6984
3.336	15.2943
3.3189	14.8617
3.302	14.4157
3.2853	13.9949
3.2687	13.6224
3.2523	13.2989
3.2361	13.0043
3.22	12.7271
3.204	12.3765
3.1883	11.9725
3.1727	11.5573
3.1572	11.154
3.1419	10.7905
3.1268	10.4584
3.1117	10.1947
3.0969	9.9184
3.0821	9.6945
3.0675	9.5693
3.0531	9.4358
3.0388	9.2997
3.0246	9.1054
3.0105	8.9659
2.9966	8.7853
2.9828	8.6364
2.9692	8.4989
2.9556	8.3501
2.9422	8.2986
2.9289	8.3652
2.9157	8.3692
2.9027	8.412
2.8897	8.5149
2.8769	8.5292
2.8642	8.4847
2.8516	8.2912
2.8391	7.9074
2.8267	7.5866
2.8144	7.2679
2.8022	7.0624
2.7902	7.0605
2.7782	7.3143
2.7664	7.5337
2.7546	8.0283
2.7429	9.1654
2.7314	10.7051
2.7199	12.8897
2.7085	16.9834
2.6973	19.9194
2.6861	22.7653
2.675	24.5016
2.664	25.6761
2.6531	26.208
2.6423	26.5566
2.6315	26.6982
2.6209	26.8406
2.6103	26.97
2.5999	27.1232
2.5895	27.1581
2.5792	27.2136
2.569	27.2239
2.5588	27.3428
2.5487	27.4181
2.5388	27.3641
2.5289	27.4309
2.519	27.4621
2.5093	27.394
2.4996	27.394
2.49	27.3782
2.4805	27.4366
2.471	27.4416
2.4616	27.4626
2.4523	27.4923
2.4431	27.5435
2.4339	27.5392
2.4248	27.5993
2.4157	27.6337
2.4068	27.6278
2.3979	27.6039
2.389	27.5697
2.3802	27.4995
2.3715	27.4495
2.3629	27.4213
2.3543	27.4407
2.3458	27.3796
2.3373	27.3828
2.3289	27.3962
2.3206	27.3693
2.3123	27.3088
2.3041	27.3399
2.2959	27.3904
2.2878	27.5435
2.2798	27.7658
2.2718	27.861
2.2638	27.8044
2.2559	27.7581
2.2481	27.7136
2.2403	27.761
2.2326	27.9048
2.225	27.79
2.2173	27.7893
2.2098	27.8386
2.2023	27.8801
2.1948	27.9153
2.1874	28.0041
2.18	28.0065
2.1727	28.1141
2.1655	28.0695
2.1583	28.066
2.1511	28.123
2.144	28.0632
2.1369	27.9488
2.1299	27.9488
2.1229	27.9151
2.116	27.9627
2.1091	27.9641
2.1023	27.9357
2.0955	27.9134
2.0887	27.8879
2.082	27.7282
2.06	27.6949
2.028	27.5201
1.996	27.5254
1.964	26.9666
1.932	26.8027
1.9	26.0686
1.868	27.4808
1.836	27.7779
1.804	27.8231
1.772	27.807
1.74	27.9997
1.708	27.851
1.676	27.6657
1.644	27.4683
1.612	27.8177
1.58	27.7038
1.548	27.6063
1.516	27.757
1.484	27.5592
1.452	27.4595
1.42	27.5974
1.388	27.5451
1.356	27.8671
1.324	28.1511
1.292	28.6021
1.26	28.1548
1.228	27.9573
1.196	28.2072
1.164	28.0198
1.132	27.9945
1.1	28.2765
1.068	28.2727
1.036	28.258
1.004	29.0268
0.972	28.9937
0.94	28.9511
0.908	28.4355
0.876	28.18
0.844	28.9217
0.812	29.0435
0.795	29.8779
0.787	29.5132
0.779	29.834
0.771	29.7991
0.763	29.7625
0.755	29.7336
0.747	29.8678
0.739	29.3771
0.731	29.3322
0.723	29.4303
0.715	29.0742
0.707	29.0017
0.699	28.9812
0.691	28.9853
0.683	28.8049
0.675	28.4701
0.667	28.629
0.659	28.629
0.651	28.7766
0.643	28.4085
0.635	28.7915
0.627	28.0986
0.619	28.2287
0.611	27.8071
0.603	27.5049
0.595	27.408
0.587	27.3107
0.579	27.2731
0.571	26.6399
0.563	26.5526
0.555	25.8034
0.547	25.7232
0.539	26.0111
0.531	25.4913
0.523	25.5742
0.515	25.2614
0.507	25.215
0.499	24.8229
0.491	24.5979
0.483	24.7532
0.475	24.6286
0.467	24.0747
0.459	24.3389
0.451	23.7851
0.443	23.3113
0.435	22.7886
0.427	22.2602
0.419	21.701
0.411	20.6832
0.403	20.2285
