Name: Arkosic Sandstone
Type: rock
Class: Sedimentary
Subclass: Sandstone
Particle Size: Coarse
Sample No.: sandstone_1
Owner: JHU
Wavelength Range: All
Origin: Sample No. 362,  The Hunt and Salisbury Collection at the U.S.Geological Survey, Denver, Co.
Description: Sample is moderately sorted fine medium-grained rock with slight porosity. Well-rounded to subrounded quartz grains have fluid inclusions and ferruginous staining, and are cemented with overgrowths of chalcedony. A trace of microcline and regions of concentrated carbonaceous granules and/or opaques on the grains are present. Secondary carbonate crystallites exist in some pores. Particle size was 500 - 1500 Micrometers. Original ASTER Spectral Library name was jhu.becknic.rock.sedimentary.sandstone.coarse.sandst1.spectrum.txt
Measurement: Directional (10 Degree) Hemispherical Reflectance
X Units: Wavelength (micrometers)
Y Units: Reflectance (percent)
wavelength	value
14.0112	2.4548
13.7147	2.745
13.4304	3.0902
13.1577	3.685
12.8959	5.607
12.6443	4.6122
12.4023	3.1766
12.1694	1.2808
11.945	1.9567
11.7289	2.3894
11.5203	2.7407
11.3191	3.0104
11.1248	3.178
10.937	3.4049
10.7555	3.5298
10.5799	3.837
10.4099	4.2045
10.2454	4.6887
10.0859	5.221
9.9313	5.8735
9.7814	6.9018
9.636	8.3967
9.4948	10.9097
9.3577	18.3385
9.2245	20.4096
9.095	18.7887
8.9691	17.3492
8.8467	17.2289
8.7275	16.6826
8.6116	13.15
8.4986	18.0924
8.3886	19.1602
8.2814	21.2558
8.1769	23.3391
8.075	16.2549
7.9756	9.353
7.8786	4.4708
7.784	2.4648
7.6916	1.4298
7.6014	0.8877
7.5133	0.7197
7.4272	0.6402
7.343	0.5896
7.2607	0.618
7.1803	0.6685
7.1016	0.7338
7.0246	0.736
6.9493	0.7664
6.8755	0.7893
6.8034	0.8152
6.7327	0.8449
6.6634	0.8709
6.5956	0.9352
6.5292	0.9433
6.464	0.9979
6.4002	1.018
6.3376	0.9309
6.2762	0.9204
6.216	0.8759
6.157	0.9138
6.099	0.9941
6.0421	1.0693
5.9863	1.1051
5.9315	1.1116
5.8777	1.2132
5.8249	1.3812
5.773	1.552
5.722	1.7011
5.6719	1.5892
5.6227	1.3745
5.5744	1.3382
5.5268	1.3994
5.4801	1.5102
5.4341	1.5518
5.3889	1.364
5.3445	1.2912
5.3008	1.3279
5.2578	1.3925
5.2154	1.6102
5.1738	1.6617
5.1328	1.6647
5.0925	1.6597
5.0528	1.6184
5.0137	1.6136
4.9752	1.7258
4.9373	1.9803
4.9	2.6789
4.8632	4.6665
4.827	6.3765
4.7913	7.7313
4.7561	8.7925
4.7215	9.143
4.6873	7.6742
4.6536	9.1945
4.6205	11.357
4.5877	12.2275
4.5555	11.7803
4.5237	9.4159
4.4923	6.9248
4.4614	6.5375
4.4309	7.4739
4.4008	8.7896
4.3711	10.7747
4.3418	12.5287
4.3129	12.923
4.2844	12.6878
4.2563	13.4579
4.2285	13.7864
4.2011	14.1245
4.174	14.8634
4.1473	15.7036
4.1209	16.6202
4.0949	17.7172
4.0692	18.4678
4.0438	18.4946
4.0187	18.1644
3.994	17.8773
3.9695	18.1816
3.9453	19.1867
3.9214	19.6447
3.8979	19.3911
3.8746	18.8142
3.8515	18.4118
3.8288	18.3812
3.8063	18.3405
3.7841	17.8892
3.7621	17.116
3.7404	16.5002
3.7189	16.3245
3.6977	16.3774
3.6767	16.3906
3.656	16.1717
3.6355	15.6541
3.6152	15.0641
3.5951	14.5023
3.5753	13.931
3.5557	13.2446
3.5363	12.3627
3.5171	11.5424
3.4981	11.1176
3.4793	10.6793
3.4607	10.1667
3.4423	9.6098
3.4241	9.2803
3.4061	8.8049
3.3883	8.2986
3.3707	7.8598
3.3533	7.5397
3.336	7.304
3.3189	6.937
3.302	6.5315
3.2853	6.1068
3.2687	5.7381
3.2523	5.4072
3.2361	5.111
3.22	4.7842
3.204	4.5468
3.1883	4.3086
3.1727	4.0739
3.1572	3.8738
3.1419	3.7118
3.1268	3.5329
3.1117	3.4142
3.0969	3.3252
3.0821	3.2421
3.0675	3.2194
3.0531	3.1022
3.0388	3.0783
3.0246	3.0843
3.0105	3.0056
2.9966	2.9792
2.9828	2.9161
2.9692	2.8974
2.9556	2.7859
2.9422	2.8108
2.9289	2.8587
2.9157	2.9586
2.9027	2.9038
2.8897	2.9359
2.8769	3.0902
2.8642	3.1261
2.8516	3.2421
2.8391	3.2941
2.8267	3.3869
2.8144	3.5099
2.8022	3.5547
2.7902	3.4836
2.7782	3.5319
2.7664	3.5827
2.7546	4.2014
2.7429	5.0587
2.7314	6.613
2.7199	9.1894
2.7085	11.6526
2.6973	17.2031
2.6861	22.8302
2.675	26.7688
2.664	29.9136
2.6531	31.9925
2.6423	33.464
2.6315	34.5545
2.6209	35.3601
2.6103	35.8637
2.5999	36.2898
2.5895	36.5004
2.5792	36.5972
2.569	36.8882
2.5588	37.2198
2.5487	37.4768
2.5388	37.877
2.5289	38.2364
2.519	38.5833
2.5093	38.9025
2.4996	39.349
2.49	39.8215
2.4805	40.5356
2.471	41.3664
2.4616	42.1688
2.4523	43.055
2.4431	43.951
2.4339	45.0761
2.4248	46.1872
2.4157	47.1566
2.4068	48.0221
2.3979	48.4608
2.389	48.613
2.3802	48.9051
2.3715	49.5562
2.3629	49.7947
2.3543	49.8272
2.3458	50.1091
2.3373	50.3445
2.3289	50.3151
2.3206	50.238
2.3123	50.1723
2.3041	50.2895
2.2959	50.291
2.2878	50.2495
2.2798	50.1394
2.2718	49.962
2.2638	49.9165
2.2559	49.7975
2.2481	49.826
2.2403	49.8428
2.2326	49.9339
2.225	49.7019
2.2173	49.1774
2.2098	46.5087
2.2023	48.6396
2.1948	49.5425
2.1874	50.7989
2.18	52.3612
2.1727	53.3728
2.1655	54.0503
2.1583	54.7071
2.1511	55.6211
2.144	57.065
2.1369	57.6559
2.1299	58.0505
2.1229	58.0625
2.116	58.3433
2.1091	58.4366
2.1023	58.5333
2.0955	58.5046
2.0887	58.485
2.082	58.3644
2.06	58.3851
2.028	57.8482
1.996	54.9396
1.964	51.6402
1.932	48.6687
1.9	49.3537
1.868	60.5977
1.836	63.9294
1.804	63.8027
1.772	63.6838
1.74	63.6977
1.708	63.7888
1.676	64.0583
1.644	64.1017
1.612	63.6545
1.58	63.5903
1.548	62.6539
1.516	61.1218
1.484	59.7453
1.452	58.5824
1.42	56.9921
1.388	57.6054
1.356	60.7156
1.324	60.897
1.292	60.3501
1.26	59.659
1.228	59.0763
1.196	58.6
1.164	57.5971
1.132	56.3084
1.1	54.776
1.068	53.7026
1.036	52.9556
1.004	52.3887
0.972	51.1814
0.94	50.7021
0.908	49.9583
0.876	49.4601
0.844	48.5868
0.812	48.3736
0.795	48.5035
0.787	48.0715
0.779	48.1331
0.771	47.6566
0.763	47.5803
0.755	47.2093
0.747	46.9657
0.739	46.6447
0.731	45.8452
0.723	45.2661
0.715	45.2581
0.707	44.8771
0.699	44.489
0.691	43.6247
0.683	43.8558
0.675	43.5445
0.667	42.9406
0.659	42.2612
0.651	42.1081
0.643	41.7823
0.635	41.1135
0.627	41.2022
0.619	40.6387
0.611	40.3674
0.603	40.0882
0.595	39.6079
0.587	39.8014
0.579	38.8999
0.571	38.2343
0.563	37.2815
0.555	35.7406
0.547	34.9054
0.539	33.7858
0.531	32.4726
0.523	31.1088
0.515	29.9802
0.507	28.543
0.499	27.8179
0.491	26.9136
0.483	26.1002
0.475	25.6045
0.467	25.2726
0.459	24.0949
0.451	23.9769
0.443	23.0595
0.435	21.8186
0.427	20.7631
0.419	19.5618
0.411	18.6225
0.403	17.9652
