Name: Basalt
Type: rock
Class: Igneous
Subclass: Mafic
Particle Size: Fine
Sample No.: Basalt_7
Owner: JHU
Wavelength Range: All
Origin: from Kilauea, via Rosalind Helz, USGS, Reston, VA (Cat. No. KI75-1-50.8)
Description: Sample from which the powder is derived is a gray, porphyritic, vuggy or vesicular rock with green phenocrysts ranging in size from < 1 mm to 2 mm and making up < 5% of the whole rock.Particle size was 0-75 micrometers. Original ASTER Spectral Library name was jhu.becknic.rock.igneous.mafic.fine.basal7.spectrum.txt
Measurement: Directional (10 degree) hemispherical reflectance
X Units: Wavelength (micrometers)
Y Units: Reflectance (percent)
wavelength	value
14.011	2.3629
13.715	1.9758
13.43	2.0346
13.158	2.3909
12.896	2.3205
12.644	2.8472
12.402	3.5062
12.169	4.2133
11.945	3.8335
11.729	3.6499
11.52	3.559
11.319	3.567
11.125	3.267
10.937	3.0756
10.755	2.9906
10.58	2.7914
10.41	2.6163
10.245	2.5598
10.086	2.4262
9.9313	2.4626
9.7814	2.4558
9.636	2.2906
9.4948	2.3397
9.3577	2.4631
9.2245	2.4614
9.095	2.5786
8.9691	2.4398
8.8467	2.1436
8.7275	1.9296
8.6116	1.8614
8.4986	1.9429
8.3886	2.066
8.2814	2.2816
8.1769	2.3815
8.075	2.6597
7.9756	3.1964
7.8786	3.7898
7.784	4.5494
7.6916	5.3506
7.6014	6.2233
7.5133	7.1273
7.4272	8.0309
7.343	8.9124
7.2607	9.6677
7.1803	10.386
7.1016	11.107
7.0246	11.79
6.9493	12.464
6.8755	13
6.8034	13.385
6.7327	13.47
6.6634	13.355
6.5956	13.39
6.5292	13.383
6.464	13.481
6.4002	13.704
6.3376	13.931
6.2762	13.92
6.216	13.625
6.157	13.226
6.099	13.59
6.0421	14.286
5.9863	15.09
5.9315	15.996
5.8777	16.743
5.8249	17.308
5.773	17.873
5.722	18.308
5.6719	18.569
5.6227	18.978
5.5744	19.444
5.5268	19.806
5.4801	20.053
5.4341	20.246
5.3889	20.373
5.3445	20.404
5.3008	20.531
5.2578	20.909
5.2154	21.361
5.1738	21.818
5.1328	22.234
5.0925	22.566
5.0528	23.089
5.0137	23.77
4.9752	24.525
4.9373	25.316
4.9	25.993
4.8632	26.556
4.827	27.187
4.7913	27.68
4.7561	28.202
4.7215	28.783
4.6873	29.386
4.6536	29.946
4.6205	30.52
4.5877	31.053
4.5555	31.517
4.5237	31.909
4.4923	32.196
4.4614	32.476
4.4309	32.646
4.4008	32.829
4.3711	33.005
4.3418	33.157
4.3129	33.33
4.2844	33.491
4.2563	33.592
4.2285	33.753
4.2011	33.739
4.174	33.83
4.1473	33.9
4.1209	33.942
4.0949	33.97
4.0692	33.985
4.0438	33.994
4.0187	33.961
3.994	33.958
3.9695	33.98
3.9453	33.967
3.9214	33.978
3.8979	33.94
3.8746	33.886
3.8515	33.867
3.8288	33.856
3.8063	33.824
3.7841	33.714
3.7621	33.698
3.7404	33.611
3.7189	33.57
3.6977	33.493
3.6767	33.438
3.656	33.366
3.6355	33.299
3.6152	33.157
3.5951	33.086
3.5753	32.958
3.5557	32.857
3.5363	32.748
3.5171	32.59
3.4981	32.432
3.4793	32.394
3.4607	32.235
3.4423	32.096
3.4241	31.913
3.4061	31.756
3.3883	31.644
3.3707	31.495
3.3533	31.398
3.336	31.316
3.3189	31.148
3.302	30.91
3.2853	30.752
3.2687	30.571
3.2523	30.365
3.2361	30.142
3.22	29.916
3.204	29.696
3.1883	29.448
3.1727	29.281
3.1572	29.03
3.1419	28.858
3.1268	28.569
3.1117	28.33
3.0969	28.131
3.0821	27.904
3.0675	27.827
3.0531	27.653
3.0388	27.49
3.0246	27.351
3.0105	27.055
2.9966	26.913
2.9828	26.72
2.9692	26.42
2.9556	26.267
2.9422	25.997
2.9289	25.885
2.9157	25.653
2.9027	25.466
2.8897	25.327
2.8769	25.199
2.8642	25.098
2.8516	24.963
2.8391	24.806
2.8267	24.718
2.8144	24.642
2.8022	24.504
2.7902	24.479
2.7782	24.487
2.7664	24.468
2.7546	24.563
2.7429	24.844
2.7314	25.516
2.7199	26.913
2.7085	28.196
2.6973	28.694
2.6861	28.914
2.675	28.94
2.664	29.008
2.6531	28.97
2.6423	28.938
2.6315	28.823
2.6209	28.626
2.6103	28.533
2.5999	28.44
2.5895	28.266
2.5792	28.145
2.569	27.982
2.5588	27.869
2.5487	27.716
2.5388	27.571
2.5289	27.333
2.519	27.253
2.5093	27.095
2.4996	27.009
2.49	26.865
2.4805	26.722
2.471	26.588
2.4616	26.495
2.4523	26.353
2.4431	26.257
2.4339	26.087
2.4248	26.062
2.4157	25.922
2.4068	25.837
2.3979	25.652
2.389	25.682
2.3802	25.557
2.3715	25.563
2.3629	25.517
2.3543	25.469
2.3458	25.401
2.3373	25.26
2.3289	25.306
2.3206	25.243
2.3123	25.167
2.3041	25.22
2.2959	25.095
2.2878	25.121
2.2798	25.101
2.2718	25.066
2.2638	24.952
2.2559	25.044
2.2481	25.043
2.2403	24.943
2.2326	24.966
2.225	25.074
2.2173	25.001
2.2098	25.062
2.2023	25.126
2.1948	25.069
2.1874	25.093
2.18	25.174
2.1727	25.207
2.1655	25.261
2.1583	25.321
2.1511	25.202
2.144	25.338
2.1369	25.333
2.1299	25.502
2.1229	25.441
2.116	25.556
2.1091	25.54
2.1023	25.645
2.0955	25.741
2.0887	25.695
2.082	25.767
2.06	25.606
2.028	25.744
1.996	25.516
1.964	25.54
1.932	25.606
1.9	25.789
1.868	26.244
1.836	26.511
1.804	26.347
1.772	26.369
1.74	26.749
1.708	27.044
1.676	27.053
1.644	27.067
1.612	26.687
1.58	26.837
1.548	26.819
1.516	26.509
1.484	26.222
1.452	26.102
1.42	25.625
1.388	25.755
1.356	25.249
1.324	24.85
1.292	24.581
1.26	23.973
1.228	23.995
1.196	23.304
1.164	22.749
1.132	21.989
1.1	20.664
1.068	19.027
1.036	17.7
1.004	17.318
0.972	17.513
0.94	18.223
0.908	19.747
0.876	20.965
0.844	21.887
0.812	22.672
0.795	23.135
0.787	22.992
0.779	23.221
0.771	23.222
0.763	23.07
0.755	23.003
0.747	22.862
0.739	23.086
0.731	22.995
0.723	23.081
0.715	23.086
0.707	22.72
0.699	22.733
0.691	23.096
0.683	22.678
0.675	22.77
0.667	22.747
0.659	22.373
0.651	22.434
0.643	22.372
0.635	21.997
0.627	22.088
0.619	22.034
0.611	22.011
0.603	21.725
0.595	21.796
0.587	21.662
0.579	21.379
0.571	21.589
0.563	21.222
0.555	21.115
0.547	20.936
0.539	20.767
0.531	20.752
0.523	20.727
0.515	20.437
0.507	19.813
0.499	19.969
0.491	19.757
0.483	19.481
0.475	18.977
0.467	18.8
0.459	18.827
0.451	18.571
0.443	18.499
0.435	18.445
0.427	18.076
0.419	17.614
0.411	17.363
0.403	16.776
