Name: Altered volcanic tuff
Type: Rock
Class: Igneous
Subclass: Felsic
Particle Size: Solid
Sample No.: Cup5
Owner: USGS
Wavelength Range: All
Origin: Cuprite, Nevada
Description: Altered volcanic tuff, whiteSample was Whole rock chips. Original ASTER Spectral Library name was usgs.perknic.rock.igneous.felsic.solid.cup5.spectrum.txt
Measurement: Directional Hemispherical Reflectance
X Units: Wavelength (micrometers)
Y Units: Reflectance (percent)
wavelength	value
13.9	4.439
13.68	3.275
13.467	2.997
13.261	2.966
13.06	3.09
12.866	3.533
12.677	3.265
12.494	2.781
12.316	2.4
12.143	2.637
11.975	2.791
11.811	3.059
11.652	3.286
11.497	3.667
11.346	3.77
11.199	4.079
11.056	4.316
10.916	4.357
10.78	4.542
10.647	4.769
10.518	5.006
10.391	5.274
10.268	5.706
10.147	6.221
10.029	6.932
9.914	7.746
9.802	8.971
9.692	10.032
9.585	10.599
9.479	11.886
9.377	14.183
9.276	17.623
9.178	20.868
9.081	23.113
8.987	24.432
8.894	23.896
8.804	21.826
8.715	19.209
8.628	16.408
8.543	16.49
8.459	13.648
8.377	11.629
8.297	10.424
8.218	9.589
8.14	8.971
8.064	8.518
7.99	8.549
7.917	7.91
7.845	5.778
7.774	3.656
7.705	2.472
7.637	1.833
7.57	1.524
7.504	1.37
7.44	1.205
7.376	1.174
7.314	1.174
7.252	1.051
7.192	1.185
7.133	1.174
7.074	1.174
7.017	1.195
6.96	1.205
6.905	1.246
6.85	1.401
6.796	1.411
6.743	1.658
6.691	1.73
6.64	1.823
6.589	2.019
6.539	2.029
6.49	2.225
6.442	2.245
6.394	2.379
6.347	2.256
6.301	2.091
6.255	2.111
6.21	1.988
6.166	1.875
6.122	1.844
6.079	1.833
6.037	1.895
5.995	2.06
5.954	2.215
5.913	2.462
5.873	2.771
5.833	2.956
5.794	3.059
5.755	3.059
5.717	3.162
5.68	3.461
5.643	3.512
5.606	3.636
5.57	3.615
5.534	3.708
5.499	3.79
5.464	3.924
5.43	3.821
5.396	3.605
5.363	3.306
5.33	3.152
5.297	3.224
5.265	3.45
5.233	3.862
5.201	4.274
5.17	4.614
5.139	4.841
5.109	4.882
5.079	4.8
5.049	4.717
5.02	4.676
4.991	4.614
4.962	4.625
4.934	4.903
4.906	5.181
4.878	5.789
4.851	6.262
4.824	7.004
4.797	7.364
4.771	6.819
4.744	6.077
4.719	5.644
4.693	5.943
4.668	5.995
4.643	6.026
4.618	5.768
4.593	5.686
4.569	5.933
4.545	5.974
4.521	6.273
4.498	6.211
4.474	6.355
4.451	6.448
4.428	6.571
4.406	6.705
4.384	6.747
4.361	6.623
4.34	6.922
4.318	7.478
4.296	8.23
4.275	8.673
4.254	9.054
4.233	9.61
4.213	10.146
4.192	10.351
4.172	10.465
4.152	10.434
4.132	10.619
4.112	10.784
4.093	11.042
4.074	11.402
4.055	11.68
4.036	11.958
4.017	12.144
3.998	12.123
3.98	12.257
3.962	12.412
3.944	12.463
3.926	12.659
3.908	12.751
3.89	12.762
3.873	12.061
3.856	12.865
3.838	12.793
3.822	12.762
3.805	12.7
3.788	12.638
3.771	12.37
3.755	12.113
3.739	11.907
3.723	11.66
3.707	11.495
3.691	11.186
3.675	10.877
3.66	10.609
3.644	10.424
3.629	10.073
3.614	9.672
3.599	9.466
3.584	9.146
3.569	8.858
3.554	8.415
3.54	8.25
3.525	7.735
3.511	6.932
3.497	6.798
3.483	6.695
3.469	6.489
3.455	6.17
3.441	5.768
3.428	5.335
3.414	5.335
3.401	5.212
3.387	5.315
3.374	5.191
3.361	5.243
3.348	5.202
3.335	5.109
3.322	5.15
3.309	4.965
3.297	4.82
3.284	4.738
3.272	4.532
3.259	4.522
3.247	4.408
3.235	4.202
3.223	4.058
3.211	4.027
3.199	3.862
3.187	3.79
3.176	3.79
3.164	3.543
3.152	3.45
3.141	3.481
3.13	3.069
3.118	3.265
3.107	2.987
3.096	2.987
3.085	2.894
3.074	3.183
3.063	2.905
3.052	2.977
3.042	2.833
3.031	2.925
3.02	2.771
3.01	2.843
2.999	2.441
2.989	2.668
2.979	2.596
2.968	2.843
2.958	2.616
2.948	2.441
2.938	2.637
2.928	2.894
2.918	2.637
2.909	2.627
2.899	2.606
2.889	2.905
2.879	3.255
2.87	4.11
2.86	3.502
2.851	2.925
2.842	3.275
2.832	2.771
2.823	2.75
2.814	2.688
2.805	2.771
2.796	2.987
2.787	3.203
2.778	3.162
2.769	3.42
2.76	3.523
2.751	3.533
2.742	4.058
2.734	4.192
2.725	4.728
2.717	4.954
2.708	6.118
2.7	7.952
2.691	10.599
2.683	12.823
2.675	14.513
2.666	17.088
2.658	18.375
2.65	20.301
2.642	21.887
2.634	21.702
2.626	21.805
2.618	21.908
2.61	21.352
2.602	21.63
2.594	21.743
2.586	20.487
2.579	20.507
2.571	20.569
2.563	20.755
2.556	21.012
2.548	21.383
2.541	21.197
2.533	20.487
2.526	19.405
2.519	17.489
2.511	17.294
2.504	18.437
2.488	20.854
2.464	21.358
2.44	21.932
2.416	24.161
2.392	27.169
2.368	32.716
2.344	33.158
2.32	29.455
2.296	34.715
2.272	35.569
2.248	35.493
2.224	31.72
2.2	28.652
2.176	26.263
2.152	27.334
2.128	30.508
2.104	34.716
2.08	36.106
2.056	36.25
2.032	36.731
2.008	36.203
1.984	36.014
1.96	34.602
1.936	33.568
1.912	32.837
1.888	38.531
1.864	45.834
1.84	47.574
1.816	47.564
1.792	45.757
1.768	42.566
1.744	44.968
1.72	48.194
1.696	49.231
1.672	49.729
1.648	49.91
1.624	49.831
1.6	49.564
1.576	49.28
1.552	48.78
1.528	47.763
1.504	45.355
1.48	37.545
1.456	41.675
1.432	39.966
1.408	44.277
1.384	48.362
1.36	51.005
1.336	51.857
1.312	53.018
1.288	52.889
1.264	51.623
1.24	52.378
1.216	52.63
1.192	52.366
1.168	52.031
1.144	51.84
1.12	51.935
1.096	51.587
1.072	51.199
1.048	50.677
1.024	49.972
1	49.076
0.976	48.718
0.952	48.428
0.928	47.976
0.904	47.81
0.88	47.599
0.856	47.661
0.832	48.174
0.808	47.937
0.784	47.352
0.76	46.833
0.736	46.153
0.712	45.449
0.688	44.692
0.664	43.745
0.64	42.79
0.616	41.796
0.592	40.334
0.568	38.043
0.544	35.21
0.52	32.807
0.496	30.746
0.472	29.093
0.448	27.506
0.424	24.907
0.4	22.617
