Name: Basalt
Type: Rock
Class: Igneous
Subclass: Mafic
Particle Size: Solid
Sample No.: ba1d1c
Owner: Larry Rowan, USGS
Wavelength Range: All
Origin: Sweimah, Jordan
Description: dark gray basalt Sample was Whole rock chips. Original ASTER Spectral Library name was usgs.perknic.rock.igneous.mafic.solid.ba1d1c.spectrum.txt
Measurement: Reflectance
X Units: Wavelength (micrometers)
Y Units: Reflectance (percent)
wavelength	value
0.4	0.133
0.408	0.133
0.416	0.134
0.424	0.13
0.432	0.129
0.44	0.127
0.448	0.124
0.456	0.119
0.464	0.119
0.472	0.116
0.48	0.118
0.488	0.112
0.496	0.115
0.504	0.115
0.512	0.115
0.52	0.116
0.528	0.115
0.536	0.116
0.544	0.115
0.552	0.115
0.56	0.113
0.568	0.116
0.576	0.118
0.584	0.118
0.592	0.118
0.6	0.116
0.608	0.116
0.616	0.115
0.624	0.118
0.632	0.118
0.64	0.119
0.648	0.118
0.656	0.118
0.664	0.118
0.672	0.118
0.68	0.118
0.688	0.118
0.696	0.115
0.704	0.119
0.712	0.118
0.72	0.118
0.728	0.118
0.736	0.122
0.744	0.119
0.752	0.118
0.76	0.12
0.768	0.122
0.776	0.12
0.784	0.122
0.792	0.12
0.8	0.123
0.832	0.122
0.864	0.121
0.896	0.121
0.928	0.118
0.96	0.116
0.992	0.116
1.024	0.112
1.056	0.114
1.088	0.111
1.12	0.111
1.152	0.11
1.184	0.109
1.216	0.107
1.248	0.105
1.28	0.103
1.312	0.103
1.344	0.103
1.376	0.101
1.408	0.1
1.44	0.099
1.472	0.098
1.504	0.096
1.536	0.098
1.568	0.095
1.6	0.096
1.632	0.094
1.664	0.094
1.696	0.094
1.728	0.093
1.76	0.09
1.792	0.09
1.824	0.089
1.856	0.089
1.888	0.087
1.92	0.087
1.952	0.084
1.984	0.085
2.016	0.085
2.048	0.084
2.08	0.084
2.1021	0.0862
2.109	0.0866
2.1159	0.088
2.1228	0.087
2.1298	0.0858
2.1368	0.0837
2.1438	0.0868
2.1509	0.0838
2.1581	0.0849
2.1653	0.0848
2.1726	0.083
2.1799	0.0863
2.1872	0.0836
2.1946	0.0853
2.2021	0.0837
2.2096	0.0839
2.2172	0.085
2.2248	0.0827
2.2324	0.0852
2.2401	0.0839
2.2479	0.0834
2.2557	0.083
2.2636	0.0818
2.2715	0.0827
2.2795	0.0825
2.2876	0.0832
2.2957	0.0822
2.3038	0.0829
2.3121	0.0822
2.3203	0.0825
2.3287	0.082
2.3371	0.0842
2.3455	0.0837
2.354	0.0828
2.3626	0.0803
2.3712	0.0827
2.38	0.0811
2.3887	0.0794
2.3976	0.0809
2.4065	0.0802
2.4154	0.0813
2.4245	0.0794
2.4336	0.0799
2.4427	0.079
2.452	0.0806
2.4613	0.0819
2.4707	0.0796
2.4801	0.0785
2.4896	0.077
2.4992	0.0791
2.5089	0.0789
2.5187	0.0777
2.5285	0.0776
2.5384	0.0794
2.5484	0.0797
2.5584	0.0788
2.5686	0.0781
2.5788	0.0777
2.5891	0.0768
2.5995	0.0783
2.6099	0.0769
2.6205	0.0757
2.6311	0.0779
2.6418	0.0749
2.6526	0.0769
2.6635	0.0748
2.6745	0.0748
2.6856	0.0733
2.6968	0.0707
2.708	0.0692
2.7194	0.0642
2.7309	0.0621
2.7424	0.064
2.7541	0.0605
2.7658	0.0578
2.7777	0.0582
2.7896	0.0563
2.8017	0.0557
2.8138	0.056
2.8261	0.0584
2.8385	0.0564
2.851	0.0578
2.8636	0.0567
2.8763	0.0557
2.8891	0.0568
2.902	0.0573
2.915	0.0573
2.9282	0.0557
2.9415	0.0556
2.9549	0.056
2.9684	0.0566
2.9821	0.058
2.9959	0.0564
3.0098	0.0574
3.0238	0.0577
3.038	0.0573
3.0523	0.0575
3.0667	0.057
3.0813	0.0577
3.096	0.0582
3.1109	0.0565
3.1259	0.0575
3.141	0.0585
3.1563	0.0581
3.1718	0.0582
3.1874	0.0598
3.2031	0.059
3.219	0.0601
3.2351	0.0602
3.2513	0.0598
3.2677	0.0597
3.2843	0.0603
3.301	0.0608
3.3179	0.0612
3.3349	0.062
3.3522	0.0614
3.3696	0.0621
3.3872	0.0631
3.405	0.0638
3.423	0.064
3.4412	0.0637
3.4595	0.063
3.4781	0.0637
3.4968	0.0644
3.5158	0.0637
3.535	0.0633
3.5544	0.0631
3.574	0.0635
3.5938	0.0639
3.6138	0.0638
3.6341	0.065
3.6545	0.064
3.6753	0.0643
3.6962	0.0649
3.7174	0.0643
3.7389	0.0647
3.7605	0.0643
3.7825	0.0651
3.8047	0.0647
3.8272	0.0647
3.8499	0.0637
3.8729	0.0648
3.8962	0.064
3.9197	0.0643
3.9436	0.0635
3.9677	0.0636
3.9921	0.0634
4.0169	0.0637
4.0419	0.0646
4.0673	0.0648
4.093	0.0647
4.119	0.0655
4.1453	0.064
4.172	0.0647
4.199	0.0645
4.2264	0.06
4.2541	0.0634
4.2822	0.061
4.3107	0.0621
4.3395	0.0639
4.3688	0.0637
4.3984	0.0642
4.4285	0.064
4.4589	0.064
4.4898	0.0634
4.5211	0.0641
4.5529	0.0628
4.5851	0.0628
4.6177	0.0622
4.6509	0.0619
4.6845	0.0613
4.7186	0.0611
4.7532	0.0607
4.7883	0.0608
4.8239	0.0599
4.8601	0.0593
4.8968	0.0588
4.9341	0.0585
4.9719	0.0577
5.0103	0.0572
5.0493	0.0572
5.089	0.0561
5.1292	0.0564
5.1702	0.0556
5.2117	0.0554
5.254	0.055
5.2969	0.0546
5.3405	0.0539
5.3849	0.0534
5.43	0.0525
5.4759	0.0515
5.5225	0.0511
5.57	0.0502
5.6182	0.0498
5.6673	0.0495
5.7173	0.0491
5.7682	0.0488
5.82	0.0478
5.8727	0.0466
5.9264	0.0446
5.9811	0.0426
6.0368	0.041
6.0935	0.0409
6.1513	0.0416
6.2103	0.0439
6.2703	0.0458
6.3316	0.0465
6.394	0.0473
6.4577	0.0471
6.5227	0.046
6.589	0.0453
6.6566	0.0445
6.7257	0.0447
6.7962	0.0445
6.8682	0.0435
6.9418	0.0435
7.0169	0.0432
7.0937	0.0436
7.1722	0.0426
7.2524	0.0423
7.3345	0.0416
7.4184	0.0404
7.5043	0.0387
7.5922	0.0377
7.6821	0.0375
7.7743	0.0364
7.8686	0.035
7.9653	0.0341
8.0644	0.0336
8.166	0.0333
8.2701	0.0362
8.377	0.039
8.4867	0.0419
8.5992	0.0474
8.7149	0.055
8.8336	0.0638
8.9556	0.0759
9.0811	0.0838
9.2101	0.0903
9.3428	0.0994
9.4795	0.107
9.6201	0.1093
9.765	0.1052
9.9144	0.1001
10.0684	0.0966
10.2272	0.099
10.3911	0.0953
10.5604	0.0977
10.7353	0.0983
10.9161	0.0962
11.103	0.0908
11.2965	0.0846
11.4968	0.0739
11.7044	0.0632
11.9196	0.0554
12.1429	0.0497
12.3747	0.0425
12.6155	0.0385
12.8659	0.0367
13.1264	0.035
13.3977	0.035
13.6804	0.0354
13.9753	0.0335
