Name: Rhyolite
Type: Rock
Class: Igneous
Subclass: Felsic
Particle Size: Solid
Sample No.: AP-939-221
Owner: United States Geological Survey, L. C. Rowan
Wavelength Range: All
Origin: Iberian Pyrite Belt, Spain
Description: Rhyolite, greenish, alteredSample was Whole Rock Chips. Original ASTER Spectral Library name was usgs.perknic.rock.igneous.felsic.solid.rhy221.spectrum.txt
Measurement: Directional Hemispherical Reflectance
X Units: Wavelength (micrometers)
Y Units: Reflectance (percent)
wavelength	value
14.051	1.5965
13.79	2.2145
13.538	2.5029
13.295	2.5029
13.06	2.987
12.834	3.4093
12.616	2.987
12.404	2.9561
12.2	2.6986
12.002	2.9561
11.811	3.3681
11.626	3.7595
11.446	4.0994
11.272	4.5732
11.103	5.3972
10.939	5.9431
10.78	4.7277
10.625	4.5629
10.475	4.9337
10.329	6.0152
10.187	7.725
10.049	9.8983
9.914	12.5145
9.783	13.0707
9.656	16.2019
9.532	18.8078
9.411	20.1159
9.293	18.9108
9.178	15.759
9.065	12.0922
8.956	10.2485
8.849	12.051
8.744	10.8356
8.642	8.5902
8.543	7.7765
8.445	7.6014
8.35	7.6426
8.257	7.9001
8.166	7.9516
8.077	5.974
7.99	4.0582
7.905	2.8737
7.821	2.1836
7.739	1.9982
7.659	1.751
7.581	1.5656
7.504	1.6068
7.429	1.4935
7.355	1.4729
7.283	1.3287
7.212	1.4523
7.143	1.3802
7.074	1.4523
7.007	1.3184
6.942	1.442
6.877	1.4317
6.814	1.4832
6.752	1.5759
6.691	1.6377
6.631	1.6995
6.572	1.7716
6.514	1.8334
6.458	1.9055
6.402	1.9879
6.347	1.854
6.293	1.6995
6.24	1.648
6.188	1.4729
6.137	1.5862
6.086	1.5141
6.037	1.5759
5.988	1.5965
5.94	1.6377
5.893	1.7819
5.846	1.9158
5.8	2.0806
5.755	2.2145
5.711	2.3175
5.667	2.2866
5.624	2.1939
5.582	2.2248
5.54	2.2248
5.499	2.266
5.459	2.4308
5.419	2.4514
5.379	2.2969
5.341	2.2969
5.302	2.2866
5.265	2.5647
5.227	2.7604
5.191	2.9458
5.155	3.0694
5.119	3.193
5.084	3.2445
5.049	3.2033
5.015	3.2754
4.981	3.4711
4.948	3.8419
4.915	4.2024
4.883	5.0058
4.851	5.7165
4.819	6.2109
4.788	6.4272
4.758	6.7671
4.727	7.1791
4.697	7.2615
4.668	7.4057
4.638	8.1576
4.61	8.7859
4.581	9.3215
4.553	9.6099
4.525	9.5996
4.498	9.0331
4.47	8.8992
4.444	9.5584
4.417	10.2897
4.391	11.2476
4.365	12.2673
4.34	13.1634
4.314	13.6372
4.289	13.6887
4.265	14.0698
4.24	14.5436
4.216	14.7599
4.192	14.9556
4.169	15.3573
4.145	15.8414
4.122	16.2843
4.099	16.6757
4.077	17.1804
4.055	17.2834
4.032	17.3864
4.011	17.3452
3.989	17.3555
3.968	17.4585
3.947	17.9323
3.926	18.4164
3.905	18.4267
3.884	18.2722
3.864	18.3443
3.844	18.1589
3.824	18.2413
3.805	18.2928
3.785	17.8705
3.766	17.3864
3.747	16.8199
3.728	16.5315
3.709	16.2534
3.691	16.2225
3.673	16.0886
3.655	16.0371
3.637	15.759
3.619	15.2543
3.601	14.8011
3.584	14.214
3.567	13.5857
3.549	13.0604
3.533	12.4218
3.516	12.0098
3.499	11.4742
3.483	11.3197
3.466	11.2785
3.45	10.8562
3.434	10.4442
3.418	9.7438
3.403	9.4039
3.387	8.9816
3.372	8.6211
3.357	8.343
3.341	8.0546
3.326	7.6838
3.312	7.4366
3.297	7.0967
3.282	6.8289
3.268	6.5714
3.253	6.3036
3.239	5.9843
3.225	5.9225
3.211	5.6238
3.197	5.4384
3.183	5.0573
3.17	4.7586
3.156	4.6556
3.143	4.3157
3.13	4.1406
3.117	4.0273
3.103	3.8419
3.091	3.5947
3.078	3.5123
3.065	3.4299
3.052	3.4093
3.04	3.5432
3.027	3.5535
3.015	3.5432
3.003	3.3063
2.991	3.4196
2.979	3.1724
2.967	3.1106
2.955	3.2857
2.943	3.2239
2.932	3.3166
2.92	3.2136
2.909	3.2548
2.897	3.5741
2.886	3.2033
2.875	3.4608
2.864	3.4917
2.853	3.3578
2.842	3.2342
2.831	3.1827
2.82	3.0385
2.809	3.0076
2.799	2.6471
2.788	2.8222
2.778	2.4205
2.767	2.3587
2.757	2.0703
2.747	2.163
2.737	2.1012
2.727	2.472
2.717	2.6986
2.707	2.8428
2.697	3.0797
2.687	6.3963
2.677	10.5369
2.668	13.2149
2.658	14.7187
2.649	16.3152
2.639	17.201
2.63	17.5821
2.62	17.6542
2.611	17.8808
2.602	18.2619
2.593	18.8696
2.584	19.1786
2.575	19.8481
2.566	20.0953
2.557	20.5279
2.548	21.2386
2.54	21.424
2.531	20.806
2.522	21.1871
2.514	20.8472
2.505	20.6206
2.489	20.3957
2.461	18.4957
2.433	17.9957
2.405	20.2957
2.377	20.7957
2.349	18.6957
2.321	21.9957
2.293	30.6957
2.265	33.1957
2.237	24.6957
2.209	18.7957
2.181	29.8957
2.153	42.0957
2.125	45.5957
2.097	50.1957
2.069	54.5957
2.041	55.2957
2.013	53.5957
1.985	50.8957
1.957	48.4957
1.929	45.6957
1.901	44.6957
1.873	59.6957
1.845	65.5957
1.817	67.0957
1.789	67.2957
1.761	67.9957
1.733	68.4957
1.705	67.7957
1.677	67.6957
1.649	66.8957
1.621	65.6957
1.593	65.1957
1.565	63.5957
1.537	61.8957
1.509	60.2957
1.481	58.2957
1.453	56.5957
1.425	43.5957
1.397	37.2957
1.369	53.9957
1.341	54.5957
1.313	52.7957
1.285	51.4957
1.257	49.9957
1.229	48.3957
1.201	46.4957
1.173	45.2957
1.145	43.8957
1.117	42.5957
1.089	42.4957
1.061	42.5957
1.033	42.4957
1.005	42.5957
0.977	42.0957
0.949	41.1957
0.921	40.3957
0.893	40.3957
0.865	40.8957
0.837	41.3957
0.809	41.6957
0.799	40.8957
0.792	40.4957
0.785	40.8957
0.778	40.3957
0.771	40.4957
0.764	40.1957
0.757	40.3957
0.75	40.1957
0.743	40.1957
0.736	40.4957
0.729	40.5957
0.722	40.6957
0.715	40.1957
0.708	40.3957
0.701	40.4957
0.694	40.1957
0.687	40.8957
0.68	39.8957
0.673	40.0957
0.666	40.6957
0.659	40.4957
0.652	40.3957
0.645	40.3957
0.638	40.1957
0.631	39.8957
0.624	39.9957
0.617	40.1957
0.61	39.8957
0.603	39.5957
0.596	39.8957
0.589	39.3957
0.582	39.5957
0.575	39.4957
0.568	39.4957
0.561	39.4957
0.554	38.7957
0.547	38.9957
0.54	38.8957
0.533	38.1957
0.526	37.6957
0.519	37.2957
0.512	37.3957
0.505	36.5957
0.498	35.5957
0.491	35.5957
0.484	34.9957
0.477	34.3957
0.47	33.7957
0.463	34.2957
0.456	32.5957
0.449	31.7957
0.442	31.4957
0.435	30.5957
0.428	30.1957
0.421	29.2957
0.414	28.7957
0.407	28.1957
