Name: Pink Marble
Type: rock
Class: Metamorphic
Subclass: Marble
Particle Size: Fine
Sample No.: marble7
Owner: JHU
Wavelength Range: All
Origin: Sample No. 360, The Hunt and Salisbury Collection at the U.S.Geological Survey, Denver, Co.
Description: This sample consists of coarse-grained calcite poikiloblastically enclosing a finely disseminated opaque/ferric phase in the cores of the carbonate.  There has been a considerable amount of granulation (cataclasis) with some carbonate grains showing bent lamellae.  There are trace amounts of larger opaque phases in this rock. Particle size was 0-75 Micrometer. Original ASTER Spectral Library name was jhu.becknic.rock.metamorphic.marble.fine.marble7.spectrum.txt
Measurement: Directional (10 Degree) Hemispherical Reflectance
X Units: Wavelength (micrometers)
Y Units: Reflectance (percent)
wavelength	value
14.983	35.261
14.645	36.132
14.321	27.961
14.011	1.131
13.715	30.127
13.43	40.858
13.158	39.663
12.896	34.759
12.644	36.416
12.402	38.866
12.169	40.671
11.945	38.751
11.729	26.317
11.52	7.967
11.319	5.3921
11.125	31.508
10.937	36.053
10.755	33.016
10.58	31.5
10.41	33.025
10.245	30.179
10.086	27.025
9.9313	24.751
9.7814	24.471
9.636	27.36
9.4948	28.246
9.3577	27
9.2245	27.125
9.095	30.572
8.9691	32.598
8.8467	32.45
8.7275	28.484
8.6116	20.149
8.4986	18.512
8.3886	20.104
8.2814	22.663
8.1769	22.826
8.075	20.664
7.9756	20.964
7.8786	18.787
7.784	17.293
7.6916	15.099
7.6014	11.522
7.5133	10.32
7.4272	8.5391
7.343	6.3381
7.2607	4.4318
7.1803	3.8445
7.1016	4.7463
7.0246	4.9764
6.9493	4.8618
6.8755	5.173
6.8034	5.4318
6.7327	5.8482
6.6634	6.6635
6.5956	8.1209
6.5292	9.7668
6.464	11.428
6.4002	9.7765
6.3376	6.0042
6.2762	4.3764
6.216	3.8906
6.157	3.7071
6.099	4.2778
6.0421	5.4702
5.9863	7.3773
5.9315	9.0838
5.8777	10.747
5.8249	10.864
5.773	10.527
5.722	11.938
5.6719	15.033
5.6227	15.882
5.5744	2.038
5.5268	14.762
5.4801	28.792
5.4341	37.91
5.3889	45.424
5.3445	51.15
5.3008	56.145
5.2578	59.502
5.2154	62.166
5.1738	64.211
5.1328	65.53
5.0925	58.575
5.0528	68.039
5.0137	67.645
4.9752	67.318
4.9373	67.215
4.9	67.529
4.8632	67.902
4.827	68.22
4.7913	68.165
4.7561	65.929
4.7215	58.271
4.6873	44.013
4.6536	44.48
4.6205	55.804
4.5877	59.4
4.5555	60.037
4.5237	60.244
4.4923	61.663
4.4614	65.499
4.4309	68.561
4.4008	70.255
4.3711	70.726
4.3418	68.226
4.3129	67.9
4.2844	68.767
4.2563	67.938
4.2285	66.939
4.2011	65.808
4.174	63.773
4.1473	60.833
4.1209	56.344
4.0949	51.338
4.0692	44.594
4.0438	32.896
4.0187	18.504
3.994	7.1959
3.9695	5.6156
3.9453	10.916
3.9214	16.273
3.8979	17.848
3.8746	18.69
3.8515	19.72
3.8288	25.111
3.8063	37.06
3.7841	55.246
3.7621	61.598
3.7404	64.259
3.7189	66.709
3.6977	67.653
3.6767	67.837
3.656	67.136
3.6355	65.893
3.6152	64.166
3.5951	60.525
3.5753	52.048
3.5557	50.199
3.5363	40.908
3.5171	22.648
3.4981	16.005
3.4793	12.038
3.4607	20.145
3.4423	22.706
3.4241	22.999
3.4061	22.542
3.3883	21.478
3.3707	20.492
3.3533	16.714
3.336	33.787
3.3189	47.658
3.302	52.882
3.2853	56.343
3.2687	58.604
3.2523	60.006
3.2361	60.836
3.22	61.435
3.204	61.646
3.1883	61.368
3.1727	60.355
3.1572	57.318
3.1419	56.862
3.1268	56.887
3.1117	54.595
3.0969	55.058
3.0821	56.289
3.0675	56.506
3.0531	56.635
3.0388	56.586
3.0246	56.402
3.0105	55.976
2.9966	55.476
2.9828	55
2.9692	54.457
2.9556	54.015
2.9422	53.728
2.9289	53.757
2.9157	53.998
2.9027	54.374
2.8897	54.953
2.8769	55.538
2.8642	56.313
2.8516	56.95
2.8391	57.492
2.8267	57.683
2.8144	57.585
2.8022	56.734
2.7902	54.08
2.7782	56.229
2.7664	59.521
2.7546	62.074
2.7429	65.382
2.7314	69.278
2.7199	73.638
2.7085	78.27
2.6973	81.969
2.6861	84.632
2.675	85.885
2.664	86.691
2.6531	87.271
2.6423	87.528
2.6315	87.544
2.6209	87.429
2.6103	87.266
2.5999	86.628
2.5895	85.258
2.5792	83.818
2.569	82.098
2.5588	77.638
2.5487	70.277
2.5388	64.95
2.5289	66.366
2.519	70.034
2.5093	71.868
2.4996	72.52
2.49	73.362
2.4805	74.945
2.471	77.77
2.4616	80.532
2.4523	82.53
2.4431	84.087
2.4339	85.368
2.4248	86.586
2.4157	87.377
2.4068	87.692
2.3979	87.697
2.389	87.994
2.3802	87.352
2.3715	85.98
2.3629	83.035
2.3543	78.584
2.3458	75.21
2.3373	74.724
2.3289	76.344
2.3206	78.191
2.3123	79.402
2.3041	79.912
2.2959	80.554
2.2878	81.7
2.2798	83.235
2.2718	84.94
2.2638	85.782
2.2559	86.823
2.2481	87.491
2.2403	88.339
2.2326	88.994
2.225	89.187
2.2173	89.598
2.2098	89.875
2.2023	90.216
2.1948	90.438
2.1874	90.441
2.18	90.346
2.1727	90.261
2.1655	89.827
2.1583	89.668
2.1511	89.596
2.144	89.964
2.1369	90.49
2.1299	90.989
2.1229	90.961
2.116	91.06
2.1091	91.094
2.1023	91.434
2.0955	91.4
2.0887	91.72
2.082	91.603
2.06	91.367
2.028	90.057
1.996	87.536
1.964	86.179
1.932	86.119
1.9	87.035
1.868	87.423
1.836	88.805
1.804	88.438
1.772	87.799
1.74	87.035
1.708	88.358
1.676	88.157
1.644	87.8
1.612	87.234
1.58	88.622
1.548	86.056
1.516	86.453
1.484	85.512
1.452	85.311
1.42	85.681
1.388	85.053
1.356	85.768
1.324	85.849
1.292	84.955
1.26	86.121
1.228	85.558
1.196	83.198
1.164	82.6
1.132	83.898
1.1	84.006
1.068	83.022
1.036	84.791
1.004	84.114
0.972	83.554
0.94	83.217
0.908	83.38
0.876	82.799
0.844	82.37
0.812	82.039
0.795	83.196
0.787	83.152
0.779	83.531
0.771	82.435
0.763	83.658
0.755	82.925
0.747	82.934
0.739	81.758
0.731	82.176
0.723	81.877
0.715	81.82
0.707	81.765
0.699	83.078
0.691	82.338
0.683	82.138
0.675	82.155
0.667	81.825
0.659	81.961
0.651	80.994
0.643	82.017
0.635	81.065
0.627	80.424
0.619	81.225
0.611	80.748
0.603	79.737
0.595	79.411
0.587	79.503
0.579	79.296
0.571	78.905
0.563	78.061
0.555	77.137
0.547	75.998
0.539	76.193
0.531	74.481
0.523	74.672
0.515	74.685
0.507	73.825
0.499	72.949
0.491	73.041
0.483	73.015
0.475	71.587
0.467	71.328
0.459	72.919
0.451	70.955
0.443	70.62
0.435	70.378
0.427	68.994
0.419	69.057
0.411	67.778
0.403	66.951
