Name: Quartzite
Type: Rock
Class: Metamorphic
Subclass: Quartzite
Particle Size: Solid
Sample No.: Ward93
Owner: JPL
Wavelength Range: VSWIR
Origin: Ward's Collection of American Rocks.  Sample locality - Ableman, Sauk County, Wisconsin.  Collected by - JPL.
Description: A fine crystalline, purplish quartz rock.Geologic age - Pre-CambrianCollected by:  Ward's Natural Science Original ASTER Spectral Library name was jpl.perkin.rock.metamorphic.quartzite.solid.ward93.spectrum.txt
Measurement: Hemispherical reflectance
X Units: Wavelength (micrometers)
Y Units: Reflectance (percent)
wavelength	value
2.5	10.995
2.494	10.9008
2.488	10.9738
2.482	11.0414
2.476	11.1334
2.47	11.3174
2.464	11.6842
2.458	11.5305
2.452	11.4276
2.446	11.6024
2.44	11.6117
2.434	11.5811
2.428	11.7163
2.422	11.6261
2.416	11.7863
2.41	11.8729
2.404	11.9479
2.398	11.9035
2.392	11.9156
2.386	11.9362
2.38	12.1289
2.374	12.2074
2.368	12.3249
2.362	12.3256
2.356	12.3536
2.35	12.238
2.344	12.3421
2.338	12.2756
2.332	12.2426
2.326	12.1234
2.32	11.9543
2.314	12.035
2.308	12.1252
2.302	12.3766
2.296	12.528
2.29	12.5611
2.284	12.7694
2.278	12.9154
2.272	13.0323
2.266	13.1107
2.26	13.1761
2.254	13.315
2.248	13.3653
2.242	13.4514
2.236	13.5349
2.23	13.4815
2.224	13.534
2.218	13.4015
2.212	13.5221
2.206	13.4978
2.2	13.4727
2.194	13.5215
2.188	13.4903
2.182	13.1333
2.176	12.4611
2.17	11.4289
2.164	11.3091
2.158	12.2403
2.152	13.121
2.146	13.6512
2.14	13.9126
2.134	13.9401
2.128	14.0217
2.122	14.1316
2.116	14.143
2.11	14.1525
2.104	14.1816
2.098	14.1244
2.092	14.1519
2.086	14.2104
2.08	14.1259
2.074	14.1854
2.068	14.1769
2.062	14.3022
2.056	14.3177
2.05	14.3774
2.044	14.4055
2.038	14.442
2.032	14.4179
2.026	14.4344
2.02	14.408
2.014	14.4323
2.008	14.4292
2.002	14.3858
1.996	14.4023
1.99	14.3752
1.984	14.331
1.978	14.3072
1.972	14.3619
1.966	14.2958
1.96	14.3334
1.954	14.1903
1.948	14.2217
1.942	14.0447
1.936	14.1018
1.93	14.118
1.924	14.024
1.918	14.1391
1.912	14.132
1.906	14.2282
1.9	14.2499
1.894	14.4058
1.888	14.4913
1.882	14.5398
1.876	14.5552
1.87	14.5568
1.864	14.6019
1.858	14.6322
1.852	14.6515
1.846	14.642
1.84	14.7207
1.834	14.6604
1.828	14.7346
1.822	14.67
1.816	14.7385
1.81	14.7918
1.804	14.7688
1.798	14.7582
1.792	14.7508
1.786	14.7702
1.78	14.7886
1.774	14.7487
1.768	14.7807
1.762	14.7469
1.756	14.7695
1.75	14.8301
1.744	14.8049
1.738	14.8867
1.732	14.8662
1.726	14.837
1.72	14.8637
1.714	14.8491
1.708	14.8554
1.702	14.8707
1.696	14.8993
1.69	14.9702
1.684	14.867
1.678	14.946
1.672	15.0026
1.666	14.8704
1.66	14.9723
1.654	15.0306
1.648	15.0287
1.642	15.0733
1.636	14.9544
1.63	14.9335
1.624	14.975
1.618	14.9364
1.612	14.9487
1.606	15.0976
1.6	15.0575
1.594	15.1029
1.588	15.1503
1.582	15.0696
1.576	15.1303
1.57	15.1379
1.564	15.126
1.558	15.1933
1.552	15.1167
1.546	15.1454
1.54	15.1969
1.534	15.2227
1.528	15.261
1.522	15.2209
1.516	15.195
1.51	15.2891
1.504	15.2897
1.498	15.3345
1.492	15.2714
1.486	15.303
1.48	15.3044
1.474	15.3479
1.468	15.4296
1.462	15.4363
1.456	15.416
1.45	15.4444
1.444	15.4592
1.438	15.4735
1.432	15.4843
1.426	15.4843
1.42	15.4916
1.414	15.4046
1.408	15.4409
1.402	15.3911
1.396	13.3923
1.39	14.7622
1.384	15.6563
1.378	15.7911
1.372	15.8393
1.366	15.8603
1.36	15.8879
1.354	16.0345
1.348	15.988
1.342	15.9455
1.336	16.0203
1.33	16.1285
1.324	16.1746
1.318	16.2082
1.312	16.2975
1.306	16.2893
1.3	16.3363
1.294	16.4448
1.288	16.5012
1.282	16.5721
1.276	16.6313
1.27	16.6923
1.264	16.7057
1.258	16.7582
1.252	16.8831
1.246	16.9213
1.24	17.0119
1.234	17.0223
1.228	17.0711
1.222	17.1264
1.216	17.1782
1.21	17.2981
1.204	17.3783
1.198	17.372
1.192	17.4315
1.186	17.6019
1.18	17.6308
1.174	17.693
1.168	17.8076
1.162	17.8339
1.156	17.971
1.15	17.9957
1.144	18.0395
1.138	18.1571
1.132	18.1841
1.126	18.2982
1.12	18.3215
1.114	18.419
1.108	18.5648
1.102	18.5134
1.096	18.6855
1.09	18.7516
1.084	18.7889
1.078	18.9094
1.072	18.8864
1.066	19.0297
1.06	18.9752
1.054	19.1092
1.048	19.1884
1.042	19.1592
1.036	19.2208
1.03	19.2309
1.024	19.1886
1.018	19.2783
1.012	19.2632
1.006	19.1973
1	19.0901
0.994	19.1389
0.988	19.0213
0.982	18.8852
0.976	18.8237
0.97	18.7055
0.964	18.5694
0.958	18.372
0.952	18.1427
0.946	18.1344
0.94	17.9268
0.934	17.8305
0.928	17.7261
0.922	17.5694
0.916	17.4466
0.91	17.3874
0.904	17.2108
0.898	17.1057
0.892	17.0223
0.886	16.9569
0.88	16.8379
0.874	16.7066
0.868	16.6016
0.862	16.5912
0.856	16.5387
0.85	16.5708
0.844	16.6221
0.838	16.6581
0.832	16.7109
0.826	16.7442
0.82	16.8322
0.814	16.8885
0.808	16.9468
0.802	17.0159
0.796	17.0721
0.79	17.1271
0.784	17.1978
0.778	17.2284
0.772	17.2561
0.766	17.2672
0.76	17.2563
0.754	17.2284
0.748	17.1708
0.742	17.0877
0.736	16.9915
0.73	16.8728
0.724	16.7357
0.718	16.5972
0.712	16.4438
0.706	16.2905
0.7	16.1499
0.694	16.0062
0.688	15.8774
0.682	15.7506
0.676	15.6383
0.67	15.5476
0.664	15.4593
0.658	15.3882
0.652	15.3148
0.646	15.2577
0.64	15.2048
0.634	15.1531
0.628	15.1088
0.622	15.0507
0.616	14.9866
0.61	14.9019
0.604	14.7989
0.598	14.655
0.592	14.4774
0.586	14.2478
0.58	13.9952
0.574	13.738
0.568	13.4969
0.562	13.2911
0.556	13.1138
0.55	12.998
0.544	12.9097
0.538	12.8565
0.532	12.8207
0.526	12.7952
0.52	12.777
0.514	12.761
0.508	12.7366
0.502	12.7144
0.496	12.6883
0.49	12.677
0.484	12.6593
0.478	12.6868
0.472	12.7012
0.466	12.7082
0.46	12.7068
0.454	12.7029
0.448	12.686
0.442	12.6739
0.436	12.6533
0.43	12.6252
0.424	12.6033
0.418	12.5867
0.412	12.5542
0.406	12.5279
0.4	12.4856
