Name: Altered volcanic tuff
Type: Rock
Class: Igneous
Subclass: Felsic
Particle Size: Solid
Sample No.: Cup4
Owner: USGS
Wavelength Range: All
Origin: Cuprite, Nevada
Description: Altered volcanic tuff, white to very lt greySample was Whole rock chips. Original ASTER Spectral Library name was usgs.perknic.rock.igneous.felsic.solid.cup4.spectrum.txt
Measurement: Directional Hemispherical Reflectance
X Units: Wavelength (micrometers)
Y Units: Reflectance (percent)
wavelength	value
13.9	4.171
13.68	3.502
13.467	3.131
13.261	3.059
13.06	3.255
12.866	3.564
12.677	3.636
12.494	3.162
12.316	2.771
12.143	2.75
11.975	2.802
11.811	3.028
11.652	3.358
11.497	3.646
11.346	4.069
11.199	4.13
11.056	4.357
10.916	4.604
10.78	4.728
10.647	4.903
10.518	5.14
10.391	5.521
10.268	5.809
10.147	6.489
10.029	7.159
9.914	8.137
9.802	9.239
9.692	10.568
9.585	11.526
9.479	12.896
9.377	14.667
9.276	17.52
9.178	20.126
9.081	22.825
8.987	25.163
8.894	24.792
8.804	22.712
8.715	19.92
8.628	16.738
8.543	16.326
8.459	13.74
8.377	12.226
8.297	11.289
8.218	10.908
8.14	10.774
8.064	10.98
7.99	11.155
7.917	10.084
7.845	7.179
7.774	4.45
7.705	2.822
7.637	1.936
7.57	1.452
7.504	1.195
7.44	1.112
7.376	1.02
7.314	1.03
7.252	0.999
7.192	0.999
7.133	1.051
7.074	1.143
7.017	1.061
6.96	1.112
6.905	1.185
6.85	1.226
6.796	1.277
6.743	1.349
6.691	1.432
6.64	1.586
6.589	1.669
6.539	1.638
6.49	1.72
6.442	1.823
6.394	1.813
6.347	1.813
6.301	1.73
6.255	1.823
6.21	1.607
6.166	1.679
6.122	1.648
6.079	1.576
6.037	1.741
5.995	1.71
5.954	1.885
5.913	1.916
5.873	2.05
5.833	2.256
5.794	2.287
5.755	2.317
5.717	2.431
5.68	2.554
5.643	2.616
5.606	2.699
5.57	2.657
5.534	2.719
5.499	2.75
5.464	2.812
5.43	2.699
5.396	2.75
5.363	2.606
5.33	2.575
5.297	2.668
5.265	2.791
5.233	2.884
5.201	3.121
5.17	3.317
5.139	3.368
5.109	3.368
5.079	3.348
5.049	3.327
5.02	3.368
4.991	3.368
4.962	3.523
4.934	3.533
4.906	3.821
4.878	4.038
4.851	4.192
4.824	4.563
4.797	4.81
4.771	4.656
4.744	4.264
4.719	4.038
4.693	4.182
4.668	4.213
4.643	4.244
4.618	4.099
4.593	4.213
4.569	4.161
4.545	4.254
4.521	4.357
4.498	4.357
4.474	4.439
4.451	4.46
4.428	4.563
4.406	4.635
4.384	4.542
4.361	4.635
4.34	4.769
4.318	4.995
4.296	5.356
4.275	5.5
4.254	5.747
4.233	6.087
4.213	6.355
4.192	6.386
4.172	6.53
4.152	6.592
4.132	6.623
4.112	6.86
4.093	6.88
4.074	7.076
4.055	7.086
4.036	7.323
4.017	7.272
3.998	7.189
3.98	7.241
3.962	7.344
3.944	7.571
3.926	7.56
3.908	7.643
3.89	7.457
3.873	7.334
3.856	7.498
3.838	7.56
3.822	7.54
3.805	7.395
3.788	7.468
3.771	7.375
3.755	7.251
3.739	7.128
3.723	6.932
3.707	6.849
3.691	6.613
3.675	6.468
3.66	6.345
3.644	6.252
3.629	6.077
3.614	5.902
3.599	5.727
3.584	5.675
3.569	5.48
3.554	5.335
3.54	5.14
3.525	4.923
3.511	4.573
3.497	4.542
3.483	4.347
3.469	4.347
3.455	4.254
3.441	4.099
3.428	3.698
3.414	3.852
3.401	3.698
3.387	3.852
3.374	3.801
3.361	3.811
3.348	3.78
3.335	3.852
3.322	3.862
3.309	3.646
3.297	3.749
3.284	3.543
3.272	3.584
3.259	3.481
3.247	3.317
3.235	3.471
3.223	3.471
3.211	3.244
3.199	3.275
3.187	3.296
3.176	3.193
3.164	3.193
3.152	2.894
3.141	3.018
3.13	2.956
3.118	2.843
3.107	2.791
3.096	2.699
3.085	2.719
3.074	2.493
3.063	2.709
3.052	2.585
3.042	2.565
3.031	2.523
3.02	2.606
3.01	2.791
2.999	2.596
2.989	2.554
2.979	2.637
2.968	2.596
2.958	2.74
2.948	2.369
2.938	2.369
2.928	2.781
2.918	2.544
2.909	2.493
2.899	2.719
2.889	2.781
2.879	2.833
2.87	3.873
2.86	3.409
2.851	2.699
2.842	2.997
2.832	2.472
2.823	2.472
2.814	2.379
2.805	2.637
2.796	2.822
2.787	2.74
2.778	2.843
2.769	2.936
2.76	3.059
2.751	3.193
2.742	3.214
2.734	3.152
2.725	3.45
2.717	3.42
2.708	3.996
2.7	5.016
2.691	6.335
2.683	8.065
2.675	9.074
2.666	10.351
2.658	11.989
2.65	12.298
2.642	13.555
2.634	13.431
2.626	14.162
2.618	14.029
2.61	14.193
2.602	14.348
2.594	14.585
2.586	13.751
2.579	13.864
2.571	14.018
2.563	14.101
2.556	14.894
2.548	14.564
2.541	14.111
2.533	14.296
2.526	13.452
2.519	12.659
2.511	12.896
2.504	14.162
2.488	15.438
2.464	15.819
2.44	16.369
2.416	18.963
2.392	21.468
2.368	26.302
2.344	26.522
2.32	24.281
2.296	27.599
2.272	28.01
2.248	28.044
2.224	24.949
2.2	22.975
2.176	21.817
2.152	23.027
2.128	26.034
2.104	29.402
2.08	30.942
2.056	31.331
2.032	31.64
2.008	30.804
1.984	30.434
1.96	29.13
1.936	28.09
1.912	26.093
1.888	33.675
1.864	42.865
1.84	45.073
1.816	45.58
1.792	43.791
1.768	40.597
1.744	43.202
1.72	46.771
1.696	47.985
1.672	48.574
1.648	48.86
1.624	48.833
1.6	48.605
1.576	48.314
1.552	47.613
1.528	46.489
1.504	44.116
1.48	36.348
1.456	40.186
1.432	38.156
1.408	40.658
1.384	46.539
1.36	51.811
1.336	53.389
1.312	55.299
1.288	55.436
1.264	54.033
1.24	55.048
1.216	55.622
1.192	55.511
1.168	55.202
1.144	55.168
1.12	55.744
1.096	55.489
1.072	55.146
1.048	54.665
1.024	53.958
1	53.011
0.976	52.7
0.952	52.337
0.928	52.288
0.904	52.31
0.88	52.03
0.856	51.86
0.832	51.592
0.808	51.206
0.784	50.76
0.76	50.399
0.736	49.977
0.712	49.39
0.688	48.664
0.664	47.852
0.64	47.067
0.616	46.154
0.592	44.756
0.568	42.128
0.544	38.646
0.52	36.283
0.496	34.579
0.472	33.256
0.448	31.764
0.424	29.574
0.4	27.845
