Name: Altered volcanic tuff
Type: Rock
Class: Igneous
Subclass: Felsic
Particle Size: Solid
Sample No.: Cup1
Owner: USGS
Wavelength Range: All
Origin: Cuprite, Nevada
Description: Altered volcanic tuff, whiteSample was Whole rock chips. Original ASTER Spectral Library name was usgs.perknic.rock.igneous.felsic.solid.cup1.spectrum.txt
Measurement: Directional Hemispherical Reflectance
X Units: Wavelength (micrometers)
Y Units: Reflectance (percent)
wavelength	value
13.9	2.781
13.68	3.162
13.467	3.461
13.261	3.749
13.06	4.12
12.866	5.191
12.677	5.202
12.494	4.47
12.316	2.235
12.143	2.482
11.975	3.069
11.811	3.512
11.652	3.945
11.497	4.347
11.346	4.697
11.199	5.181
11.056	5.871
10.916	6.51
10.78	5.552
10.647	5.686
10.518	5.191
10.391	5.655
10.268	6.685
10.147	7.715
10.029	9.497
9.914	11.546
9.802	12.453
9.692	14.688
9.585	16.089
9.479	17.428
9.377	20.734
9.276	25.874
9.178	29.891
9.081	29.715
8.987	27.171
8.894	28.397
8.804	25.534
8.715	21.939
8.628	17.51
8.543	17.026
8.459	15.265
8.377	12.916
8.297	12.751
8.218	11.969
8.14	10.228
8.064	7.601
7.99	5.871
7.917	4.47
7.845	3.317
7.774	2.493
7.705	1.998
7.637	1.638
7.57	1.514
7.504	1.432
7.44	1.298
7.376	1.257
7.314	1.215
7.252	1.185
7.192	1.185
7.133	1.226
7.074	1.205
7.017	1.288
6.96	1.318
6.905	1.38
6.85	1.401
6.796	1.349
6.743	1.494
6.691	1.597
6.64	1.535
6.589	1.617
6.539	1.71
6.49	1.823
6.442	1.833
6.394	1.916
6.347	1.875
6.301	1.823
6.255	1.617
6.21	1.617
6.166	1.586
6.122	1.586
6.079	1.658
6.037	1.751
5.995	1.844
5.954	2.029
5.913	2.153
5.873	2.276
5.833	2.338
5.794	2.307
5.755	2.369
5.717	2.338
5.68	2.4
5.643	2.369
5.606	2.317
5.57	2.431
5.534	2.41
5.499	2.338
5.464	2.359
5.43	2.379
5.396	2.256
5.363	2.111
5.33	2.009
5.297	2.07
5.265	2.173
5.233	2.39
5.201	2.565
5.17	2.678
5.139	2.699
5.109	2.791
5.079	2.853
5.049	2.812
5.02	2.833
4.991	2.863
4.962	2.997
4.934	3.306
4.906	3.842
4.878	4.666
4.851	5.593
4.824	6.396
4.797	7.148
4.771	7.828
4.744	8.219
4.719	8.425
4.693	8.302
4.668	8.405
4.643	8.631
4.618	9.332
4.593	9.981
4.569	10.424
4.545	10.599
4.521	10.64
4.498	10.321
4.474	10.269
4.451	10.537
4.428	10.557
4.406	10.65
4.384	10.98
4.361	11.598
4.34	12.206
4.318	12.978
4.296	13.617
4.275	14.245
4.254	14.554
4.233	15.296
4.213	15.275
4.192	15.347
4.172	15.738
4.152	15.975
4.132	16.511
4.112	16.882
4.093	17.428
4.074	17.788
4.055	18.128
4.036	18.571
4.017	18.849
3.998	19.137
3.98	19.292
3.962	19.395
3.944	19.549
3.926	19.724
3.908	19.766
3.89	19.797
3.873	19.652
3.856	19.642
3.838	19.549
3.822	19.539
3.805	19.354
3.788	19.127
3.771	18.674
3.755	18.282
3.739	17.623
3.723	17.531
3.707	16.439
3.691	16.192
3.675	16.532
3.66	16.676
3.644	16.233
3.629	15.883
3.614	15.471
3.599	15.151
3.584	14.605
3.569	14.338
3.554	13.946
3.54	13.349
3.525	12.988
3.511	12.298
3.497	11.691
3.483	11.412
3.469	11.165
3.455	10.702
3.441	10.228
3.428	9.63
3.414	9.095
3.401	8.961
3.387	8.642
3.374	8.261
3.361	8.291
3.348	7.766
3.335	7.55
3.322	7.488
3.309	7.159
3.297	6.623
3.284	6.51
3.272	6.365
3.259	6.036
3.247	5.778
3.235	5.686
3.223	5.48
3.211	5.377
3.199	4.995
3.187	4.862
3.176	4.769
3.164	4.759
3.152	4.388
3.141	4.367
3.13	4.099
3.118	4.099
3.107	3.945
3.096	3.996
3.085	3.842
3.074	3.893
3.063	3.615
3.052	3.554
3.042	3.852
3.031	3.718
3.02	3.698
3.01	3.533
2.999	3.358
2.989	3.286
2.979	3.378
2.968	3.244
2.958	3.317
2.948	3.286
2.938	3.337
2.928	3.224
2.918	3.183
2.909	3.255
2.899	3.471
2.889	3.244
2.879	3.389
2.87	3.337
2.86	3.317
2.851	3.626
2.842	3.43
2.832	3.523
2.823	3.523
2.814	3.656
2.805	3.574
2.796	3.543
2.787	3.471
2.778	3.461
2.769	3.564
2.76	2.39
2.751	2.822
2.742	2.575
2.734	1.947
2.725	2.225
2.717	2.781
2.708	2.822
2.7	2.76
2.691	3.656
2.683	4.872
2.675	6.015
2.666	7.519
2.658	9.404
2.65	10.063
2.642	11.474
2.634	12.113
2.626	12.844
2.618	13.308
2.61	13.957
2.602	14.018
2.594	14.101
2.586	14.502
2.579	14.441
2.571	14.966
2.563	15.223
2.556	15.728
2.548	15.646
2.541	15.491
2.533	16.14
2.526	15.975
2.519	16.676
2.511	16.954
2.504	17.119
2.488	18.457
2.464	18.61
2.44	19.541
2.416	20.9
2.392	22.515
2.368	25.612
2.344	25.75
2.32	24.445
2.296	26.811
2.272	27.521
2.248	27.518
2.224	25.917
2.2	24.523
2.176	23.536
2.152	24.284
2.128	26.12
2.104	27.987
2.08	28.534
2.056	28.546
2.032	28.535
2.008	28.085
1.984	27.703
1.96	26.922
1.936	26.133
1.912	25.673
1.888	29.367
1.864	33.81
1.84	34.921
1.816	35.081
1.792	34.484
1.768	33.357
1.744	34.513
1.72	35.89
1.696	36.371
1.672	36.595
1.648	36.8
1.624	36.8
1.6	36.764
1.576	36.611
1.552	36.367
1.528	35.828
1.504	34.793
1.48	31.589
1.456	33.254
1.432	32.562
1.408	34.499
1.384	36.783
1.36	38.457
1.336	39.276
1.312	39.744
1.288	39.889
1.264	39.655
1.24	39.978
1.216	40.119
1.192	40.072
1.168	40.037
1.144	40.162
1.12	40.253
1.096	40.316
1.072	40.252
1.048	40.157
1.024	39.981
1	39.729
0.976	39.576
0.952	39.571
0.928	39.534
0.904	39.736
0.88	39.79
0.856	40.037
0.832	40.561
0.808	40.461
0.784	40.377
0.76	40.264
0.736	40.123
0.712	39.975
0.688	39.816
0.664	39.572
0.64	39.413
0.616	39.176
0.592	38.872
0.568	38.303
0.544	37.584
0.52	36.658
0.496	35.619
0.472	34.603
0.448	33.407
0.424	31.431
0.4	29.18
