Name: Scoria
Type: Rock
Class: Igneous
Subclass: Basic
Particle Size: Solid
Sample No.: Ward02
Owner: JPL
Wavelength Range: VSWIR
Origin: Ward's Collection of American Rocks.  Sample locality - Klamath Falls, Klamath County, Oregon.
Description: A cellular lava rock that varies in color from reddish brownto brownish black.  Tiny glassy crystals of feldspar can sometimes bediscerned with the aid of a hand lens.Geologic age - Pleistocene.Collected by:  Ward's Natural Science Original ASTER Spectral Library name was jpl.perkin.rock.igneous.basic.solid.ward02.spectrum.txt
Measurement: Hemispherical reflectance
X Units: Wavelength (micrometers)
Y Units: Reflectance (percent)
wavelength	value
2.5	4.7834
2.494	4.782
2.488	4.745
2.482	4.6626
2.476	4.6124
2.47	4.6758
2.464	4.7229
2.458	4.7781
2.452	4.7247
2.446	4.773
2.44	4.7805
2.434	4.8622
2.428	4.8021
2.422	4.8451
2.416	4.785
2.41	4.8668
2.404	4.8438
2.398	4.7819
2.392	4.8424
2.386	4.7737
2.38	4.8946
2.374	4.8108
2.368	4.9036
2.362	4.909
2.356	4.9021
2.35	4.9278
2.344	4.9144
2.338	4.9142
2.332	4.9189
2.326	4.9476
2.32	4.9557
2.314	5.0151
2.308	4.9361
2.302	4.945
2.296	5.064
2.29	4.8969
2.284	4.9872
2.278	5.0475
2.272	4.9931
2.266	5.0144
2.26	5.0424
2.254	5.0373
2.248	5.0652
2.242	5.0447
2.236	5.0453
2.23	5.0475
2.224	5.1907
2.218	5.0656
2.212	5.2398
2.206	5.1182
2.2	5.2061
2.194	5.1293
2.188	5.132
2.182	5.1279
2.176	5.2252
2.17	5.1946
2.164	5.2023
2.158	5.2133
2.152	5.2169
2.146	5.1735
2.14	5.1733
2.134	5.2316
2.128	5.231
2.122	5.1898
2.116	5.2427
2.11	5.2023
2.104	5.2037
2.098	5.1777
2.092	5.1898
2.086	5.165
2.08	5.1927
2.074	5.1967
2.068	5.1669
2.062	5.1969
2.056	5.2117
2.05	5.2537
2.044	5.2299
2.038	5.2625
2.032	5.2443
2.026	5.2387
2.02	5.1978
2.014	5.2298
2.008	5.2255
2.002	5.1929
1.996	5.2015
1.99	5.2318
1.984	5.2868
1.978	5.2014
1.972	5.2292
1.966	5.2691
1.96	5.2702
1.954	5.2926
1.948	5.3018
1.942	5.2695
1.936	5.2863
1.93	5.2812
1.924	5.2833
1.918	5.2445
1.912	5.3381
1.906	5.2412
1.9	5.281
1.894	5.3818
1.888	5.39
1.882	5.4601
1.876	5.3768
1.87	5.406
1.864	5.4486
1.858	5.4071
1.852	5.4408
1.846	5.5242
1.84	5.425
1.834	5.4877
1.828	5.4976
1.822	5.5014
1.816	5.5167
1.81	5.548
1.804	5.5381
1.798	5.5274
1.792	5.5767
1.786	5.5489
1.78	5.5501
1.774	5.5337
1.768	5.5272
1.762	5.5593
1.756	5.5825
1.75	5.5752
1.744	5.5859
1.738	5.6049
1.732	5.6441
1.726	5.6772
1.72	5.6358
1.714	5.6644
1.708	5.6893
1.702	5.6678
1.696	5.6477
1.69	5.6529
1.684	5.6955
1.678	5.6699
1.672	5.7429
1.666	5.7384
1.66	5.7954
1.654	5.69
1.648	5.7431
1.642	5.8727
1.636	5.8085
1.63	5.8048
1.624	5.8497
1.618	5.8423
1.612	5.8351
1.606	5.8443
1.6	5.8072
1.594	5.7902
1.588	5.7578
1.582	5.8552
1.576	5.8587
1.57	5.8481
1.564	5.8646
1.558	5.905
1.552	5.8836
1.546	5.8616
1.54	5.9297
1.534	5.8641
1.528	5.9534
1.522	5.8962
1.516	5.9473
1.51	5.9775
1.504	5.9633
1.498	5.9548
1.492	5.9026
1.486	5.9903
1.48	6.0596
1.474	6.003
1.468	5.9696
1.462	5.9953
1.456	5.9844
1.45	6.0046
1.444	6.0372
1.438	6.0777
1.432	6.0614
1.426	6.0491
1.42	6.0227
1.414	6.0393
1.408	6.1165
1.402	6.1171
1.396	6.1486
1.39	6.1322
1.384	6.0789
1.378	6.1812
1.372	6.1572
1.366	6.1755
1.36	6.1644
1.354	6.1941
1.348	6.1834
1.342	6.1818
1.336	6.1633
1.33	6.2224
1.324	6.2288
1.318	6.3314
1.312	6.3258
1.306	6.2832
1.3	6.3207
1.294	6.3585
1.288	6.3877
1.282	6.3861
1.276	6.4128
1.27	6.4384
1.264	6.4646
1.258	6.4461
1.252	6.4522
1.246	6.508
1.24	6.464
1.234	6.4726
1.228	6.5489
1.222	6.5709
1.216	6.5726
1.21	6.6026
1.204	6.5708
1.198	6.6535
1.192	6.6503
1.186	6.6957
1.18	6.7023
1.174	6.6893
1.168	6.7306
1.162	6.7417
1.156	6.7404
1.15	6.808
1.144	6.8396
1.138	6.7455
1.132	6.7185
1.126	6.7989
1.12	6.8117
1.114	6.805
1.108	6.8958
1.102	6.9229
1.096	6.9881
1.09	6.9499
1.084	6.8394
1.078	6.9533
1.072	6.9081
1.066	6.9228
1.06	6.8572
1.054	6.8481
1.048	6.9089
1.042	6.9196
1.036	6.908
1.03	6.9268
1.024	6.9649
1.018	6.9169
1.012	6.9567
1.006	6.9631
1	6.8932
0.994	6.9429
0.988	6.9575
0.982	6.8875
0.976	6.9018
0.97	6.9749
0.964	6.9859
0.958	7.0175
0.952	7.0077
0.946	7.0449
0.94	6.979
0.934	7.0535
0.928	7.0645
0.922	7.128
0.916	7.099
0.91	7.0884
0.904	7.1775
0.898	7.1192
0.892	7.1335
0.886	7.2101
0.88	7.2809
0.874	7.3419
0.868	7.2678
0.862	7.3528
0.856	7.4327
0.85	7.4909
0.844	7.5349
0.838	7.588
0.832	7.6192
0.826	7.642
0.82	7.6925
0.814	7.7086
0.808	7.7178
0.802	7.756
0.796	7.7655
0.79	7.7863
0.784	7.7948
0.778	7.8129
0.772	7.8164
0.766	7.829
0.76	7.8238
0.754	7.8267
0.748	7.8193
0.742	7.818
0.736	7.8115
0.73	7.7979
0.724	7.7739
0.718	7.7526
0.712	7.7276
0.706	7.6992
0.7	7.6696
0.694	7.6395
0.688	7.6049
0.682	7.575
0.676	7.5414
0.67	7.5075
0.664	7.4717
0.658	7.4413
0.652	7.4095
0.646	7.3772
0.64	7.347
0.634	7.3121
0.628	7.2745
0.622	7.2294
0.616	7.1817
0.61	7.1152
0.604	7.0361
0.598	6.9365
0.592	6.8177
0.586	6.6751
0.58	6.5174
0.574	6.352
0.568	6.1967
0.562	6.0588
0.556	5.9249
0.55	5.8339
0.544	5.7676
0.538	5.7223
0.532	5.6926
0.526	5.6751
0.52	5.6587
0.514	5.6496
0.508	5.6367
0.502	5.6174
0.496	5.5965
0.49	5.5697
0.484	5.5422
0.478	5.5701
0.472	5.5872
0.466	5.5999
0.46	5.6099
0.454	5.6151
0.448	5.6103
0.442	5.6389
0.436	5.6509
0.43	5.6774
0.424	5.7005
0.418	5.718
0.412	5.7342
0.406	5.7547
0.4	5.7687
