Name: Banded Hornfels
Type: rock
Class: Metamorphic
Subclass: Hornfel
Particle Size: Coarse
Sample No.: hornfel1
Owner: JHU
Wavelength Range: All
Origin: Sample No. 470, The Hunt and Salisbury Collection at the U.S.Geological Survey, Denver, Co.
Description: This is a fine-grained to microcrystalline sample showing relict bedding.  It consists of a pleochroic greenish brown phase--probably epidote; and cordierite or andalusite.  The latter occur as the coarser grains in veins parallel to the bedding, as well as finer material along with the epidote in the groundmass.  In addition there are scattered grains of calcite and opaques, along with veinlets of carbonaceous material which again parallel the bedding. Particle size was 500-1500 Micrometer. Original ASTER Spectral Library name was jhu.becknic.rock.metamorphic.hornfels.coarse.hornfe1c.spectrum.txt
Measurement: Directional (10 Degree) Hemispherical Reflectance
X Units: Wavelength (micrometers)
Y Units: Reflectance (percent)
wavelength	value
14.9831	2.1958
14.6445	1.0666
14.2814	1.5492
13.9734	1.6203
13.6785	1.8197
13.3957	1.8827
13.1244	2.0028
12.8639	2.0409
12.6135	2.24
12.3727	2.5268
12.1409	2.8704
11.9176	3.3798
11.7024	4.1263
11.4948	4.9502
11.2944	5.6696
11.101	5.8477
10.914	6.1089
10.7332	5.6753
10.5584	6.0225
10.3891	6.6976
10.2251	6.089
10.0663	5.8835
9.9123	6.7961
9.763	6.4906
9.6181	6.3057
9.4774	6.6744
9.3408	7.4313
9.2081	7.3382
9.0791	7.351
8.9536	7.0997
8.8316	6.2733
8.7129	5.2367
8.5973	4.4289
8.4847	3.8994
8.375	3.1774
8.2682	2.4551
8.164	1.9952
8.0624	1.7823
7.9634	1.7962
7.8667	1.8031
7.7723	1.8282
7.6802	1.7967
7.5903	1.7527
7.5024	1.8647
7.4165	1.9121
7.3326	1.9149
7.2506	1.9864
7.1703	2.2983
7.0919	2.9285
7.0151	3.2316
6.94	3.3765
6.8664	3.4428
6.7944	3.4428
6.7239	3.508
6.6549	3.5477
6.5872	3.6129
6.5209	3.5245
6.456	3.273
6.3923	2.6817
6.3299	2.3274
6.2686	2.1766
6.2086	2.0868
6.1496	2.0191
6.0918	1.9874
6.0351	2.0402
5.9794	2.1922
5.9247	2.3975
5.8711	2.6182
5.8184	2.7168
5.7666	2.8089
5.7157	2.9247
5.6657	3.0372
5.6166	3.0992
5.5684	2.7023
5.5209	3.3775
5.4743	3.5674
5.4284	3.6041
5.3833	3.6832
5.339	3.8326
5.2954	3.885
5.2524	4.0616
5.2102	4.2499
5.1686	4.1992
5.1277	4.055
5.0875	3.7746
5.0479	3.9906
5.0088	4.4758
4.9704	4.6513
4.9326	4.7209
4.8953	4.8516
4.8586	5.1699
4.8225	5.653
4.7868	6.2292
4.7517	6.5885
4.7172	7.3607
4.6831	7.9203
4.6495	8.5588
4.6163	9.8923
4.5837	11.2528
4.5515	12.5583
4.5197	14.0697
4.4884	15.011
4.4576	15.659
4.4271	16.086
4.3971	16.4203
4.3674	16.8674
4.3382	17.5189
4.3094	18.4593
4.2809	19.6396
4.2528	20.6236
4.2251	21.4309
4.1977	22.0345
4.1707	22.4042
4.144	22.5685
4.1177	22.3628
4.0917	21.954
4.066	20.9435
4.0406	18.1524
4.0156	14.4195
3.9909	10.7694
3.9665	10.6496
3.9423	13.1523
3.9185	14.5031
3.8949	14.841
3.8717	15.0198
3.8487	15.285
3.8259	17.0105
3.8035	19.8471
3.7813	22.3708
3.7594	22.5759
3.7377	22.4061
3.7162	22.1963
3.695	21.8621
3.6741	21.4441
3.6534	21.0101
3.6329	20.6409
3.6127	20.1822
3.5926	19.5593
3.5728	18.4378
3.5532	17.9779
3.5338	16.3626
3.5147	12.9766
3.4957	11.6101
3.477	10.7105
3.4584	12.353
3.44	12.3921
3.4219	12.1276
3.4039	11.7444
3.3861	11.227
3.3685	10.7446
3.3511	9.8849
3.3339	11.7759
3.3168	11.995
3.2999	11.5798
3.2832	11.0773
3.2666	10.4827
3.2503	9.9512
3.234	9.3748
3.218	8.8773
3.2021	8.4633
3.1863	8.0858
3.1707	7.6892
3.1553	7.307
3.14	6.9882
3.1249	6.691
3.1099	6.4395
3.095	6.2015
3.0803	6.0963
3.0657	5.9763
3.0513	5.8714
3.037	5.9078
3.0228	5.954
3.0088	5.8467
2.9949	5.7234
2.9811	5.6523
2.9675	5.591
2.9539	5.487
2.9405	5.4707
2.9272	5.4993
2.9141	5.4472
2.901	5.5126
2.8881	5.551
2.8753	5.56
2.8626	5.6788
2.85	5.8389
2.8375	5.8299
2.8252	5.7101
2.8129	5.5775
2.8007	5.5358
2.7887	5.3532
2.7767	5.3966
2.7649	5.2107
2.7531	5.4096
2.7415	5.3667
2.7299	5.029
2.7185	5.0603
2.7071	5.2059
2.6959	5.3485
2.6847	8.1739
2.6736	24.7068
2.6626	27.8742
2.6517	28.1358
2.6409	28.3281
2.6302	29.363
2.6196	30.0877
2.609	30.5935
2.5986	31.0349
2.5882	31.0423
2.5779	30.9402
2.5677	30.9577
2.5575	30.7742
2.5475	30.3955
2.5375	29.9139
2.5276	30.1601
2.5178	30.3472
2.5081	30.3873
2.4984	30.4889
2.4888	30.6115
2.4793	30.4462
2.4698	30.239
2.4604	29.8298
2.4511	29.3779
2.4419	29.2041
2.4327	29.5622
2.4236	29.7332
2.4146	29.0824
2.4056	28.2213
2.3967	27.0922
2.3879	26.1139
2.3791	26.4845
2.3704	27.9409
2.3618	28.6235
2.3532	27.823
2.3447	26.3001
2.3363	24.9805
2.3279	24.6108
2.3195	26.089
2.3113	28.6658
2.303	31.2431
2.2949	32.8956
2.2868	34.5382
2.2787	35.925
2.2708	36.1286
2.2628	35.017
2.255	32.5773
2.2471	31.2327
2.2394	34.8801
2.2317	39.1613
2.224	41.3324
2.2164	42.193
2.2088	42.3375
2.2013	42.3803
2.1939	42.5302
2.1865	42.6903
2.1791	42.7543
2.1718	42.7268
2.1646	42.6027
2.1574	42.4705
2.1502	42.3912
2.1431	42.2972
2.136	42.0774
2.129	41.7753
2.122	41.7009
2.1151	41.52
2.1082	41.2813
2.1014	41.2742
2.0946	41.2377
2.0879	41.4158
2.0812	41.7717
2.056	42.3314
2.024	41.3084
1.992	39.3798
1.96	38.1407
1.928	37.0733
1.896	37.3141
1.864	39.0594
1.832	38.5583
1.8	37.5346
1.768	35.8794
1.736	35.055
1.704	33.5726
1.672	32.3873
1.64	31.2932
1.608	29.6148
1.576	28.2593
1.544	26.8077
1.512	25.6955
1.48	24.2376
1.448	22.5702
1.416	21.3302
1.384	19.2713
1.352	19.0893
1.32	18.0033
1.288	16.8026
1.256	15.6821
1.224	14.924
1.192	14.2387
1.16	13.7344
1.128	13.3128
1.096	13.1532
1.064	13.1882
1.032	13.1151
1	13.1001
0.968	13.1646
0.936	12.857
0.904	12.6854
0.872	12.8966
0.84	13.0783
0.808	13.2649
0.794	12.9308
0.786	12.8117
0.778	12.7459
0.77	12.7984
0.762	12.6973
0.754	12.4765
0.746	12.5953
0.738	12.5953
0.73	12.5992
0.722	12.5535
0.714	12.5817
0.706	12.6303
0.698	12.5064
0.69	12.5423
0.682	12.4967
0.674	12.5648
0.666	12.7081
0.658	12.8813
0.65	12.7677
0.642	13.061
0.634	13.0916
0.626	13.147
0.618	13.1106
0.61	13.037
0.602	12.964
0.594	13.1519
0.586	13.1077
0.578	13.0886
0.57	13.2593
0.562	13.1309
0.554	13.3319
0.546	13.0453
0.538	12.9341
0.53	12.791
0.522	12.7728
0.514	12.5662
0.506	12.5464
0.498	12.1893
0.49	12.1327
0.482	11.8238
0.474	11.7441
0.466	11.541
0.458	11.5566
0.45	11.1026
0.442	11.1898
0.434	11.0092
0.426	10.6154
0.418	10.3554
0.41	10.344
0.402	9.9732
