Name: Rhyolite
Type: Rock
Class: Igneous
Subclass: Felsic
Particle Size: Solid
Sample No.: Ward07
Owner: JPL
Wavelength Range: VSWIR
Origin: Ward's Collection of American Rocks.  Sample locality - Castle Rock, Douglas County, Colorado.
Description: A pinkish rock with scattered phenocrysts of glassy quartzin a felsitic and somewhat vesicular groundmass.Geologic age - Tertiary (Eocene).Collected by:  Ward's Natural Science Original ASTER Spectral Library name was jpl.perkin.rock.igneous.felsic.solid.ward07.spectrum.txt
Measurement: Hemispherical reflectance
X Units: Wavelength (micrometers)
Y Units: Reflectance (percent)
wavelength	value
2.5	44.1026
2.494	43.8243
2.488	43.926
2.482	43.951
2.476	43.8755
2.47	44.0679
2.464	44.0051
2.458	44.1544
2.452	44.1709
2.446	44.2194
2.44	44.2449
2.434	44.3416
2.428	44.2326
2.422	44.428
2.416	44.3961
2.41	44.2965
2.404	44.3364
2.398	44.4517
2.392	44.4111
2.386	44.5078
2.38	44.4898
2.374	44.4834
2.368	44.4688
2.362	44.5146
2.356	44.3143
2.35	44.2931
2.344	44.2101
2.338	44.2397
2.332	44.2373
2.326	44.154
2.32	44.1191
2.314	44.0933
2.308	44.1118
2.302	44.0637
2.296	44.0541
2.29	43.9844
2.284	43.9472
2.278	43.9521
2.272	43.9532
2.266	43.9365
2.26	43.788
2.254	43.7017
2.248	43.6525
2.242	43.6712
2.236	43.5736
2.23	43.6585
2.224	43.6287
2.218	43.4839
2.212	43.4946
2.206	43.6007
2.2	43.6071
2.194	43.5664
2.188	43.5473
2.182	43.4597
2.176	43.4257
2.17	43.398
2.164	43.3888
2.158	43.4196
2.152	43.3548
2.146	43.3548
2.14	43.2482
2.134	43.1229
2.128	43.0784
2.122	42.8625
2.116	42.7299
2.11	42.5532
2.104	42.4172
2.098	42.3701
2.092	42.3138
2.086	42.2947
2.08	42.2619
2.074	42.2714
2.068	42.1929
2.062	42.2856
2.056	42.1878
2.05	42.1963
2.044	42.1392
2.038	42.1221
2.032	42.0716
2.026	42.0736
2.02	41.9875
2.014	41.9506
2.008	41.8438
2.002	41.8
1.996	41.722
1.99	41.632
1.984	41.5358
1.978	41.4037
1.972	41.346
1.966	41.2624
1.96	41.078
1.954	41.0156
1.948	40.8742
1.942	40.8221
1.936	40.6812
1.93	40.6727
1.924	40.6155
1.918	40.6478
1.912	40.7737
1.906	40.9136
1.9	41.1259
1.894	41.5109
1.888	41.5959
1.882	41.8319
1.876	41.8656
1.87	41.8287
1.864	42.0523
1.858	42.1265
1.852	42.1436
1.846	42.2551
1.84	42.3495
1.834	42.352
1.828	42.4672
1.822	42.5565
1.816	42.6754
1.81	42.6543
1.804	42.8186
1.798	42.8622
1.792	42.8907
1.786	42.9383
1.78	43.0015
1.774	43.0528
1.768	43.1834
1.762	43.217
1.756	43.3325
1.75	43.4322
1.744	43.4961
1.738	43.6051
1.732	43.682
1.726	43.8012
1.72	43.9146
1.714	43.9619
1.708	44.1263
1.702	44.283
1.696	44.3014
1.69	44.3897
1.684	44.462
1.678	44.4833
1.672	44.7132
1.666	44.7588
1.66	44.8651
1.654	44.8796
1.648	45.0907
1.642	45.1754
1.636	45.2076
1.63	45.2645
1.624	45.4246
1.618	45.5049
1.612	45.5785
1.606	45.5987
1.6	45.7367
1.594	45.7869
1.588	45.9369
1.582	46.0667
1.576	46.0991
1.57	46.1639
1.564	46.1654
1.558	46.2819
1.552	46.3472
1.546	46.484
1.54	46.4102
1.534	46.5076
1.528	46.6368
1.522	46.5773
1.516	46.6963
1.51	46.7095
1.504	46.7529
1.498	46.8097
1.492	46.8384
1.486	46.9336
1.48	46.9119
1.474	46.9728
1.468	47.0247
1.462	46.9692
1.456	47.0789
1.45	47.0261
1.444	47.1029
1.438	47.1432
1.432	47.1146
1.426	47.1291
1.42	47.1948
1.414	47.268
1.408	47.3081
1.402	47.2214
1.396	47.4059
1.39	47.4312
1.384	47.429
1.378	47.4253
1.372	47.4669
1.366	47.4838
1.36	47.3024
1.354	47.393
1.348	47.3171
1.342	47.3989
1.336	47.3007
1.33	47.3124
1.324	47.3402
1.318	47.272
1.312	47.2967
1.306	47.2418
1.3	47.2471
1.294	47.1835
1.288	47.1021
1.282	47.1065
1.276	47.0458
1.27	47.0303
1.264	46.9397
1.258	46.9529
1.252	46.7831
1.246	46.8027
1.24	46.7538
1.234	46.6847
1.228	46.6155
1.222	46.5139
1.216	46.4044
1.21	46.2952
1.204	46.2543
1.198	46.1439
1.192	46.0472
1.186	45.9831
1.18	45.884
1.174	45.7263
1.168	45.5909
1.162	45.4477
1.156	45.303
1.15	45.2003
1.144	44.9347
1.138	44.8663
1.132	44.6746
1.126	44.5018
1.12	44.2309
1.114	44.0429
1.108	43.8951
1.102	43.5636
1.096	43.2862
1.09	43.0354
1.084	42.8659
1.078	42.541
1.072	42.1834
1.066	41.8618
1.06	41.4822
1.054	41.0254
1.048	40.6355
1.042	40.1384
1.036	39.7415
1.03	39.1737
1.024	38.7146
1.018	38.2325
1.012	37.6698
1.006	37.2233
1	36.591
0.994	36.1438
0.988	35.5376
0.982	35.0937
0.976	34.6325
0.97	34.1124
0.964	33.7927
0.958	33.429
0.952	33.1722
0.946	32.8225
0.94	32.6583
0.934	32.4844
0.928	32.3696
0.922	32.3508
0.916	32.3184
0.91	32.3064
0.904	32.3657
0.898	32.4532
0.892	32.5293
0.886	32.6672
0.88	32.8501
0.874	32.9308
0.868	33.1982
0.862	33.3853
0.856	33.4503
0.85	33.7599
0.844	34.0534
0.838	34.3285
0.832	34.6201
0.826	34.871
0.82	35.1174
0.814	35.3621
0.808	35.5393
0.802	35.7108
0.796	35.8118
0.79	35.9128
0.784	35.9999
0.778	36.0296
0.772	35.9807
0.766	35.975
0.76	35.9365
0.754	35.8781
0.748	35.7942
0.742	35.6976
0.736	35.5831
0.73	35.4541
0.724	35.3118
0.718	35.1514
0.712	34.9802
0.706	34.7977
0.7	34.6264
0.694	34.4334
0.688	34.2437
0.682	34.0492
0.676	33.8591
0.67	33.6578
0.664	33.4707
0.658	33.2785
0.652	33.0729
0.646	32.8738
0.64	32.6897
0.634	32.482
0.628	32.2612
0.622	32.0097
0.616	31.7508
0.61	31.4575
0.604	31.1339
0.598	30.7967
0.592	30.4326
0.586	30.0174
0.58	29.5841
0.574	29.1429
0.568	28.7143
0.562	28.2879
0.556	27.8105
0.55	27.3914
0.544	27.0242
0.538	26.6931
0.532	26.3666
0.526	26.0459
0.52	25.7336
0.514	25.4064
0.508	25.0639
0.502	24.7304
0.496	24.3906
0.49	24.0203
0.484	23.6753
0.478	23.4928
0.472	23.2903
0.466	23.0785
0.46	22.8344
0.454	22.578
0.448	22.3251
0.442	22.1001
0.436	21.9129
0.43	21.6842
0.424	21.4442
0.418	21.1681
0.412	20.8472
0.406	20.5051
0.4	20.1325
