Name: Norite
Type: rock
Class: Igneous
Subclass: Mafic
Particle Size: Fine
Sample No.: Norite_H2
Owner: JHU
Wavelength Range: All
Origin: from Nye, Montana, via Ward's Scientific (Cat. No. W-40)
Description: Sample from which powder is derived is dark greenish-gray, medium-grained granular rock composed of olivine, pyroxene, plagioclase laths (< 3 mm), opaques, and a few bronze colored mica grains (phlogopite?).particle size was 0-75 micrometers. Original ASTER Spectral Library name was jhu.becknic.rock.igneous.mafic.fine.norite2.spectrum.txt
Measurement: Directional (10 degree) hemispherical reflectance
X Units: Wavelength (micrometers)
Y Units: Reflectance (percent)
wavelength	value
14.011	2.9662
13.715	0.6825
13.43	1.575
13.158	2.1155
12.896	2.4225
12.644	3.3169
12.402	4.4147
12.169	4.9078
11.945	4.5084
11.729	4.0327
11.52	4.0596
11.319	3.7207
11.125	3.0719
10.937	2.8172
10.755	2.9536
10.58	2.8453
10.41	2.8434
10.245	2.9608
10.086	2.6678
9.9313	2.6756
9.7814	2.888
9.636	3.0441
9.4948	3.0994
9.3577	3.0371
9.2245	2.8643
9.095	2.8509
8.9691	2.5795
8.8467	2.2172
8.7275	1.7327
8.6116	1.6467
8.4986	1.672
8.3886	1.8021
8.2814	1.8823
8.1769	1.852
8.075	2.0555
7.9756	2.6725
7.8786	3.3228
7.784	4.2823
7.6916	5.2455
7.6014	6.165
7.5133	7.0603
7.4272	7.9645
7.343	8.9571
7.2607	9.8472
7.1803	10.615
7.1016	11.333
7.0246	11.965
6.9493	12.593
6.8755	13.162
6.8034	13.774
6.7327	13.973
6.6634	13.973
6.5956	13.921
6.5292	14.008
6.464	13.837
6.4002	13.324
6.3376	12.452
6.2762	11.465
6.216	10.819
6.157	10.477
6.099	10.221
6.0421	10.147
5.9863	10.481
5.9315	11.6
5.8777	15.044
5.8249	16.855
5.773	17.959
5.722	18.858
5.6719	19.51
5.6227	20.163
5.5744	20.93
5.5268	21.806
5.4801	22.109
5.4341	22.584
5.3889	23.127
5.3445	23.489
5.3008	23.497
5.2578	23.251
5.2154	23.111
5.1738	23.258
5.1328	23.949
5.0925	24.704
5.0528	25.445
5.0137	26.215
4.9752	26.802
4.9373	27.402
4.9	27.854
4.8632	28.278
4.827	28.94
4.7913	29.686
4.7561	30.253
4.7215	30.706
4.6873	31.124
4.6536	31.763
4.6205	32.62
4.5877	33.294
4.5555	33.796
4.5237	34.173
4.4923	34.325
4.4614	34.392
4.4309	34.363
4.4008	34.384
4.3711	34.512
4.3418	34.989
4.3129	35.629
4.2844	36.266
4.2563	37.059
4.2285	37.451
4.2011	38.14
4.174	38.574
4.1473	38.99
4.1209	39.343
4.0949	39.675
4.0692	40.01
4.0438	40.311
4.0187	40.465
3.994	40.729
3.9695	40.755
3.9453	40.882
3.9214	40.907
3.8979	40.882
3.8746	40.792
3.8515	40.66
3.8288	40.452
3.8063	40.356
3.7841	40.148
3.7621	39.903
3.7404	39.549
3.7189	39.369
3.6977	39.032
3.6767	38.681
3.656	38.347
3.6355	37.942
3.6152	37.532
3.5951	37.063
3.5753	36.602
3.5557	36.087
3.5363	35.489
3.5171	34.86
3.4981	34.162
3.4793	33.532
3.4607	32.819
3.4423	32.054
3.4241	31.254
3.4061	30.449
3.3883	29.521
3.3707	28.553
3.3533	27.594
3.336	26.628
3.3189	25.589
3.302	24.671
3.2853	23.806
3.2687	22.9
3.2523	21.949
3.2361	21.089
3.22	20.19
3.204	19.267
3.1883	18.437
3.1727	17.535
3.1572	16.866
3.1419	15.923
3.1268	15.263
3.1117	14.704
3.0969	14.361
3.0821	13.992
3.0675	13.668
3.0531	13.475
3.0388	13.332
3.0246	13.243
3.0105	12.962
2.9966	12.775
2.9828	12.551
2.9692	12.295
2.9556	12.052
2.9422	12.023
2.9289	11.944
2.9157	12.072
2.9027	12.208
2.8897	12.175
2.8769	12.295
2.8642	12.449
2.8516	12.385
2.8391	12.302
2.8267	12.099
2.8144	12.569
2.8022	12.927
2.7902	13.4
2.7782	13.801
2.7664	14.458
2.7546	15.094
2.7429	16.728
2.7314	18.668
2.7199	21.181
2.7085	27.16
2.6973	32.353
2.6861	37.284
2.675	42.749
2.664	43.963
2.6531	45.111
2.6423	45.75
2.6315	45.793
2.6209	45.914
2.6103	46.415
2.5999	46.639
2.5895	46.512
2.5792	46.614
2.569	46.474
2.5588	46.749
2.5487	46.742
2.5388	46.755
2.5289	46.77
2.519	46.598
2.5093	46.607
2.4996	46.586
2.49	46.568
2.4805	46.511
2.471	46.3
2.4616	46.247
2.4523	46.198
2.4431	46.265
2.4339	46.298
2.4248	46.073
2.4157	46.204
2.4068	46.173
2.3979	46.037
2.389	46.059
2.3802	46.119
2.3715	46.137
2.3629	46.008
2.3543	45.904
2.3458	45.661
2.3373	45.409
2.3289	45.133
2.3206	45.042
2.3123	45.228
2.3041	45.108
2.2959	45.21
2.2878	45.236
2.2798	45.123
2.2718	45.095
2.2638	44.938
2.2559	44.57
2.2481	44.515
2.2403	44.27
2.2326	44.248
2.225	44.079
2.2173	43.811
2.2098	43.61
2.2023	43.291
2.1948	43.138
2.1874	42.963
2.18	42.752
2.1727	42.441
2.1655	42.291
2.1583	42.061
2.1511	41.871
2.144	41.609
2.1369	41.363
2.1299	41.035
2.1229	40.705
2.116	40.917
2.1091	40.3
2.1023	40.224
2.0955	39.773
2.0887	39.793
2.082	39.578
2.06	39.402
2.028	37.824
1.996	36.637
1.964	35.728
1.932	35.043
1.9	35.546
1.868	37.092
1.836	37.461
1.804	37.856
1.772	38.324
1.74	39.171
1.708	39.981
1.676	40.944
1.644	41.958
1.612	42.512
1.58	43.324
1.548	44.063
1.516	44.792
1.484	44.718
1.452	44.747
1.42	44.421
1.388	43.763
1.356	44.61
1.324	44.039
1.292	43.367
1.26	42.367
1.228	41.904
1.196	40.645
1.164	39.887
1.132	39.631
1.1	38.08
1.068	36.327
1.036	34.15
1.004	31.418
0.972	28.845
0.94	27.352
0.908	27.023
0.876	27.621
0.844	29.258
0.812	31.875
0.795	33.26
0.787	33.795
0.779	34.416
0.771	34.494
0.763	34.948
0.755	34.864
0.747	34.904
0.739	35.257
0.731	35.048
0.723	34.888
0.715	34.776
0.707	34.608
0.699	34.572
0.691	34.351
0.683	34.125
0.675	34.337
0.667	34.011
0.659	33.84
0.651	34.038
0.643	33.84
0.635	33.768
0.627	33.981
0.619	33.338
0.611	33.41
0.603	33.349
0.595	32.876
0.587	32.959
0.579	32.737
0.571	32.683
0.563	32.345
0.555	31.864
0.547	31.553
0.539	31.115
0.531	31.017
0.523	30.481
0.515	30.109
0.507	29.186
0.499	29.055
0.491	28.143
0.483	27.584
0.475	26.981
0.467	26.903
0.459	26.637
0.451	26.509
0.443	26.051
0.435	25.49
0.427	24.611
0.419	23.639
0.411	22.988
0.403	22.496
