Name: Hypersthene Gabbro
Type: Rock
Class: Igneous
Subclass: Mafic
Particle Size: Solid
Sample No.: Ward41
Owner: JPL
Wavelength Range: All
Origin: Ward's Collection of American Rocks.  Sample locality - Salem, Essex County, Massachusetts.
Description: A coarse-textured, dark-colored rock composed of plagioclase,hornblende and biotite.Geologic age - Early Paleozoic.Collected by:  Ward's Natural Science Original ASTER Spectral Library name was jpl.nicolet.rock.igneous.mafic.solid.ward41.spectrum.txt
Measurement: Hemispherical reflectance
X Units: Wavelength (micrometers)
Y Units: Reflectance (percent)
wavelength	value
15.3871	5.8393
15.118	4.3197
14.8581	3.7103
14.6069	3.6878
14.3642	4.2076
14.1293	4.9604
13.9021	5.0549
13.682	5.3828
13.4687	4.4321
13.2621	5.0722
13.0616	4.5933
12.8672	4.9013
12.6784	4.7029
12.4951	4.6821
12.317	4.6641
12.1439	5.1071
11.9757	5.7814
11.812	6.1512
11.6527	6.811
11.4977	7.6493
11.3468	8.1601
11.1997	8.7667
11.0564	9.3044
10.9168	10.4899
10.7806	10.9542
10.6478	11.9708
10.5182	13.1261
10.3917	14.2534
10.2683	16.0625
10.1477	17.1043
10.0299	19.0995
9.9148	20.0818
9.8024	20.1223
9.6925	20.8134
9.585	20.8528
9.4798	18.1354
9.377	17.4727
9.2763	16.4665
9.1778	15.9197
9.0814	15.7005
8.987	15.615
8.8945	15.3707
8.8039	16.4454
8.7151	16.1729
8.6281	14.9573
8.5428	15.0712
8.4592	14.9758
8.3772	14.0556
8.2967	12.2738
8.2179	8.8057
8.1404	5.6065
8.0645	3.6143
7.9899	2.8821
7.9167	2.3124
7.8449	2.0709
7.7743	2.192
7.705	1.8626
7.6369	2.0532
7.57	1.8715
7.5043	2.027
7.4397	2.2692
7.3762	2.3205
7.3138	2.2208
7.2524	2.6274
7.1921	2.7256
7.1327	2.5527
7.0743	2.5914
7.0169	3.0042
6.9604	2.7043
6.9047	2.587
6.85	2.606
6.7962	2.7956
6.7431	2.6729
6.6909	3.1073
6.6395	3.1024
6.5889	3.0348
6.539	3.3412
6.49	2.8068
6.4416	3.239
6.3939	3.1634
6.347	3.3175
6.3007	3.2092
6.2551	3.2292
6.2101	3.0696
6.1658	3.1605
6.1222	3.2322
6.0791	3.3661
6.0366	3.0428
5.9948	3.1827
5.9535	3.4297
5.9127	3.3333
5.8726	3.2688
5.8329	3.2699
5.7938	3.459
5.7552	3.5886
5.7172	3.7447
5.6796	3.7616
5.6425	3.9653
5.6059	4.1706
5.5698	3.7376
5.5341	4.0117
5.4989	4.1578
5.4641	4.4284
5.4298	4.1813
5.3959	4.3538
5.3624	4.5047
5.3294	4.6093
5.2967	4.5146
5.2644	4.8276
5.2326	4.6148
5.2011	4.817
5.17	4.893
5.1392	5.1811
5.1088	4.997
5.0788	5.4189
5.0491	5.1967
5.0198	5.4768
4.9908	5.6815
4.9622	5.802
4.9338	5.6574
4.9058	5.8755
4.8781	6.0527
4.8508	5.9153
4.8237	5.9456
4.7969	5.9615
4.7704	6.0367
4.7443	6.5656
4.7184	6.2478
4.6927	6.2611
4.6674	6.6219
4.6423	6.8012
4.6175	6.9872
4.593	7.0715
4.5687	6.9716
4.5447	7.4035
4.5209	7.4412
4.4974	7.6071
4.4741	7.7231
4.451	7.9746
4.4282	8.1623
4.4057	8.136
4.3833	8.411
4.3612	8.5881
4.3393	8.9546
4.3176	9.2683
4.2962	8.8077
4.2749	9.2544
4.2539	8.8589
4.233	9.7099
4.2124	9.5908
4.192	9.684
4.1717	10.0169
4.1517	9.7003
4.1319	10.1588
4.1122	9.9719
4.0927	10.4995
4.0734	10.2853
4.0543	10.2485
4.0354	10.0655
4.0166	9.735
3.9981	9.4514
3.9796	9.3296
3.9614	9.6512
3.9433	9.7388
3.9254	9.9842
3.9077	10.5061
3.8901	10.3937
3.8726	10.3875
3.8554	9.9608
3.8382	10.421
3.8213	10.5589
3.8045	11.0715
3.7878	11.0255
3.7713	10.7276
3.7549	11.1549
3.7386	10.572
3.7225	10.8
3.7066	11.1375
3.6907	11.0074
3.675	11.1863
3.6595	10.579
3.644	10.9998
3.6287	11.2808
3.6136	10.5197
3.5985	10.5886
3.5836	11.1065
3.5688	10.5245
3.5541	10.9518
3.5396	10.7349
3.5251	10.1163
3.5108	9.4558
3.4966	10.0012
3.4825	9.0047
3.4685	9.4558
3.4547	9.3726
3.4409	9.3217
3.4273	9.1833
3.4137	9.1532
3.4003	8.9211
3.387	8.8599
3.3738	9.4413
3.3606	8.4009
3.3476	9.6788
3.3347	8.6747
3.3219	8.4653
3.3092	9.4537
3.2965	9.2067
3.284	8.871
3.2716	8.8224
3.2593	8.7545
3.247	8.3875
3.2348	8.4681
3.2228	8.2748
3.2108	7.8538
3.1989	7.9507
3.1871	7.6411
3.1754	7.5752
3.1638	7.598
3.1523	7.6309
3.1408	7.0848
3.1294	6.5335
3.1181	7.4995
3.1069	6.5865
3.0958	6.9717
3.0848	6.8573
3.0738	7.9174
3.0629	6.2256
3.0521	6.8699
3.0413	5.8801
3.0307	7.2765
3.0201	5.6131
3.0096	5.3501
2.9991	7.1931
2.9887	5.8301
2.9784	6.2333
2.9682	6.5026
2.9581	5.6794
2.948	6.3263
2.9379	6.9897
2.928	6.7176
2.9181	5.6087
2.9083	6.5705
2.8985	6.6617
2.8888	6.4986
2.8792	6.5091
2.8697	6.5003
2.8602	6.9974
2.8507	6.0655
2.8413	6.5564
2.832	7.3824
2.8228	6.7112
2.8136	6.4069
2.8045	6.8795
2.7954	7.8345
2.7864	6.0153
2.7774	7.3123
2.7685	7.7263
2.7597	6.8278
2.7509	7.9325
2.7422	8.6634
2.7335	7.8484
2.7249	9.5239
2.7163	9.8179
2.7078	10.5961
2.6994	11.6971
2.691	13.3375
2.6826	13.5778
2.6743	13.6118
2.666	14.5431
2.6578	13.9844
2.6497	14.7894
2.6416	15.0944
2.6336	14.4347
2.6256	14.6084
2.6176	14.4616
2.6097	14.5784
2.6018	14.3434
2.594	14.0883
2.5863	15.3364
2.5785	15.122
2.5709	14.7634
2.5633	15.5417
2.5557	14.4731
2.5481	14.451
2.5406	14.1143
2.5332	15.2047
2.5258	14.504
2.5184	14.3775
2.5111	15.0482
2.5038	15.0119
2.4966	14.2409
2.4894	14.6767
2.4823	14.4418
2.4752	14.3376
2.4681	15.0869
2.4611	15.085
2.4541	14.6383
2.4471	14.71
2.4402	15.2744
2.4333	14.4749
2.4265	14.7115
2.4197	15.4493
2.413	14.3643
2.4063	14.6083
2.3996	14.888
2.3929	16.2783
2.3863	14.5193
2.3798	15.0114
2.3732	14.9661
2.3667	16.384
2.3603	15.6942
2.3538	16.4058
2.3474	15.09
2.3411	14.9227
2.3347	14.4523
2.3285	15.642
2.3222	14.8776
2.316	15.3472
2.3098	16.1938
2.3036	15.8047
2.2975	15.8182
2.2914	14.9919
2.2854	16.931
2.2793	17.9031
2.2733	17.3038
2.2674	16.0718
2.2614	14.9666
2.2555	15.5221
2.2497	15.5982
2.2438	16.1458
2.238	17.6891
2.2322	15.6786
2.2265	17.6436
2.2208	17.6964
2.2151	15.6741
2.2094	16.5358
2.2038	16.9925
2.1982	18.2034
2.1926	15.409
2.187	15.5942
2.1815	15.6921
2.176	15.8896
2.1706	17.8463
2.1651	15.7944
2.1597	18.3873
2.1543	17.1789
2.149	15.799
2.1436	17.1698
2.1383	16.5154
2.1331	15.2682
2.1278	17.5244
2.1226	16.7955
2.1174	16.2299
2.1122	17.7256
2.1071	18.1175
2.1019	18.4823
2.0968	17.9449
2.0918	16.831
2.0867	15.3326
2.0817	17.5269
2.0767	17.4848
2.0717	17.4663
2.0667	17.1833
2.0618	16.5792
2.0569	18.1895
2.052	12.713
2.0472	22.5417
2.0423	13.9849
2.0375	16.9944
2.0327	15.7464
2.028	15.8202
2.0232	19.1718
2.0185	19.765
2.0138	19.1917
2.0091	16.6579
2.0044	15.8225
1.9998	18.2898
