Name: Quartzite
Type: Rock
Class: Metamorphic
Subclass: Quartzite
Particle Size: Solid
Sample No.: Ward94
Owner: JPL
Wavelength Range: VSWIR
Origin: Ward's Collection of American Rocks.  Sample locality - Dell Rapids, Minnehaha County, South Dakota.  Collected by - JPL.
Description: A fine grained, pinkish quartz rock.Geologic age - Pre-CambrianCollected by:  Ward's Natural Science Original ASTER Spectral Library name was jpl.perkin.rock.metamorphic.quartzite.solid.ward94.spectrum.txt
Measurement: Hemispherical reflectance
X Units: Wavelength (micrometers)
Y Units: Reflectance (percent)
wavelength	value
2.5	24.7216
2.494	24.6806
2.488	25.1103
2.482	25.3304
2.476	25.6788
2.47	25.9695
2.464	26.4843
2.458	26.4929
2.452	26.7382
2.446	26.966
2.44	27.1813
2.434	27.632
2.428	28.1915
2.422	28.6327
2.416	28.9939
2.41	29.2371
2.404	29.2836
2.398	29.2314
2.392	28.9101
2.386	28.702
2.38	28.7385
2.374	29.0639
2.368	29.6311
2.362	29.9949
2.356	30.2014
2.35	30.4293
2.344	30.8287
2.338	31.3019
2.332	31.5261
2.326	31.6508
2.32	31.6578
2.314	31.7276
2.308	31.8905
2.302	32.1994
2.296	32.5836
2.29	33.0917
2.284	33.6046
2.278	33.9743
2.272	34.3892
2.266	34.6296
2.26	34.6833
2.254	34.8969
2.248	35.1868
2.242	35.4051
2.236	35.5533
2.23	35.2272
2.224	34.4791
2.218	32.5798
2.212	29.6709
2.206	28.0017
2.2	29.0871
2.194	30.4853
2.188	30.491
2.182	30.1531
2.176	30.1393
2.17	30.563
2.164	31.3181
2.158	32.4229
2.152	33.7569
2.146	35.0535
2.14	36.224
2.134	37.0712
2.128	37.6082
2.122	37.6991
2.116	37.6102
2.11	37.6703
2.104	37.9095
2.098	37.9941
2.092	37.9948
2.086	38.0842
2.08	38.2662
2.074	38.3836
2.068	38.5176
2.062	38.54
2.056	38.6426
2.05	38.6918
2.044	38.7077
2.038	38.6757
2.032	38.5897
2.026	38.4511
2.02	38.3986
2.014	38.2235
2.008	38.0597
2.002	37.8062
1.996	37.6231
1.99	37.3981
1.984	37.1693
1.978	36.9854
1.972	36.8129
1.966	36.613
1.96	36.4249
1.954	36.2835
1.948	36.2625
1.942	36.2334
1.936	36.2899
1.93	36.5027
1.924	36.6311
1.918	37.067
1.912	37.4542
1.906	38.1085
1.9	38.9378
1.894	39.7641
1.888	40.5192
1.882	41.1428
1.876	41.5138
1.87	41.9535
1.864	42.0714
1.858	42.1513
1.852	42.2371
1.846	42.1889
1.84	42.1238
1.834	42.1805
1.828	42.0997
1.822	42.0737
1.816	42.1465
1.81	42.1868
1.804	42.2585
1.798	42.3101
1.792	42.349
1.786	42.4525
1.78	42.5545
1.774	42.6162
1.768	42.7243
1.762	42.7834
1.756	42.8726
1.75	42.8859
1.744	42.9923
1.738	43.0279
1.732	43.0457
1.726	43.1237
1.72	43.1764
1.714	43.2421
1.708	43.1617
1.702	43.2466
1.696	43.2561
1.69	43.2677
1.684	43.3717
1.678	43.3599
1.672	43.4152
1.666	43.4263
1.66	43.3894
1.654	43.4945
1.648	43.5265
1.642	43.545
1.636	43.5733
1.63	43.4719
1.624	43.5569
1.618	43.6197
1.612	43.5125
1.606	43.6687
1.6	43.6659
1.594	43.6035
1.588	43.5937
1.582	43.6675
1.576	43.6642
1.57	43.6863
1.564	43.6101
1.558	43.6445
1.552	43.6224
1.546	43.5688
1.54	43.5981
1.534	43.5674
1.528	43.5649
1.522	43.4436
1.516	43.4343
1.51	43.3957
1.504	43.3179
1.498	43.3073
1.492	43.226
1.486	43.1436
1.48	43.115
1.474	43.0488
1.468	43.054
1.462	43.0592
1.456	42.9658
1.45	42.9237
1.444	42.8948
1.438	42.872
1.432	42.6286
1.426	42.0134
1.42	39.2662
1.414	34.9525
1.408	39.38
1.402	40.0224
1.396	39.4336
1.39	40.0153
1.384	40.0268
1.378	41.1574
1.372	42.7455
1.366	43.1748
1.36	43.1413
1.354	43.5606
1.348	44.081
1.342	44.323
1.336	44.4536
1.33	44.4405
1.324	44.5338
1.318	44.6568
1.312	44.7183
1.306	44.7992
1.3	44.9149
1.294	45.0124
1.288	45.2072
1.282	45.3379
1.276	45.3576
1.27	45.4273
1.264	45.4767
1.258	45.4239
1.252	45.4688
1.246	45.4563
1.24	45.5422
1.234	45.5625
1.228	45.684
1.222	45.7538
1.216	45.788
1.21	45.8474
1.204	45.8199
1.198	45.8542
1.192	45.8828
1.186	45.9275
1.18	45.9459
1.174	46.0073
1.168	45.9621
1.162	45.9714
1.156	46.0296
1.15	46.0142
1.144	46.0789
1.138	46.0533
1.132	46.0456
1.126	46.003
1.12	46.0263
1.114	46.0529
1.108	45.9677
1.102	46.0134
1.096	45.9525
1.09	45.9486
1.084	45.919
1.078	45.8934
1.072	45.8755
1.066	45.9092
1.06	45.7874
1.054	45.7248
1.048	45.7447
1.042	45.7185
1.036	45.574
1.03	45.4662
1.024	45.3989
1.018	45.3001
1.012	45.1763
1.006	45.0901
1	45.0119
0.994	44.8135
0.988	44.6963
0.982	44.4743
0.976	44.2885
0.97	43.9322
0.964	43.6767
0.958	43.5841
0.952	43.3061
0.946	43.1516
0.94	42.9609
0.934	42.7725
0.928	42.5059
0.922	42.3124
0.916	42.1314
0.91	41.9498
0.904	41.7195
0.898	41.6531
0.892	41.4923
0.886	41.4274
0.88	41.3031
0.874	41.3649
0.868	41.2193
0.862	41.5471
0.856	41.3296
0.85	41.2913
0.844	41.2716
0.838	41.2348
0.832	41.2323
0.826	41.235
0.82	41.2455
0.814	41.2839
0.808	41.3489
0.802	41.3069
0.796	41.3172
0.79	41.3286
0.784	41.3496
0.778	41.3297
0.772	41.273
0.766	41.2578
0.76	41.1963
0.754	41.0876
0.748	41.0053
0.742	40.8432
0.736	40.6746
0.73	40.4753
0.724	40.2423
0.718	40.005
0.712	39.7279
0.706	39.4523
0.7	39.1748
0.694	38.9015
0.688	38.625
0.682	38.3552
0.676	38.0964
0.67	37.839
0.664	37.6089
0.658	37.3773
0.652	37.1624
0.646	36.9657
0.64	36.7871
0.634	36.5748
0.628	36.3843
0.622	36.1711
0.616	35.9087
0.61	35.5983
0.604	35.2119
0.598	34.6756
0.592	33.988
0.586	33.1021
0.58	32.1028
0.574	31.0006
0.568	29.888
0.562	28.8776
0.556	28.0399
0.55	27.3676
0.544	26.8615
0.538	26.48
0.532	26.1865
0.526	25.9552
0.52	25.7659
0.514	25.6034
0.508	25.4603
0.502	25.3188
0.496	25.1739
0.49	25.0477
0.484	24.9459
0.478	24.7563
0.472	24.6137
0.466	24.4459
0.46	24.3025
0.454	24.143
0.448	23.9602
0.442	23.7845
0.436	23.5827
0.43	23.3785
0.424	23.2074
0.418	23.0403
0.412	22.8867
0.406	22.7179
0.4	22.5451
