Name: Ferruginous Sandstone
Type: rock
Class: Sedimentary
Subclass: Sandstone
Particle Size: Fine
Sample No.: sandstone_4
Owner: JHU
Wavelength Range: All
Origin: Sample No. 452,  The Hunt and Salisbury Collection at the U.S.Geological Survey, Denver, Co.
Description: Poorly sorted, low porosity sandstone containing medium-grained, well-rounded to subrounded quartz grains coated with ferruginous material (clay) and some carbonate. Sample displays quartz redeposition and pressure solution of the quartz, recrystallization of carbonate as scattered large anhedra, and silica recrystallization; also, some microcline and carbonaceous material. Particle size was 0 - 75 Micrometers. Original ASTER Spectral Library name was jhu.becknic.rock.sedimentary.sandstone.fine.sandst4.spectrum.txt
Measurement: Directional (10 Degree) Hemispherical Reflectance
X Units: Wavelength (micrometers)
Y Units: Reflectance (percent)
wavelength	value
14.983	11.117
14.645	9.1544
14.321	4.3849
14.011	3.9217
13.715	11.505
13.43	11.491
13.158	8.8903
12.896	5.6163
12.644	4.7204
12.402	4.7126
12.169	7.3477
11.945	11.388
11.729	13.03
11.52	9.251
11.319	7.7751
11.125	13.588
10.937	13.368
10.755	12.86
10.58	11.957
10.41	10.891
10.245	9.3604
10.086	7.7737
9.9313	7.06
9.7814	6.5023
9.636	5.8749
9.4948	6.2446
9.3577	9.6794
9.2245	11.052
9.095	10.459
8.9691	10.51
8.8467	10.684
8.7275	10.101
8.6116	7.8803
8.4986	10.278
8.3886	10.747
8.2814	12.497
8.1769	16.258
8.075	15.325
7.9756	14.823
7.8786	13.279
7.784	13.062
7.6916	13.374
7.6014	11.989
7.5133	11.762
7.4272	10.632
7.343	8.6258
7.2607	5.9107
7.1803	4.6118
7.1016	5.2009
7.0246	5.0544
6.9493	4.8033
6.8755	4.8656
6.8034	4.9035
6.7327	5.0191
6.6634	5.6348
6.5956	6.6891
6.5292	7.9312
6.464	10.513
6.4002	10.473
6.3376	7.6004
6.2762	5.6069
6.216	4.7474
6.157	5.7186
6.099	7.9279
6.0421	9.0236
5.9863	9.1553
5.9315	8.6765
5.8777	11.093
5.8249	13.194
5.773	14.533
5.722	16.004
5.6719	16.116
5.6227	12.736
5.5744	5.5488
5.5268	12.606
5.4801	18.036
5.4341	19.408
5.3889	13.877
5.3445	11.142
5.3008	12.216
5.2578	15.538
5.2154	21.633
5.1738	22.842
5.1328	22.309
5.0925	21.367
5.0528	20.231
5.0137	19.669
4.9752	21.795
4.9373	26.074
4.9	31.989
4.8632	38.532
4.827	41.03
4.7913	42.273
4.7561	43.285
4.7215	42.548
4.6873	38.402
4.6536	39.442
4.6205	43.404
4.5877	44.905
4.5555	45.001
4.5237	43.822
4.4923	42.032
4.4614	42.064
4.4309	43.553
4.4008	44.847
4.3711	46.228
4.3418	46.751
4.3129	46.741
4.2844	46.285
4.2563	46.262
4.2285	46.661
4.2011	46.71
4.174	46.626
4.1473	46.343
4.1209	45.529
4.0949	44.381
4.0692	42.082
4.0438	36.942
4.0187	27.687
3.994	18.339
3.9695	16.225
3.9453	22.369
3.9214	27.27
3.8979	28.461
3.8746	29.076
3.8515	29.772
3.8288	33.212
3.8063	39.148
3.7841	44.88
3.7621	46.026
3.7404	46.269
3.7189	46.587
3.6977	46.775
3.6767	46.791
3.656	46.593
3.6355	46.342
3.6152	45.894
3.5951	45.086
3.5753	43.166
3.5557	41.978
3.5363	38.793
3.5171	30.902
3.4981	26.529
3.4793	23.394
3.4607	28.94
3.4423	30.634
3.4241	30.848
3.4061	30.448
3.3883	29.817
3.3707	29.087
3.3533	26.848
3.336	35.445
3.3189	40.074
3.302	41.108
3.2853	41.467
3.2687	41.542
3.2523	41.487
3.2361	41.295
3.22	41.069
3.204	40.662
3.1883	40.345
3.1727	39.877
3.1572	39.094
3.1419	38.651
3.1268	38.316
3.1117	37.701
3.0969	37.462
3.0821	37.371
3.0675	37.195
3.0531	36.86
3.0388	36.624
3.0246	36.344
3.0105	36.125
2.9966	36.061
2.9828	35.792
2.9692	35.43
2.9556	35.133
2.9422	35.354
2.9289	35.446
2.9157	35.508
2.9027	35.628
2.8897	35.917
2.8769	36.029
2.8642	36.112
2.8516	36.194
2.8391	36.031
2.8267	35.715
2.8144	35.375
2.8022	34.739
2.7902	33.439
2.7782	32.124
2.7664	31.171
2.7546	31.742
2.7429	34.106
2.7314	37.239
2.7199	40.84
2.7085	43.126
2.6973	44.568
2.6861	45.107
2.675	45.235
2.664	45.217
2.6531	45.282
2.6423	45.285
2.6315	45.136
2.6209	45.05
2.6103	44.943
2.5999	44.96
2.5895	44.828
2.5792	44.698
2.569	44.554
2.5588	44.256
2.5487	43.694
2.5388	43.063
2.5289	43.132
2.519	43.463
2.5093	43.507
2.4996	43.46
2.49	43.482
2.4805	43.536
2.471	43.616
2.4616	43.744
2.4523	43.776
2.4431	43.711
2.4339	43.677
2.4248	43.684
2.4157	43.66
2.4068	43.63
2.3979	43.549
2.389	43.484
2.3802	43.425
2.3715	43.299
2.3629	43.005
2.3543	42.83
2.3458	42.655
2.3373	42.5
2.3289	42.578
2.3206	42.625
2.3123	42.623
2.3041	42.565
2.2959	42.47
2.2878	42.497
2.2798	42.504
2.2718	42.531
2.2638	42.425
2.2559	42.446
2.2481	42.367
2.2403	42.392
2.2326	42.242
2.225	42.257
2.2173	42.166
2.2098	42.143
2.2023	42.02
2.1948	42.03
2.1874	41.964
2.18	41.859
2.1727	41.98
2.1655	41.853
2.1583	41.792
2.1511	41.745
2.144	41.622
2.1369	41.65
2.1299	41.595
2.1229	41.561
2.116	41.555
2.1091	41.482
2.1023	41.34
2.0955	41.34
2.0887	41.406
2.082	41.29
2.06	41.208
2.028	40.364
1.996	40.005
1.964	39.185
1.932	38.404
1.9	38.942
1.868	38.104
1.836	37.982
1.804	37.889
1.772	37.47
1.74	37.141
1.708	37.317
1.676	37.077
1.644	36.641
1.612	36.704
1.58	36.861
1.548	36.678
1.516	36.813
1.484	36.334
1.452	36.405
1.42	36.591
1.388	37.115
1.356	37.333
1.324	36.86
1.292	37.268
1.26	37.929
1.228	38.824
1.196	39.106
1.164	39.212
1.132	40.19
1.1	40.69
1.068	41.625
1.036	42.066
1.004	42.534
0.972	42.834
0.94	42.506
0.908	41.722
0.876	41.165
0.844	40.878
0.812	41.347
0.795	40.868
0.787	40.558
0.779	40.922
0.771	40.597
0.763	40.11
0.755	39.53
0.747	39.502
0.739	38.944
0.731	38.254
0.723	37.773
0.715	36.992
0.707	36.34
0.699	35.631
0.691	35.176
0.683	34.678
0.675	34.177
0.667	33.302
0.659	32.934
0.651	32.554
0.643	31.826
0.635	31.524
0.627	31.011
0.619	30.657
0.611	29.899
0.603	29.262
0.595	28.63
0.587	27.512
0.579	26.74
0.571	25.526
0.563	23.7
0.555	22.433
0.547	21.58
0.539	20.791
0.531	20.079
0.523	19.844
0.515	19.627
0.507	19.137
0.499	18.993
0.491	18.726
0.483	18.629
0.475	18.173
0.467	17.896
0.459	17.854
0.451	17.601
0.443	17.249
0.435	16.93
0.427	16.713
0.419	16.415
0.411	16.358
0.403	16.155
