Name: Dolomite Marble
Type: Rock
Class: Metamorphic
Subclass: Marble
Particle Size: Solid
Sample No.: Ward97
Owner: JPL
Wavelength Range: VSWIR
Origin: Ward's Collection of American Rocks.  Sample locality - Thornwood, Westchester County, New York.  Collected by - JPL.
Description: A coarse granular marble composed mainly of dolomite.Geologic age -  Pre-CambrianCollected by:  Ward's Natural Science Original ASTER Spectral Library name was jpl.perkin.rock.metamorphic.marble.solid.ward97.spectrum.txt
Measurement: Hemispherical reflectance
X Units: Wavelength (micrometers)
Y Units: Reflectance (percent)
wavelength	value
2.5	11.6662
2.494	11.8488
2.488	12.4182
2.482	12.8691
2.476	13.5263
2.47	13.8348
2.464	14.1796
2.458	14.4039
2.452	15.1486
2.446	16.1765
2.44	17.3171
2.434	18.7942
2.428	20.2938
2.422	22.0621
2.416	23.6026
2.41	24.9799
2.404	25.9767
2.398	26.8282
2.392	27.5376
2.386	28.3656
2.38	29.0922
2.374	30.0819
2.368	30.9712
2.362	31.215
2.356	30.2222
2.35	27.7865
2.344	24.4294
2.338	20.8555
2.332	18.0971
2.326	16.4735
2.32	15.7286
2.314	15.761
2.308	16.23
2.302	16.8416
2.296	17.5669
2.29	18.3233
2.284	18.9959
2.278	19.639
2.272	20.1805
2.266	20.9672
2.26	22.2709
2.254	23.9488
2.248	25.7147
2.242	27.6776
2.236	29.4474
2.23	31.0601
2.224	32.3839
2.218	33.7057
2.212	35.0279
2.206	36.4556
2.2	38.0706
2.194	39.3063
2.188	40.5364
2.182	41.4444
2.176	42.0796
2.17	42.3486
2.164	42.4107
2.158	42.0072
2.152	41.4197
2.146	40.7225
2.14	40.4166
2.134	40.6888
2.128	41.2964
2.122	42.2581
2.116	43.0685
2.11	43.8463
2.104	44.5114
2.098	44.8752
2.092	45.2935
2.086	45.6971
2.08	46.2307
2.074	46.7127
2.068	47.2663
2.062	47.541
2.056	47.7482
2.05	47.8566
2.044	47.7983
2.038	47.681
2.032	47.5706
2.026	47.2817
2.02	46.7399
2.014	46.0474
2.008	45.3044
2.002	44.3366
1.996	42.8352
1.99	40.9942
1.984	39.6813
1.978	39.3684
1.972	39.5155
1.966	39.8252
1.96	40.1583
1.954	40.3039
1.948	40.263
1.942	40.2974
1.936	40.4106
1.93	40.7744
1.924	41.1644
1.918	41.6903
1.912	42.4068
1.906	43.3269
1.9	44.892
1.894	46.9735
1.888	48.743
1.882	50.0244
1.876	49.7618
1.87	47.8
1.864	45.9101
1.858	45.9603
1.852	47.1669
1.846	48.5336
1.84	49.7343
1.834	50.7288
1.828	51.2929
1.822	51.8276
1.816	52.6117
1.81	53.3738
1.804	53.969
1.798	54.5734
1.792	54.8806
1.786	55.2625
1.78	55.5131
1.774	55.7591
1.768	55.8981
1.762	55.8569
1.756	55.6167
1.75	55.1134
1.744	54.8152
1.738	54.8093
1.732	54.9334
1.726	54.9508
1.72	55.1364
1.714	55.2837
1.708	55.3676
1.702	55.6941
1.696	55.8633
1.69	56.2348
1.684	56.3905
1.678	56.6567
1.672	56.8491
1.666	56.9776
1.66	57.1088
1.654	57.1286
1.648	57.2114
1.642	57.1216
1.636	57.1448
1.63	57.1447
1.624	57.2386
1.618	57.3174
1.612	57.1941
1.606	57.2548
1.6	57.3842
1.594	57.3201
1.588	57.3035
1.582	57.09
1.576	57.0808
1.57	56.9754
1.564	56.4857
1.558	56.2879
1.552	56.0229
1.546	55.9997
1.54	55.9884
1.534	55.7458
1.528	55.6415
1.522	55.3838
1.516	55.2992
1.51	55.0407
1.504	54.6524
1.498	54.4718
1.492	54.235
1.486	53.9041
1.48	53.6228
1.474	53.2932
1.468	52.9229
1.462	52.8208
1.456	52.6327
1.45	52.4383
1.444	52.3047
1.438	52.3018
1.432	52.1317
1.426	52.0974
1.42	52.0034
1.414	52.0259
1.408	52.0872
1.402	52.0647
1.396	51.4969
1.39	51.1947
1.384	51.9512
1.378	50.3855
1.372	50.6269
1.366	52.8591
1.36	52.8724
1.354	52.7309
1.348	52.799
1.342	52.6734
1.336	52.513
1.33	52.4494
1.324	52.3559
1.318	52.2742
1.312	52.1512
1.306	52.0794
1.3	52.02
1.294	51.8398
1.288	51.8094
1.282	51.75
1.276	51.727
1.27	51.7165
1.264	51.627
1.258	51.5872
1.252	51.4866
1.246	51.5689
1.24	51.4804
1.234	51.447
1.228	51.4133
1.222	51.4349
1.216	51.3634
1.21	51.3821
1.204	51.3366
1.198	51.3608
1.192	51.304
1.186	51.3262
1.18	51.2933
1.174	51.1923
1.168	51.1273
1.162	51.1417
1.156	51.0501
1.15	51.0616
1.144	50.9776
1.138	50.8919
1.132	50.7707
1.126	50.6453
1.12	50.6159
1.114	50.4665
1.108	50.3374
1.102	50.2188
1.096	50.1588
1.09	50.004
1.084	49.8156
1.078	49.7822
1.072	49.6097
1.066	49.4917
1.06	49.3208
1.054	49.2176
1.048	49.1304
1.042	49.0355
1.036	49.1554
1.03	49.0688
1.024	49.0741
1.018	49.0877
1.012	49.1468
1.006	49.233
1	49.334
0.994	49.4606
0.988	49.5446
0.982	49.6743
0.976	49.7705
0.97	50.0577
0.964	50.1448
0.958	50.2696
0.952	50.4308
0.946	50.6461
0.94	50.7679
0.934	50.9027
0.928	51.2384
0.922	51.3307
0.916	51.4989
0.91	51.6073
0.904	51.6641
0.898	51.8172
0.892	51.9227
0.886	52.0185
0.88	52.1016
0.874	52.2491
0.868	52.2412
0.862	52.3338
0.856	51.9462
0.85	52.0885
0.844	52.2415
0.838	52.3467
0.832	52.4469
0.826	52.5013
0.82	52.5862
0.814	52.6559
0.808	52.7673
0.802	52.7966
0.796	52.8061
0.79	52.8123
0.784	52.8184
0.778	52.8217
0.772	52.7815
0.766	52.7778
0.76	52.7269
0.754	52.7059
0.748	52.6369
0.742	52.608
0.736	52.5386
0.73	52.4835
0.724	52.3857
0.718	52.3079
0.712	52.2229
0.706	52.1146
0.7	52.0076
0.694	51.9014
0.688	51.7779
0.682	51.6619
0.676	51.5127
0.67	51.3891
0.664	51.2363
0.658	51.0849
0.652	50.9381
0.646	50.7904
0.64	50.6179
0.634	50.4538
0.628	50.2656
0.622	50.0882
0.616	49.9122
0.61	49.7064
0.604	49.5213
0.598	49.3351
0.592	49.1212
0.586	48.9003
0.58	48.6497
0.574	48.3789
0.568	48.0945
0.562	47.8068
0.556	47.4615
0.55	47.1171
0.544	46.7715
0.538	46.4142
0.532	46.0367
0.526	45.6336
0.52	45.2397
0.514	44.8238
0.508	44.3965
0.502	43.9439
0.496	43.4866
0.49	43.0011
0.484	42.5186
0.478	42.1868
0.472	41.8254
0.466	41.4836
0.46	41.1267
0.454	40.7187
0.448	40.2797
0.442	39.7781
0.436	39.2128
0.43	38.5841
0.424	37.9667
0.418	37.3845
0.412	36.7899
0.406	36.1685
0.4	35.4929
