Name: Basalt
Type: rock
Class: Igneous
Subclass: Mafic
Particle Size: Fine
Sample No.: Basalt_H9
Owner: JHU
Wavelength Range: All
Origin: from Kilauea, via Rosalind Helz, USGS, Reston, VA (Cat. No. KI67-3-84)
Description: Powder derived from sample: a dark gray, slightly vesicular rock, consisting of black and light green phenocrysts, approx. 0.5-1 mm in size, making up about 40% of the rock.Particle size was 0-75 micrometers. Original ASTER Spectral Library name was jhu.becknic.rock.igneous.mafic.fine.basal9.spectrum.txt
Measurement: Directional (10 degree) hemispherical reflectance
X Units: Wavelength (micrometers)
Y Units: Reflectance (percent)
wavelength	value
14.011	1.08
13.715	1.3575
13.43	2.1031
13.158	1.9621
12.896	2.1722
12.644	2.3772
12.402	2.8697
12.169	3.2102
11.945	2.9468
11.729	2.6751
11.52	2.8545
11.319	2.869
11.125	2.7234
10.937	2.7813
10.755	2.7161
10.58	2.6171
10.41	2.5064
10.245	2.4992
10.086	2.3719
9.9313	2.3457
9.7814	2.3395
9.636	2.2697
9.4948	2.2746
9.3577	2.3517
9.2245	2.2903
9.095	2.2568
8.9691	2.2064
8.8467	1.8112
8.7275	1.5169
8.6116	1.4463
8.4986	1.328
8.3886	1.3568
8.2814	1.2443
8.1769	1.1091
8.075	1.1571
7.9756	1.56
7.8786	2.2395
7.784	3.0546
7.6916	4.0535
7.6014	5.1408
7.5133	6.2719
7.4272	7.3932
7.343	8.4537
7.2607	9.3563
7.1803	10.222
7.1016	11.091
7.0246	11.909
6.9493	12.671
6.8755	13.249
6.8034	13.735
6.7327	13.944
6.6634	13.928
6.5956	14.044
6.5292	14.154
6.464	14.282
6.4002	14.563
6.3376	14.786
6.2762	14.951
6.216	15.182
6.157	15.548
6.099	15.818
6.0421	16.123
5.9863	16.68
5.9315	17.332
5.8777	18.035
5.8249	18.609
5.773	19.199
5.722	19.586
5.6719	19.794
5.6227	20.168
5.5744	20.606
5.5268	20.937
5.4801	21.22
5.4341	21.476
5.3889	21.848
5.3445	22.166
5.3008	22.456
5.2578	22.865
5.2154	23.4
5.1738	23.967
5.1328	24.578
5.0925	25.19
5.0528	26.052
5.0137	27.164
4.9752	28.267
4.9373	29.24
4.9	30.098
4.8632	30.892
4.827	31.732
4.7913	32.413
4.7561	33.097
4.7215	33.801
4.6873	34.482
4.6536	35.206
4.6205	35.874
4.5877	36.558
4.5555	37.133
4.5237	37.62
4.4923	38.012
4.4614	38.305
4.4309	38.577
4.4008	38.81
4.3711	39.062
4.3418	39.269
4.3129	39.419
4.2844	39.618
4.2563	39.758
4.2285	39.891
4.2011	39.977
4.174	40.088
4.1473	40.159
4.1209	40.194
4.0949	40.247
4.0692	40.248
4.0438	40.266
4.0187	40.265
3.994	40.258
3.9695	40.261
3.9453	40.238
3.9214	40.182
3.8979	40.127
3.8746	40.046
3.8515	39.933
3.8288	39.879
3.8063	39.793
3.7841	39.675
3.7621	39.527
3.7404	39.424
3.7189	39.27
3.6977	39.122
3.6767	38.975
3.656	38.828
3.6355	38.654
3.6152	38.439
3.5951	38.244
3.5753	38.066
3.5557	37.86
3.5363	37.623
3.5171	37.399
3.4981	37.144
3.4793	37.025
3.4607	36.754
3.4423	36.631
3.4241	36.289
3.4061	36.046
3.3883	35.947
3.3707	35.74
3.3533	35.545
3.336	35.329
3.3189	35.117
3.302	34.9
3.2853	34.661
3.2687	34.394
3.2523	34.124
3.2361	33.868
3.22	33.61
3.204	33.375
3.1883	33.166
3.1727	32.817
3.1572	32.607
3.1419	32.334
3.1268	32.104
3.1117	31.885
3.0969	31.652
3.0821	31.421
3.0675	31.198
3.0531	30.97
3.0388	30.748
3.0246	30.552
3.0105	30.327
2.9966	30.094
2.9828	29.846
2.9692	29.673
2.9556	29.493
2.9422	29.261
2.9289	29.148
2.9157	29
2.9027	28.874
2.8897	28.787
2.8769	28.636
2.8642	28.486
2.8516	28.298
2.8391	28.299
2.8267	28.212
2.8144	28.307
2.8022	28.415
2.7902	28.739
2.7782	29.135
2.7664	29.668
2.7546	30.431
2.7429	31.396
2.7314	32.413
2.7199	33.247
2.7085	33.874
2.6973	34.192
2.6861	34.278
2.675	34.379
2.664	34.332
2.6531	34.224
2.6423	34.176
2.6315	34.076
2.6209	33.894
2.6103	33.72
2.5999	33.578
2.5895	33.468
2.5792	33.254
2.569	33.064
2.5588	32.966
2.5487	32.789
2.5388	32.607
2.5289	32.399
2.519	32.214
2.5093	32.103
2.4996	32.004
2.49	31.771
2.4805	31.651
2.471	31.492
2.4616	31.356
2.4523	31.231
2.4431	31.11
2.4339	30.935
2.4248	30.8
2.4157	30.662
2.4068	30.532
2.3979	30.413
2.389	30.278
2.3802	30.199
2.3715	30.095
2.3629	30.009
2.3543	29.89
2.3458	29.817
2.3373	29.788
2.3289	29.739
2.3206	29.64
2.3123	29.614
2.3041	29.421
2.2959	29.392
2.2878	29.281
2.2798	29.278
2.2718	29.133
2.2638	29.171
2.2559	29.161
2.2481	29.052
2.2403	29.008
2.2326	28.966
2.225	28.911
2.2173	28.914
2.2098	28.918
2.2023	28.827
2.1948	28.891
2.1874	28.883
2.18	28.905
2.1727	28.911
2.1655	28.867
2.1583	28.828
2.1511	28.828
2.144	28.855
2.1369	28.833
2.1299	28.806
2.1229	28.75
2.116	28.836
2.1091	28.963
2.1023	28.889
2.0955	28.82
2.0887	28.877
2.082	28.816
2.06	28.829
2.028	28.687
1.996	28.366
1.964	28.027
1.932	27.721
1.9	27.73
1.868	27.73
1.836	27.928
1.804	27.78
1.772	27.625
1.74	27.91
1.708	27.766
1.676	27.603
1.644	27.788
1.612	27.416
1.58	27.398
1.548	27.193
1.516	26.711
1.484	26.171
1.452	26.037
1.42	25.546
1.388	24.938
1.356	24.34
1.324	23.513
1.292	23
1.26	22.552
1.228	22.109
1.196	21.38
1.164	20.66
1.132	20.282
1.1	19.42
1.068	18.503
1.036	17.897
1.004	17.86
0.972	17.887
0.94	18.33
0.908	19.142
0.876	19.652
0.844	20.017
0.812	20.419
0.795	20.491
0.787	20.433
0.779	20.65
0.771	20.674
0.763	20.583
0.755	20.533
0.747	20.308
0.739	20.497
0.731	20.333
0.723	20.468
0.715	20.304
0.707	20.125
0.699	20.085
0.691	20.128
0.683	19.914
0.675	19.981
0.667	19.766
0.659	19.882
0.651	19.702
0.643	19.583
0.635	19.401
0.627	19.268
0.619	19.002
0.611	18.885
0.603	18.967
0.595	18.759
0.587	18.299
0.579	18.071
0.571	17.971
0.563	17.662
0.555	17.273
0.547	16.805
0.539	16.499
0.531	16.26
0.523	15.983
0.515	15.756
0.507	15.44
0.499	15.084
0.491	15.013
0.483	14.498
0.475	14.001
0.467	13.915
0.459	13.837
0.451	13.729
0.443	13.347
0.435	13.372
0.427	12.876
0.419	12.541
0.411	12.569
0.403	12.22
