Name: Basalt
Type: Rock
Class: Igneous
Subclass: Mafic
Particle Size: Solid
Sample No.: ba14c1f
Owner: Larry Rowan, USGS
Wavelength Range: All
Origin: Kerak/DAT RAS, Jordan
Description: medium grained,dark gray basalt Sample was Whole rock chips. Original ASTER Spectral Library name was usgs.perknic.rock.igneous.mafic.solid.ba14c1f.spectrum.txt
Measurement: Reflectance
X Units: Wavelength (micrometers)
Y Units: Reflectance (percent)
wavelength	value
0.4	0.12
0.408	0.116
0.416	0.118
0.424	0.117
0.432	0.114
0.44	0.112
0.448	0.109
0.456	0.105
0.464	0.098
0.472	0.095
0.48	0.096
0.488	0.094
0.496	0.095
0.504	0.092
0.512	0.092
0.52	0.092
0.528	0.092
0.536	0.092
0.544	0.095
0.552	0.095
0.56	0.1
0.568	0.103
0.576	0.102
0.584	0.101
0.592	0.101
0.6	0.101
0.608	0.105
0.616	0.106
0.624	0.107
0.632	0.105
0.64	0.106
0.648	0.107
0.656	0.105
0.664	0.106
0.672	0.108
0.68	0.107
0.688	0.107
0.696	0.107
0.704	0.105
0.712	0.107
0.72	0.107
0.728	0.109
0.736	0.108
0.744	0.108
0.752	0.108
0.76	0.107
0.768	0.108
0.776	0.109
0.784	0.108
0.792	0.108
0.8	0.112
0.832	0.11
0.864	0.109
0.896	0.11
0.928	0.107
0.96	0.106
0.992	0.104
1.024	0.104
1.056	0.104
1.088	0.104
1.12	0.104
1.152	0.104
1.184	0.105
1.216	0.105
1.248	0.105
1.28	0.106
1.312	0.107
1.344	0.107
1.376	0.106
1.408	0.109
1.44	0.111
1.472	0.112
1.504	0.114
1.536	0.116
1.568	0.118
1.6	0.121
1.632	0.121
1.664	0.122
1.696	0.121
1.728	0.122
1.76	0.121
1.792	0.122
1.824	0.122
1.856	0.12
1.888	0.116
1.92	0.115
1.952	0.115
1.984	0.117
2.016	0.118
2.048	0.12
2.08	0.12
2.1021	0.104
2.109	0.1059
2.1159	0.1019
2.1228	0.1032
2.1298	0.1068
2.1368	0.1028
2.1438	0.103
2.1509	0.1057
2.1581	0.1031
2.1653	0.1038
2.1726	0.1045
2.1799	0.1012
2.1872	0.1018
2.1946	0.1024
2.2021	0.103
2.2096	0.1016
2.2172	0.1046
2.2248	0.1038
2.2324	0.1013
2.2401	0.1009
2.2479	0.1025
2.2557	0.1024
2.2636	0.1021
2.2715	0.1037
2.2795	0.1023
2.2876	0.1032
2.2957	0.1008
2.3038	0.1011
2.3121	0.1033
2.3203	0.1019
2.3287	0.1036
2.3371	0.1013
2.3455	0.1015
2.354	0.102
2.3626	0.1009
2.3712	0.1016
2.38	0.101
2.3887	0.1024
2.3976	0.1017
2.4065	0.0996
2.4154	0.0995
2.4245	0.0996
2.4336	0.1003
2.4427	0.0983
2.452	0.0981
2.4613	0.0999
2.4707	0.0993
2.4801	0.0992
2.4896	0.0986
2.4992	0.0988
2.5089	0.0981
2.5187	0.0977
2.5285	0.0989
2.5384	0.0996
2.5484	0.0971
2.5584	0.0987
2.5686	0.095
2.5788	0.0975
2.5891	0.0964
2.5995	0.0982
2.6099	0.0943
2.6205	0.0922
2.6311	0.0948
2.6418	0.0958
2.6526	0.0937
2.6635	0.0886
2.6745	0.0854
2.6856	0.0848
2.6968	0.0752
2.708	0.0622
2.7194	0.0587
2.7309	0.0582
2.7424	0.0518
2.7541	0.0488
2.7658	0.0483
2.7777	0.0511
2.7896	0.0519
2.8017	0.0487
2.8138	0.0485
2.8261	0.0511
2.8385	0.0489
2.851	0.0505
2.8636	0.0503
2.8763	0.0499
2.8891	0.0496
2.902	0.0487
2.915	0.0492
2.9282	0.0505
2.9415	0.0498
2.9549	0.0504
2.9684	0.05
2.9821	0.0497
2.9959	0.0505
3.0098	0.0504
3.0238	0.0504
3.038	0.0508
3.0523	0.0514
3.0667	0.0516
3.0813	0.0514
3.096	0.0532
3.1109	0.0534
3.1259	0.054
3.141	0.0536
3.1563	0.0545
3.1718	0.0561
3.1874	0.0573
3.2031	0.0577
3.219	0.0599
3.2351	0.0605
3.2513	0.0608
3.2677	0.0627
3.2843	0.0636
3.301	0.0644
3.3179	0.0649
3.3349	0.0661
3.3522	0.065
3.3696	0.0664
3.3872	0.0679
3.405	0.0689
3.423	0.0711
3.4412	0.0713
3.4595	0.0709
3.4781	0.0708
3.4968	0.0717
3.5158	0.0727
3.535	0.0744
3.5544	0.0743
3.574	0.075
3.5938	0.076
3.6138	0.0762
3.6341	0.0769
3.6545	0.0769
3.6753	0.0778
3.6962	0.0784
3.7174	0.0784
3.7389	0.078
3.7605	0.0782
3.7825	0.0779
3.8047	0.0772
3.8272	0.0757
3.8499	0.0755
3.8729	0.074
3.8962	0.0746
3.9197	0.0742
3.9436	0.0742
3.9677	0.0729
3.9921	0.0728
4.0169	0.0729
4.0419	0.0743
4.0673	0.0741
4.093	0.0737
4.119	0.0733
4.1453	0.0731
4.172	0.0721
4.199	0.0708
4.2264	0.0649
4.2541	0.0677
4.2822	0.0641
4.3107	0.0653
4.3395	0.066
4.3688	0.0654
4.3984	0.0641
4.4285	0.063
4.4589	0.0615
4.4898	0.0593
4.5211	0.0581
4.5529	0.0574
4.5851	0.0557
4.6177	0.0544
4.6509	0.0529
4.6845	0.0513
4.7186	0.0504
4.7532	0.049
4.7883	0.0478
4.8239	0.0472
4.8601	0.0462
4.8968	0.0454
4.9341	0.0444
4.9719	0.0435
5.0103	0.0425
5.0493	0.0414
5.089	0.0411
5.1292	0.0397
5.1702	0.0391
5.2117	0.0381
5.254	0.0376
5.2969	0.0365
5.3405	0.0354
5.3849	0.0351
5.43	0.034
5.4759	0.0325
5.5225	0.0321
5.57	0.0303
5.6182	0.0308
5.6673	0.0297
5.7173	0.0292
5.7682	0.0283
5.82	0.0263
5.8727	0.0255
5.9264	0.0254
5.9811	0.0253
6.0368	0.0241
6.0935	0.0258
6.1513	0.0254
6.2103	0.027
6.2703	0.0273
6.3316	0.0278
6.394	0.0303
6.4577	0.035
6.5227	0.035
6.589	0.0332
6.6566	0.0333
6.7257	0.0325
6.7962	0.0319
6.8682	0.0299
6.9418	0.0292
7.0169	0.0285
7.0937	0.0274
7.1722	0.0245
7.2524	0.0224
7.3345	0.0204
7.4184	0.0205
7.5043	0.0189
7.5922	0.0188
7.6821	0.0169
7.7743	0.0161
7.8686	0.0162
7.9653	0.0156
8.0644	0.0177
8.166	0.0229
8.2701	0.0362
8.377	0.0496
8.4867	0.0568
8.5992	0.0648
8.7149	0.0728
8.8336	0.0823
8.9556	0.0888
9.0811	0.0884
9.2101	0.0843
9.3428	0.0935
9.4795	0.1052
9.6201	0.1115
9.765	0.1135
9.9144	0.1125
10.0684	0.1075
10.2272	0.1094
10.3911	0.1116
10.5604	0.1082
10.7353	0.1156
10.9161	0.1132
11.103	0.1043
11.2965	0.1006
11.4968	0.0823
11.7044	0.0675
11.9196	0.0591
12.1429	0.0539
12.3747	0.0452
12.6155	0.0403
12.8659	0.0378
13.1264	0.0367
13.3977	0.0368
13.6804	0.0355
13.9753	0.0348
