Name: Hornfels
Type: rock
Class: Metamorphic
Subclass: Hornfel
Particle Size: Coarse
Sample No.: hornfe2
Owner: JHU
Wavelength Range: All
Origin: Sample No. 471, The Hunt and Salisbury Collection at the U.S.Geological Survey, Denver, Co.
Description: This is a greenish, very fine-grained to microcrystalline rock containing somewhat larger recrystallized feldspar and carbonate grains.  The finer material or groundmass also consists of these two phases in addition to a greenish microcrystalline mineral (chlorite?)Particle size was 500-1500 Micrometer. Original ASTER Spectral Library name was jhu.becknic.rock.metamorphic.hornfels.coarse.hornfe2.spectrum.txt
Measurement: Directional (10 Degree) Hemispherical Reflectance
X Units: Wavelength (micrometers)
Y Units: Reflectance (percent)
wavelength	value
14.9831	1.5635
14.6445	1.7558
14.3209	1.7006
14.0112	1.841
13.7147	1.7406
13.4304	1.738
13.1577	1.7404
12.8959	1.6677
12.6443	1.6887
12.4023	1.8476
12.1694	2.1484
11.945	2.4198
11.7289	2.6509
11.5203	2.8449
11.3191	3.1132
11.1248	3.3431
10.937	3.4765
10.7555	3.61
10.5799	3.776
10.4099	3.9986
10.2454	4.2755
10.0859	4.6826
9.9313	5.2161
9.7814	5.3208
9.636	5.7639
9.4948	5.5339
9.3577	4.607
9.2245	4.1315
9.095	3.8757
8.9691	3.6886
8.8467	3.6387
8.7275	3.7405
8.6116	3.8831
8.4986	4.05
8.3886	4.226
8.2814	4.1533
8.1769	3.8293
8.075	3.5655
7.9756	3.5177
7.8786	3.5674
7.784	3.6834
7.6916	3.7448
7.6014	3.8127
7.5133	3.8689
7.4272	3.8871
7.343	3.9089
7.2607	3.9633
7.1803	4.0626
7.1016	4.1623
7.0246	4.1789
6.9493	4.2058
6.8755	4.2321
6.8034	4.3022
6.7327	4.3581
6.6634	4.3787
6.5956	4.3875
6.5292	4.3962
6.464	4.3721
6.4002	4.2409
6.3376	4.1019
6.2762	4.0109
6.216	3.8236
6.157	3.6716
6.099	3.6013
6.0421	3.6605
5.9863	3.831
5.9315	3.9382
5.8777	3.9996
5.8249	4.0635
5.773	4.0671
5.722	4.073
5.6719	4.0728
5.6227	4.1161
5.5744	4.1331
5.5268	4.3072
5.4801	4.4678
5.4341	4.6155
5.3889	4.7598
5.3445	4.8673
5.3008	4.9502
5.2578	5.025
5.2154	5.0972
5.1738	5.2187
5.1328	5.3329
5.0925	5.4344
5.0528	5.5064
5.0137	5.5375
4.9752	5.5754
4.9373	5.59
4.9	5.5621
4.8632	5.5825
4.827	5.5905
4.7913	5.6005
4.7561	5.6071
4.7215	5.6405
4.6873	5.659
4.6536	5.6833
4.6205	5.7309
4.5877	5.7785
4.5555	5.8018
4.5237	5.8375
4.4923	5.8527
4.4614	5.847
4.4309	5.8986
4.4008	5.9268
4.3711	5.9474
4.3418	5.9528
4.3129	5.9554
4.2844	5.9614
4.2563	5.9599
4.2285	5.955
4.2011	5.9611
4.174	5.9389
4.1473	5.9308
4.1209	5.9244
4.0949	5.9088
4.0692	5.8932
4.0438	5.8773
4.0187	5.8467
3.994	5.7942
3.9695	5.774
3.9453	5.8034
3.9214	5.8027
3.8979	5.7823
3.8746	5.7684
3.8515	5.765
3.8288	5.7577
3.8063	5.744
3.7841	5.7357
3.7621	5.7191
3.7404	5.6921
3.7189	5.6784
3.6977	5.658
3.6767	5.6275
3.656	5.6061
3.6355	5.596
3.6152	5.5668
3.5951	5.5417
3.5753	5.514
3.5557	5.4764
3.5363	5.4477
3.5171	5.4176
3.4981	5.3738
3.4793	5.3357
3.4607	5.3288
3.4423	5.3073
3.4241	5.2819
3.4061	5.2568
3.3883	5.1953
3.3707	5.1631
3.3533	5.1171
3.336	5.0996
3.3189	5.0645
3.302	5.0174
3.2853	4.9833
3.2687	4.9428
3.2523	4.9047
3.2361	4.8597
3.22	4.8254
3.204	4.765
3.1883	4.7323
3.1727	4.6766
3.1572	4.629
3.1419	4.602
3.1268	4.5575
3.1117	4.5116
3.0969	4.4919
3.0821	4.4585
3.0675	4.4474
3.0531	4.4211
3.0388	4.4169
3.0246	4.37
3.0105	4.3522
2.9966	4.3193
2.9828	4.2847
2.9692	4.253
2.9556	4.2006
2.9422	4.1725
2.9289	4.1701
2.9157	4.1625
2.9027	4.1826
2.8897	4.212
2.8769	4.2291
2.8642	4.2461
2.8516	4.2156
2.8391	4.2127
2.8267	4.1789
2.8144	4.1047
2.8022	3.974
2.7902	3.8395
2.7782	3.6607
2.7664	3.5219
2.7546	3.5378
2.7429	3.7315
2.7314	3.9757
2.7199	4.2831
2.7085	4.5087
2.6973	4.531
2.6861	5.0428
2.675	5.3234
2.664	5.366
2.6531	5.4321
2.6423	5.4612
2.6315	5.4693
2.6209	5.4416
2.6103	5.4546
2.5999	5.4799
2.5895	5.4828
2.5792	5.4922
2.569	5.4768
2.5588	5.5119
2.5487	5.4873
2.5388	5.5133
2.5289	5.5199
2.519	5.5221
2.5093	5.5249
2.4996	5.5465
2.49	5.5176
2.4805	5.5296
2.471	5.5349
2.4616	5.5365
2.4523	5.5323
2.4431	5.5472
2.4339	5.5536
2.4248	5.564
2.4157	5.5735
2.4068	5.563
2.3979	5.5718
2.389	5.5699
2.3802	5.5661
2.3715	5.5727
2.3629	5.5732
2.3543	5.5744
2.3458	5.5744
2.3373	5.5817
2.3289	5.5619
2.3206	5.6005
2.3123	5.6021
2.3041	5.6296
2.2959	5.6362
2.2878	5.6632
2.2798	5.6338
2.2718	5.6301
2.2638	5.6476
2.2559	5.6706
2.2481	5.6516
2.2403	5.6464
2.2326	5.6398
2.225	5.6729
2.2173	5.6784
2.2098	5.6402
2.2023	5.6547
2.1948	5.667
2.1874	5.7009
2.18	5.6966
2.1727	5.7234
2.1655	5.7231
2.1583	5.7366
2.1511	5.7681
2.144	5.7506
2.1369	5.7631
2.1299	5.7856
2.1229	5.7968
2.116	5.7508
2.1091	5.7757
2.1023	5.7603
2.0955	5.7745
2.0887	5.815
2.082	5.8117
2.06	5.7254
2.028	5.7064
1.996	5.7254
1.964	5.7279
1.932	5.8768
1.9	5.7546
1.868	6.0323
1.836	6.0722
1.804	6.1062
1.772	6.0987
1.74	6.3504
1.708	6.3286
1.676	6.3139
1.644	6.3849
1.612	6.4439
1.58	6.49
1.548	6.5031
1.516	6.7414
1.484	6.8431
1.452	6.7597
1.42	6.878
1.388	7.0573
1.356	7.2294
1.324	7.3431
1.292	7.4553
1.26	7.6756
1.228	7.7745
1.196	7.9882
1.164	8.0416
1.132	8.2523
1.1	8.429
1.068	8.6266
1.036	8.837
1.004	9.2031
0.972	9.3875
0.94	9.5053
0.908	9.5497
0.876	9.5971
0.844	9.9729
0.812	10.0684
0.795	9.7976
0.787	10.1589
0.779	10.017
0.771	10.1048
0.763	10.0535
0.755	9.994
0.747	9.9837
0.739	10.0206
0.731	10.1498
0.723	10.2718
0.715	10.0481
0.707	9.8032
0.699	10.0722
0.691	10.1816
0.683	10.1322
0.675	9.8355
0.667	10.3486
0.659	10.1389
0.651	10.2533
0.643	10.386
0.635	10.3531
0.627	10.5058
0.619	10.7019
0.611	10.3516
0.603	10.6845
0.595	10.687
0.587	10.7018
0.579	10.9102
0.571	10.924
0.563	11.0673
0.555	11.0272
0.547	11.0235
0.539	11.2918
0.531	11.0341
0.523	11.3638
0.515	11.3702
0.507	11.1277
0.499	11.1815
0.491	11.4439
0.483	11.2755
0.475	11.6803
0.467	11.5142
0.459	11.4525
0.451	11.7906
0.443	11.4333
0.435	11.6157
0.427	11.324
0.419	11.3954
0.411	11.4373
0.403	11.3578
