Name: Chlorite Schist
Type: rock
Class: Metamorphic
Subclass: Schist
Particle Size: Fine
Sample No.: schist7
Owner: JHU
Wavelength Range: All
Origin: Sample No. 395, The Hunt and Salisbury Collection at the U.S.Geological Survey, Denver, Co.
Description: This is a coarse-grained greenish schistose rock containing red garnet porphyroblasts.  Microscopically there are granulated grains of actinolite and tremolite with somewhat lesser amounts of chlorite.  This latter mineral is apparently secondary to the amphiboles and their granulation.  It often occurs as an alteration around the garnet crystals in addition to its association with the amphiboles.  Particle size was 0-75 Micrometer. Original ASTER Spectral Library name was jhu.becknic.rock.metamorphic.schist.fine.schist7.spectrum.txt
Measurement: Directional (10 Degree) Hemispherical Reflectance
X Units: Wavelength (micrometers)
Y Units: Reflectance (percent)
wavelength	value
14.983	1.4157
14.645	1.6257
14.321	1.9457
14.011	2.0281
13.715	2.2178
13.43	2.7402
13.158	3.1703
12.896	3.3969
12.644	3.4618
12.402	3.4817
12.169	3.5158
11.945	3.5951
11.729	3.6792
11.52	3.6789
11.319	3.7426
11.125	3.7121
10.937	3.6834
10.755	3.9937
10.58	4.5305
10.41	4.7432
10.245	4.5014
10.086	4.5443
9.9313	4.4865
9.7814	4.4801
9.636	4.6004
9.4948	4.8566
9.3577	4.62
9.2245	4.1452
9.095	4.3749
8.9691	4.4858
8.8467	3.9714
8.7275	3.3024
8.6116	2.918
8.4986	2.246
8.3886	1.872
8.2814	2.0447
8.1769	2.6178
8.075	3.4083
7.9756	4.3735
7.8786	5.4231
7.784	6.5212
7.6916	7.5895
7.6014	8.573
7.5133	9.5666
7.4272	10.489
7.343	11.45
7.2607	12.343
7.1803	13.109
7.1016	13.85
7.0246	14.599
6.9493	15.418
6.8755	16.197
6.8034	16.978
6.7327	17.628
6.6634	17.811
6.5956	17.48
6.5292	16.931
6.464	16.225
6.4002	15.53
6.3376	15.239
6.2762	15.417
6.216	15.564
6.157	15.527
6.099	15.483
6.0421	15.614
5.9863	15.935
5.9315	16.024
5.8777	16.297
5.8249	16.809
5.773	17.204
5.722	17.82
5.6719	18.43
5.6227	19.031
5.5744	19.825
5.5268	20.945
5.4801	21.99
5.4341	22.869
5.3889	23.12
5.3445	22.879
5.3008	22.86
5.2578	22.897
5.2154	23.103
5.1738	23.787
5.1328	24.739
5.0925	25.462
5.0528	25.881
5.0137	26.156
4.9752	26.254
4.9373	26.234
4.9	27.164
4.8632	28.362
4.827	30.244
4.7913	31.956
4.7561	34.097
4.7215	36.637
4.6873	38.56
4.6536	40.013
4.6205	41.236
4.5877	43.266
4.5555	45.718
4.5237	47.842
4.4923	49.645
4.4614	51.129
4.4309	52.336
4.4008	53.211
4.3711	53.908
4.3418	54.512
4.3129	55.019
4.2844	55.454
4.2563	55.89
4.2285	56.29
4.2011	56.688
4.174	57.054
4.1473	57.415
4.1209	57.698
4.0949	57.953
4.0692	58.109
4.0438	58.2
4.0187	58.115
3.994	58.188
3.9695	58.32
3.9453	58.423
3.9214	58.401
3.8979	58.351
3.8746	58.202
3.8515	57.984
3.8288	57.769
3.8063	57.516
3.7841	57.236
3.7621	56.876
3.7404	56.481
3.7189	56.032
3.6977	55.618
3.6767	55.231
3.656	54.717
3.6355	54.13
3.6152	53.475
3.5951	52.805
3.5753	51.877
3.5557	51.056
3.5363	50.302
3.5171	49.348
3.4981	48.414
3.4793	47.971
3.4607	47.247
3.4423	46.398
3.4241	45.625
3.4061	44.759
3.3883	43.946
3.3707	42.964
3.3533	42.11
3.336	41.139
3.3189	39.984
3.302	38.699
3.2853	37.386
3.2687	36.147
3.2523	34.877
3.2361	33.513
3.22	31.883
3.204	30.21
3.1883	28.585
3.1727	26.972
3.1572	25.34
3.1419	23.669
3.1268	22.003
3.1117	20.381
3.0969	18.869
3.0821	17.519
3.0675	16.351
3.0531	15.317
3.0388	14.373
3.0246	13.328
3.0105	12.173
2.9966	11.2
2.9828	10.597
2.9692	10.172
2.9556	9.9638
2.9422	10.007
2.9289	10.104
2.9157	10.334
2.9027	10.784
2.8897	11.247
2.8769	11.396
2.8642	11.443
2.8516	11.519
2.8391	11.246
2.8267	10.807
2.8144	10.463
2.8022	10.463
2.7902	11.513
2.7782	13.944
2.7664	16.365
2.7546	17.282
2.7429	18.495
2.7314	21.324
2.7199	26.424
2.7085	38.815
2.6973	48.633
2.6861	54.077
2.675	56.519
2.664	57.838
2.6531	58.946
2.6423	59.417
2.6315	59.452
2.6209	59.587
2.6103	59.667
2.5999	59.655
2.5895	59.693
2.5792	60.019
2.569	60.289
2.5588	60.617
2.5487	60.792
2.5388	60.994
2.5289	61.117
2.519	61.203
2.5093	61.287
2.4996	61.333
2.49	61.415
2.4805	61.722
2.471	62.224
2.4616	62.776
2.4523	63.351
2.4431	63.814
2.4339	64.101
2.4248	64.072
2.4157	63.678
2.4068	62.893
2.3979	62.132
2.389	61.709
2.3802	61.052
2.3715	59.442
2.3629	56.768
2.3543	54.357
2.3458	53.465
2.3373	53.825
2.3289	54.975
2.3206	56.239
2.3123	57.567
2.3041	58.85
2.2959	60.332
2.2878	61.688
2.2798	62.163
2.2718	61.844
2.2638	60.897
2.2559	60.154
2.2481	60.845
2.2403	63.12
2.2326	64.5
2.225	65.286
2.2173	66.47
2.2098	67.5
2.2023	68.175
2.1948	68.593
2.1874	69.09
2.18	69.4
2.1727	69.622
2.1655	69.719
2.1583	69.727
2.1511	69.775
2.144	69.764
2.1369	69.591
2.1299	69.469
2.1229	69.478
2.116	69.44
2.1091	69.538
2.1023	69.609
2.0955	69.611
2.0887	69.742
2.082	69.54
2.06	69.36
2.028	67.714
1.996	65.928
1.964	64.946
1.932	64.399
1.9	64.364
1.868	63.942
1.836	63.93
1.804	62.568
1.772	61.391
1.74	60.047
1.708	59.436
1.676	58.261
1.644	56.787
1.612	55.472
1.58	54.528
1.548	52.28
1.516	51.225
1.484	49.535
1.452	48.497
1.42	47.214
1.388	44.149
1.356	44.269
1.324	42.397
1.292	40.431
1.26	38.98
1.228	37.357
1.196	35.725
1.164	33.965
1.132	33.18
1.1	32.613
1.068	31.935
1.036	32.039
1.004	31.634
0.972	30.939
0.94	30.199
0.908	29.963
0.876	29.513
0.844	29.114
0.812	28.75
0.795	28.896
0.787	28.756
0.779	29.034
0.771	28.337
0.763	28.438
0.755	28.091
0.747	28.299
0.739	27.994
0.731	28.173
0.723	28.065
0.715	28.299
0.707	28.537
0.699	28.509
0.691	28.807
0.683	29.008
0.675	29.276
0.667	29.701
0.659	30.045
0.651	30.162
0.643	31.007
0.635	30.685
0.627	31.136
0.619	31.688
0.611	32.067
0.603	32.169
0.595	32.64
0.587	33.139
0.579	33.656
0.571	33.796
0.563	34.128
0.555	34.466
0.547	34.626
0.539	35.078
0.531	34.475
0.523	34.361
0.515	34.29
0.507	34.089
0.499	32.829
0.491	32.535
0.483	31.466
0.475	30.751
0.467	29.505
0.459	28.775
0.451	28.018
0.443	27.204
0.435	26.449
0.427	25.356
0.419	24.435
0.411	23.116
0.403	22.18
