Name: Spotted Hornfels
Type: rock
Class: Metamorphic
Subclass: Hornfel
Particle Size: Coarse
Sample No.: hornfe3
Owner: JHU
Wavelength Range: All
Origin: Sample No. 472, The Hunt and Salisbury Collection at the U.S.Geological Survey, Denver, Co.
Description: This rock consists of a fine-grained to microcrystalline groundmass with a pleochroic brown phase (biotite?), opaques, cordierite and possibly some feldpsar.  Large porphyroblasts of cordierite with heavy concentrations of tiny sillimanite needles are rimmed with cordierite and opaque granules.Particle size was 500-1500 Micrometer. Original ASTER Spectral Library name was jhu.becknic.rock.metamorphic.hornfels.coarse.hornfe3.spectrum.txt
Measurement: Directional (10 Degree) Hemispherical Reflectance
X Units: Wavelength (micrometers)
Y Units: Reflectance (percent)
wavelength	value
14.9831	1.6804
14.6445	1.9618
14.3209	2.0937
14.0112	2.1808
13.7147	2.2566
13.4304	2.4357
13.1577	2.6909
12.8959	2.8977
12.6443	2.3168
12.4023	2.0868
12.1694	2.1825
11.945	2.5081
11.7289	2.8667
11.5203	3.1672
11.3191	3.5442
11.1248	4.086
10.937	4.3356
10.7555	4.3648
10.5799	5.4406
10.4099	6.4007
10.2454	6.5686
10.0859	6.7625
9.9313	6.9437
9.7814	7.3657
9.636	7.7526
9.4948	7.9667
9.3577	8.2248
9.2245	8.3167
9.095	7.7363
8.9691	7.2665
8.8467	7.3096
8.7275	7.6567
8.6116	7.2596
8.4986	8.5138
8.3886	8.5242
8.2814	7.9755
8.1769	6.9529
8.075	4.284
7.9756	2.7928
7.8786	1.9935
7.784	1.6679
7.6916	1.5346
7.6014	1.4072
7.5133	1.3285
7.4272	1.2909
7.343	1.3077
7.2607	1.3271
7.1803	1.3946
7.1016	1.4372
7.0246	1.4675
6.9493	1.4983
6.8755	1.4889
6.8034	1.4806
6.7327	1.514
6.6634	1.5519
6.5956	1.5604
6.5292	1.6021
6.464	1.6497
6.4002	1.6148
6.3376	1.5905
6.2762	1.5402
6.216	1.5469
6.157	1.5867
6.099	1.6274
6.0421	1.6875
5.9863	1.7531
5.9315	1.7958
5.8777	1.868
5.8249	1.9132
5.773	1.9552
5.722	1.9829
5.6719	1.9978
5.6227	1.9677
5.5744	2.0001
5.5268	2.0854
5.4801	2.1946
5.4341	2.2346
5.3889	2.1721
5.3445	2.1273
5.3008	2.2123
5.2578	2.3878
5.2154	2.6448
5.1738	2.8387
5.1328	3.022
5.0925	3.1513
5.0528	3.2242
5.0137	3.2979
4.9752	3.5177
4.9373	3.8286
4.9	4.2726
4.8632	4.7285
4.827	4.9743
4.7913	5.164
4.7561	5.3677
4.7215	5.5581
4.6873	5.5706
4.6536	5.8671
4.6205	6.2384
4.5877	6.6612
4.5555	7.135
4.5237	7.4888
4.4923	7.5258
4.4614	7.7209
4.4309	8.2833
4.4008	8.7887
4.3711	9.3253
4.3418	9.6079
4.3129	10.0159
4.2844	9.9638
4.2563	8.1642
4.2285	11.2452
4.2011	11.4818
4.174	11.73
4.1473	12.3158
4.1209	12.5669
4.0949	12.776
4.0692	12.8951
4.0438	13.0651
4.0187	13.1719
3.994	13.3178
3.9695	13.4485
3.9453	13.6067
3.9214	13.6778
3.8979	13.6896
3.8746	13.6524
3.8515	13.6098
3.8288	13.6022
3.8063	13.6323
3.7841	13.5901
3.7621	13.4893
3.7404	13.3571
3.7189	13.2612
3.6977	13.202
3.6767	13.1456
3.656	13.0995
3.6355	13.032
3.6152	12.959
3.5951	12.82
3.5753	12.6614
3.5557	12.5032
3.5363	12.295
3.5171	12.0883
3.4981	11.86
3.4793	11.6253
3.4607	11.4273
3.4423	11.1976
3.4241	10.9587
3.4061	10.6702
3.3883	10.431
3.3707	10.1296
3.3533	9.8454
3.336	9.5463
3.3189	9.26
3.302	8.9891
3.2853	8.6622
3.2687	8.3762
3.2523	8.1005
3.2361	7.8403
3.22	7.5798
3.204	7.3688
3.1883	7.1097
3.1727	6.8873
3.1572	6.6472
3.1419	6.4618
3.1268	6.2377
3.1117	6.0869
3.0969	5.9547
3.0821	5.8181
3.0675	5.7234
3.0531	5.6322
3.0388	5.5375
3.0246	5.42
3.0105	5.3165
2.9966	5.2078
2.9828	5.0851
2.9692	4.9888
2.9556	4.8919
2.9422	4.8081
2.9289	4.7546
2.9157	4.6863
2.9027	4.6241
2.8897	4.59
2.8769	4.5203
2.8642	4.4912
2.8516	4.3875
2.8391	4.2759
2.8267	4.1424
2.8144	3.9139
2.8022	3.6635
2.7902	3.3794
2.7782	3.1658
2.7664	3.0649
2.7546	2.9893
2.7429	3.0767
2.7314	3.1991
2.7199	3.6773
2.7085	4.216
2.6973	5.765
2.6861	9.3587
2.675	11.4624
2.664	12.4101
2.6531	12.9273
2.6423	13.2515
2.6315	13.4459
2.6209	13.6231
2.6103	13.8097
2.5999	14.0908
2.5895	14.3063
2.5792	14.4874
2.569	14.7029
2.5588	14.8817
2.5487	15.0759
2.5388	15.25
2.5289	15.375
2.519	15.4101
2.5093	15.3433
2.4996	15.3307
2.49	15.3338
2.4805	15.2803
2.471	15.2014
2.4616	15.0842
2.4523	14.9928
2.4431	14.9357
2.4339	15.007
2.4248	15.1593
2.4157	15.3047
2.4068	15.4439
2.3979	15.4986
2.389	15.4951
2.3802	15.5264
2.3715	15.5709
2.3629	15.484
2.3543	15.2772
2.3458	15.2723
2.3373	15.5351
2.3289	16.0478
2.3206	16.6238
2.3123	17.1635
2.3041	17.558
2.2959	17.8398
2.2878	17.9535
2.2798	18.0262
2.2718	17.8152
2.2638	17.4334
2.2559	16.9856
2.2481	17.0171
2.2403	17.3328
2.2326	17.4884
2.225	17.4699
2.2173	17.0178
2.2098	16.1731
2.2023	15.704
2.1948	15.9673
2.1874	16.9011
2.18	17.7645
2.1727	18.2644
2.1655	18.5481
2.1583	18.671
2.1511	18.7326
2.144	18.7703
2.1369	18.7745
2.1299	18.6919
2.1229	18.6343
2.116	18.6923
2.1091	18.6777
2.1023	18.6511
2.0955	18.681
2.0887	18.6923
2.082	18.703
2.06	18.6073
2.028	18.2196
1.996	17.8254
1.964	17.3321
1.932	16.5499
1.9	15.6617
1.868	16.7112
1.836	16.7673
1.804	16.314
1.772	16.0085
1.74	15.915
1.708	15.3282
1.676	14.9114
1.644	14.5039
1.612	14.0111
1.58	13.448
1.548	13.0936
1.516	12.592
1.484	12.1076
1.452	11.4843
1.42	10.7944
1.388	10.0487
1.356	10.0036
1.324	9.4526
1.292	9.2208
1.26	8.8335
1.228	8.6605
1.196	8.4692
1.164	8.4172
1.132	8.2155
1.1	8.2651
1.068	8.2272
1.036	8.3162
1.004	8.4952
0.972	8.4454
0.94	8.5156
0.908	8.4844
0.876	8.9292
0.844	9.018
0.812	9.3429
0.795	9.2656
0.787	9.2457
0.779	9.1957
0.771	9.1786
0.763	9.1942
0.755	9.0451
0.747	9.0665
0.739	9.0196
0.731	9.1307
0.723	9.1558
0.715	9.0561
0.707	9.1507
0.699	9.1686
0.691	9.0432
0.683	9.0914
0.675	9.1015
0.667	9.1742
0.659	9.2403
0.651	9.219
0.643	9.236
0.635	9.1574
0.627	9.1718
0.619	9.2445
0.611	9.3612
0.603	9.334
0.595	9.1535
0.587	9.2491
0.579	9.2165
0.571	9.1938
0.563	9.1706
0.555	8.9882
0.547	8.987
0.539	8.901
0.531	8.9017
0.523	8.7458
0.515	8.6682
0.507	8.7334
0.499	8.6223
0.491	8.5424
0.483	8.489
0.475	8.5186
0.467	8.5017
0.459	8.3113
0.451	8.2984
0.443	8.0821
0.435	8.1424
0.427	7.9512
0.419	7.8078
0.411	7.916
0.403	7.7797
