Name: Sillimanite-Garnet Gneiss
Type: Rock
Class: Metamorphic
Subclass: Gneis
Particle Size: Solid
Sample No.: Ward80
Owner: JPL
Wavelength Range: VSWIR
Origin: Ward's Collection of American Rocks.  Sample locality - near Hague, Warren County, New York.  Collected by - JPL.
Description: A banded rock.  A compact, granular rock with poor gneissicstructure.  It has a mottled color; dark red due to garnet and pale green apparently due to quartz and feldpsar.  Geologic age - Pre-Cambrian.Collected by:  Ward's Natural Science Original ASTER Spectral Library name was jpl.perkin.rock.metamorphic.gneiss.solid.ward80.spectrum.txt
Measurement: Hemispherical reflectance
X Units: Wavelength (micrometers)
Y Units: Reflectance (percent)
wavelength	value
2.5	8.0131
2.494	7.831
2.488	7.8296
2.482	7.8297
2.476	7.8725
2.47	7.7991
2.464	7.965
2.458	7.9033
2.452	7.887
2.446	7.7915
2.44	7.7725
2.434	7.8526
2.428	7.8941
2.422	7.8918
2.416	7.9101
2.41	7.9824
2.404	7.9646
2.398	7.9768
2.392	8.0007
2.386	8.0051
2.38	8.0349
2.374	8
2.368	8.0128
2.362	7.9893
2.356	8.0095
2.35	8.0527
2.344	8.0247
2.338	8.0639
2.332	8.089
2.326	8.1172
2.32	8.1689
2.314	8.241
2.308	8.2203
2.302	8.3082
2.296	8.2997
2.29	8.3587
2.284	8.3959
2.278	8.3794
2.272	8.294
2.266	8.3485
2.26	8.2814
2.254	8.3581
2.248	8.3884
2.242	8.3837
2.236	8.4936
2.23	8.3783
2.224	8.4556
2.218	8.3711
2.212	8.4569
2.206	8.2543
2.2	8.1967
2.194	8.1671
2.188	8.2588
2.182	8.4133
2.176	8.5237
2.17	8.604
2.164	8.6388
2.158	8.5981
2.152	8.7071
2.146	8.7774
2.14	8.7655
2.134	8.7591
2.128	8.8008
2.122	8.7109
2.116	8.6395
2.11	8.604
2.104	8.6166
2.098	8.5717
2.092	8.5822
2.086	8.5642
2.08	8.5869
2.074	8.5701
2.068	8.5581
2.062	8.5134
2.056	8.5612
2.05	8.5734
2.044	8.5968
2.038	8.5504
2.032	8.6077
2.026	8.5827
2.02	8.566
2.014	8.5501
2.008	8.5512
2.002	8.5982
1.996	8.5246
1.99	8.464
1.984	8.5583
1.978	8.5067
1.972	8.5319
1.966	8.6129
1.96	8.5786
1.954	8.5707
1.948	8.5954
1.942	8.6475
1.936	8.6729
1.93	8.6912
1.924	8.696
1.918	8.7197
1.912	8.7353
1.906	8.6358
1.9	8.6552
1.894	8.612
1.888	8.6542
1.882	8.5968
1.876	8.5858
1.87	8.6658
1.864	8.6115
1.858	8.5422
1.852	8.6234
1.846	8.5495
1.84	8.5998
1.834	8.5186
1.828	8.4612
1.822	8.5246
1.816	8.438
1.81	8.4704
1.804	8.4178
1.798	8.4825
1.792	8.4609
1.786	8.4234
1.78	8.4315
1.774	8.4189
1.768	8.4282
1.762	8.4146
1.756	8.4646
1.75	8.4183
1.744	8.4623
1.738	8.4904
1.732	8.4537
1.726	8.5203
1.72	8.4991
1.714	8.5118
1.708	8.5176
1.702	8.5019
1.696	8.4975
1.69	8.4967
1.684	8.4912
1.678	8.5153
1.672	8.4643
1.666	8.5177
1.66	8.5037
1.654	8.4789
1.648	8.5307
1.642	8.545
1.636	8.5911
1.63	8.4846
1.624	8.524
1.618	8.4689
1.612	8.5455
1.606	8.5634
1.6	8.5478
1.594	8.5635
1.588	8.5776
1.582	8.6054
1.576	8.5981
1.57	8.6295
1.564	8.6499
1.558	8.6609
1.552	8.6474
1.546	8.6575
1.54	8.6608
1.534	8.6922
1.528	8.7024
1.522	8.6997
1.516	8.691
1.51	8.6868
1.504	8.6642
1.498	8.715
1.492	8.7005
1.486	8.6371
1.48	8.6269
1.474	8.6236
1.468	8.5615
1.462	8.6078
1.456	8.569
1.45	8.5252
1.444	8.5478
1.438	8.495
1.432	8.4331
1.426	8.4498
1.42	8.3888
1.414	8.2107
1.408	8.3143
1.402	8.3198
1.396	8.2946
1.39	8.3165
1.384	8.3694
1.378	8.3611
1.372	8.3012
1.366	8.3431
1.36	8.2964
1.354	8.3376
1.348	8.2498
1.342	8.2856
1.336	8.378
1.33	8.2552
1.324	8.2363
1.318	8.2761
1.312	8.2573
1.306	8.3372
1.3	8.3376
1.294	8.3457
1.288	8.3102
1.282	8.3707
1.276	8.4221
1.27	8.4179
1.264	8.4432
1.258	8.4035
1.252	8.4771
1.246	8.5119
1.24	8.5286
1.234	8.5607
1.228	8.5708
1.222	8.5841
1.216	8.6373
1.21	8.7125
1.204	8.7596
1.198	8.7174
1.192	8.8208
1.186	8.9254
1.18	8.9338
1.174	9.0146
1.168	9.0809
1.162	9.15
1.156	9.1945
1.15	9.3248
1.144	9.3352
1.138	9.4261
1.132	9.5263
1.126	9.5601
1.12	9.6479
1.114	9.8266
1.108	9.8293
1.102	9.9594
1.096	10.0243
1.09	10.1505
1.084	10.2487
1.078	10.3712
1.072	10.5008
1.066	10.6175
1.06	10.6686
1.054	10.7219
1.048	10.9156
1.042	10.967
1.036	11.0755
1.03	11.1053
1.024	11.1337
1.018	11.2613
1.012	11.3675
1.006	11.3717
1	11.4717
0.994	11.4158
0.988	11.56
0.982	11.5444
0.976	11.6156
0.97	11.6296
0.964	11.6254
0.958	11.704
0.952	11.6621
0.946	11.6253
0.94	11.6894
0.934	11.748
0.928	11.7213
0.922	11.6848
0.916	11.7406
0.91	11.6992
0.904	11.703
0.898	11.6788
0.892	11.6698
0.886	11.665
0.88	11.5766
0.874	11.5934
0.868	11.5963
0.862	11.5483
0.856	12.1521
0.85	12.184
0.844	12.1547
0.838	12.1772
0.832	12.1983
0.826	12.2224
0.82	12.2321
0.814	12.2545
0.808	12.2838
0.802	12.3095
0.796	12.3233
0.79	12.3488
0.784	12.3663
0.778	12.3867
0.772	12.3823
0.766	12.3911
0.76	12.3795
0.754	12.3713
0.748	12.3506
0.742	12.3248
0.736	12.2907
0.73	12.2657
0.724	12.2375
0.718	12.2076
0.712	12.1885
0.706	12.1621
0.7	12.1531
0.694	12.1516
0.688	12.1568
0.682	12.1763
0.676	12.1979
0.67	12.2151
0.664	12.2455
0.658	12.2591
0.652	12.2582
0.646	12.2459
0.64	12.2141
0.634	12.1596
0.628	12.0982
0.622	12.0438
0.616	12.0104
0.61	11.9988
0.604	11.986
0.598	11.9597
0.592	11.9025
0.586	11.8039
0.58	11.6967
0.574	11.6543
0.568	11.6837
0.562	11.7284
0.556	11.7784
0.55	11.774
0.544	11.7272
0.538	11.634
0.532	11.53
0.526	11.4517
0.52	11.4173
0.514	11.3837
0.508	11.2885
0.502	11.2561
0.496	11.3045
0.49	11.3722
0.484	11.4379
0.478	11.414
0.472	11.3927
0.466	11.3617
0.46	11.3114
0.454	11.2864
0.448	11.237
0.442	11.1375
0.436	10.9949
0.43	10.8499
0.424	10.732
0.418	10.645
0.412	10.532
0.406	10.4147
0.4	10.2844
