Name: Ecrinal Limestone
Type: Rock
Class: Sedimentary
Subclass: Limestone
Particle Size: Solid
Sample No.: Ward66
Owner: JPL
Wavelength Range: VSWIR
Origin: Ward's Collection of American Rocks.  Sample locality - Lockport, Niagara County, New York.
Description: A light-gray, granular limestone containing abundancrinoid fragments.  Many of the crinoids have a pinkish color.Geologic age - Silurian.Collected by:  Ward's Natural Science Original ASTER Spectral Library name was jpl.perkin.rock.sedimentary.limestone.solid.ward66.spectrum.txt
Measurement: Hemispherical reflectance
X Units: Wavelength (micrometers)
Y Units: Reflectance (percent)
wavelength	value
2.5	23.6559
2.494	24.0544
2.488	24.8348
2.482	25.5519
2.476	26.5765
2.47	27.4855
2.464	28.4487
2.458	29.5299
2.452	30.54
2.446	31.7651
2.44	33.0103
2.434	34.1726
2.428	35.3458
2.422	36.4452
2.416	37.3396
2.41	38.1387
2.404	38.6603
2.398	39.1936
2.392	39.4973
2.386	39.8747
2.38	39.9629
2.374	39.7133
2.368	39.0795
2.362	37.7147
2.356	35.801
2.35	33.7149
2.344	31.8646
2.338	30.5498
2.332	30.0541
2.326	30.0823
2.32	30.4851
2.314	31.1823
2.308	31.7822
2.302	32.4458
2.296	33.1414
2.29	33.8931
2.284	34.7856
2.278	35.6378
2.272	36.5709
2.266	37.4227
2.26	38.3263
2.254	39.4061
2.248	40.4061
2.242	41.1559
2.236	41.9422
2.23	42.4172
2.224	42.7601
2.218	43.1084
2.212	43.5156
2.206	43.9059
2.2	44.4808
2.194	44.9474
2.188	45.3403
2.182	45.6911
2.176	45.8599
2.17	45.994
2.164	46.0249
2.158	45.9303
2.152	45.934
2.146	46.0285
2.14	46.241
2.134	46.355
2.128	46.4417
2.122	46.5389
2.116	46.5396
2.11	46.4319
2.104	46.351
2.098	46.3282
2.092	46.3843
2.086	46.4542
2.08	46.4603
2.074	46.3712
2.068	46.3085
2.062	46.2824
2.056	46.201
2.05	46.0116
2.044	45.86
2.038	45.649
2.032	45.2841
2.026	44.8585
2.02	44.4816
2.014	43.8818
2.008	43.2827
2.002	42.5277
1.996	41.869
1.99	41.48
1.984	41.0678
1.978	40.7101
1.972	40.4178
1.966	40.1487
1.96	39.9982
1.954	39.8463
1.948	39.6855
1.942	39.701
1.936	39.6971
1.93	39.734
1.924	39.9743
1.918	40.4499
1.912	41.2125
1.906	42.126
1.9	43.6802
1.894	45.2031
1.888	46.4246
1.882	46.9387
1.876	47.3178
1.87	47.5196
1.864	47.9565
1.858	48.2849
1.852	48.6448
1.846	48.8754
1.84	49.0329
1.834	49.2363
1.828	49.3439
1.822	49.4448
1.816	49.5445
1.81	49.6324
1.804	49.7859
1.798	49.6801
1.792	49.7991
1.786	49.7994
1.78	49.82
1.774	49.7512
1.768	49.8025
1.762	49.7725
1.756	49.7409
1.75	49.7516
1.744	49.7484
1.738	49.7098
1.732	49.7607
1.726	49.7601
1.72	49.4503
1.714	49.8208
1.708	49.8513
1.702	49.7987
1.696	49.808
1.69	49.7888
1.684	49.8367
1.678	49.7966
1.672	49.7823
1.666	49.7128
1.66	49.6946
1.654	49.6399
1.648	49.6074
1.642	49.5606
1.636	49.4901
1.63	49.4136
1.624	49.3421
1.618	49.2875
1.612	49.2375
1.606	49.1894
1.6	49.185
1.594	49.0663
1.588	49.0094
1.582	48.8784
1.576	48.7919
1.57	48.6198
1.564	48.5639
1.558	48.4161
1.552	48.2999
1.546	48.2231
1.54	48.0451
1.534	47.9798
1.528	47.8054
1.522	47.6404
1.516	47.4879
1.51	47.2906
1.504	47.0367
1.498	46.9292
1.492	46.6114
1.486	46.3619
1.48	46.2221
1.474	45.988
1.468	45.7529
1.462	45.653
1.456	45.527
1.45	45.3325
1.444	45.2284
1.438	45.0894
1.432	44.9842
1.426	44.9567
1.42	44.7128
1.414	44.6564
1.408	44.9175
1.402	45.3247
1.396	45.5315
1.39	45.823
1.384	45.887
1.378	45.9606
1.372	45.8134
1.366	45.6637
1.36	45.5575
1.354	45.4351
1.348	45.3933
1.342	45.2905
1.336	45.1358
1.33	45.0904
1.324	44.9362
1.318	44.7934
1.312	44.6989
1.306	44.5603
1.3	44.4793
1.294	44.3773
1.288	44.236
1.282	44.0527
1.276	43.9784
1.27	43.8714
1.264	43.7053
1.258	43.526
1.252	43.4922
1.246	43.282
1.24	43.1891
1.234	43.0608
1.228	42.8761
1.222	42.7532
1.216	42.5759
1.21	42.3826
1.204	42.2619
1.198	42.1177
1.192	41.9757
1.186	41.8252
1.18	41.7816
1.174	41.4945
1.168	41.2784
1.162	41.0963
1.156	40.9647
1.15	40.8308
1.144	40.6237
1.138	40.4459
1.132	40.2464
1.126	40.1003
1.12	39.9293
1.114	39.8702
1.108	39.6158
1.102	39.4159
1.096	39.2635
1.09	39.172
1.084	38.9728
1.078	38.8212
1.072	38.6523
1.066	38.5048
1.06	38.4665
1.054	38.3036
1.048	38.2594
1.042	38.07
1.036	38.0121
1.03	37.8856
1.024	37.8325
1.018	37.6798
1.012	37.6225
1.006	37.5828
1	37.4479
0.994	37.4098
0.988	37.2938
0.982	37.2846
0.976	37.2175
0.97	37.0805
0.964	37.0734
0.958	36.9791
0.952	36.9998
0.946	36.8077
0.94	36.7469
0.934	36.7205
0.928	36.6806
0.922	36.5808
0.916	36.5048
0.91	36.4717
0.904	36.4548
0.898	36.3539
0.892	36.3047
0.886	36.2085
0.88	36.1191
0.874	36.013
0.868	35.9462
0.862	35.7995
0.856	35.8014
0.85	35.7647
0.844	35.7025
0.838	35.5609
0.832	35.5166
0.826	35.4276
0.82	35.3279
0.814	35.2008
0.808	35.0659
0.802	34.9308
0.796	34.7942
0.79	34.6215
0.784	34.4636
0.778	34.3081
0.772	34.1488
0.766	33.9831
0.76	33.8371
0.754	33.6611
0.748	33.4884
0.742	33.3497
0.736	33.1648
0.73	32.9956
0.724	32.8209
0.718	32.64
0.712	32.4649
0.706	32.2728
0.7	32.0781
0.694	31.8971
0.688	31.6972
0.682	31.5036
0.676	31.2989
0.67	31.0921
0.664	30.8835
0.658	30.6805
0.652	30.4719
0.646	30.2465
0.64	30.0245
0.634	29.804
0.628	29.5805
0.622	29.3653
0.616	29.1252
0.61	28.8974
0.604	28.657
0.598	28.4248
0.592	28.1834
0.586	27.9109
0.58	27.6373
0.574	27.3349
0.568	27.033
0.562	26.7203
0.556	26.3416
0.55	25.9781
0.544	25.5977
0.538	25.196
0.532	24.7792
0.526	24.3496
0.52	23.9119
0.514	23.4673
0.508	23.0082
0.502	22.5592
0.496	22.1133
0.49	21.6858
0.484	21.2869
0.478	21.0078
0.472	20.7159
0.466	20.4464
0.46	20.1845
0.454	19.898
0.448	19.5611
0.442	19.1493
0.436	18.6662
0.43	18.1718
0.424	17.685
0.418	17.233
0.412	16.834
0.406	16.4431
0.4	16.0639
