Name: Basalt
Type: Rock
Class: Igneous
Subclass: Mafic
Particle Size: Solid
Sample No.: Me28
Owner: Lawrence Rowan, USGS Reston
Wavelength Range: All
Origin: K. Ata, Middle East
Description: Basalt, cut surface, base fragment of basalt vesselSample was Whole rock chips. Original ASTER Spectral Library name was usgs.perknic.rock.igneous.mafic.solid.me28.spectrum.txt
Measurement: Directional Hemispherical Reflectance
X Units: Wavelength (micrometers)
Y Units: Reflectance (percent)
wavelength	value
14.051	3.1724
13.826	3.1724
13.609	3.2754
13.398	3.2651
13.193	3.3681
12.995	3.4505
12.802	3.4299
12.616	3.5741
12.434	3.914
12.258	4.3672
12.086	4.8204
11.92	5.2839
11.757	5.8607
11.6	6.5817
11.446	7.3542
11.297	8.1885
11.151	8.7859
11.009	9.167
10.87	9.3215
10.735	9.3112
10.604	8.858
10.475	8.6623
10.35	8.8477
10.227	8.549
10.108	8.3842
9.991	8.7241
9.877	8.7756
9.765	8.7859
9.656	8.549
9.549	8.3533
9.445	8.1679
9.343	7.828
9.243	7.4984
9.145	7.5087
9.049	7.5705
8.956	7.4263
8.864	7.0143
8.774	6.2418
8.686	6.0049
8.599	5.7371
8.515	5.6135
8.431	5.5105
8.35	4.9955
8.27	3.9861
8.192	2.7089
8.115	1.9776
8.039	1.7098
7.965	1.5759
7.893	1.545
7.821	1.4832
7.751	1.6068
7.682	1.6892
7.614	1.8231
7.548	1.8849
7.483	1.9982
7.418	2.06
7.355	2.0806
7.293	2.2969
7.232	2.3381
7.172	2.2351
7.113	2.4926
7.055	2.4823
6.998	2.5338
6.942	2.5441
6.886	2.6162
6.832	2.7089
6.778	2.7089
6.726	2.781
6.674	2.8016
6.623	2.8222
6.572	2.8943
6.523	2.9561
6.474	2.9046
6.426	2.9149
6.378	2.9561
6.332	2.9149
6.286	2.9149
6.24	2.9252
6.195	2.987
6.151	2.8634
6.108	2.8325
6.065	2.9561
6.023	2.9664
5.981	3.0076
5.94	3.1827
5.899	3.3166
5.859	3.4402
5.82	3.5329
5.781	3.5947
5.743	3.6668
5.705	3.7286
5.667	3.8625
5.63	3.9037
5.594	3.9037
5.558	3.9758
5.523	4.0788
5.487	4.1303
5.453	4.2539
5.419	4.3363
5.385	4.3466
5.352	4.4702
5.319	4.5011
5.286	4.5423
5.254	4.7174
5.222	4.7586
5.191	4.8307
5.16	4.9131
5.129	5.0161
5.099	5.15
5.069	5.1809
5.04	5.3354
5.01	5.3766
4.981	5.5208
4.953	5.5929
4.925	5.6959
4.897	5.8298
4.869	5.8195
4.842	6.077
4.815	6.077
4.788	6.18
4.762	6.283
4.736	6.3448
4.71	6.4684
4.684	6.5714
4.659	6.6332
4.634	6.8083
4.61	6.9216
4.585	7.1276
4.561	7.2924
4.537	7.3542
4.513	7.5087
4.49	7.6735
4.467	7.7353
4.444	7.9207
4.421	8.0649
4.398	8.1782
4.376	8.2915
4.354	8.3327
4.332	8.5284
4.311	8.7241
4.289	8.8786
4.268	9.0022
4.247	9.0434
4.226	9.3524
4.206	9.2494
4.185	9.3215
4.165	9.4039
4.145	9.4863
4.126	9.6099
4.106	9.6408
4.086	9.6923
4.067	9.7953
4.048	9.9395
4.029	9.9704
4.011	9.991
3.992	10.0219
3.974	10.0219
3.956	10.2073
3.938	10.2588
3.92	10.2485
3.902	10.2794
3.884	10.4545
3.867	10.2485
3.85	10.3824
3.833	10.403
3.816	10.4751
3.799	10.4442
3.782	10.4648
3.766	10.4236
3.75	10.3824
3.733	10.2897
3.717	10.3
3.702	10.3103
3.686	10.3
3.67	10.1558
3.655	10.094
3.639	10.0734
3.624	10.0322
3.609	9.9292
3.594	9.7747
3.579	9.7541
3.564	9.6923
3.549	9.5172
3.535	9.3112
3.521	9.2597
3.506	9.1361
3.492	9.1052
3.478	8.8374
3.464	8.7962
3.45	8.6623
3.437	8.7344
3.423	8.4666
3.409	8.3842
3.396	8.3636
3.383	8.1576
3.37	8.137
3.357	8.1576
3.344	7.8383
3.331	7.9413
3.318	7.9413
3.305	7.828
3.293	7.7147
3.28	7.725
3.268	7.519
3.255	7.5087
3.243	7.3542
3.231	7.3748
3.219	7.21
3.207	7.1997
3.195	7.004
3.183	6.9834
3.172	6.9319
3.16	6.798
3.149	6.8186
3.137	6.6641
3.126	6.7362
3.115	6.6126
3.103	6.489
3.092	6.695
3.081	6.3963
3.07	6.5302
3.06	6.7671
3.049	6.4684
3.038	6.5302
3.027	6.3242
3.017	6.4993
3.006	6.695
2.996	6.4684
2.986	6.4993
2.975	6.6538
2.965	6.2212
2.955	6.592
2.945	6.5508
2.935	6.3963
2.925	6.2418
2.915	6.695
2.905	6.4684
2.896	6.4581
2.886	6.8392
2.876	6.6023
2.867	6.6332
2.857	6.8392
2.848	6.9525
2.838	6.8392
2.829	6.9731
2.82	6.9937
2.811	6.8186
2.802	7.1482
2.793	6.9113
2.784	6.9937
2.775	7.3851
2.766	7.107
2.757	7.0246
2.748	7.6014
2.74	8.0958
2.731	8.2297
2.722	9.0846
2.714	9.3318
2.705	10.2691
2.697	11.1034
2.688	12.772
2.68	13.4621
2.672	13.7608
2.664	14.2861
2.655	14.7496
2.647	14.8938
2.639	14.7187
2.631	14.7702
2.623	14.7805
2.615	15.1616
2.607	15.1925
2.599	14.8217
2.592	15.1616
2.584	14.6363
2.576	15.2749
2.569	14.9556
2.561	15.038
2.553	15.3676
2.546	15.244
2.538	15.0895
2.531	15.5015
2.524	14.9865
2.516	15.1204
2.509	15.5427
2.502	15.3882
2.48	15.6559
2.456	15.9882
2.432	16.0512
2.408	16.5919
2.384	16.8849
2.36	16.7717
2.336	17.1167
2.312	17.026
2.288	17.4568
2.264	17.3521
2.24	17.5558
2.216	17.6771
2.192	17.9994
2.168	18.362
2.144	18.6072
2.12	18.5319
2.096	18.5141
2.072	18.7562
2.048	18.8956
2.024	19.0149
2	19.0095
1.976	18.9224
1.952	18.8263
1.928	18.5992
1.904	18.4934
1.88	19.6426
1.856	19.9959
1.832	20.1556
1.808	20.2539
1.784	20.4281
1.76	20.4889
1.736	20.5014
1.712	20.5972
1.688	20.6665
1.664	20.6427
1.64	20.62
1.616	20.5938
1.592	20.5018
1.568	20.4198
1.544	20.2726
1.52	20.1444
1.496	20.01
1.472	19.8252
1.448	19.6765
1.424	19.421
1.4	19.4197
1.376	19.3887
1.352	19.2864
1.328	19.2917
1.304	19.2103
1.28	19.2045
1.256	19.1781
1.232	19.1823
1.208	19.1956
1.184	19.1396
1.16	19.1271
1.136	19.1067
1.112	18.9987
1.088	18.8706
1.064	18.8518
1.04	18.932
1.016	19.0775
0.992	19.2942
0.968	19.5201
0.944	19.8549
0.92	20.3299
0.896	20.768
0.872	21.062
0.848	21.5512
0.824	21.7536
0.8	21.8686
0.776	22.033
0.752	22.0984
0.728	22.0455
0.704	21.9147
0.68	21.6999
0.656	21.5055
0.632	21.3223
0.608	21.0913
0.584	20.5318
0.56	19.7186
0.536	19.0464
0.512	18.546
0.488	18.1168
0.464	17.9158
0.44	17.4353
0.416	16.9498
