Name: Phosphorite
Type: Rock
Class: Sedimentary
Subclass: Shale
Particle Size: Solid
Sample No.: Phop008
Owner: USGS
Wavelength Range: All
Origin: Southeastern Idaho
Description: Phosphate ore from upper part of Meade PeakMember, Phosphoria Formation, altered (slightchemical weathering),  contains quartz, hydroxylapatite,feldspar, and muscovite. Sample was Whole rock chips. Original ASTER Spectral Library name was usgs.perknic.rock.sedimentary.shale.solid.phop008.spectrum.txt
Measurement: Directional Hemispherical Reflectance
X Units: Wavelength (micrometers)
Y Units: Reflectance (percent)
wavelength	value
14.051	1.6171
13.826	1.957
13.609	1.957
13.398	2.163
13.193	2.2763
12.995	2.4102
12.802	2.6883
12.616	2.5853
12.434	2.7707
12.258	2.2969
12.086	2.6471
11.92	2.7913
11.757	2.8737
11.6	2.9767
11.446	3.1312
11.297	3.2651
11.151	3.4608
11.009	3.7286
10.87	3.5432
10.735	3.7595
10.604	3.914
10.475	4.2745
10.35	4.4908
10.227	4.9234
10.108	5.1706
9.991	5.8813
9.877	6.3654
9.765	7.0658
9.656	8.8271
9.549	9.8571
9.445	9.8571
9.343	10.094
9.243	8.9919
9.145	7.4366
9.049	7.3439
8.956	6.7259
8.864	5.8195
8.774	4.2745
8.686	3.4814
8.599	2.8016
8.515	3.0076
8.431	2.8737
8.35	2.8325
8.27	2.8531
8.192	3.0694
8.115	2.884
8.039	2.3793
7.965	1.9982
7.893	1.6892
7.821	1.3699
7.751	1.5656
7.682	1.5759
7.614	1.4832
7.548	1.6171
7.483	1.5141
7.418	1.6171
7.355	1.5862
7.293	1.6068
7.232	1.6686
7.172	1.6583
7.113	1.5965
7.055	1.5141
6.998	1.4214
6.942	1.4317
6.886	1.3802
6.832	1.4111
6.778	1.5965
6.726	1.7613
6.674	2.0085
6.623	1.9158
6.572	1.9776
6.523	2.1527
6.474	2.1012
6.426	2.0909
6.378	2.0085
6.332	1.9158
6.286	1.9364
6.24	1.8746
6.195	1.8025
6.151	1.854
6.108	1.7613
6.065	1.7407
6.023	1.7098
5.981	1.9055
5.94	1.9879
5.899	2.1527
5.859	2.472
5.82	2.7192
5.781	2.9664
5.743	3.2754
5.705	3.5741
5.667	3.5329
5.63	3.6771
5.594	3.6668
5.558	3.8316
5.523	4.0994
5.487	4.326
5.453	4.5732
5.419	4.5217
5.385	4.2848
5.352	4.1612
5.319	4.2024
5.286	4.4187
5.254	4.5217
5.222	4.8101
5.191	4.8719
5.16	4.9337
5.129	5.047
5.099	4.9543
5.069	4.7174
5.04	4.2848
5.01	3.6668
4.981	3.7389
4.953	3.9655
4.925	4.2745
4.897	4.4393
4.869	4.4084
4.842	4.4908
4.815	4.3363
4.788	4.2539
4.762	4.532
4.736	4.7792
4.71	4.8513
4.684	4.8204
4.659	4.7895
4.634	4.9028
4.61	5.1397
4.585	5.3869
4.561	5.665
4.537	5.871
4.513	6.1079
4.49	6.2521
4.467	6.4066
4.444	6.5508
4.421	6.4787
4.398	6.6435
4.376	6.6641
4.354	6.5405
4.332	6.8289
4.311	6.7362
4.289	6.5508
4.268	6.3345
4.247	6.6229
4.226	6.7465
4.206	6.6744
4.185	6.7568
4.165	6.7053
4.145	6.8186
4.126	6.7362
4.106	6.7465
4.086	6.5508
4.067	6.7156
4.048	6.5508
4.029	6.489
4.011	6.1491
3.992	6.4581
3.974	6.2521
3.956	6.4787
3.938	6.6126
3.92	6.6538
3.902	6.8495
3.884	6.6847
3.867	6.6126
3.85	6.6435
3.833	6.6435
3.816	6.3654
3.799	6.3963
3.782	6.3448
3.766	6.2418
3.75	6.1182
3.733	6.0255
3.717	5.8916
3.702	5.8092
3.686	5.7268
3.67	5.4487
3.655	5.5002
3.639	5.2839
3.624	5.1191
3.609	5.0676
3.594	4.944
3.579	4.8822
3.564	4.6659
3.549	4.5732
3.535	4.3569
3.521	4.4084
3.506	4.0479
3.492	4.3466
3.478	4.0273
3.464	3.9655
3.45	3.8522
3.437	3.8831
3.423	3.6977
3.409	3.5741
3.396	3.6668
3.383	3.605
3.37	3.5535
3.357	3.3887
3.344	3.4608
3.331	3.2342
3.318	3.2754
3.305	3.0694
3.293	3.1621
3.28	3.0179
3.268	2.9355
3.255	2.9046
3.243	2.9973
3.231	2.987
3.219	3.0282
3.207	2.8428
3.195	2.7501
3.183	2.5338
3.172	2.7398
3.16	2.6162
3.149	2.6574
3.137	2.6162
3.126	2.5544
3.115	2.7604
3.103	2.5235
3.092	2.4823
3.081	2.6059
3.07	2.4823
3.06	2.5132
3.049	2.3278
3.038	2.4205
3.027	2.4205
3.017	2.2557
3.006	2.472
2.996	2.4102
2.986	2.5441
2.975	2.5647
2.965	2.4617
2.955	2.6574
2.945	2.3278
2.935	2.3896
2.925	2.369
2.915	2.5853
2.905	2.5338
2.896	2.6265
2.886	2.5544
2.876	2.7089
2.867	2.5441
2.857	2.5235
2.848	2.8943
2.838	2.6574
2.829	2.5956
2.82	2.9355
2.811	3.0076
2.802	3.1106
2.793	3.1621
2.784	3.3063
2.775	3.193
2.766	3.8007
2.757	3.6977
2.748	3.9758
2.74	4.9131
2.731	4.635
2.722	5.9534
2.714	6.386
2.705	6.6538
2.697	8.8683
2.688	11.3403
2.68	13.6887
2.672	14.8629
2.664	15.9341
2.655	17.0465
2.647	17.1804
2.639	18.0353
2.631	18.6636
2.623	18.8387
2.615	19.1889
2.607	19.1271
2.599	19.6833
2.592	19.7245
2.584	20.3013
2.576	19.982
2.569	19.9202
2.561	20.9193
2.553	20.497
2.546	20.7751
2.538	20.5897
2.531	21.3519
2.524	21.2489
2.516	20.8575
2.509	21.7021
2.502	22.0832
2.48	22.6531
2.456	24.2598
2.432	25.6379
2.408	26.983
2.384	28.2125
2.36	29.4619
2.336	30.776
2.312	32.1905
2.288	33.3892
2.264	33.912
2.24	33.9094
2.216	33.3487
2.192	33.0453
2.168	32.6046
2.144	31.7458
2.12	32.3007
2.096	32.0242
2.072	31.6709
2.048	30.746
2.024	29.6817
2	28.5807
1.976	27.2626
1.952	26.0473
1.928	26.4047
1.904	30.1804
1.88	37.1658
1.856	40.5441
1.832	41.0781
1.808	41.1558
1.784	41.4071
1.76	41.5973
1.736	42.0612
1.712	42.4087
1.688	42.7022
1.664	42.8588
1.64	42.9546
1.616	42.9271
1.592	42.6547
1.568	42.2439
1.544	41.6751
1.52	40.8198
1.496	39.7416
1.472	38.584
1.448	38.3235
1.424	39.0944
1.4	40.9884
1.376	43.0966
1.352	43.288
1.328	43.2009
1.304	43.0032
1.28	42.7391
1.256	42.253
1.232	41.7699
1.208	41.2101
1.184	40.6541
1.16	40.1225
1.136	39.6135
1.112	38.8222
1.088	38.0262
1.064	37.1766
1.04	36.2034
1.016	35.1275
0.992	34.1348
0.968	33.4121
0.944	32.9524
0.92	33.1431
0.896	33.0141
0.872	32.662
0.848	30.5653
0.824	30.2345
0.8	29.7386
0.776	29.1983
0.752	28.6111
0.728	27.949
0.704	27.1067
0.68	26.2404
0.656	25.3631
0.632	24.4925
0.608	23.6999
0.584	22.9885
0.56	22.1153
0.536	20.9996
0.512	19.4133
0.488	17.5417
0.464	16.8884
0.44	16.624
0.416	15.4441
