Name: Quartz Monzonite Porphyry
Type: Rock
Class: Igneous
Subclass: Intermediate
Particle Size: Solid
Sample No.: Ward25
Owner: JPL
Wavelength Range: VSWIR
Origin: Ward's Collection of American Rocks.  Sample locality - Garfield, Chaffee County, Colorado.
Description: A gray pseudo-porphyritic rock.  Phenocrysts of pink feldsparmay be an inch long.  Smaller phenocrysts of white feldspar, quartz,hornblende and mica are in a granular groundmass.Geologic age - Tertiary.Collected by:  Ward's Natural Science Original ASTER Spectral Library name was jpl.perkin.rock.igneous.intermediate.solid.ward25.spectrum.txt
Measurement: Hemispherical reflectance
X Units: Wavelength (micrometers)
Y Units: Reflectance (percent)
wavelength	value
2.5	16.725
2.494	16.5645
2.488	16.7182
2.482	16.6495
2.476	16.8993
2.47	17.0462
2.464	17.085
2.458	17.2182
2.452	17.3712
2.446	17.4706
2.44	17.6851
2.434	17.9388
2.428	17.9507
2.422	18.1054
2.416	18.1286
2.41	18.3251
2.404	18.3913
2.398	18.4524
2.392	18.6079
2.386	18.6222
2.38	18.684
2.374	18.7048
2.368	18.6377
2.362	18.6304
2.356	18.5467
2.35	18.4592
2.344	18.4128
2.338	18.5028
2.332	18.6297
2.326	18.8934
2.32	19.0689
2.314	19.2776
2.308	19.4495
2.302	19.6626
2.296	19.9311
2.29	20.0876
2.284	20.2822
2.278	20.4582
2.272	20.4085
2.266	20.3905
2.26	20.4064
2.254	20.2863
2.248	20.3715
2.242	20.4381
2.236	20.6393
2.23	20.7463
2.224	20.6702
2.218	20.4776
2.212	20.3807
2.206	20.2602
2.2	20.4696
2.194	20.7307
2.188	21.1644
2.182	21.4505
2.176	21.7136
2.17	21.8265
2.164	22.002
2.158	22.1463
2.152	22.2945
2.146	22.4453
2.14	22.4588
2.134	22.5003
2.128	22.4813
2.122	22.379
2.116	22.3485
2.11	22.241
2.104	22.2275
2.098	22.2089
2.092	22.2653
2.086	22.2682
2.08	22.2704
2.074	22.3699
2.068	22.3797
2.062	22.3382
2.056	22.3183
2.05	22.2858
2.044	22.3178
2.038	22.2062
2.032	22.1358
2.026	22.0197
2.02	21.9881
2.014	21.872
2.008	21.766
2.002	21.6576
1.996	21.474
1.99	21.418
1.984	21.3212
1.978	21.2073
1.972	21.0172
1.966	20.9457
1.96	20.7803
1.954	20.7326
1.948	20.6955
1.942	20.6033
1.936	20.4828
1.93	20.2655
1.924	20.1415
1.918	19.9393
1.912	19.876
1.906	20.0658
1.9	20.8584
1.894	21.7252
1.888	22.4765
1.882	23.0333
1.876	23.1737
1.87	23.5336
1.864	23.7371
1.858	23.8601
1.852	23.9402
1.846	23.937
1.84	23.9942
1.834	24.1261
1.828	24.1362
1.822	24.1576
1.816	24.1883
1.81	24.2195
1.804	24.3118
1.798	24.3207
1.792	24.3448
1.786	24.2766
1.78	24.3216
1.774	24.3216
1.768	24.3451
1.762	24.2898
1.756	24.4048
1.75	24.3358
1.744	24.3553
1.738	24.4264
1.732	24.3895
1.726	24.4978
1.72	24.4478
1.714	24.4613
1.708	24.4362
1.702	24.4204
1.696	24.4894
1.69	24.4295
1.684	24.5717
1.678	24.4944
1.672	24.528
1.666	24.5538
1.66	24.5173
1.654	24.4837
1.648	24.4924
1.642	24.564
1.636	24.5463
1.63	24.4789
1.624	24.4211
1.618	24.509
1.612	24.365
1.606	24.3649
1.6	24.4027
1.594	24.3814
1.588	24.3529
1.582	24.2744
1.576	24.25
1.57	24.2546
1.564	24.2042
1.558	24.1401
1.552	24.1458
1.546	24.1485
1.54	24.0571
1.534	24.0704
1.528	24.0243
1.522	23.9664
1.516	23.9953
1.51	23.971
1.504	23.8766
1.498	23.9017
1.492	23.8072
1.486	23.7185
1.48	23.6241
1.474	23.5754
1.468	23.5048
1.462	23.4137
1.456	23.4708
1.45	23.3161
1.444	23.2523
1.438	23.111
1.432	23.0206
1.426	22.8724
1.42	22.4801
1.414	22.0432
1.408	22.2529
1.402	22.5689
1.396	22.9442
1.39	23.2716
1.384	23.4569
1.378	23.6223
1.372	23.6694
1.366	23.6777
1.36	23.6665
1.354	23.6898
1.348	23.6894
1.342	23.6699
1.336	23.6572
1.33	23.6254
1.324	23.6014
1.318	23.6007
1.312	23.6382
1.306	23.592
1.3	23.5793
1.294	23.4793
1.288	23.4675
1.282	23.4946
1.276	23.4739
1.27	23.4632
1.264	23.4455
1.258	23.3879
1.252	23.4
1.246	23.2969
1.24	23.3824
1.234	23.3806
1.228	23.3407
1.222	23.3413
1.216	23.3197
1.21	23.3226
1.204	23.3121
1.198	23.3383
1.192	23.2933
1.186	23.3628
1.18	23.2369
1.174	23.36
1.168	23.3479
1.162	23.3772
1.156	23.3358
1.15	23.3553
1.144	23.4512
1.138	23.4397
1.132	23.4711
1.126	23.4731
1.12	23.5029
1.114	23.6147
1.108	23.5855
1.102	23.6551
1.096	23.7263
1.09	23.7353
1.084	23.7614
1.078	23.825
1.072	23.9046
1.066	23.927
1.06	23.9857
1.054	24.0469
1.048	24.0346
1.042	24.0643
1.036	24.1833
1.03	24.2076
1.024	24.1849
1.018	24.3473
1.012	24.3301
1.006	24.3812
1	24.3351
0.994	24.3824
0.988	24.4
0.982	24.4151
0.976	24.4498
0.97	24.3586
0.964	24.3434
0.958	24.4201
0.952	24.3386
0.946	24.407
0.94	24.2765
0.934	24.1779
0.928	24.2382
0.922	24.1614
0.916	24.1397
0.91	24.1314
0.904	24.0357
0.898	24.0543
0.892	24.0107
0.886	24.0431
0.88	24.1316
0.874	24.2096
0.868	24.2804
0.862	24.4713
0.856	24.6272
0.85	24.7289
0.844	24.8043
0.838	24.8945
0.832	24.9369
0.826	24.9776
0.82	25.0458
0.814	25.0448
0.808	25.0381
0.802	25.0236
0.796	24.9866
0.79	24.9427
0.784	24.9079
0.778	24.8556
0.772	24.7481
0.766	24.6746
0.76	24.6257
0.754	24.5449
0.748	24.4557
0.742	24.3821
0.736	24.3216
0.73	24.237
0.724	24.1708
0.718	24.1127
0.712	24.0254
0.706	23.9592
0.7	23.895
0.694	23.8252
0.688	23.7641
0.682	23.6986
0.676	23.6282
0.67	23.5619
0.664	23.5023
0.658	23.433
0.652	23.3667
0.646	23.3012
0.64	23.2251
0.634	23.1554
0.628	23.0816
0.622	22.9972
0.616	22.9159
0.61	22.8237
0.604	22.7149
0.598	22.6151
0.592	22.4472
0.586	22.2896
0.58	22.1184
0.574	21.9329
0.568	21.7356
0.562	21.5281
0.556	21.2317
0.55	21.0006
0.544	20.7874
0.538	20.5726
0.532	20.3774
0.526	20.1803
0.52	19.9827
0.514	19.7641
0.508	19.528
0.502	19.252
0.496	18.9704
0.49	18.7008
0.484	18.3931
0.478	18.2634
0.472	18.1253
0.466	17.9929
0.46	17.8597
0.454	17.6631
0.448	17.4527
0.442	17.2092
0.436	16.9729
0.43	16.706
0.424	16.4358
0.418	16.1844
0.412	15.9527
0.406	15.7534
0.4	15.5644
