Name: Basalt
Type: Rock
Class: Igneous
Subclass: Mafic
Particle Size: Solid
Sample No.: ba1b1f2
Owner: Larry Rowan, USGS
Wavelength Range: All
Origin: Sweimah, Jordan
Description: dark gray basalt Sample was Whole rock chips. Original ASTER Spectral Library name was usgs.perknic.rock.igneous.mafic.solid.ba1b1f2.spectrum.txt
Measurement: Reflectance
X Units: Wavelength (micrometers)
Y Units: Reflectance (percent)
wavelength	value
0.4	0.112
0.408	0.112
0.416	0.114
0.424	0.109
0.432	0.109
0.44	0.107
0.448	0.105
0.456	0.1
0.464	0.099
0.472	0.095
0.48	0.095
0.488	0.094
0.496	0.095
0.504	0.094
0.512	0.094
0.52	0.095
0.528	0.096
0.536	0.095
0.544	0.098
0.552	0.096
0.56	0.098
0.568	0.098
0.576	0.099
0.584	0.099
0.592	0.098
0.6	0.098
0.608	0.103
0.616	0.1
0.624	0.1
0.632	0.103
0.64	0.101
0.648	0.1
0.656	0.103
0.664	0.103
0.672	0.103
0.68	0.101
0.688	0.103
0.696	0.103
0.704	0.103
0.712	0.103
0.72	0.104
0.728	0.103
0.736	0.105
0.744	0.104
0.752	0.105
0.76	0.103
0.768	0.105
0.776	0.105
0.784	0.105
0.792	0.105
0.8	0.107
0.832	0.107
0.864	0.107
0.896	0.11
0.928	0.11
0.96	0.109
0.992	0.109
1.024	0.11
1.056	0.11
1.088	0.107
1.12	0.109
1.152	0.107
1.184	0.107
1.216	0.106
1.248	0.107
1.28	0.104
1.312	0.104
1.344	0.103
1.376	0.101
1.408	0.099
1.44	0.099
1.472	0.099
1.504	0.098
1.536	0.1
1.568	0.098
1.6	0.099
1.632	0.096
1.664	0.098
1.696	0.098
1.728	0.095
1.76	0.093
1.792	0.094
1.824	0.093
1.856	0.092
1.888	0.084
1.92	0.081
1.952	0.082
1.984	0.085
2.016	0.087
2.048	0.087
2.08	0.088
2.1021	0.0936
2.109	0.0961
2.1159	0.0942
2.1228	0.0945
2.1298	0.0955
2.1368	0.0948
2.1438	0.0952
2.1509	0.0946
2.1581	0.0959
2.1653	0.0942
2.1726	0.0938
2.1799	0.0933
2.1872	0.097
2.1946	0.0932
2.2021	0.0933
2.2096	0.0945
2.2172	0.0951
2.2248	0.0932
2.2324	0.0926
2.2401	0.0942
2.2479	0.0948
2.2557	0.0933
2.2636	0.0913
2.2715	0.093
2.2795	0.0922
2.2876	0.0923
2.2957	0.0935
2.3038	0.0909
2.3121	0.0898
2.3203	0.0912
2.3287	0.0914
2.3371	0.0928
2.3455	0.0901
2.354	0.0898
2.3626	0.0899
2.3712	0.0881
2.38	0.0893
2.3887	0.0885
2.3976	0.0871
2.4065	0.0868
2.4154	0.0847
2.4245	0.0855
2.4336	0.0834
2.4427	0.0853
2.452	0.0826
2.4613	0.0833
2.4707	0.0814
2.4801	0.0816
2.4896	0.0793
2.4992	0.0809
2.5089	0.0794
2.5187	0.0769
2.5285	0.0787
2.5384	0.0776
2.5484	0.079
2.5584	0.0779
2.5686	0.0784
2.5788	0.0774
2.5891	0.079
2.5995	0.0769
2.6099	0.0787
2.6205	0.0763
2.6311	0.0787
2.6418	0.074
2.6526	0.0758
2.6635	0.074
2.6745	0.0724
2.6856	0.0683
2.6968	0.0656
2.708	0.0606
2.7194	0.0545
2.7309	0.0482
2.7424	0.0457
2.7541	0.0419
2.7658	0.0414
2.7777	0.0412
2.7896	0.0414
2.8017	0.0408
2.8138	0.0399
2.8261	0.0407
2.8385	0.0413
2.851	0.0397
2.8636	0.0404
2.8763	0.0407
2.8891	0.0405
2.902	0.0405
2.915	0.0406
2.9282	0.0409
2.9415	0.0397
2.9549	0.0417
2.9684	0.0391
2.9821	0.041
2.9959	0.0409
3.0098	0.0414
3.0238	0.0418
3.038	0.0423
3.0523	0.0426
3.0667	0.042
3.0813	0.042
3.096	0.043
3.1109	0.0424
3.1259	0.0442
3.141	0.0441
3.1563	0.0456
3.1718	0.0456
3.1874	0.0464
3.2031	0.0468
3.219	0.0481
3.2351	0.0479
3.2513	0.0483
3.2677	0.051
3.2843	0.0497
3.301	0.051
3.3179	0.0511
3.3349	0.0517
3.3522	0.0531
3.3696	0.0544
3.3872	0.055
3.405	0.0558
3.423	0.0569
3.4412	0.0572
3.4595	0.0579
3.4781	0.058
3.4968	0.0593
3.5158	0.0604
3.535	0.0606
3.5544	0.0622
3.574	0.0623
3.5938	0.0646
3.6138	0.065
3.6341	0.066
3.6545	0.0663
3.6753	0.0668
3.6962	0.068
3.7174	0.0684
3.7389	0.0684
3.7605	0.0692
3.7825	0.0684
3.8047	0.0673
3.8272	0.0676
3.8499	0.0668
3.8729	0.0663
3.8962	0.0666
3.9197	0.066
3.9436	0.0663
3.9677	0.0654
3.9921	0.0662
4.0169	0.0654
4.0419	0.0655
4.0673	0.0657
4.093	0.0659
4.119	0.0642
4.1453	0.0646
4.172	0.0641
4.199	0.0635
4.2264	0.0628
4.2541	0.0618
4.2822	0.0617
4.3107	0.0614
4.3395	0.06
4.3688	0.0591
4.3984	0.0583
4.4285	0.0579
4.4589	0.0569
4.4898	0.0563
4.5211	0.0558
4.5529	0.0547
4.5851	0.0539
4.6177	0.0526
4.6509	0.0516
4.6845	0.0505
4.7186	0.0505
4.7532	0.0506
4.7883	0.0503
4.8239	0.0499
4.8601	0.0497
4.8968	0.049
4.9341	0.0492
4.9719	0.0485
5.0103	0.0485
5.0493	0.048
5.089	0.0467
5.1292	0.0465
5.1702	0.0464
5.2117	0.0454
5.254	0.0448
5.2969	0.0438
5.3405	0.0434
5.3849	0.0424
5.43	0.0414
5.4759	0.04
5.5225	0.0391
5.57	0.0377
5.6182	0.037
5.6673	0.036
5.7173	0.0361
5.7682	0.0349
5.82	0.0329
5.8727	0.0314
5.9264	0.0296
5.9811	0.0281
6.0368	0.0268
6.0935	0.0267
6.1513	0.0269
6.2103	0.0291
6.2703	0.0304
6.3316	0.0322
6.394	0.0334
6.4577	0.0353
6.5227	0.0351
6.589	0.0341
6.6566	0.0331
6.7257	0.0328
6.7962	0.0317
6.8682	0.0323
6.9418	0.0319
7.0169	0.0317
7.0937	0.0305
7.1722	0.0295
7.2524	0.0279
7.3345	0.0261
7.4184	0.026
7.5043	0.0249
7.5922	0.024
7.6821	0.023
7.7743	0.0226
7.8686	0.0224
7.9653	0.0224
8.0644	0.0227
8.166	0.0256
8.2701	0.0322
8.377	0.0416
8.4867	0.0478
8.5992	0.057
8.7149	0.0647
8.8336	0.07
8.9556	0.0785
9.0811	0.0841
9.2101	0.0909
9.3428	0.1072
9.4795	0.1193
9.6201	0.1193
9.765	0.1118
9.9144	0.1017
10.0684	0.0921
10.2272	0.0837
10.3911	0.0772
10.5604	0.0735
10.7353	0.0706
10.9161	0.0683
11.103	0.0641
11.2965	0.0635
11.4968	0.0553
11.7044	0.048
11.9196	0.0424
12.1429	0.0377
12.3747	0.0328
12.6155	0.0299
12.8659	0.029
13.1264	0.0288
13.3977	0.029
13.6804	0.0283
13.9753	0.0273
