Name: Diabase Porphyry
Type: Rock
Class: Igneous
Subclass: Mafic
Particle Size: Solid
Sample No.: Ward38
Owner: JPL
Wavelength Range: VSWIR
Origin: Ward's Collection of American Rocks.  Sample locality - Cape Ann, Essex County, Massachusetts.
Description: A porphyritic rock consisting of large greenish-grayplagioclase phenocrysts in a dark green groundmass.Geologic Age - Triassic (?).Collected by:  Ward's Natural Science Original ASTER Spectral Library name was jpl.perkin.rock.igneous.mafic.solid.ward38.spectrum.txt
Measurement: Hemispherical reflectance
X Units: Wavelength (micrometers)
Y Units: Reflectance (percent)
wavelength	value
2.5	12.1338
2.494	11.8321
2.488	12.0395
2.482	11.975
2.476	11.9939
2.47	12.0654
2.464	12.0089
2.458	12.1117
2.452	12.1597
2.446	11.9909
2.44	12.0393
2.434	12.0624
2.428	12.0468
2.422	12.0202
2.416	11.9397
2.41	11.9073
2.404	11.9523
2.398	11.8896
2.392	11.9641
2.386	11.9106
2.38	12.1098
2.374	12.1451
2.368	12.1094
2.362	12.0353
2.356	12.085
2.35	11.9442
2.344	11.885
2.338	11.9625
2.332	11.9351
2.326	11.9294
2.32	12.0008
2.314	12.1626
2.308	12.2141
2.302	12.2749
2.296	12.486
2.29	12.5202
2.284	12.6191
2.278	12.6814
2.272	12.6541
2.266	12.6944
2.26	12.636
2.254	12.6859
2.248	12.6905
2.242	12.783
2.236	12.7922
2.23	12.8709
2.224	12.8494
2.218	12.7869
2.212	12.9522
2.206	12.7609
2.2	12.8328
2.194	12.8218
2.188	12.8911
2.182	12.9225
2.176	13.0096
2.17	13.064
2.164	13.076
2.158	13.1097
2.152	13.1276
2.146	13.1327
2.14	13.1731
2.134	13.0731
2.128	13.106
2.122	13.0264
2.116	13.0254
2.11	12.9367
2.104	12.9753
2.098	12.9391
2.092	12.9717
2.086	12.9756
2.08	13.0553
2.074	13.0326
2.068	13.025
2.062	13.0158
2.056	13.0347
2.05	13.0986
2.044	13.0061
2.038	13.0315
2.032	13.0135
2.026	13.0242
2.02	12.9861
2.014	12.9474
2.008	12.9157
2.002	12.9655
1.996	12.9642
1.99	12.8773
1.984	12.7795
1.978	12.8135
1.972	12.7743
1.966	12.7362
1.96	12.6771
1.954	12.5922
1.948	12.7464
1.942	12.6276
1.936	12.523
1.93	12.619
1.924	12.5031
1.918	12.5218
1.912	12.4542
1.906	12.5707
1.9	12.4553
1.894	12.6695
1.888	12.7888
1.882	12.6928
1.876	12.7233
1.87	12.6185
1.864	12.6761
1.858	12.7491
1.852	12.7252
1.846	12.6891
1.84	12.6272
1.834	12.6263
1.828	12.6875
1.822	12.6452
1.816	12.563
1.81	12.5693
1.804	12.6236
1.798	12.607
1.792	12.4861
1.786	12.4658
1.78	12.4711
1.774	12.4244
1.768	12.3545
1.762	12.3818
1.756	12.3628
1.75	12.3594
1.744	12.2388
1.738	12.3275
1.732	12.2877
1.726	12.1792
1.72	12.1732
1.714	12.1631
1.708	12.1153
1.702	12.1969
1.696	12.4395
1.69	12.1692
1.684	12.1219
1.678	12.0399
1.672	11.9734
1.666	12.0004
1.66	11.8939
1.654	11.9802
1.648	11.8344
1.642	11.9766
1.636	11.9562
1.63	11.8988
1.624	11.8478
1.618	11.8918
1.612	11.7079
1.606	11.7628
1.6	11.6736
1.594	11.6984
1.588	11.6796
1.582	11.696
1.576	11.6286
1.57	11.584
1.564	11.5581
1.558	11.5071
1.552	11.5582
1.546	11.4528
1.54	11.4042
1.534	11.4028
1.528	11.3303
1.522	11.3272
1.516	11.3744
1.51	11.2701
1.504	11.2437
1.498	11.184
1.492	11.1625
1.486	11.1881
1.48	11.1219
1.474	11.1272
1.468	11.0433
1.462	10.9898
1.456	10.9526
1.45	11.0178
1.444	10.9182
1.438	10.9394
1.432	10.7994
1.426	10.8231
1.42	10.6981
1.414	10.6329
1.408	10.6614
1.402	10.6404
1.396	10.6104
1.39	10.6186
1.384	10.6028
1.378	10.5487
1.372	10.6433
1.366	10.6095
1.36	10.4314
1.354	10.4887
1.348	10.4316
1.342	10.478
1.336	10.377
1.33	10.3206
1.324	10.4056
1.318	10.2551
1.312	10.2683
1.306	10.1665
1.3	10.1624
1.294	10.2164
1.288	10.1359
1.282	10.0747
1.276	10.0891
1.27	10.0506
1.264	10.0189
1.258	10.0024
1.252	10.0226
1.246	9.9622
1.24	9.9044
1.234	9.8665
1.228	9.8477
1.222	9.8422
1.216	9.8146
1.21	9.8243
1.204	9.7384
1.198	9.7753
1.192	9.7298
1.186	9.7554
1.18	9.7002
1.174	9.6338
1.168	9.6943
1.162	9.6882
1.156	9.7069
1.15	9.7081
1.144	9.6287
1.138	9.6908
1.132	9.7337
1.126	9.6453
1.12	9.6236
1.114	9.66
1.108	9.6689
1.102	9.7104
1.096	9.6268
1.09	9.6375
1.084	9.6548
1.078	9.6525
1.072	9.6411
1.066	9.6969
1.06	9.7034
1.054	9.7781
1.048	9.781
1.042	9.7856
1.036	9.7736
1.03	9.8187
1.024	9.8203
1.018	9.7723
1.012	9.7913
1.006	9.787
1	9.8538
0.994	9.7897
0.988	9.7378
0.982	9.7186
0.976	9.7748
0.97	9.7035
0.964	9.7513
0.958	9.6692
0.952	9.6297
0.946	9.7585
0.94	9.6974
0.934	9.6954
0.928	9.6899
0.922	9.6822
0.916	9.6171
0.91	9.6569
0.904	9.6418
0.898	9.7135
0.892	9.6685
0.886	9.709
0.88	9.752
0.874	9.8123
0.868	9.8088
0.862	9.9628
0.856	9.8729
0.85	9.9186
0.844	9.9614
0.838	10.0131
0.832	10.0375
0.826	10.0484
0.82	10.0765
0.814	10.0807
0.808	10.0765
0.802	10.085
0.796	10.0817
0.79	10.0775
0.784	10.0569
0.778	10.0472
0.772	10.0363
0.766	10.0138
0.76	10.0091
0.754	9.9975
0.748	9.9967
0.742	9.9971
0.736	9.9964
0.73	9.9988
0.724	10.0071
0.718	10.0141
0.712	10.025
0.706	10.0367
0.7	10.0551
0.694	10.0686
0.688	10.0863
0.682	10.1172
0.676	10.1424
0.67	10.1659
0.664	10.1913
0.658	10.2175
0.652	10.2456
0.646	10.2777
0.64	10.303
0.634	10.3221
0.628	10.351
0.622	10.3686
0.616	10.3842
0.61	10.3987
0.604	10.4045
0.598	10.4078
0.592	10.4096
0.586	10.3916
0.58	10.3622
0.574	10.3215
0.568	10.2733
0.562	10.2131
0.556	10.0958
0.55	9.993
0.544	9.8746
0.538	9.743
0.532	9.6059
0.526	9.4629
0.52	9.3153
0.514	9.1593
0.508	8.9895
0.502	8.8175
0.496	8.67
0.49	8.5269
0.484	8.4113
0.478	8.361
0.472	8.3087
0.466	8.268
0.46	8.2292
0.454	8.179
0.448	8.1135
0.442	8.0128
0.436	7.8883
0.43	7.7454
0.424	7.6041
0.418	7.4983
0.412	7.4156
0.406	7.3474
0.4	7.2871
