Name: Alkali Granite
Type: Rock
Class: Igneous
Subclass: Felsic
Particle Size: Solid
Sample No.: Ward13
Owner: JPL
Wavelength Range: All
Origin: Ward's Collection of American Rocks.  Sample locality - Quincy, Norfolk County, Massachusetts.
Description: A dark gray granular rock consisting of feldspar, quartz andblack pryibole.Geologic age - Carboniferous (probably Mississippian).Collected by:  Ward's Natural Science Original ASTER Spectral Library name was jpl.nicolet.rock.igneous.felsic.solid.ward13.spectrum.txt
Measurement: Hemispherical reflectance
X Units: Wavelength (micrometers)
Y Units: Reflectance (percent)
wavelength	value
15.3871	9.4279
15.118	7.275
14.8581	4.8461
14.6069	5.6359
14.3642	5.7122
14.1293	5.5049
13.9021	7.0831
13.682	7.7828
13.4687	6.574
13.2621	6.625
13.0616	9.2108
12.8672	10.401
12.6784	8.5617
12.4951	9.4399
12.317	5.077
12.1439	5.4092
11.9757	6.0189
11.812	7.0511
11.6527	6.9983
11.4977	7.6445
11.3468	8.2308
11.1997	8.8201
11.0564	9.7598
10.9168	10.3062
10.7806	10.8497
10.6478	12.7393
10.5182	13.9414
10.3917	15.6493
10.2683	18.0091
10.1477	21.6095
10.0299	26.0077
9.9148	31.1383
9.8024	30.6687
9.6925	33.1054
9.585	35.3992
9.4798	34.0133
9.377	35.8466
9.2763	39.5552
9.1778	39.9288
9.0814	36.0251
8.987	33.6398
8.8945	35.7128
8.8039	36.5539
8.7151	37.9985
8.6281	34.5846
8.5428	40.8242
8.4592	39.9937
8.3772	37.4281
8.2967	31.7513
8.2179	26.086
8.1404	18.7983
8.0645	10.9765
7.9899	6.2095
7.9167	3.8504
7.8449	2.2741
7.7743	1.6779
7.705	1.337
7.6369	0.9214
7.57	1.1498
7.5043	1.225
7.4397	1.1373
7.3762	1.3962
7.3138	1.2674
7.2524	1.4884
7.1921	1.7259
7.1327	1.3807
7.0743	1.811
7.0169	1.8922
6.9604	1.9906
6.9047	2.2246
6.85	2.179
6.7962	2.1297
6.7431	2.4055
6.6909	2.1405
6.6395	2.8574
6.5889	2.4244
6.539	2.7005
6.49	2.8331
6.4416	2.9646
6.3939	3.0022
6.347	2.9459
6.3007	2.7158
6.2551	3.0875
6.2101	2.4853
6.1658	2.6575
6.1222	3.088
6.0791	2.9728
6.0366	3.1189
5.9948	3.216
5.9535	3.3342
5.9127	3.3074
5.8726	3.5072
5.8329	3.3512
5.7938	3.0534
5.7552	3.3441
5.7172	3.5264
5.6796	3.6195
5.6425	3.4538
5.6059	3.5072
5.5698	3.5592
5.5341	3.6687
5.4989	4.0094
5.4641	4.0859
5.4298	4.249
5.3959	4.2571
5.3624	4.1322
5.3294	4.2612
5.2967	4.235
5.2644	4.665
5.2326	4.3661
5.2011	4.6213
5.17	4.727
5.1392	4.9402
5.1088	5.1535
5.0788	5.2587
5.0491	5.2616
5.0198	5.5041
4.9908	5.8528
4.9622	5.6065
4.9338	6.0074
4.9058	6.1167
4.8781	6.3155
4.8508	6.745
4.8237	7.0053
4.7969	7.0839
4.7704	6.7464
4.7443	6.9562
4.7184	6.9552
4.6927	7.048
4.6674	7.181
4.6423	7.9093
4.6175	8.159
4.593	8.5541
4.5687	8.8019
4.5447	8.6146
4.5209	8.6638
4.4974	8.9732
4.4741	9.5014
4.451	9.8559
4.4282	10.3726
4.4057	10.6219
4.3833	11.0092
4.3612	11.4261
4.3393	12.1419
4.3176	12.5009
4.2962	12.8722
4.2749	12.9602
4.2539	13.8495
4.233	14.7916
4.2124	14.8724
4.192	15.3436
4.1717	15.7897
4.1517	16.0509
4.1319	17.0034
4.1122	17.1327
4.0927	17.597
4.0734	17.9655
4.0543	17.6469
4.0354	17.9349
4.0166	17.884
3.9981	17.9477
3.9796	18.3996
3.9614	18.6614
3.9433	19.3132
3.9254	19.2414
3.9077	19.618
3.8901	19.4942
3.8726	19.5944
3.8554	19.6308
3.8382	19.7006
3.8213	20.2728
3.8045	20.3334
3.7878	20.3368
3.7713	20.6069
3.7549	20.4649
3.7386	20.5547
3.7225	20.6587
3.7066	20.634
3.6907	20.8916
3.675	21.0052
3.6595	21.6256
3.644	21.204
3.6287	21.3026
3.6136	20.9473
3.5985	21.0244
3.5836	20.7529
3.5688	20.6533
3.5541	20.1971
3.5396	19.8321
3.5251	19.3698
3.5108	18.8926
3.4966	18.3895
3.4825	18.1273
3.4685	17.703
3.4547	17.3061
3.4409	16.8374
3.4273	16.8551
3.4137	16.0561
3.4003	15.4282
3.387	15.5996
3.3738	15.0697
3.3606	14.6548
3.3476	14.1769
3.3347	13.5496
3.3219	13.806
3.3092	13.6826
3.2965	13.0916
3.284	12.9112
3.2716	12.0649
3.2593	12.19
3.247	11.6956
3.2348	11.5986
3.2228	10.8789
3.2108	10.2555
3.1989	11.0176
3.1871	10.014
3.1754	10.7959
3.1638	9.6148
3.1523	9.4535
3.1408	9.9226
3.1294	8.8852
3.1181	9.1785
3.1069	9.2639
3.0958	9.2597
3.0848	9.1702
3.0738	8.9134
3.0629	9.0422
3.0521	8.1034
3.0413	9.2414
3.0307	8.1269
3.0201	8.124
3.0096	8.1036
2.9991	8.3461
2.9887	8.2698
2.9784	8.1043
2.9682	8.4434
2.9581	7.8322
2.948	8.6036
2.9379	9.0031
2.928	7.2689
2.9181	8.8476
2.9083	7.5037
2.8985	8.208
2.8888	8.2578
2.8792	8.9116
2.8697	9.5437
2.8602	8.6899
2.8507	9.5666
2.8413	8.9358
2.832	9.3581
2.8228	9.2914
2.8136	9.2662
2.8045	10.629
2.7954	10.1863
2.7864	10.8248
2.7774	11.3839
2.7685	8.7813
2.7597	10.1152
2.7509	11.5893
2.7422	12.2157
2.7335	14.2805
2.7249	16.1129
2.7163	18.8934
2.7078	20.7621
2.6994	21.9558
2.691	26.2384
2.6826	27.5266
2.6743	28.2834
2.666	28.8687
2.6578	30.3838
2.6497	30.8756
2.6416	31.8108
2.6336	31.7424
2.6256	32.047
2.6176	32.3516
2.6097	32.4825
2.6018	32.9195
2.594	32.8561
2.5863	32.5437
2.5785	33.2452
2.5709	33.3243
2.5633	32.6732
2.5557	33.6475
2.5481	33.4604
2.5406	33.0616
2.5332	33.4876
2.5258	32.5039
2.5184	32.92
2.5111	33.4889
2.5038	32.7928
2.4966	34.5165
2.4894	35.1387
2.4823	33.4988
2.4752	34.5109
2.4681	34.4264
2.4611	34.9316
2.4541	34.3225
2.4471	35.2026
2.4402	34.7536
2.4333	36.1224
2.4265	36.2863
2.4197	35.1774
2.413	34.9902
2.4063	36.1649
2.3996	36.9489
2.3929	36.8938
2.3863	37.4609
2.3798	38.7862
2.3732	36.3921
2.3667	36.9987
2.3603	38.3719
2.3538	36.8723
2.3474	36.7809
2.3411	37.6949
2.3347	36.8625
2.3285	35.8498
2.3222	36.9243
2.316	38.5419
2.3098	38.8778
2.3036	40.7579
2.2975	39.0568
2.2914	39.7677
2.2854	39.1723
2.2793	41.1886
2.2733	39.1664
2.2674	41.3729
2.2614	36.3695
2.2555	40.8703
2.2497	39.8349
2.2438	39.008
2.238	39.5353
2.2322	40.4316
2.2265	40.7031
2.2208	40.1811
2.2151	39.3155
2.2094	40.1942
2.2038	41.904
2.1982	40.6165
2.1926	40.3296
2.187	40.6108
2.1815	40.1012
2.176	38.9861
2.1706	41.0831
2.1651	40.2561
2.1597	41.3302
2.1543	40.0564
2.149	40.9488
2.1436	40.4937
2.1383	39.3935
2.1331	41.8569
2.1278	40.7651
2.1226	39.4256
2.1174	42.4152
2.1122	41.8339
2.1071	38.4105
2.1019	40.7242
2.0968	36.6089
2.0918	38.2874
2.0867	39.579
2.0817	41.7663
2.0767	40.14
2.0717	39.6845
2.0667	41.1083
2.0618	42.4859
2.0569	38.4175
2.052	40.2578
2.0472	38.4001
2.0423	39.3126
2.0375	38.4135
2.0327	36.7648
2.028	39.8234
2.0232	38.2342
2.0185	40.3642
2.0138	41.8367
2.0091	35.4527
2.0044	36.4569
1.9998	37.7661
