Name: Glauconitic Sandstone
Type: rock
Class: Sedimentary
Subclass: Sandstone
Particle Size: Fine
Sample No.: sandstone_2
Owner: JHU
Wavelength Range: All
Origin: Sample No. 364,  The Hunt and Salisbury Collection at the U.S.Geological Survey, Denver, Co.
Description: The sample is a well-sorted, medium fine-grained, somewhat compacted sandstone. The strain-free, angular to subangular quartz grains are in a matrix of sericite, glauconite (mostly as autochthonous microcrystalline masses), a yellowish-brown microcrystalline material (clay and/or glauconite), with some muscovite, biotite, carbonate and minor microcline and opaques. Particle size was 0 - 75 Micrometers. Original ASTER Spectral Library name was jhu.becknic.rock.sedimentary.sandstone.fine.sandst2.spectrum.txt
Measurement: Directional (10 Degree) Hemispherical Reflectance
X Units: Wavelength (micrometers)
Y Units: Reflectance (percent)
wavelength	value
14.983	3.4857
14.645	2.9093
14.321	2.0357
14.011	3.2813
13.715	3.7275
13.43	3.5515
13.158	3.1937
12.896	2.9249
12.644	2.5327
12.402	2.1569
12.169	2.5564
11.945	3.8089
11.729	5.1413
11.52	5.1479
11.319	4.8258
11.125	4.4289
10.937	3.8492
10.755	3.6953
10.58	3.6643
10.41	3.5719
10.245	3.413
10.086	3.3997
9.9313	3.5456
9.7814	3.7367
9.636	4.2369
9.4948	4.4107
9.3577	5.8851
9.2245	6.9434
9.095	7.045
8.9691	6.9721
8.8467	6.8326
8.7275	6.4165
8.6116	5.3783
8.4986	6.6908
8.3886	6.925
8.2814	7.9085
8.1769	9.425
8.075	7.7695
7.9756	6.2098
7.8786	4.8062
7.784	4.4353
7.6916	4.6468
7.6014	4.6139
7.5133	4.8895
7.4272	5.0669
7.343	5.1465
7.2607	5.3492
7.1803	5.506
7.1016	5.4558
7.0246	5.3381
6.9493	5.7636
6.8755	6.5188
6.8034	7.3077
6.7327	7.6487
6.6634	8.321
6.5956	8.7721
6.5292	9.5122
6.464	11.837
6.4002	11.784
6.3376	10.333
6.2762	8.5853
6.216	7.3882
6.157	8.1836
6.099	9.757
6.0421	10.307
5.9863	10.548
5.9315	10.285
5.8777	12.213
5.8249	14.407
5.773	15.817
5.722	16.719
5.6719	16.15
5.6227	13.59
5.5744	12.131
5.5268	13.928
5.4801	16.02
5.4341	16.501
5.3889	13.116
5.3445	10.967
5.3008	11.897
5.2578	14.519
5.2154	18.76
5.1738	20.048
5.1328	20.051
5.0925	19.802
5.0528	19.027
5.0137	18.933
4.9752	20.744
4.9373	23.858
4.9	27.655
4.8632	31.711
4.827	33.499
4.7913	34.536
4.7561	35.61
4.7215	36.464
4.6873	36.403
4.6536	37.639
4.6205	39.221
4.5877	40.263
4.5555	40.767
4.5237	40.532
4.4923	39.694
4.4614	39.875
4.4309	40.983
4.4008	42.117
4.3711	43.294
4.3418	44.111
4.3129	44.384
4.2844	44.408
4.2563	44.762
4.2285	45.117
4.2011	45.367
4.174	45.689
4.1473	45.964
4.1209	46.195
4.0949	46.361
4.0692	46.298
4.0438	45.613
4.0187	44.009
3.994	42.536
3.9695	41.645
3.9453	43.336
3.9214	44.444
3.8979	44.459
3.8746	44.363
3.8515	44.253
3.8288	44.497
3.8063	44.929
3.7841	45.039
3.7621	44.634
3.7404	44.127
3.7189	43.681
3.6977	43.247
3.6767	42.756
3.656	42.15
3.6355	41.458
3.6152	40.609
3.5951	39.656
3.5753	38.474
3.5557	37.23
3.5363	36.269
3.5171	35.223
3.4981	34.312
3.4793	33.654
3.4607	33.432
3.4423	32.774
3.4241	31.898
3.4061	30.812
3.3883	29.752
3.3707	28.626
3.3533	27.488
3.336	26.997
3.3189	26.281
3.302	25.471
3.2853	24.721
3.2687	24.183
3.2523	23.74
3.2361	23.121
3.22	22.294
3.204	21.478
3.1883	20.654
3.1727	19.916
3.1572	19.192
3.1419	18.442
3.1268	17.758
3.1117	17.016
3.0969	16.373
3.0821	15.679
3.0675	15.075
3.0531	14.489
3.0388	13.991
3.0246	13.554
3.0105	13.152
2.9966	12.844
2.9828	12.595
2.9692	12.285
2.9556	12.006
2.9422	11.834
2.9289	11.814
2.9157	11.915
2.9027	12.23
2.8897	12.613
2.8769	12.881
2.8642	12.976
2.8516	12.769
2.8391	12.367
2.8267	11.804
2.8144	11.131
2.8022	10.508
2.7902	9.8354
2.7782	8.4524
2.7664	6.8712
2.7546	6.4698
2.7429	7.9899
2.7314	11.067
2.7199	19.143
2.7085	30.833
2.6973	37.77
2.6861	43.742
2.675	45.947
2.664	47.234
2.6531	49.401
2.6423	50.242
2.6315	49.637
2.6209	49.792
2.6103	50.22
2.5999	50.312
2.5895	50.542
2.5792	51.149
2.569	51.455
2.5588	51.768
2.5487	52.082
2.5388	52.304
2.5289	52.351
2.519	52.392
2.5093	52.303
2.4996	52.237
2.49	52.207
2.4805	52.243
2.471	52.245
2.4616	52.163
2.4523	52.079
2.4431	52.011
2.4339	52.158
2.4248	52.527
2.4157	52.905
2.4068	53.21
2.3979	53.306
2.389	53.237
2.3802	53.011
2.3715	52.777
2.3629	52.523
2.3543	52.256
2.3458	52.365
2.3373	52.868
2.3289	53.526
2.3206	54.125
2.3123	54.684
2.3041	55.024
2.2959	55.326
2.2878	55.414
2.2798	55.407
2.2718	55.207
2.2638	54.803
2.2559	54.631
2.2481	54.703
2.2403	54.841
2.2326	54.648
2.225	54.318
2.2173	53.75
2.2098	53.38
2.2023	53.292
2.1948	53.761
2.1874	54.727
2.18	55.705
2.1727	56.315
2.1655	56.72
2.1583	56.95
2.1511	57.021
2.144	57.075
2.1369	57.038
2.1299	57.035
2.1229	56.976
2.116	57.008
2.1091	57.01
2.1023	57.091
2.0955	57.164
2.0887	57.212
2.082	57.261
2.06	57.427
2.028	56.745
1.996	55.54
1.964	54.59
1.932	53.565
1.9	54.742
1.868	54.024
1.836	54.928
1.804	54.678
1.772	53.788
1.74	53.52
1.708	53.343
1.676	52.724
1.644	52.16
1.612	51.544
1.58	50.968
1.548	50.485
1.516	49.715
1.484	48.793
1.452	48.025
1.42	46.72
1.388	45.96
1.356	45.183
1.324	44.563
1.292	43.424
1.26	42.806
1.228	42.001
1.196	40.301
1.164	38.73
1.132	38.274
1.1	37.797
1.068	37.304
1.036	36.978
1.004	36.317
0.972	35.905
0.94	35.483
0.908	35.004
0.876	35.63
0.844	37.35
0.812	39.97
0.795	40.497
0.787	39.98
0.779	40.136
0.771	39.528
0.763	39.138
0.755	38.848
0.747	38.902
0.739	38.552
0.731	38.508
0.723	38.077
0.715	37.828
0.707	37.769
0.699	37.748
0.691	37.837
0.683	37.929
0.675	38.029
0.667	38.144
0.659	37.981
0.651	37.894
0.643	38.184
0.635	38.083
0.627	37.974
0.619	38.13
0.611	37.772
0.603	37.752
0.595	38.082
0.587	37.884
0.579	37.844
0.571	38.067
0.563	37.357
0.555	36.16
0.547	36.035
0.539	35.344
0.531	34.861
0.523	33.82
0.515	33.102
0.507	31.921
0.499	31.102
0.491	29.827
0.483	29.138
0.475	28.393
0.467	27.608
0.459	27.228
0.451	26.609
0.443	25.753
0.435	24.621
0.427	23.37
0.419	22.134
0.411	21.145
0.403	20.107
