Name: Arenaceous Shale
Type: Rock
Class: Sedimentary
Subclass: Shale
Particle Size: Solid
Sample No.: Ward53
Owner: JPL
Wavelength Range: VSWIR
Origin: Ward's Collection of American Rocks.  Sample locality - Greene County, New York.
Description: A dark gray, gritty rock with irregular shaly partings.Geologic age - Devonian.Collected by:  Ward's Natural Science Original ASTER Spectral Library name was jpl.perkin.rock.sedimentary.shale.solid.ward53.spectrum.txt
Measurement: Hemispherical reflectance
X Units: Wavelength (micrometers)
Y Units: Reflectance (percent)
wavelength	value
2.5	7.9187
2.494	7.846
2.488	7.7732
2.482	7.8757
2.476	7.9086
2.47	7.9352
2.464	8.065
2.458	7.9022
2.452	7.993
2.446	7.9847
2.44	8.0713
2.434	7.9474
2.428	8.0651
2.422	8.1139
2.416	8.1821
2.41	8.2203
2.404	8.2635
2.398	8.2277
2.392	8.2677
2.386	8.3882
2.38	8.3709
2.374	8.3373
2.368	8.3646
2.362	8.2735
2.356	8.2725
2.35	8.2898
2.344	8.2481
2.338	8.3451
2.332	8.3663
2.326	8.3937
2.32	8.5036
2.314	8.5241
2.308	8.6793
2.302	8.7393
2.296	8.7566
2.29	8.7367
2.284	8.7768
2.278	8.773
2.272	8.8139
2.266	8.8084
2.26	8.7955
2.254	8.7371
2.248	8.8037
2.242	8.7689
2.236	8.7149
2.23	8.6439
2.224	8.5966
2.218	8.633
2.212	8.8089
2.206	8.6466
2.2	8.7493
2.194	8.8434
2.188	8.974
2.182	8.9887
2.176	9.0802
2.17	9.1375
2.164	9.2875
2.158	9.2749
2.152	9.2226
2.146	9.2899
2.14	9.3329
2.134	9.3206
2.128	9.2533
2.122	9.2835
2.116	9.1667
2.11	9.1992
2.104	9.1455
2.098	9.1353
2.092	9.2282
2.086	9.2238
2.08	9.2809
2.074	9.273
2.068	9.2722
2.062	9.2903
2.056	9.3261
2.05	9.3259
2.044	9.3164
2.038	9.3839
2.032	9.3476
2.026	9.3233
2.02	9.2445
2.014	9.2861
2.008	9.2669
2.002	9.2343
1.996	9.2585
1.99	9.2767
1.984	9.2168
1.978	9.2026
1.972	9.2075
1.966	9.2317
1.96	9.1991
1.954	9.1775
1.948	9.1272
1.942	9.1409
1.936	9.0714
1.93	9.0346
1.924	8.9772
1.918	9.0368
1.912	8.9659
1.906	9.0437
1.9	9.0362
1.894	9.2589
1.888	9.3011
1.882	9.347
1.876	9.3633
1.87	9.3581
1.864	9.4806
1.858	9.4949
1.852	9.4973
1.846	9.4677
1.84	9.5134
1.834	9.5706
1.828	9.514
1.822	9.4995
1.816	9.5347
1.81	9.5603
1.804	9.5078
1.798	9.5101
1.792	9.5668
1.786	9.6404
1.78	9.5507
1.774	9.4733
1.768	9.5595
1.762	9.5892
1.756	9.5333
1.75	9.5043
1.744	9.5061
1.738	9.5664
1.732	9.5276
1.726	9.5537
1.72	9.5386
1.714	9.5067
1.708	9.5373
1.702	9.5021
1.696	9.6197
1.69	9.5601
1.684	9.4785
1.678	9.5289
1.672	9.5706
1.666	9.5091
1.66	9.5367
1.654	9.5127
1.648	9.5479
1.642	9.5133
1.636	9.5233
1.63	9.5078
1.624	9.4475
1.618	9.5207
1.612	9.3944
1.606	9.5027
1.6	9.4451
1.594	9.4085
1.588	9.3962
1.582	9.4315
1.576	9.3355
1.57	9.3929
1.564	9.3647
1.558	9.3629
1.552	9.3756
1.546	9.2907
1.54	9.2883
1.534	9.3832
1.528	9.2965
1.522	9.3105
1.516	9.2823
1.51	9.2457
1.504	9.2363
1.498	9.2037
1.492	9.158
1.486	9.1405
1.48	9.1758
1.474	9.1605
1.468	9.1543
1.462	9.1236
1.456	9.1184
1.45	9.051
1.444	9.0845
1.438	8.9987
1.432	8.9524
1.426	8.8967
1.42	8.7969
1.414	8.7625
1.408	8.8061
1.402	8.8905
1.396	8.9281
1.39	8.9444
1.384	8.8813
1.378	8.9463
1.372	8.9394
1.366	8.9085
1.36	8.8433
1.354	8.8452
1.348	8.8308
1.342	8.8915
1.336	8.8697
1.33	8.7707
1.324	8.8226
1.318	8.84
1.312	8.7812
1.306	8.743
1.3	8.761
1.294	8.7231
1.288	8.741
1.282	8.8018
1.276	8.6969
1.27	8.6893
1.264	8.6638
1.258	8.6393
1.252	8.6681
1.246	8.5805
1.24	8.6246
1.234	8.6098
1.228	8.5541
1.222	8.6116
1.216	8.5468
1.21	8.5411
1.204	8.5557
1.198	8.4747
1.192	8.4788
1.186	8.4937
1.18	8.4425
1.174	8.4584
1.168	8.4126
1.162	8.4356
1.156	8.3902
1.15	8.35
1.144	8.3734
1.138	8.4037
1.132	8.3098
1.126	8.3579
1.12	8.2772
1.114	8.2848
1.108	8.3424
1.102	8.272
1.096	8.2422
1.09	8.2083
1.084	8.3427
1.078	8.2256
1.072	8.1807
1.066	8.2956
1.06	8.2685
1.054	8.204
1.048	8.1894
1.042	8.1753
1.036	8.1283
1.03	8.196
1.024	8.1498
1.018	8.0929
1.012	8.1528
1.006	8.0119
1	8.0987
0.994	8.0581
0.988	8.044
0.982	8.142
0.976	8.0495
0.97	8.0603
0.964	8.0189
0.958	7.9595
0.952	7.9951
0.946	7.9203
0.94	8.0157
0.934	7.9251
0.928	7.884
0.922	7.9245
0.916	7.8745
0.91	7.858
0.904	7.8385
0.898	7.8364
0.892	7.8173
0.886	7.7515
0.88	7.7416
0.874	7.7409
0.868	7.6677
0.862	7.6708
0.856	7.6947
0.85	7.7126
0.844	7.7285
0.838	7.7265
0.832	7.7327
0.826	7.7267
0.82	7.7173
0.814	7.7099
0.808	7.6901
0.802	7.6805
0.796	7.6659
0.79	7.643
0.784	7.6273
0.778	7.6144
0.772	7.5836
0.766	7.5742
0.76	7.555
0.754	7.5384
0.748	7.5224
0.742	7.5052
0.736	7.4866
0.73	7.4699
0.724	7.4466
0.718	7.4371
0.712	7.412
0.706	7.3957
0.7	7.38
0.694	7.3596
0.688	7.3419
0.682	7.3232
0.676	7.3043
0.67	7.2857
0.664	7.2676
0.658	7.2456
0.652	7.2283
0.646	7.2096
0.64	7.1915
0.634	7.1735
0.628	7.1548
0.622	7.1346
0.616	7.1166
0.61	7.0982
0.604	7.0824
0.598	7.0662
0.592	7.0513
0.586	7.0325
0.58	7.0137
0.574	6.9946
0.568	6.9783
0.562	6.9594
0.556	6.93
0.55	6.9107
0.544	6.8915
0.538	6.875
0.532	6.8591
0.526	6.8432
0.52	6.8287
0.514	6.8118
0.508	6.8017
0.502	6.7851
0.496	6.7578
0.49	6.7333
0.484	6.6969
0.478	6.684
0.472	6.6709
0.466	6.6638
0.46	6.6539
0.454	6.6446
0.448	6.6304
0.442	6.6084
0.436	6.5953
0.43	6.5773
0.424	6.5572
0.418	6.5465
0.412	6.5392
0.406	6.5279
0.4	6.5191
