Name: Altered volcanic tuff
Type: Rock
Class: Igneous
Subclass: Felsic
Particle Size: Solid
Sample No.: Cup2
Owner: USGS
Wavelength Range: All
Origin: Cuprite, Nevada
Description: Altered volcanic tuff, reddish brown and tanSample was Whole rock chips. Original ASTER Spectral Library name was usgs.perknic.rock.igneous.felsic.solid.cup2.spectrum.txt
Measurement: Directional Hemispherical Reflectance
X Units: Wavelength (micrometers)
Y Units: Reflectance (percent)
wavelength	value
13.9	2.781
13.68	2.977
13.467	3.028
13.261	3.214
13.06	3.461
12.866	3.883
12.677	3.739
12.494	3.244
12.316	2.379
12.143	2.894
11.975	3.44
11.811	3.852
11.652	4.171
11.497	4.47
11.346	4.635
11.199	5.016
11.056	5.191
10.916	5.552
10.78	5.438
10.647	5.768
10.518	6.015
10.391	6.664
10.268	7.354
10.147	8.065
10.029	9.054
9.914	10.115
9.802	10.588
9.692	11.351
9.585	11.814
9.479	12.082
9.377	12.566
9.276	13.102
9.178	13.977
9.081	13.987
8.987	13.709
8.894	13.678
8.804	13.534
8.715	13.081
8.628	12.041
8.543	12.03
8.459	11.083
8.377	9.404
8.297	9.012
8.218	8.498
8.14	7.56
8.064	5.902
7.99	4.882
7.917	4.244
7.845	3.605
7.774	3.183
7.705	2.894
7.637	2.585
7.57	2.431
7.504	2.369
7.44	2.379
7.376	2.256
7.314	2.276
7.252	2.39
7.192	2.379
7.133	2.39
7.074	2.41
7.017	2.369
6.96	2.369
6.905	2.431
6.85	2.503
6.796	2.523
6.743	2.668
6.691	2.75
6.64	2.833
6.589	2.874
6.539	2.894
6.49	3.131
6.442	3.193
6.394	3.172
6.347	3.069
6.301	2.956
6.255	2.699
6.21	2.513
6.166	2.493
6.122	2.534
6.079	2.585
6.037	2.678
5.995	2.936
5.954	3.09
5.913	3.337
5.873	3.626
5.833	3.77
5.794	3.842
5.755	3.883
5.717	3.935
5.68	3.955
5.643	3.873
5.606	3.801
5.57	3.955
5.534	3.966
5.499	4.213
5.464	4.357
5.43	4.501
5.396	4.151
5.363	3.76
5.33	3.595
5.297	3.801
5.265	4.182
5.233	4.759
5.201	5.48
5.17	5.727
5.139	5.912
5.109	6.005
5.079	5.964
5.049	5.83
5.02	5.912
4.991	6.056
4.962	6.376
4.934	7.025
4.906	8.178
4.878	9.538
4.851	10.578
4.824	11.289
4.797	11.886
4.771	12.206
4.744	12.617
4.719	12.72
4.693	12.813
4.668	12.854
4.643	13.184
4.618	13.74
4.593	14.286
4.569	14.739
4.545	15.1
4.521	15.203
4.498	15.1
4.474	15.193
4.451	15.419
4.428	15.697
4.406	16.068
4.384	16.501
4.361	17.16
4.34	17.767
4.318	18.303
4.296	18.942
4.275	19.508
4.254	19.982
4.233	20.569
4.213	20.631
4.192	20.549
4.172	21.084
4.152	21.63
4.132	22.176
4.112	22.763
4.093	23.381
4.074	23.834
4.055	24.473
4.036	24.699
4.017	24.936
3.998	24.936
3.98	25.132
3.962	25.266
3.944	25.369
3.926	25.4
3.908	25.441
3.89	25.235
3.873	25.111
3.856	24.967
3.838	24.905
3.822	24.669
3.805	24.421
3.788	24.205
3.771	23.855
3.755	23.597
3.739	23
3.723	22.732
3.707	22.382
3.691	22.155
3.675	21.867
3.66	21.568
3.644	21.156
3.629	20.713
3.614	20.116
3.599	19.539
3.584	19.127
3.569	18.643
3.554	18.015
3.54	17.582
3.525	17.026
3.511	16.284
3.497	15.831
3.483	15.337
3.469	15.007
3.455	14.657
3.441	14.183
3.428	13.483
3.414	12.947
3.401	12.69
3.387	12.412
3.374	12.195
3.361	11.886
3.348	11.515
3.335	11.382
3.322	11.011
3.309	10.599
3.297	10.547
3.284	10.176
3.272	9.909
3.259	9.63
3.247	9.527
3.235	9.198
3.223	9.012
3.211	8.868
3.199	8.611
3.187	8.467
3.176	8.075
3.164	7.88
3.152	7.704
3.141	7.468
3.13	7.128
3.118	7.097
3.107	6.932
3.096	6.819
3.085	6.695
3.074	6.489
3.063	6.479
3.052	6.52
3.042	6.139
3.031	6.355
3.02	6.149
3.01	6.118
2.999	5.871
2.989	5.923
2.979	5.819
2.968	5.593
2.958	5.644
2.948	5.304
2.938	5.49
2.928	5.572
2.918	5.624
2.909	5.603
2.899	5.819
2.889	5.614
2.879	6.015
2.87	5.696
2.86	5.84
2.851	6.108
2.842	6.221
2.832	6.273
2.823	6.252
2.814	6.324
2.805	6.54
2.796	6.468
2.787	6.221
2.778	5.716
2.769	5.85
2.76	4.47
2.751	6.118
2.742	5.799
2.734	5.552
2.725	5.912
2.717	5.923
2.708	4.254
2.7	7.437
2.691	14.049
2.683	20.373
2.675	24.535
2.666	28.686
2.658	30.035
2.65	32.095
2.642	33.712
2.634	34.587
2.626	35.463
2.618	36.029
2.61	36.586
2.602	36.771
2.594	37.523
2.586	37.595
2.579	37.719
2.571	38.038
2.563	38.048
2.556	38.234
2.548	38.172
2.541	38.852
2.533	38.779
2.526	39.202
2.519	39.428
2.511	39.573
2.504	39.83
2.488	40.402
2.464	41.925
2.44	43.64
2.416	45.857
2.392	46.777
2.368	48.136
2.344	48.917
2.32	49.548
2.296	50.468
2.272	51.055
2.248	51.022
2.224	50.468
2.2	49.206
2.176	51.449
2.152	53.207
2.128	55.221
2.104	54.863
2.08	54.928
2.056	55.025
2.032	54.593
2.008	53.74
1.984	52.493
1.96	51.205
1.936	49.74
1.912	48.74
1.888	54.434
1.864	57.971
1.84	58.491
1.816	58.418
1.792	58.587
1.768	58.774
1.744	59.041
1.72	59.237
1.696	59.347
1.672	59.401
1.648	59.499
1.624	59.459
1.6	59.494
1.576	59.366
1.552	59.154
1.528	58.875
1.504	58.459
1.48	57.982
1.456	57.464
1.432	56.86
1.408	55.519
1.384	57.833
1.36	58.624
1.336	59.394
1.312	59.203
1.288	59.206
1.264	59
1.24	58.761
1.216	58.395
1.192	57.783
1.168	57.029
1.144	56.13
1.12	54.867
1.096	53.526
1.072	51.95
1.048	50.119
1.024	47.864
1	44.862
0.976	41.56
0.952	38.358
0.928	35.633
0.904	34.219
0.88	33.394
0.856	32.812
0.832	33.194
0.808	34.182
0.784	35.679
0.76	36.994
0.736	37.085
0.712	35.462
0.688	32.9
0.664	30.603
0.64	28.909
0.616	27.074
0.592	23.131
0.568	17.466
0.544	14.074
0.52	12.926
0.496	12.408
0.472	11.973
0.448	11.408
0.424	10.805
0.4	10.497
