Name: Pink Quartzite
Type: rock
Class: Metamorphic
Subclass: Quartzite
Particle Size: Coarse
Sample No.: qtzite3
Owner: JHU
Wavelength Range: All
Origin: Sample No. 379, The Hunt and Salisbury Collection at the U.S.Geological Survey, Denver, Co.
Description: A medium-grained quartzite composed of subrounded equant quartz with some secondary silica (chalcedony) and quartz deposition; sometimes the chalcedony is pseudomorphic to quartz grains.  These quartz grains contain numerous fluid inclusions, are often strained and occasionally show pressure solution effects.  Ferric material (plus clay?) is scattered throughout the sample giving this rock its reddish hue. Particle size was 500-1500 Micrometer.   Original ASTER Spectral Library name was jhu.becknic.rock.metamorphic.quartzite.coarse.qrtzit3.spectrum.txt
Measurement: Directional (10 Degree) Hemispherical Reflectance
X Units: Wavelength (micrometers)
Y Units: Reflectance (percent)
wavelength	value
14.9831	2.1676
14.6445	2.86
14.3209	2.3516
14.0112	2.6104
13.7147	3.1103
13.4304	3.5129
13.1577	4.3131
12.8959	7.0571
12.6443	5.6994
12.4023	4.5265
12.1694	1.3787
11.945	2.1148
11.7289	2.6208
11.5203	2.9524
11.3191	3.2943
11.1248	3.5835
10.937	3.9075
10.7555	4.1606
10.5799	4.5646
10.4099	4.953
10.2454	5.5164
10.0859	6.1605
9.9313	7.0552
9.7814	8.2796
9.636	10.2326
9.4948	13.6631
9.3577	24.6518
9.2245	29.6553
9.095	29.4793
8.9691	28.5451
8.8467	28.6251
8.7275	26.4357
8.6116	19.826
8.4986	27.5978
8.3886	27.9544
8.2814	29.2333
8.1769	29.7114
8.075	19.5058
7.9756	11.0629
7.8786	5.2682
7.784	2.8605
7.6916	1.5417
7.6014	0.8604
7.5133	0.6264
7.4272	0.5492
7.343	0.4698
7.2607	0.5414
7.1803	0.5676
7.1016	0.6273
7.0246	0.6569
6.9493	0.7026
6.8755	0.7502
6.8034	0.7268
6.7327	0.7862
6.6634	0.8021
6.5956	0.8613
6.5292	0.8594
6.464	1.0297
6.4002	1.0455
6.3376	0.9773
6.2762	0.9302
6.216	0.9151
6.157	0.9759
6.099	1.096
6.0421	1.1621
5.9863	1.1547
5.9315	1.1651
5.8777	1.2577
5.8249	1.4334
5.773	1.6437
5.722	1.8041
5.6719	1.6719
5.6227	1.4098
5.5744	1.4181
5.5268	1.4713
5.4801	1.5848
5.4341	1.6165
5.3889	1.4557
5.3445	1.3998
5.3008	1.4185
5.2578	1.4822
5.2154	1.6603
5.1738	1.7209
5.1328	1.7077
5.0925	1.693
5.0528	1.6729
5.0137	1.6999
4.9752	1.7648
4.9373	2.0075
4.9	2.8285
4.8632	5.6033
4.827	8.249
4.7913	10.5215
4.7561	12.4148
4.7215	13.149
4.6873	10.2901
4.6536	12.9635
4.6205	17.0631
4.5877	18.7089
4.5555	17.7448
4.5237	13.045
4.4923	8.6478
4.4614	7.9883
4.4309	9.5046
4.4008	11.5725
4.3711	15.0385
4.3418	18.1893
4.3129	18.7444
4.2844	18.1543
4.2563	19.6055
4.2285	19.8539
4.2011	20.225
4.174	21.5429
4.1473	23.0798
4.1209	24.8934
4.0949	27.1677
4.0692	28.9491
4.0438	29.2986
4.0187	29.044
3.994	29.4092
3.9695	30.8355
3.9453	32.6382
3.9214	33.6693
3.8979	33.2241
3.8746	32.0248
3.8515	31.4375
3.8288	31.883
3.8063	32.4532
3.7841	31.9931
3.7621	30.7799
3.7404	30.0282
3.7189	30.6056
3.6977	31.9919
3.6767	33.6965
3.656	34.5375
3.6355	34.4112
3.6152	33.9146
3.5951	33.4652
3.5753	33.1537
3.5557	32.8546
3.5363	32.3353
3.5171	31.5742
3.4981	30.8758
3.4793	30.1431
3.4607	29.0762
3.4423	27.9132
3.4241	26.6787
3.4061	25.3715
3.3883	24.2961
3.3707	23.0479
3.3533	21.9857
3.336	20.8978
3.3189	19.6979
3.302	18.4662
3.2853	17.3285
3.2687	16.2176
3.2523	15.2031
3.2361	14.1905
3.22	13.2053
3.204	12.3073
3.1883	11.4309
3.1727	10.6702
3.1572	9.965
3.1419	9.2972
3.1268	8.6971
3.1117	8.1808
3.0969	7.7766
3.0821	7.4332
3.0675	7.1514
3.0531	6.8478
3.0388	6.5188
3.0246	6.1987
3.0105	6.0523
2.9966	5.9393
2.9828	5.7118
2.9692	5.1342
2.9556	4.8412
2.9422	5.2009
2.9289	5.4749
2.9157	5.5166
2.9027	5.8046
2.8897	6.0739
2.8769	6.0999
2.8642	6.6763
2.8516	7.0737
2.8391	7.4358
2.8267	7.7794
2.8144	8.254
2.8022	8.5382
2.7902	8.46
2.7782	8.9585
2.7664	8.555
2.7546	10.58
2.7429	11.2182
2.7314	13.2522
2.7199	16.117
2.7085	15.1908
2.6973	22.3092
2.6861	32.7232
2.675	38.7755
2.664	42.7123
2.6531	45.3109
2.6423	46.9755
2.6315	48.2711
2.6209	49.2146
2.6103	49.6136
2.5999	49.9686
2.5895	50.1036
2.5792	49.8969
2.569	50.2523
2.5588	50.9665
2.5487	51.4101
2.5388	52.1509
2.5289	52.643
2.519	52.947
2.5093	53.2968
2.4996	53.7603
2.49	54.1396
2.4805	55.1471
2.471	55.8954
2.4616	56.4971
2.4523	57.1332
2.4431	57.8262
2.4339	58.929
2.4248	59.9071
2.4157	60.6454
2.4068	61.0916
2.3979	61.1108
2.389	60.8216
2.3802	60.8264
2.3715	61.7194
2.3629	62.0157
2.3543	62.1094
2.3458	62.6245
2.3373	63.0458
2.3289	62.7526
2.3206	62.8921
2.3123	63.0648
2.3041	63.5282
2.2959	63.7499
2.2878	63.9966
2.2798	64.1001
2.2718	64.3116
2.2638	64.3419
2.2559	64.3931
2.2481	64.2216
2.2403	64.1802
2.2326	64.2917
2.225	63.8792
2.2173	62.5146
2.2098	56.3757
2.2023	60.2628
2.1948	61.1214
2.1874	62.3114
2.18	63.1574
2.1727	63.32
2.1655	63.3627
2.1583	63.6762
2.1511	64.9448
2.144	66.7297
2.1369	67.6668
2.1299	68.1357
2.1229	68.2273
2.116	68.274
2.1091	68.5073
2.1023	68.6084
2.0955	68.5932
2.0887	68.4945
2.082	68.5819
2.06	68.4255
2.028	67.7308
1.996	67.0867
1.964	64.7921
1.932	63.5178
1.9	62.9276
1.868	69.3535
1.836	70.2615
1.804	70.6914
1.772	71.085
1.74	70.6993
1.708	71.0755
1.676	70.0786
1.644	70.3044
1.612	69.9432
1.58	69.749
1.548	69.2877
1.516	68.5476
1.484	67.6416
1.452	66.9731
1.42	66.1166
1.388	64.2041
1.356	67.66
1.324	68.0312
1.292	67.9436
1.26	67.1204
1.228	65.9558
1.196	65.6901
1.164	64.2315
1.132	63.2742
1.1	61.5655
1.068	59.4352
1.036	56.5003
1.004	54.5564
0.972	50.6126
0.94	46.1004
0.908	42.6396
0.876	40.5191
0.844	39.9269
0.812	40.336
0.795	40.9345
0.787	40.7024
0.779	41.1534
0.771	41.7138
0.763	41.5273
0.755	41.783
0.747	41.9016
0.739	41.4144
0.731	41.4788
0.723	40.6508
0.715	39.9443
0.707	38.9949
0.699	37.8432
0.691	36.9527
0.683	36.0614
0.675	35.2957
0.667	33.9584
0.659	33.2573
0.651	32.2941
0.643	31.351
0.635	30.4145
0.627	29.7128
0.619	28.5843
0.611	26.9484
0.603	25.4536
0.595	23.8701
0.587	21.9779
0.579	19.7818
0.571	18.2695
0.563	16.2339
0.555	15.0135
0.547	13.8322
0.539	13.4047
0.531	12.92
0.523	12.6451
0.515	12.2438
0.507	11.9996
0.499	11.9295
0.491	11.8824
0.483	11.7226
0.475	11.5816
0.467	11.1305
0.459	11.1804
0.451	11.1179
0.443	10.9751
0.435	10.5536
0.427	10.0931
0.419	10.1245
0.411	10.0991
0.403	9.7825
