Name: Diabase Porphyry
Type: Rock
Class: Igneous
Subclass: Mafic
Particle Size: Solid
Sample No.: Ward38
Owner: JPL
Wavelength Range: All
Origin: Ward's Collection of American Rocks.  Sample locality - Cape Ann, Essex County, Massachusetts.
Description: A porphyritic rock consisting of large greenish-grayplagioclase phenocrysts in a dark green groundmass.Geologic Age - Triassic (?).Collected by:  Ward's Natural Science Original ASTER Spectral Library name was jpl.nicolet.rock.igneous.mafic.solid.ward38.spectrum.txt
Measurement: Hemispherical reflectance
X Units: Wavelength (micrometers)
Y Units: Reflectance (percent)
wavelength	value
15.3871	4.5882
15.118	3.4935
14.8581	3.5505
14.6069	3.6878
14.3642	4.0712
14.1293	4.368
13.9021	4.6717
13.682	4.5851
13.4687	4.8556
13.2621	4.5009
13.0616	3.9285
12.8672	4.0904
12.6784	4.0475
12.4951	4.0091
12.317	4.7424
12.1439	5.2797
11.9757	5.841
11.812	6.4382
11.6527	7.0707
11.4977	7.5607
11.3468	8.5937
11.1997	9.557
11.0564	10.6932
10.9168	11.9825
10.7806	12.7803
10.6478	13.8823
10.5182	15.0127
10.3917	15.4391
10.2683	16.2961
10.1477	17.8356
10.0299	19.037
9.9148	19.632
9.8024	17.4826
9.6925	17.4677
9.585	16.6814
9.4798	13.9344
9.377	12.4205
9.2763	11.0457
9.1778	10.6618
9.0814	10.5337
8.987	10.7727
8.8945	10.6765
8.8039	11.4956
8.7151	11.5033
8.6281	10.6014
8.5428	9.8457
8.4592	9.3327
8.3772	8.9101
8.2967	7.0361
8.2179	4.4373
8.1404	2.8452
8.0645	1.9477
7.9899	1.4836
7.9167	1.3232
7.8449	1.3707
7.7743	1.2955
7.705	1.4554
7.6369	1.4209
7.57	1.4442
7.5043	1.5523
7.4397	1.5638
7.3762	1.6629
7.3138	1.814
7.2524	1.8378
7.1921	1.9553
7.1327	2.0715
7.0743	2.134
7.0169	2.2306
6.9604	2.2916
6.9047	2.2012
6.85	2.2924
6.7962	2.3306
6.7431	2.5315
6.6909	2.5904
6.6395	2.6453
6.5889	2.6853
6.539	2.7767
6.49	2.7327
6.4416	2.7359
6.3939	2.8669
6.347	2.7908
6.3007	2.7802
6.2551	2.9432
6.2101	2.8217
6.1658	2.9626
6.1222	2.9114
6.0791	2.8793
6.0366	3.1512
5.9948	3.0198
5.9535	2.992
5.9127	2.9729
5.8726	3.0641
5.8329	3.0896
5.7938	3.207
5.7552	3.2062
5.7172	3.11
5.6796	3.4142
5.6425	3.4752
5.6059	3.5399
5.5698	3.5548
5.5341	3.6527
5.4989	3.6756
5.4641	3.8544
5.4298	3.8758
5.3959	3.9953
5.3624	4.0346
5.3294	4.1282
5.2967	4.086
5.2644	4.2471
5.2326	4.3738
5.2011	4.3349
5.17	4.4223
5.1392	4.563
5.1088	4.6619
5.0788	4.6881
5.0491	4.8659
5.0198	4.9592
4.9908	5.0019
4.9622	5.1429
4.9338	5.247
4.9058	5.4022
4.8781	5.4261
4.8508	5.5725
4.8237	5.5976
4.7969	5.6141
4.7704	5.8184
4.7443	5.8741
4.7184	6.0366
4.6927	6.132
4.6674	6.3807
4.6423	6.6038
4.6175	6.6878
4.593	6.9987
4.5687	7.2168
4.5447	7.4087
4.5209	7.6185
4.4974	7.9718
4.4741	8.1611
4.451	8.4465
4.4282	8.7451
4.4057	8.8119
4.3833	9.1299
4.3612	9.332
4.3393	9.623
4.3176	9.9602
4.2962	9.9865
4.2749	10.2286
4.2539	10.6242
4.233	10.6291
4.2124	10.888
4.192	11.0354
4.1717	11.1954
4.1517	11.3358
4.1319	11.5073
4.1122	11.5224
4.0927	11.5912
4.0734	11.5919
4.0543	11.6967
4.0354	11.7522
4.0166	11.7581
3.9981	11.6997
3.9796	11.8585
3.9614	11.8476
3.9433	11.9337
3.9254	11.948
3.9077	11.9904
3.8901	12.1615
3.8726	12.0313
3.8554	12.1117
3.8382	12.1544
3.8213	11.948
3.8045	11.9043
3.7878	11.9373
3.7713	11.9343
3.7549	11.9187
3.7386	11.8072
3.7225	11.9002
3.7066	11.6807
3.6907	11.6385
3.675	11.431
3.6595	11.2919
3.644	11.159
3.6287	11.232
3.6136	10.965
3.5985	11.032
3.5836	10.7506
3.5688	10.6231
3.5541	10.4566
3.5396	10.1479
3.5251	10.0797
3.5108	9.8436
3.4966	9.6503
3.4825	9.5767
3.4685	9.2306
3.4547	9.3102
3.4409	9.2685
3.4273	8.9061
3.4137	8.8641
3.4003	8.8558
3.387	8.5726
3.3738	8.6186
3.3606	8.3726
3.3476	8.439
3.3347	8.4912
3.3219	8.2784
3.3092	8.1635
3.2965	7.9245
3.284	7.893
3.2716	8.0567
3.2593	7.8521
3.247	7.7155
3.2348	7.7774
3.2228	7.539
3.2108	7.4777
3.1989	7.3459
3.1871	7.2451
3.1754	7.3032
3.1638	6.9695
3.1523	6.8383
3.1408	6.7952
3.1294	7.0292
3.1181	6.5963
3.1069	6.5991
3.0958	6.546
3.0848	6.7734
3.0738	6.7078
3.0629	6.2481
3.0521	6.7942
3.0413	6.5991
3.0307	6.9122
3.0201	6.1038
3.0096	6.4511
2.9991	6.3747
2.9887	6.6129
2.9784	6.1899
2.9682	6.4917
2.9581	6.351
2.948	6.1953
2.9379	6.5387
2.928	6.8167
2.9181	6.317
2.9083	6.002
2.8985	5.8005
2.8888	6.7024
2.8792	6.4062
2.8697	6.8168
2.8602	6.5603
2.8507	6.521
2.8413	6.7951
2.832	6.3556
2.8228	6.1919
2.8136	6.2448
2.8045	6.8721
2.7954	7.4443
2.7864	6.9107
2.7774	6.4676
2.7685	6.4234
2.7597	6.8977
2.7509	7.3666
2.7422	6.825
2.7335	7.226
2.7249	7.8038
2.7163	8.3852
2.7078	9.234
2.6994	10.4395
2.691	13.0276
2.6826	14.9678
2.6743	16.045
2.666	16.7773
2.6578	17.0825
2.6497	17.3219
2.6416	17.7324
2.6336	17.77
2.6256	18.0925
2.6176	17.5205
2.6097	18.0157
2.6018	18.4334
2.594	18.4886
2.5863	18.3993
2.5785	18.5561
2.5709	18.4964
2.5633	18.8861
2.5557	19.2145
2.5481	18.9612
2.5406	18.8349
2.5332	19.0273
2.5258	18.623
2.5184	18.6932
2.5111	18.8583
2.5038	18.7501
2.4966	18.7652
2.4894	18.8305
2.4823	19.1654
2.4752	18.8023
2.4681	18.6979
2.4611	19.4651
2.4541	19.3902
2.4471	18.8964
2.4402	19.3949
2.4333	19.2663
2.4265	19.6595
2.4197	19.3055
2.413	19.0239
2.4063	19.7081
2.3996	19.5693
2.3929	19.3048
2.3863	19.3177
2.3798	19.253
2.3732	19.5848
2.3667	19.3655
2.3603	19.1272
2.3538	19.5849
2.3474	18.8128
2.3411	18.9222
2.3347	19.5416
2.3285	19.6415
2.3222	20.2601
2.316	20.3803
2.3098	20.0938
2.3036	20.794
2.2975	20.1797
2.2914	20.4451
2.2854	20.8152
2.2793	20.3397
2.2733	21.1386
2.2674	20.4121
2.2614	21.2196
2.2555	20.9807
2.2497	21.0976
2.2438	21.281
2.238	20.9749
2.2322	21.8133
2.2265	20.6554
2.2208	21.2444
2.2151	20.9842
2.2094	20.4162
2.2038	20.6248
2.1982	20.5375
2.1926	20.7451
2.187	20.8124
2.1815	20.9974
2.176	21.5542
2.1706	21.2854
2.1651	21.3166
2.1597	21.6271
2.1543	22.1294
2.149	22.5034
2.1436	21.3142
2.1383	20.9754
2.1331	22.5826
2.1278	21.9277
2.1226	21.7471
2.1174	22.4429
2.1122	23.2405
2.1071	22.5758
2.1019	21.704
2.0968	21.0367
2.0918	22.3131
2.0867	21.1934
2.0817	21.9291
2.0767	22.408
2.0717	21.8294
2.0667	21.7196
2.0618	22.3262
2.0569	21.6779
2.052	21.6413
2.0472	21.9984
2.0423	22.4737
2.0375	21.7865
2.0327	23.2558
2.028	22.2196
2.0232	21.0244
2.0185	22.0833
2.0138	20.7443
2.0091	22.4123
2.0044	21.8465
1.9998	21.9194
