Name: Pink Quartzite
Type: rock
Class: Metamorphic
Subclass: Quartzite
Particle Size: Fine
Sample No.: qtzite3
Owner: JHU
Wavelength Range: All
Origin: Sample No. 379, The Hunt and Salisbury Collection at the U.S.Geological Survey, Denver, Co.
Description: A medium-grained quartzite composed of subrounded equant quartz with some secondary silica (chalcedony) and quartz deposition; sometimes the chalcedony is pseudomorphic to quartz grains.  These quartz grains contain numerous fluid inclusions, are often strained and occasionally show pressure solution effects.  Ferric material (plus clay?) is scattered throughout the sample giving this rock its reddish hue. Particle size was 0-75 Micrometer.   Original ASTER Spectral Library name was jhu.becknic.rock.metamorphic.quartzite.fine.qrtzit3.spectrum.txt
Measurement: Directional (10 Degree) Hemispherical Reflectance
X Units: Wavelength (micrometers)
Y Units: Reflectance (percent)
wavelength	value
14.983	11.293
14.645	7.5769
14.321	2.0522
14.011	8.6748
13.715	10.893
13.43	10.024
13.158	6.5866
12.896	3.1731
12.644	2.3997
12.402	1.6551
12.169	2.6729
11.945	7.4642
11.729	10.849
11.52	12.364
11.319	13.455
11.125	13.448
10.937	12.866
10.755	12.525
10.58	11.286
10.41	10.666
10.245	9.4222
10.086	7.6205
9.9313	6.6678
9.7814	5.8261
9.636	4.6674
9.4948	4.7986
9.3577	7.8083
9.2245	8.398
9.095	7.9767
8.9691	7.6295
8.8467	7.2139
8.7275	6.4547
8.6116	4.8223
8.4986	6.3729
8.3886	6.1636
8.2814	7.0183
8.1769	9.1051
8.075	7.6169
7.9756	5.6746
7.8786	3.4653
7.784	2.4432
7.6916	1.8791
7.6014	1.1824
7.5133	0.785
7.4272	0.6022
7.343	0.6413
7.2607	0.9456
7.1803	1.568
7.1016	2.4648
7.0246	3.3386
6.9493	4.7311
6.8755	5.51
6.8034	5.5732
6.7327	5.0219
6.6634	5.6878
6.5956	5.896
6.5292	6.5252
6.464	11.781
6.4002	12.836
6.3376	9.56
6.2762	6.3405
6.216	4.7955
6.157	6.9283
6.099	11.648
6.0421	13.221
5.9863	11.757
5.9315	9.835
5.8777	13.858
5.8249	18.62
5.773	22.581
5.722	25.184
5.6719	22.135
5.6227	14.278
5.5744	12.454
5.5268	14.684
5.4801	18.806
5.4341	18.863
5.3889	10.452
5.3445	6.8755
5.3008	7.6986
5.2578	11.206
5.2154	18.699
5.1738	20.199
5.1328	19.261
5.0925	18.206
5.0528	16.306
5.0137	15.978
4.9752	18.794
4.9373	24.525
4.9	33.813
4.8632	46.326
4.827	52.314
4.7913	55.994
4.7561	58.475
4.7215	59.421
4.6873	55.912
4.6536	59.392
4.6205	63.447
4.5877	64.849
4.5555	64.071
4.5237	59.621
4.4923	53.595
4.4614	52.432
4.4309	55.053
4.4008	57.975
4.3711	61.858
4.3418	64.652
4.3129	65.165
4.2844	64.782
4.2563	65.963
4.2285	66.022
4.2011	66.313
4.174	67.216
4.1473	68.185
4.1209	69.297
4.0949	70.543
4.0692	71.414
4.0438	71.582
4.0187	71.462
3.994	71.613
3.9695	72.197
3.9453	73
3.9214	73.392
3.8979	73.217
3.8746	72.676
3.8515	72.423
3.8288	72.535
3.8063	72.693
3.7841	72.454
3.7621	71.879
3.7404	71.483
3.7189	71.58
3.6977	72.043
3.6767	72.536
3.656	72.686
3.6355	72.487
3.6152	72.141
3.5951	71.799
3.5753	71.487
3.5557	71.208
3.5363	70.803
3.5171	70.146
3.4981	69.224
3.4793	69.07
3.4607	68.579
3.4423	67.743
3.4241	66.592
3.4061	65.837
3.3883	65.524
3.3707	64.849
3.3533	64.267
3.336	63.502
3.3189	62.693
3.302	61.738
3.2853	60.831
3.2687	59.866
3.2523	58.956
3.2361	58.004
3.22	56.997
3.204	55.972
3.1883	54.941
3.1727	53.942
3.1572	52.908
3.1419	51.879
3.1268	50.841
3.1117	49.958
3.0969	49.092
3.0821	48.323
3.0675	47.621
3.0531	46.926
3.0388	46.073
3.0246	45.22
3.0105	44.629
2.9966	44.378
2.9828	43.625
2.9692	41.654
2.9556	40.441
2.9422	41.811
2.9289	42.398
2.9157	42.727
2.9027	43.519
2.8897	44.132
2.8769	44.048
2.8642	45.576
2.8516	46.476
2.8391	47.089
2.8267	47.636
2.8144	48.505
2.8022	48.944
2.7902	48.674
2.7782	48.984
2.7664	44.783
2.7546	48.801
2.7429	49.309
2.7314	50.337
2.7199	53.158
2.7085	48.699
2.6973	58.534
2.6861	70.143
2.675	73.335
2.664	76.783
2.6531	78.399
2.6423	79.173
2.6315	79.327
2.6209	79.662
2.6103	79.943
2.5999	80.09
2.5895	80.105
2.5792	80.06
2.569	80.148
2.5588	80.401
2.5487	80.546
2.5388	80.747
2.5289	80.854
2.519	80.988
2.5093	81.041
2.4996	81.15
2.49	81.247
2.4805	81.463
2.471	81.584
2.4616	81.688
2.4523	81.836
2.4431	81.935
2.4339	82.139
2.4248	82.31
2.4157	82.458
2.4068	82.474
2.3979	82.486
2.389	82.437
2.3802	82.453
2.3715	82.551
2.3629	82.553
2.3543	82.596
2.3458	82.656
2.3373	82.639
2.3289	82.632
2.3206	82.634
2.3123	82.616
2.3041	82.679
2.2959	82.681
2.2878	82.696
2.2798	82.685
2.2718	82.652
2.2638	82.62
2.2559	82.561
2.2481	82.573
2.2403	82.484
2.2326	82.507
2.225	82.418
2.2173	82.219
2.2098	81.092
2.2023	81.763
2.1948	81.982
2.1874	82.152
2.18	82.396
2.1727	82.48
2.1655	82.457
2.1583	82.524
2.1511	82.727
2.144	82.996
2.1369	83.108
2.1299	83.08
2.1229	83.051
2.116	83.116
2.1091	83.03
2.1023	83.098
2.0955	83.034
2.0887	83.012
2.082	83.08
2.06	82.653
2.028	81.656
1.996	80.499
1.964	79.48
1.932	78.705
1.9	79.49
1.868	79.731
1.836	79.848
1.804	79.11
1.772	78.593
1.74	78.737
1.708	78.76
1.676	78.861
1.644	78.284
1.612	77.016
1.58	78.802
1.548	76.978
1.516	76.769
1.484	76.573
1.452	76.365
1.42	76.344
1.388	75.651
1.356	75.927
1.324	75.489
1.292	74.595
1.26	74.619
1.228	74.268
1.196	73.46
1.164	72.597
1.132	72.155
1.1	71.689
1.068	70.284
1.036	70.91
1.004	69.894
0.972	68.468
0.94	67.297
0.908	66.392
0.876	64.841
0.844	63.87
0.812	64.139
0.795	63.452
0.787	63.341
0.779	63.268
0.771	63.008
0.763	63.086
0.755	63.489
0.747	62.782
0.739	62.516
0.731	62.621
0.723	61.969
0.715	61.979
0.707	61.014
0.699	61.844
0.691	61.347
0.683	60.646
0.675	60.711
0.667	59.861
0.659	59.786
0.651	58.838
0.643	58.668
0.635	57.891
0.627	57.388
0.619	57.108
0.611	56.348
0.603	54.225
0.595	53.589
0.587	51.869
0.579	50.01
0.571	48.229
0.563	45.529
0.555	41.617
0.547	39.686
0.539	38.347
0.531	36.94
0.523	36.38
0.515	35.626
0.507	34.733
0.499	34.359
0.491	33.916
0.483	33.245
0.475	32.53
0.467	31.764
0.459	32.469
0.451	31.422
0.443	30.462
0.435	30.176
0.427	29.176
0.419	28.664
0.411	27.922
0.403	27.584
