Name: Garnet Gneiss
Type: rock
Class: Metamorphic
Subclass: Gneis
Particle Size: Fine
Sample No.: gneiss2
Owner: JHU
Wavelength Range: All
Origin: Sample No. 466, The Hunt and Salisbury Collection at the U.S.Geological Survey, Denver, Co.
Description: This is a very coarse-grained rock composed of porphyroblasts of garnet frequently enclosing embayed remnants of tectosilicates and opaques.  Larger grains of heavily altered alkali feldspar (oligoclase and K-spar) and quartz make up the bulk of the remainder of this rock.Particle size was 0-75 Micrometer. Original ASTER Spectral Library name was jhu.becknic.rock.metamorphic.gneiss.fine.gneiss2.spectrum.txt
Measurement: Directional (10 Degree) Hemispherical Reflectance
X Units: Wavelength (micrometers)
Y Units: Reflectance (percent)
wavelength	value
14.983	2.8172
14.645	3.274
14.321	3.2446
14.011	3.866
13.715	3.8014
13.43	3.6993
13.158	3.4087
12.896	3.4187
12.644	3.3564
12.402	3.5825
12.169	4.0922
11.945	4.773
11.729	5.3821
11.52	6.1072
11.319	5.5211
11.125	5.5022
10.937	4.9928
10.755	3.6714
10.58	3.4125
10.41	4.4552
10.245	4.8767
10.086	4.7927
9.9313	4.8327
9.7814	4.6792
9.636	4.459
9.4948	4.2577
9.3577	4.873
9.2245	5.4186
9.095	5.2952
8.9691	5.231
8.8467	5.2827
8.7275	5.1176
8.6116	4.7432
8.4986	5.8704
8.3886	6.3199
8.2814	7.06
8.1769	7.7832
8.075	6.8733
7.9756	6.2202
7.8786	5.9176
7.784	6.2446
7.6916	6.8575
7.6014	7.2582
7.5133	7.7803
7.4272	8.2457
7.343	8.6485
7.2607	9.1416
7.1803	9.8435
7.1016	10.765
7.0246	11.507
6.9493	12.194
6.8755	12.422
6.8034	12.486
6.7327	12.574
6.6634	13.021
6.5956	13.443
6.5292	14.071
6.464	15.374
6.4002	15.627
6.3376	15.234
6.2762	14.383
6.216	13.644
6.157	14.346
6.099	15.589
6.0421	16.05
5.9863	16.153
5.9315	15.793
5.8777	16.613
5.8249	16.922
5.773	16.34
5.722	15.978
5.6719	15.184
5.6227	14.141
5.5744	14.042
5.5268	14.847
5.4801	16.32
5.4341	17.369
5.3889	16.479
5.3445	15.852
5.3008	16.535
5.2578	18.216
5.2154	20.823
5.1738	22.237
5.1328	23.211
5.0925	24.094
5.0528	24.569
5.0137	25.185
4.9752	26.73
4.9373	28.757
4.9	31.02
4.8632	33.27
4.827	34.313
4.7913	35.067
4.7561	35.891
4.7215	36.629
4.6873	36.95
4.6536	37.855
4.6205	38.972
4.5877	39.898
4.5555	40.669
4.5237	41.059
4.4923	41.111
4.4614	41.566
4.4309	42.351
4.4008	43.09
4.3711	43.662
4.3418	43.857
4.3129	44.535
4.2844	45.078
4.2563	45.632
4.2285	46.003
4.2011	46.313
4.174	46.624
4.1473	46.948
4.1209	47.232
4.0949	47.511
4.0692	47.737
4.0438	47.923
4.0187	48.003
3.994	48.104
3.9695	48.221
3.9453	48.435
3.9214	48.547
3.8979	48.559
3.8746	48.495
3.8515	48.433
3.8288	48.352
3.8063	48.307
3.7841	48.179
3.7621	48.002
3.7404	47.819
3.7189	47.679
3.6977	47.584
3.6767	47.461
3.656	47.3
3.6355	47.075
3.6152	46.801
3.5951	46.495
3.5753	46.175
3.5557	45.807
3.5363	45.461
3.5171	45.048
3.4981	44.568
3.4793	44.234
3.4607	43.863
3.4423	43.361
3.4241	42.826
3.4061	42.237
3.3883	41.739
3.3707	41.148
3.3533	40.515
3.336	39.843
3.3189	39.151
3.302	38.454
3.2853	37.695
3.2687	36.889
3.2523	36.053
3.2361	35.159
3.22	34.286
3.204	33.27
3.1883	32.235
3.1727	31.118
3.1572	29.95
3.1419	28.72
3.1268	27.486
3.1117	26.34
3.0969	25.201
3.0821	24.147
3.0675	23.133
3.0531	22.13
3.0388	21.17
3.0246	20.247
3.0105	19.396
2.9966	18.59
2.9828	17.833
2.9692	17.16
2.9556	16.695
2.9422	16.371
2.9289	16.327
2.9157	16.499
2.9027	16.73
2.8897	17.09
2.8769	17.328
2.8642	17.489
2.8516	17.417
2.8391	17.162
2.8267	16.942
2.8144	16.952
2.8022	16.907
2.7902	16.395
2.7782	14.544
2.7664	12.468
2.7546	11.938
2.7429	14.225
2.7314	18.503
2.7199	26.507
2.7085	34.346
2.6973	39.062
2.6861	44.319
2.675	46.017
2.664	46.763
2.6531	47.854
2.6423	48.095
2.6315	47.723
2.6209	47.598
2.6103	47.646
2.5999	47.534
2.5895	47.564
2.5792	47.736
2.569	47.725
2.5588	47.8
2.5487	47.854
2.5388	47.865
2.5289	47.762
2.519	47.719
2.5093	47.534
2.4996	47.427
2.49	47.367
2.4805	47.264
2.471	47.145
2.4616	47.064
2.4523	46.868
2.4431	46.802
2.4339	46.774
2.4248	46.87
2.4157	46.994
2.4068	47.091
2.3979	47.078
2.389	46.905
2.3802	46.772
2.3715	46.622
2.3629	46.494
2.3543	46.357
2.3458	46.296
2.3373	46.521
2.3289	46.819
2.3206	47.077
2.3123	47.354
2.3041	47.585
2.2959	47.689
2.2878	47.768
2.2798	47.733
2.2718	47.617
2.2638	47.448
2.2559	47.409
2.2481	47.606
2.2403	47.785
2.2326	47.758
2.225	47.595
2.2173	47.275
2.2098	46.994
2.2023	47.045
2.1948	47.257
2.1874	47.662
2.18	48.115
2.1727	48.511
2.1655	48.656
2.1583	48.794
2.1511	48.884
2.144	49.01
2.1369	49.069
2.1299	49.08
2.1229	49.138
2.116	49.184
2.1091	49.275
2.1023	49.335
2.0955	49.364
2.0887	49.448
2.082	49.527
2.06	49.451
2.028	48.905
1.996	48.459
1.964	48.166
1.932	47.379
1.9	47.637
1.868	47.572
1.836	47.796
1.804	46.934
1.772	45.984
1.74	46.271
1.708	46.315
1.676	46.342
1.644	46.351
1.612	45.926
1.58	46.584
1.548	46.105
1.516	46.301
1.484	45.575
1.452	45.073
1.42	44.501
1.388	42.966
1.356	42.633
1.324	42.013
1.292	41.388
1.26	41.544
1.228	42.277
1.196	42.659
1.164	43.232
1.132	44.014
1.1	44.566
1.068	45.286
1.036	46.102
1.004	46.123
0.972	46.109
0.94	45.748
0.908	44.785
0.876	44.045
0.844	43.609
0.812	43.4
0.795	44.231
0.787	44.154
0.779	44.403
0.771	44.116
0.763	44.208
0.755	43.798
0.747	43.646
0.739	43.506
0.731	43.599
0.723	43.074
0.715	43.147
0.707	42.93
0.699	43.48
0.691	43.233
0.683	43.133
0.675	43.35
0.667	43.288
0.659	43.223
0.651	42.755
0.643	43.044
0.635	42.294
0.627	41.919
0.619	42.656
0.611	42.313
0.603	41.707
0.595	41.835
0.587	41.591
0.579	40.971
0.571	40.641
0.563	40.678
0.555	40.724
0.547	40.567
0.539	40.445
0.531	39.408
0.523	39.068
0.515	38.929
0.507	38.451
0.499	37.656
0.491	37.554
0.483	36.776
0.475	36.06
0.467	35.479
0.459	34.741
0.451	34.01
0.443	33.405
0.435	33.051
0.427	31.94
0.419	30.637
0.411	29.449
0.403	28.497
