Name: Pink Marble
Type: Rock
Class: Metamorphic
Subclass: Marble
Particle Size: Solid
Sample No.: Ward96
Owner: JPL
Wavelength Range: VSWIR
Origin: Ward's Collection of American Rocks.  Sample locality - Tate, Pickens County, Georgia.  Collected by - JPL.
Description: A pinkish rock composed chiefly of granular pick calcitewith occasional bands of mica.  Geologic age -  CambrianCollected by:  Ward's Natural Science Original ASTER Spectral Library name was jpl.perkin.rock.metamorphic.marble.solid.ward96.spectrum.txt
Measurement: Hemispherical reflectance
X Units: Wavelength (micrometers)
Y Units: Reflectance (percent)
wavelength	value
2.5	13.6562
2.494	13.9273
2.488	14.2586
2.482	14.8219
2.476	15.2702
2.47	16.2023
2.464	17.0991
2.458	18.1239
2.452	19.1031
2.446	19.9656
2.44	20.5698
2.434	21.4068
2.428	22.0732
2.422	22.6805
2.416	23.3594
2.41	23.6719
2.404	23.8862
2.398	24.0087
2.392	23.9104
2.386	23.771
2.38	23.275
2.374	22.475
2.368	21.3987
2.362	20.1345
2.356	18.6714
2.35	17.2668
2.344	16.2922
2.338	15.868
2.332	15.8761
2.326	16.3557
2.32	16.9403
2.314	17.4921
2.308	17.9192
2.302	18.3009
2.296	18.6416
2.29	19.1034
2.284	19.6425
2.278	20.4235
2.272	21.2652
2.266	22.0072
2.26	22.6257
2.254	23.1844
2.248	23.5366
2.242	24.0645
2.236	24.5004
2.23	24.9489
2.224	25.1926
2.218	25.3714
2.212	25.6629
2.206	25.9107
2.2	26.3916
2.194	26.7815
2.188	27.2056
2.182	27.34
2.176	27.4097
2.17	27.3105
2.164	27.2729
2.158	27.2171
2.152	27.3035
2.146	27.5539
2.14	28.0165
2.134	28.3565
2.128	28.4839
2.122	28.5528
2.116	28.5911
2.11	28.5772
2.104	28.6222
2.098	28.6954
2.092	28.8698
2.086	28.8787
2.08	29.0149
2.074	29.043
2.068	29.0547
2.062	29.0562
2.056	29.0225
2.05	29.0526
2.044	29.0169
2.038	28.9124
2.032	28.8367
2.026	28.6563
2.02	28.4169
2.014	28.0798
2.008	27.609
2.002	26.9987
1.996	26.5947
1.99	26.8531
1.984	27.2972
1.978	27.5482
1.972	27.6903
1.966	27.8425
1.96	28.0037
1.954	28.2343
1.948	28.531
1.942	28.7908
1.936	28.8999
1.93	29.1185
1.924	29.2021
1.918	29.2813
1.912	29.3447
1.906	29.4562
1.9	29.3327
1.894	29.2483
1.888	28.9893
1.882	28.439
1.876	28.1338
1.87	28.5024
1.864	28.7768
1.858	29.1492
1.852	29.2998
1.846	29.4785
1.84	29.703
1.834	29.8084
1.828	29.8803
1.822	30.0518
1.816	30.107
1.81	30.104
1.804	30.25
1.798	30.2402
1.792	30.2909
1.786	30.3052
1.78	30.466
1.774	30.4179
1.768	30.3222
1.762	30.2669
1.756	30.2001
1.75	30.2501
1.744	30.2485
1.738	30.2786
1.732	30.2597
1.726	30.3343
1.72	30.3306
1.714	30.3773
1.708	30.4635
1.702	30.4573
1.696	30.4692
1.69	30.4477
1.684	30.4768
1.678	30.4104
1.672	30.3412
1.666	30.3297
1.66	30.2528
1.654	30.1197
1.648	30.2457
1.642	30.2368
1.636	30.2113
1.63	30.2094
1.624	30.1542
1.618	30.2279
1.612	30.128
1.606	30.1426
1.6	30.1927
1.594	30.1487
1.588	30.0956
1.582	30.094
1.576	30.0516
1.57	30.0185
1.564	29.9732
1.558	30.0428
1.552	30.02
1.546	29.9851
1.54	30.0119
1.534	29.9548
1.528	29.9347
1.522	29.9246
1.516	29.94
1.51	29.8531
1.504	29.8631
1.498	29.8741
1.492	29.8372
1.486	29.8112
1.48	29.8049
1.474	29.8286
1.468	29.8241
1.462	29.8323
1.456	29.8791
1.45	29.8457
1.444	29.8226
1.438	29.713
1.432	29.5245
1.426	29.2555
1.42	29.0847
1.414	29.0276
1.408	29.3211
1.402	29.7734
1.396	30.2364
1.39	30.4467
1.384	30.6162
1.378	30.5512
1.372	30.783
1.366	30.8039
1.36	30.7839
1.354	30.8119
1.348	30.8128
1.342	30.8779
1.336	30.9552
1.33	30.9548
1.324	30.9738
1.318	31.0511
1.312	31.0842
1.306	31.0833
1.3	31.1541
1.294	31.1894
1.288	31.2994
1.282	31.2948
1.276	31.3487
1.27	31.3509
1.264	31.4157
1.258	31.4632
1.252	31.4505
1.246	31.3973
1.24	31.453
1.234	31.4641
1.228	31.4742
1.222	31.4063
1.216	31.4791
1.21	31.5324
1.204	31.4835
1.198	31.4872
1.192	31.4942
1.186	31.5167
1.18	31.4784
1.174	31.4673
1.168	31.5188
1.162	31.483
1.156	31.5903
1.15	31.6065
1.144	31.5584
1.138	31.5406
1.132	31.6164
1.126	31.7007
1.12	31.7505
1.114	31.7268
1.108	31.8875
1.102	31.8548
1.096	31.9955
1.09	32.0188
1.084	32.1138
1.078	32.2171
1.072	32.3834
1.066	32.5295
1.06	32.5477
1.054	32.6338
1.048	32.8861
1.042	32.9201
1.036	33.128
1.03	33.3163
1.024	33.3947
1.018	33.6422
1.012	33.7126
1.006	33.9754
1	34.0584
0.994	34.2047
0.988	34.4172
0.982	34.5622
0.976	34.6992
0.97	34.862
0.964	34.9738
0.958	35.2236
0.952	35.417
0.946	35.5519
0.94	35.6763
0.934	35.8465
0.928	36.0712
0.922	36.2976
0.916	36.499
0.91	36.6953
0.904	36.9264
0.898	37.1485
0.892	37.3925
0.886	37.6615
0.88	37.9023
0.874	38.1481
0.868	38.4124
0.862	38.628
0.856	39.5573
0.85	39.655
0.844	39.7825
0.838	39.91
0.832	40.0401
0.826	40.1421
0.82	40.2569
0.814	40.3479
0.808	40.3878
0.802	40.4358
0.796	40.4779
0.79	40.5566
0.784	40.6282
0.778	40.7106
0.772	40.7381
0.766	40.7989
0.76	40.8343
0.754	40.8665
0.748	40.8927
0.742	40.9108
0.736	40.9221
0.73	40.9394
0.724	40.9282
0.718	40.9043
0.712	40.8684
0.706	40.8307
0.7	40.79
0.694	40.7318
0.688	40.6741
0.682	40.6255
0.676	40.6029
0.67	40.5632
0.664	40.4848
0.658	40.4333
0.652	40.3744
0.646	40.3162
0.64	40.2716
0.634	40.2165
0.628	40.162
0.622	40.1135
0.616	40.0547
0.61	39.9867
0.604	39.8864
0.598	39.7584
0.592	39.5633
0.586	39.247
0.58	38.8239
0.574	38.2802
0.568	37.6545
0.562	36.9915
0.556	36.2707
0.55	35.6889
0.544	35.1849
0.538	34.8053
0.532	34.4641
0.526	34.1733
0.52	33.9087
0.514	33.6582
0.508	33.4004
0.502	33.1067
0.496	32.8061
0.49	32.473
0.484	32.1162
0.478	31.867
0.472	31.5946
0.466	31.2678
0.46	30.8817
0.454	30.3668
0.448	29.7242
0.442	29.2288
0.436	28.8764
0.43	28.4355
0.424	27.9446
0.418	27.4391
0.412	26.8679
0.406	26.2311
0.4	25.5234
