Name: Quartz-Sericite Schist
Type: Rock
Class: Metamorphic
Subclass: Schist
Particle Size: Solid
Sample No.: Ward90
Owner: JPL
Wavelength Range: All
Origin: Ward's Collection of American Rocks.  Sample locality - Edge Hill, Montgomery County, Pennsylvania.  Collected by - JPL.
Description: A thinly laminated rock consisting principally of quartzwith a small amount of white mica and a few black specks of a metallicmineral.  Geologic age - CambrianCollected by:  Ward's Natural Science Original ASTER Spectral Library name was jpl.nicolet.rock.metamorphic.schist.solid.ward90.spectrum.txt
Measurement: Hemispherical reflectance
X Units: Wavelength (micrometers)
Y Units: Reflectance (percent)
wavelength	value
15.3871	2.9559
15.118	3.32
14.8581	3.0736
14.6069	3.4718
14.3642	2.8575
14.1293	3.0375
13.9021	3.8312
13.682	4.1197
13.4687	4.3138
13.2621	4.3881
13.0616	5.2455
12.8672	7.0281
12.6784	6.0401
12.4951	6.8971
12.317	3.5937
12.1439	4.2232
11.9757	4.9936
11.812	5.5793
11.6527	6.2165
11.4977	6.4936
11.3468	6.6472
11.1997	7.0494
11.0564	7.6973
10.9168	7.7271
10.7806	6.954
10.6478	7.2124
10.5182	7.9268
10.3917	9.0877
10.2683	10.5226
10.1477	11.8168
10.0299	13.5547
9.9148	16.1405
9.8024	16.2039
9.6925	22.4988
9.585	26.842
9.4798	25.5789
9.377	27.8271
9.2763	33.1236
9.1778	33.3198
9.0814	29.3065
8.987	23.209
8.8945	27.0374
8.8039	24.8424
8.7151	21.1906
8.6281	16.1871
8.5428	20.2316
8.4592	21.8318
8.3772	23.004
8.2967	24.4011
8.2179	25.1463
8.1404	21.5421
8.0645	14.3314
7.9899	9.468
7.9167	6.145
7.8449	4.4769
7.7743	3.69
7.705	3.2049
7.6369	2.6958
7.57	2.7079
7.5043	2.5389
7.4397	2.5863
7.3762	2.6052
7.3138	2.6719
7.2524	2.8657
7.1921	3.2872
7.1327	3.3572
7.0743	3.5108
7.0169	3.7374
6.9604	3.9555
6.9047	4.2079
6.85	4.3859
6.7962	4.5273
6.7431	4.6455
6.6909	4.8404
6.6395	5.3212
6.5889	5.3316
6.539	5.3784
6.49	6.1997
6.4416	6.3483
6.3939	6.5576
6.347	6.4455
6.3007	6.1297
6.2551	5.8841
6.2101	5.6257
6.1658	5.9059
6.1222	6.0936
6.0791	6.5229
6.0366	6.3913
5.9948	6.1772
5.9535	5.9086
5.9127	5.9946
5.8726	6.3739
5.8329	6.7639
5.7938	7.0791
5.7552	7.4196
5.7172	7.7747
5.6796	7.632
5.6425	7.2049
5.6059	6.9465
5.5698	7.0499
5.5341	7.0353
5.4989	7.3359
5.4641	7.8552
5.4298	7.9225
5.3959	7.4327
5.3624	7.3142
5.3294	7.4999
5.2967	7.987
5.2644	8.3342
5.2326	9.147
5.2011	9.9245
5.17	10.133
5.1392	10.4281
5.1088	10.6061
5.0788	10.7387
5.0491	10.7852
5.0198	10.9639
4.9908	11.1892
4.9622	11.9113
4.9338	12.7868
4.9058	14.2054
4.8781	16.9293
4.8508	19.2114
4.8237	20.81
4.7969	22.1527
4.7704	23.2882
4.7443	24.3089
4.7184	24.6728
4.6927	23.5479
4.6674	24.3878
4.6423	26.9629
4.6175	29.4293
4.593	30.7252
4.5687	31.3177
4.5447	30.7723
4.5209	28.35
4.4974	25.8882
4.4741	25.2296
4.451	26.2104
4.4282	27.5329
4.4057	29.4037
4.3833	31.5475
4.3612	34.0413
4.3393	35.6305
4.3176	35.5856
4.2962	34.3866
4.2749	34.3003
4.2539	36.4144
4.233	34.3231
4.2124	36.6611
4.192	38.3287
4.1717	39.2146
4.1517	40.0989
4.1319	40.8937
4.1122	41.9968
4.0927	43.1447
4.0734	44.0957
4.0543	44.3697
4.0354	44.3653
4.0166	44.0147
3.9981	44.3152
3.9796	44.7694
3.9614	45.5794
3.9433	46.3673
3.9254	46.7454
3.9077	47.0683
3.8901	46.7102
3.8726	46.0777
3.8554	45.9149
3.8382	46.0065
3.8213	46.3927
3.8045	46.573
3.7878	46.2367
3.7713	45.5695
3.7549	44.8939
3.7386	44.4109
3.7225	44.4811
3.7066	44.2754
3.6907	44.9182
3.675	46.0696
3.6595	46.3673
3.644	46.7891
3.6287	46.7822
3.6136	46.9682
3.5985	46.7168
3.5836	46.4183
3.5688	46.5296
3.5541	46.1985
3.5396	45.9962
3.5251	45.7414
3.5108	44.5154
3.4966	44.1031
3.4825	44.1438
3.4685	43.9985
3.4547	44.0291
3.4409	43.1029
3.4273	41.7375
3.4137	40.4896
3.4003	40.3419
3.387	40.3598
3.3738	39.286
3.3606	39.7023
3.3476	39.6328
3.3347	39.1905
3.3219	38.8434
3.3092	38.1609
3.2965	37.6536
3.284	37.0305
3.2716	36.2799
3.2593	35.6986
3.247	35.1076
3.2348	34.6754
3.2228	34.1093
3.2108	33.6446
3.1989	32.9836
3.1871	32.2104
3.1754	31.5762
3.1638	31.2647
3.1523	30.6386
3.1408	30.0584
3.1294	29.325
3.1181	28.9675
3.1069	28.8036
3.0958	28.5065
3.0848	27.9665
3.0738	27.8381
3.0629	27.852
3.0521	27.0431
3.0413	26.7872
3.0307	27.0262
3.0201	27.3516
3.0096	27.1228
2.9991	27.002
2.9887	27.1025
2.9784	26.6469
2.9682	25.8135
2.9581	25.957
2.948	25.4821
2.9379	25.652
2.928	25.1907
2.9181	25.0969
2.9083	24.5065
2.8985	24.6754
2.8888	25.0967
2.8792	25.2126
2.8697	25.5186
2.8602	25.5599
2.8507	25.206
2.8413	24.5449
2.832	22.3652
2.8228	20.0907
2.8136	16.12
2.8045	12.9277
2.7954	11.8699
2.7864	9.3017
2.7774	8.5509
2.7685	8.2667
2.7597	6.3424
2.7509	7.8409
2.7422	8.0719
2.7335	8.2012
2.7249	10.1885
2.7163	15.0594
2.7078	13.6983
2.6994	16.836
2.691	24.3381
2.6826	30.5729
2.6743	34.2868
2.666	38.251
2.6578	39.8595
2.6497	41.0551
2.6416	42.5459
2.6336	43.4001
2.6256	44.3349
2.6176	45.2469
2.6097	45.1683
2.6018	45.6236
2.594	46.9131
2.5863	46.5183
2.5785	47.2168
2.5709	48.2434
2.5633	48.2364
2.5557	48.1385
2.5481	47.5291
2.5406	47.549
2.5332	48.0826
2.5258	47.9639
2.5184	47.4127
2.5111	46.8496
2.5038	46.8474
2.4966	46.9157
2.4894	46.2919
2.4823	46.3909
2.4752	46.3651
2.4681	46.7616
2.4611	45.4904
2.4541	45.9376
2.4471	45.7947
2.4402	45.9102
2.4333	47.0609
2.4265	47.221
2.4197	48.938
2.413	48.6454
2.4063	49.3372
2.3996	49.6216
2.3929	48.154
2.3863	47.3053
2.3798	47.8356
2.3732	48.4128
2.3667	49.3224
2.3603	48.9314
2.3538	49.3682
2.3474	49.8003
2.3411	50.9625
2.3347	52.3988
2.3285	53.4876
2.3222	55.1371
2.316	56.5498
2.3098	58.0133
2.3036	58.6889
2.2975	59.4448
2.2914	60.0336
2.2854	59.4225
2.2793	60.3098
2.2733	59.3361
2.2674	58.7308
2.2614	58.629
2.2555	56.5326
2.2497	53.8035
2.2438	53.1599
2.238	52.1381
2.2322	52.475
2.2265	53.0124
2.2208	51.5517
2.2151	48.0032
2.2094	43.2992
2.2038	47.2991
2.1982	49.9567
2.1926	51.9729
2.187	56.2513
2.1815	58.1383
2.176	59.1976
2.1706	59.8768
2.1651	59.5669
2.1597	60.4082
2.1543	61.3406
2.149	63.7375
2.1436	65.5638
2.1383	66.5162
2.1331	66.1995
2.1278	67.0719
2.1226	67.845
2.1174	67.1602
2.1122	68.0851
2.1071	69.0465
2.1019	70.033
2.0968	69.5648
2.0918	70.9488
2.0867	70.695
2.0817	71.4046
2.0767	72.2317
2.0717	72.5688
2.0667	71.6697
2.0618	72.3987
2.0569	70.8605
2.052	72.952
2.0472	72.5395
2.0423	71.9664
2.0375	73.5117
2.0327	72.3807
2.028	74.3178
2.0232	75.2115
2.0185	73.7556
2.0138	73.2543
2.0091	73.1604
2.0044	73.7266
1.9998	74.371
