Name: Picrite
Type: rock
Class: Igneous
Subclass: Ultramafic
Particle Size: Fine
Sample No.: Picrite_H2
Owner: JHU
Wavelength Range: All
Origin: from Kilauea, via Rosalind Helz, USGS, Reston, VA (Cat. No.79-5-180.8)
Description: Powder derived from sample that was light gray porphyritic, slightly vesicular rock.  Green olivine  phenocrysts range in size from approx. 0.5 mm to 4.0 mm and make up about 2-3% of the rock.  The grayish groundmass is very fine-grained.Particle size was 0-75 micrometers. Original ASTER Spectral Library name was jhu.becknic.rock.igneous.ultramafic.fine.picrit2.spectrum.txt
Measurement: Directional (10 degree) hemispherical reflectance
X Units: Wavelength (micrometers)
Y Units: Reflectance (percent)
wavelength	value
14.011	2.6632
13.715	2.7715
13.43	3.5205
13.158	3.6724
12.896	3.7992
12.644	4.1906
12.402	4.6613
12.169	4.6172
11.945	3.7275
11.729	3.768
11.52	4.394
11.319	4.938
11.125	4.8246
10.937	4.845
10.755	4.9428
10.58	4.673
10.41	3.8925
10.245	3.8288
10.086	3.4148
9.9313	3.4863
9.7814	3.4673
9.636	3.4592
9.4948	3.4617
9.3577	3.4055
9.2245	3.1955
9.095	3.1737
8.9691	3.0363
8.8467	2.6337
8.7275	2.1924
8.6116	2.1792
8.4986	2.3023
8.3886	2.6102
8.2814	2.9831
8.1769	3.2775
8.075	3.9039
7.9756	4.8314
7.8786	5.9316
7.784	7.0636
7.6916	8.219
7.6014	9.2909
7.5133	10.473
7.4272	11.737
7.343	12.94
7.2607	13.817
7.1803	14.703
7.1016	15.575
7.0246	16.55
6.9493	17.447
6.8755	18.069
6.8034	18.414
6.7327	18.493
6.6634	18.206
6.5956	18.08
6.5292	17.992
6.464	18.064
6.4002	18.401
6.3376	18.743
6.2762	19.056
6.216	19.244
6.157	19.305
6.099	19.128
6.0421	18.521
5.9863	18.903
5.9315	20.054
5.8777	21.051
5.8249	21.944
5.773	22.885
5.722	22.99
5.6719	22.409
5.6227	22.797
5.5744	24.162
5.5268	24.897
5.4801	25.09
5.4341	25.507
5.3889	26.116
5.3445	26.518
5.3008	26.634
5.2578	26.823
5.2154	27.391
5.1738	27.971
5.1328	28.609
5.0925	29.151
5.0528	29.844
5.0137	30.778
4.9752	31.698
4.9373	33.006
4.9	34.583
4.8632	35.928
4.827	37.106
4.7913	38.145
4.7561	39.213
4.7215	40.332
4.6873	41.506
4.6536	42.713
4.6205	43.962
4.5877	45.171
4.5555	46.229
4.5237	47.177
4.4923	47.883
4.4614	48.463
4.4309	48.951
4.4008	49.426
4.3711	49.845
4.3418	50.25
4.3129	50.693
4.2844	51.03
4.2563	51.406
4.2285	51.718
4.2011	52.033
4.174	52.313
4.1473	52.555
4.1209	52.773
4.0949	52.929
4.0692	53.078
4.0438	53.222
4.0187	53.315
3.994	53.472
3.9695	53.66
3.9453	53.765
3.9214	53.901
3.8979	53.979
3.8746	54.049
3.8515	54.133
3.8288	54.213
3.8063	54.246
3.7841	54.307
3.7621	54.311
3.7404	54.363
3.7189	54.366
3.6977	54.374
3.6767	54.366
3.656	54.333
3.6355	54.311
3.6152	54.275
3.5951	54.162
3.5753	54.114
3.5557	54.018
3.5363	53.9
3.5171	53.576
3.4981	53.155
3.4793	53.204
3.4607	53.146
3.4423	52.826
3.4241	52.272
3.4061	52.201
3.3883	52.392
3.3707	52.388
3.3533	52.57
3.336	52.618
3.3189	52.483
3.302	52.322
3.2853	52.16
3.2687	51.901
3.2523	51.703
3.2361	51.529
3.22	51.231
3.2041	51.011
3.1883	50.753
3.1727	50.558
3.1572	50.282
3.1419	50.01
3.1268	49.823
3.1117	49.581
3.0969	49.306
3.0821	49.145
3.0675	48.966
3.0531	48.778
3.0388	48.608
3.0246	48.431
3.0105	48.162
2.9966	47.961
2.9828	47.72
2.9692	47.57
2.9556	47.351
2.9422	47.206
2.9289	47.109
2.9157	47.026
2.9027	46.918
2.8897	46.842
2.8769	46.846
2.8642	46.814
2.8516	46.819
2.8391	46.913
2.8267	46.978
2.8144	47.131
2.8022	47.365
2.7902	47.545
2.7782	47.886
2.7664	48.452
2.7546	49.209
2.7429	50.354
2.7314	51.726
2.7199	52.93
2.7085	53.803
2.6973	54.415
2.6861	54.69
2.675	54.743
2.664	54.706
2.6531	54.603
2.6423	54.488
2.6315	54.228
2.6209	54.028
2.6103	53.778
2.5999	53.492
2.5895	53.278
2.5792	52.969
2.569	52.71
2.5588	52.45
2.5487	52.167
2.5388	51.837
2.5289	51.534
2.519	51.275
2.5093	50.984
2.4996	50.741
2.49	50.497
2.4805	50.179
2.471	49.878
2.4616	49.694
2.4523	49.45
2.4431	49.153
2.4339	48.936
2.4248	48.771
2.4157	48.535
2.4068	48.333
2.3979	48.18
2.389	48.007
2.3802	47.825
2.3715	47.721
2.3629	47.623
2.3543	47.508
2.3458	47.448
2.3373	47.379
2.3289	47.298
2.3206	47.208
2.3123	47.133
2.3041	47.12
2.2959	47.015
2.2878	46.971
2.2798	46.944
2.2718	46.895
2.2638	46.874
2.2559	46.925
2.2481	46.882
2.2403	46.877
2.2326	46.934
2.225	46.963
2.2173	46.983
2.2098	47.008
2.2023	47.079
2.1948	47.139
2.1874	47.153
2.18	47.215
2.1727	47.206
2.1655	47.344
2.1583	47.355
2.1511	47.485
2.144	47.488
2.1369	47.604
2.1299	47.691
2.1229	47.731
2.116	47.761
2.1091	47.85
2.1023	47.975
2.0955	48.091
2.0887	48.081
2.082	48.147
2.06	47.879
2.028	47.691
1.996	46.933
1.964	46.521
1.932	46.362
1.9	46.264
1.868	46.074
1.836	46.063
1.804	46.748
1.772	46.295
1.74	46.663
1.708	46.761
1.676	46.748
1.644	46.495
1.612	46.222
1.58	45.668
1.548	45.031
1.516	44.811
1.484	43.228
1.452	42.436
1.42	41.452
1.388	39.33
1.356	38.547
1.324	37.793
1.292	36.472
1.26	35.025
1.228	34.385
1.196	33.249
1.164	32.44
1.132	30.778
1.1	28.42
1.068	26.844
1.036	25.381
1.004	25.177
0.972	25.89
0.94	27.35
0.908	29.103
0.876	30.312
0.844	31.328
0.812	32.203
0.795	32.538
0.787	32.815
0.779	33.133
0.771	33.118
0.763	33.504
0.755	33.458
0.747	33.329
0.739	33.612
0.731	33.451
0.723	33.578
0.715	33.318
0.707	33.478
0.699	33.181
0.691	33.353
0.683	33.089
0.675	33.104
0.667	32.988
0.659	33.004
0.651	32.92
0.643	32.555
0.635	32.472
0.627	32.537
0.619	32.62
0.611	32.253
0.603	32.134
0.595	32.231
0.587	31.776
0.579	31.344
0.571	32.437
0.563	32.335
0.555	30.914
0.547	30.347
0.539	30.19
0.531	30.102
0.523	29.864
0.515	28.997
0.507	28.378
0.499	27.824
0.491	27.151
0.483	26.935
0.475	26.183
0.467	25.453
0.459	25.869
0.451	25.254
0.443	25.11
0.435	24.587
0.427	24.411
0.419	23.616
0.411	23.314
0.403	22.49
