Name: Hypersthene Gabbro (Norite)
Type: Rock
Class: Igneous
Subclass: Mafic
Particle Size: Solid
Sample No.: Ward40
Owner: JPL
Wavelength Range: All
Origin: Ward's Collection of American Rocks.  Sample locality - Elizabethtown, Essex County, New York.
Description: A brownish-black, granular rock composed of hypersthene,plagioclase, garnet and magnetite.Geologic age - Pre-Cambrian.Collected by:  Ward's Natural Science Original ASTER Spectral Library name was jpl.nicolet.rock.igneous.mafic.solid.ward40.spectrum.txt
Measurement: Hemispherical reflectance
X Units: Wavelength (micrometers)
Y Units: Reflectance (percent)
wavelength	value
15.3871	5.5128
15.118	4.3928
14.8581	3.903
14.6069	4.2765
14.3642	4.4086
14.1293	4.5958
13.9021	4.8036
13.682	5.2776
13.4687	5.2238
13.2621	4.9257
13.0616	5.2165
12.8672	5.2916
12.6784	5.3055
12.4951	5.4405
12.317	6.2429
12.1439	6.8872
11.9757	8.0772
11.812	8.5506
11.6527	9.9037
11.4977	11.1366
11.3468	11.6532
11.1997	12.7556
11.0564	13.3811
10.9168	13.5724
10.7806	13.3448
10.6478	14.3462
10.5182	15.8979
10.3917	17.5769
10.2683	17.9586
10.1477	18.5899
10.0299	18.6826
9.9148	19.2922
9.8024	18.852
9.6925	17.4888
9.585	15.361
9.4798	13.555
9.377	11.9709
9.2763	10.9584
9.1778	10.9299
9.0814	11.5556
8.987	11.4609
8.8945	10.9518
8.8039	10.2429
8.7151	9.8038
8.6281	9.416
8.5428	8.8149
8.4592	8.5123
8.3772	7.7527
8.2967	6.7727
8.2179	4.385
8.1404	3.0015
8.0645	2.6313
7.9899	2.3278
7.9167	2.2647
7.8449	2.2319
7.7743	2.2934
7.705	2.5199
7.6369	2.6473
7.57	2.6244
7.5043	2.6455
7.4397	2.8662
7.3762	3.0701
7.3138	3.3039
7.2524	3.3893
7.1921	3.6669
7.1327	3.822
7.0743	3.9992
7.0169	4.0564
6.9604	4.099
6.9047	3.9413
6.85	4.1057
6.7962	4.0686
6.7431	4.1642
6.6909	4.2376
6.6395	4.2738
6.5889	4.2656
6.539	4.2097
6.49	4.1916
6.4416	4.0242
6.3939	3.7954
6.347	3.69
6.3007	3.5804
6.2551	3.3566
6.2101	3.3155
6.1658	3.5053
6.1222	3.5069
6.0791	3.5106
6.0366	3.4164
5.9948	3.3724
5.9535	3.402
5.9127	3.3312
5.8726	3.4264
5.8329	3.39
5.7938	3.4249
5.7552	3.4913
5.7172	3.5798
5.6796	3.6199
5.6425	3.6971
5.6059	3.6594
5.5698	3.9441
5.5341	3.8751
5.4989	3.9158
5.4641	4.1218
5.4298	4.0763
5.3959	4.1382
5.3624	4.2527
5.3294	4.2706
5.2967	4.4552
5.2644	4.3446
5.2326	4.335
5.2011	4.5434
5.17	4.6552
5.1392	4.7724
5.1088	4.784
5.0788	5.1177
5.0491	5.075
5.0198	5.2667
4.9908	5.3588
4.9622	5.3422
4.9338	5.4599
4.9058	5.6451
4.8781	5.6469
4.8508	5.6528
4.8237	5.8784
4.7969	5.8545
4.7704	6.008
4.7443	6.017
4.7184	6.2042
4.6927	6.2875
4.6674	6.2906
4.6423	6.4187
4.6175	6.6543
4.593	6.8995
4.5687	7.0835
4.5447	7.0281
4.5209	7.3531
4.4974	7.5691
4.4741	7.5043
4.451	7.6844
4.4282	7.8447
4.4057	8.0561
4.3833	8.069
4.3612	8.3501
4.3393	8.4082
4.3176	8.4383
4.2962	8.7234
4.2749	8.6155
4.2539	8.9858
4.233	8.9637
4.2124	9.1429
4.192	9.1696
4.1717	9.0808
4.1517	9.4201
4.1319	9.3675
4.1122	9.3786
4.0927	9.4166
4.0734	9.5217
4.0543	9.2984
4.0354	9.4681
4.0166	9.5111
3.9981	9.4782
3.9796	9.427
3.9614	9.4307
3.9433	9.5733
3.9254	9.5213
3.9077	9.7548
3.8901	9.7731
3.8726	9.6578
3.8554	9.6391
3.8382	9.7207
3.8213	9.7852
3.8045	9.8031
3.7878	9.6095
3.7713	9.814
3.7549	9.7105
3.7386	9.5593
3.7225	9.6964
3.7066	9.6314
3.6907	9.6351
3.675	9.6
3.6595	9.6077
3.644	9.6367
3.6287	9.5453
3.6136	9.364
3.5985	9.2585
3.5836	9.3457
3.5688	9.1438
3.5541	9.2711
3.5396	9.0282
3.5251	8.7232
3.5108	8.7405
3.4966	8.463
3.4825	8.6415
3.4685	8.2759
3.4547	8.1562
3.4409	8.2364
3.4273	8.17
3.4137	8.3
3.4003	8.1197
3.387	7.9612
3.3738	8.006
3.3606	7.8189
3.3476	7.9085
3.3347	8.043
3.3219	7.5875
3.3092	7.6657
3.2965	7.6144
3.284	7.5025
3.2716	7.799
3.2593	7.3834
3.247	7.3377
3.2348	7.339
3.2228	7.4143
3.2108	6.8141
3.1989	7.0602
3.1871	6.7952
3.1754	6.9269
3.1638	6.671
3.1523	6.8328
3.1408	6.5787
3.1294	6.501
3.1181	6.0628
3.1069	6.7037
3.0958	5.8632
3.0848	6.5062
3.0738	6.6168
3.0629	6.1641
3.0521	6.0719
3.0413	6.4021
3.0307	6.2021
3.0201	6.4
3.0096	5.9524
2.9991	5.8603
2.9887	6.2058
2.9784	5.533
2.9682	5.7495
2.9581	5.6542
2.948	5.881
2.9379	5.9586
2.928	5.5096
2.9181	6.0228
2.9083	6.0194
2.8985	5.3509
2.8888	5.0995
2.8792	6.1456
2.8697	5.4131
2.8602	6.0704
2.8507	5.3774
2.8413	5.3177
2.832	5.7329
2.8228	5.5669
2.8136	5.6757
2.8045	5.1081
2.7954	6.1964
2.7864	5.8065
2.7774	5.1775
2.7685	5.1963
2.7597	5.2069
2.7509	5.4472
2.7422	5.5875
2.7335	5.7437
2.7249	6.023
2.7163	7.1319
2.7078	6.8213
2.6994	7.303
2.691	7.9462
2.6826	8.2359
2.6743	8.0308
2.666	8.214
2.6578	8.1055
2.6497	8.1834
2.6416	8.3163
2.6336	7.9866
2.6256	8.6164
2.6176	8.2651
2.6097	8.6106
2.6018	8.2747
2.594	7.9825
2.5863	8.794
2.5785	8.289
2.5709	7.9039
2.5633	8.3575
2.5557	8.2345
2.5481	7.5212
2.5406	7.7934
2.5332	8.2204
2.5258	7.8279
2.5184	8.0473
2.5111	7.906
2.5038	8.1932
2.4966	7.8146
2.4894	8.2512
2.4823	7.4926
2.4752	7.874
2.4681	7.4885
2.4611	8.1368
2.4541	7.7871
2.4471	8.7225
2.4402	8.2286
2.4333	8.2694
2.4265	7.0613
2.4197	7.5556
2.413	7.9242
2.4063	8.3541
2.3996	8.0058
2.3929	8.2221
2.3863	7.4938
2.3798	8.5841
2.3732	7.9089
2.3667	7.9368
2.3603	8.169
2.3538	7.9166
2.3474	7.4834
2.3411	6.8777
2.3347	7.4666
2.3285	7.7603
2.3222	7.5735
2.316	7.9643
2.3098	7.68
2.3036	8.1951
2.2975	8.0185
2.2914	7.9278
2.2854	6.9497
2.2793	8.5278
2.2733	7.6471
2.2674	7.6216
2.2614	7.7592
2.2555	7.2706
2.2497	8.4598
2.2438	8.1951
2.238	8.2109
2.2322	8.8347
2.2265	7.5239
2.2208	8.4397
2.2151	7.4837
2.2094	8.5426
2.2038	9.0316
2.1982	7.1871
2.1926	7.9561
2.187	7.1542
2.1815	8.0389
2.176	7.7475
2.1706	7.7569
2.1651	7.5494
2.1597	8.2268
2.1543	6.9428
2.149	8.6168
2.1436	7.7968
2.1383	8.1155
2.1331	8.2849
2.1278	9.0086
2.1226	6.9396
2.1174	7.9776
2.1122	7.3472
2.1071	7.4668
2.1019	7.6373
2.0968	7.9767
2.0918	7.5317
2.0867	8.8193
2.0817	8.1528
2.0767	8.6043
2.0717	9.1642
2.0667	7.488
2.0618	7.8078
2.0569	9.3155
2.052	8.9689
2.0472	8.0452
2.0423	8.4394
2.0375	9.8777
2.0327	8.7959
2.028	6.0403
2.0232	8.5282
2.0185	6.5947
2.0138	9.6208
2.0091	6.9505
2.0044	8.1093
1.9998	9.5026
