Name: Tourmaline Schist
Type: rock
Class: Metamorphic
Subclass: Schist
Particle Size: Coarse
Sample No.: schist4
Owner: JHU
Wavelength Range: All
Origin: Sample No. 468, The Hunt and Salisbury Collection at the U.S.Geological Survey, Denver, Co.
Description: This is a very coarse-grained rock containing euhedral brown tourmaline poikiloblastically enclosing quartz remnants, large subhedra of muscovite enclosing remnants of tourmaline or much lesser quartz, and recrystallized quartz.  Magnetite occurs scattered throughout this rock as well.  Modes were 35% quartz, 33% tourmaline, 30.6% muscovite and 1.4% opaques.   Particle size was 500-1500 Micrometer. Original ASTER Spectral Library name was jhu.becknic.rock.metamorphic.schist.coarse.schist4.spectrum.txt
Measurement: Directional (10 Degree) Hemispherical Reflectance
X Units: Wavelength (micrometers)
Y Units: Reflectance (percent)
wavelength	value
14.9831	2.6199
14.6445	2.1801
14.3209	2.9469
14.0112	3.4729
13.7147	2.3698
13.4304	2.7329
13.1577	3.2406
12.8959	4.8064
12.6443	4.8123
12.4023	3.5392
12.1694	2.8259
11.945	3.3526
11.7289	3.6777
11.5203	4.0789
11.3191	4.5372
11.1248	5.0034
10.937	5.5725
10.7555	6.3585
10.5799	7.4824
10.4099	9.6012
10.2454	11.2023
10.0859	12.2408
9.9313	13.7173
9.7814	15.9313
9.636	20.0071
9.4948	21.3011
9.3577	20.1774
9.2245	16.4499
9.095	19.1243
8.9691	18.8316
8.8467	14.5471
8.7275	10.503
8.6116	6.8371
8.4986	7.9014
8.3886	7.5047
8.2814	7.3186
8.1769	6.8913
8.075	4.9177
7.9756	3.5243
7.8786	2.5948
7.784	2.214
7.6916	1.9623
7.6014	1.729
7.5133	1.774
7.4272	1.9788
7.343	1.815
7.2607	1.4619
7.1803	1.2208
7.1016	1.1973
7.0246	1.1481
6.9493	1.2506
6.8755	1.379
6.8034	1.5078
6.7327	1.6184
6.6634	1.7432
6.5956	1.8112
6.5292	1.8929
6.464	1.9926
6.4002	2.0655
6.3376	2.0698
6.2762	2.07
6.216	2.1164
6.157	2.1306
6.099	2.1122
6.0421	2.062
5.9863	2.0207
5.9315	2.0229
5.8777	2.1148
5.8249	2.2599
5.773	2.3208
5.722	2.3338
5.6719	2.3416
5.6227	2.3485
5.5744	2.4025
5.5268	2.4432
5.4801	2.5453
5.4341	2.6744
5.3889	2.6677
5.3445	2.6585
5.3008	2.7236
5.2578	2.9117
5.2154	3.1906
5.1738	3.6114
5.1328	3.9127
5.0925	4.0244
5.0528	4.0486
5.0137	4.0555
4.9752	4.0998
4.9373	4.1959
4.9	4.4107
4.8632	4.9066
4.827	5.3215
4.7913	5.7051
4.7561	6.2193
4.7215	6.7822
4.6873	6.9501
4.6536	7.7834
4.6205	8.5981
4.5877	8.913
4.5555	8.8775
4.5237	8.4543
4.4923	7.9674
4.4614	8.0551
4.4309	8.6149
4.4008	9.2531
4.3711	9.9804
4.3418	10.5175
4.3129	10.7536
4.2844	10.9039
4.2563	11.3023
4.2285	11.536
4.2011	11.8896
4.174	12.4653
4.1473	13.1359
4.1209	13.893
4.0949	14.6494
4.0692	15.1115
4.0438	15.1302
4.0187	14.9485
3.994	14.7652
3.9695	14.6227
3.9453	14.4683
3.9214	14.1436
3.8979	13.5736
3.8746	12.8941
3.8515	12.4705
3.8288	12.4226
3.8063	12.6374
3.7841	12.8636
3.7621	13.001
3.7404	13.0755
3.7189	13.1445
3.6977	13.3526
3.6767	13.7386
3.656	14.1642
3.6355	14.6629
3.6152	15.1124
3.5951	15.3942
3.5753	15.4437
3.5557	15.2694
3.5363	15.1486
3.5171	15.3871
3.4981	15.7061
3.4793	15.6772
3.4607	15.3599
3.4423	15.0859
3.4241	14.9298
3.4061	14.6935
3.3883	14.4062
3.3707	13.9946
3.3533	13.5321
3.336	13.099
3.3189	12.6857
3.302	12.3497
3.2853	12.1084
3.2687	11.9327
3.2523	11.8498
3.2361	11.7768
3.22	11.6049
3.204	11.3901
3.1883	11.1206
3.1727	10.8741
3.1572	10.6458
3.1419	10.3043
3.1268	9.9692
3.1117	9.5295
3.0969	9.0748
3.0821	8.6293
3.0675	8.2871
3.0531	7.9925
3.0388	7.7972
3.0246	7.6359
3.0105	7.7597
2.9966	8.0856
2.9828	8.3312
2.9692	8.4576
2.9556	8.6263
2.9422	8.7958
2.9289	8.7608
2.9157	8.6187
2.9027	8.1808
2.8897	7.5011
2.8769	6.8153
2.8642	6.3708
2.8516	6.4497
2.8391	7.0363
2.8267	7.2267
2.8144	6.6825
2.8022	5.9353
2.7902	5.8044
2.7782	5.6961
2.7664	6.6846
2.7546	7.7209
2.7429	9.7125
2.7314	11.9471
2.7199	11.6047
2.7085	12.8593
2.6973	15.6384
2.6861	17.9618
2.675	23.5255
2.664	27.0072
2.6531	27.7856
2.6423	27.9374
2.6315	27.4919
2.6209	26.9262
2.6103	26.4781
2.5999	26.26
2.5895	26.1769
2.5792	26.167
2.569	26.4561
2.5588	26.6498
2.5487	26.884
2.5388	27.0197
2.5289	26.9236
2.519	26.7817
2.5093	26.6032
2.4996	26.6001
2.49	26.7891
2.4805	27.0718
2.471	27.2814
2.4616	27.7112
2.4523	28.2666
2.4431	28.7973
2.4339	29.1738
2.4248	29.1272
2.4157	28.7426
2.4068	28.2445
2.3979	27.4067
2.389	25.9654
2.3802	23.4064
2.3715	22.1745
2.3629	23.2833
2.3543	25.9112
2.3458	28.3459
2.3373	29.5279
2.3289	30.4723
2.3206	31.4342
2.3123	31.8079
2.3041	29.9335
2.2959	29.4862
2.2878	33.1841
2.2798	34.8017
2.2718	34.0584
2.2638	32.1679
2.2559	29.4653
2.2481	27.423
2.2403	28.6983
2.2326	31.0648
2.225	30.7486
2.2173	29.1525
2.2098	26.6243
2.2023	25.8747
2.1948	28.9872
2.1874	31.9067
2.18	32.1402
2.1727	32.354
2.1655	33.7069
2.1583	34.3587
2.1511	34.3999
2.144	34.2481
2.1369	34.3141
2.1299	34.3726
2.1229	34.4685
2.116	34.5079
2.1091	34.5296
2.1023	34.4915
2.0955	34.4209
2.0887	34.4008
2.082	34.2196
2.06	33.784
2.028	32.9992
1.996	32.3519
1.964	32.0527
1.932	30.6722
1.9	29.4287
1.868	28.8061
1.836	27.385
1.804	26.6623
1.772	25.3897
1.74	24.2617
1.708	23.0275
1.676	21.9773
1.644	20.8944
1.612	19.8289
1.58	18.9151
1.548	17.9645
1.516	17.0428
1.484	16.1582
1.452	15.2031
1.42	14.3362
1.388	13.6713
1.356	13.2252
1.324	12.8586
1.292	12.4901
1.26	11.8605
1.228	11.5537
1.196	11.3379
1.164	11.3934
1.132	11.2026
1.1	11.3411
1.068	11.9152
1.036	12.4476
1.004	12.9717
0.972	13.2799
0.94	13.1564
0.908	13.107
0.876	13.1357
0.844	12.9201
0.812	12.7013
0.795	12.0724
0.787	12.1818
0.779	12.1713
0.771	12.5085
0.763	12.53
0.755	12.5688
0.747	12.6695
0.739	12.7461
0.731	12.8461
0.723	12.8013
0.715	12.9236
0.707	12.8276
0.699	12.9248
0.691	13.0665
0.683	13.3378
0.675	13.2499
0.667	13.1453
0.659	13.2649
0.651	13.3234
0.643	13.0735
0.635	13.3598
0.627	13.1926
0.619	13.052
0.611	13.1357
0.603	13.1147
0.595	12.8124
0.587	12.44
0.579	12.3617
0.571	12.2367
0.563	11.812
0.555	11.1938
0.547	10.9526
0.539	10.5277
0.531	10.549
0.523	10.385
0.515	10.1765
0.507	9.9644
0.499	9.7353
0.491	9.4943
0.483	9.2993
0.475	9.0907
0.467	8.907
0.459	8.6678
0.451	8.3445
0.443	8.1646
0.435	7.7501
0.427	7.6129
0.419	7.3501
0.411	7.1572
0.403	6.7553
