Name: Anorthosite
Type: Rock
Class: Igneous
Subclass: Mafic
Particle Size: Solid
Sample No.: Ward42
Owner: JPL
Wavelength Range: VSWIR
Origin: Ward's Collection of American Rocks.  Sample locality - near Elizabethtown, Essex County, New York.
Description: The hand specimen shows a nearly pure aggregate of plagioclase.Larger blue feldspars are conspicuous in a finer granulated, lighter-colored groundmass.  Dark silicates are sometimes present.Geologic age - Pre-Cambrian.Collected by:  Ward's Natural Science Original ASTER Spectral Library name was jpl.perkin.rock.igneous.mafic.solid.ward42.spectrum.txt
Measurement: Hemispherical reflectance
X Units: Wavelength (micrometers)
Y Units: Reflectance (percent)
wavelength	value
2.5	8.8001
2.494	8.5143
2.488	8.5204
2.482	8.434
2.476	8.5208
2.47	8.4964
2.464	8.5919
2.458	8.3178
2.452	8.4786
2.446	8.425
2.44	8.4151
2.434	8.3876
2.428	8.4122
2.422	8.3662
2.416	8.4506
2.41	8.4461
2.404	8.3721
2.398	8.4521
2.392	8.3954
2.386	8.4098
2.38	8.4256
2.374	8.3979
2.368	8.3257
2.362	8.2355
2.356	8.2237
2.35	8.1387
2.344	8.114
2.338	8.0575
2.332	8.0719
2.326	8.0691
2.32	8.1217
2.314	8.1601
2.308	8.1442
2.302	8.1731
2.296	8.2068
2.29	8.1499
2.284	8.2312
2.278	8.2463
2.272	8.0587
2.266	8.0681
2.26	8.0045
2.254	7.9436
2.248	7.8726
2.242	7.8651
2.236	7.891
2.23	7.8378
2.224	7.7957
2.218	7.7876
2.212	7.8372
2.206	7.5823
2.2	7.6231
2.194	7.6002
2.188	7.6675
2.182	7.7335
2.176	7.7906
2.17	7.872
2.164	7.8831
2.158	7.8898
2.152	7.9012
2.146	7.9283
2.14	7.9218
2.134	7.902
2.128	7.8516
2.122	7.8269
2.116	7.7922
2.11	7.659
2.104	7.6615
2.098	7.5792
2.092	7.5519
2.086	7.6224
2.08	7.5919
2.074	7.5245
2.068	7.5503
2.062	7.5511
2.056	7.5119
2.05	7.5056
2.044	7.4816
2.038	7.4468
2.032	7.4265
2.026	7.3909
2.02	7.3433
2.014	7.2939
2.008	7.3102
2.002	7.3358
1.996	7.2469
1.99	7.2537
1.984	7.1958
1.978	7.1649
1.972	7.2156
1.966	7.2121
1.96	7.2129
1.954	7.1471
1.948	7.1577
1.942	7.1309
1.936	7.1541
1.93	7.1895
1.924	7.0776
1.918	7.1133
1.912	7.0875
1.906	7.0126
1.9	7.0988
1.894	7.2
1.888	7.1439
1.882	7.2327
1.876	7.2024
1.87	7.2668
1.864	7.3074
1.858	7.227
1.852	7.2036
1.846	7.1978
1.84	7.14
1.834	7.2128
1.828	7.1485
1.822	7.134
1.816	7.1488
1.81	7.1338
1.804	7.1405
1.798	7.0754
1.792	7.1086
1.786	7.0918
1.78	7.0014
1.774	7.0562
1.768	6.9924
1.762	7.0378
1.756	7.0122
1.75	6.9648
1.744	6.9796
1.738	6.9595
1.732	6.9926
1.726	6.9295
1.72	6.9689
1.714	6.9754
1.708	6.9733
1.702	6.9546
1.696	6.9358
1.69	6.9026
1.684	6.9325
1.678	6.8927
1.672	6.9103
1.666	6.8703
1.66	6.9296
1.654	6.809
1.648	6.8293
1.642	6.9055
1.636	6.8462
1.63	6.9447
1.624	6.8729
1.618	6.8363
1.612	6.8539
1.606	6.7941
1.6	6.8637
1.594	6.8955
1.588	6.8537
1.582	6.8757
1.576	6.8379
1.57	6.8831
1.564	6.893
1.558	6.8684
1.552	6.8436
1.546	6.8631
1.54	6.9401
1.534	6.8877
1.528	6.8686
1.522	6.9184
1.516	6.862
1.51	6.9244
1.504	6.8931
1.498	6.8962
1.492	6.866
1.486	6.8821
1.48	6.8194
1.474	6.9187
1.468	6.8759
1.462	6.8904
1.456	6.9403
1.45	6.8998
1.444	6.9087
1.438	6.8945
1.432	6.8558
1.426	6.9177
1.42	6.7568
1.414	6.7879
1.408	6.7911
1.402	6.8239
1.396	6.8729
1.39	6.9991
1.384	7.0447
1.378	7.0129
1.372	7.0449
1.366	7.079
1.36	7.0122
1.354	7.0342
1.348	7.0705
1.342	7.0256
1.336	7.1066
1.33	7.0657
1.324	7.0909
1.318	7.0214
1.312	7.1219
1.306	7.0689
1.3	7.0828
1.294	7.0469
1.288	7.0756
1.282	7.0525
1.276	7.0621
1.27	7.0365
1.264	7.0378
1.258	7.0811
1.252	7.0933
1.246	7.1015
1.24	7.1367
1.234	7.0876
1.228	7.135
1.222	7.1258
1.216	7.1744
1.21	7.083
1.204	7.1588
1.198	7.1873
1.192	7.1986
1.186	7.2625
1.18	7.1974
1.174	7.1922
1.168	7.2328
1.162	7.2729
1.156	7.2937
1.15	7.271
1.144	7.2509
1.138	7.2859
1.132	7.3032
1.126	7.4132
1.12	7.3505
1.114	7.3829
1.108	7.4066
1.102	7.3898
1.096	7.3812
1.09	7.5358
1.084	7.529
1.078	7.6199
1.072	7.486
1.066	7.6931
1.06	7.6332
1.054	7.6995
1.048	7.6124
1.042	7.8104
1.036	7.7995
1.03	7.7795
1.024	7.9215
1.018	7.8734
1.012	7.8053
1.006	7.8629
1	7.9009
0.994	7.9342
0.988	7.8386
0.982	8.0148
0.976	7.998
0.97	8.0075
0.964	8.022
0.958	7.9436
0.952	7.9239
0.946	7.9266
0.94	7.9096
0.934	7.9401
0.928	7.8794
0.922	7.8249
0.916	7.7537
0.91	7.7644
0.904	7.6825
0.898	7.7042
0.892	7.643
0.886	7.6191
0.88	7.669
0.874	7.6184
0.868	7.5819
0.862	7.6064
0.856	7.9604
0.85	7.9663
0.844	7.9417
0.838	7.9036
0.832	7.8408
0.826	7.8232
0.82	7.7728
0.814	7.7359
0.808	7.6697
0.802	7.6329
0.796	7.5727
0.79	7.5165
0.784	7.4805
0.778	7.4145
0.772	7.3649
0.766	7.3036
0.76	7.2598
0.754	7.2009
0.748	7.1565
0.742	7.1004
0.736	7.0594
0.73	7.0139
0.724	6.9729
0.718	6.9364
0.712	6.9009
0.706	6.8782
0.7	6.8446
0.694	6.8228
0.688	6.8031
0.682	6.7858
0.676	6.7722
0.67	6.7575
0.664	6.746
0.658	6.7378
0.652	6.7326
0.646	6.7257
0.64	6.7194
0.634	6.7148
0.628	6.7081
0.622	6.7087
0.616	6.704
0.61	6.7017
0.604	6.7024
0.598	6.7024
0.592	6.7023
0.586	6.7013
0.58	6.6999
0.574	6.6923
0.568	6.683
0.562	6.6633
0.556	6.6879
0.55	6.6746
0.544	6.6535
0.538	6.625
0.532	6.5939
0.526	6.555
0.52	6.5148
0.514	6.4757
0.508	6.4516
0.502	6.4378
0.496	6.432
0.49	6.4469
0.484	6.4643
0.478	6.3211
0.472	6.2729
0.466	6.2406
0.46	6.2267
0.454	6.2218
0.448	6.2082
0.442	6.1837
0.436	6.1122
0.43	6.0445
0.424	5.9779
0.418	5.9352
0.412	5.9037
0.406	5.8698
0.4	5.8389
