Name: Pegmatite
Type: Rock
Class: Igneous
Subclass: Felsic
Particle Size: Solid
Sample No.: Ward15
Owner: JPL
Wavelength Range: VSWIR
Origin: Ward's Collection of American Rocks.  Sample locality - Portland, Middlesex County, Connecticut.
Description: A light gray graphic granite composed chiefly of perthiteand smoky quartz with some muscovite.Geologic age - Late Devonian (?).Collected by:  Ward's Natural Science Original ASTER Spectral Library name was jpl.perkin.rock.igneous.felsic.solid.ward15.spectrum.txt
Measurement: Hemispherical reflectance
X Units: Wavelength (micrometers)
Y Units: Reflectance (percent)
wavelength	value
2.5	44.914
2.494	45.0282
2.488	45.2705
2.482	45.4566
2.476	45.9041
2.47	46.2193
2.464	46.3656
2.458	46.7962
2.452	46.9894
2.446	47.1942
2.44	47.5867
2.434	47.9113
2.428	48.3525
2.422	48.9221
2.416	49.3974
2.41	49.8773
2.404	50.4114
2.398	50.7604
2.392	51.1617
2.386	51.4907
2.38	51.9052
2.374	52.3115
2.368	52.6953
2.362	53.0731
2.356	53.3878
2.35	53.6417
2.344	54.0191
2.338	54.3677
2.332	54.7977
2.326	55.0796
2.32	55.5028
2.314	55.8901
2.308	56.2149
2.302	56.6858
2.296	57.1418
2.29	57.5326
2.284	57.7459
2.278	58.0423
2.272	58.302
2.266	58.4561
2.26	58.588
2.254	58.7451
2.248	58.6378
2.242	58.8261
2.236	58.783
2.23	58.6913
2.224	58.3388
2.218	57.3985
2.212	55.9957
2.206	54.8421
2.2	55.0648
2.194	55.8122
2.188	56.4443
2.182	57.38
2.176	58.0538
2.17	58.438
2.164	58.8094
2.158	59.3504
2.152	60.1592
2.146	60.9967
2.14	61.6303
2.134	62.0957
2.128	62.052
2.122	62.2165
2.116	62.0122
2.11	61.944
2.104	61.8813
2.098	61.8521
2.092	62.1082
2.086	62.284
2.08	62.4599
2.074	62.6039
2.068	62.6853
2.062	62.7444
2.056	62.7571
2.05	62.7192
2.044	62.7611
2.038	62.7126
2.032	62.5634
2.026	62.4431
2.02	62.2715
2.014	62.0846
2.008	61.8658
2.002	61.6402
1.996	61.3312
1.99	60.9902
1.984	60.7116
1.978	60.3708
1.972	60.1596
1.966	60.048
1.96	59.8218
1.954	59.5868
1.948	59.4686
1.942	59.4925
1.936	59.3324
1.93	59.0024
1.924	59.0461
1.918	58.8225
1.912	58.6992
1.906	58.8558
1.9	59.1271
1.894	60.586
1.888	62.988
1.882	64.6022
1.876	65.4601
1.87	66.0268
1.864	66.5345
1.858	66.8009
1.852	66.9139
1.846	66.9141
1.84	67.0322
1.834	67.1005
1.828	67.1627
1.822	67.1957
1.816	67.1997
1.81	67.256
1.804	67.2875
1.798	67.3474
1.792	67.3078
1.786	67.3367
1.78	67.4158
1.774	67.407
1.768	67.4297
1.762	67.4527
1.756	67.4825
1.75	67.5034
1.744	67.619
1.738	67.639
1.732	67.6458
1.726	67.8113
1.72	67.7372
1.714	67.7225
1.708	67.7839
1.702	67.9096
1.696	67.8126
1.69	67.9127
1.684	67.9035
1.678	67.9992
1.672	67.9898
1.666	67.9742
1.66	67.9906
1.654	68.0144
1.648	68.0313
1.642	68.161
1.636	68.0627
1.63	68.0721
1.624	68.023
1.618	68.0871
1.612	68.0881
1.606	68.1491
1.6	68.1384
1.594	68.0627
1.588	68.0776
1.582	68.0332
1.576	67.9323
1.57	67.9703
1.564	67.8771
1.558	67.8205
1.552	67.7877
1.546	67.6947
1.54	67.7514
1.534	67.6884
1.528	67.5752
1.522	67.5967
1.516	67.609
1.51	67.4796
1.504	67.3514
1.498	67.3095
1.492	67.2138
1.486	67.142
1.48	66.9405
1.474	66.8203
1.468	66.6887
1.462	66.6472
1.456	66.5488
1.45	66.4786
1.444	66.4204
1.438	66.2872
1.432	66.1101
1.426	65.7773
1.42	64.7858
1.414	62.8873
1.408	63.9071
1.402	64.3052
1.396	64.5781
1.39	65.2762
1.384	65.8943
1.378	66.6794
1.372	67.1142
1.366	67.1275
1.36	67.1161
1.354	67.2493
1.348	67.4563
1.342	67.4642
1.336	67.3223
1.33	67.2982
1.324	67.3133
1.318	67.2507
1.312	67.2056
1.306	67.1713
1.3	67.1265
1.294	67.0428
1.288	67.0546
1.282	66.9153
1.276	66.8601
1.27	66.8442
1.264	66.6344
1.258	66.5921
1.252	66.548
1.246	66.3768
1.24	66.362
1.234	66.1896
1.228	66.1672
1.222	66.11
1.216	65.9664
1.21	65.8198
1.204	65.7818
1.198	65.6763
1.192	65.5164
1.186	65.4614
1.18	65.414
1.174	65.3041
1.168	65.2658
1.162	65.1378
1.156	65.0616
1.15	64.9322
1.144	64.8874
1.138	64.8032
1.132	64.7841
1.126	64.6792
1.12	64.6315
1.114	64.4597
1.108	64.4798
1.102	64.4221
1.096	64.2967
1.09	64.2682
1.084	64.2519
1.078	64.1336
1.072	64.0285
1.066	63.9
1.06	63.8048
1.054	63.8053
1.048	63.728
1.042	63.6093
1.036	63.5174
1.03	63.4113
1.024	63.3755
1.018	63.1399
1.012	63.0868
1.006	62.9809
1	62.8953
0.994	62.7761
0.988	62.6181
0.982	62.4982
0.976	62.3249
0.97	62.1122
0.964	61.979
0.958	61.7482
0.952	61.6072
0.946	61.4867
0.94	61.308
0.934	61.0386
0.928	60.8844
0.922	60.7563
0.916	60.4795
0.91	60.2776
0.904	60.0463
0.898	59.806
0.892	59.6421
0.886	59.3829
0.88	59.1553
0.874	58.9324
0.868	58.7079
0.862	58.4694
0.856	57.7049
0.85	57.4902
0.844	57.3147
0.838	57.1013
0.832	56.8561
0.826	56.6715
0.82	56.4066
0.814	56.1782
0.808	55.9215
0.802	55.6801
0.796	55.385
0.79	55.0806
0.784	54.8241
0.778	54.5612
0.772	54.3069
0.766	53.9943
0.76	53.7478
0.754	53.484
0.748	53.229
0.742	52.95
0.736	52.669
0.73	52.4245
0.724	52.1649
0.718	51.9109
0.712	51.6364
0.706	51.4103
0.7	51.1609
0.694	50.9245
0.688	50.6994
0.682	50.485
0.676	50.2622
0.67	50.0545
0.664	49.882
0.658	49.6931
0.652	49.5111
0.646	49.3274
0.64	49.1501
0.634	48.984
0.628	48.8048
0.622	48.6516
0.616	48.481
0.61	48.2994
0.604	48.1308
0.598	47.9517
0.592	47.7575
0.586	47.5177
0.58	47.2265
0.574	46.9204
0.568	46.5715
0.562	46.2087
0.556	45.7115
0.55	45.2505
0.544	44.7677
0.538	44.2612
0.532	43.7356
0.526	43.2094
0.52	42.6732
0.514	42.1227
0.508	41.5291
0.502	40.9546
0.496	40.3224
0.49	39.696
0.484	39.0868
0.478	38.7425
0.472	38.3924
0.466	38.0598
0.46	37.7144
0.454	37.2957
0.448	36.8023
0.442	36.1973
0.436	35.4956
0.43	34.7632
0.424	34.1036
0.418	33.4787
0.412	32.8895
0.406	32.3385
0.4	31.7617
