Name: Quartzite
Type: Rock
Class: Metamorphic
Subclass: Quartzite
Particle Size: Solid
Sample No.: Ward93
Owner: JPL
Wavelength Range: All
Origin: Ward's Collection of American Rocks.  Sample locality - Ableman, Sauk County, Wisconsin.  Collected by - JPL.
Description: A fine crystalline, purplish quartz rock.Geologic age - Pre-CambrianCollected by:  Ward's Natural Science Original ASTER Spectral Library name was jpl.nicolet.rock.metamorphic.quartzite.solid.ward93.spectrum.txt
Measurement: Hemispherical reflectance
X Units: Wavelength (micrometers)
Y Units: Reflectance (percent)
wavelength	value
15.3871	4.7396
15.118	4.4013
14.8581	3.9526
14.6069	4.0576
14.3642	3.7803
14.1293	3.4849
13.9021	4.4155
13.682	4.9298
13.4687	5.0469
13.2621	5.5905
13.0616	7.1345
12.8672	9.6435
12.6784	8.3039
12.4951	9.5673
12.317	3.6271
12.1439	3.9548
11.9757	4.6387
11.812	4.7344
11.6527	4.8843
11.4977	5.7348
11.3468	6.5139
11.1997	6.7529
11.0564	7.6114
10.9168	8.0025
10.7806	8.6756
10.6478	9.4656
10.5182	11.231
10.3917	9.6106
10.2683	9.299
10.1477	10.4103
10.0299	11.6072
9.9148	13.0064
9.8024	14.259
9.6925	16.1829
9.585	19.1313
9.4798	24.4791
9.377	34.1037
9.2763	41.6313
9.1778	43.2015
9.0814	43.0229
8.987	33.6105
8.8945	40.6264
8.8039	42.4911
8.7151	41.6546
8.6281	34.6077
8.5428	41.2995
8.4592	41.0856
8.3772	38.599
8.2967	36.6371
8.2179	34.3263
8.1404	28.0825
8.0645	18.1901
7.9899	11.9144
7.9167	7.3725
7.8449	4.9352
7.7743	3.7856
7.705	3.0711
7.6369	2.5949
7.57	2.1537
7.5043	2.0741
7.4397	2.0178
7.3762	1.9729
7.3138	2.0775
7.2524	2.0468
7.1921	2.3021
7.1327	2.2559
7.0743	2.2102
7.0169	2.2184
6.9604	2.335
6.9047	2.2917
6.85	2.3631
6.7962	2.3797
6.7431	2.2241
6.6909	2.385
6.6395	2.5036
6.5889	2.4359
6.539	2.5461
6.49	2.9452
6.4416	3.1158
6.3939	3.0809
6.347	2.8465
6.3007	2.6953
6.2551	2.5665
6.2101	2.6252
6.1658	2.7332
6.1222	2.9882
6.0791	3.223
6.0366	3.4147
5.9948	3.0997
5.9535	2.95
5.9127	2.9467
5.8726	3.1881
5.8329	3.5124
5.7938	3.3538
5.7552	3.7008
5.7172	3.9406
5.6796	3.9587
5.6425	3.5868
5.6059	3.2906
5.5698	3.4655
5.5341	3.4072
5.4989	3.6311
5.4641	3.906
5.4298	3.8569
5.3959	3.5212
5.3624	3.2131
5.3294	3.2226
5.2967	3.1407
5.2644	3.3794
5.2326	3.8039
5.2011	4.0513
5.17	4.1035
5.1392	4.086
5.1088	4.0943
5.0788	4.1019
5.0491	4.0226
5.0198	4.0368
4.9908	4.1769
4.9622	4.5143
4.9338	4.9235
4.9058	5.4615
4.8781	6.7215
4.8508	7.9331
4.8237	8.555
4.7969	8.8414
4.7704	9.3409
4.7443	9.7224
4.7184	9.8247
4.6927	9.2955
4.6674	9.5779
4.6423	10.6008
4.6175	11.2317
4.593	11.5343
4.5687	11.4199
4.5447	10.9495
4.5209	10.1702
4.4974	9.1476
4.4741	8.9409
4.451	9.2729
4.4282	9.6025
4.4057	10.1204
4.3833	10.8027
4.3612	11.5055
4.3393	11.9177
4.3176	11.8697
4.2962	11.3176
4.2749	11.4313
4.2539	12.059
4.233	11.3752
4.2124	12.0167
4.192	12.5984
4.1717	12.8414
4.1517	12.8102
4.1319	13.1875
4.1122	13.3857
4.0927	13.7052
4.0734	13.992
4.0543	14.0461
4.0354	13.8116
4.0166	14.0916
3.9981	13.9962
3.9796	13.9248
3.9614	14.309
3.9433	14.4906
3.9254	14.5294
3.9077	14.4566
3.8901	14.4076
3.8726	14.4519
3.8554	14.2299
3.8382	14.3599
3.8213	14.3299
3.8045	14.3721
3.7878	14.1823
3.7713	14.163
3.7549	14.0444
3.7386	14.0309
3.7225	13.9605
3.7066	13.9801
3.6907	13.7098
3.675	14.0025
3.6595	14.2724
3.644	14.1883
3.6287	14.2724
3.6136	14.4019
3.5985	14.1021
3.5836	14.2764
3.5688	13.9582
3.5541	13.9428
3.5396	13.9656
3.5251	13.8901
3.5108	13.7899
3.4966	13.7605
3.4825	13.577
3.4685	13.4681
3.4547	13.4242
3.4409	13.3
3.4273	13.1295
3.4137	12.9506
3.4003	13.0268
3.387	12.8342
3.3738	12.9503
3.3606	12.5131
3.3476	12.6121
3.3347	12.5661
3.3219	12.4907
3.3092	12.3917
3.2965	12.7606
3.284	11.9595
3.2716	12.1334
3.2593	12.1791
3.247	11.7103
3.2348	11.9623
3.2228	11.5303
3.2108	12.0199
3.1989	11.6655
3.1871	11.5711
3.1754	11.2667
3.1638	11.5345
3.1523	11.8782
3.1408	11.377
3.1294	11.2327
3.1181	11.1891
3.1069	10.8558
3.0958	11.1101
3.0848	10.866
3.0738	11.2061
3.0629	10.7485
3.0521	10.675
3.0413	10.6948
3.0307	10.8785
3.0201	10.6321
3.0096	10.9013
2.9991	10.6992
2.9887	10.4754
2.9784	10.4693
2.9682	10.5449
2.9581	10.6979
2.948	10.2937
2.9379	10.7212
2.928	10.454
2.9181	10.1183
2.9083	10.9757
2.8985	10.7913
2.8888	9.8925
2.8792	10.3963
2.8697	10.2933
2.8602	10.4161
2.8507	10.341
2.8413	10.7582
2.832	10.8803
2.8228	11.1743
2.8136	11.2573
2.8045	10.5227
2.7954	9.9768
2.7864	9.8063
2.7774	9.5742
2.7685	9.0324
2.7597	8.1896
2.7509	8.3739
2.7422	7.1678
2.7335	7.1362
2.7249	6.5219
2.7163	5.7418
2.7078	6.9252
2.6994	8.1385
2.691	10.6019
2.6826	12.0282
2.6743	12.6531
2.666	13.4776
2.6578	13.8758
2.6497	13.9493
2.6416	13.9892
2.6336	13.9704
2.6256	14.0904
2.6176	13.8711
2.6097	13.0942
2.6018	12.8894
2.594	12.6757
2.5863	14.0012
2.5785	14.4576
2.5709	13.8669
2.5633	14.2469
2.5557	14.967
2.5481	14.3408
2.5406	14.8205
2.5332	15.0109
2.5258	14.5243
2.5184	13.8269
2.5111	13.4295
2.5038	13.5378
2.4966	14.0089
2.4894	14.1083
2.4823	14.5941
2.4752	14.9979
2.4681	14.3582
2.4611	15.3346
2.4541	15.0005
2.4471	14.056
2.4402	14.5338
2.4333	15.2659
2.4265	14.5975
2.4197	14.672
2.413	14.8563
2.4063	14.912
2.3996	14.9641
2.3929	14.7481
2.3863	15.4043
2.3798	14.9333
2.3732	16.3327
2.3667	15.1598
2.3603	15.2445
2.3538	15.2085
2.3474	15.5155
2.3411	15.6706
2.3347	15.6328
2.3285	14.7162
2.3222	14.8843
2.316	15.7962
2.3098	15.0548
2.3036	15.0851
2.2975	15.6055
2.2914	15.1668
2.2854	15.6362
2.2793	15.3509
2.2733	16.5347
2.2674	16.2216
2.2614	16.5744
2.2555	15.8758
2.2497	15.9876
2.2438	16.6921
2.238	16.7379
2.2322	15.4235
2.2265	16.0862
2.2208	15.6266
2.2151	15.9842
2.2094	16.1094
2.2038	15.6187
2.1982	15.9722
2.1926	16.8193
2.187	15.5285
2.1815	15.5819
2.176	14.9418
2.1706	13.218
2.1651	13.3267
2.1597	14.9643
2.1543	16.268
2.149	15.4872
2.1436	16.3875
2.1383	16.4151
2.1331	16.3389
2.1278	16.191
2.1226	16.3173
2.1174	16.8173
2.1122	16.2044
2.1071	16.5916
2.1019	17.0652
2.0968	16.1117
2.0918	15.1724
2.0867	15.8704
2.0817	16.1556
2.0767	18.231
2.0717	15.789
2.0667	15.5513
2.0618	16.5899
2.0569	16.4027
2.052	16.9681
2.0472	20.2207
2.0423	17.5578
2.0375	17.8342
2.0327	16.3412
2.028	16.14
2.0232	15.8348
2.0185	18.1567
2.0138	16.8691
2.0091	15.8793
2.0044	18.6257
1.9998	16.3177
