Name: Felsitic Gneiss
Type: rock
Class: Metamorphic
Subclass: Gneis
Particle Size: Coarse
Sample No.: gneiss3
Owner: JHU
Wavelength Range: All
Origin: Sample No. 310, The Hunt and Salisbury Collection at the U.S.Geological Survey, Denver, Co.
Description: This coarse to very coarse-grained sample consists of anhedra of quartz, alkali feldspar (albite, orthoclase, microcline) and brown and green biotite.  Some regions  are heavily sericitized, and sericitization has also occurred along most feldspar grain boundaries and cracks.  There are scattered opaques and some myrmeketic texture in this sample along with a trace of zircon.    Particle size was 500-1500 Micrometer. Original ASTER Spectral Library name was jhu.becknic.rock.metamorphic.gneiss.coarse.gneiss3.spectrum.txt
Measurement: Directional (10 Degree) Hemispherical Reflectance
X Units: Wavelength (micrometers)
Y Units: Reflectance (percent)
wavelength	value
14.0112	2.8914
13.7147	2.8592
13.4304	3.3319
13.1577	3.4944
12.8959	4.2243
12.6443	3.8341
12.4023	3.179
12.1694	2.237
11.945	2.5572
11.7289	2.9529
11.5203	3.3462
11.3191	3.7502
11.1248	4.1592
10.937	4.5035
10.7555	4.9995
10.5799	5.5783
10.4099	6.386
10.2454	7.6072
10.0859	9.3157
9.9313	10.908
9.7814	11.124
9.636	12.4598
9.4948	12.4397
9.3577	14.9215
9.2245	16.4128
9.095	15.7491
8.9691	15.328
8.8467	15.7948
8.7275	15.6965
8.6116	13.5393
8.4986	15.9785
8.3886	15.8582
8.2814	14.5404
8.1769	11.6302
8.075	6.8301
7.9756	3.6501
7.8786	1.9071
7.784	1.1943
7.6916	0.8532
7.6014	0.7094
7.5133	0.7139
7.4272	0.6938
7.343	0.7084
7.2607	0.7164
7.1803	0.8369
7.1016	0.8967
7.0246	0.9699
6.9493	0.9946
6.8755	0.9793
6.8034	1.0414
6.7327	1.0953
6.6634	1.0989
6.5956	1.2054
6.5292	1.1784
6.464	1.2463
6.4002	1.214
6.3376	1.2441
6.2762	1.1736
6.216	1.175
6.157	1.2338
6.099	1.2891
6.0421	1.3387
5.9863	1.3236
5.9315	1.4209
5.8777	1.4698
5.8249	1.5473
5.773	1.5698
5.722	1.659
5.6719	1.6025
5.6227	1.5935
5.5744	1.604
5.5268	1.6614
5.4801	1.7736
5.4341	1.8571
5.3889	1.87
5.3445	1.8552
5.3008	1.8853
5.2578	2.0114
5.2154	2.1414
5.1738	2.2022
5.1328	2.2756
5.0925	2.4409
5.0528	2.5016
5.0137	2.6586
4.9752	2.7905
4.9373	3.0008
4.9	3.2683
4.8632	4.0329
4.827	4.661
4.7913	4.9644
4.7561	5.4034
4.7215	5.7838
4.6873	5.597
4.6536	6.291
4.6205	7.2773
4.5877	8.1577
4.5555	8.914
4.5237	8.7585
4.4923	8.386
4.4614	8.9279
4.4309	10.0168
4.4008	11.3767
4.3711	13.286
4.3418	14.9716
4.3129	15.8115
4.2844	16.2459
4.2563	17.5227
4.2285	18.5673
4.2011	19.778
4.174	20.8773
4.1473	21.7571
4.1209	22.6055
4.0949	23.5518
4.0692	24.1727
4.0438	24.3714
4.0187	24.381
3.994	24.2836
3.9695	24.7533
3.9453	25.7666
3.9214	26.4028
3.8979	26.5224
3.8746	26.3425
3.8515	26.319
3.8288	26.5135
3.8063	26.8543
3.7841	26.7224
3.7621	26.3647
3.7404	25.9762
3.7189	25.9176
3.6977	26.2034
3.6767	26.477
3.656	26.5107
3.6355	26.2154
3.6152	25.9035
3.5951	25.4089
3.5753	24.9567
3.5557	24.3317
3.5363	23.8726
3.5171	23.0936
3.4981	22.4177
3.4793	21.8502
3.4607	21.3034
3.4423	20.4725
3.4241	19.8021
3.4061	19.009
3.3883	18.1962
3.3707	17.327
3.3533	16.5932
3.336	15.8927
3.3189	15.079
3.302	14.37
3.2853	13.5728
3.2687	12.8247
3.2523	12.1196
3.2361	11.4621
3.22	10.7958
3.204	10.1813
3.1883	9.5672
3.1727	8.9219
3.1572	8.3657
3.1419	7.9962
3.1268	7.5844
3.1117	7.266
3.0969	6.9535
3.0821	6.8031
3.0675	6.583
3.0531	6.4535
3.0388	6.2779
3.0246	5.9705
3.0105	5.9862
2.9966	5.7807
2.9828	5.6838
2.9692	5.4964
2.9556	5.4859
2.9422	5.4919
2.9289	5.4704
2.9157	5.6223
2.9027	5.6697
2.8897	5.7263
2.8769	5.9371
2.8642	6.002
2.8516	6.1623
2.8391	6.2601
2.8267	6.3526
2.8144	6.3664
2.8022	6.4621
2.7902	6.4801
2.7782	6.2339
2.7664	5.7656
2.7546	5.808
2.7429	6.2747
2.7314	6.9593
2.7199	8.5126
2.7085	11.441
2.6973	15.4558
2.6861	23.0581
2.675	27.494
2.664	29.9629
2.6531	31.854
2.6423	32.9926
2.6315	33.6412
2.6209	34.0154
2.6103	34.3784
2.5999	34.9481
2.5895	35.6393
2.5792	36.1049
2.569	36.3231
2.5588	36.7808
2.5487	37.0906
2.5388	37.3591
2.5289	37.4411
2.519	37.3404
2.5093	37.0504
2.4996	36.9514
2.49	36.9277
2.4805	36.9365
2.471	37.0392
2.4616	37.0174
2.4523	37.2804
2.4431	37.31
2.4339	37.7845
2.4248	38.4735
2.4157	39.276
2.4068	39.9117
2.3979	40.2443
2.389	40.1253
2.3802	39.8904
2.3715	39.1396
2.3629	37.9588
2.3543	36.8559
2.3458	36.9035
2.3373	37.7105
2.3289	39.2011
2.3206	40.6412
2.3123	42.115
2.3041	43.2706
2.2959	44.4855
2.2878	45.3191
2.2798	45.7809
2.2718	45.8574
2.2638	45.2856
2.2559	44.7315
2.2481	45.294
2.2403	46.3451
2.2326	46.7775
2.225	46.2322
2.2173	44.6825
2.2098	42.4664
2.2023	41.069
2.1948	41.3506
2.1874	43.2751
2.18	46.1975
2.1727	48.3326
2.1655	49.6667
2.1583	50.7704
2.1511	51.2705
2.144	51.6549
2.1369	51.808
2.1299	51.7167
2.1229	51.593
2.116	51.5695
2.1091	51.6138
2.1023	51.8551
2.0955	51.9071
2.0887	52.015
2.082	52.1114
2.06	51.5403
2.028	49.7252
1.996	47.7511
1.964	45.5611
1.932	43.8023
1.9	43.5527
1.868	48.6601
1.836	49.862
1.804	48.9846
1.772	48.482
1.74	48.4813
1.708	47.2472
1.676	46.258
1.644	45.4348
1.612	44.7161
1.58	43.6482
1.548	42.6896
1.516	42.098
1.484	40.6462
1.452	39.8527
1.42	38.3885
1.388	36.3132
1.356	38.6252
1.324	37.9998
1.292	37.6527
1.26	36.6946
1.228	36.3794
1.196	36.2059
1.164	35.725
1.132	35.1207
1.1	34.7718
1.068	34.7934
1.036	35.0101
1.004	35.1102
0.972	34.6855
0.94	34.3975
0.908	33.9687
0.876	34.094
0.844	34.2078
0.812	34.664
0.795	34.8344
0.787	34.8803
0.779	34.8631
0.771	34.6818
0.763	34.8363
0.755	34.5646
0.747	34.5907
0.739	34.5014
0.731	34.4898
0.723	34.3777
0.715	34.466
0.707	34.2959
0.699	34.2855
0.691	34.0654
0.683	34.0881
0.675	33.948
0.667	34.0317
0.659	33.6892
0.651	33.6609
0.643	33.6235
0.635	33.3102
0.627	33.2971
0.619	33.1973
0.611	33.2018
0.603	32.7778
0.595	32.301
0.587	31.702
0.579	31.043
0.571	30.3083
0.563	29.3838
0.555	28.2018
0.547	27.7423
0.539	27.1428
0.531	26.8661
0.523	26.0933
0.515	25.8282
0.507	25.3337
0.499	24.8702
0.491	24.5074
0.483	24.0371
0.475	23.5401
0.467	23.1962
0.459	22.775
0.451	22.5423
0.443	21.9185
0.435	21.4877
0.427	20.7775
0.419	20.2207
0.411	19.7172
0.403	19.2954
