Name: Chiastolic Slate
Type: rock
Class: Metamorphic
Subclass: Slate
Particle Size: Fine
Sample No.: slate3
Owner: JHU
Wavelength Range: All
Origin: Sample No. 462, The Hunt and Salisbury Collection at the U.S.Geological Survey, Denver, Co.
Description: This dark lineated rock is composed of porphyroblasts of chiastolic andalusite set in a matrix of angular quartz fragments, abundant carbonaceous granules, and either muscovite or illite (hydromuscovite) with a few biotite grains present as well.  The phyllosilicate shows typical 001 cleavage and nearly parallel extinction, but unlike muscovite the birefringence is gray, possibly due either to the thinness of the crystals or abundant small carbonaceous material.  Particle size was  0-75 Micrometer. Original ASTER Spectral Library name was jhu.becknic.rock.metamorphic.slate.fine.slate3.spectrum.txt
Measurement: Directional (10 Degree) Hemispherical Reflectance
X Units: Wavelength (micrometers)
Y Units: Reflectance (percent)
wavelength	value
14.983	2.4667
14.645	2.3667
14.321	2.0269
14.011	2.4688
13.715	2.3864
13.43	2.3082
13.158	2.268
12.896	2.3632
12.644	2.0759
12.402	2.0011
12.169	2.4136
11.945	3.0414
11.729	3.6749
11.52	3.7836
11.319	3.7218
11.125	3.427
10.937	3.1163
10.755	3.0258
10.58	3.0047
10.41	3.0173
10.245	3.0329
10.086	3.1639
9.9313	3.2271
9.7814	3.2472
9.636	3.5717
9.4948	3.4644
9.3577	4.0938
9.2245	4.5303
9.095	4.3543
8.9691	4.1253
8.8467	3.9349
8.7275	3.5885
8.6116	3.1828
8.4986	3.5906
8.3886	3.6626
8.2814	4.0223
8.1769	4.2793
8.075	3.4895
7.9756	2.9453
7.8786	2.6111
7.784	2.5773
7.6916	2.6805
7.6014	2.7532
7.5133	2.8584
7.4272	2.9531
7.343	3.0658
7.2607	3.1939
7.1803	3.2775
7.1016	3.2411
7.0246	3.2359
6.9493	3.3552
6.8755	3.5484
6.8034	3.7358
6.7327	3.8523
6.6634	3.9401
6.5956	4.0076
6.5292	4.0886
6.464	4.2414
6.4002	4.2712
6.3376	4.2267
6.2762	4.1154
6.216	4.0621
6.157	4.1959
6.099	4.3683
6.0421	4.4159
5.9863	4.4926
5.9315	4.5021
5.8777	4.6406
5.8249	4.8133
5.773	4.9052
5.722	4.9738
5.6719	4.9817
5.6227	4.9099
5.5744	4.8891
5.5268	5.0134
5.4801	5.1541
5.4341	5.2369
5.3889	5.1081
5.3445	4.9663
5.3008	5.074
5.2578	5.2808
5.2154	5.5188
5.1738	5.6194
5.1328	5.6715
5.0925	5.7058
5.0528	5.698
5.0137	5.7139
4.9752	5.8029
4.9373	5.9398
4.9	6.0715
4.8632	6.1807
4.827	6.2389
4.7913	6.2839
4.7561	6.3388
4.7215	6.4056
4.6873	6.4426
4.6536	6.4916
4.6205	6.5425
4.5877	6.5849
4.5555	6.6282
4.5237	6.6469
4.4923	6.681
4.4614	6.7069
4.4309	6.7448
4.4008	6.78
4.3711	6.8118
4.3418	6.8485
4.3129	6.8714
4.2844	6.8921
4.2563	6.911
4.2285	6.9378
4.2011	6.955
4.174	6.9759
4.1473	7.0003
4.1209	7.0176
4.0949	7.0457
4.0692	7.0585
4.0438	7.082
4.0187	7.0969
3.994	7.1154
3.9695	7.1369
3.9453	7.1433
3.9214	7.1637
3.8979	7.1791
3.8746	7.1893
3.8515	7.2046
3.8288	7.211
3.8063	7.2236
3.7841	7.2371
3.7621	7.2364
3.7404	7.2338
3.7189	7.2442
3.6977	7.2454
3.6767	7.2456
3.656	7.2435
3.6355	7.2428
3.6152	7.2331
3.5951	7.2198
3.5753	7.1904
3.5557	7.1727
3.5363	7.154
3.5171	7.1708
3.4981	7.1748
3.4793	7.162
3.4607	7.1547
3.4423	7.1447
3.4241	7.1331
3.4061	7.0912
3.3883	7.046
3.3707	7.0019
3.3533	6.92
3.336	6.8748
3.3189	6.8312
3.302	6.7997
3.2853	6.7549
3.2687	6.7369
3.2523	6.7504
3.2361	6.7239
3.22	6.6801
3.204	6.6301
3.1883	6.5702
3.1727	6.5103
3.1572	6.452
3.1419	6.3872
3.1268	6.3057
3.1117	6.223
3.0969	6.129
3.0821	6.0156
3.0675	5.9095
3.0531	5.7901
3.0388	5.6838
3.0246	5.608
3.0105	5.5593
2.9966	5.514
2.9828	5.5064
2.9692	5.4712
2.9556	5.4378
2.9422	5.388
2.9289	5.3805
2.9157	5.3885
2.9027	5.4539
2.8897	5.5323
2.8769	5.6007
2.8642	5.6201
2.8516	5.6066
2.8391	5.5498
2.8267	5.4487
2.8144	5.38
2.8022	5.3137
2.7902	5.2469
2.7782	4.9402
2.7664	4.4706
2.7546	4.2849
2.7429	4.7143
2.7314	5.5555
2.7199	6.6304
2.7085	7.1381
2.6973	7.4862
2.6861	7.9139
2.675	7.9627
2.664	8.0449
2.6531	8.1626
2.6423	8.2109
2.6315	8.186
2.6209	8.1919
2.6103	8.2206
2.5999	8.226
2.5895	8.2594
2.5792	8.2971
2.569	8.3077
2.5588	8.3286
2.5487	8.3688
2.5388	8.3949
2.5289	8.4162
2.519	8.4221
2.5093	8.4664
2.4996	8.4456
2.49	8.4849
2.4805	8.4832
2.471	8.4972
2.4616	8.5138
2.4523	8.5258
2.4431	8.5337
2.4339	8.5531
2.4248	8.5777
2.4157	8.5827
2.4068	8.6139
2.3979	8.6064
2.389	8.6371
2.3802	8.6435
2.3715	8.6395
2.3629	8.622
2.3543	8.6258
2.3458	8.6691
2.3373	8.6786
2.3289	8.6807
2.3206	8.7096
2.3123	8.712
2.3041	8.757
2.2959	8.7797
2.2878	8.779
2.2798	8.8008
2.2718	8.8034
2.2638	8.824
2.2559	8.8005
2.2481	8.7996
2.2403	8.8401
2.2326	8.837
2.225	8.8756
2.2173	8.833
2.2098	8.868
2.2023	8.8853
2.1948	8.9156
2.1874	8.895
2.18	8.9263
2.1727	8.9417
2.1655	9.0108
2.1583	9.0168
2.1511	8.9943
2.144	9.0002
2.1369	9.0483
2.1299	9.0208
2.1229	9.0023
2.116	9.0416
2.1091	9.0565
2.1023	9.0468
2.0955	9.0655
2.0887	9.0599
2.082	9.1113
2.06	9.1722
2.028	9.0751
1.996	9.0215
1.964	9.0546
1.932	9.1133
1.9	9.0723
1.868	9.2127
1.836	9.1032
1.804	9.1824
1.772	9.2485
1.74	9.2367
1.708	9.2814
1.676	9.4274
1.644	9.5567
1.612	9.4841
1.58	9.6713
1.548	9.5156
1.516	9.5927
1.484	9.5546
1.452	9.65
1.42	9.7729
1.388	9.6404
1.356	9.9755
1.324	9.9537
1.292	10.043
1.26	10.111
1.228	10.101
1.196	10.226
1.164	10.1
1.132	10.264
1.1	10.462
1.068	10.407
1.036	10.582
1.004	10.57
0.972	10.643
0.94	10.694
0.908	10.732
0.876	10.843
0.844	10.86
0.812	11.045
0.795	11.31
0.787	11.294
0.779	11.422
0.771	11.34
0.763	11.378
0.755	11.394
0.747	11.652
0.739	11.394
0.731	11.635
0.723	11.478
0.715	11.59
0.707	11.608
0.699	11.659
0.691	11.642
0.683	11.842
0.675	11.87
0.667	11.778
0.659	12.038
0.651	11.923
0.643	12.019
0.635	11.833
0.627	11.814
0.619	12.048
0.611	12.038
0.603	12.038
0.595	11.868
0.587	12.143
0.579	12.143
0.571	12.179
0.563	12.087
0.555	11.921
0.547	11.909
0.539	12.059
0.531	11.891
0.523	11.987
0.515	11.628
0.507	11.559
0.499	11.51
0.491	11.391
0.483	11.289
0.475	11.082
0.467	10.835
0.459	11.289
0.451	11.309
0.443	11.064
0.435	11.125
0.427	10.786
0.419	10.536
0.411	10.255
0.403	9.9697
