Name: Obsidian
Type: Rock
Class: Igneous
Subclass: Felsic
Particle Size: Solid
Sample No.: Ward01
Owner: JPL
Wavelength Range: All
Origin: Ward's Collection of American Rocks.  Sample locality - Lake County, Oregon.
Description: A jet black glass with conchoidal fracture.  Thin edgesometimes show parallel flow bands.  Geologic age - Tertiary.Geologic Name - Glass Buttes Series.Collected by:  Ward's Natural Science Original ASTER Spectral Library name was jpl.nicolet.rock.igneous.felsic.solid.ward01.spectrum.txt
Measurement: Hemispherical reflectance
X Units: Wavelength (micrometers)
Y Units: Reflectance (percent)
wavelength	value
15.3871	5.0977
15.118	5.4024
14.8581	5.8405
14.6069	6.0914
14.3642	6.0989
14.1293	6.2479
13.9021	6.4389
13.682	6.6763
13.4687	6.5829
13.2621	6.565
13.0616	6.9492
12.8672	6.8937
12.6784	6.9771
12.4951	6.3885
12.317	5.7888
12.1439	5.7329
11.9757	6.0571
11.812	6.368
11.6527	7.3195
11.4977	8.2156
11.3468	8.8853
11.1997	9.7117
11.0564	10.4264
10.9168	11.3233
10.7806	12.6002
10.6478	13.5857
10.5182	15.0474
10.3917	16.3735
10.2683	18.0336
10.1477	19.9352
10.0299	21.8725
9.9148	23.7382
9.8024	25.6898
9.6925	27.6622
9.585	29.8273
9.4798	32.283
9.377	34.4896
9.2763	36.8846
9.1778	38.2319
9.0814	36.8984
8.987	32.9846
8.8945	28.705
8.8039	25.458
8.7151	23.165
8.6281	21.5097
8.5428	20.482
8.4592	19.5269
8.3772	18.571
8.2967	17.5006
8.2179	16.0021
8.1404	13.4421
8.0645	9.6553
7.9899	5.1195
7.9167	2.2155
7.8449	0.9427
7.7743	0.6142
7.705	0.188
7.6369	0.1293
7.57	0.0971
7.5043	0.0251
7.4397	0.1502
7.3762	0.2814
7.3138	0.435
7.2524	0.5073
7.1921	0.5708
7.1327	0.6508
7.0743	0.6256
7.0169	0.8469
6.9604	0.7218
6.9047	0.9685
6.85	1.2087
6.7962	1.0007
6.7431	1.1022
6.6909	1.2511
6.6395	1.426
6.5889	1.5373
6.539	1.5911
6.49	1.5676
6.4416	1.6964
6.3939	1.6828
6.347	1.7729
6.3007	1.8919
6.2551	1.9774
6.2101	1.9914
6.1658	2.0899
6.1222	2.0617
6.0791	2.1078
6.0366	2.0318
5.9948	2.1643
5.9535	2.2037
5.9127	2.186
5.8726	2.2015
5.8329	2.2132
5.7938	2.2848
5.7552	2.3635
5.7172	2.4121
5.6796	2.4091
5.6425	2.3635
5.6059	2.4507
5.5698	2.3429
5.5341	2.4439
5.4989	2.3996
5.4641	2.5388
5.4298	2.5981
5.3959	2.5789
5.3624	2.4865
5.3294	2.58
5.2967	2.6514
5.2644	2.6259
5.2326	2.6397
5.2011	2.6034
5.17	2.7428
5.1392	2.7976
5.1088	2.7325
5.0788	2.8967
5.0491	2.7485
5.0198	2.7944
4.9908	2.8866
4.9622	2.9478
4.9338	2.9505
4.9058	2.9975
4.8781	3.0002
4.8508	2.993
4.8237	3.0371
4.7969	3.177
4.7704	3.2744
4.7443	3.2489
4.7184	3.1557
4.6927	3.2752
4.6674	3.213
4.6423	3.3664
4.6175	3.3522
4.593	3.4848
4.5687	3.4851
4.5447	3.4371
4.5209	3.4957
4.4974	3.3899
4.4741	3.4148
4.451	3.5777
4.4282	3.4072
4.4057	3.5822
4.3833	3.5353
4.3612	3.6745
4.3393	3.6605
4.3176	3.5436
4.2962	3.7889
4.2749	3.6647
4.2539	3.6964
4.233	3.7318
4.2124	3.8985
4.192	3.7507
4.1717	3.9326
4.1517	3.9488
4.1319	3.9335
4.1122	4.1602
4.0927	4.1593
4.0734	4.1468
4.0543	4.0616
4.0354	4.097
4.0166	4.2041
3.9981	4.2429
3.9796	4.0822
3.9614	4.127
3.9433	4.1533
3.9254	4.1611
3.9077	4.2041
3.8901	4.058
3.8726	4.1789
3.8554	4.4669
3.8382	4.1394
3.8213	4.1719
3.8045	4.1944
3.7878	4.179
3.7713	4.2505
3.7549	4.2855
3.7386	4.3569
3.7225	4.1652
3.7066	4.2482
3.6907	4.1788
3.675	4.3758
3.6595	4.1873
3.644	4.329
3.6287	4.3524
3.6136	4.388
3.5985	4.2887
3.5836	4.2022
3.5688	4.3329
3.5541	4.3581
3.5396	4.1576
3.5251	4.4379
3.5108	4.1434
3.4966	4.3321
3.4825	4.3383
3.4685	3.9286
3.4547	4.5437
3.4409	4.4629
3.4273	4.318
3.4137	4.5148
3.4003	4.0627
3.387	4.0381
3.3738	4.2971
3.3606	4.2843
3.3476	4.5437
3.3347	4.0232
3.3219	4.2547
3.3092	4.3372
3.2965	4.2986
3.284	4.127
3.2716	4.2233
3.2593	3.9665
3.247	3.9203
3.2348	4.2726
3.2228	4.2319
3.2108	4.3341
3.1989	3.8934
3.1871	4.2591
3.1754	4.0098
3.1638	4.3011
3.1523	4.0291
3.1408	4.086
3.1294	4.206
3.1181	4.2795
3.1069	3.7101
3.0958	3.5676
3.0848	4.2983
3.0738	3.7463
3.0629	4.1911
3.0521	3.6338
3.0413	4.0394
3.0307	4.2076
3.0201	4.2762
3.0096	4.3946
2.9991	3.8618
2.9887	4.1052
2.9784	3.8873
2.9682	4.1819
2.9581	4.0783
2.948	3.947
2.9379	4.3169
2.928	4.2428
2.9181	4.146
2.9083	4.3962
2.8985	3.8988
2.8888	3.7682
2.8792	4.283
2.8697	4.5023
2.8602	3.7342
2.8507	3.8434
2.8413	4.0614
2.832	3.9224
2.8228	3.9496
2.8136	3.9067
2.8045	4.2069
2.7954	3.4876
2.7864	3.9106
2.7774	3.6635
2.7685	3.9018
2.7597	3.8831
2.7509	4.2245
2.7422	4.3055
2.7335	3.5775
2.7249	3.7508
2.7163	4.1886
2.7078	4.2215
2.6994	4.3371
2.691	4.101
2.6826	4.6884
2.6743	4.9642
2.666	5.1462
2.6578	4.6172
2.6497	4.632
2.6416	4.5894
2.6336	5.2846
2.6256	4.6916
2.6176	4.0209
2.6097	4.0737
2.6018	4.9349
2.594	4.6691
2.5863	4.9804
2.5785	4.6871
2.5709	4.8826
2.5633	3.7305
2.5557	4.7912
2.5481	4.6143
2.5406	4.5233
2.5332	4.3838
2.5258	4.7877
2.5184	4.6322
2.5111	4.9881
2.5038	4.5485
2.4966	3.994
2.4894	5.096
2.4823	4.4446
2.4752	4.7538
2.4681	4.8906
2.4611	4.3316
2.4541	4.7033
2.4471	5.0441
2.4402	4.5171
2.4333	5.171
2.4265	4.7504
2.4197	4.4722
2.413	5.4821
2.4063	4.6935
2.3996	4.3537
2.3929	4.7246
2.3863	4.9448
2.3798	5.0231
2.3732	5.5974
2.3667	5.2685
2.3603	4.5691
2.3538	3.9299
2.3474	4.7508
2.3411	4.929
2.3347	4.9847
2.3285	4.8905
2.3222	5.2973
2.316	4.7547
2.3098	4.0512
2.3036	4.8044
2.2975	4.0972
2.2914	4.0728
2.2854	5.4232
2.2793	5.4856
2.2733	5.1504
2.2674	4.9364
2.2614	3.9412
2.2555	4.5387
2.2497	4.6275
2.2438	4.4228
2.238	4.2411
2.2322	4.4148
2.2265	5.6201
2.2208	4.9217
2.2151	5.1503
2.2094	4.0879
2.2038	4.4248
2.1982	4.586
2.1926	4.6381
2.187	4.8886
2.1815	4.9806
2.176	4.1385
2.1706	5.5983
2.1651	4.1751
2.1597	4.5217
2.1543	5.2861
2.149	4.1178
2.1436	5.1425
2.1383	3.3121
2.1331	4.1411
2.1278	5.06
2.1226	4.5258
2.1174	6.0146
2.1122	5.2803
2.1071	4.2605
2.1019	5.6787
2.0968	4.3974
2.0918	5.1025
2.0867	4.7801
2.0817	5.4643
2.0767	4.0358
2.0717	5.5579
2.0667	4.6723
2.0618	5.424
2.0569	4.492
2.052	2.9844
2.0472	3.6509
2.0423	4.2087
2.0375	4.5085
2.0327	5.138
2.028	3.3537
2.0232	4.4277
2.0185	3.7568
2.0138	4.7252
2.0091	6.8642
2.0044	3.6468
1.9998	3.3856
