Name: Altered volcanic tuff
Type: Rock
Class: Igneous
Subclass: Felsic
Particle Size: Solid
Sample No.: Cup7
Owner: USGS
Wavelength Range: All
Origin: Cuprite, Nevada
Description: Altered volcanic tuff, whiteSample was Whole rock chips. Original ASTER Spectral Library name was usgs.perknic.rock.igneous.felsic.solid.cup7.spectrum.txt
Measurement: Directional Hemispherical Reflectance
X Units: Wavelength (micrometers)
Y Units: Reflectance (percent)
wavelength	value
13.9	6.118
13.68	3.76
13.467	2.544
13.261	2.039
13.06	2.009
12.866	2.184
12.677	1.957
12.494	1.689
12.316	1.617
12.143	1.916
11.975	2.07
11.811	2.328
11.652	2.606
11.497	2.905
11.346	2.977
11.199	3.255
11.056	3.368
10.916	3.564
10.78	3.656
10.647	3.862
10.518	4.161
10.391	4.46
10.268	4.893
10.147	5.48
10.029	5.984
9.914	6.592
9.802	7.529
9.692	7.993
9.585	7.952
9.479	8.734
9.377	10.454
9.276	14.142
9.178	16.202
9.081	17.695
8.987	18.427
8.894	17.984
8.804	16.604
8.715	14.523
8.628	11.248
8.543	12.72
8.459	8.745
8.377	6.88
8.297	5.819
8.218	5.49
8.14	5.572
8.064	5.428
7.99	5.84
7.917	6.128
7.845	5.037
7.774	3.09
7.705	1.978
7.637	1.36
7.57	1.164
7.504	1.061
7.44	1.03
7.376	1.061
7.314	1.051
7.252	1.112
7.192	1.081
7.133	1.081
7.074	1.081
7.017	1.009
6.96	1.112
6.905	1.081
6.85	1.185
6.796	1.215
6.743	1.195
6.691	1.36
6.64	1.463
6.589	1.524
6.539	1.607
6.49	1.782
6.442	1.833
6.394	1.864
6.347	1.802
6.301	1.772
6.255	1.73
6.21	1.658
6.166	1.607
6.122	1.597
6.079	1.555
6.037	1.638
5.995	1.772
5.954	1.854
5.913	1.998
5.873	2.184
5.833	2.297
5.794	2.421
5.755	2.4
5.717	2.565
5.68	2.678
5.643	2.699
5.606	2.76
5.57	2.699
5.534	2.843
5.499	2.853
5.464	2.987
5.43	3.121
5.396	2.905
5.363	2.76
5.33	2.709
5.297	2.76
5.265	2.833
5.233	3.142
5.201	3.389
5.17	3.636
5.139	3.76
5.109	3.77
5.079	3.708
5.049	3.667
5.02	3.646
4.991	3.636
4.962	3.708
4.934	3.79
4.906	3.945
4.878	4.079
4.851	4.058
4.824	4.47
4.797	4.594
4.771	3.935
4.744	3.255
4.719	3.018
4.693	3.09
4.668	3.255
4.643	3.203
4.618	3.069
4.593	2.936
4.569	3.059
4.545	3.203
4.521	3.172
4.498	3.162
4.474	3.244
4.451	3.368
4.428	3.358
4.406	3.523
4.384	3.471
4.361	3.43
4.34	3.554
4.318	3.842
4.296	4.161
4.275	4.429
4.254	4.553
4.233	4.934
4.213	5.263
4.192	5.346
4.172	5.541
4.152	5.552
4.132	5.665
4.112	5.892
4.093	6.077
4.074	6.314
4.055	6.561
4.036	6.726
4.017	6.983
3.998	6.973
3.98	6.952
3.962	7.076
3.944	7.344
3.926	7.509
3.908	7.509
3.89	7.653
3.873	7.107
3.856	7.591
3.838	7.756
3.822	7.869
3.805	7.818
3.788	7.828
3.771	7.735
3.755	7.56
3.739	7.55
3.723	7.354
3.707	7.272
3.691	7.169
3.675	7.045
3.66	7.004
3.644	6.808
3.629	6.767
3.614	6.551
3.599	6.52
3.584	6.17
3.569	5.923
3.554	5.953
3.54	5.85
3.525	5.531
3.511	5.181
3.497	4.944
3.483	4.923
3.469	4.975
3.455	4.707
3.441	4.573
3.428	4.326
3.414	4.233
3.401	4.213
3.387	4.285
3.374	4.171
3.361	4.305
3.348	4.151
3.335	4.11
3.322	4.202
3.309	3.914
3.297	3.893
3.284	3.955
3.272	3.698
3.259	3.76
3.247	3.687
3.235	3.554
3.223	3.471
3.211	3.471
3.199	3.327
3.187	3.296
3.176	3.42
3.164	3.224
3.152	3.183
3.141	3.1
3.13	2.874
3.118	2.915
3.107	2.853
3.096	2.833
3.085	2.709
3.074	2.74
3.063	2.771
3.052	2.729
3.042	2.802
3.031	2.513
3.02	2.781
3.01	2.503
2.999	2.534
2.989	2.544
2.979	2.369
2.968	2.523
2.958	2.215
2.948	2.544
2.938	2.565
2.928	2.256
2.918	2.472
2.909	2.482
2.899	2.606
2.889	2.472
2.879	3.049
2.87	4.769
2.86	3.935
2.851	2.276
2.842	2.863
2.832	2.039
2.823	1.998
2.814	2.307
2.805	2.215
2.796	2.276
2.787	2.575
2.778	2.668
2.769	2.853
2.76	2.915
2.751	3.306
2.742	3.512
2.734	3.718
2.725	3.966
2.717	4.388
2.708	5.294
2.7	6.365
2.691	7.684
2.683	8.425
2.675	9.033
2.666	10.043
2.658	10.609
2.65	11.721
2.642	12.999
2.634	12.885
2.626	12.473
2.618	12.494
2.61	11.927
2.602	11.773
2.594	11.546
2.586	10.867
2.579	10.908
2.571	10.661
2.563	10.825
2.556	10.867
2.548	11.361
2.541	10.97
2.533	10.434
2.526	9.703
2.519	8.528
2.511	8.364
2.504	9.136
2.488	10.409
2.464	10.345
2.44	10.733
2.416	12.061
2.392	13.776
2.368	19.357
2.344	19.202
2.32	16.272
2.296	21.474
2.272	22.824
2.248	22.837
2.224	18.427
2.2	15.006
2.176	13.011
2.152	13.539
2.128	16.045
2.104	20.169
2.08	21.744
2.056	22.146
2.032	23.153
2.008	23.327
1.984	24.315
1.96	23.631
1.936	23.308
1.912	23.172
1.888	27.688
1.864	33.527
1.84	35.403
1.816	35.787
1.792	32.388
1.768	27.825
1.744	31.028
1.72	35.805
1.696	37.536
1.672	38.542
1.648	39.046
1.624	39.072
1.6	38.83
1.576	38.762
1.552	38.362
1.528	37.219
1.504	33.786
1.48	23.837
1.456	29.554
1.432	27.335
1.408	35.407
1.384	40.096
1.36	42.302
1.336	42.926
1.312	45.198
1.288	45.085
1.264	42.75
1.24	44.934
1.216	46.057
1.192	46.479
1.168	46.593
1.144	46.896
1.12	47.307
1.096	47.412
1.072	47.565
1.048	47.472
1.024	46.876
1	45.892
0.976	46.724
0.952	47.326
0.928	47.715
0.904	47.969
0.88	48.023
0.856	47.851
0.832	47.453
0.808	47.275
0.784	47.014
0.76	46.772
0.736	46.614
0.712	46.171
0.688	45.534
0.664	45.105
0.64	44.699
0.616	44.218
0.592	43.544
0.568	42.479
0.544	41.068
0.52	39.734
0.496	38.471
0.472	37.323
0.448	36.254
0.424	34.499
0.4	32.754
