Name: Rhyolite
Type: Rock
Class: Igneous
Subclass: Felsic
Particle Size: Solid
Sample No.: AP-981-176
Owner: United States Geological Survey, L. C. Rowan
Wavelength Range: All
Origin: Iberian Pyrite Belt, Spain
Description: Rhyolite, tan, paragoniticSample was Whole Rock Chips. Original ASTER Spectral Library name was usgs.perknic.rock.igneous.felsic.solid.rhy176.spectrum.txt
Measurement: Directional Hemispherical Reflectance
X Units: Wavelength (micrometers)
Y Units: Reflectance (percent)
wavelength	value
14.051	2.7604
13.79	2.8325
13.538	3.0076
13.295	3.09
13.06	3.3166
12.834	3.605
12.616	3.0282
12.404	2.9046
12.2	2.3278
12.002	2.987
11.811	3.6977
11.626	4.2333
11.446	4.5629
11.272	4.6968
11.103	5.047
10.939	5.0058
10.78	4.9337
10.625	4.9543
10.475	5.0779
10.329	5.0985
10.187	5.5414
10.049	6.0461
9.914	6.7259
9.783	6.6229
9.656	8.1988
9.532	8.5799
9.411	8.9919
9.293	11.1446
9.178	10.8768
9.065	9.5893
8.956	9.3421
8.849	9.8159
8.744	9.2803
8.642	8.0031
8.543	9.0743
8.445	9.4657
8.35	10.0322
8.257	10.6502
8.166	11.1961
8.077	8.1164
7.99	5.3663
7.905	3.3784
7.821	2.266
7.739	1.9261
7.659	1.5862
7.581	1.3184
7.504	1.3596
7.429	1.1948
7.355	1.1536
7.283	1.2154
7.212	1.3699
7.143	1.339
7.074	1.3596
7.007	1.4935
6.942	1.5656
6.877	1.648
6.814	1.6789
6.752	1.7304
6.691	1.8437
6.631	1.8849
6.572	2.0394
6.514	2.0909
6.458	2.3381
6.402	2.4514
6.347	2.3175
6.293	2.2042
6.24	2.1321
6.188	2.1424
6.137	2.2763
6.086	2.4617
6.037	2.5338
5.988	2.5956
5.94	2.5441
5.893	2.7089
5.846	3.0179
5.8	3.2136
5.755	3.3166
5.711	3.4196
5.667	3.4608
5.624	3.3063
5.582	3.2445
5.54	3.3372
5.499	3.5535
5.459	3.8316
5.419	3.8728
5.379	3.5226
5.341	3.2857
5.302	3.4917
5.265	3.7492
5.227	4.2024
5.191	4.5732
5.155	4.7174
5.119	4.7174
5.084	4.7998
5.049	4.7895
5.015	4.8307
4.981	5.0161
4.948	5.7165
4.915	6.0667
4.883	7.0967
4.851	7.9207
4.819	8.4357
4.788	8.5902
4.758	8.8168
4.727	9.2803
4.697	9.4348
4.668	9.5996
4.638	10.2176
4.61	10.8665
4.581	11.2476
4.553	11.536
4.525	11.4742
4.498	11.0004
4.47	10.9489
4.444	11.4536
4.417	11.9686
4.391	12.5866
4.365	13.3282
4.34	13.9359
4.314	14.1625
4.289	14.2964
4.265	14.3994
4.24	14.9247
4.216	15.0483
4.192	15.347
4.169	15.5942
4.145	15.759
4.122	16.0165
4.099	16.3667
4.077	16.4182
4.055	16.6036
4.032	16.583
4.011	16.5315
3.989	16.7684
3.968	16.789
3.947	17.1083
3.926	17.1289
3.905	17.3143
3.884	17.2422
3.864	17.1907
3.844	17.0671
3.824	17.2113
3.805	17.1804
3.785	17.0671
3.766	16.7684
3.747	16.686
3.728	16.5933
3.709	16.4903
3.691	16.4697
3.673	16.274
3.655	16.0474
3.637	15.8826
3.619	15.5633
3.601	15.2543
3.584	14.8732
3.567	14.6672
3.549	14.3891
3.533	14.1831
3.516	13.8741
3.499	13.8432
3.483	13.6887
3.466	13.5239
3.45	13.2973
3.434	12.978
3.418	12.6072
3.403	12.2776
3.387	12.1746
3.372	11.7935
3.357	11.5051
3.341	11.4433
3.326	11.1446
3.312	10.9283
3.297	10.8459
3.282	10.6914
3.268	10.4648
3.253	10.3721
3.239	10.3
3.225	10.0322
3.211	9.9292
3.197	9.7747
3.183	9.6408
3.17	9.4966
3.156	9.2803
3.143	9.1773
3.13	8.8992
3.117	8.961
3.103	8.652
3.091	8.6623
3.078	8.5696
3.065	8.5078
3.052	8.446
3.04	8.5593
3.027	8.6623
3.015	8.446
3.003	8.5902
2.991	8.4357
2.979	8.5181
2.967	8.5181
2.955	8.3842
2.943	8.5799
2.932	8.4357
2.92	8.4254
2.909	8.8065
2.897	8.7859
2.886	9.064
2.875	8.858
2.864	9.27
2.853	9.1052
2.842	9.2185
2.831	9.3112
2.82	9.167
2.809	9.4966
2.799	9.2185
2.788	8.652
2.778	7.9722
2.767	7.0967
2.757	6.7362
2.747	7.1997
2.737	7.6529
2.727	8.7035
2.717	10.1455
2.707	10.3206
2.697	11.742
2.687	17.098
2.677	20.7339
2.668	23.1338
2.658	24.8436
2.649	25.956
2.639	26.7388
2.63	27.4186
2.62	28.0778
2.611	27.9954
2.602	28.6546
2.593	28.6443
2.584	29.5919
2.575	29.561
2.566	29.9009
2.557	30.1996
2.548	30.2099
2.54	30.8073
2.531	30.9515
2.522	31.4356
2.514	30.9515
2.505	30.9309
2.489	30.9047
2.461	30.3047
2.433	30.8047
2.405	32.5047
2.377	33.3047
2.349	33.5047
2.321	34.7047
2.293	37.7047
2.265	40.1047
2.237	39.0047
2.209	33.8047
2.181	35.7047
2.153	40.4047
2.125	42.6047
2.097	44.5047
2.069	45.6047
2.041	45.9047
2.013	45.1047
1.985	44.2047
1.957	43.2047
1.929	42.3047
1.901	42.9047
1.873	50.6047
1.845	52.8047
1.817	53.0047
1.789	53.2047
1.761	53.6047
1.733	53.7047
1.705	53.9047
1.677	54.0047
1.649	54.3047
1.621	54.0047
1.593	53.9047
1.565	54.2047
1.537	53.2047
1.509	53.4047
1.481	52.9047
1.453	52.0047
1.425	49.1047
1.397	45.4047
1.369	53.0047
1.341	54.3047
1.313	54.0047
1.285	53.7047
1.257	52.6047
1.229	53.4047
1.201	51.9047
1.173	51.2047
1.145	51.3047
1.117	50.6047
1.089	49.6047
1.061	49.2047
1.033	49.1047
1.005	48.4047
0.977	47.9047
0.949	47.5047
0.921	47.3047
0.893	47.0047
0.865	46.8047
0.837	46.8047
0.809	47.7047
0.799	48.4047
0.792	48.2047
0.785	48.5047
0.778	48.5047
0.771	48.2047
0.764	48.5047
0.757	47.7047
0.75	47.6047
0.743	47.5047
0.736	46.9047
0.729	47.0047
0.722	46.8047
0.715	46.2047
0.708	45.6047
0.701	44.7047
0.694	44.6047
0.687	44.3047
0.68	44.0047
0.673	44.1047
0.666	43.5047
0.659	43.6047
0.652	43.2047
0.645	43.2047
0.638	42.4047
0.631	42.4047
0.624	42.3047
0.617	42.3047
0.61	41.8047
0.603	42.0047
0.596	40.9047
0.589	39.9047
0.582	39.4047
0.575	39.1047
0.568	38.6047
0.561	38.3047
0.554	36.3047
0.547	35.7047
0.54	34.2047
0.533	32.7047
0.526	31.4047
0.519	29.8047
0.512	29.2047
0.505	27.8047
0.498	27.1047
0.491	26.3047
0.484	25.5047
0.477	25.6047
0.47	25.8047
0.463	25.3047
0.456	24.3047
0.449	24.3047
0.442	23.5047
0.435	22.7047
0.428	22.1047
0.421	21.5047
0.414	21.0047
0.407	21.0047
