Name: White Marble
Type: Rock
Class: Metamorphic
Subclass: Marble
Particle Size: Solid
Sample No.: Ward95
Owner: JPL
Wavelength Range: VSWIR
Origin: Ward's Collection of American Rocks.  Sample locality - West Rutland, Rutland County, Vermont.  Collected by - JPL.
Description: A white, saccharoidal rock with occasional pale greenpatches.  Geologic age - OrdovicianCollected by:  Ward's Natural Science Original ASTER Spectral Library name was jpl.perkin.rock.metamorphic.marble.solid.ward95.spectrum.txt
Measurement: Hemispherical reflectance
X Units: Wavelength (micrometers)
Y Units: Reflectance (percent)
wavelength	value
2.5	14.6028
2.494	14.9576
2.488	15.6376
2.482	16.2303
2.476	17.4863
2.47	19.1854
2.464	21.1336
2.458	23.0586
2.452	25.09
2.446	27.0002
2.44	28.9336
2.434	30.7702
2.428	32.7332
2.422	34.5622
2.416	36.1628
2.41	37.209
2.404	37.6579
2.398	38.0282
2.392	38.3032
2.386	38.2112
2.38	36.9878
2.374	34.6469
2.368	31.1358
2.362	27.0695
2.356	22.9815
2.35	19.6589
2.344	17.7191
2.338	17.1214
2.332	17.44
2.326	18.4178
2.32	19.5343
2.314	20.5375
2.308	21.2862
2.302	21.9497
2.296	22.7104
2.29	23.7152
2.284	25.0902
2.278	26.9028
2.272	28.9681
2.266	31.0985
2.26	33.2014
2.254	35.1085
2.248	36.9998
2.242	38.8897
2.236	40.5925
2.23	42.1508
2.224	43.552
2.218	44.9968
2.212	46.4244
2.206	47.8146
2.2	49.2239
2.194	50.1959
2.188	50.6875
2.182	50.555
2.176	49.6733
2.17	48.392
2.164	47.143
2.158	46.5691
2.152	46.9048
2.146	48.4849
2.14	51.0702
2.134	53.3999
2.128	54.6907
2.122	55.4389
2.116	56.2715
2.11	57.1341
2.104	58.2701
2.098	59.2985
2.092	60.3235
2.086	61.1364
2.08	61.6414
2.074	62.1058
2.068	62.4689
2.062	62.6159
2.056	62.719
2.05	62.6157
2.044	62.3681
2.038	61.9698
2.032	61.106
2.026	59.7147
2.02	58.0771
2.014	56.0777
2.008	52.8068
2.002	48.7071
1.996	47.2677
1.99	49.3465
1.984	51.9551
1.978	53.2928
1.972	53.8548
1.966	54.5988
1.96	55.6188
1.954	57.0592
1.948	58.5444
1.942	59.561
1.936	60.3556
1.93	60.6973
1.924	61.1171
1.918	61.4103
1.912	61.4248
1.906	61.4783
1.9	60.9853
1.894	59.7944
1.888	56.8203
1.882	52.0447
1.876	49.1823
1.87	51.3197
1.864	54.6649
1.858	56.73
1.852	57.853
1.846	58.6825
1.84	59.6815
1.834	61.1703
1.828	62.5618
1.822	63.7341
1.816	64.5216
1.81	65.2495
1.804	65.7504
1.798	66.0767
1.792	66.4302
1.786	66.5239
1.78	66.5119
1.774	66.2267
1.768	65.1462
1.762	64.0754
1.756	63.7439
1.75	63.9136
1.744	64.0988
1.738	64.0703
1.732	64.1493
1.726	64.3955
1.72	64.6911
1.714	65.0919
1.708	65.5352
1.702	65.8905
1.696	66.3103
1.69	66.5842
1.684	66.8273
1.678	66.999
1.672	66.8086
1.666	66.9182
1.66	66.7491
1.654	66.6058
1.648	66.5181
1.642	66.8047
1.636	66.9905
1.63	66.9841
1.624	67.1181
1.618	67.1256
1.612	67.0843
1.606	67.1044
1.6	67.2204
1.594	67.0992
1.588	67.0263
1.582	66.8951
1.576	66.5892
1.57	66.1346
1.564	66.0934
1.558	66.3453
1.552	66.4914
1.546	66.4655
1.54	66.4985
1.534	66.5267
1.528	66.5443
1.522	66.5045
1.516	66.4548
1.51	66.4565
1.504	66.4011
1.498	66.3026
1.492	66.2046
1.486	66.0284
1.48	66.0335
1.474	65.9487
1.468	65.9773
1.462	66.0024
1.456	66.0169
1.45	66.0403
1.444	66.1238
1.438	66.0736
1.432	65.9646
1.426	65.4836
1.42	64.7338
1.414	64.4697
1.408	65.0228
1.402	65.7825
1.396	66.5052
1.39	66.9591
1.384	67.1306
1.378	67.217
1.372	67.2114
1.366	67.4061
1.36	67.3335
1.354	67.4586
1.348	67.5015
1.342	67.5651
1.336	67.6331
1.33	67.7347
1.324	67.767
1.318	67.8714
1.312	67.8617
1.306	67.9053
1.3	67.8705
1.294	67.8943
1.288	67.9517
1.282	68.0095
1.276	68.0428
1.27	68.0721
1.264	68.0773
1.258	68.0807
1.252	68.0842
1.246	68.027
1.24	68.0548
1.234	68.0387
1.228	67.962
1.222	67.9271
1.216	67.9567
1.21	67.907
1.204	67.9584
1.198	67.826
1.192	67.818
1.186	67.7968
1.18	67.7479
1.174	67.7239
1.168	67.7259
1.162	67.6342
1.156	67.7192
1.15	67.7183
1.144	67.6628
1.138	67.6693
1.132	67.7094
1.126	67.8512
1.12	67.876
1.114	67.9435
1.108	68.0565
1.102	68.0772
1.096	68.2343
1.09	68.3462
1.084	68.487
1.078	68.5252
1.072	68.7194
1.066	68.9063
1.06	69.0716
1.054	69.2278
1.048	69.4609
1.042	69.6607
1.036	69.8234
1.03	70.0481
1.024	70.3178
1.018	70.4996
1.012	70.7232
1.006	71.0033
1	71.147
0.994	71.4828
0.988	71.6104
0.982	71.8281
0.976	72.0519
0.97	72.2199
0.964	72.3843
0.958	72.6638
0.952	72.865
0.946	73.0155
0.94	73.2457
0.934	73.3346
0.928	73.6428
0.922	73.7904
0.916	73.826
0.91	73.9994
0.904	74.1259
0.898	74.2333
0.892	74.3477
0.886	74.4285
0.88	74.5032
0.874	74.6668
0.868	74.8311
0.862	74.8963
0.856	74.8602
0.85	74.9562
0.844	75.0792
0.838	75.2079
0.832	75.3077
0.826	75.4115
0.82	75.4522
0.814	75.4969
0.808	75.5912
0.802	75.6371
0.796	75.6248
0.79	75.6456
0.784	75.7057
0.778	75.7161
0.772	75.7479
0.766	75.7437
0.76	75.8212
0.754	75.8203
0.748	75.7995
0.742	75.8055
0.736	75.8042
0.73	75.8118
0.724	75.8122
0.718	75.8005
0.712	75.7538
0.706	75.764
0.7	75.721
0.694	75.6687
0.688	75.6389
0.682	75.6015
0.676	75.5854
0.67	75.5216
0.664	75.4664
0.658	75.4171
0.652	75.36
0.646	75.3019
0.64	75.2297
0.634	75.162
0.628	75.0989
0.622	75.0308
0.616	74.9856
0.61	74.9173
0.604	74.8755
0.598	74.8683
0.592	74.871
0.586	74.8161
0.58	74.7754
0.574	74.7348
0.568	74.6694
0.562	74.5996
0.556	74.511
0.55	74.4161
0.544	74.303
0.538	74.1532
0.532	74.016
0.526	73.8216
0.52	73.6384
0.514	73.4293
0.508	73.1828
0.502	72.9348
0.496	72.6472
0.49	72.3042
0.484	71.9782
0.478	71.5892
0.472	71.2187
0.466	70.8268
0.46	70.3748
0.454	69.9446
0.448	69.4455
0.442	68.9189
0.436	68.3492
0.43	67.7008
0.424	66.9079
0.418	65.9812
0.412	64.8344
0.406	63.3922
0.4	61.6234
