Name: Rhyolite
Type: Rock
Class: Igneous
Subclass: Felsic
Particle Size: Solid
Sample No.: AP-938-226
Owner: United States Geological Survey, L. C. Rowan
Wavelength Range: All
Origin: Iberian Pyrite Belt, Spain
Description: Rhyolite, medium grained unaltered volcanicSample was Whole Rock Chips. Original ASTER Spectral Library name was usgs.perknic.rock.igneous.felsic.solid.rhy226.spectrum.txt
Measurement: Directional Hemispherical Reflectance
X Units: Wavelength (micrometers)
Y Units: Reflectance (percent)
wavelength	value
14.051	3.5844
13.79	4.2024
13.538	3.9346
13.295	4.12
13.06	4.9955
12.834	5.9534
12.616	4.8616
12.404	5.0161
12.2	2.3381
12.002	3.0282
11.811	3.605
11.626	3.9655
11.446	4.2745
11.272	4.7689
11.103	4.9543
10.939	5.2942
10.78	5.8813
10.625	6.4478
10.475	7.2409
10.329	8.2709
10.187	9.888
10.049	11.536
9.914	12.978
9.783	13.1428
9.656	15.2543
9.532	15.7487
9.411	16.9229
9.293	20.1262
9.178	20.497
9.065	19.6421
8.956	19.261
8.849	19.3228
8.744	19.261
8.642	16.9126
8.543	19.4979
8.445	20.3013
8.35	20.0335
8.257	19.1889
8.166	16.9847
8.077	10.1764
7.99	5.8401
7.905	3.3269
7.821	2.163
7.739	1.6171
7.659	1.3287
7.581	1.0712
7.504	1.0197
7.429	0.9064
7.355	0.8137
7.283	0.8549
7.212	0.9682
7.143	0.8858
7.074	0.9476
7.007	0.9579
6.942	1.0712
6.877	1.0609
6.814	1.133
6.752	1.0815
6.691	1.2051
6.631	1.2051
6.572	1.3184
6.514	1.3184
6.458	1.2978
6.402	1.3493
6.347	1.3184
6.293	1.3184
6.24	1.4008
6.188	1.2669
6.137	1.4626
6.086	1.4729
6.037	1.5038
5.988	1.5244
5.94	1.545
5.893	1.5759
5.846	1.6377
5.8	1.751
5.755	1.751
5.711	1.7716
5.667	1.8334
5.624	1.8437
5.582	1.7819
5.54	1.8437
5.499	1.9364
5.459	1.9673
5.419	1.9982
5.379	1.9673
5.341	1.8952
5.302	1.8849
5.265	2.0291
5.227	2.0394
5.191	2.2454
5.155	2.2042
5.119	2.2248
5.084	2.2557
5.049	2.3175
5.015	2.266
4.981	2.3278
4.948	2.4617
4.915	2.6471
4.883	2.8119
4.851	2.9252
4.819	3.1003
4.788	3.193
4.758	3.2754
4.727	3.3784
4.697	3.399
4.668	3.4917
4.638	3.605
4.61	3.8316
4.581	4.0788
4.553	4.1509
4.525	4.1818
4.498	4.12
4.47	4.1406
4.444	4.3775
4.417	4.5114
4.391	4.9543
4.365	5.3148
4.34	5.6856
4.314	5.8916
4.289	6.0873
4.265	6.3139
4.24	6.5817
4.216	6.7156
4.192	6.7877
4.169	7.004
4.145	7.2718
4.122	7.3645
4.099	7.6941
4.077	7.931
4.055	7.9207
4.032	7.9516
4.011	7.8898
3.989	8.034
3.968	8.2606
3.947	8.5387
3.926	8.4872
3.905	8.6108
3.884	8.6108
3.864	8.5387
3.844	8.8065
3.824	8.6932
3.805	8.7859
3.785	8.7859
3.766	8.6623
3.747	8.6314
3.728	8.7859
3.709	8.7035
3.691	8.7756
3.673	8.961
3.655	8.9507
3.637	8.9198
3.619	8.8889
3.601	8.7241
3.584	8.6623
3.567	8.5387
3.549	8.4254
3.533	8.3533
3.516	8.1885
3.499	7.9104
3.483	7.9104
3.466	7.7456
3.45	7.6323
3.434	7.4057
3.418	7.21
3.403	7.0143
3.387	7.0349
3.372	6.9113
3.357	6.901
3.341	6.9937
3.326	6.7568
3.312	6.5714
3.297	6.489
3.282	6.3242
3.268	6.1491
3.253	6.077
3.239	5.974
3.225	5.8401
3.211	5.8092
3.197	5.6856
3.183	5.6135
3.17	5.4384
3.156	5.2118
3.143	5.1912
3.13	5.2118
3.117	5.1294
3.103	5.15
3.091	4.9028
3.078	4.8925
3.065	4.9955
3.052	4.9955
3.04	4.5526
3.027	4.738
3.015	4.8307
3.003	4.6453
2.991	4.7071
2.979	4.738
2.967	4.7277
2.955	4.7792
2.943	4.8616
2.932	4.7277
2.92	4.8719
2.909	5.0367
2.897	4.9646
2.886	5.1706
2.875	5.2221
2.864	5.5002
2.853	5.2633
2.842	5.4899
2.831	5.2633
2.82	5.1191
2.809	5.1088
2.799	4.8204
2.788	4.5938
2.778	4.3466
2.767	4.6247
2.757	4.4496
2.747	5.0779
2.737	5.4487
2.727	6.2521
2.717	6.6744
2.707	6.5096
2.697	6.8495
2.687	10.2485
2.677	12.5557
2.668	13.8226
2.658	14.4406
2.649	15.1101
2.639	15.1719
2.63	15.7075
2.62	15.553
2.611	15.9135
2.602	15.9959
2.593	16.3255
2.584	16.6139
2.575	16.5727
2.566	16.8817
2.557	16.583
2.548	16.7993
2.54	16.8405
2.531	17.2937
2.522	17.1083
2.514	16.8096
2.505	17.1289
2.489	17.0452
2.461	16.3452
2.433	16.3452
2.405	16.9452
2.377	16.9452
2.349	15.9452
2.321	16.3452
2.293	17.6452
2.265	18.8452
2.237	17.5452
2.209	17.6452
2.181	19.8452
2.153	21.0452
2.125	21.5452
2.097	22.1452
2.069	22.1452
2.041	22.0452
2.013	22.0452
1.985	21.5452
1.957	21.2452
1.929	21.2452
1.901	21.5452
1.873	23.4452
1.845	24.3452
1.817	24.3452
1.789	24.5452
1.761	25.0452
1.733	25.1452
1.705	25.3452
1.677	25.4452
1.649	25.6452
1.621	25.8452
1.593	25.9452
1.565	26.4452
1.537	26.7452
1.509	26.4452
1.481	27.0452
1.453	27.4452
1.425	26.5452
1.397	27.0452
1.369	29.0452
1.341	29.2452
1.313	30.1452
1.285	30.1452
1.257	30.3452
1.229	30.6452
1.201	30.8452
1.173	31.3452
1.145	31.7452
1.117	32.2452
1.089	32.5452
1.061	33.0452
1.033	34.1452
1.005	34.4452
0.977	34.6452
0.949	34.6452
0.921	34.4452
0.893	34.5452
0.865	34.8452
0.837	35.2452
0.809	35.8452
0.799	35.2452
0.792	35.2452
0.785	35.3452
0.778	35.5452
0.771	35.3452
0.764	35.1452
0.757	35.1452
0.75	35.5452
0.743	34.6452
0.736	34.8452
0.729	34.5452
0.722	34.7452
0.715	34.4452
0.708	34.2452
0.701	34.1452
0.694	34.1452
0.687	33.7452
0.68	34.0452
0.673	34.2452
0.666	34.2452
0.659	34.1452
0.652	34.1452
0.645	34.1452
0.638	34.0452
0.631	34.6452
0.624	34.0452
0.617	34.1452
0.61	34.1452
0.603	34.0452
0.596	33.5452
0.589	33.3452
0.582	33.1452
0.575	32.8452
0.568	32.3452
0.561	32.6452
0.554	32.0452
0.547	31.9452
0.54	31.8452
0.533	31.3452
0.526	31.8452
0.519	31.4452
0.512	31.7452
0.505	31.2452
0.498	30.6452
0.491	30.7452
0.484	30.4452
0.477	30.4452
0.47	31.1452
0.463	31.2452
0.456	31.1452
0.449	30.9452
0.442	30.9452
0.435	31.1452
0.428	30.7452
0.421	30.6452
0.414	30.4452
0.407	30.3452
