Name: Dunite
Type: rock
Class: Igneous
Subclass: Ultramafic
Particle Size: Fine
Sample No.: Dunite_H1
Owner: JHU
Wavelength Range: All
Origin: from near Balsam, Jackson County, North Carolina, via Ward'sScientific (Cat. No. W-41)
Description: The sample from which the powder was derived is a green, medium- to fine-grained granular rock composed almost entirely of olivine, with some scattered opaques (chromite?).  There is a brown weathering stain on one surface.Particle size was 0-75 micrometers. Original ASTER Spectral Library name was jhu.becknic.rock.igneous.ultramafic.fine.dunit1.spectrum.txt
Measurement: Directional (10 degree) hemispherical reflectance
X Units: Wavelength (micrometers)
Y Units: Reflectance (percent)
wavelength	value
14.011	3.8494
13.715	5.4637
13.43	5.5696
13.158	7.4062
12.896	8.0386
12.644	7.9387
12.402	6.8995
12.169	5.1086
11.945	2.9883
11.729	3.3811
11.52	4.4578
11.319	5.3535
11.125	5.051
10.937	5.0878
10.755	5.3029
10.58	5.4398
10.41	3.7083
10.245	3.4444
10.086	3.5271
9.9313	3.4924
9.7814	3.6075
9.636	4.0896
9.4948	4.3176
9.3577	4.1604
9.2245	2.6564
9.095	1.8933
8.9691	1.9509
8.8467	2.167
8.7275	2.639
8.6116	3.4043
8.4986	4.5115
8.3886	5.7298
8.2814	7.1156
8.1769	8.5502
8.075	10.352
7.9756	11.96
7.8786	12.992
7.784	13.501
7.6916	14.1
7.6014	13.972
7.5133	13.57
7.4272	13.176
7.343	13.112
7.2607	13.656
7.1803	14.079
7.1016	14.9
7.0246	15.94
6.9493	17.411
6.8755	18.608
6.8034	19.125
6.7327	20.27
6.6634	21.4
6.5956	22.338
6.5292	23.039
6.464	23.677
6.4002	23.759
6.3376	23.599
6.2762	23.645
6.216	24.716
6.157	25.178
6.099	24.733
6.0421	22.202
5.9863	20.043
5.9315	22.103
5.8777	23.266
5.8249	24.59
5.773	25.839
5.722	25.094
5.6719	22.155
5.6227	20.205
5.5744	23.42
5.5268	26.138
5.4801	26.343
5.4341	26.778
5.3889	28.583
5.3445	30.348
5.3008	31.37
5.2578	31.648
5.2154	31.667
5.1738	33.342
5.1328	34.928
5.0925	36.181
5.0528	36.864
5.0137	36.729
4.9752	35.894
4.9373	35.147
4.9	38.254
4.8632	42.543
4.827	44.697
4.7913	45.728
4.7561	46.617
4.7215	47.152
4.6873	47.593
4.6536	47.961
4.6205	48.342
4.5877	48.663
4.5555	49.023
4.5237	49.391
4.4923	49.667
4.4614	49.901
4.4309	50.134
4.4008	50.313
4.3711	50.58
4.3418	50.739
4.3129	50.912
4.2844	51.044
4.2563	51.15
4.2285	51.205
4.2011	51.212
4.174	51.114
4.1473	51.013
4.1209	50.999
4.0949	50.988
4.0692	50.949
4.0438	50.853
4.0187	50.561
3.994	50.367
3.9695	50.043
3.9453	49.857
3.9214	49.657
3.8979	49.457
3.8746	49.172
3.8515	48.871
3.8288	48.496
3.8063	48.02
3.7841	47.671
3.7621	47.302
3.7404	46.825
3.7189	46.262
3.6977	45.856
3.6767	45.332
3.656	44.823
3.6355	44.245
3.6152	43.571
3.5951	42.935
3.5753	42.511
3.5557	41.995
3.5363	41.356
3.5171	40.599
3.4981	39.904
3.4793	39.535
3.4607	38.981
3.4423	38.403
3.4241	37.638
3.4061	37.315
3.3883	37.118
3.3707	36.835
3.3533	36.528
3.336	36.167
3.3189	35.807
3.302	35.453
3.2853	35.128
3.2687	34.812
3.2523	34.539
3.2361	34.195
3.22	33.906
3.204	33.602
3.1883	33.291
3.1727	32.931
3.1572	32.615
3.1419	32.226
3.1268	31.871
3.1117	31.542
3.0969	31.184
3.0821	30.845
3.0675	30.583
3.0531	30.239
3.0388	29.819
3.0246	29.497
3.0105	29.101
2.9966	28.664
2.9828	28.161
2.9692	27.69
2.9556	27.209
2.9422	26.678
2.9289	26.247
2.9157	25.947
2.9027	25.648
2.8897	25.319
2.8769	25.107
2.8642	25.011
2.8516	25.082
2.8391	25.106
2.8267	25.048
2.8144	24.845
2.8022	24.651
2.7902	24.703
2.7782	24.743
2.7664	24.856
2.7546	25.083
2.7429	23.801
2.7314	22.746
2.7199	19.527
2.7085	17.863
2.6973	30.63
2.6861	47.208
2.675	55.281
2.664	58.685
2.6531	59.818
2.6423	60.869
2.6315	61.218
2.6209	61.416
2.6103	61.409
2.5999	61.48
2.5895	61.267
2.5792	61.11
2.569	60.9
2.5588	60.61
2.5487	60.699
2.5388	60.662
2.5289	60.68
2.519	60.322
2.5093	60.016
2.4996	60.271
2.49	60.738
2.4805	60.82
2.471	61.126
2.4616	61.442
2.4523	61.554
2.4431	61.224
2.4339	61.17
2.4248	61.626
2.4157	61.661
2.4068	61.708
2.3979	61.75
2.389	61.694
2.3802	61.875
2.3715	61.813
2.3629	62.292
2.3543	62.207
2.3458	61.488
2.3373	60.492
2.3289	60.396
2.3206	60.335
2.3123	60.764
2.3041	61.566
2.2959	61.913
2.2878	62.145
2.2798	62.483
2.2718	62.536
2.2638	63.092
2.2559	63.569
2.2481	63.775
2.2403	63.902
2.2326	64.406
2.225	64.535
2.2173	64.688
2.2098	64.723
2.2023	64.932
2.1948	65.074
2.1874	65.16
2.18	65.154
2.1727	65.243
2.1655	65.334
2.1583	65.406
2.1511	65.37
2.144	65.326
2.1369	65.355
2.1299	65.488
2.1229	65.546
2.116	65.539
2.1091	65.661
2.1023	65.66
2.0955	65.837
2.0887	65.863
2.082	65.863
2.06	65.902
2.028	65.023
1.996	64.431
1.964	63.996
1.932	63.76
1.9	64.34
1.868	65.522
1.836	66.416
1.804	66.994
1.772	67.133
1.74	68.095
1.708	68.305
1.676	68.494
1.644	68.534
1.612	68.541
1.58	67.847
1.548	67.819
1.516	66.397
1.484	64.309
1.452	63.019
1.42	60.828
1.388	57.974
1.356	57.49
1.324	55.572
1.292	54.45
1.26	52.602
1.228	52.176
1.196	50.733
1.164	49.864
1.132	49.188
1.1	47.248
1.068	45.829
1.036	44.936
1.004	46.054
0.972	47.66
0.94	49.803
0.908	51.985
0.876	53.115
0.844	53.47
0.812	54.483
0.795	55.239
0.787	55.43
0.779	55.706
0.771	56.091
0.763	56.275
0.755	56.231
0.747	56.616
0.739	57.469
0.731	57.373
0.723	57.759
0.715	57.854
0.707	57.995
0.699	58.344
0.691	58.957
0.683	58.511
0.675	58.912
0.667	58.761
0.659	58.912
0.651	59.473
0.643	58.812
0.635	58.863
0.627	58.97
0.619	59.073
0.611	58.921
0.603	58.077
0.595	58.697
0.587	58.141
0.579	57.527
0.571	58.171
0.563	58.177
0.555	57.785
0.547	57.609
0.539	57.5
0.531	56.706
0.523	56.039
0.515	55.875
0.507	54.907
0.499	54.548
0.491	53.311
0.483	52.783
0.475	51.863
0.467	50.628
0.459	51.66
0.451	50.764
0.443	50.401
0.435	49.394
0.427	49.09
0.419	48.053
0.411	47.391
0.403	46.583
