Name: Basalt
Type: Rock
Class: Igneous
Subclass: Mafic
Particle Size: Solid
Sample No.: ba14c2f
Owner: Larry Rowan, USGS
Wavelength Range: All
Origin: Kerak/DAT RAS, Jordan
Description: medium grained, dark gray basalt Sample was Whole rock chips. Original ASTER Spectral Library name was usgs.perknic.rock.igneous.mafic.solid.ba14c2f.spectrum.txt
Measurement: Reflectance
X Units: Wavelength (micrometers)
Y Units: Reflectance (percent)
wavelength	value
0.4	0.116
0.408	0.115
0.416	0.118
0.424	0.113
0.432	0.113
0.44	0.107
0.448	0.107
0.456	0.102
0.464	0.098
0.472	0.097
0.48	0.097
0.488	0.094
0.496	0.094
0.504	0.093
0.512	0.093
0.52	0.094
0.528	0.094
0.536	0.093
0.544	0.093
0.552	0.093
0.56	0.099
0.568	0.099
0.576	0.099
0.584	0.1
0.592	0.099
0.6	0.099
0.608	0.1
0.616	0.103
0.624	0.103
0.632	0.104
0.64	0.103
0.648	0.102
0.656	0.104
0.664	0.104
0.672	0.105
0.68	0.105
0.688	0.105
0.696	0.103
0.704	0.107
0.712	0.107
0.72	0.109
0.728	0.11
0.736	0.108
0.744	0.107
0.752	0.11
0.76	0.108
0.768	0.108
0.776	0.108
0.784	0.11
0.792	0.109
0.8	0.114
0.832	0.112
0.864	0.114
0.896	0.111
0.928	0.111
0.96	0.107
0.992	0.11
1.024	0.104
1.056	0.104
1.088	0.105
1.12	0.107
1.152	0.107
1.184	0.109
1.216	0.11
1.248	0.11
1.28	0.109
1.312	0.11
1.344	0.112
1.376	0.114
1.408	0.116
1.44	0.12
1.472	0.121
1.504	0.122
1.536	0.127
1.568	0.128
1.6	0.131
1.632	0.133
1.664	0.137
1.696	0.136
1.728	0.137
1.76	0.134
1.792	0.136
1.824	0.134
1.856	0.133
1.888	0.128
1.92	0.127
1.952	0.127
1.984	0.128
2.016	0.131
2.048	0.131
2.08	0.131
2.1021	0.1231
2.109	0.1256
2.1159	0.1234
2.1228	0.1235
2.1298	0.1234
2.1368	0.1249
2.1438	0.1235
2.1509	0.1235
2.1581	0.123
2.1653	0.1211
2.1726	0.121
2.1799	0.1219
2.1872	0.1216
2.1946	0.1207
2.2021	0.12
2.2096	0.1203
2.2172	0.118
2.2248	0.1198
2.2324	0.1188
2.2401	0.1209
2.2479	0.1216
2.2557	0.1201
2.2636	0.1213
2.2715	0.1212
2.2795	0.1195
2.2876	0.1185
2.2957	0.1177
2.3038	0.12
2.3121	0.1202
2.3203	0.1187
2.3287	0.119
2.3371	0.1187
2.3455	0.1191
2.354	0.1185
2.3626	0.12
2.3712	0.1189
2.38	0.1188
2.3887	0.1191
2.3976	0.1188
2.4065	0.1186
2.4154	0.1166
2.4245	0.118
2.4336	0.1179
2.4427	0.1147
2.452	0.1171
2.4613	0.1172
2.4707	0.1176
2.4801	0.1167
2.4896	0.1164
2.4992	0.116
2.5089	0.1154
2.5187	0.1149
2.5285	0.1147
2.5384	0.1143
2.5484	0.1126
2.5584	0.114
2.5686	0.109
2.5788	0.1149
2.5891	0.1119
2.5995	0.1135
2.6099	0.1115
2.6205	0.1072
2.6311	0.1089
2.6418	0.1126
2.6526	0.1102
2.6635	0.103
2.6745	0.1008
2.6856	0.0984
2.6968	0.0891
2.708	0.0763
2.7194	0.0694
2.7309	0.0731
2.7424	0.0644
2.7541	0.057
2.7658	0.0596
2.7777	0.0624
2.7896	0.0612
2.8017	0.0602
2.8138	0.0623
2.8261	0.0644
2.8385	0.0606
2.851	0.0616
2.8636	0.0626
2.8763	0.062
2.8891	0.0614
2.902	0.0604
2.915	0.0617
2.9282	0.0616
2.9415	0.0601
2.9549	0.0603
2.9684	0.0595
2.9821	0.0619
2.9959	0.0614
3.0098	0.0625
3.0238	0.063
3.038	0.0635
3.0523	0.0639
3.0667	0.0636
3.0813	0.0642
3.096	0.0636
3.1109	0.0643
3.1259	0.0645
3.141	0.0666
3.1563	0.0676
3.1718	0.068
3.1874	0.0696
3.2031	0.07
3.219	0.0706
3.2351	0.0721
3.2513	0.0744
3.2677	0.0743
3.2843	0.0749
3.301	0.0763
3.3179	0.0771
3.3349	0.0763
3.3522	0.0745
3.3696	0.0769
3.3872	0.0779
3.405	0.0796
3.423	0.081
3.4412	0.0805
3.4595	0.0802
3.4781	0.0807
3.4968	0.0807
3.5158	0.0821
3.535	0.085
3.5544	0.0871
3.574	0.0871
3.5938	0.0892
3.6138	0.0896
3.6341	0.0903
3.6545	0.0905
3.6753	0.0912
3.6962	0.0915
3.7174	0.0918
3.7389	0.0913
3.7605	0.0914
3.7825	0.0901
3.8047	0.0872
3.8272	0.0855
3.8499	0.0843
3.8729	0.0838
3.8962	0.0837
3.9197	0.0827
3.9436	0.0816
3.9677	0.0795
3.9921	0.08
4.0169	0.0813
4.0419	0.083
4.0673	0.0845
4.093	0.0856
4.119	0.0852
4.1453	0.0848
4.172	0.0849
4.199	0.0825
4.2264	0.0739
4.2541	0.0793
4.2822	0.0749
4.3107	0.077
4.3395	0.0781
4.3688	0.0772
4.3984	0.0759
4.4285	0.0747
4.4589	0.0732
4.4898	0.0714
4.5211	0.0695
4.5529	0.0677
4.5851	0.0657
4.6177	0.0633
4.6509	0.0616
4.6845	0.0599
4.7186	0.0591
4.7532	0.058
4.7883	0.0569
4.8239	0.056
4.8601	0.0551
4.8968	0.0538
4.9341	0.0527
4.9719	0.0512
5.0103	0.0501
5.0493	0.0492
5.089	0.048
5.1292	0.0472
5.1702	0.0459
5.2117	0.0446
5.254	0.0444
5.2969	0.0427
5.3405	0.0415
5.3849	0.041
5.43	0.0399
5.4759	0.0379
5.5225	0.037
5.57	0.0343
5.6182	0.0352
5.6673	0.0341
5.7173	0.0331
5.7682	0.0319
5.82	0.03
5.8727	0.0285
5.9264	0.0285
5.9811	0.0287
6.0368	0.0268
6.0935	0.0292
6.1513	0.0289
6.2103	0.0317
6.2703	0.0328
6.3316	0.035
6.394	0.0425
6.4577	0.0593
6.5227	0.0598
6.589	0.0553
6.6566	0.0553
6.7257	0.0529
6.7962	0.0503
6.8682	0.048
6.9418	0.0463
7.0169	0.0457
7.0937	0.0434
7.1722	0.0362
7.2524	0.0315
7.3345	0.0289
7.4184	0.0277
7.5043	0.0269
7.5922	0.0253
7.6821	0.0234
7.7743	0.0225
7.8686	0.0226
7.9653	0.0222
8.0644	0.0236
8.166	0.0287
8.2701	0.0434
8.377	0.0555
8.4867	0.0622
8.5992	0.0693
8.7149	0.0764
8.8336	0.0858
8.9556	0.0935
9.0811	0.0922
9.2101	0.0893
9.3428	0.0977
9.4795	0.109
9.6201	0.1162
9.765	0.1168
9.9144	0.1159
10.0684	0.1122
10.2272	0.1132
10.3911	0.1155
10.5604	0.1124
10.7353	0.1203
10.9161	0.1166
11.103	0.1103
11.2965	0.1143
11.4968	0.0902
11.7044	0.074
11.9196	0.0655
12.1429	0.0586
12.3747	0.0499
12.6155	0.0444
12.8659	0.0416
13.1264	0.0402
13.3977	0.0398
13.6804	0.0397
13.9753	0.0379
