Name: Verde Antique
Type: Rock
Class: Metamorphic
Subclass: Marble
Particle Size: Solid
Sample No.: Ward98
Owner: JPL
Wavelength Range: VSWIR
Origin: Ward's Collection of American Rocks.  Sample locality - Roxbury, Washington County, Vermont.  Collected by - JPL.
Description: A massive, grayish green rock with veins of magnesite andfibrous serpentine.Collected by:  Ward's Natural Science Original ASTER Spectral Library name was jpl.perkin.rock.metamorphic.serpentinite.solid.ward98.spectrum.txt
Measurement: Hemispherical reflectance
X Units: Wavelength (micrometers)
Y Units: Reflectance (percent)
wavelength	value
2.5	8.1301
2.494	7.9793
2.488	8.0836
2.482	8.0088
2.476	8.0659
2.47	8.1758
2.464	8.0663
2.458	8.0877
2.452	8.0717
2.446	8.0121
2.44	8.2243
2.434	8.0698
2.428	8.0747
2.422	8.0692
2.416	8.1816
2.41	8.1506
2.404	8.2164
2.398	8.233
2.392	8.2509
2.386	8.2621
2.38	8.3311
2.374	8.3283
2.368	8.3245
2.362	8.3966
2.356	8.3668
2.35	8.3204
2.344	8.2774
2.338	8.1312
2.332	8.0896
2.326	7.9963
2.32	8.0295
2.314	7.9958
2.308	8.0767
2.302	8.125
2.296	8.232
2.29	8.247
2.284	8.2578
2.278	8.3483
2.272	8.3516
2.266	8.3464
2.26	8.439
2.254	8.5008
2.248	8.5327
2.242	8.5012
2.236	8.5766
2.23	8.6287
2.224	8.7306
2.218	8.6797
2.212	8.8847
2.206	8.8619
2.2	8.9175
2.194	8.8472
2.188	8.8304
2.182	8.9152
2.176	8.9203
2.17	8.9269
2.164	8.9199
2.158	9.0227
2.152	9.0017
2.146	8.9512
2.14	8.9371
2.134	8.9382
2.128	8.9663
2.122	8.9493
2.116	8.8979
2.11	8.8447
2.104	8.8506
2.098	8.8871
2.092	8.8773
2.086	8.9167
2.08	8.9081
2.074	8.9492
2.068	8.9977
2.062	8.972
2.056	8.9874
2.05	9.0348
2.044	9.0368
2.038	9.017
2.032	9.0211
2.026	8.9521
2.02	8.9991
2.014	9.0078
2.008	9.06
2.002	8.9864
1.996	9.0432
1.99	8.9195
1.984	8.927
1.978	8.9658
1.972	8.9604
1.966	8.9621
1.96	8.9698
1.954	9.0101
1.948	8.9837
1.942	9.0167
1.936	9.0407
1.93	9.0654
1.924	9.0204
1.918	9.1294
1.912	9.1275
1.906	9.1183
1.9	9.0999
1.894	9.2475
1.888	9.13
1.882	9.1747
1.876	9.1579
1.87	9.1406
1.864	9.2046
1.858	9.1674
1.852	9.225
1.846	9.1742
1.84	9.1421
1.834	9.2525
1.828	9.1906
1.822	9.2
1.816	9.228
1.81	9.2249
1.804	9.1883
1.798	9.2207
1.792	9.2111
1.786	9.1806
1.78	9.1708
1.774	9.2374
1.768	9.1475
1.762	9.1924
1.756	9.1508
1.75	9.1717
1.744	9.1279
1.738	9.196
1.732	9.1301
1.726	9.1863
1.72	9.1073
1.714	9.1852
1.708	9.136
1.702	9.1716
1.696	9.1059
1.69	9.1789
1.684	9.1914
1.678	9.1264
1.672	9.1096
1.666	9.1109
1.66	9.1114
1.654	9.2137
1.648	9.0887
1.642	9.2407
1.636	9.0172
1.63	9.0818
1.624	9.0548
1.618	9.1054
1.612	9.1101
1.606	9.09
1.6	9.1041
1.594	9.1151
1.588	9.1501
1.582	9.1268
1.576	9.1723
1.57	9.1282
1.564	9.1874
1.558	9.1481
1.552	9.1039
1.546	9.1267
1.54	9.1845
1.534	9.1375
1.528	9.0841
1.522	9.1025
1.516	9.1274
1.51	9.1552
1.504	9.1542
1.498	9.1584
1.492	9.1649
1.486	9.1603
1.48	9.1127
1.474	9.0957
1.468	9.0722
1.462	9.0989
1.456	9.1122
1.45	9.1511
1.444	9.0856
1.438	9.1229
1.432	9.0705
1.426	9.1295
1.42	9.1121
1.414	9.0017
1.408	8.9336
1.402	8.8918
1.396	8.8468
1.39	8.9724
1.384	8.8581
1.378	9.0789
1.372	9.0996
1.366	9.1144
1.36	9.089
1.354	9.1701
1.348	9.1047
1.342	9.0879
1.336	9.0953
1.33	9.0897
1.324	9.0863
1.318	9.0418
1.312	9.0246
1.306	9.0178
1.3	9.0156
1.294	9.0082
1.288	9.035
1.282	9.0021
1.276	8.9935
1.27	9.0093
1.264	8.9963
1.258	8.9682
1.252	8.8995
1.246	8.998
1.24	9.0132
1.234	8.9547
1.228	9.0158
1.222	8.9848
1.216	8.9152
1.21	8.9224
1.204	8.9571
1.198	8.9441
1.192	8.9118
1.186	8.951
1.18	8.8648
1.174	8.902
1.168	8.9136
1.162	8.8787
1.156	8.9336
1.15	8.9704
1.144	8.9492
1.138	8.9587
1.132	8.9653
1.126	8.8991
1.12	8.8956
1.114	8.8912
1.108	8.9322
1.102	8.9191
1.096	8.9429
1.09	8.9862
1.084	8.9095
1.078	8.9436
1.072	9.0048
1.066	9.0155
1.06	9.0174
1.054	9.0123
1.048	9.0492
1.042	9.0408
1.036	9.0337
1.03	9.1149
1.024	9.123
1.018	9.1457
1.012	9.1878
1.006	9.2315
1	9.2336
0.994	9.1577
0.988	9.2492
0.982	9.3077
0.976	9.2214
0.97	9.3444
0.964	9.2971
0.958	9.2812
0.952	9.3552
0.946	9.3786
0.94	9.344
0.934	9.3727
0.928	9.4011
0.922	9.4504
0.916	9.4334
0.91	9.4111
0.904	9.5111
0.898	9.5148
0.892	9.5856
0.886	9.5486
0.88	9.6208
0.874	9.6932
0.868	9.7279
0.862	9.8474
0.856	10.5525
0.85	10.6405
0.844	10.6828
0.838	10.7325
0.832	10.7844
0.826	10.8186
0.82	10.8724
0.814	10.8988
0.808	10.9221
0.802	10.9518
0.796	10.9584
0.79	10.9593
0.784	10.9764
0.778	10.9726
0.772	10.9707
0.766	10.9692
0.76	10.9808
0.754	10.9759
0.748	10.9966
0.742	11.0056
0.736	11.026
0.73	11.0495
0.724	11.0827
0.718	11.1182
0.712	11.153
0.706	11.1962
0.7	11.2446
0.694	11.2937
0.688	11.3471
0.682	11.4014
0.676	11.463
0.67	11.5238
0.664	11.5916
0.658	11.6548
0.652	11.7218
0.646	11.7946
0.64	11.8657
0.634	11.9386
0.628	12.0145
0.622	12.0886
0.616	12.1668
0.61	12.2427
0.604	12.3137
0.598	12.3908
0.592	12.4735
0.586	12.5426
0.58	12.6108
0.574	12.6776
0.568	12.7396
0.562	12.8009
0.556	12.8625
0.55	12.916
0.544	12.9744
0.538	13.0225
0.532	13.0722
0.526	13.1325
0.52	13.1921
0.514	13.2419
0.508	13.2634
0.502	13.2581
0.496	13.2204
0.49	13.2493
0.484	13.2837
0.478	13.2782
0.472	13.2353
0.466	13.1752
0.46	13.1295
0.454	13.1052
0.448	13.1096
0.442	13.1673
0.436	13.2043
0.43	13.182
0.424	13.1847
0.418	13.1584
0.412	13.1482
0.406	13.1607
0.4	13.2164
