Name: Chloritic Gneiss
Type: rock
Class: Metamorphic
Subclass: Gneis
Particle Size: Fine
Sample No.: Gneiss1
Owner: JHU
Wavelength Range: All
Origin: Sample No. 380, The Hunt and Salisbury Collection at the U.S.Geological Survey, Denver, Co.
Description: This is a greenish rock containing only 20% quartz, 35% albite, a mixture of chlorite and muscovite (40%) and 5% rutile.Particle size was 0 - 75 Micrometers. Original ASTER Spectral Library name was jhu.becknic.rock.metamorphic.gneiss.fine.gneiss1.spectrum.txt
Measurement: Directional (10 Degree) Hemispherical Reflectance
X Units: Wavelength (micrometers)
Y Units: Reflectance (percent)
wavelength	value
14.983	3.745
14.645	5.3123
14.321	3.5188
14.011	4.9116
13.715	3.5949
13.43	3.2491
13.158	3.0142
12.896	3.2508
12.644	2.2045
12.402	3.279
12.169	5.9832
11.945	8.8119
11.729	10.77
11.52	10.673
11.319	9.7372
11.125	7.9305
10.937	7.1334
10.755	6.6306
10.58	5.6907
10.41	4.5113
10.245	3.8625
10.086	3.8989
9.9313	3.7909
9.7814	3.3183
9.636	3.8831
9.4948	3.4476
9.3577	4.19
9.2245	4.6598
9.095	4.2364
8.9691	4.2392
8.8467	4.3124
8.7275	4.1206
8.6116	3.7433
8.4986	4.2506
8.3886	4.6387
8.2814	5.1787
8.1769	5.9202
8.075	4.6657
7.9756	3.4911
7.8786	2.3956
7.784	1.939
7.6916	1.8893
7.6014	1.9388
7.5133	2.3248
7.4272	2.7826
7.343	3.4028
7.2607	4.3688
7.1803	5.5865
7.1016	7.1147
7.0246	8.2291
6.9493	9.3028
6.8755	10.342
6.8034	10.773
6.7327	10.676
6.6634	11.611
6.5956	12.007
6.5292	12.944
6.464	16.205
6.4002	16.971
6.3376	15.166
6.2762	12.936
6.216	11.473
6.157	13.27
6.099	16.389
6.0421	17.044
5.9863	16.81
5.9315	15.854
5.8777	17.799
5.8249	19.745
5.773	20.103
5.722	20.025
5.6719	19.667
5.6227	18.079
5.5744	16.928
5.5268	19.198
5.4801	22.484
5.4341	23.929
5.3889	20.681
5.3445	18.074
5.3008	19.108
5.2578	22.24
5.2154	27.024
5.1738	28.746
5.1328	29.221
5.0925	29.785
5.0528	29.366
5.0137	29.357
4.9752	32.106
4.9373	37.281
4.9	40.883
4.8632	46.388
4.827	49.432
4.7913	48.717
4.7561	49.88
4.7215	52.013
4.6873	52.723
4.6536	54.36
4.6205	57.224
4.5877	59.268
4.5555	60.452
4.5237	60.576
4.4923	60.004
4.4614	60.663
4.4309	62.349
4.4008	64.035
4.3711	66.159
4.3418	67.744
4.3129	68.731
4.2844	69.365
4.2563	70.321
4.2285	70.681
4.2011	71.145
4.174	71.682
4.1473	72.145
4.1209	72.576
4.0949	73.013
4.0692	73.297
4.0438	73.334
4.0187	73.254
3.994	73.267
3.9695	73.4
3.9453	73.656
3.9214	73.795
3.8979	73.724
3.8746	73.493
3.8515	73.265
3.8288	73.143
3.8063	73.006
3.7841	72.704
3.7621	72.303
3.7404	71.91
3.7189	71.721
3.6977	71.597
3.6767	71.509
3.656	71.332
3.6355	71.056
3.6152	70.687
3.5951	70.253
3.5753	69.759
3.5557	69.249
3.5363	68.628
3.5171	67.726
3.4981	66.846
3.4793	66.391
3.4607	66.08
3.4423	65.542
3.4241	64.802
3.4061	64.325
3.3883	63.969
3.3707	63.377
3.3533	63.09
3.336	62.712
3.3189	62.094
3.302	61.481
3.2853	60.84
3.2687	60.226
3.2523	59.597
3.2361	58.972
3.22	58.34
3.204	57.702
3.1883	57.082
3.1727	56.458
3.1572	55.903
3.1419	55.252
3.1268	54.685
3.1117	54.091
3.0969	53.487
3.0821	52.869
3.0675	52.218
3.0531	51.522
3.0388	50.963
3.0246	50.671
3.0105	50.325
2.9966	49.852
2.9828	49.338
2.9692	48.853
2.9556	48.456
2.9422	48.151
2.9289	47.943
2.9157	47.821
2.9027	47.91
2.8897	48.036
2.8769	47.221
2.8642	43.824
2.8516	38.288
2.8391	33.709
2.8267	31.739
2.8144	29.519
2.8022	25.869
2.7902	24.478
2.7782	24.08
2.7664	21.984
2.7546	22.666
2.7429	26.647
2.7314	32.854
2.7199	40
2.7085	41.541
2.6973	47.05
2.6861	64.94
2.675	71.853
2.664	75.631
2.6531	77.816
2.6423	78.841
2.6315	79.067
2.6209	79.481
2.6103	79.915
2.5999	80.258
2.5895	80.486
2.5792	80.689
2.569	80.972
2.5588	81.284
2.5487	81.498
2.5388	81.612
2.5289	81.633
2.519	81.508
2.5093	81.377
2.4996	81.224
2.49	81.04
2.4805	80.849
2.471	80.649
2.4616	80.547
2.4523	80.611
2.4431	80.755
2.4339	81.069
2.4248	81.527
2.4157	81.785
2.4068	81.792
2.3979	81.418
2.389	80.705
2.3802	80.094
2.3715	79.818
2.3629	79.625
2.3543	79.895
2.3458	80.714
2.3373	81.829
2.3289	82.731
2.3206	83.359
2.3123	83.513
2.3041	84.04
2.2959	83.83
2.2878	82.816
2.2798	82.267
2.2718	82.232
2.2638	82.384
2.2559	82.117
2.2481	81.451
2.2403	81.263
2.2326	81.458
2.225	81.331
2.2173	80.893
2.2098	80.817
2.2023	81.946
2.1948	83.499
2.1874	84.804
2.18	85.677
2.1727	86.202
2.1655	86.51
2.1583	86.781
2.1511	87.079
2.144	87.269
2.1369	87.416
2.1299	87.571
2.1229	87.627
2.116	87.693
2.1091	87.876
2.1023	88.038
2.0955	88.026
2.0887	88.135
2.082	88.202
2.06	88.009
2.028	87.06
1.996	86.342
1.964	85.108
1.932	84.643
1.9	84.942
1.868	85.855
1.836	87.251
1.804	85.739
1.772	85.207
1.74	84.897
1.708	85.3
1.676	85.475
1.644	84.827
1.612	84.138
1.58	84.819
1.548	84.197
1.516	83.624
1.484	83.456
1.452	82.535
1.42	80.463
1.388	81.139
1.356	82.898
1.324	82.367
1.292	82.189
1.26	82.329
1.228	81.964
1.196	81.735
1.164	80.995
1.132	80.26
1.1	80.262
1.068	79.695
1.036	79.948
1.004	78.739
0.972	78.199
0.94	77.806
0.908	77.568
0.876	76.952
0.844	76.219
0.812	75.368
0.795	74.646
0.787	73.74
0.779	73.406
0.771	72.876
0.763	73.088
0.755	72.435
0.747	71.412
0.739	70.294
0.731	69.696
0.723	68.479
0.715	66.743
0.707	65.198
0.699	64.274
0.691	62.077
0.683	59.975
0.675	60.132
0.667	58.575
0.659	57.266
0.651	55.076
0.643	54.139
0.635	52.923
0.627	51.735
0.619	51.85
0.611	51.705
0.603	51.401
0.595	51.514
0.587	52.965
0.579	53.895
0.571	55.03
0.563	56.399
0.555	55.269
0.547	56.135
0.539	57.667
0.531	56.834
0.523	57.57
0.515	57.415
0.507	56.296
0.499	54.901
0.491	53.577
0.483	51.55
0.475	49.715
0.467	47.949
0.459	48.563
0.451	47.047
0.443	45.527
0.435	44.537
0.427	43.096
0.419	42.674
0.411	41.821
0.403	41.924
