Name: Dolomitic Marble
Type: rock
Class: Metamorphic
Subclass: Marble
Particle Size: Fine
Sample No.: marble4
Owner: JHU
Wavelength Range: All
Origin: Sample No. 458, The Hunt and Salisbury Collection at the U.S.Geological Survey, Denver, Co.
Description: A  fine-grained rock with granulated dolomite and a trace of tremolite/actinolite, and possibly some phlogopite.Particle size was 0-75 Micrometer. Original ASTER Spectral Library name was jhu.becknic.rock.metamorphic.marble.fine.marble4.spectrum.txt
Measurement: Directional (10 Degree) Hemispherical Reflectance
X Units: Wavelength (micrometers)
Y Units: Reflectance (percent)
wavelength	value
14.983	14.883
14.645	18.214
14.321	18.763
14.011	11.657
13.715	2.0622
13.43	13.866
13.158	30.61
12.896	38.053
12.644	40.63
12.402	42.197
12.169	41.967
11.945	39.4
11.729	12.608
11.52	12.231
11.319	7.598
11.125	31.668
10.937	31.046
10.755	32.164
10.58	32.004
10.41	32.709
10.245	31.433
10.086	30.19
9.9313	30.119
9.7814	28.85
9.636	27.372
9.4948	30.91
9.3577	27.671
9.2245	27.508
9.095	20.225
8.9691	26.128
8.8467	24.863
8.7275	22.585
8.6116	22.942
8.4986	19.009
8.3886	15.885
8.2814	19.462
8.1769	15.861
8.075	14.509
7.9756	15.248
7.8786	15.625
7.784	14.027
7.6916	12.037
7.6014	12.28
7.5133	10.523
7.4272	9.4651
7.343	8.2774
7.2607	6.8975
7.1803	6.089
7.1016	6.0544
7.0246	9.0771
6.9493	9.1139
6.8755	9.2266
6.8034	9.7485
6.7327	10.345
6.6634	11.445
6.5956	13.695
6.5292	15.608
6.464	18.209
6.4002	20.743
6.3376	17.776
6.2762	7.7858
6.216	4.4597
6.157	3.6927
6.099	2.7113
6.0421	2.9907
5.9863	3.6735
5.9315	4.6496
5.8777	5.7352
5.8249	6.8691
5.773	7.6077
5.722	8.5419
5.6719	9.3391
5.6227	8.5095
5.5744	6.3971
5.5268	3.3308
5.4801	3.0817
5.4341	13.042
5.3889	24.029
5.3445	30.178
5.3008	33.533
5.2578	38.79
5.2154	44.59
5.1738	48.897
5.1328	52.414
5.0925	53.728
5.0528	49.28
5.0137	59.114
4.9752	60.902
4.9373	62.021
4.9	62.911
4.8632	63.468
4.827	63.46
4.7913	63.166
4.7561	62.496
4.7215	60.32
4.6873	53.882
4.6536	41.325
4.6205	38.662
4.5877	42.65
4.5555	48.597
4.5237	52.149
4.4923	58.169
4.4614	55.641
4.4309	52.493
4.4008	57.542
4.3711	62.242
4.3418	60.488
4.3129	55.879
4.2844	54.813
4.2563	57.39
4.2285	57.433
4.2011	59.106
4.174	58.221
4.1473	54.872
4.1209	54.415
4.0949	52.218
4.0692	47.455
4.0438	40.302
4.0187	29.696
3.994	16.652
3.9695	6.6223
3.9453	6.0587
3.9214	7.0491
3.8979	11.049
3.8746	12.68
3.8515	18.514
3.8288	21.521
3.8063	13.761
3.7841	19.559
3.7621	30.038
3.7404	45.978
3.7189	52.965
3.6977	56.593
3.6767	59.826
3.656	61.191
3.6355	61.81
3.6152	61.765
3.5951	61.24
3.5753	59.678
3.5557	53.22
3.5363	50.848
3.5171	41.36
3.4981	24.102
3.4793	14.703
3.4607	11.725
3.4423	11.647
3.4241	17.461
3.4061	19.371
3.3883	21.017
3.3707	23.78
3.3533	19.306
3.336	17.538
3.3189	16.692
3.302	16.374
3.2853	39.891
3.2687	48.302
3.2523	52.594
3.2361	55.6
3.22	57.805
3.204	59.331
3.1883	60.291
3.1727	60.999
3.1572	61.013
3.1419	58.613
3.1268	58.265
3.1117	58.294
3.0969	58.048
3.0821	56.908
3.0675	58.418
3.0531	59.826
3.0388	60.222
3.0246	61.831
3.0105	63.254
2.9966	63.842
2.9828	64.011
2.9692	64.618
2.9556	65.098
2.9422	65.26
2.9289	65.466
2.9157	65.928
2.9027	66.466
2.8897	66.884
2.8769	67.442
2.8642	67.9
2.8516	68.301
2.8391	68.731
2.8267	69.088
2.8144	68.933
2.8022	67.632
2.7902	65.409
2.7782	62.663
2.7664	60.565
2.7546	63.692
2.7429	67.304
2.7314	70.208
2.7199	70.899
2.7085	74.361
2.6973	74.273
2.6861	74.311
2.675	78.413
2.664	80.281
2.6531	81.382
2.6423	81.819
2.6315	82.055
2.6209	82.367
2.6103	82.472
2.5999	82.407
2.5895	82.214
2.5792	81.713
2.569	80.631
2.5588	79.161
2.5487	76.305
2.5388	70.191
2.5289	64.693
2.519	61.981
2.5093	62.114
2.4996	63.732
2.49	65.666
2.4805	67.958
2.471	68.821
2.4616	69.338
2.4523	70.643
2.4431	73.072
2.4339	75.418
2.4248	77.448
2.4157	79.248
2.4068	79.999
2.3979	80.68
2.389	81.298
2.3802	81.597
2.3715	82.388
2.3629	82.36
2.3543	81.259
2.3458	78.067
2.3373	74.272
2.3289	71.168
2.3206	70.514
2.3123	71.257
2.3041	72.086
2.2959	73.131
2.2878	74.218
2.2798	74.869
2.2718	75.222
2.2638	76.128
2.2559	77.661
2.2481	79.164
2.2403	80.502
2.2326	81.383
2.225	82.034
2.2173	82.587
2.2098	83.009
2.2023	83.463
2.1948	83.943
2.1874	84.187
2.18	84.425
2.1727	84.521
2.1655	84.441
2.1583	84.453
2.1511	84.25
2.144	84.109
2.1369	84.035
2.1299	84.261
2.1229	84.562
2.116	84.796
2.1091	85.053
2.1023	85.121
2.0955	85.231
2.0887	85.432
2.082	85.421
2.06	85.725
2.028	85.135
1.996	84.128
1.964	82.7
1.932	82.616
1.9	82.997
1.868	83.271
1.836	83.926
1.804	83.222
1.772	83.223
1.74	82.465
1.708	83.77
1.676	83.402
1.644	83.568
1.612	82.68
1.58	83.747
1.548	82.208
1.516	82.877
1.484	82.546
1.452	82.164
1.42	82.167
1.388	81.793
1.356	82.307
1.324	82.349
1.292	81.991
1.26	82.199
1.228	81.644
1.196	81.477
1.164	80.976
1.132	80.73
1.1	81.014
1.068	79.959
1.036	81.16
1.004	80.578
0.972	80.566
0.94	80.779
0.908	80.682
0.876	80.184
0.844	79.638
0.812	79.06
0.795	80.428
0.787	80.184
0.779	80.184
0.771	80.515
0.763	80.299
0.755	80.933
0.747	80.443
0.739	80.349
0.731	79.972
0.723	79.881
0.715	80.221
0.707	80.37
0.699	81.357
0.691	81.753
0.683	81.053
0.675	81.385
0.667	81.563
0.659	81.832
0.651	81.199
0.643	82.18
0.635	80.776
0.627	80.722
0.619	81.709
0.611	82.844
0.603	81.226
0.595	80.694
0.587	81.146
0.579	81.249
0.571	81.641
0.563	82.127
0.555	81.72
0.547	80.872
0.539	82.039
0.531	80.03
0.523	81.136
0.515	80.904
0.507	80.593
0.499	80.554
0.491	81.419
0.483	80.248
0.475	79.736
0.467	79.298
0.459	82.113
0.451	80.908
0.443	80.546
0.435	80.665
0.427	79.668
0.419	79.566
0.411	78.67
0.403	78.963
