Name: Alkalic Granite
Type: rock
Class: Igneous
Subclass: Felsic
Particle Size: Fine
Sample No.: Granite_H1
Owner: JHU
Wavelength Range: All
Origin: From Quincy, Norfolk, Massachusetts via Ward's Scientific (Cat.No. W-4)
Description: Sample from which powder was derived is a gray, medium- to coarse-grained rock composed of quartz, feldspar, and a mafic mineral.Particle size was 0-75 micrometers. Original ASTER Spectral Library name was jhu.becknic.rock.igneous.felsic.fine.granit1.spectrum.txt
Measurement: Directional (10 degree) hemispherical reflectance
X Units: Wavelength (micrometers)
Y Units: Reflectance (percent)
wavelength	value
14.011	1.92
13.715	1.32
13.43	2.1338
13.158	1.8797
12.896	1.6932
12.644	2.0724
12.402	2.9447
12.169	5.6808
11.945	7.6605
11.729	8.0845
11.52	7.9242
11.319	7.8471
11.125	7.4196
10.937	6.9173
10.755	6.1504
10.58	4.8872
10.41	4.0453
10.245	3.7402
10.086	3.6755
9.9313	3.6564
9.7814	3.4823
9.636	3.6349
9.4948	3.4566
9.3577	4.0727
9.2245	4.4433
9.095	4.0237
8.9691	3.7085
8.8467	3.6415
8.7275	3.7156
8.6116	3.5768
8.4986	4.3533
8.3886	4.5028
8.2814	4.6997
8.1769	5.0644
8.075	3.7345
7.9756	2.5641
7.8786	1.6961
7.784	1.2909
7.6916	1.3085
7.6014	1.2774
7.5133	1.4911
7.4272	1.793
7.343	2.1532
7.2607	2.8153
7.1803	3.5758
7.1016	4.5286
7.0246	5.1839
6.9493	5.7787
6.8755	6.3623
6.8034	6.5512
6.7327	6.5535
6.6634	7.154
6.5956	7.5239
6.5292	7.9516
6.464	9.6571
6.4002	9.8512
6.3376	8.7998
6.2762	7.6748
6.216	6.914
6.157	7.7449
6.099	9.498
6.0421	10.351
5.9863	10.412
5.9315	9.8095
5.8777	10.895
5.8249	11.87
5.773	12.023
5.722	12.098
5.6719	11.596
5.6227	10.551
5.5744	10.607
5.5268	12.051
5.4801	14.412
5.4341	14.969
5.3889	13.164
5.3445	11.843
5.3008	12.603
5.2578	14.409
5.2154	17.381
5.1738	19.02
5.1328	19.719
5.0925	20.603
5.0528	20.285
5.0137	20.583
4.9752	22.333
4.9373	25.069
4.9	27.643
4.8632	31.495
4.827	33.037
4.7913	32.78
4.7561	33.457
4.7215	34.431
4.6873	34.278
4.6536	35.192
4.6205	36.876
4.5877	38.139
4.5555	39.234
4.5237	39.833
4.4923	39.728
4.4614	40.343
4.4309	41.53
4.4008	42.579
4.3711	44.005
4.3418	45.101
4.3129	45.763
4.2844	46.218
4.2563	46.891
4.2285	47.127
4.2011	47.67
4.174	48.09
4.1473	48.428
4.1209	48.738
4.0949	48.972
4.0692	49.253
4.0438	49.248
4.0187	49.336
3.994	49.377
3.9695	49.581
3.9453	49.723
3.9214	49.892
3.8979	49.947
3.8746	49.872
3.8515	49.887
3.8288	49.906
3.8063	50.005
3.7841	49.98
3.7621	49.94
3.7404	49.892
3.7189	49.831
3.6977	49.889
3.6767	49.836
3.656	49.807
3.6355	49.728
3.6152	49.533
3.5951	49.397
3.5753	49.176
3.5557	49.046
3.5363	48.786
3.5171	48.416
3.4981	47.887
3.4793	47.783
3.4607	47.525
3.4423	47.122
3.4241	46.455
3.4061	45.963
3.3883	45.747
3.3707	45.381
3.3533	45.099
3.336	44.619
3.3189	44.058
3.302	43.599
3.2853	42.875
3.2687	42.18
3.2523	41.432
3.2361	40.575
3.22	39.629
3.204	38.66
3.1883	37.758
3.1727	36.839
3.1572	36.053
3.1419	35.062
3.1268	34.226
3.1117	33.464
3.0969	32.743
3.0821	32.235
3.0675	31.82
3.0531	31.439
3.0388	31.067
3.0246	30.701
3.0105	30.406
2.9966	30.005
2.9828	29.601
2.9692	29.2
2.9556	28.937
2.9422	28.787
2.9289	28.796
2.9157	28.834
2.9027	29.202
2.8897	29.503
2.8769	29.931
2.8642	30.463
2.8516	31.032
2.8391	31.743
2.8267	32.312
2.8144	32.963
2.8022	33.737
2.7902	34.596
2.7782	35.412
2.7664	33.897
2.7546	37.336
2.7429	39.707
2.7314	43.655
2.7199	46.376
2.7085	49.235
2.6973	51.1
2.6861	51.747
2.675	52.146
2.664	53.425
2.6531	53.723
2.6423	53.942
2.6315	54.037
2.6209	54.014
2.6103	54.186
2.5999	54.276
2.5895	54.353
2.5792	54.232
2.569	54.316
2.5588	54.34
2.5487	54.215
2.5388	54.364
2.5289	54.288
2.519	54.253
2.5093	54.505
2.4996	54.339
2.49	54.4
2.4805	54.512
2.471	54.6
2.4616	54.625
2.4523	54.589
2.4431	54.465
2.4339	54.692
2.4248	54.401
2.4157	54.562
2.4068	54.557
2.3979	54.72
2.389	54.754
2.3802	54.742
2.3715	54.712
2.3629	54.638
2.3543	54.377
2.3458	54.217
2.3373	54.287
2.3289	54.225
2.3206	54.422
2.3123	54.633
2.3041	54.724
2.2959	54.565
2.2878	54.652
2.2798	54.64
2.2718	54.731
2.2638	54.549
2.2559	54.655
2.2481	54.652
2.2403	54.551
2.2326	54.617
2.225	54.542
2.2173	54.604
2.2098	54.516
2.2023	54.572
2.1948	54.57
2.1874	54.646
2.18	54.609
2.1727	54.716
2.1655	54.709
2.1583	54.751
2.1511	54.509
2.144	54.513
2.1369	54.377
2.1299	54.49
2.1229	54.444
2.116	54.464
2.1091	54.507
2.1023	54.456
2.0955	54.473
2.0887	54.455
2.082	54.372
2.06	54.448
2.028	53.673
1.996	53.002
1.964	51.645
1.932	51.611
1.9	50.275
1.868	50.275
1.836	49.56
1.804	50.179
1.772	49.95
1.74	49.862
1.708	49.501
1.676	49.209
1.644	48.739
1.612	47.95
1.58	47.694
1.548	47.387
1.516	46.88
1.484	46.016
1.452	45.954
1.42	45.801
1.388	44.871
1.356	44.644
1.324	43.861
1.292	43.243
1.26	42.768
1.228	42.299
1.196	41.586
1.164	40.83
1.132	40.204
1.1	39.725
1.068	39.037
1.036	38.444
1.004	37.849
0.972	37.287
0.94	36.77
0.908	36.542
0.876	36.168
0.844	35.53
0.812	34.841
0.795	34.58
0.787	34.548
0.779	34.215
0.771	34.094
0.763	34.271
0.755	34.086
0.747	33.932
0.739	33.812
0.731	33.791
0.723	33.93
0.715	33.812
0.707	33.838
0.699	33.818
0.691	34.224
0.683	33.799
0.675	34.416
0.667	34.088
0.659	33.82
0.651	34.635
0.643	34.118
0.635	34.248
0.627	34.373
0.619	34.635
0.611	34.704
0.603	34.461
0.595	34.742
0.587	34.839
0.579	35.189
0.571	35.271
0.563	35.666
0.555	35.604
0.547	35.847
0.539	35.831
0.531	36.049
0.523	35.968
0.515	36.02
0.507	35.671
0.499	35.66
0.491	35.193
0.483	35.467
0.475	34.462
0.467	34.196
0.459	34.331
0.451	34.676
0.443	34.143
0.435	33.406
0.427	33.065
0.419	32.167
0.411	31.623
0.403	31.32
