Name: Siliceous Oolite
Type: Rock
Class: Sedimentary
Subclass: Siliceou
Particle Size: Solid
Sample No.: Ward77
Owner: JPL
Wavelength Range: All
Origin: Ward's Collection of American Rocks.  Sample locality - State College, Center County, Pennsylvania.
Description: A light gray rock consisting of small gray siliceous oolitescemented by a light gray compact silica.Geologic age - Cambrian.Collected by:  Ward's Natural Science Original ASTER Spectral Library name was jpl.nicolet.rock.sedimentary.siliceous.solid.ward77.spectrum.txt
Measurement: Hemispherical reflectance
X Units: Wavelength (micrometers)
Y Units: Reflectance (percent)
wavelength	value
15.3871	3.4431
15.118	3.3908
14.8581	3.748
14.6069	4.1572
14.3642	3.6469
14.1293	3.3659
13.9021	3.9717
13.682	4.3765
13.4687	4.7974
13.2621	5.4718
13.0616	6.618
12.8672	9.6742
12.6784	7.3537
12.4951	8.3737
12.317	1.3334
12.1439	2.1848
11.9757	2.7716
11.812	3.4505
11.6527	3.9077
11.4977	4.5527
11.3468	4.6476
11.1997	4.9761
11.0564	5.3181
10.9168	5.7133
10.7806	5.8708
10.6478	6.2386
10.5182	6.5497
10.3917	6.7704
10.2683	7.4611
10.1477	7.9855
10.0299	8.6781
9.9148	9.5129
9.8024	10.6819
9.6925	12.3426
9.585	14.3551
9.4798	18.4577
9.377	28.1769
9.2763	34.8881
9.1778	32.9252
9.0814	30.7608
8.987	28.6115
8.8945	26.9282
8.8039	25.7648
8.7151	25.0201
8.6281	19.7731
8.5428	26.8184
8.4592	29.6769
8.3772	32.109
8.2967	35.5767
8.2179	38.4953
8.1404	34.634
8.0645	23.6116
7.9899	15.6723
7.9167	9.2539
7.8449	5.4195
7.7743	3.9139
7.705	2.3477
7.6369	1.6533
7.57	1.1421
7.5043	1.2741
7.4397	0.9644
7.3762	1.0584
7.3138	1.1106
7.2524	1.0629
7.1921	1.2509
7.1327	1.3947
7.0743	1.5365
7.0169	1.7166
6.9604	2.1094
6.9047	2.0372
6.85	1.8525
6.7962	1.7785
6.7431	1.6053
6.6909	1.4433
6.6395	1.3965
6.5889	1.364
6.539	1.3456
6.49	1.4703
6.4416	1.5829
6.3939	1.4806
6.347	1.4509
6.3007	1.3394
6.2551	1.2465
6.2101	1.2645
6.1658	1.3223
6.1222	1.4458
6.0791	1.6193
6.0366	1.5733
5.9948	1.6329
5.9535	1.6299
5.9127	1.4442
5.8726	1.6436
5.8329	1.874
5.7938	1.8707
5.7552	2.1092
5.7172	2.2711
5.6796	2.2846
5.6425	1.9766
5.6059	1.7913
5.5698	1.7673
5.5341	1.8506
5.4989	2.0926
5.4641	2.2808
5.4298	2.2203
5.3959	1.9323
5.3624	1.7867
5.3294	1.6425
5.2967	1.8095
5.2644	1.8834
5.2326	2.1942
5.2011	2.4522
5.17	2.3892
5.1392	2.4446
5.1088	2.3329
5.0788	2.3982
5.0491	2.2748
5.0198	2.257
4.9908	2.4232
4.9622	2.6438
4.9338	2.8625
4.9058	3.2707
4.8781	4.6637
4.8508	5.7441
4.8237	6.5155
4.7969	7.1221
4.7704	7.8026
4.7443	8.1824
4.7184	8.3889
4.6927	7.5285
4.6674	7.9075
4.6423	9.2669
4.6175	10.2681
4.593	10.7277
4.5687	10.9314
4.5447	10.0697
4.5209	8.5103
4.4974	7.2665
4.4741	6.8155
4.451	7.1906
4.4282	7.673
4.4057	8.4518
4.3833	9.4591
4.3612	10.588
4.3393	11.2393
4.3176	10.9433
4.2962	9.4874
4.2749	8.5864
4.2539	9.7627
4.233	9.9513
4.2124	11.7692
4.192	12.7705
4.1717	13.4357
4.1517	14.0697
4.1319	14.6448
4.1122	15.1708
4.0927	15.9533
4.0734	16.3947
4.0543	16.5704
4.0354	16.3901
4.0166	15.7248
3.9981	15.1069
3.9796	14.3422
3.9614	15.12
3.9433	16.7151
3.9254	17.3457
3.9077	17.5773
3.8901	17.4782
3.8726	17.0209
3.8554	17.0433
3.8382	17.4427
3.8213	17.634
3.8045	17.9672
3.7878	18.1232
3.7713	17.8498
3.7549	17.4598
3.7386	17.3936
3.7225	17.5068
3.7066	17.6551
3.6907	18.2437
3.675	18.56
3.6595	18.8331
3.644	18.6206
3.6287	18.5339
3.6136	18.0172
3.5985	17.8944
3.5836	17.5134
3.5688	17.5325
3.5541	17.2563
3.5396	16.7932
3.5251	16.4038
3.5108	15.677
3.4966	15.0597
3.4825	14.3576
3.4685	14.4027
3.4547	14.3262
3.4409	13.9178
3.4273	13.5383
3.4137	13.0954
3.4003	12.7186
3.387	12.4882
3.3738	11.9637
3.3606	11.9013
3.3476	11.3579
3.3347	11.6661
3.3219	11.2625
3.3092	10.7448
3.2965	10.6987
3.284	10.407
3.2716	9.8218
3.2593	9.7293
3.247	9.1381
3.2348	9.0905
3.2228	8.4748
3.2108	8.4085
3.1989	8.2629
3.1871	7.9834
3.1754	7.3169
3.1638	6.9494
3.1523	6.9615
3.1408	6.906
3.1294	6.3466
3.1181	6.408
3.1069	6.1825
3.0958	6.1173
3.0848	6.0494
3.0738	6.2798
3.0629	6.0137
3.0521	5.7329
3.0413	5.888
3.0307	5.8789
3.0201	5.6783
3.0096	5.7029
2.9991	5.4449
2.9887	5.5735
2.9784	5.4546
2.9682	5.604
2.9581	4.7729
2.948	5.2765
2.9379	5.0952
2.928	4.8994
2.9181	5.7959
2.9083	5.3475
2.8985	5.164
2.8888	5.8818
2.8792	5.5142
2.8697	5.5794
2.8602	5.7947
2.8507	6.3149
2.8413	5.9374
2.832	6.4184
2.8228	6.7682
2.8136	6.1037
2.8045	7.2837
2.7954	6.4726
2.7864	7.7065
2.7774	8.8431
2.7685	8.3518
2.7597	8.9779
2.7509	10.1319
2.7422	11.4393
2.7335	13.9665
2.7249	16.0842
2.7163	18.7852
2.7078	20.4176
2.6994	23.6915
2.691	28.294
2.6826	31.3884
2.6743	33.6666
2.666	35.8252
2.6578	36.4452
2.6497	37.4274
2.6416	38.1083
2.6336	39.3812
2.6256	39.593
2.6176	40.6537
2.6097	40.607
2.6018	40.7649
2.594	42.3181
2.5863	41.2322
2.5785	41.9369
2.5709	41.8398
2.5633	42.3095
2.5557	41.5671
2.5481	41.9165
2.5406	41.7476
2.5332	41.9747
2.5258	42.2172
2.5184	42.3796
2.5111	42.8745
2.5038	42.8383
2.4966	43.7267
2.4894	43.6441
2.4823	44.2279
2.4752	44.0965
2.4681	45.2909
2.4611	45.3528
2.4541	46.3158
2.4471	46.0984
2.4402	47.6464
2.4333	47.5439
2.4265	47.2721
2.4197	48.2309
2.413	49.0374
2.4063	49.156
2.3996	49.2841
2.3929	48.8877
2.3863	50.5
2.3798	50.5176
2.3732	50.6026
2.3667	51.0396
2.3603	51.0163
2.3538	51.1056
2.3474	51.303
2.3411	51.7861
2.3347	51.3058
2.3285	51.9813
2.3222	51.6861
2.316	51.7132
2.3098	52.71
2.3036	51.5301
2.2975	52.0047
2.2914	52.507
2.2854	52.4516
2.2793	52.0572
2.2733	52.9374
2.2674	51.5881
2.2614	52.2941
2.2555	53.4244
2.2497	52.5262
2.2438	53.0433
2.238	52.5804
2.2322	52.178
2.2265	52.8994
2.2208	52.5829
2.2151	53.4259
2.2094	52.5966
2.2038	52.5729
2.1982	53.882
2.1926	53.1044
2.187	54.1335
2.1815	53.8691
2.176	54.1748
2.1706	54.5635
2.1651	54.4156
2.1597	54.6065
2.1543	54.804
2.149	54.7979
2.1436	54.7325
2.1383	54.0702
2.1331	55.4171
2.1278	54.838
2.1226	54.9842
2.1174	54.7198
2.1122	54.4241
2.1071	54.9058
2.1019	53.4641
2.0968	55.0303
2.0918	55.1767
2.0867	53.7325
2.0817	54.8174
2.0767	55.5262
2.0717	54.3503
2.0667	53.6848
2.0618	55.0873
2.0569	53.0005
2.052	52.9635
2.0472	54.3098
2.0423	52.1734
2.0375	53.1236
2.0327	51.7041
2.028	53.1328
2.0232	53.0114
2.0185	51.4559
2.0138	50.2571
2.0091	49.534
2.0044	52.0873
1.9998	50.5045
