Name: Diorite Porphyry
Type: Rock
Class: Igneous
Subclass: Intermediate
Particle Size: Solid
Sample No.: Ward32
Owner: JPL
Wavelength Range: VSWIR
Origin: Ward's Collection of American Rocks.  Sample locality - Jackson, Washington County, Wyoming.
Description: A medium grained gray porphyritic rock.  Phenocrysts includeblack hornblende and colorless to cream-colored fledspar.  There areoccasional irregular masses of glassy quartz and tiny grains of magnetite.The rock has numerous small vesicles.Collected by:  Ward's Natural Science Original ASTER Spectral Library name was jpl.perkin.rock.igneous.intermediate.solid.ward32.spectrum.txt
Measurement: Hemispherical reflectance
X Units: Wavelength (micrometers)
Y Units: Reflectance (percent)
wavelength	value
2.5	16.8173
2.494	16.5926
2.488	16.5978
2.482	16.6494
2.476	16.6966
2.47	16.6555
2.464	16.8044
2.458	16.8394
2.452	16.9121
2.446	17.0316
2.44	16.9991
2.434	17.0918
2.428	17.1639
2.422	17.2252
2.416	17.2873
2.41	17.2131
2.404	17.3114
2.398	17.3551
2.392	17.3536
2.386	17.4827
2.38	17.5275
2.374	17.6198
2.368	17.6987
2.362	17.8117
2.356	17.7984
2.35	17.7673
2.344	17.7777
2.338	17.8964
2.332	17.9618
2.326	17.919
2.32	17.9951
2.314	17.9304
2.308	18.0733
2.302	18.042
2.296	18.0627
2.29	18.121
2.284	18.1237
2.278	18.1592
2.272	18.1581
2.266	18.1656
2.26	18.1867
2.254	18.161
2.248	18.1732
2.242	18.159
2.236	18.1696
2.23	18.1522
2.224	18.154
2.218	18.1227
2.212	18.2761
2.206	18.2567
2.2	18.2921
2.194	18.3424
2.188	18.2911
2.182	18.4292
2.176	18.4597
2.17	18.4358
2.164	18.5686
2.158	18.6301
2.152	18.6822
2.146	18.7187
2.14	18.7783
2.134	18.654
2.128	18.6066
2.122	18.4852
2.116	18.4258
2.11	18.3118
2.104	18.2222
2.098	18.1332
2.092	18.0701
2.086	18.118
2.08	18.1035
2.074	18.0944
2.068	18.0787
2.062	18.0999
2.056	18.0824
2.05	18.0901
2.044	18.0996
2.038	18.0501
2.032	18.0894
2.026	18.0863
2.02	18.0718
2.014	18.0564
2.008	18.0534
2.002	18.0032
1.996	18.0274
1.99	18.0081
1.984	17.9451
1.978	17.9201
1.972	18.0388
1.966	18.0795
1.96	17.9941
1.954	18.0006
1.948	18.0594
1.942	18.1216
1.936	18.0715
1.93	18.1437
1.924	18.1253
1.918	18.1137
1.912	17.9295
1.906	17.9543
1.9	18.1826
1.894	18.3558
1.888	18.5435
1.882	18.5432
1.876	18.6068
1.87	18.8712
1.864	18.7623
1.858	18.7127
1.852	18.7953
1.846	18.7884
1.84	18.7546
1.834	18.7179
1.828	18.6953
1.822	18.7192
1.816	18.72
1.81	18.6862
1.804	18.6768
1.798	18.6966
1.792	18.7132
1.786	18.7806
1.78	18.7856
1.774	18.8975
1.768	18.9714
1.762	18.9188
1.756	18.9642
1.75	18.9429
1.744	18.9901
1.738	19.0067
1.732	19.0044
1.726	19.0653
1.72	19.0831
1.714	19.0815
1.708	19.0159
1.702	19.0463
1.696	19.0255
1.69	18.9983
1.684	19.0257
1.678	19.0581
1.672	19.0609
1.666	19.0111
1.66	18.9909
1.654	19.0436
1.648	18.9685
1.642	19.0205
1.636	19.0114
1.63	19.0196
1.624	19.1273
1.618	18.984
1.612	19.0524
1.606	19.1114
1.6	19.0881
1.594	19.0975
1.588	18.9788
1.582	19.0237
1.576	19.1375
1.57	19.0572
1.564	19.1277
1.558	19.1353
1.552	19.0852
1.546	19.1157
1.54	19.117
1.534	19.1569
1.528	19.13
1.522	19.1115
1.516	19.0955
1.51	19.1248
1.504	19.1604
1.498	19.1671
1.492	19.1296
1.486	19.1306
1.48	19.1522
1.474	19.1497
1.468	19.1409
1.462	19.1121
1.456	19.1318
1.45	19.1364
1.444	19.1073
1.438	19.0986
1.432	19.0949
1.426	19.083
1.42	19.0258
1.414	19.0664
1.408	19.1201
1.402	19.1541
1.396	19.1521
1.39	19.3835
1.384	19.4407
1.378	19.4387
1.372	19.3802
1.366	19.4819
1.36	19.4764
1.354	19.5616
1.348	19.4878
1.342	19.4549
1.336	19.5484
1.33	19.4908
1.324	19.585
1.318	19.6079
1.312	19.5948
1.306	19.6271
1.3	19.5488
1.294	19.6883
1.288	19.6316
1.282	19.687
1.276	19.6898
1.27	19.754
1.264	19.672
1.258	19.7451
1.252	19.7878
1.246	19.8332
1.24	19.8272
1.234	19.8125
1.228	19.8775
1.222	19.8832
1.216	19.9204
1.21	19.9311
1.204	19.9217
1.198	19.9708
1.192	20.0556
1.186	20.0494
1.18	20.0719
1.174	20.0769
1.168	20.1901
1.162	20.1587
1.156	20.1661
1.15	20.2078
1.144	20.2814
1.138	20.2386
1.132	20.3614
1.126	20.3275
1.12	20.4405
1.114	20.4703
1.108	20.4329
1.102	20.4921
1.096	20.5176
1.09	20.4861
1.084	20.6111
1.078	20.6125
1.072	20.5961
1.066	20.6353
1.06	20.6436
1.054	20.6765
1.048	20.7583
1.042	20.7804
1.036	20.8537
1.03	20.9157
1.024	20.883
1.018	20.9554
1.012	21.0068
1.006	21.0935
1	21.1216
0.994	21.1298
0.988	21.2222
0.982	21.3446
0.976	21.3269
0.97	21.4705
0.964	21.5006
0.958	21.5635
0.952	21.6671
0.946	21.7683
0.94	21.809
0.934	21.9397
0.928	22.0769
0.922	22.2081
0.916	22.2936
0.91	22.4544
0.904	22.6038
0.898	22.7331
0.892	22.8481
0.886	22.9858
0.88	23.1329
0.874	23.3127
0.868	23.4561
0.862	23.5868
0.856	24.1138
0.85	24.1877
0.844	24.2062
0.838	24.2379
0.832	24.2658
0.826	24.2945
0.82	24.3465
0.814	24.3572
0.808	24.4299
0.802	24.4414
0.796	24.4821
0.79	24.4884
0.784	24.51
0.778	24.5317
0.772	24.5388
0.766	24.5281
0.76	24.5401
0.754	24.5444
0.748	24.548
0.742	24.5607
0.736	24.5444
0.73	24.5551
0.724	24.5471
0.718	24.5406
0.712	24.5464
0.706	24.5326
0.7	24.5267
0.694	24.5154
0.688	24.5158
0.682	24.5094
0.676	24.4957
0.67	24.4957
0.664	24.4631
0.658	24.4488
0.652	24.4243
0.646	24.4056
0.64	24.3844
0.634	24.3538
0.628	24.3279
0.622	24.2838
0.616	24.2485
0.61	24.2021
0.604	24.1478
0.598	24.1003
0.592	24.0468
0.586	23.9766
0.58	23.8916
0.574	23.7952
0.568	23.6942
0.562	23.5524
0.556	23.511
0.55	23.3913
0.544	23.257
0.538	23.1093
0.532	22.9523
0.526	22.773
0.52	22.5756
0.514	22.3675
0.508	22.167
0.502	21.9807
0.496	21.8114
0.49	21.6686
0.484	21.5901
0.478	21.2313
0.472	20.998
0.466	20.7858
0.46	20.5813
0.454	20.3881
0.448	20.1551
0.442	19.9152
0.436	19.6541
0.43	19.3675
0.424	19.0867
0.418	18.8352
0.412	18.6487
0.406	18.4132
0.4	18.1716
