Name: Felsitic Gneiss
Type: rock
Class: Metamorphic
Subclass: Gneis
Particle Size: Fine
Sample No.: gneiss3
Owner: JHU
Wavelength Range: All
Origin: Sample No. 310, The Hunt and Salisbury Collection at the U.S.Geological Survey, Denver, Co.
Description: This coarse to very coarse-grained sample consists of anhedra of quartz, alkali feldspar (albite, orthoclase, microcline) and brown and green biotite.  Some regions  are heavily sericitized, and sericitization has also occurred along most feldspar grain boundaries and cracks.  There are scattered opaques and some myrmeketic texture in this sample along with a trace of zircon.   Particle size was 0-75 Micrometer. Original ASTER Spectral Library name was jhu.becknic.rock.metamorphic.gneiss.fine.gneiss3.spectrum.txt
Measurement: Directional (10 Degree) Hemispherical Reflectance
X Units: Wavelength (micrometers)
Y Units: Reflectance (percent)
wavelength	value
14.983	2.8124
14.645	3.2557
14.321	2.6327
14.011	3.3791
13.715	3.0706
13.43	3.076
13.158	2.9117
12.896	2.5474
12.644	2.3386
12.402	3.0694
12.169	5.3059
11.945	7.4812
11.729	8.321
11.52	8.24
11.319	7.9321
11.125	6.9349
10.937	5.8273
10.755	5.0136
10.58	4.3913
10.41	3.9858
10.245	3.7687
10.086	3.8073
9.9313	3.9252
9.7814	3.759
9.636	3.8485
9.4948	3.8345
9.3577	4.7536
9.2245	5.2189
9.095	4.9047
8.9691	4.7522
8.8467	4.6549
8.7275	4.5094
8.6116	4.1753
8.4986	4.9722
8.3886	5.277
8.2814	5.8782
8.1769	6.3156
8.075	4.8076
7.9756	3.4817
7.8786	2.4132
7.784	2.0508
7.6916	2.0501
7.6014	2.1254
7.5133	2.5541
7.4272	3.0265
7.343	3.6884
7.2607	4.5994
7.1803	5.6734
7.1016	6.8359
7.0246	7.6465
6.9493	8.4735
6.8755	9.1927
6.8034	9.489
6.7327	9.5427
6.6634	10.218
6.5956	10.469
6.5292	11.081
6.464	13.172
6.4002	13.358
6.3376	12.11
6.2762	10.576
6.216	9.6159
6.157	10.892
6.099	13.031
6.0421	13.837
5.9863	13.781
5.9315	13.233
5.8777	14.721
5.8249	16.202
5.773	16.909
5.722	17.249
5.6719	16.685
5.6227	15.092
5.5744	14.831
5.5268	16.653
5.4801	19.14
5.4341	20.117
5.3889	17.241
5.3445	15.29
5.3008	16.327
5.2578	19.066
5.2154	23.46
5.1738	25.236
5.1328	25.793
5.0925	26.265
5.0528	25.864
5.0137	26.005
4.9752	28.281
4.9373	31.918
4.9	35.926
4.8632	40.588
4.827	42.554
4.7913	43.303
4.7561	44.409
4.7215	45.696
4.6873	45.861
4.6536	47.233
4.6205	49.067
4.5877	51.036
4.5555	52.772
4.5237	53.35
4.4923	52.888
4.4614	53.689
4.4309	55.542
4.4008	57.4
4.3711	59.55
4.3418	61.287
4.3129	62.277
4.2844	62.83
4.2563	63.853
4.2285	64.454
4.2011	64.991
4.174	65.575
4.1473	66.113
4.1209	66.602
4.0949	67.068
4.0692	67.387
4.0438	67.452
4.0187	67.416
3.994	67.332
3.9695	67.512
3.9453	67.94
3.9214	68.143
3.8979	68.12
3.8746	67.921
3.8515	67.778
3.8288	67.692
3.8063	67.637
3.7841	67.371
3.7621	66.98
3.7404	66.571
3.7189	66.304
3.6977	66.118
3.6767	65.872
3.656	65.506
3.6355	65.05
3.6152	64.499
3.5951	63.951
3.5753	63.359
3.5557	62.654
3.5363	61.807
3.5171	60.808
3.4981	60.113
3.4793	59.785
3.4607	59.204
3.4423	58.312
3.4241	57.606
3.4061	56.702
3.3883	56.012
3.3707	55.154
3.3533	54.282
3.336	53.506
3.3189	52.639
3.302	51.624
3.2853	50.575
3.2687	49.545
3.2523	48.536
3.2361	47.542
3.22	46.417
3.204	45.17
3.1883	43.746
3.1727	42.275
3.1572	40.995
3.1419	39.918
3.1268	38.846
3.1117	37.691
3.0969	36.595
3.0821	35.458
3.0675	34.459
3.0531	33.554
3.0388	32.626
3.0246	31.652
3.0105	30.449
2.9966	29.541
2.9828	28.897
2.9692	28.347
2.9556	27.974
2.9422	27.728
2.9289	27.773
2.9157	28.056
2.9027	28.469
2.8897	28.963
2.8769	29.128
2.8642	29.108
2.8516	29.01
2.8391	28.721
2.8267	28.105
2.8144	27.75
2.8022	27.82
2.7902	28.387
2.7782	27.892
2.7664	25.13
2.7546	24.127
2.7429	26.752
2.7314	30.741
2.7199	39.179
2.7085	48.395
2.6973	56.638
2.6861	66.367
2.675	69.81
2.664	72.115
2.6531	73.976
2.6423	74.76
2.6315	74.7
2.6209	74.957
2.6103	75.319
2.5999	75.348
2.5895	75.659
2.5792	75.964
2.569	76.253
2.5588	76.522
2.5487	76.788
2.5388	76.932
2.5289	77.037
2.519	77.042
2.5093	76.988
2.4996	76.994
2.49	77.016
2.4805	77.151
2.471	77.161
2.4616	77.307
2.4523	77.474
2.4431	77.598
2.4339	77.732
2.4248	78.029
2.4157	78.277
2.4068	78.369
2.3979	78.392
2.389	78.249
2.3802	78.135
2.3715	77.707
2.3629	77.108
2.3543	76.529
2.3458	76.362
2.3373	76.613
2.3289	77.156
2.3206	77.828
2.3123	78.303
2.3041	78.887
2.2959	79.333
2.2878	79.701
2.2798	79.926
2.2718	79.864
2.2638	79.573
2.2559	79.457
2.2481	79.689
2.2403	80.212
2.2326	80.695
2.225	80.619
2.2173	80.287
2.2098	79.626
2.2023	79.24
2.1948	79.387
2.1874	80.253
2.18	81.052
2.1727	81.732
2.1655	82.04
2.1583	82.428
2.1511	82.486
2.144	82.621
2.1369	82.613
2.1299	82.671
2.1229	82.519
2.116	82.665
2.1091	82.643
2.1023	82.605
2.0955	82.542
2.0887	82.848
2.082	82.71
2.06	82.625
2.028	80.942
1.996	79.495
1.964	77.639
1.932	77.054
1.9	76.453
1.868	78.636
1.836	79.487
1.804	77.349
1.772	76.293
1.74	75.455
1.708	75.922
1.676	75.13
1.644	74.457
1.612	72.138
1.58	72.987
1.548	70.848
1.516	70.202
1.484	68.729
1.452	68.336
1.42	67.039
1.388	65.393
1.356	65.334
1.324	64.164
1.292	62.913
1.26	62.094
1.228	61.042
1.196	60.246
1.164	59.038
1.132	58.109
1.1	57.341
1.068	56.766
1.036	57.358
1.004	56.724
0.972	55.687
0.94	55.19
0.908	54.702
0.876	54.278
0.844	54.097
0.812	53.922
0.795	53.847
0.787	53.361
0.779	53.746
0.771	53.168
0.763	53.113
0.755	52.528
0.747	52.145
0.739	51.75
0.731	51.702
0.723	50.92
0.715	51.302
0.707	51.004
0.699	51.903
0.691	51.639
0.683	51.539
0.675	51.985
0.667	52.033
0.659	52.329
0.651	52.242
0.643	52.432
0.635	51.791
0.627	51.994
0.619	52.784
0.611	52.532
0.603	52.228
0.595	51.699
0.587	52.151
0.579	52.048
0.571	51.513
0.563	51.46
0.555	51.509
0.547	50.769
0.539	50.831
0.531	49.595
0.523	49.669
0.515	49.382
0.507	48.339
0.499	47.485
0.491	47.207
0.483	46.104
0.475	44.981
0.467	43.941
0.459	44.639
0.451	43.729
0.443	42.707
0.435	42.333
0.427	40.683
0.419	39.931
0.411	38.352
0.403	37.905
