Name: Hornfels
Type: rock
Class: Metamorphic
Subclass: Hornfel
Particle Size: Fine
Sample No.: hornfel2
Owner: JHU
Wavelength Range: All
Origin: Sample No. 471, The Hunt and Salisbury Collection at the U.S.Geological Survey, Denver, Co.
Description: This is a greenish, very fine-grained to microcrystalline rock containing somewhat larger recrystallized feldspar and carbonate grains.  The finer material or groundmass also consists of these two phases in addition to a greenish microcrystalline mineral (chlorite?)Particle size was 0-75 Micrometer. Original ASTER Spectral Library name was jhu.becknic.rock.metamorphic.hornfels.fine.hornfe2.spectrum.txt
Measurement: Directional (10 Degree) Hemispherical Reflectance
X Units: Wavelength (micrometers)
Y Units: Reflectance (percent)
wavelength	value
14.983	1.6191
14.645	1.6658
14.321	1.8225
14.011	1.6764
13.715	1.4519
13.43	1.4308
13.158	1.4124
12.896	1.58
12.644	1.7247
12.402	2.8027
12.169	4.0202
11.945	4.9577
11.729	5.0918
11.52	4.9663
11.319	4.7437
11.125	4.1469
10.937	3.3244
10.755	2.9114
10.58	2.5832
10.41	2.3104
10.245	2.1773
10.086	2.2022
9.9313	2.2895
9.7814	2.2246
9.636	2.2756
9.4948	2.1387
9.3577	1.8614
9.2245	1.7212
9.095	1.6932
8.9691	1.7259
8.8467	1.7728
8.7275	1.8228
8.6116	1.9317
8.4986	2.1257
8.3886	2.506
8.2814	3.0663
8.1769	3.5828
8.075	4.0368
7.9756	4.6797
7.8786	5.4787
7.784	6.3568
7.6916	7.2191
7.6014	7.9935
7.5133	8.7556
7.4272	9.313
7.343	9.7604
7.2607	10.107
7.1803	10.265
7.1016	10.289
7.0246	10.488
6.9493	10.8
6.8755	11.122
6.8034	11.555
6.7327	12.036
6.6634	12.534
6.5956	13.136
6.5292	13.777
6.464	14.268
6.4002	14.355
6.3376	14.234
6.2762	14.077
6.216	13.681
6.157	13.272
6.099	13.198
6.0421	13.393
5.9863	14.019
5.9315	14.372
5.8777	14.592
5.8249	14.866
5.773	14.894
5.722	14.862
5.6719	14.861
5.6227	15.014
5.5744	15.044
5.5268	15.871
5.4801	16.549
5.4341	17.173
5.3889	17.832
5.3445	18.283
5.3008	18.608
5.2578	18.925
5.2154	19.284
5.1738	19.77
5.1328	20.173
5.0925	20.553
5.0528	20.852
5.0137	20.993
4.9752	21.112
4.9373	21.194
4.9	21.178
4.8632	21.234
4.827	21.297
4.7913	21.306
4.7561	21.371
4.7215	21.459
4.6873	21.537
4.6536	21.62
4.6205	21.764
4.5877	21.899
4.5555	22.015
4.5237	22.082
4.4923	22.044
4.4614	22.064
4.4309	22.232
4.4008	22.372
4.3711	22.44
4.3418	22.456
4.3129	22.472
4.2844	22.474
4.2563	22.447
4.2285	22.436
4.2011	22.409
4.174	22.379
4.1473	22.334
4.1209	22.312
4.0949	22.267
4.0692	22.208
4.0438	22.137
4.0187	22.027
3.994	21.785
3.9695	21.692
3.9453	21.814
3.9214	21.836
3.8979	21.799
3.8746	21.739
3.8515	21.686
3.8288	21.654
3.8063	21.632
3.7841	21.568
3.7621	21.486
3.7404	21.408
3.7189	21.298
3.6977	21.204
3.6767	21.102
3.656	20.99
3.6355	20.876
3.6152	20.751
3.5951	20.643
3.5753	20.505
3.5557	20.358
3.5363	20.228
3.5171	20.086
3.4981	19.913
3.4793	19.716
3.4607	19.635
3.4423	19.515
3.4241	19.35
3.4061	19.135
3.3883	18.922
3.3707	18.719
3.3533	18.455
3.336	18.318
3.3189	18.132
3.302	17.965
3.2853	17.802
3.2687	17.64
3.2523	17.454
3.2361	17.25
3.22	16.965
3.204	16.734
3.1883	16.553
3.1727	16.395
3.1572	16.259
3.1419	16.124
3.1268	15.989
3.1117	15.852
3.0969	15.758
3.0821	15.646
3.0675	15.602
3.0531	15.512
3.0388	15.411
3.0246	15.334
3.0105	15.141
2.9966	14.948
2.9828	14.731
2.9692	14.476
2.9556	14.219
2.9422	13.968
2.9289	13.828
2.9157	13.899
2.9027	14.08
2.8897	14.172
2.8769	14.151
2.8642	14.098
2.8516	14.066
2.8391	13.926
2.8267	13.685
2.8144	13.226
2.8022	12.585
2.7902	11.681
2.7782	10.477
2.7664	9.6183
2.7546	9.9074
2.7429	11.247
2.7314	12.81
2.7199	14.659
2.7085	15.656
2.6973	15.489
2.6861	18.101
2.675	19.502
2.664	19.65
2.6531	19.952
2.6423	20.02
2.6315	19.893
2.6209	19.896
2.6103	19.937
2.5999	19.892
2.5895	19.887
2.5792	19.947
2.569	19.946
2.5588	19.983
2.5487	20.018
2.5388	20.035
2.5289	20.027
2.519	20.037
2.5093	20.056
2.4996	20.031
2.49	20.023
2.4805	20.039
2.471	20.022
2.4616	19.996
2.4523	19.973
2.4431	19.978
2.4339	19.981
2.4248	19.988
2.4157	20.012
2.4068	19.982
2.3979	19.992
2.389	19.967
2.3802	19.935
2.3715	19.927
2.3629	19.935
2.3543	19.921
2.3458	19.892
2.3373	19.897
2.3289	19.855
2.3206	19.863
2.3123	19.919
2.3041	19.982
2.2959	19.988
2.2878	20.024
2.2798	20.02
2.2718	20.044
2.2638	20.017
2.2559	19.993
2.2481	19.979
2.2403	20.008
2.2326	19.955
2.225	19.996
2.2173	19.996
2.2098	19.986
2.2023	20.046
2.1948	20.042
2.1874	20.058
2.18	20.106
2.1727	20.116
2.1655	20.107
2.1583	20.153
2.1511	20.101
2.144	20.149
2.1369	20.136
2.1299	20.168
2.1229	20.15
2.116	20.152
2.1091	20.171
2.1023	20.168
2.0955	20.168
2.0887	20.179
2.082	20.204
2.06	20.232
2.028	19.999
1.996	19.871
1.964	19.822
1.932	19.6
1.9	19.68
1.868	19.885
1.836	20.02
1.804	19.924
1.772	19.869
1.74	20.021
1.708	20.202
1.676	20.495
1.644	20.486
1.612	20.14
1.58	20.723
1.548	20.543
1.516	20.782
1.484	20.712
1.452	20.816
1.42	20.972
1.388	20.906
1.356	21.135
1.324	21.46
1.292	21.728
1.26	21.743
1.228	22.162
1.196	22.458
1.164	22.59
1.132	22.966
1.1	23.284
1.068	23.751
1.036	24.512
1.004	24.57
0.972	24.61
0.94	24.878
0.908	24.84
0.876	24.646
0.844	24.48
0.812	24.509
0.795	24.93
0.787	24.984
0.779	25.069
0.771	24.561
0.763	24.665
0.755	24.708
0.747	24.525
0.739	24.514
0.731	24.301
0.723	24.195
0.715	24.236
0.707	23.986
0.699	24.552
0.691	24.354
0.683	24.455
0.675	24.522
0.667	24.243
0.659	24.48
0.651	24.51
0.643	24.334
0.635	24.432
0.627	24.487
0.619	24.806
0.611	24.884
0.603	24.783
0.595	24.701
0.587	24.658
0.579	24.865
0.571	24.571
0.563	24.899
0.555	24.922
0.547	24.84
0.539	25.01
0.531	24.698
0.523	24.634
0.515	24.842
0.507	24.624
0.499	24.396
0.491	24.67
0.483	24.421
0.475	24.214
0.467	24.089
0.459	24.324
0.451	24.081
0.443	23.901
0.435	24.106
0.427	24.051
0.419	23.723
0.411	23.414
0.403	23.49
