Name: Granitoid Gneiss
Type: Rock
Class: Metamorphic
Subclass: Gneis
Particle Size: Solid
Sample No.: Ward82
Owner: JPL
Wavelength Range: VSWIR
Origin: Ward's Collection of American Rocks.  Sample locality - Salisbury, Rowan County, North Carolina.  Collected by - JPL.
Description: A flesh colored rock consisting principally of feldspar andquartz.  There are scattered specks of magnetite and another dark minerals.  There is some evidence of grain orientation, but banding isnot pronounced.Collected by:  Ward's Natural Science Original ASTER Spectral Library name was jpl.perkin.rock.metamorphic.gneiss.solid.ward82.spectrum.txt
Measurement: Hemispherical reflectance
X Units: Wavelength (micrometers)
Y Units: Reflectance (percent)
wavelength	value
2.5	35.2578
2.494	35.167
2.488	35.2399
2.482	35.4654
2.476	35.7682
2.47	35.8972
2.464	36.102
2.458	36.2407
2.452	36.3474
2.446	36.4074
2.44	36.7653
2.434	36.7991
2.428	36.9528
2.422	37.1399
2.416	37.2852
2.41	37.4483
2.404	37.5624
2.398	37.6419
2.392	37.673
2.386	37.7534
2.38	37.7558
2.374	37.8022
2.368	37.8845
2.362	37.9286
2.356	38.0313
2.35	38.0407
2.344	38.1383
2.338	38.2968
2.332	38.4247
2.326	38.5793
2.32	38.833
2.314	38.8843
2.308	39.0788
2.302	39.1733
2.296	39.1999
2.29	39.2024
2.284	39.2334
2.278	39.2657
2.272	39.2775
2.266	39.1733
2.26	39.2126
2.254	39.2139
2.248	39.376
2.242	39.5146
2.236	39.7125
2.23	39.8242
2.224	39.9456
2.218	39.9959
2.212	40.1438
2.206	40.2572
2.2	40.5038
2.194	40.6704
2.188	40.7815
2.182	41.0534
2.176	41.164
2.17	41.2953
2.164	41.4103
2.158	41.6729
2.152	41.7304
2.146	41.8277
2.14	41.7564
2.134	41.8125
2.128	41.858
2.122	41.6986
2.116	41.6469
2.11	41.6058
2.104	41.5767
2.098	41.468
2.092	41.5454
2.086	41.5795
2.08	41.6326
2.074	41.6326
2.068	41.738
2.062	41.6675
2.056	41.6856
2.05	41.6716
2.044	41.6336
2.038	41.6191
2.032	41.5296
2.026	41.4657
2.02	41.4082
2.014	41.2955
2.008	41.1957
2.002	41.1682
1.996	40.9968
1.99	40.7888
1.984	40.6733
1.978	40.5473
1.972	40.3911
1.966	40.1741
1.96	40.0566
1.954	39.8855
1.948	39.7438
1.942	39.6943
1.936	39.5084
1.93	39.4166
1.924	39.3894
1.918	39.6582
1.912	39.86
1.906	40.143
1.9	40.7028
1.894	41.5088
1.888	42.068
1.882	42.5696
1.876	42.7682
1.87	42.9965
1.864	43.2291
1.858	43.2922
1.852	43.3873
1.846	43.4878
1.84	43.4782
1.834	43.587
1.828	43.6286
1.822	43.6686
1.816	43.6461
1.81	43.74
1.804	43.7748
1.798	43.7159
1.792	43.756
1.786	43.7366
1.78	43.7138
1.774	43.74
1.768	43.6723
1.762	43.7509
1.756	43.7498
1.75	43.6904
1.744	43.7528
1.738	43.7926
1.732	43.7676
1.726	43.81
1.72	43.7945
1.714	43.7993
1.708	43.7795
1.702	43.8433
1.696	43.7939
1.69	43.747
1.684	43.803
1.678	43.8384
1.672	43.8027
1.666	43.7986
1.66	43.7926
1.654	43.7483
1.648	43.758
1.642	43.7844
1.636	43.833
1.63	43.7542
1.624	43.8243
1.618	43.7659
1.612	43.8036
1.606	43.7577
1.6	43.8385
1.594	43.7787
1.588	43.7778
1.582	43.693
1.576	43.6724
1.57	43.7441
1.564	43.695
1.558	43.7385
1.552	43.7301
1.546	43.689
1.54	43.6481
1.534	43.6281
1.528	43.5674
1.522	43.5663
1.516	43.5235
1.51	43.5099
1.504	43.4465
1.498	43.4409
1.492	43.3546
1.486	43.3426
1.48	43.3122
1.474	43.2575
1.468	43.2635
1.462	43.2037
1.456	43.177
1.45	43.1513
1.444	43.2081
1.438	43.1896
1.432	43.1485
1.426	43.0328
1.42	43.0096
1.414	42.9038
1.408	43.0412
1.402	43.2517
1.396	43.4708
1.39	43.6622
1.384	43.7072
1.378	43.775
1.372	43.7637
1.366	43.6885
1.36	43.8116
1.354	43.7233
1.348	43.6959
1.342	43.6873
1.336	43.7128
1.33	43.7259
1.324	43.6444
1.318	43.7177
1.312	43.7837
1.306	43.6813
1.3	43.6931
1.294	43.6868
1.288	43.6568
1.282	43.6507
1.276	43.7604
1.27	43.7294
1.264	43.656
1.258	43.7832
1.252	43.7118
1.246	43.7143
1.24	43.7631
1.234	43.7554
1.228	43.7823
1.222	43.698
1.216	43.8447
1.21	43.862
1.204	43.8574
1.198	43.8604
1.192	43.9109
1.186	43.8798
1.18	43.9352
1.174	43.9613
1.168	44.0235
1.162	44.0466
1.156	44.1099
1.15	44.1933
1.144	44.1923
1.138	44.2747
1.132	44.2996
1.126	44.3893
1.12	44.4542
1.114	44.564
1.108	44.5652
1.102	44.6272
1.096	44.7106
1.09	44.712
1.084	44.8091
1.078	44.8926
1.072	45.0196
1.066	45.0348
1.06	45.1482
1.054	45.1227
1.048	45.2542
1.042	45.2832
1.036	45.363
1.03	45.5127
1.024	45.4348
1.018	45.5523
1.012	45.4791
1.006	45.5922
1	45.5991
0.994	45.6844
0.988	45.5892
0.982	45.6023
0.976	45.5796
0.97	45.5612
0.964	45.4904
0.958	45.5114
0.952	45.4875
0.946	45.3843
0.94	45.33
0.934	45.282
0.928	45.2077
0.922	45.2106
0.916	45.094
0.91	45.0064
0.904	44.8896
0.898	44.8155
0.892	44.6479
0.886	44.5546
0.88	44.2754
0.874	44.2576
0.868	43.9988
0.862	43.8158
0.856	43.7902
0.85	43.8621
0.844	43.8873
0.838	43.9352
0.832	43.9754
0.826	44.0505
0.82	44.0807
0.814	44.1239
0.808	44.1193
0.802	44.1695
0.796	44.1305
0.79	44.1582
0.784	44.1862
0.778	44.1402
0.772	44.1502
0.766	44.1006
0.76	44.1063
0.754	44.0667
0.748	44.0259
0.742	43.9566
0.736	43.9206
0.73	43.8461
0.724	43.7576
0.718	43.6707
0.712	43.5695
0.706	43.4669
0.7	43.3526
0.694	43.2369
0.688	43.144
0.682	43.0207
0.676	42.9162
0.67	42.8092
0.664	42.7162
0.658	42.6167
0.652	42.5271
0.646	42.4514
0.64	42.3525
0.634	42.2579
0.628	42.1719
0.622	42.0447
0.616	41.8931
0.61	41.7065
0.604	41.442
0.598	41.1015
0.592	40.6415
0.586	40.0139
0.58	39.2514
0.574	38.3631
0.568	37.4228
0.562	36.476
0.556	35.6554
0.55	34.9661
0.544	34.3806
0.538	33.9023
0.532	33.5267
0.526	33.2153
0.52	32.9599
0.514	32.7446
0.508	32.5696
0.502	32.366
0.496	32.1852
0.49	32.028
0.484	31.9256
0.478	31.6815
0.472	31.4824
0.466	31.2843
0.46	31.0724
0.454	30.875
0.448	30.6472
0.442	30.4055
0.436	30.1376
0.43	29.8883
0.424	29.6674
0.418	29.4654
0.412	29.2968
0.406	29.1553
0.4	29.042
