Name: Basalt
Type: rock
Class: Igneous
Subclass: Mafic
Particle Size: Solid
Sample No.: Basalt_H1
Owner: JHU
Wavelength Range: All
Origin: from Chimney Rock, Somerset County, New Jersey, via Ward'sScientific (Cat. No. W-36)
Description: A greenish-black aphanitic rock. Original ASTER Spectral Library name was jhu.becknic.rock.igneous.mafic.solid.basal1.spectrum.txt
Measurement: Directional (10 degree) hemispherical reflectance
X Units: Wavelength (micrometers)
Y Units: Reflectance (percent)
wavelength	value
14.0112	3.5616
13.7147	2.0958
13.4304	2.4736
13.1577	3.019
12.8959	3.2941
12.6443	3.3084
12.4023	3.6049
12.1694	4.2891
11.945	4.9193
11.7289	5.9051
11.5203	6.9387
11.3191	7.9212
11.1248	8.6086
10.937	9.356
10.7555	10.0296
10.5799	10.2468
10.4099	10.372
10.2454	10.0547
10.0859	10.4069
9.9313	10.755
9.7814	10.6197
9.636	10.2374
9.4948	9.8093
9.3577	9.8514
9.2245	9.8885
9.095	9.7769
8.9691	8.8833
8.8467	7.1934
8.7275	5.7574
8.6116	5.0154
8.4986	4.5511
8.3886	3.9056
8.2814	2.9238
8.1769	1.9282
8.075	1.4735
7.9756	1.2876
7.8786	1.2206
7.784	1.1998
7.6916	1.2535
7.6014	1.3547
7.5133	1.3739
7.4272	1.4557
7.343	1.4974
7.2607	1.5896
7.1803	1.6268
7.1016	1.6793
7.0246	1.739
6.9493	1.7867
6.8755	1.8314
6.8034	1.9083
6.7327	1.9378
6.6634	1.9763
6.5956	1.9821
6.5292	1.9903
6.464	1.991
6.4002	1.9814
6.3376	1.9884
6.2762	2.0194
6.216	2.0025
6.157	1.9932
6.099	2.0179
6.0421	2.0405
5.9863	2.081
5.9315	2.1213
5.8777	2.1942
5.8249	2.2882
5.773	2.3735
5.722	2.3826
5.6719	2.4345
5.6227	2.4947
5.5744	2.5116
5.5268	2.5509
5.4801	2.5763
5.4341	2.5992
5.3889	2.6044
5.3445	2.6194
5.3008	2.6369
5.2578	2.6494
5.2154	2.692
5.1738	2.7347
5.1328	2.7497
5.0925	2.7844
5.0528	2.8212
5.0137	2.8525
4.9752	2.9075
4.9373	2.9177
4.9	2.967
4.8632	3.0039
4.827	3.0296
4.7913	3.075
4.7561	3.0799
4.7215	3.116
4.6873	3.161
4.6536	3.1997
4.6205	3.2078
4.5877	3.251
4.5555	3.2834
4.5237	3.3185
4.4923	3.353
4.4614	3.3394
4.4309	3.3849
4.4008	3.3834
4.3711	3.3942
4.3418	3.3876
4.3129	3.4226
4.2844	3.4594
4.2563	3.4514
4.2285	3.4842
4.2011	3.494
4.174	3.4966
4.1473	3.5158
4.1209	3.5245
4.0949	3.5156
4.0692	3.5569
4.0438	3.5519
4.0187	3.5725
3.994	3.5296
3.9695	3.5805
3.9453	3.5538
3.9214	3.559
3.8979	3.5756
3.8746	3.5946
3.8515	3.596
3.8288	3.6047
3.8063	3.6094
3.7841	3.5883
3.7621	3.5843
3.7404	3.5489
3.7189	3.57
3.6977	3.5857
3.6767	3.5346
3.656	3.5688
3.6355	3.5728
3.6152	3.5595
3.5951	3.5163
3.5753	3.5325
3.5557	3.5135
3.5363	3.4877
3.5171	3.4507
3.4981	3.4078
3.4793	3.4034
3.4607	3.4125
3.4423	3.4236
3.4241	3.326
3.4061	3.3206
3.3883	3.319
3.3707	3.3054
3.3533	3.353
3.336	3.2935
3.3189	3.3187
3.302	3.2599
3.2853	3.281
3.2687	3.2784
3.2523	3.2553
3.2361	3.2238
3.22	3.1696
3.204	3.1685
3.1883	3.1212
3.1727	3.1043
3.1572	3.1036
3.1419	3.0668
3.1268	3.0351
3.1117	2.9892
3.0969	3.0068
3.0821	2.9662
3.0675	2.9817
3.0531	2.9271
3.0388	2.9421
3.0246	2.9192
3.0105	2.9341
2.9966	2.9187
2.9828	2.8919
2.9692	2.9264
2.9556	2.8575
2.9422	2.9006
2.9289	2.9182
2.9157	2.8999
2.9027	2.9444
2.8897	2.921
2.8769	2.9145
2.8642	2.9112
2.8516	2.8865
2.8391	2.9055
2.8267	2.9117
2.8144	2.94
2.8022	2.9348
2.7902	2.902
2.7782	2.9098
2.7664	2.907
2.7546	2.9482
2.7429	2.9995
2.7314	3.0457
2.7199	3.128
2.7085	3.3968
2.6973	3.5688
2.6861	3.6216
2.675	3.7101
2.664	3.6675
2.6531	3.6841
2.6423	3.6717
2.6315	3.7143
2.6209	3.6706
2.6103	3.6633
2.5999	3.7008
2.5895	3.6304
2.5792	3.6569
2.569	3.6408
2.5588	3.5782
2.5487	3.6091
2.5388	3.5463
2.5289	3.5725
2.519	3.5304
2.5093	3.554
2.4996	3.5821
2.49	3.5055
2.4805	3.5114
2.471	3.51
2.4616	3.5367
2.4523	3.5147
2.4431	3.4826
2.4339	3.4525
2.4248	3.4545
2.4157	3.494
2.4068	3.4922
2.3979	3.5166
2.389	3.4231
2.3802	3.4631
2.3715	3.4549
2.3629	3.5121
2.3543	3.3813
2.3458	3.4945
2.3373	3.4382
2.3289	3.4399
2.3206	3.4624
2.3123	3.465
2.3041	3.4226
2.2959	3.3977
2.2878	3.4148
2.2798	3.4336
2.2718	3.3949
2.2638	3.4915
2.2559	3.4408
2.2481	3.4385
2.2403	3.4805
2.2326	3.4781
2.225	3.4812
2.2173	3.4784
2.2098	3.439
2.2023	3.5088
2.1948	3.5172
2.1874	3.5114
2.18	3.4903
2.1727	3.5135
2.1655	3.5815
2.1583	3.514
2.1511	3.4836
2.144	3.5522
2.1369	3.5353
2.1299	3.5616
2.1229	3.6169
2.116	3.5771
2.1091	3.5909
2.1023	3.6445
2.0955	3.601
2.0887	3.6143
2.082	3.5963
2.06	3.6711
2.028	3.7019
1.996	3.7267
1.964	3.7377
1.932	3.7823
1.9	3.8459
1.868	3.9095
1.836	3.9361
1.804	3.986
1.772	3.9373
1.74	3.9896
1.708	4.0086
1.676	4.0739
1.644	4.0487
1.612	4.0632
1.58	4.1185
1.548	4.127
1.516	4.1307
1.484	4.1515
1.452	4.1424
1.42	4.0625
1.388	4.1036
1.356	4.0486
1.324	4.2786
1.292	4.1898
1.26	4.1577
1.228	4.1496
1.196	4.0482
1.164	4.0329
1.132	3.9164
1.1	3.8252
1.068	3.8272
1.036	3.733
1.004	3.625
0.972	3.5991
0.94	3.7848
0.908	4.0022
0.876	4.1859
0.844	4.4377
0.812	4.5575
0.795	4.5885
0.787	4.6858
0.779	4.3095
0.771	4.6872
0.763	4.5666
0.755	4.4782
0.747	4.5567
0.739	4.6191
0.731	4.6056
0.723	4.6799
0.715	4.4805
0.707	4.3713
0.699	4.4357
0.691	4.4092
0.683	4.5639
0.675	4.3972
0.667	4.3683
0.659	4.3119
0.651	4.4336
0.643	4.2549
0.635	4.3476
0.627	4.4185
0.619	4.4036
0.611	4.354
0.603	4.2663
0.595	4.2592
0.587	4.1433
0.579	4.2747
0.571	4.3711
0.563	4.34
0.555	4.1019
0.547	4.2991
0.539	4.1784
0.531	4.2641
0.523	4.2912
0.515	4.2377
0.507	4.3935
0.499	4.2632
0.491	3.8794
0.483	3.7645
0.475	4.1181
0.467	4.2877
0.459	4.1419
0.451	4.2254
0.443	3.8615
0.435	3.3547
0.427	3.3836
0.419	3.6009
0.411	3.4366
0.403	2.9721
