Name: Aporhyolite (felsite)
Type: Rock
Class: Igneous
Subclass: Felsic
Particle Size: Solid
Sample No.: Ward05
Owner: JPL
Wavelength Range: All
Origin: Ward's Collection of American Rocks.  Sample locality - Mattapan, Suffolk County, Massachusetts.
Description: A dense felsitic rock varying in color from salmon to red.The original flow structure is often apparent.Geologic age - Devonian or Carboniferous. Geologic name - Mattapan Felsite.Collected by:  Ward's Natural Science Original ASTER Spectral Library name was jpl.nicolet.rock.igneous.felsic.solid.ward05.spectrum.txt
Measurement: Hemispherical reflectance
X Units: Wavelength (micrometers)
Y Units: Reflectance (percent)
wavelength	value
15.3871	4.9965
15.118	3.5821
14.8581	4.3338
14.6069	4.9293
14.3642	4.9223
14.1293	5.3852
13.9021	6.0533
13.682	5.0904
13.4687	6.029
13.2621	5.8899
13.0616	6.4679
12.8672	7.6332
12.6784	6.5418
12.4951	6.5202
12.317	3.7541
12.1439	4.3705
11.9757	5.2698
11.812	5.4637
11.6527	6.2573
11.4977	6.8192
11.3468	6.8517
11.1997	7.3227
11.0564	8.0842
10.9168	8.4169
10.7806	8.8279
10.6478	9.3922
10.5182	10.6585
10.3917	12.2168
10.2683	14.2714
10.1477	16.7138
10.0299	18.993
9.9148	20.8792
9.8024	20.6365
9.6925	24.351
9.585	25.5864
9.4798	24.2329
9.377	25.6247
9.2763	27.5189
9.1778	27.1259
9.0814	26.2798
8.987	24.7806
8.8945	24.2725
8.8039	24.2197
8.7151	24.3262
8.6281	21.4117
8.5428	24.3716
8.4592	24.2684
8.3772	23.3876
8.2967	21.6959
8.2179	20.1507
8.1404	16.3732
8.0645	10.6347
7.9899	7.2065
7.9167	4.928
7.8449	3.6419
7.7743	3.301
7.705	2.9683
7.6369	2.7019
7.57	2.4883
7.5043	2.2735
7.4397	2.2896
7.3762	2.2148
7.3138	2.039
7.2524	2.0991
7.1921	2.2169
7.1327	2.3768
7.0743	2.3605
7.0169	2.3026
6.9604	2.4129
6.9047	2.46
6.85	2.4223
6.7962	2.3941
6.7431	2.3383
6.6909	2.3148
6.6395	2.4963
6.5889	2.3802
6.539	2.4579
6.49	2.6907
6.4416	2.8513
6.3939	2.7185
6.347	2.5168
6.3007	2.4209
6.2551	2.2567
6.2101	2.3907
6.1658	2.3771
6.1222	2.466
6.0791	2.6812
6.0366	2.6706
5.9948	2.5086
5.9535	2.6321
5.9127	2.5369
5.8726	2.7417
5.8329	2.6988
5.7938	2.7204
5.7552	2.7558
5.7172	2.847
5.6796	2.7994
5.6425	2.6898
5.6059	2.6933
5.5698	2.7352
5.5341	2.7388
5.4989	3.0288
5.4641	3.1921
5.4298	3.234
5.3959	3.0096
5.3624	2.9789
5.3294	2.7979
5.2967	2.9842
5.2644	3.1046
5.2326	3.4215
5.2011	3.6764
5.17	3.7759
5.1392	3.7057
5.1088	3.8846
5.0788	3.8551
5.0491	3.7961
5.0198	3.8768
4.9908	3.8614
4.9622	4.2533
4.9338	4.6195
4.9058	4.8616
4.8781	5.787
4.8508	6.2556
4.8237	6.6684
4.7969	6.6562
4.7704	6.7583
4.7443	7.038
4.7184	7.4364
4.6927	7.3189
4.6674	7.4463
4.6423	7.8597
4.6175	8.5615
4.593	9.038
4.5687	9.2573
4.5447	9.6477
4.5209	9.5777
4.4974	9.3018
4.4741	9.2683
4.451	9.8186
4.4282	10.4416
4.4057	11.1623
4.3833	12.1765
4.3612	13.0736
4.3393	13.8611
4.3176	14.5844
4.2962	14.8809
4.2749	15.5215
4.2539	15.9263
4.233	16.2107
4.2124	16.4788
4.192	16.6558
4.1717	17.1314
4.1517	17.5705
4.1319	17.9237
4.1122	18.4598
4.0927	18.7852
4.0734	18.8463
4.0543	18.851
4.0354	18.4299
4.0166	18.0146
3.9981	18.0672
3.9796	17.7891
3.9614	17.76
3.9433	18.6367
3.9254	19.1512
3.9077	19.335
3.8901	19.1844
3.8726	19.2589
3.8554	19.2715
3.8382	19.4545
3.8213	19.7841
3.8045	19.988
3.7878	20.4099
3.7713	20.2082
3.7549	20.05
3.7386	19.9758
3.7225	19.9624
3.7066	20.0922
3.6907	20.4179
3.675	20.6733
3.6595	20.7675
3.644	20.845
3.6287	20.7966
3.6136	20.8751
3.5985	20.514
3.5836	20.1645
3.5688	20.1307
3.5541	20.0725
3.5396	19.5324
3.5251	19.4829
3.5108	18.1953
3.4966	18.1161
3.4825	17.8123
3.4685	17.8494
3.4547	17.7816
3.4409	17.597
3.4273	16.6133
3.4137	16.6208
3.4003	16.3045
3.387	16.0968
3.3738	15.9006
3.3606	16.1054
3.3476	15.9917
3.3347	16.0162
3.3219	15.8242
3.3092	15.2706
3.2965	15.3684
3.284	14.838
3.2716	14.511
3.2593	14.1441
3.247	14.4429
3.2348	13.8164
3.2228	13.451
3.2108	13.1776
3.1989	12.9236
3.1871	12.8738
3.1754	12.2295
3.1638	12.343
3.1523	12.0974
3.1408	11.4935
3.1294	11.1571
3.1181	10.932
3.1069	10.8097
3.0958	10.7646
3.0848	10.3352
3.0738	10.6519
3.0629	10.2579
3.0521	10.6344
3.0413	10.5936
3.0307	9.7966
3.0201	10.0552
3.0096	10.3127
2.9991	10.1645
2.9887	9.7203
2.9784	9.9651
2.9682	10.0275
2.9581	9.6691
2.948	10.1978
2.9379	9.8228
2.928	9.3829
2.9181	10.2052
2.9083	10
2.8985	10.2401
2.8888	10.0992
2.8792	10.6525
2.8697	10.7447
2.8602	10.7328
2.8507	10.8235
2.8413	10.7663
2.832	10.2846
2.8228	8.8841
2.8136	7.7681
2.8045	6.2588
2.7954	6.0012
2.7864	5.1786
2.7774	4.61
2.7685	4.4495
2.7597	4.3214
2.7509	5.157
2.7422	4.9233
2.7335	5.6232
2.7249	8.5299
2.7163	11.5721
2.7078	12.1909
2.6994	14.1612
2.691	17.5611
2.6826	19.173
2.6743	19.925
2.666	20.8723
2.6578	21.254
2.6497	21.0773
2.6416	21.6284
2.6336	21.1628
2.6256	21.3621
2.6176	21.2821
2.6097	21.4552
2.6018	21.2181
2.594	21.6611
2.5863	21.4434
2.5785	22.2273
2.5709	21.8288
2.5633	21.9104
2.5557	22.0765
2.5481	21.5137
2.5406	21.8911
2.5332	21.5401
2.5258	21.7738
2.5184	21.8275
2.5111	21.7283
2.5038	21.4343
2.4966	21.4675
2.4894	21.6792
2.4823	20.9354
2.4752	21.3516
2.4681	20.5268
2.4611	20.8142
2.4541	20.4983
2.4471	20.2736
2.4402	20.8236
2.4333	21.0888
2.4265	20.836
2.4197	20.8723
2.413	21.5321
2.4063	20.8682
2.3996	21.289
2.3929	20.7806
2.3863	21.0405
2.3798	20.982
2.3732	20.1259
2.3667	20.9927
2.3603	20.3188
2.3538	19.7604
2.3474	21.0559
2.3411	20.825
2.3347	20.9933
2.3285	21.2988
2.3222	21.7618
2.316	22.2234
2.3098	22.5986
2.3036	22.4434
2.2975	23.0083
2.2914	22.4725
2.2854	22.8541
2.2793	22.8593
2.2733	22.1041
2.2674	21.9002
2.2614	21.7926
2.2555	21.8408
2.2497	21.4156
2.2438	21.4182
2.238	20.8275
2.2322	20.0333
2.2265	20.0575
2.2208	19.6996
2.2151	20.5289
2.2094	20.3608
2.2038	22.0657
2.1982	20.8344
2.1926	22.3111
2.187	22.3461
2.1815	22.1347
2.176	22.6382
2.1706	22.7832
2.1651	21.9871
2.1597	22.3765
2.1543	24.5582
2.149	22.5917
2.1436	23.3146
2.1383	22.6924
2.1331	23.7871
2.1278	23.4534
2.1226	24.0808
2.1174	23.2061
2.1122	22.9361
2.1071	22.6539
2.1019	22.3418
2.0968	24.1659
2.0918	22.3
2.0867	21.5878
2.0817	24.6288
2.0767	22.671
2.0717	24.0418
2.0667	24.6285
2.0618	23.6611
2.0569	24.4339
2.052	23.3119
2.0472	24.7092
2.0423	24.0851
2.0375	23.7016
2.0327	23.9591
2.028	24.4047
2.0232	23.3785
2.0185	23.3556
2.0138	24.6913
2.0091	23.2164
2.0044	23.4009
1.9998	22.3518
