Name: Monzonite
Type: rock
Class: Igneous
Subclass: Intermediate
Particle Size: Fine
Sample No.: Monzonite_H1
Owner: JHU
Wavelength Range: All
Origin: Near Silverton, San Juan County, Colorado, via Ward's Scientific(Cat. No.  W-22)
Description: Sample from which the powder was derived is purplish-gray, medium-grained granular rock composed of feldspar, a greenish to black mafic mineral and opaques.Particle size was 0-75 micrometers. Original ASTER Spectral Library name was jhu.becknic.rock.igneous.intermediate.fine.monzon1.spectrum.txt
Measurement: Directional (10 degree) hemispherical reflectance
X Units: Wavelength (micrometers)
Y Units: Reflectance (percent)
wavelength	value
14.011	0.9956
13.715	1.2197
13.43	1.1592
13.158	1.1499
12.896	1.4437
12.644	1.219
12.402	2.0259
12.169	3.3933
11.945	4.1784
11.729	4.2942
11.52	4.151
11.319	3.8519
11.125	3.4624
10.937	2.8959
10.755	2.6004
10.58	2.4753
10.41	2.3796
10.245	2.4276
10.086	2.5158
9.9313	2.5643
9.7814	2.4857
9.636	2.6553
9.4948	2.6179
9.3577	2.886
9.2245	2.9543
9.095	2.7694
8.9691	2.7867
8.8467	2.8083
8.7275	2.8901
8.6116	2.7276
8.4986	3.2018
8.3886	3.4397
8.2814	3.7088
8.1769	3.6075
8.075	2.7129
7.9756	2.1514
7.8786	1.7678
7.784	1.7862
7.6916	1.986
7.6014	2.265
7.5133	2.5929
7.4272	2.9477
7.343	3.3618
7.2607	3.859
7.1803	4.3774
7.1016	4.9184
7.0246	5.2959
6.9493	5.6634
6.8755	5.9733
6.8034	6.2046
6.7327	6.3956
6.6634	6.8597
6.5956	7.1745
6.5292	7.3912
6.464	8.1358
6.4002	8.2003
6.3376	7.7597
6.2762	7.136
6.216	6.8569
6.157	7.2295
6.099	7.9153
6.0421	8.3927
5.9863	8.5331
5.9315	8.5912
5.8777	9.2538
5.8249	9.761
5.773	9.9928
5.722	10.186
5.6719	10.023
5.6227	9.6063
5.5744	9.7376
5.5268	10.666
5.4801	11.711
5.4341	12.349
5.3889	11.744
5.3445	11.244
5.3008	11.878
5.2578	13.075
5.2154	14.844
5.1738	15.682
5.1328	16.202
5.0925	16.726
5.0528	16.915
5.0137	17.16
4.9752	17.984
4.9373	19.203
4.9	20.367
4.8632	21.509
4.827	22.029
4.7913	22.322
4.7561	22.753
4.7215	23.173
4.6873	23.366
4.6536	23.861
4.6205	24.502
4.5877	25.185
4.5555	25.711
4.5237	26.126
4.4923	26.276
4.4614	26.632
4.4309	27.214
4.4008	27.746
4.3711	28.27
4.3418	28.701
4.3129	29.08
4.2844	29.288
4.2563	29.584
4.2285	29.792
4.2011	29.998
4.174	30.225
4.1473	30.309
4.1209	30.505
4.0949	30.607
4.0692	30.729
4.0438	30.789
4.0187	30.801
3.994	30.671
3.9695	30.756
3.9453	30.911
3.9214	31.112
3.8979	31.086
3.8746	31.152
3.8515	31.161
3.8288	31.154
3.8063	31.285
3.7841	31.221
3.7621	31.255
3.7404	31.184
3.7189	31.147
3.6977	31.089
3.6767	31.054
3.656	31.018
3.6355	30.918
3.6152	30.821
3.5951	30.695
3.5753	30.633
3.5557	30.365
3.5363	30.26
3.5171	30.055
3.4981	29.862
3.4793	29.707
3.4607	29.492
3.4423	29.261
3.4241	28.881
3.4061	28.553
3.3883	28.218
3.3707	27.885
3.3533	27.401
3.336	26.997
3.3189	26.543
3.302	26.202
3.2853	25.654
3.2687	25.181
3.2523	24.445
3.2361	23.695
3.22	22.776
3.204	21.778
3.1883	20.922
3.1727	20.046
3.1572	19.351
3.1419	18.788
3.1268	18.249
3.1117	17.812
3.0969	17.382
3.0821	16.97
3.0675	16.855
3.0531	16.652
3.0388	16.582
3.0246	16.267
3.0105	15.983
2.9966	15.572
2.9828	15.178
2.9692	14.911
2.9556	14.774
2.9422	14.702
2.9289	14.773
2.9157	15.054
2.9027	15.324
2.8897	15.757
2.8769	16.032
2.8642	16.067
2.8516	16.357
2.8391	16.37
2.8267	16.237
2.8144	16.243
2.8022	16.388
2.7902	16.613
2.7782	16.467
2.7664	16.041
2.7546	15.9
2.7429	16.735
2.7314	17.458
2.7199	20.206
2.7085	25.576
2.6973	27.703
2.6861	30.028
2.675	31.054
2.664	31.585
2.6531	31.792
2.6423	31.849
2.6315	31.94
2.6209	31.945
2.6103	31.975
2.5999	31.998
2.5895	32.045
2.5792	32.089
2.569	32.085
2.5588	32.188
2.5487	32.181
2.5388	32.235
2.5289	32.201
2.519	32.328
2.5093	32.374
2.4996	32.307
2.49	32.386
2.4805	32.35
2.471	32.399
2.4616	32.363
2.4523	32.439
2.4431	32.455
2.4339	32.407
2.4248	32.422
2.4157	32.48
2.4068	32.485
2.3979	32.398
2.389	32.308
2.3802	32.422
2.3715	32.455
2.3629	32.378
2.3543	32.349
2.3458	32.392
2.3373	32.217
2.3289	32.187
2.3206	32.344
2.3123	32.473
2.3041	32.648
2.2959	32.629
2.2878	32.647
2.2798	32.868
2.2718	32.834
2.2638	32.86
2.2559	32.79
2.2481	32.734
2.2403	32.753
2.2326	32.786
2.225	32.803
2.2173	32.791
2.2098	32.746
2.2023	32.797
2.1948	32.759
2.1874	32.857
2.18	32.919
2.1727	33.037
2.1655	32.98
2.1583	33.046
2.1511	32.954
2.144	32.985
2.1369	32.98
2.1299	33.067
2.1229	33.051
2.116	32.923
2.1091	32.985
2.1023	33.013
2.0955	33.005
2.0887	32.871
2.082	32.883
2.06	32.865
2.028	32.517
1.996	31.992
1.964	31.757
1.932	31.527
1.9	31.174
1.868	32.083
1.836	32.498
1.804	31.559
1.772	31.503
1.74	32.021
1.708	31.755
1.676	31.471
1.644	31.345
1.612	31.273
1.58	31.113
1.548	31.061
1.516	30.733
1.484	30.488
1.452	30.599
1.42	30.355
1.388	29.865
1.356	29.995
1.324	29.559
1.292	29.567
1.26	29.097
1.228	29.078
1.196	28.791
1.164	28.47
1.132	28.323
1.1	28.01
1.068	28.023
1.036	27.853
1.004	27.896
0.972	27.578
0.94	27.331
0.908	27.377
0.876	27.179
0.844	26.932
0.812	26.956
0.795	26.975
0.787	26.946
0.779	27.097
0.771	26.871
0.763	26.772
0.755	26.39
0.747	26.328
0.739	26.507
0.731	26.478
0.723	26.344
0.715	26.123
0.707	26.15
0.699	26.339
0.691	26.586
0.683	26.456
0.675	26.584
0.667	26.552
0.659	26.286
0.651	26.814
0.643	26.385
0.635	26.418
0.627	26.449
0.619	26.714
0.611	26.382
0.603	26.245
0.595	26.541
0.587	26.132
0.579	26.172
0.571	26.049
0.563	26.144
0.555	25.967
0.547	25.735
0.539	25.525
0.531	25.154
0.523	24.88
0.515	24.732
0.507	24.189
0.499	23.978
0.491	23.617
0.483	23.196
0.475	22.585
0.467	22.22
0.459	23.141
0.451	22.567
0.443	22.01
0.435	21.879
0.427	21.024
0.419	20.13
0.411	19.603
0.403	19.183
