Name: Basalt
Type: Rock
Class: Igneous
Subclass: Mafic
Particle Size: Solid
Sample No.: Me41
Owner: Lawrence Rowan, USGS Reston
Wavelength Range: All
Origin: Middle East
Description: BasaltSample was Whole rock chips. Original ASTER Spectral Library name was usgs.perknic.rock.igneous.mafic.solid.me41.spectrum.txt
Measurement: Directional Hemispherical Reflectance
X Units: Wavelength (micrometers)
Y Units: Reflectance (percent)
wavelength	value
14.051	2.3999
13.826	2.6368
13.609	2.7707
13.398	2.7707
13.193	2.8222
12.995	2.9046
12.802	2.9149
12.616	3.0488
12.434	3.2033
12.258	3.6874
12.086	4.0685
11.92	4.2024
11.757	4.7071
11.6	5.2221
11.446	5.6856
11.297	6.0564
11.151	6.5199
11.009	6.6126
10.87	6.6538
10.735	6.5096
10.604	6.5611
10.475	6.4169
10.35	6.4375
10.227	6.3242
10.108	6.283
9.991	6.489
9.877	6.4993
9.765	6.3139
9.656	6.3654
9.549	6.1079
9.445	5.7577
9.343	5.665
9.243	5.4281
9.145	5.5105
9.049	5.5105
8.956	5.4899
8.864	5.2324
8.774	4.8307
8.686	4.6144
8.599	4.4393
8.515	4.4908
8.431	4.0891
8.35	3.9037
8.27	3.1621
8.192	2.1527
8.115	1.6789
8.039	1.5347
7.965	1.5038
7.893	1.4832
7.821	1.5244
7.751	1.7201
7.682	1.7716
7.614	1.8334
7.548	2.0085
7.483	1.9982
7.418	2.1218
7.355	2.2866
7.293	2.3484
7.232	2.472
7.172	2.5544
7.113	2.678
7.055	2.7604
6.998	2.8222
6.942	2.9252
6.886	2.9458
6.832	3.0591
6.778	3.09
6.726	3.193
6.674	3.2342
6.623	3.2239
6.572	3.3372
6.523	3.3784
6.474	3.3887
6.426	3.4299
6.378	3.4505
6.332	3.4711
6.286	3.399
6.24	3.399
6.195	3.2136
6.151	3.1106
6.108	3.1518
6.065	3.1827
6.023	3.2239
5.981	3.4299
5.94	3.5741
5.899	3.7801
5.859	3.9964
5.82	4.1818
5.781	4.3054
5.743	4.4187
5.705	4.4702
5.667	4.635
5.63	4.6865
5.594	4.7277
5.558	4.8616
5.523	4.9131
5.487	5.0779
5.453	5.1191
5.419	5.2324
5.385	5.3148
5.352	5.4487
5.319	5.562
5.286	5.7371
5.254	5.8195
5.222	5.9637
5.191	6.0873
5.16	6.2109
5.129	6.4169
5.099	6.489
5.069	6.6538
5.04	6.8392
5.01	6.9216
4.981	7.1276
4.953	7.3336
4.925	7.4984
4.897	7.5602
4.869	7.7353
4.842	7.9104
4.815	7.9928
4.788	8.0649
4.762	8.2091
4.736	8.343
4.71	8.4769
4.684	8.6829
4.659	8.8168
4.634	8.9713
4.61	9.1464
4.585	9.2906
4.561	9.579
4.537	9.6614
4.513	9.8159
4.49	9.9601
4.467	10.2382
4.444	10.1867
4.421	10.3412
4.398	10.506
4.376	10.5884
4.354	10.7944
4.332	10.9901
4.311	11.0931
4.289	11.1549
4.268	11.2476
4.247	11.3918
4.226	11.4021
4.206	11.7214
4.185	11.7729
4.165	11.948
4.145	12.1128
4.126	12.2261
4.106	12.1849
4.086	12.4115
4.067	12.3703
4.048	12.6587
4.029	12.6587
4.011	12.6484
3.992	12.7926
3.974	12.9059
3.956	12.8544
3.938	12.9677
3.92	12.978
3.902	12.8647
3.884	12.9162
3.867	12.9162
3.85	12.9265
3.833	12.9574
3.816	12.8235
3.799	12.8441
3.782	12.8441
3.766	12.6793
3.75	12.6278
3.733	12.6278
3.717	12.5042
3.702	12.3909
3.686	12.2055
3.67	12.1025
3.655	12.1334
3.639	12.0819
3.624	11.7626
3.609	11.7214
3.594	11.6905
3.579	11.5566
3.564	11.33
3.549	11.1549
3.535	11.1549
3.521	10.8768
3.506	10.7532
3.492	10.5884
3.478	10.6296
3.464	10.403
3.45	10.1661
3.437	10.2073
3.423	9.9292
3.409	9.8468
3.396	9.6202
3.383	9.5584
3.37	9.6099
3.357	9.4451
3.344	9.3112
3.331	9.1258
3.318	9.0022
3.305	8.9713
3.293	8.9198
3.28	8.8168
3.268	8.6623
3.255	8.4872
3.243	8.3533
3.231	8.2503
3.219	8.2297
3.207	8.0546
3.195	8.0752
3.183	7.7971
3.172	7.7456
3.16	7.6941
3.149	7.7662
3.137	7.6014
3.126	7.5293
3.115	7.3954
3.103	7.313
3.092	7.3336
3.081	7.2512
3.07	7.1173
3.06	7.416
3.049	7.2306
3.038	7.2615
3.027	7.1997
3.017	7.004
3.006	7.1894
2.996	6.9216
2.986	6.9834
2.975	7.1173
2.965	6.9937
2.955	7.1894
2.945	7.0452
2.935	7.0349
2.925	7.2821
2.915	7.1688
2.905	6.9834
2.896	7.3027
2.886	7.4469
2.876	7.2615
2.867	7.3336
2.857	7.3027
2.848	7.6838
2.838	7.5396
2.829	7.6529
2.82	7.6529
2.811	7.4469
2.802	7.7971
2.793	8.0134
2.784	7.8898
2.775	8.3739
2.766	8.3739
2.757	8.652
2.748	8.858
2.74	9.8674
2.731	10.5266
2.722	11.4021
2.714	12.7617
2.705	14.3376
2.697	15.5427
2.688	16.2843
2.68	17.0568
2.672	17.5203
2.664	18.4988
2.655	18.9005
2.647	18.9623
2.639	19.4773
2.631	19.158
2.623	19.6318
2.615	19.4361
2.607	19.5906
2.599	19.7657
2.592	20.3734
2.584	19.6936
2.576	19.8687
2.569	19.9202
2.561	20.0129
2.553	19.9511
2.546	19.2816
2.538	20.3631
2.531	20.1468
2.524	20.2601
2.516	20.4455
2.509	20.3116
2.502	20.5897
2.48	19.7297
2.456	20.584
2.432	21.2127
2.408	21.4679
2.384	21.7951
2.36	22.3963
2.336	22.3392
2.312	22.711
2.288	22.628
2.264	22.7886
2.24	23.0337
2.216	23.2556
2.192	23.839
2.168	24.2764
2.144	24.6836
2.12	24.5235
2.096	24.3475
2.072	24.4972
2.048	24.693
2.024	24.7448
2	24.7261
1.976	24.5305
1.952	24.3832
1.928	23.8545
1.904	23.8934
1.88	25.6191
1.856	26.2631
1.832	26.4558
1.808	26.5983
1.784	26.7485
1.76	26.8312
1.736	26.9201
1.712	26.9811
1.688	27.0088
1.664	26.8616
1.64	26.7793
1.616	26.7244
1.592	26.6447
1.568	26.5105
1.544	26.3705
1.52	26.1847
1.496	26.0242
1.472	25.7653
1.448	25.5442
1.424	25.2639
1.4	25.2421
1.376	25.2752
1.352	25.0714
1.328	25.0595
1.304	24.8402
1.28	24.7444
1.256	24.628
1.232	24.5366
1.208	24.4182
1.184	24.2712
1.16	24.2044
1.136	24.0184
1.112	23.8145
1.088	23.634
1.064	23.449
1.04	23.406
1.016	23.4276
0.992	23.4929
0.968	23.627
0.944	23.8297
0.92	24.3054
0.896	24.577
0.872	24.6971
0.848	24.357
0.824	24.8507
0.8	24.777
0.776	24.6013
0.752	24.3127
0.728	23.8264
0.704	23.2427
0.68	22.592
0.656	22.0391
0.632	21.5122
0.608	20.9517
0.584	19.9458
0.56	18.4117
0.536	16.8688
0.512	15.785
0.488	15.2863
0.464	14.8832
0.44	14.1693
0.416	13.7397
