Name: Rhyolite
Type: Rock
Class: Igneous
Subclass: Felsic
Particle Size: Solid
Sample No.: AP-938-93
Owner: United States Geological Survey, L. C. Rowan
Wavelength Range: All
Origin: Iberian Pyrite Belt, Spain
Description: Rhyolite, white, chalky, alteredSample was Whole Rock Chips. Original ASTER Spectral Library name was usgs.perknic.rock.igneous.felsic.solid.rhy93.spectrum.txt
Measurement: Directional Hemispherical Reflectance
X Units: Wavelength (micrometers)
Y Units: Reflectance (percent)
wavelength	value
14.051	3.0797
13.79	2.5235
13.538	2.7089
13.295	2.5235
13.06	2.9458
12.834	3.1827
12.616	2.7913
12.404	3.0076
12.2	2.9458
12.002	3.5741
11.811	4.1921
11.626	4.6453
11.446	4.7483
11.272	4.9852
11.103	5.1397
10.939	5.1603
10.78	4.6453
10.625	4.3775
10.475	4.3775
10.329	4.6968
10.187	5.6341
10.049	6.9834
9.914	8.3018
9.783	7.5705
9.656	10.2279
9.532	10.8768
9.411	11.33
9.293	11.845
9.178	10.7017
9.065	8.9095
8.956	8.1782
8.849	9.5687
8.744	9.6305
8.642	8.8683
8.543	9.8777
8.445	10.712
8.35	11.3918
8.257	11.3506
8.166	10.7223
8.077	7.3851
7.99	4.6968
7.905	2.9355
7.821	1.9467
7.739	1.648
7.659	1.2875
7.581	1.2051
7.504	1.133
7.429	1.1227
7.355	1.1845
7.283	1.2051
7.212	1.3596
7.143	1.4729
7.074	1.5656
7.007	1.7716
6.942	1.8746
6.877	1.9776
6.814	2.0188
6.752	2.1115
6.691	2.1939
6.631	2.2351
6.572	2.266
6.514	2.5132
6.458	2.7604
6.402	2.9252
6.347	2.8016
6.293	2.6162
6.24	2.5338
6.188	2.4617
6.137	2.5029
6.086	2.6883
6.037	2.7398
5.988	2.8737
5.94	2.9561
5.893	3.0797
5.846	3.5741
5.8	3.8213
5.755	3.9037
5.711	4.0582
5.667	4.0891
5.624	3.9037
5.582	3.8007
5.54	3.9346
5.499	4.3569
5.459	4.6247
5.419	4.7586
5.379	4.429
5.341	4.2333
5.302	4.4187
5.265	4.635
5.227	5.2324
5.191	5.7474
5.155	5.9122
5.119	6.0564
5.084	6.2006
5.049	6.18
5.015	6.2624
4.981	6.5199
4.948	7.622
4.915	8.1679
4.883	9.9292
4.851	11.4124
4.819	12.36
4.788	12.5042
4.758	12.9883
4.727	13.5857
4.697	13.9874
4.668	14.1522
4.638	15.1204
4.61	16.3976
4.581	17.0259
4.553	17.4276
4.525	17.0877
4.498	16.2328
4.47	16.1298
4.444	16.8817
4.417	17.5718
4.391	18.4782
4.365	19.8069
4.34	20.6515
4.314	21.0223
4.289	20.9811
4.265	21.321
4.24	21.6506
4.216	21.8669
4.192	22.3201
4.169	22.6394
4.145	22.9278
4.122	23.3295
4.099	23.5046
4.077	23.9063
4.055	24.1123
4.032	24.0402
4.011	24.0402
3.989	24.1844
3.968	24.5037
3.947	24.7612
3.926	25.0187
3.905	25.1217
3.884	25.1423
3.864	24.9569
3.844	24.9775
3.824	25.0702
3.805	25.0908
3.785	25.029
3.766	24.8024
3.747	24.4213
3.728	24.2153
3.709	24.2256
3.691	24.0402
3.673	24.2256
3.655	24.1947
3.637	24.0196
3.619	23.6591
3.601	23.2883
3.584	23.0102
3.567	22.8042
3.549	22.3819
3.533	22.1759
3.516	21.6918
3.499	21.3828
3.483	20.8987
3.466	20.6618
3.45	20.3528
3.434	19.8275
3.418	19.364
3.403	19.1065
3.387	18.7975
3.372	18.643
3.357	18.3958
3.341	18.0147
3.326	17.7572
3.312	17.3452
3.297	16.9538
3.282	16.7169
3.268	16.377
3.253	16.0474
3.239	15.5221
3.225	15.1513
3.211	14.8114
3.197	14.5024
3.183	14.008
3.17	13.6372
3.156	13.2664
3.143	12.9677
3.13	12.4321
3.117	12.2158
3.103	11.8656
3.091	11.7523
3.078	11.5669
3.065	11.4948
3.052	11.4021
3.04	11.1755
3.027	11.1034
3.015	11.0107
3.003	10.8871
2.991	10.7223
2.979	10.6708
2.967	10.4545
2.955	10.4442
2.943	10.197
2.932	10.3103
2.92	10.2485
2.909	10.197
2.897	10.4648
2.886	10.3206
2.875	10.7326
2.864	10.4854
2.853	10.4339
2.842	10.6296
2.831	10.3103
2.82	9.8571
2.809	9.3112
2.799	8.1988
2.788	7.6838
2.778	6.4272
2.767	6.3139
2.757	5.665
2.747	6.6641
2.737	7.004
2.727	7.4675
2.717	8.2503
2.707	7.1276
2.697	8.7138
2.687	16.274
2.677	22.2583
2.668	26.4813
2.658	29.2005
2.649	31.3017
2.639	32.136
2.63	33.3102
2.62	34.2372
2.611	35.1539
2.602	35.432
2.593	35.329
2.584	36.3075
2.575	36.6886
2.566	37.8113
2.557	37.7083
2.548	37.7701
2.54	38.1512
2.531	38.8001
2.522	38.7795
2.514	39.1194
2.505	39.2018
2.489	39.8417
2.461	41.2417
2.433	44.1417
2.405	47.2417
2.377	48.9417
2.349	50.0417
2.321	52.9417
2.293	56.1417
2.265	59.7417
2.237	56.4417
2.209	51.1417
2.181	55.9417
2.153	61.1417
2.125	66.8417
2.097	69.7417
2.069	69.7417
2.041	68.4417
2.013	65.5417
1.985	61.3417
1.957	57.2417
1.929	53.8417
1.901	52.3417
1.873	71.8417
1.845	80.7417
1.817	81.7417
1.789	82.1417
1.761	83.4417
1.733	84.4417
1.705	84.9417
1.677	85.4417
1.649	85.4417
1.621	85.4417
1.593	84.6417
1.565	84.6417
1.537	83.1417
1.509	80.7417
1.481	77.9417
1.453	75.1417
1.425	69.4417
1.397	64.7417
1.369	79.3417
1.341	83.7417
1.313	84.9417
1.285	85.6417
1.257	84.0417
1.229	83.4417
1.201	82.3417
1.173	82.1417
1.145	81.1417
1.117	80.2417
1.089	80.2417
1.061	79.9417
1.033	80.0417
1.005	78.9417
0.977	78.2417
0.949	77.3417
0.921	76.8417
0.893	76.0417
0.865	75.2417
0.837	74.9417
0.809	74.5417
0.799	73.9417
0.792	74.0417
0.785	73.5417
0.778	73.4417
0.771	73.2417
0.764	72.9417
0.757	72.2417
0.75	71.1417
0.743	71.0417
0.736	70.8417
0.729	70.5417
0.722	69.5417
0.715	68.5417
0.708	66.8417
0.701	66.0417
0.694	65.6417
0.687	64.1417
0.68	63.3417
0.673	62.5417
0.666	61.6417
0.659	60.7417
0.652	59.4417
0.645	58.5417
0.638	57.0417
0.631	55.7417
0.624	54.7417
0.617	54.0417
0.61	52.3417
0.603	51.4417
0.596	50.5417
0.589	49.7417
0.582	49.0417
0.575	47.9417
0.568	47.2417
0.561	49.2417
0.554	47.3417
0.547	45.8417
0.54	44.8417
0.533	44.0417
0.526	42.8417
0.519	41.5417
0.512	40.7417
0.505	39.6417
0.498	38.4417
0.491	37.6417
0.484	36.4417
0.477	35.7417
0.47	35.4417
0.463	31.8417
0.456	30.3417
0.449	29.7417
0.442	28.6417
0.435	28.4417
0.428	27.7417
0.421	26.8417
0.414	26.0417
0.407	25.7417
