Name: Diabase
Type: rock
Class: Igneous
Subclass: Mafic
Particle Size: Fine
Sample No.: Diabase_H1
Owner: JHU
Wavelength Range: All
Origin: from St. Peters, Pennsylvania, via Ward's Scientific (Cat. No. W-127)
Description: The sample from which the powder was derived was a medium-grained dark gray rock consisting of feldspar and pyroxene.Particle size was 0-75 micrometers. Original ASTER Spectral Library name was jhu.becknic.rock.igneous.mafic.fine.diabas1.spectrum.txt
Measurement: Directional (10 degree) hemispherical reflectance
X Units: Wavelength (micrometers)
Y Units: Reflectance (percent)
wavelength	value
14.011	0.7743
13.715	4.0668
13.43	1.5244
13.158	2.5524
12.896	2.7052
12.644	3.0764
12.402	4.5005
12.169	5.3964
11.945	4.8192
11.729	4.2735
11.52	4.0875
11.319	4.133
11.125	3.48
10.937	3.2057
10.755	3.2763
10.58	3.2536
10.41	3.0928
10.245	2.7949
10.086	2.6675
9.9313	2.6018
9.7814	2.7119
9.636	2.8453
9.4948	2.9208
9.3577	3.2447
9.2245	3.4176
9.095	3.6098
8.9691	3.3216
8.8467	2.9091
8.7275	2.4857
8.6116	2.2127
8.4986	2.3637
8.3886	2.4504
8.2814	2.673
8.1769	2.5308
8.075	2.4288
7.9756	2.6428
7.8786	3.2142
7.784	4.0099
7.6916	5.0416
7.6014	6.0082
7.5133	6.993
7.4272	7.9856
7.343	9.0215
7.2607	9.9129
7.1803	10.81
7.1016	11.597
7.0246	12.28
6.9493	12.862
6.8755	13.275
6.8034	13.419
6.7327	13.407
6.6634	13.251
6.5956	13.378
6.5292	13.347
6.464	13.673
6.4002	13.999
6.3376	14.078
6.2762	13.809
6.216	13.76
6.157	14.024
6.099	14.452
6.0421	14.745
5.9863	15.373
5.9315	16.418
5.8777	17.75
5.8249	18.787
5.773	19.769
5.722	20.486
5.6719	20.824
5.6227	20.88
5.5744	21.299
5.5268	22.001
5.4801	22.356
5.4341	22.446
5.3889	22.087
5.3445	21.809
5.3008	21.825
5.2578	22.089
5.2154	22.722
5.1738	23.104
5.1328	23.637
5.0925	24.035
5.0528	24.613
5.0137	25.676
4.9752	26.688
4.9373	27.694
4.9	28.67
4.8632	29.592
4.827	30.527
4.7913	31.455
4.7561	32.221
4.7215	33.262
4.6873	34.249
4.6536	35.288
4.6205	36.278
4.5877	37.131
4.5555	37.927
4.5237	38.492
4.4923	38.785
4.4614	39.131
4.4309	39.448
4.4008	39.708
4.3711	40.016
4.3418	40.428
4.3129	40.674
4.2844	41.036
4.2563	41.159
4.2285	41.483
4.2011	41.517
4.174	41.646
4.1473	41.778
4.1209	41.859
4.0949	41.957
4.0692	42.112
4.0438	42.224
4.0187	42.242
3.994	42.357
3.9695	42.371
3.9453	42.491
3.9214	42.527
3.8979	42.618
3.8746	42.632
3.8515	42.638
3.8288	42.725
3.8063	42.779
3.7841	42.753
3.7621	42.783
3.7404	42.723
3.7189	42.681
3.6977	42.705
3.6767	42.615
3.656	42.603
3.6355	42.552
3.6152	42.58
3.5951	42.512
3.5753	42.568
3.5557	42.448
3.5363	42.357
3.5171	42.249
3.4981	42.055
3.4793	42.006
3.4607	42.042
3.4423	41.925
3.4241	41.618
3.4061	41.481
3.3883	41.392
3.3707	41.213
3.3533	41.133
3.336	40.98
3.3189	40.817
3.302	40.567
3.2853	40.372
3.2687	40.096
3.2523	39.801
3.2361	39.65
3.22	39.282
3.2041	38.895
3.1883	38.578
3.1727	38.169
3.1572	37.9
3.1419	37.523
3.1268	37.053
3.1117	36.781
3.0969	36.362
3.0821	36.114
3.0675	35.756
3.0531	35.454
3.0388	35.225
3.0246	34.92
3.0105	34.432
2.9966	34.103
2.9828	33.577
2.9692	33.307
2.9556	32.984
2.9422	32.745
2.9289	32.648
2.9157	32.488
2.9027	32.303
2.8897	32.292
2.8769	32.338
2.8642	32.201
2.8516	32.088
2.8391	32.21
2.8267	32.12
2.8144	32.314
2.8022	32.458
2.7902	32.953
2.7782	33.061
2.7664	33.328
2.7546	33.624
2.7429	33.048
2.7314	32.338
2.7199	33.058
2.7085	40.532
2.6973	41.648
2.6861	42.942
2.675	43.805
2.664	43.903
2.6531	44.303
2.6423	44.375
2.6315	44.022
2.6209	43.746
2.6103	43.972
2.5999	43.85
2.5895	43.699
2.5792	43.608
2.569	43.317
2.5588	43.311
2.5487	43.132
2.5388	43.121
2.5289	42.882
2.519	42.6
2.5093	42.619
2.4996	42.395
2.49	42.289
2.4805	42.133
2.471	41.854
2.4616	41.671
2.4523	41.55
2.4431	41.176
2.4339	41.279
2.4248	41.053
2.4157	40.925
2.4068	40.867
2.3979	40.59
2.389	40.475
2.3802	40.197
2.3715	40.154
2.3629	40.143
2.3543	39.876
2.3458	39.595
2.3373	39.536
2.3289	39.315
2.3206	39.306
2.3123	39.195
2.3041	39.072
2.2959	38.927
2.2878	38.882
2.2798	38.878
2.2718	38.703
2.2638	38.679
2.2559	38.526
2.2481	38.157
2.2403	38.235
2.2326	38.116
2.225	37.993
2.2173	37.881
2.2098	37.747
2.2023	37.621
2.1948	37.604
2.1874	37.455
2.18	37.347
2.1727	37.208
2.1655	37.082
2.1583	36.903
2.1511	36.717
2.144	36.724
2.1369	36.615
2.1299	36.616
2.1229	36.458
2.116	36.504
2.1091	36.204
2.1023	36.192
2.0955	35.989
2.0887	35.967
2.082	35.917
2.06	35.516
2.028	34.929
1.996	34.261
1.964	33.873
1.932	33.547
1.9	33.898
1.868	33.898
1.836	34.399
1.804	34.493
1.772	34.611
1.74	35.201
1.708	35.741
1.676	36.346
1.644	36.834
1.612	37.12
1.58	37.403
1.548	38.054
1.516	38.166
1.484	37.92
1.452	38.297
1.42	38.057
1.388	37.842
1.356	38.063
1.324	37.16
1.292	37.092
1.26	36.446
1.228	36.162
1.196	35.608
1.164	35.111
1.132	34.156
1.1	32.426
1.068	30.672
1.036	28.67
1.004	27.358
0.972	25.924
0.94	25.317
0.908	25.79
0.876	27.096
0.844	29.21
0.812	31.841
0.795	33.019
0.787	33.367
0.779	33.417
0.771	33.584
0.763	33.855
0.755	33.671
0.747	33.421
0.739	33.782
0.731	33.663
0.723	33.708
0.715	33.685
0.707	33.326
0.699	33.304
0.691	33.509
0.683	33.183
0.675	33.501
0.667	32.975
0.659	32.905
0.651	32.916
0.643	33.004
0.635	32.636
0.627	32.856
0.619	32.616
0.611	32.286
0.603	32.334
0.595	32.391
0.587	32.074
0.579	31.937
0.571	31.758
0.563	31.933
0.555	31.659
0.547	31.48
0.539	31.253
0.531	30.968
0.523	30.906
0.515	30.648
0.507	29.816
0.499	29.891
0.491	29.252
0.483	29.207
0.475	28.697
0.467	28.231
0.459	28.755
0.451	28.019
0.443	27.822
0.435	27.785
0.427	26.92
0.419	26.342
0.411	25.941
0.403	25.193
