Name: Basalt
Type: rock
Class: Igneous
Subclass: Mafic
Particle Size: Fine
Sample No.: Basalt_H10
Owner: JHU
Wavelength Range: All
Origin: from Kilauea, via Rosalind Helz, USGS, Reston, VA (Cat. No. KI81-1-273.6)
Description: The sample from which the powder was derived is light gray porphyritic rock with green olivine phenocrysts 1-2 mm in size making up about 3% of the rock; set in a gray, very fine-grained groundmass.Particle size was 0-75 micrometers. Original ASTER Spectral Library name was jhu.becknic.rock.igneous.mafic.fine.basal10.spectrum.txt
Measurement: Directional (10 degree) hemispherical reflectance
X Units: Wavelength (micrometers)
Y Units: Reflectance (percent)
wavelength	value
14.011	1.446
13.715	2.1379
13.43	2.1375
13.158	2.2763
12.896	2.6166
12.644	2.8572
12.402	3.1657
12.169	3.4164
11.945	3.0384
11.729	2.9941
11.52	3.1802
11.319	3.4122
11.125	3.4859
10.937	3.5412
10.755	3.491
10.58	3.3197
10.41	3.0543
10.245	2.9187
10.086	2.7447
9.9313	2.6412
9.7814	2.6083
9.636	2.5263
9.4948	2.3972
9.3577	2.441
9.2245	2.385
9.095	2.2638
8.9691	2.2249
8.8467	1.8743
8.7275	1.5197
8.6116	1.4128
8.4986	1.3265
8.3886	1.2556
8.2814	1.0788
8.1769	0.9795
8.075	1.2232
7.9756	1.8553
7.8786	2.7018
7.784	3.7927
7.6916	4.9732
7.6014	6.2285
7.5133	7.4545
7.4272	8.7579
7.343	9.8934
7.2607	10.828
7.1803	11.706
7.1016	12.608
7.0246	13.458
6.9493	14.286
6.8755	14.891
6.8034	15.278
6.7327	15.427
6.6634	15.34
6.5956	15.42
6.5292	15.424
6.464	15.636
6.4002	15.989
6.3376	16.484
6.2762	16.88
6.216	17.209
6.157	17.519
6.099	17.516
6.0421	17.39
5.9863	17.78
5.9315	18.587
5.8777	19.336
5.8249	20.08
5.773	20.842
5.722	21.196
5.6719	21.146
5.6227	21.542
5.5744	22.295
5.5268	22.771
5.4801	23.005
5.4341	23.337
5.3889	23.742
5.3445	24.114
5.3008	24.4
5.2578	24.825
5.2154	25.509
5.1738	26.216
5.1328	26.893
5.0925	27.52
5.0528	28.411
5.0137	29.591
4.9752	30.711
4.9373	31.91
4.9	33.188
4.8632	34.376
4.827	35.507
4.7913	36.474
4.7561	37.478
4.7215	38.529
4.6873	39.637
4.6536	40.723
4.6205	41.791
4.5877	42.817
4.5555	43.714
4.5237	44.541
4.4923	45.209
4.4614	45.7
4.4309	46.145
4.4008	46.559
4.3711	46.957
4.3418	47.296
4.3129	47.636
4.2844	47.904
4.2563	48.214
4.2285	48.432
4.2011	48.64
4.174	48.794
4.1473	48.958
4.1209	49.077
4.0949	49.192
4.0692	49.24
4.0438	49.279
4.0187	49.308
3.994	49.419
3.9695	49.435
3.9453	49.463
3.9214	49.459
3.8979	49.466
3.8746	49.481
3.8515	49.47
3.8288	49.459
3.8063	49.398
3.7841	49.402
3.7621	49.312
3.7404	49.286
3.7189	49.188
3.6977	49.134
3.6767	49.081
3.656	48.947
3.6355	48.833
3.6152	48.752
3.5951	48.642
3.5753	48.529
3.5557	48.42
3.5363	48.242
3.5171	48.09
3.4981	47.762
3.4793	47.742
3.4607	47.719
3.4423	47.437
3.4241	47.191
3.4061	46.965
3.3883	46.987
3.3707	46.806
3.3533	46.847
3.336	46.797
3.3189	46.625
3.302	46.503
3.2853	46.309
3.2687	46.103
3.2523	45.943
3.2361	45.811
3.22	45.554
3.204	45.386
3.1883	45.163
3.1727	44.976
3.1572	44.848
3.1419	44.608
3.1268	44.429
3.1117	44.294
3.0969	44.089
3.0821	44.006
3.0675	43.839
3.0531	43.607
3.0388	43.462
3.0246	43.373
3.0105	43.232
2.9966	43.008
2.9828	42.834
2.9692	42.751
2.9556	42.575
2.9422	42.4
2.9289	42.367
2.9157	42.296
2.9027	42.246
2.8897	42.107
2.8769	42.043
2.8642	41.962
2.8516	41.868
2.8391	41.802
2.8267	41.899
2.8144	41.893
2.8022	42.008
2.7902	42.284
2.7782	42.551
2.7664	42.93
2.7546	43.403
2.7429	43.998
2.7314	44.388
2.7199	44.688
2.7085	45.001
2.6973	45
2.6861	45.006
2.675	44.87
2.664	44.772
2.6531	44.738
2.6423	44.488
2.6315	44.383
2.6209	44.159
2.6103	43.932
2.5999	43.77
2.5895	43.524
2.5792	43.312
2.569	43.079
2.5588	42.881
2.5487	42.621
2.5388	42.402
2.5289	42.195
2.519	42.028
2.5093	41.702
2.4996	41.534
2.49	41.342
2.4805	41.14
2.471	40.962
2.4616	40.709
2.4523	40.492
2.4431	40.291
2.4339	40.138
2.4248	39.95
2.4157	39.783
2.4068	39.673
2.3979	39.536
2.389	39.367
2.3802	39.118
2.3715	39.092
2.3629	38.915
2.3543	38.8
2.3458	38.821
2.3373	38.616
2.3289	38.495
2.3206	38.375
2.3123	38.352
2.3041	38.215
2.2959	38.111
2.2878	38.182
2.2798	38.088
2.2718	37.96
2.2638	37.925
2.2559	37.782
2.2481	37.808
2.2403	37.749
2.2326	37.772
2.225	37.671
2.2173	37.662
2.2098	37.59
2.2023	37.754
2.1948	37.648
2.1874	37.646
2.18	37.728
2.1727	37.579
2.1655	37.559
2.1583	37.667
2.1511	37.543
2.144	37.568
2.1369	37.631
2.1299	37.685
2.1229	37.666
2.116	37.583
2.1091	37.599
2.1023	37.635
2.0955	37.682
2.0887	37.603
2.082	37.64
2.06	37.581
2.028	37.298
1.996	36.929
1.964	36.557
1.932	36.269
1.9	36.475
1.868	36.293
1.836	36.131
1.804	36.006
1.772	35.59
1.74	35.896
1.708	35.917
1.676	35.565
1.644	35.589
1.612	35.021
1.58	34.897
1.548	34.626
1.516	33.872
1.484	33.052
1.452	32.672
1.42	31.756
1.388	30.906
1.356	30.043
1.324	28.886
1.292	28.411
1.26	27.439
1.228	26.915
1.196	25.902
1.164	25.179
1.132	24.731
1.1	23.596
1.068	22.676
1.036	22.065
1.004	22.121
0.972	22.496
0.94	23.117
0.908	24.197
0.876	24.795
0.844	24.995
0.812	25.286
0.795	25.635
0.787	25.388
0.779	25.512
0.771	25.626
0.763	25.545
0.755	25.298
0.747	25.358
0.739	25.557
0.731	25.482
0.723	25.438
0.715	25.268
0.707	25.187
0.699	24.483
0.691	25.341
0.683	24.729
0.675	24.902
0.667	24.685
0.659	24.504
0.651	24.534
0.643	24.305
0.635	24.025
0.627	24.097
0.619	23.734
0.611	23.616
0.603	23.504
0.595	23.109
0.587	23.162
0.579	22.719
0.571	22.7
0.563	22.5
0.555	22.465
0.547	22.11
0.539	21.712
0.531	21.281
0.523	21.195
0.515	20.972
0.507	20.361
0.499	20.204
0.491	19.834
0.483	19.519
0.475	18.825
0.467	18.74
0.459	18.465
0.451	18.267
0.443	17.891
0.435	17.917
0.427	17.525
0.419	17.086
0.411	16.908
0.403	16.561
