Name: Rhyolite
Type: Rock
Class: Igneous
Subclass: Felsic
Particle Size: Solid
Sample No.: AP-939-214
Owner: United States Geological Survey, L. C. Rowan
Wavelength Range: All
Origin: Iberian Pyrite Belt, Spain
Description: Rhyolite, red, unalteredSample was Whole Rock Chips. Original ASTER Spectral Library name was usgs.perknic.rock.igneous.felsic.solid.rhy214.spectrum.txt
Measurement: Directional Hemispherical Reflectance
X Units: Wavelength (micrometers)
Y Units: Reflectance (percent)
wavelength	value
14.051	4.1097
13.79	4.6144
13.538	4.3054
13.295	4.5938
13.06	5.2839
12.834	6.2315
12.616	4.944
12.404	4.7174
12.2	2.7295
12.002	3.4608
11.811	3.9037
11.626	4.2848
11.446	4.841
11.272	5.0985
11.103	5.5414
10.939	6.0564
10.78	6.489
10.625	7.2512
10.475	8.1782
10.329	9.6305
10.187	11.6184
10.049	13.7711
9.914	15.6045
9.783	16.3049
9.656	18.1177
9.532	19.0035
9.411	20.1983
9.293	22.5261
9.178	22.6497
9.065	21.7021
8.956	20.3425
8.849	20.291
8.744	20.2498
8.642	18.0971
8.543	19.8687
8.445	19.9614
8.35	18.6842
8.257	16.8817
8.166	14.0389
8.077	7.8898
7.99	4.5217
7.905	2.678
7.821	1.7201
7.739	1.5759
7.659	1.2772
7.581	1.133
7.504	1.03
7.429	0.9064
7.355	0.9476
7.283	0.9373
7.212	0.9579
7.143	1.0094
7.074	0.9579
7.007	1.03
6.942	1.0506
6.877	1.0918
6.814	1.1021
6.752	1.0403
6.691	1.1021
6.631	1.1845
6.572	1.2051
6.514	1.1433
6.458	1.236
6.402	1.236
6.347	1.2463
6.293	1.2772
6.24	1.3081
6.188	1.2669
6.137	1.3081
6.086	1.3699
6.037	1.3905
5.988	1.339
5.94	1.4008
5.893	1.4317
5.846	1.4729
5.8	1.4729
5.755	1.4935
5.711	1.5965
5.667	1.5862
5.624	1.5965
5.582	1.5553
5.54	1.5759
5.499	1.6068
5.459	1.6686
5.419	1.7304
5.379	1.6171
5.341	1.6377
5.302	1.6583
5.265	1.6686
5.227	1.8128
5.191	1.8128
5.155	1.8849
5.119	1.854
5.084	1.9261
5.049	1.8849
5.015	1.9158
4.981	1.8952
4.948	2.0394
4.915	2.1012
4.883	2.1939
4.851	2.4617
4.819	2.4926
4.788	2.4926
4.758	2.5235
4.727	2.6059
4.697	2.6368
4.668	2.678
4.638	2.6677
4.61	2.7501
4.581	2.9561
4.553	2.987
4.525	3.0797
4.498	3.0385
4.47	3.0076
4.444	3.1003
4.417	3.2136
4.391	3.4093
4.365	3.6565
4.34	3.7492
4.314	3.8316
4.289	3.9758
4.265	4.0067
4.24	4.0479
4.216	4.2024
4.192	4.1818
4.169	4.326
4.145	4.3981
4.122	4.5011
4.099	4.5114
4.077	4.5938
4.055	4.5423
4.032	4.6041
4.011	4.6762
3.989	4.6865
3.968	4.6453
3.947	4.7895
3.926	4.8719
3.905	4.8616
3.884	4.7586
3.864	4.7586
3.844	4.9543
3.824	4.9131
3.805	4.8101
3.785	4.8822
3.766	4.9337
3.747	4.8925
3.728	4.7483
3.709	4.7998
3.691	4.8822
3.673	4.7071
3.655	4.738
3.637	4.8513
3.619	4.6556
3.601	4.6144
3.584	4.5938
3.567	4.6041
3.549	4.5011
3.533	4.4599
3.516	4.4702
3.499	4.12
3.483	4.1921
3.466	4.0994
3.45	4.12
3.434	4.017
3.418	4.0067
3.403	3.8522
3.387	3.914
3.372	3.8522
3.357	3.8625
3.341	3.605
3.326	3.708
3.312	3.708
3.297	3.6256
3.282	3.6256
3.268	3.502
3.253	3.399
3.239	3.4299
3.225	3.3372
3.211	3.4917
3.197	3.2239
3.183	3.2239
3.17	3.3475
3.156	3.1724
3.143	3.1518
3.13	3.1518
3.117	3.1209
3.103	3.1518
3.091	3.1518
3.078	3.0591
3.065	3.0179
3.052	3.0282
3.04	3.0385
3.027	3.09
3.015	2.9561
3.003	3.0591
2.991	3.2342
2.979	2.9767
2.967	3.193
2.955	3.0797
2.943	3.1827
2.932	3.2033
2.92	3.1003
2.909	3.1415
2.897	3.1518
2.886	3.2651
2.875	3.2239
2.864	3.4711
2.853	3.5741
2.842	3.2754
2.831	3.3887
2.82	3.2754
2.809	3.0797
2.799	3.2033
2.788	2.8531
2.778	2.8943
2.767	2.7398
2.757	2.8428
2.747	3.3372
2.737	3.1312
2.727	3.708
2.717	3.7698
2.707	3.6771
2.697	4.0994
2.687	5.8607
2.677	7.0864
2.668	8.2503
2.658	8.3636
2.649	9.0331
2.639	8.8374
2.63	8.961
2.62	8.9816
2.611	9.0949
2.602	9.6099
2.593	9.2597
2.584	9.579
2.575	9.3627
2.566	9.7644
2.557	9.6408
2.548	9.6923
2.54	10.0116
2.531	9.9601
2.522	9.8468
2.514	10.1146
2.505	9.888
2.489	9.7953
2.461	9.3953
2.433	9.4953
2.405	9.8953
2.377	10.0953
2.349	10.0953
2.321	10.1953
2.293	10.6953
2.265	11.4953
2.237	10.9953
2.209	10.4953
2.181	11.5953
2.153	12.2953
2.125	12.3953
2.097	13.2953
2.069	13.3953
2.041	13.3953
2.013	13.3953
1.985	13.3953
1.957	13.2953
1.929	13.2953
1.901	13.1953
1.873	14.5953
1.845	14.9953
1.817	15.0953
1.789	15.1953
1.761	15.5953
1.733	16.0953
1.705	15.9953
1.677	16.1953
1.649	16.5953
1.621	16.6953
1.593	16.7953
1.565	17.2953
1.537	17.1953
1.509	17.7953
1.481	17.7953
1.453	18.0953
1.425	17.5953
1.397	17.3953
1.369	18.4953
1.341	19.3953
1.313	19.5953
1.285	20.0953
1.257	19.8953
1.229	19.9953
1.201	19.8953
1.173	20.2953
1.145	20.6953
1.117	20.8953
1.089	21.0953
1.061	21.5953
1.033	22.0953
1.005	22.3953
0.977	22.3953
0.949	22.6953
0.921	22.6953
0.893	22.8953
0.865	23.1953
0.837	23.4953
0.809	24.2953
0.799	23.9953
0.792	24.1953
0.785	24.3953
0.778	24.1953
0.771	24.2953
0.764	24.3953
0.757	24.5953
0.75	24.2953
0.743	24.5953
0.736	24.5953
0.729	24.3953
0.722	24.4953
0.715	24.4953
0.708	24.2953
0.701	24.1953
0.694	23.9953
0.687	23.9953
0.68	23.9953
0.673	24.1953
0.666	24.2953
0.659	23.9953
0.652	23.7953
0.645	24.2953
0.638	23.7953
0.631	23.7953
0.624	23.9953
0.617	23.8953
0.61	23.4953
0.603	23.3953
0.596	23.0953
0.589	22.2953
0.582	21.6953
0.575	20.6953
0.568	19.8953
0.561	19.2953
0.554	18.0953
0.547	17.1953
0.54	16.6953
0.533	16.1953
0.526	15.8953
0.519	15.5953
0.512	15.3953
0.505	15.1953
0.498	14.7953
0.491	14.7953
0.484	14.4953
0.477	14.7953
0.47	14.8953
0.463	15.4953
0.456	15.0953
0.449	15.0953
0.442	15.0953
0.435	14.7953
0.428	14.7953
0.421	14.8953
0.414	14.7953
0.407	14.8953
