Name: Green Slate
Type: rock
Class: Metamorphic
Subclass: Slate
Particle Size: Coarse
Sample No.: slate2
Owner: JHU
Wavelength Range: All
Origin: Sample No. 461, The Hunt and Salisbury Collection at the U.S.Geological Survey, Denver, Co.
Description: This is a medium-grained sample dissected by thin veins.  Microscopically it consists of about equal amounts of actinolite and recrystallized albite lathes.  The groundmass also consists of some chlorite, and carbonate, which is especially prominent in the veins, along with scattered pyrite.  Modes were 59.3% amphibole, 25.7% albite, 10.8% chlorite, 3% calcite and 1% pyrite.Particle size was 500-1500 Micrometer. Original ASTER Spectral Library name was jhu.becknic.rock.metamorphic.slate.coarse.slate2.spectrum.txt
Measurement: Directional (10 Degree) Hemispherical Reflectance
X Units: Wavelength (micrometers)
Y Units: Reflectance (percent)
wavelength	value
14.0112	2.3043
13.7147	2.3856
13.4304	2.5455
13.1577	2.6034
12.8959	2.0317
12.6443	2.4447
12.4023	2.4536
12.1694	2.9086
11.945	3.0768
11.7289	3.2562
11.5203	3.5915
11.3191	4.1116
11.1248	4.4447
10.937	4.5636
10.7555	4.8988
10.5799	5.7647
10.4099	6.5365
10.2454	7.1634
10.0859	7.716
9.9313	7.5196
9.7814	6.642
9.636	7.1667
9.4948	6.4949
9.3577	5.6644
9.2245	5.0452
9.095	4.1619
8.9691	4.2116
8.8467	4.5768
8.7275	4.8876
8.6116	4.4528
8.4986	4.2327
8.3886	4.2812
8.2814	3.9112
8.1769	3.0814
8.075	2.4079
7.9756	2.0947
7.8786	1.8861
7.784	1.805
7.6916	1.8461
7.6014	1.7226
7.5133	1.8095
7.4272	1.7318
7.343	1.8257
7.2607	1.8602
7.1803	1.9315
7.1016	2.1081
7.0246	2.2651
6.9493	2.237
6.8755	2.2282
6.8034	2.2098
6.7327	2.2691
6.6634	2.329
6.5956	2.3237
6.5292	2.2711
6.464	2.276
6.4002	2.1444
6.3376	2.0057
6.2762	1.9607
6.216	1.8899
6.157	1.964
6.099	2.0284
6.0421	2.0794
5.9863	2.0951
5.9315	2.0999
5.8777	2.1919
5.8249	2.2368
5.773	2.2925
5.722	2.3105
5.6719	2.2727
5.6227	2.3718
5.5744	2.416
5.5268	2.5371
5.4801	2.6651
5.4341	2.7773
5.3889	2.8215
5.3445	2.895
5.3008	2.985
5.2578	2.9711
5.2154	3.1558
5.1738	3.2321
5.1328	3.2924
5.0925	3.4264
5.0528	3.5216
5.0137	3.6571
4.9752	3.792
4.9373	4.0143
4.9	4.1707
4.8632	4.4243
4.827	4.743
4.7913	5.0115
4.7561	5.4111
4.7215	6.0395
4.6873	6.6059
4.6536	7.1473
4.6205	7.7094
4.5877	8.5692
4.5555	9.5447
4.5237	10.3232
4.4923	11.0403
4.4614	11.7514
4.4309	12.5639
4.4008	13.3503
4.3711	14.0016
4.3418	14.6478
4.3129	15.3147
4.2844	15.8142
4.2563	16.3391
4.2285	16.8473
4.2011	17.3729
4.174	17.6789
4.1473	18.0651
4.1209	18.3774
4.0949	18.6829
4.0692	18.7654
4.0438	18.7329
4.0187	18.0769
3.994	16.491
3.9695	16.1687
3.9453	17.7268
3.9214	18.5159
3.8979	18.7711
3.8746	18.8363
3.8515	18.8808
3.8288	19.209
3.8063	19.6224
3.7841	19.9732
3.7621	19.8478
3.7404	19.6887
3.7189	19.5325
3.6977	19.3241
3.6767	19.2697
3.656	18.97
3.6355	18.7166
3.6152	18.3857
3.5951	17.9266
3.5753	17.4349
3.5557	16.9978
3.5363	16.5289
3.5171	15.6235
3.4981	14.8595
3.4793	14.1738
3.4607	14.2559
3.4423	13.8535
3.4241	13.3487
3.4061	12.9127
3.3883	12.4294
3.3707	11.8918
3.3533	11.2714
3.336	11.1331
3.3189	10.7274
3.302	10.2445
3.2853	9.7878
3.2687	9.3186
3.2523	8.7343
3.2361	8.2774
3.22	7.5962
3.204	6.9638
3.1883	6.5049
3.1727	6.113
3.1572	5.6656
3.1419	5.278
3.1268	4.9404
3.1117	4.623
3.0969	4.3574
3.0821	4.2018
3.0675	4.0538
3.0531	3.9568
3.0388	3.8018
3.0246	3.6941
3.0105	3.653
2.9966	3.5563
2.9828	3.4771
2.9692	3.4176
2.9556	3.3673
2.9422	3.395
2.9289	3.4599
2.9157	3.386
2.9027	3.4537
2.8897	3.4622
2.8769	3.5434
2.8642	3.4649
2.8516	3.5202
2.8391	3.6083
2.8267	3.5281
2.8144	3.6078
2.8022	3.7072
2.7902	4.0123
2.7782	4.0415
2.7664	4.1018
2.7546	4.0279
2.7429	3.981
2.7314	4.1858
2.7199	5.033
2.7085	8.1572
2.6973	12.833
2.6861	19.0305
2.675	21.7433
2.664	22.5296
2.6531	23.2281
2.6423	23.6827
2.6315	23.8829
2.6209	24.2617
2.6103	24.5196
2.5999	24.6772
2.5895	24.7565
2.5792	24.8117
2.569	24.9325
2.5588	25.1852
2.5487	25.284
2.5388	25.4316
2.5289	25.3403
2.519	25.4601
2.5093	25.5625
2.4996	25.8079
2.49	26.3078
2.4805	26.7369
2.471	27.338
2.4616	28.1407
2.4523	28.6264
2.4431	28.9018
2.4339	28.6319
2.4248	27.845
2.4157	26.7075
2.4068	25.2807
2.3979	24.3606
2.389	24.621
2.3802	25.371
2.3715	24.7196
2.3629	22.8556
2.3543	20.8197
2.3458	19.7353
2.3373	19.2992
2.3289	19.2798
2.3206	20.0782
2.3123	21.0094
2.3041	22.4303
2.2959	24.5025
2.2878	27.2538
2.2798	28.9628
2.2718	29.2604
2.2638	28.1517
2.2559	27.5851
2.2481	29.2341
2.2403	32.5265
2.2326	34.7748
2.225	35.5476
2.2173	36.2319
2.2098	36.64
2.2023	36.6063
2.1948	37.3588
2.1874	38.1285
2.18	38.4742
2.1727	38.6783
2.1655	38.8518
2.1583	38.8437
2.1511	38.6518
2.144	38.3173
2.1369	38.3575
2.1299	38.2476
2.1229	38.1835
2.116	38.4058
2.1091	38.9317
2.1023	39.0554
2.0955	39.176
2.0887	39.2884
2.082	38.9735
2.06	39.0467
2.028	37.8041
1.996	35.9109
1.964	35.7462
1.932	35.5448
1.9	34.704
1.868	34.1573
1.836	33.5291
1.804	32.6863
1.772	31.7827
1.74	30.5529
1.708	29.0348
1.676	27.5783
1.644	26.4057
1.612	25.1902
1.58	23.9688
1.548	22.6237
1.516	21.3845
1.484	20.4075
1.452	19.3982
1.42	18.1765
1.388	16.6413
1.356	16.5511
1.324	15.8878
1.292	14.9543
1.26	14.2482
1.228	13.711
1.196	13.2278
1.164	12.8932
1.132	12.61
1.1	12.509
1.068	12.418
1.036	12.3151
1.004	12.3744
0.972	12.3798
0.94	12.1027
0.908	12.1407
0.876	12.3316
0.844	12.5712
0.812	12.6209
0.795	12.2668
0.787	12.5319
0.779	12.4392
0.771	12.3701
0.763	12.4137
0.755	12.3925
0.747	12.1849
0.739	12.2931
0.731	12.3383
0.723	12.2931
0.715	12.4536
0.707	12.4434
0.699	12.2096
0.691	12.4358
0.683	12.6144
0.675	12.5846
0.667	12.7529
0.659	12.5657
0.651	12.7201
0.643	12.8058
0.635	12.9344
0.627	12.7742
0.619	12.9631
0.611	13.1127
0.603	13.1401
0.595	13.4352
0.587	13.4084
0.579	13.8202
0.571	13.5896
0.563	13.8373
0.555	13.6329
0.547	13.9468
0.539	13.9538
0.531	14.1563
0.523	14.0908
0.515	13.782
0.507	14.1661
0.499	14.4399
0.491	14.1413
0.483	14.1827
0.475	14.0066
0.467	13.8718
0.459	13.8036
0.451	13.7269
0.443	13.25
0.435	13.2936
0.427	13.2041
0.419	13.0185
0.411	12.8694
0.403	12.5054
