Name: Hornblende Syenite
Type: Rock
Class: Igneous
Subclass: Alkalic
Particle Size: Solid
Sample No.: Ward19
Owner: JPL
Wavelength Range: VSWIR
Origin: Ward's Collection of American Rocks.  Sample locality - Near Cuttingsville, Ruthland County, Vermont.
Description: A granular gray rock composed of feldspar showing goodcleavage and considerable hornblende.Geologic age - Post-Carboniferous - Pre-Cretaceous.Collected by:  Ward's Natural Science Original ASTER Spectral Library name was jpl.perkin.rock.igneous.alkalic.solid.ward19.spectrum.txt
Measurement: Hemispherical reflectance
X Units: Wavelength (micrometers)
Y Units: Reflectance (percent)
wavelength	value
2.5	23.9418
2.494	23.7748
2.488	23.9737
2.482	24.043
2.476	24.0063
2.47	24.1396
2.464	24.1192
2.458	24.1412
2.452	24.2308
2.446	24.3296
2.44	24.3398
2.434	24.3911
2.428	24.5425
2.422	24.8053
2.416	24.9748
2.41	25.2848
2.404	25.4775
2.398	25.7261
2.392	25.9854
2.386	26.1824
2.38	26.3644
2.374	26.6198
2.368	26.7763
2.362	26.831
2.356	26.9856
2.35	27.1199
2.344	27.2199
2.338	27.2733
2.332	27.4198
2.326	27.5122
2.32	27.6824
2.314	27.7631
2.308	27.9639
2.302	28.0282
2.296	28.1392
2.29	28.1472
2.284	28.1811
2.278	28.0853
2.272	28.0565
2.266	28.0349
2.26	27.9189
2.254	28.0802
2.248	28.0137
2.242	28.0752
2.236	28.1116
2.23	28.061
2.224	28.0295
2.218	27.9951
2.212	27.9145
2.206	27.7165
2.2	27.5362
2.194	27.6385
2.188	27.7082
2.182	27.9397
2.176	28.1464
2.17	28.3567
2.164	28.3693
2.158	28.5049
2.152	28.5088
2.146	28.5703
2.14	28.5737
2.134	28.4
2.128	28.4091
2.122	28.2589
2.116	28.1387
2.11	28.0703
2.104	27.9211
2.098	27.7809
2.092	27.7037
2.086	27.7392
2.08	27.6861
2.074	27.6828
2.068	27.685
2.062	27.6648
2.056	27.6609
2.05	27.4904
2.044	27.5373
2.038	27.4439
2.032	27.2949
2.026	27.121
2.02	27.0089
2.014	26.8158
2.008	26.7537
2.002	26.5925
1.996	26.4134
1.99	26.3851
1.984	26.3025
1.978	26.0645
1.972	25.8573
1.966	25.6082
1.96	25.4163
1.954	24.9821
1.948	24.1872
1.942	23.7161
1.936	23.9045
1.93	24.279
1.924	24.6039
1.918	24.8055
1.912	25.2159
1.906	25.9512
1.9	26.7814
1.894	27.8482
1.888	28.4658
1.882	28.9778
1.876	29.3876
1.87	29.2521
1.864	29.6642
1.858	29.7006
1.852	29.8381
1.846	29.8
1.84	29.8575
1.834	29.7485
1.828	29.8094
1.822	29.9368
1.816	29.8813
1.81	29.819
1.804	29.9097
1.798	29.85
1.792	29.9332
1.786	29.8798
1.78	29.848
1.774	29.8437
1.768	29.8455
1.762	29.866
1.756	29.8408
1.75	29.8941
1.744	29.8604
1.738	29.9508
1.732	29.9185
1.726	29.8791
1.72	29.894
1.714	29.9211
1.708	29.9621
1.702	29.9075
1.696	29.947
1.69	29.9559
1.684	29.8855
1.678	29.9406
1.672	29.8818
1.666	29.9317
1.66	29.9773
1.654	29.988
1.648	29.8993
1.642	30.0469
1.636	30.0143
1.63	29.9428
1.624	29.9274
1.618	29.9688
1.612	30.0161
1.606	29.9368
1.6	29.9333
1.594	29.896
1.588	29.9629
1.582	29.9428
1.576	29.9143
1.57	29.9104
1.564	29.8912
1.558	29.8703
1.552	29.9061
1.546	29.8461
1.54	29.8311
1.534	29.8694
1.528	29.7766
1.522	29.7032
1.516	29.7213
1.51	29.7015
1.504	29.6152
1.498	29.6147
1.492	29.4905
1.486	29.4868
1.48	29.4116
1.474	29.338
1.468	29.3104
1.462	29.2482
1.456	29.1806
1.45	29.1832
1.444	29.2107
1.438	29.1905
1.432	29.1784
1.426	29.13
1.42	29.1056
1.414	29.0835
1.408	29.2522
1.402	29.3977
1.396	29.6009
1.39	29.8078
1.384	29.8726
1.378	29.8892
1.372	29.9613
1.366	29.951
1.36	29.8117
1.354	29.9412
1.348	29.8781
1.342	29.9226
1.336	29.9035
1.33	29.8496
1.324	29.8632
1.318	29.8533
1.312	29.8377
1.306	29.8084
1.3	29.8056
1.294	29.8228
1.288	29.7248
1.282	29.7893
1.276	29.7663
1.27	29.7698
1.264	29.6639
1.258	29.6719
1.252	29.6693
1.246	29.6116
1.24	29.6347
1.234	29.6219
1.228	29.6039
1.222	29.5881
1.216	29.5904
1.21	29.5176
1.204	29.5046
1.198	29.5567
1.192	29.5683
1.186	29.559
1.18	29.5167
1.174	29.5499
1.168	29.5327
1.162	29.5525
1.156	29.5701
1.15	29.6203
1.144	29.5246
1.138	29.6586
1.132	29.6342
1.126	29.6595
1.12	29.5784
1.114	29.6308
1.108	29.7019
1.102	29.7574
1.096	29.7108
1.09	29.7837
1.084	29.939
1.078	29.8478
1.072	29.8021
1.066	29.9463
1.06	29.9861
1.054	29.8917
1.048	29.945
1.042	29.9971
1.036	29.9671
1.03	30.0515
1.024	30.1124
1.018	30.114
1.012	30.1534
1.006	30.1013
1	30.19
0.994	30.1764
0.988	30.2421
0.982	30.1947
0.976	30.2098
0.97	30.1737
0.964	30.2575
0.958	30.2321
0.952	30.2327
0.946	30.2665
0.94	30.2196
0.934	30.1898
0.928	30.2252
0.922	30.1685
0.916	30.1259
0.91	30.0029
0.904	29.9742
0.898	29.8456
0.892	29.8291
0.886	29.7042
0.88	29.6061
0.874	29.5756
0.868	29.515
0.862	29.5097
0.856	29.0884
0.85	29.1864
0.844	29.3194
0.838	29.415
0.832	29.49
0.826	29.541
0.82	29.561
0.814	29.5787
0.808	29.5586
0.802	29.5619
0.796	29.5564
0.79	29.5198
0.784	29.5018
0.778	29.4903
0.772	29.4559
0.766	29.4326
0.76	29.4158
0.754	29.3806
0.748	29.3478
0.742	29.3544
0.736	29.3292
0.73	29.3088
0.724	29.3004
0.718	29.2736
0.712	29.2655
0.706	29.2356
0.7	29.2349
0.694	29.2103
0.688	29.1843
0.682	29.1691
0.676	29.1294
0.67	29.1293
0.664	29.1285
0.658	29.1242
0.652	29.1185
0.646	29.1201
0.64	29.1068
0.634	29.0913
0.628	29.0684
0.622	29.0494
0.616	29.0183
0.61	28.9906
0.604	28.9526
0.598	28.9172
0.592	28.8725
0.586	28.7968
0.58	28.7072
0.574	28.6128
0.568	28.5117
0.562	28.4208
0.556	28.146
0.55	27.9966
0.544	27.838
0.538	27.6776
0.532	27.5206
0.526	27.3732
0.52	27.2138
0.514	27.0394
0.508	26.8151
0.502	26.557
0.496	26.2737
0.49	25.9598
0.484	25.6173
0.478	25.6461
0.472	25.5549
0.466	25.4308
0.46	25.275
0.454	25.0522
0.448	24.7884
0.442	24.4821
0.436	24.2205
0.43	23.9404
0.424	23.6351
0.418	23.3708
0.412	23.1277
0.406	22.866
0.4	22.5898
