Name: Tremolite Schist
Type: rock
Class: Metamorphic
Subclass: Schist
Particle Size: Fine
Sample No.: schist6
Owner: JHU
Wavelength Range: All
Origin: Sample No. 468, The Hunt and Salisbury Collection at the U.S.Geological Survey, Denver, Co.
Description: This is another coarse-grained rock composed of bent folia of tremolite and lenses and stringers of quartz.  Unlike the previous one, however, this sample is completely unaltered.  The bent folia are due to brittle deformation of the amphibole as a result of shear stress, with regions of concomittant granulation of this mineral.  Modes for this rock gave 75.4% amphibole and 24.6% quartz. Particle size was 0-75 Micrometer. Original ASTER Spectral Library name was jhu.becknic.rock.metamorphic.schist.fine.schist6.spectrum.txt
Measurement: Directional (10 Degree) Hemispherical Reflectance
X Units: Wavelength (micrometers)
Y Units: Reflectance (percent)
wavelength	value
14.983	2.6748
14.645	3.1222
14.321	2.0056
14.011	4.1258
13.715	4.7276
13.43	4.8102
13.158	3.9809
12.896	3.6325
12.644	3.2898
12.402	4.0005
12.169	5.4044
11.945	7.3316
11.729	7.7351
11.52	7.2987
11.319	6.4236
11.125	5.4382
10.937	5.012
10.755	4.715
10.58	5.4524
10.41	6.2235
10.245	6.9681
10.086	7.3761
9.9313	6.2216
9.7814	5.096
9.636	5.6457
9.4948	6.2427
9.3577	8.4351
9.2245	9.6275
9.095	9.848
8.9691	9.5875
8.8467	10.023
8.7275	10.277
8.6116	8.254
8.4986	9.3369
8.3886	8.5881
8.2814	9.0592
8.1769	10.09
8.075	7.3406
7.9756	5.3063
7.8786	3.758
7.784	3.2934
7.6916	3.3884
7.6014	3.5515
7.5133	3.9231
7.4272	4.3344
7.343	4.936
7.2607	5.9914
7.1803	7.0491
7.1016	8.1287
7.0246	9.0745
6.9493	10.401
6.8755	11.113
6.8034	11.328
6.7327	11.232
6.6634	12.132
6.5956	12.66
6.5292	13.497
6.464	16.78
6.4002	16.795
6.3376	14.203
6.2762	11.062
6.216	9.1292
6.157	10.065
6.099	12.119
6.0421	13.607
5.9863	13.955
5.9315	12.919
5.8777	14.679
5.8249	16.569
5.773	17.96
5.722	19.143
5.6719	18.291
5.6227	15.262
5.5744	14.407
5.5268	15.838
5.4801	17.845
5.4341	18.576
5.3889	14.698
5.3445	12.491
5.3008	13.193
5.2578	15.591
5.2154	19.882
5.1738	21.14
5.1328	20.795
5.0925	20.897
5.0528	20.55
5.0137	20.831
4.9752	22.875
4.9373	26.617
4.9	31.75
4.8632	37.375
4.827	39.894
4.7913	41.605
4.7561	43.88
4.7215	45.965
4.6873	46.515
4.6536	49.923
4.6205	53.701
4.5877	56.607
4.5555	58.66
4.5237	58.173
4.4923	55.572
4.4614	55.699
4.4309	58.208
4.4008	60.628
4.3711	63.543
4.3418	65.622
4.3129	66.046
4.2844	65.95
4.2563	66.945
4.2285	66.949
4.2011	67.179
4.174	67.879
4.1473	68.571
4.1209	69.352
4.0949	70.217
4.0692	70.836
4.0438	70.878
4.0187	70.48
3.994	70.105
3.9695	70.254
3.9453	71.4
3.9214	72.078
3.8979	72.221
3.8746	72.054
3.8515	71.99
3.8288	72.283
3.8063	72.636
3.7841	72.626
3.7621	72.258
3.7404	72.058
3.7189	72.226
3.6977	72.103
3.6767	73.091
3.656	73.193
3.6355	73.169
3.6152	73.052
3.5951	72.908
3.5753	72.777
3.5557	72.473
3.5363	71.735
3.5171	70.194
3.4981	69.459
3.4793	69.885
3.4607	69.877
3.4423	68.692
3.4241	67.228
3.4061	66.334
3.3883	65.637
3.3707	64.748
3.3533	62.884
3.336	63.955
3.3189	64.592
3.302	65.271
3.2853	66.751
3.2687	67.153
3.2523	66.615
3.2361	65.901
3.22	65.06
3.204	63.741
3.1883	62.075
3.1727	61.202
3.1572	61.442
3.1419	61.675
3.1268	61.241
3.1117	60.738
3.0969	60.241
3.0821	59.754
3.0675	59.53
3.0531	59.173
3.0388	58.684
3.0246	58.478
3.0105	58.101
2.9966	57.803
2.9828	57.462
2.9692	57.237
2.9556	57.426
2.9422	57.498
2.9289	57.435
2.9157	57.251
2.9027	57.14
2.8897	57.125
2.8769	57.163
2.8642	57.084
2.8516	56.866
2.8391	56.373
2.8267	55.725
2.8144	55.44
2.8022	54.683
2.7902	53.587
2.7782	52.698
2.7664	52.703
2.7546	51.369
2.7429	46.969
2.7314	24.007
2.7199	16.324
2.7085	49.663
2.6973	51.809
2.6861	61.421
2.675	68.406
2.664	74.249
2.6531	74.778
2.6423	73.743
2.6315	73.553
2.6209	73.329
2.6103	73.549
2.5999	72.733
2.5895	72.62
2.5792	71.989
2.569	71.135
2.5588	71.213
2.5487	72.12
2.5388	72.373
2.5289	72.341
2.519	71.089
2.5093	70.937
2.4996	70.063
2.49	69.128
2.4805	68.435
2.471	67.465
2.4616	67.621
2.4523	69.041
2.4431	68.41
2.4339	69.679
2.4248	69.826
2.4157	68.908
2.4068	69.195
2.3979	65.27
2.389	60.123
2.3802	59.985
2.3715	65.383
2.3629	68.968
2.3543	70.235
2.3458	71.879
2.3373	72.125
2.3289	68.455
2.3206	57.898
2.3123	52.097
2.3041	53.752
2.2959	54.627
2.2878	59.125
2.2798	64.519
2.2718	66.041
2.2638	69.436
2.2559	73.858
2.2481	74.674
2.2403	74.934
2.2326	76.352
2.225	76.944
2.2173	77.248
2.2098	77.436
2.2023	77.627
2.1948	77.706
2.1874	77.737
2.18	77.903
2.1727	78.208
2.1655	78.305
2.1583	78.128
2.1511	78.344
2.144	78.099
2.1369	78.206
2.1299	77.894
2.1229	77.938
2.116	78.103
2.1091	78.137
2.1023	79.598
2.0955	80.006
2.0887	80.102
2.082	80.493
2.06	81.319
2.028	81.677
1.996	81.226
1.964	80.896
1.932	81.567
1.9	82.853
1.868	83.52
1.836	84.993
1.804	84.703
1.772	83.793
1.74	84.546
1.708	85.52
1.676	85.314
1.644	85.232
1.612	84.471
1.58	85.249
1.548	84.453
1.516	84.491
1.484	83.921
1.452	84.438
1.42	83.742
1.388	71.012
1.356	84.319
1.324	83.988
1.292	83.451
1.26	84.22
1.228	84.38
1.196	83.704
1.164	82.615
1.132	82.334
1.1	80.004
1.068	76.505
1.036	73.167
1.004	71.053
0.972	68.437
0.94	66.977
0.908	67.927
0.876	70.352
0.844	73.63
0.812	76.595
0.795	78.573
0.787	79.202
0.779	79.305
0.771	79.138
0.763	79.996
0.755	79.466
0.747	79.36
0.739	79.174
0.731	79.276
0.723	79.288
0.715	79.827
0.707	79.101
0.699	80.306
0.691	80.415
0.683	79.914
0.675	80.351
0.667	80.027
0.659	80.909
0.651	80.057
0.643	80.244
0.635	79.336
0.627	78.582
0.619	80.281
0.611	81.111
0.603	79.392
0.595	79.793
0.587	79.325
0.579	79.222
0.571	79.709
0.563	78.365
0.555	78.257
0.547	78.103
0.539	78.773
0.531	77.161
0.523	77.87
0.515	77.638
0.507	77.024
0.499	76.483
0.491	76.319
0.483	76.27
0.475	75.453
0.467	74.515
0.459	76.809
0.451	75.801
0.443	75.417
0.435	75.622
0.427	74.21
0.419	74.284
0.411	72.986
0.403	73.148
