Name: Obsidian
Type: Rock
Class: Igneous
Subclass: Felsic
Particle Size: Solid
Sample No.: Ward01
Owner: JPL
Wavelength Range: VSWIR
Origin: Ward's Collection of American Rocks.  Sample locality - Lake County, Oregon.
Description: A jet black glass with conchoidal fracture.  Thin edgesometimes show parallel flow bands.  Geologic age - Tertiary.Geologic Name - Glass Buttes Series.Collected by:  Ward's Natural Science Original ASTER Spectral Library name was jpl.perkin.rock.igneous.felsic.solid.ward01.spectrum.txt
Measurement: Hemispherical reflectance
X Units: Wavelength (micrometers)
Y Units: Reflectance (percent)
wavelength	value
2.5	2.9277
2.494	3.0073
2.488	3.2799
2.482	3.1502
2.476	3.1691
2.47	3.3379
2.464	3.138
2.458	3.2671
2.452	3.2175
2.446	3.3095
2.44	3.2327
2.434	3.3007
2.428	3.3165
2.422	3.2885
2.416	3.3239
2.41	3.3069
2.404	3.4171
2.398	3.368
2.392	3.3826
2.386	3.4499
2.38	3.3252
2.374	3.3632
2.368	3.4002
2.362	3.428
2.356	3.3489
2.35	3.4547
2.344	3.3905
2.338	3.3513
2.332	3.3211
2.326	3.3919
2.32	3.3682
2.314	3.4021
2.308	3.3738
2.302	3.4843
2.296	3.4716
2.29	3.3721
2.284	3.3919
2.278	3.427
2.272	3.3405
2.266	3.4243
2.26	3.4372
2.254	3.4409
2.248	3.388
2.242	3.438
2.236	3.375
2.23	3.3646
2.224	3.385
2.218	3.4551
2.212	3.5265
2.206	3.4428
2.2	3.434
2.194	3.5155
2.188	3.4503
2.182	3.4998
2.176	3.5525
2.17	3.4883
2.164	3.5033
2.158	3.5393
2.152	3.4947
2.146	3.5796
2.14	3.5002
2.134	3.5929
2.128	3.5298
2.122	3.5505
2.116	3.5629
2.11	3.5251
2.104	3.4904
2.098	3.5196
2.092	3.5203
2.086	3.481
2.08	3.5016
2.074	3.5038
2.068	3.4697
2.062	3.5224
2.056	3.4629
2.05	3.4635
2.044	3.4972
2.038	3.5004
2.032	3.5364
2.026	3.5461
2.02	3.4926
2.014	3.4385
2.008	3.4933
2.002	3.4363
1.996	3.4045
1.99	3.4151
1.984	3.4182
1.978	3.4272
1.972	3.375
1.966	3.3921
1.96	3.3874
1.954	3.4657
1.948	3.3833
1.942	3.2954
1.936	3.3762
1.93	3.2906
1.924	3.2314
1.918	3.3546
1.912	3.364
1.906	3.3769
1.9	3.4132
1.894	3.3834
1.888	3.3862
1.882	3.4581
1.876	3.4376
1.87	3.4068
1.864	3.5412
1.858	3.498
1.852	3.4333
1.846	3.5057
1.84	3.4952
1.834	3.4644
1.828	3.4496
1.822	3.4776
1.816	3.4831
1.81	3.4267
1.804	3.4454
1.798	3.4784
1.792	3.453
1.786	3.4333
1.78	3.4635
1.774	3.5418
1.768	3.4893
1.762	3.4751
1.756	3.5147
1.75	3.5414
1.744	3.508
1.738	3.4611
1.732	3.4705
1.726	3.492
1.72	3.5014
1.714	3.4796
1.708	3.5069
1.702	3.5855
1.696	3.5153
1.69	3.4828
1.684	3.4668
1.678	3.5419
1.672	3.4329
1.666	3.5467
1.66	3.4983
1.654	3.4315
1.648	3.4667
1.642	3.5763
1.636	3.459
1.63	3.4192
1.624	3.5204
1.618	3.517
1.612	3.4758
1.606	3.4049
1.6	3.4684
1.594	3.4687
1.588	3.4119
1.582	3.5013
1.576	3.419
1.57	3.4134
1.564	3.4329
1.558	3.3965
1.552	3.4281
1.546	3.4312
1.54	3.408
1.534	3.4531
1.528	3.4479
1.522	3.4401
1.516	3.3456
1.51	3.4219
1.504	3.3946
1.498	3.4
1.492	3.3491
1.486	3.3592
1.48	3.3812
1.474	3.3706
1.468	3.3095
1.462	3.2944
1.456	3.4044
1.45	3.2392
1.444	3.3029
1.438	3.3395
1.432	3.3041
1.426	3.3296
1.42	3.3278
1.414	3.3312
1.408	3.3366
1.402	3.3286
1.396	3.3457
1.39	3.3901
1.384	3.3285
1.378	3.3171
1.372	3.3074
1.366	3.3211
1.36	3.3156
1.354	3.3643
1.348	3.3709
1.342	3.2843
1.336	3.3173
1.33	3.3059
1.324	3.2721
1.318	3.2902
1.312	3.3007
1.306	3.3476
1.3	3.3088
1.294	3.2776
1.288	3.326
1.282	3.3428
1.276	3.3096
1.27	3.347
1.264	3.3455
1.258	3.368
1.252	3.2902
1.246	3.3944
1.24	3.3526
1.234	3.3989
1.228	3.3856
1.222	3.3746
1.216	3.3919
1.21	3.3735
1.204	3.401
1.198	3.4141
1.192	3.2975
1.186	3.4348
1.18	3.3837
1.174	3.4271
1.168	3.4021
1.162	3.4648
1.156	3.3822
1.15	3.483
1.144	3.4716
1.138	3.446
1.132	3.5719
1.126	3.507
1.12	3.5103
1.114	3.4455
1.108	3.5177
1.102	3.392
1.096	3.4899
1.09	3.3756
1.084	3.4851
1.078	3.5663
1.072	3.4673
1.066	3.4137
1.06	3.4597
1.054	3.5458
1.048	3.5141
1.042	3.6087
1.036	3.4759
1.03	3.5072
1.024	3.5177
1.018	3.5241
1.012	3.4915
1.006	3.5317
1	3.5359
0.994	3.5745
0.988	3.5466
0.982	3.5792
0.976	3.6455
0.97	3.5282
0.964	3.5802
0.958	3.6344
0.952	3.5567
0.946	3.6361
0.94	3.6153
0.934	3.6013
0.928	3.6339
0.922	3.6431
0.916	3.6314
0.91	3.7263
0.904	3.594
0.898	3.6468
0.892	3.6179
0.886	3.6324
0.88	3.5267
0.874	3.6315
0.868	3.6031
0.862	3.5871
0.856	3.7766
0.85	3.857
0.844	3.8819
0.838	3.8996
0.832	3.9113
0.826	3.9222
0.82	3.9359
0.814	3.9378
0.808	3.9506
0.802	3.9575
0.796	3.97
0.79	3.9725
0.784	3.9795
0.778	3.9828
0.772	3.9906
0.766	3.997
0.76	4.0053
0.754	4.0084
0.748	4.0116
0.742	4.0102
0.736	4.016
0.73	4.0172
0.724	4.0185
0.718	4.0198
0.712	4.0133
0.706	4.0166
0.7	4.0147
0.694	4.013
0.688	4.0098
0.682	4.0053
0.676	3.9989
0.67	3.9992
0.664	3.9934
0.658	3.9884
0.652	3.9821
0.646	3.9766
0.64	3.9688
0.634	3.965
0.628	3.9534
0.622	3.9481
0.616	3.9438
0.61	3.9357
0.604	3.9316
0.598	3.9267
0.592	3.923
0.586	3.9176
0.58	3.9145
0.574	3.9114
0.568	3.9081
0.562	3.9031
0.556	3.9171
0.55	3.9202
0.544	3.9244
0.538	3.9287
0.532	3.9347
0.526	3.9415
0.52	3.9503
0.514	3.9636
0.508	3.981
0.502	4.0069
0.496	4.0383
0.49	4.0749
0.484	4.1207
0.478	4.1137
0.472	4.1184
0.466	4.1244
0.46	4.1377
0.454	4.1459
0.448	4.1612
0.442	4.1856
0.436	4.2005
0.43	4.2193
0.424	4.2443
0.418	4.2717
0.412	4.3103
0.406	4.3595
0.4	4.4128
