Name: Olivine Basalt Porphyry
Type: Rock
Class: Igneous
Subclass: Mafic
Particle Size: Solid
Sample No.: Ward36
Owner: JPL
Wavelength Range: All
Origin: Ward's Collection of American Rocks.  Sample locality - Valmont, Boulder county, Colorado.
Description: A black, fine-grained, porphyritic rock with phenocrysts ofaugite and olivine in a fine crystalline groundmass.Geologic Age - Tertiary (Eocene).Collected by:  Ward's Natural Science Original ASTER Spectral Library name was jpl.nicolet.rock.igneous.mafic.solid.ward36.spectrum.txt
Measurement: Hemispherical reflectance
X Units: Wavelength (micrometers)
Y Units: Reflectance (percent)
wavelength	value
15.3871	4.4112
15.118	3.4257
14.8581	3.587
14.6069	4.0227
14.3642	3.9367
14.1293	3.9936
13.9021	4.5012
13.682	3.1701
13.4687	4.2765
13.2621	3.6974
13.0616	4.1857
12.8672	4.6353
12.6784	3.9265
12.4951	4.8022
12.317	4.8659
12.1439	5.8333
11.9757	6.0286
11.812	6.7845
11.6527	7.7866
11.4977	8.2295
11.3468	8.987
11.1997	9.8972
11.0564	10.0043
10.9168	10.9021
10.7806	11.509
10.6478	11.5213
10.5182	11.8419
10.3917	13.1697
10.2683	13.99
10.1477	14.8575
10.0299	16.0879
9.9148	17.6461
9.8024	18.0118
9.6925	19.0235
9.585	19.2626
9.4798	18.7861
9.377	17.3714
9.2763	15.1651
9.1778	14.4136
9.0814	13.8948
8.987	13.3184
8.8945	12.2841
8.8039	12.2118
8.7151	11.9431
8.6281	11.3652
8.5428	10.6261
8.4592	9.3336
8.3772	8.1012
8.2967	6.2873
8.2179	3.9564
8.1404	2.7123
8.0645	2.4772
7.9899	1.7771
7.9167	2.2092
7.8449	1.87
7.7743	1.8993
7.705	1.7197
7.6369	1.7538
7.57	1.7623
7.5043	2.1873
7.4397	2.1154
7.3762	2.0662
7.3138	2.1486
7.2524	2.3902
7.1921	2.4587
7.1327	2.7456
7.0743	2.3542
7.0169	2.5463
6.9604	2.5976
6.9047	2.5871
6.85	2.8296
6.7962	2.7529
6.7431	2.8512
6.6909	3.0418
6.6395	3.0768
6.5889	3.0793
6.539	2.9439
6.49	3.1478
6.4416	2.9055
6.3939	3.0056
6.347	2.8595
6.3007	3.018
6.2551	3.2522
6.2101	3.0676
6.1658	3.0435
6.1222	3.1068
6.0791	3.1554
6.0366	3.0886
5.9948	3.2634
5.9535	3.0756
5.9127	3.3781
5.8726	3.7576
5.8329	3.5819
5.7938	3.5499
5.7552	3.7656
5.7172	3.7889
5.6796	3.8725
5.6425	3.864
5.6059	4.2563
5.5698	4.048
5.5341	4.0872
5.4989	4.2664
5.4641	4.1245
5.4298	4.4112
5.3959	4.3963
5.3624	4.0472
5.3294	4.6563
5.2967	4.6133
5.2644	4.6361
5.2326	4.6125
5.2011	4.6607
5.17	4.9044
5.1392	4.664
5.1088	4.9514
5.0788	5.1692
5.0491	4.9308
5.0198	5.2435
4.9908	5.2924
4.9622	5.3522
4.9338	5.1783
4.9058	5.1061
4.8781	5.4131
4.8508	5.5428
4.8237	5.6437
4.7969	5.6371
4.7704	5.5624
4.7443	5.6741
4.7184	5.8151
4.6927	5.8074
4.6674	5.8021
4.6423	5.8644
4.6175	5.8356
4.593	6.0775
4.5687	5.9823
4.5447	6.1928
4.5209	6.2939
4.4974	6.0857
4.4741	6.1524
4.451	6.2626
4.4282	6.6228
4.4057	6.4498
4.3833	6.5747
4.3612	6.4677
4.3393	7.1067
4.3176	6.6766
4.2962	6.7523
4.2749	6.8858
4.2539	6.8832
4.233	6.9748
4.2124	7.2756
4.192	7.9519
4.1717	7.7035
4.1517	7.5061
4.1319	7.9044
4.1122	8.0066
4.0927	7.6151
4.0734	7.3204
4.0543	7.902
4.0354	7.9695
4.0166	8.3099
3.9981	8.2288
3.9796	8.1214
3.9614	8.1111
3.9433	7.9776
3.9254	8.0076
3.9077	8.0477
3.8901	8.2572
3.8726	8.1836
3.8554	8.4585
3.8382	8.0504
3.8213	8.501
3.8045	8.3333
3.7878	8.1491
3.7713	8.23
3.7549	8.2833
3.7386	8.3982
3.7225	8.6377
3.7066	7.7581
3.6907	8.1625
3.675	8.0215
3.6595	8.0692
3.644	8.1837
3.6287	8.0184
3.6136	8.2194
3.5985	7.8228
3.5836	7.6582
3.5688	7.6881
3.5541	7.9269
3.5396	7.5769
3.5251	7.7456
3.5108	7.4732
3.4966	7.1771
3.4825	7.126
3.4685	7.4093
3.4547	7.6125
3.4409	7.6794
3.4273	7.4282
3.4137	7.3795
3.4003	6.5925
3.387	6.4381
3.3738	6.9663
3.3606	6.6283
3.3476	6.8863
3.3347	6.8753
3.3219	7.2189
3.3092	7.312
3.2965	6.3145
3.284	6.7652
3.2716	6.8498
3.2593	6.4454
3.247	6.4607
3.2348	5.9659
3.2228	6.6933
3.2108	6.6073
3.1989	6.1718
3.1871	6.3621
3.1754	6.2663
3.1638	6.1534
3.1523	6.3241
3.1408	6.1015
3.1294	5.7186
3.1181	5.794
3.1069	5.8326
3.0958	6.58
3.0848	6.3957
3.0738	5.7874
3.0629	6.2305
3.0521	6.0375
3.0413	5.7226
3.0307	5.6689
3.0201	5.4577
3.0096	5.2038
2.9991	5.6581
2.9887	6.4254
2.9784	5.6311
2.9682	5.8418
2.9581	6.9249
2.948	5.4625
2.9379	5.7245
2.928	6.28
2.9181	5.1696
2.9083	5.0108
2.8985	5.8858
2.8888	5.5368
2.8792	4.4035
2.8697	4.9108
2.8602	5.8837
2.8507	4.5087
2.8413	5.8472
2.832	5.6837
2.8228	5.5181
2.8136	4.491
2.8045	4.503
2.7954	4.2694
2.7864	6.5202
2.7774	6.0886
2.7685	6.3136
2.7597	5.6901
2.7509	6.1946
2.7422	6.9573
2.7335	5.957
2.7249	7.4853
2.7163	8.3599
2.7078	8.0499
2.6994	8.1105
2.691	9.2115
2.6826	10.0166
2.6743	9.3665
2.666	9.8089
2.6578	9.8728
2.6497	10.3663
2.6416	9.6288
2.6336	9.5759
2.6256	10.3807
2.6176	10.595
2.6097	9.8389
2.6018	10.7687
2.594	11.3893
2.5863	10.0779
2.5785	10.2204
2.5709	10.5119
2.5633	10.6601
2.5557	10.6003
2.5481	9.2927
2.5406	11.2276
2.5332	10.4852
2.5258	8.7035
2.5184	10.3537
2.5111	9.585
2.5038	10.0077
2.4966	9.9728
2.4894	10.1864
2.4823	9.7005
2.4752	10.9052
2.4681	10.3652
2.4611	9.7197
2.4541	11.0646
2.4471	10.5274
2.4402	11.6937
2.4333	11.8981
2.4265	10.6123
2.4197	11.2736
2.413	10.2607
2.4063	11.1563
2.3996	11.3257
2.3929	12.0033
2.3863	11.218
2.3798	11.2791
2.3732	11.2251
2.3667	10.7289
2.3603	12.6392
2.3538	9.7965
2.3474	12.7914
2.3411	11.3166
2.3347	11.6691
2.3285	11.6204
2.3222	12.5182
2.316	12.0282
2.3098	12.3778
2.3036	12.3132
2.2975	12.2467
2.2914	12.2867
2.2854	13.0567
2.2793	12.6005
2.2733	12.5279
2.2674	12.2012
2.2614	13.239
2.2555	13.048
2.2497	12.1607
2.2438	11.4559
2.238	11.7711
2.2322	12.5738
2.2265	13.5313
2.2208	11.8956
2.2151	12.3726
2.2094	12.1733
2.2038	13.0829
2.1982	13.9605
2.1926	13.4055
2.187	10.7097
2.1815	13.1638
2.176	12.9579
2.1706	11.5093
2.1651	11.777
2.1597	14.6074
2.1543	11.1094
2.149	13.4476
2.1436	9.6336
2.1383	11.4265
2.1331	10.9913
2.1278	12.1232
2.1226	13.5673
2.1174	12.0682
2.1122	13.2928
2.1071	13.791
2.1019	12.2909
2.0968	12.1933
2.0918	11.8398
2.0867	13.4389
2.0817	10.8154
2.0767	9.9179
2.0717	12.9969
2.0667	9.3931
2.0618	11.6796
2.0569	8.9491
2.052	11.4529
2.0472	11.8601
2.0423	13.0615
2.0375	12.2494
2.0327	11.1865
2.028	12.6494
2.0232	11.3344
2.0185	16.0689
2.0138	13.1121
2.0091	11.2027
2.0044	10.581
1.9998	11.0999
