Name: Purple Quartzite
Type: rock
Class: Metamorphic
Subclass: Quartzite
Particle Size: Fine
Sample No.: qrtzit4
Owner: JHU
Wavelength Range: All
Origin: Sample No. 378, The Hunt and Salisbury Collection at the U.S.Geological Survey, Denver, Co.
Description: A schistose sample consisting of medium to coarse-grained recrystallized quartz with some muscovite that often contains ferruginous material.  In addition there are scattered opaques present in this sample.  The modal analyses for this rock are 88.2% quartz, 7.2% muscovite, 3.5% opaques and 1.1% other.  Particle size was 0-75 Micrometer. Original ASTER Spectral Library name was jhu.becknic.rock.metamorphic.quartzite.fine.qrtzit4.spectrum.txt
Measurement: Directional (10 Degree) Hemispherical Reflectance
X Units: Wavelength (micrometers)
Y Units: Reflectance (percent)
wavelength	value
14.983	8.3958
14.645	6.2001
14.321	2.1482
14.011	7.1147
13.715	8.8664
13.43	7.9932
13.158	5.6976
12.896	3.9842
12.644	3.0668
12.402	2.3885
12.169	2.5723
11.945	6.4239
11.729	9.0904
11.52	10.052
11.319	10.523
11.125	10.029
10.937	9.0295
10.755	8.9343
10.58	8.2869
10.41	8.2092
10.245	7.5646
10.086	6.5162
9.9313	5.9971
9.7814	5.7217
9.636	5.5318
9.4948	6.3798
9.3577	11.181
9.2245	13.053
9.095	12.422
8.9691	11.923
8.8467	11.876
8.7275	10.839
8.6116	7.9575
8.4986	10.95
8.3886	10.563
8.2814	11.56
8.1769	13.751
8.075	10.384
7.9756	7.2295
7.8786	4.2051
7.784	2.8593
7.6916	2.1782
7.6014	1.4029
7.5133	1.1317
7.4272	0.9847
7.343	1.0676
7.2607	1.4022
7.1803	1.998
7.1016	2.811
7.0246	3.5425
6.9493	4.6745
6.8755	5.2485
6.8034	5.1863
6.7327	4.6091
6.6634	5.1484
6.5956	5.2521
6.5292	5.7338
6.464	10.186
6.4002	11.023
6.3376	8.1325
6.2762	5.4366
6.216	4.1592
6.157	5.9273
6.099	9.9366
6.0421	11.245
5.9863	9.8451
5.9315	8.0816
5.8777	11.204
5.8249	15.042
5.773	18.201
5.722	20.358
5.6719	17.881
5.6227	11.355
5.5744	9.8667
5.5268	11.583
5.4801	14.799
5.4341	15.039
5.3889	8.3854
5.3445	5.5405
5.3008	6.1762
5.2578	8.86
5.2154	14.883
5.1738	16.166
5.1328	15.417
5.0925	14.642
5.0528	13.066
5.0137	12.856
4.9752	15.165
4.9373	20.126
4.9	28.292
4.8632	39.695
4.827	45.152
4.7913	48.613
4.7561	51.006
4.7215	52.019
4.6873	48.822
4.6536	52.166
4.6205	56.304
4.5877	57.913
4.5555	57.379
4.5237	53.127
4.4923	47.285
4.4614	46.24
4.4309	48.825
4.4008	51.67
4.3711	55.429
4.3418	58.138
4.3129	58.407
4.2844	57.839
4.2563	59
4.2285	59.245
4.2011	59.611
4.174	60.496
4.1473	61.463
4.1209	62.516
4.0949	63.805
4.0692	64.801
4.0438	65.08
4.0187	65.026
3.994	65.226
3.9695	65.82
3.9453	66.536
3.9214	66.874
3.8979	66.666
3.8746	66.155
3.8515	65.865
3.8288	66.074
3.8063	66.274
3.7841	66.058
3.7621	65.527
3.7404	65.046
3.7189	65.228
3.6977	65.657
3.6767	66.429
3.656	66.776
3.6355	66.781
3.6152	66.605
3.5951	66.476
3.5753	66.376
3.5557	66.261
3.5363	66.003
3.5171	65.341
3.4981	64.671
3.4793	64.955
3.4607	64.74
3.4423	64.024
3.4241	63.002
3.4061	62.506
3.3883	62.616
3.3707	62.242
3.3533	62.274
3.336	61.948
3.3189	61.65
3.302	61.188
3.2853	60.672
3.2687	60.181
3.2523	59.789
3.2361	59.323
3.22	58.945
3.204	58.458
3.1883	57.914
3.1727	57.458
3.1572	56.936
3.1419	56.274
3.1268	55.662
3.1117	55.23
3.0969	54.779
3.0821	54.387
3.0675	53.907
3.0531	53.323
3.0388	52.655
3.0246	52.188
3.0105	51.704
2.9966	51.35
2.9828	50.873
2.9692	50.085
2.9556	49.396
2.9422	49.283
2.9289	48.852
2.9157	48.397
2.9027	47.883
2.8897	47.465
2.8769	47.061
2.8642	46.879
2.8516	46.674
2.8391	46.641
2.8267	46.438
2.8144	45.576
2.8022	43.713
2.7902	39.837
2.7782	34.534
2.7664	24.412
2.7546	24.056
2.7429	23.855
2.7314	23.944
2.7199	25.733
2.7085	24.79
2.6973	32.573
2.6861	47.876
2.675	56.293
2.664	60.685
2.6531	63.357
2.6423	64.651
2.6315	65.392
2.6209	66.128
2.6103	66.452
2.5999	66.637
2.5895	66.924
2.5792	67.451
2.569	67.833
2.5588	68.556
2.5487	68.895
2.5388	69.094
2.5289	69.236
2.519	69.41
2.5093	69.433
2.4996	69.5
2.49	69.439
2.4805	69.814
2.471	70.097
2.4616	70.127
2.4523	70.121
2.4431	70.063
2.4339	70.502
2.4248	70.994
2.4157	71.354
2.4068	71.663
2.3979	71.623
2.389	71.228
2.3802	71.246
2.3715	71.808
2.3629	71.992
2.3543	71.837
2.3458	72.098
2.3373	72.435
2.3289	72.507
2.3206	72.674
2.3123	72.936
2.3041	73.347
2.2959	73.628
2.2878	73.873
2.2798	74.227
2.2718	74.414
2.2638	74.492
2.2559	74.498
2.2481	74.56
2.2403	74.497
2.2326	74.37
2.225	74.048
2.2173	73.011
2.2098	69.231
2.2023	70.599
2.1948	70.991
2.1874	71.134
2.18	71.623
2.1727	71.876
2.1655	72.135
2.1583	73.077
2.1511	73.968
2.144	74.737
2.1369	75.207
2.1299	75.487
2.1229	75.678
2.116	75.687
2.1091	75.802
2.1023	75.89
2.0955	76.016
2.0887	76.018
2.082	76.115
2.06	76.162
2.028	75.689
1.996	74.93
1.964	74.122
1.932	73.782
1.9	73.664
1.868	74.16
1.836	74.749
1.804	73.907
1.772	73.131
1.74	73.727
1.708	74.186
1.676	74.204
1.644	74.246
1.612	73.084
1.58	74.399
1.548	73.043
1.516	73.192
1.484	72.632
1.452	73.586
1.42	72.397
1.388	70.065
1.356	72.504
1.324	72.8
1.292	72.71
1.26	72.746
1.228	73.304
1.196	72.482
1.164	72.231
1.132	71.902
1.1	72.167
1.068	71.542
1.036	72.209
1.004	71.912
0.972	71.468
0.94	70.274
0.908	69.695
0.876	68.796
0.844	68.011
0.812	67.926
0.795	68.044
0.787	67.726
0.779	68.167
0.771	67.836
0.763	68.047
0.755	67.782
0.747	67.922
0.739	67.685
0.731	68.045
0.723	67.326
0.715	67.058
0.707	66.401
0.699	67.46
0.691	66.534
0.683	66.034
0.675	66.323
0.667	65.682
0.659	66.162
0.651	65.11
0.643	65.127
0.635	64.471
0.627	64.549
0.619	64.606
0.611	64.139
0.603	62.623
0.595	62.038
0.587	61.222
0.579	60.913
0.571	59.615
0.563	58.148
0.555	55.047
0.547	53.471
0.539	53.216
0.531	51.784
0.523	51.914
0.515	51.552
0.507	51.441
0.499	50.952
0.491	50.861
0.483	50.66
0.475	49.64
0.467	49.16
0.459	50.739
0.451	49.653
0.443	48.74
0.435	49.4
0.427	48.147
0.419	48.419
0.411	47.574
0.403	47.468
