Name: White Marble
Type: Rock
Class: Metamorphic
Subclass: Marble
Particle Size: Solid
Sample No.: Ward95
Owner: JPL
Wavelength Range: All
Origin: Ward's Collection of American Rocks.  Sample locality - West Rutland, Rutland County, Vermont.  Collected by - JPL.
Description: A white, saccharoidal rock with occasional pale greenpatches.  Geologic age - OrdovicianCollected by:  Ward's Natural Science Original ASTER Spectral Library name was jpl.nicolet.rock.metamorphic.marble.solid.ward95.spectrum.txt
Measurement: Hemispherical reflectance
X Units: Wavelength (micrometers)
Y Units: Reflectance (percent)
wavelength	value
15.3871	4.0073
15.118	3.839
14.8581	4.7307
14.6069	4.6784
14.3642	4.7844
14.1293	4.8941
13.9021	2.8648
13.682	4.1706
13.4687	5.3928
13.2621	5.5641
13.0616	5.0949
12.8672	4.899
12.6784	5.2769
12.4951	5.6448
12.317	5.923
12.1439	5.8097
11.9757	6.5077
11.812	5.8733
11.6527	6.741
11.4977	10.2482
11.3468	25.9905
11.1997	7.5585
11.0564	5.0701
10.9168	5.2355
10.7806	5.0499
10.6478	4.9805
10.5182	5.2063
10.3917	5.6763
10.2683	5.8212
10.1477	5.9254
10.0299	5.6834
9.9148	5.8529
9.8024	5.8082
9.6925	6.1318
9.585	6.7928
9.4798	7.1332
9.377	6.8158
9.2763	6.998
9.1778	7.3422
9.0814	7.4443
8.987	7.5207
8.8945	7.4299
8.8039	7.3242
8.7151	7.1913
8.6281	6.6006
8.5428	6.7644
8.4592	6.5008
8.3772	6.9011
8.2967	6.8725
8.2179	7.0945
8.1404	7.0169
8.0645	7.2438
7.9899	7.6162
7.9167	7.6988
7.8449	7.8358
7.7743	8.1894
7.705	8.5337
7.6369	8.6558
7.57	9.1311
7.5043	9.8195
7.4397	10.4752
7.3762	11.4681
7.3138	12.6491
7.2524	14.7021
7.1921	18.147
7.1327	22.6022
7.0743	29.8312
7.0169	31.0749
6.9604	31.7799
6.9047	33.0228
6.85	34.7754
6.7962	36.9354
6.7431	40.0163
6.6909	43.979
6.6395	46.4298
6.5889	48.8018
6.539	49.8489
6.49	48.0831
6.4416	34.1908
6.3939	16.6849
6.347	7.6486
6.3007	3.41
6.2551	1.799
6.2101	0.8773
6.1658	0.8398
6.1222	0.6137
6.0791	0.6571
6.0366	0.8837
5.9948	0.9188
5.9535	1.0387
5.9127	1.1127
5.8726	1.2721
5.8329	1.3855
5.7938	1.4578
5.7552	1.4421
5.7172	1.451
5.6796	1.7663
5.6425	1.9118
5.6059	1.8659
5.5698	1.5451
5.5341	1.6905
5.4989	2.3431
5.4641	2.6863
5.4298	3.1658
5.3959	3.7603
5.3624	4.2762
5.3294	4.9753
5.2967	5.4634
5.2644	5.9956
5.2326	6.439
5.2011	6.9182
5.17	7.114
5.1392	7.6131
5.1088	6.2511
5.0788	8.0411
5.0491	8.6368
5.0198	8.6745
4.9908	8.7573
4.9622	8.6692
4.9338	8.6972
4.9058	8.9308
4.8781	9.1024
4.8508	9.1821
4.8237	9.4303
4.7969	9.4913
4.7704	9.2542
4.7443	8.372
4.7184	6.5931
4.6927	4.9014
4.6674	4.823
4.6423	5.4448
4.6175	6.7033
4.593	7.309
4.5687	7.6043
4.5447	7.51
4.5209	7.6543
4.4974	7.9374
4.4741	8.6334
4.451	9.3718
4.4282	10.4126
4.4057	10.9928
4.3833	11.385
4.3612	10.7395
4.3393	10.1546
4.3176	10.0024
4.2962	10.3307
4.2749	10.4662
4.2539	10.1704
4.233	9.9415
4.2124	9.7659
4.192	9.3825
4.1717	9.0971
4.1517	8.6019
4.1319	7.9193
4.1122	7.0417
4.0927	6.7347
4.0734	5.6979
4.0543	5.1765
4.0354	4.2364
4.0166	3.64
3.9981	3.2353
3.9796	3.0046
3.9614	2.9693
3.9433	3.2806
3.9254	3.5223
3.9077	3.3956
3.8901	3.6549
3.8726	3.8155
3.8554	3.4985
3.8382	3.8157
3.8213	4.3077
3.8045	5.1663
3.7878	7.1755
3.7713	8.6071
3.7549	9.3318
3.7386	9.8833
3.7225	10.7025
3.7066	11.0397
3.6907	11.1906
3.675	11.2611
3.6595	11.1465
3.644	10.7236
3.6287	10.3946
3.6136	9.8759
3.5985	9.4521
3.5836	7.7965
3.5688	6.819
3.5541	6.9878
3.5396	5.8724
3.5251	4.5557
3.5108	4.0098
3.4966	3.6305
3.4825	3.6006
3.4685	3.5428
3.4547	3.8346
3.4409	4.2419
3.4273	4.348
3.4137	4.2861
3.4003	3.8788
3.387	3.9311
3.3738	3.7176
3.3606	3.8138
3.3476	3.7384
3.3347	5.0307
3.3219	6.6128
3.3092	7.5436
3.2965	8.342
3.284	9.0065
3.2716	9.5946
3.2593	10.1034
3.247	10.4986
3.2348	11.0364
3.2228	11.3609
3.2108	12.0205
3.1989	12.6039
3.1871	12.3438
3.1754	12.3954
3.1638	10.9354
3.1523	10.276
3.1408	10.6327
3.1294	10.6105
3.1181	9.9583
3.1069	9.4271
3.0958	10.3
3.0848	11.4227
3.0738	11.9495
3.0629	12.2322
3.0521	12.7848
3.0413	12.8879
3.0307	13.9021
3.0201	14.0667
3.0096	14.8323
2.9991	15.3925
2.9887	15.3596
2.9784	15.8059
2.9682	15.7748
2.9581	16.1569
2.948	15.8661
2.9379	16.0413
2.928	16.5153
2.9181	16.7893
2.9083	16.6332
2.8985	16.7026
2.8888	17.4337
2.8792	17.1914
2.8697	17.4283
2.8602	17.7779
2.8507	17.5066
2.8413	17.5279
2.832	17.2229
2.8228	15.6677
2.8136	14.4671
2.8045	12.9554
2.7954	10.7897
2.7864	10.5567
2.7774	11.5994
2.7685	13.2386
2.7597	14.3946
2.7509	15.524
2.7422	17.0356
2.7335	18.398
2.7249	20.252
2.7163	23.5153
2.7078	26.4364
2.6994	29.7137
2.691	33.3449
2.6826	35.9484
2.6743	37.9453
2.666	39.3411
2.6578	41.131
2.6497	41.1597
2.6416	41.6359
2.6336	40.4846
2.6256	39.7621
2.6176	38.7681
2.6097	37.3616
2.6018	35.893
2.594	33.3747
2.5863	30.0083
2.5785	28.3229
2.5709	25.4987
2.5633	22.2084
2.5557	17.0361
2.5481	13.746
2.5406	12.1277
2.5332	11.5404
2.5258	12.5069
2.5184	13.7931
2.5111	14.878
2.5038	14.9904
2.4966	15.7965
2.4894	16.3525
2.4823	17.0039
2.4752	18.296
2.4681	20.9105
2.4611	22.997
2.4541	25.1204
2.4471	27.3751
2.4402	29.0206
2.4333	31.7723
2.4265	33.027
2.4197	36.3188
2.413	37.5129
2.4063	36.7631
2.3996	37.1714
2.3929	37.3618
2.3863	37.6552
2.3798	36.02
2.3732	32.1734
2.3667	29.3527
2.3603	23.7429
2.3538	19.6153
2.3474	17.9032
2.3411	17.7564
2.3347	17.0491
2.3285	18.371
2.3222	19.1043
2.316	20.5775
2.3098	21.3998
2.3036	22.7588
2.2975	22.6339
2.2914	23.7453
2.2854	25.0959
2.2793	27.8831
2.2733	29.6103
2.2674	31.2103
2.2614	32.708
2.2555	36.2266
2.2497	38.0237
2.2438	37.9934
2.238	39.5371
2.2322	41.4026
2.2265	42.0204
2.2208	43.7102
2.2151	44.3054
2.2094	46.4985
2.2038	47.1679
2.1982	48.6649
2.1926	49.1093
2.187	49.3228
2.1815	48.7748
2.176	48.5017
2.1706	46.0296
2.1651	45.4534
2.1597	44.984
2.1543	46.0132
2.149	45.2038
2.1436	49.0032
2.1383	49.8805
2.1331	51.8935
2.1278	53.6819
2.1226	53.7807
2.1174	55.2505
2.1122	55.6079
2.1071	56.3706
2.1019	57.392
2.0968	58.0984
2.0918	59.6822
2.0867	58.7155
2.0817	62.6889
2.0767	59.1745
2.0717	60.921
2.0667	62.5247
2.0618	62.2646
2.0569	61.3403
2.052	60.6298
2.0472	61.3482
2.0423	60.8196
2.0375	61.3178
2.0327	59.8576
2.028	59.2244
2.0232	57.6337
2.0185	54.965
2.0138	55.4047
2.0091	52.6805
2.0044	50.1866
1.9998	45.8293
