Name: Basalt
Type: Rock
Class: Igneous
Subclass: Mafic
Particle Size: Solid
Sample No.: Me3
Owner: Lawrence Rowan, USGS Reston
Wavelength Range: All
Origin: Shiqmim, Middle East
Description: Basalt, weathered surface, bowl base fragmentSample was Whole rock chips. Original ASTER Spectral Library name was usgs.perknic.rock.igneous.mafic.solid.me3.spectrum.txt
Measurement: Directional Hemispherical Reflectance
X Units: Wavelength (micrometers)
Y Units: Reflectance (percent)
wavelength	value
14.051	2.2763
13.826	2.5338
13.609	2.5029
13.398	2.4514
13.193	2.6574
12.995	2.4926
12.802	2.8016
12.616	2.8119
12.434	2.8634
12.258	3.2857
12.086	3.5123
11.92	3.8934
11.757	4.0273
11.6	4.5217
11.446	4.9955
11.297	5.15
11.151	5.253
11.009	5.5517
10.87	5.8916
10.735	5.871
10.604	5.8813
10.475	6.077
10.35	6.0976
10.227	6.4581
10.108	6.8804
9.991	7.6014
9.877	7.9928
9.765	8.343
9.656	8.6211
9.549	8.7344
9.445	8.4048
9.343	7.5808
9.243	6.6435
9.145	6.4169
9.049	6.3139
8.956	6.3551
8.864	6.2212
8.774	6.0564
8.686	5.9225
8.599	5.7268
8.515	5.768
8.431	5.6959
8.35	5.6959
8.27	5.0058
8.192	3.9861
8.115	3.2651
8.039	2.8325
7.965	2.7295
7.893	2.5853
7.821	2.6986
7.751	2.678
7.682	2.7089
7.614	2.884
7.548	2.8634
7.483	2.9149
7.418	3.1312
7.355	3.1312
7.293	3.09
7.232	3.1312
7.172	3.0385
7.113	3.1621
7.055	3.2239
6.998	3.1724
6.942	3.2136
6.886	3.1827
6.832	3.1312
6.778	3.2033
6.726	3.296
6.674	3.3578
6.623	3.5226
6.572	3.6462
6.523	3.6874
6.474	3.7698
6.426	3.7183
6.378	3.5741
6.332	3.4505
6.286	3.2033
6.24	3.0694
6.195	2.9355
6.151	2.781
6.108	2.7604
6.065	2.7707
6.023	2.9046
5.981	3.1209
5.94	3.4505
5.899	3.6977
5.859	3.9449
5.82	4.2951
5.781	4.3466
5.743	4.5526
5.705	4.7792
5.667	4.8307
5.63	4.8616
5.594	4.9234
5.558	4.8719
5.523	5.2015
5.487	5.3869
5.453	5.459
5.419	5.7989
5.385	5.768
5.352	5.9019
5.319	5.9534
5.286	6.1697
5.254	6.4066
5.222	6.6023
5.191	6.8598
5.16	7.0658
5.129	7.2615
5.099	7.3954
5.069	7.6323
5.04	7.8486
5.01	8.0649
4.981	8.3842
4.953	8.4769
4.925	8.652
4.897	8.9301
4.869	9.0846
4.842	9.3009
4.815	9.4863
4.788	9.5481
4.762	9.8571
4.736	10.0116
4.71	10.3309
4.684	10.5163
4.659	10.7532
4.634	10.9901
4.61	11.3918
4.585	11.7317
4.561	12.0613
4.537	12.36
4.513	12.7514
4.49	12.8956
4.467	13.1325
4.444	13.3694
4.421	13.6372
4.398	13.8535
4.376	14.1728
4.354	14.3891
4.332	14.6569
4.311	14.8423
4.289	15.1204
4.268	15.244
4.247	15.6148
4.226	15.6766
4.206	15.6766
4.185	16.0371
4.165	16.0783
4.145	16.2946
4.126	16.3358
4.106	16.5521
4.086	16.5212
4.067	16.5624
4.048	16.6757
4.029	16.7169
4.011	16.5006
3.992	15.9341
3.974	15.6251
3.956	15.9753
3.938	16.3873
3.92	16.5315
3.902	16.789
3.884	16.7581
3.867	16.8817
3.85	16.9538
3.833	16.9126
3.816	17.0774
3.799	17.0465
3.782	17.1804
3.766	17.2731
3.75	17.098
3.733	17.0877
3.717	17.0362
3.702	16.9229
3.686	17.0259
3.67	16.8096
3.655	16.6345
3.639	16.686
3.624	16.4697
3.609	16.3873
3.594	16.2843
3.579	15.9753
3.564	15.9032
3.549	15.6766
3.535	15.5942
3.521	15.2646
3.506	14.3273
3.492	14.1625
3.478	14.2449
3.464	14.1831
3.45	13.9668
3.437	13.7608
3.423	13.1737
3.409	13.081
3.396	13.0089
3.383	12.9677
3.37	12.772
3.357	12.8647
3.344	12.3703
3.331	12.5351
3.318	12.2467
3.305	12.1437
3.293	11.8141
3.28	11.5875
3.268	11.3506
3.255	10.918
3.243	10.7326
3.231	10.3412
3.219	10.2588
3.207	9.9807
3.195	9.7644
3.183	9.3112
3.172	9.167
3.16	8.7344
3.149	8.549
3.137	8.4254
3.126	7.9104
3.115	7.7456
3.103	7.3954
3.092	7.4778
3.081	7.2821
3.07	7.1379
3.06	7.21
3.049	7.0143
3.038	6.7465
3.027	6.6435
3.017	6.6332
3.006	6.6435
2.996	6.3551
2.986	6.3448
2.975	6.2727
2.965	6.18
2.955	6.0358
2.945	6.0667
2.935	6.077
2.925	5.7886
2.915	6.077
2.905	5.9328
2.896	6.1182
2.886	6.1697
2.876	6.3654
2.867	6.3757
2.857	6.4272
2.848	6.4272
2.838	6.2315
2.829	5.9534
2.82	5.8298
2.811	5.6444
2.802	5.5311
2.793	5.7268
2.784	5.974
2.775	5.9534
2.766	6.2315
2.757	6.6332
2.748	7.004
2.74	7.8898
2.731	8.5181
2.722	10.1249
2.714	11.2888
2.705	11.0416
2.697	13.7917
2.688	16.3461
2.68	17.9529
2.672	18.8696
2.664	19.4979
2.655	19.8584
2.647	19.7451
2.639	20.3425
2.631	20.1468
2.623	20.2086
2.615	20.5073
2.607	20.5382
2.599	20.1777
2.592	20.291
2.584	20.9914
2.576	20.8781
2.569	20.2292
2.561	20.6515
2.553	20.3219
2.546	19.8893
2.538	20.188
2.531	19.6421
2.524	20.5691
2.516	20.3219
2.509	20.2086
2.502	19.7245
2.48	20.2023
2.456	20.7106
2.432	20.6079
2.408	20.9685
2.384	21.2503
2.36	21.4831
2.336	22.1836
2.312	21.9269
2.288	22.1861
2.264	22.2556
2.24	22.2548
2.216	22.6079
2.192	22.979
2.168	23.1231
2.144	23.5831
2.12	23.5509
2.096	23.359
2.072	23.6216
2.048	23.7137
2.024	23.6172
2	23.4828
1.976	23.3254
1.952	23.3
1.928	22.9249
1.904	23.2078
1.88	24.6891
1.856	25.1755
1.832	25.4151
1.808	25.4886
1.784	25.649
1.76	25.7361
1.736	25.7984
1.712	25.9197
1.688	25.9791
1.664	26.0736
1.64	26.1031
1.616	26.1313
1.592	26.099
1.568	26.1079
1.544	26.0638
1.52	25.9478
1.496	25.8294
1.472	25.7505
1.448	25.5333
1.424	25.4201
1.4	25.4811
1.376	25.6415
1.352	25.5804
1.328	25.6227
1.304	25.4982
1.28	25.4223
1.256	25.3269
1.232	25.2381
1.208	25.0971
1.184	24.8891
1.16	24.7519
1.136	24.5009
1.112	24.1346
1.088	23.8196
1.064	23.5114
1.04	23.2629
1.016	23.1853
0.992	23.1275
0.968	23.0858
0.944	23.1879
0.92	23.4672
0.896	23.5324
0.872	23.7182
0.836	21.292
0.812	23.0494
0.788	22.8527
0.764	22.6744
0.74	22.4666
0.716	22.1289
0.692	21.7645
0.668	21.1456
0.644	20.4444
0.62	19.8513
0.596	19.2092
0.572	18.3017
0.548	17.1312
0.524	16.1123
0.5	15.3379
0.476	14.3848
0.452	13.9095
0.428	12.8825
0.404	12.1417
