Name: Limestone CaCO3
Type: Rock
Class: Sedimentary
Subclass: Limestone
Particle Size: Solid
Sample No.: ro337
Owner: Larry Rowan, USGS
Wavelength Range: All
Origin: Ronda, Spain
Description: Gray limestone Sample was Whole rock chips. Original ASTER Spectral Library name was usgs.perknic.rock.sedimentary.limestone.solid.ls337.spectrum.txt
Measurement: Reflectance
X Units: Wavelength (micrometers)
Y Units: Reflectance (percent)
wavelength	value
0.4	0.252
0.408	0.25
0.416	0.249
0.424	0.25
0.432	0.252
0.44	0.252
0.448	0.253
0.456	0.255
0.464	0.254
0.472	0.255
0.48	0.256
0.488	0.26
0.496	0.264
0.504	0.267
0.512	0.271
0.52	0.274
0.528	0.276
0.536	0.282
0.544	0.284
0.552	0.287
0.56	0.294
0.568	0.295
0.576	0.302
0.584	0.303
0.592	0.305
0.6	0.31
0.608	0.311
0.616	0.311
0.624	0.319
0.632	0.32
0.64	0.324
0.648	0.327
0.656	0.328
0.664	0.332
0.672	0.333
0.68	0.338
0.688	0.341
0.696	0.346
0.704	0.348
0.712	0.352
0.72	0.358
0.728	0.361
0.736	0.364
0.744	0.365
0.752	0.372
0.76	0.377
0.768	0.375
0.776	0.38
0.784	0.385
0.792	0.388
0.8	0.396
0.832	0.405
0.864	0.416
0.896	0.425
0.928	0.433
0.96	0.44
0.992	0.447
1.024	0.455
1.056	0.466
1.088	0.475
1.12	0.48
1.152	0.488
1.184	0.498
1.216	0.502
1.248	0.512
1.28	0.518
1.312	0.521
1.344	0.526
1.376	0.525
1.408	0.518
1.44	0.52
1.472	0.532
1.504	0.54
1.536	0.545
1.568	0.552
1.6	0.557
1.632	0.554
1.664	0.558
1.696	0.562
1.728	0.557
1.76	0.559
1.792	0.567
1.824	0.553
1.856	0.532
1.888	0.512
1.92	0.49
1.952	0.486
1.984	0.487
2.016	0.529
2.048	0.545
2.08	0.551
2.1021	0.5401
2.109	0.5403
2.1159	0.5334
2.1228	0.5338
2.1298	0.5272
2.1368	0.5321
2.1438	0.5177
2.1509	0.5024
2.1581	0.5059
2.1653	0.5111
2.1726	0.5159
2.1799	0.5255
2.1872	0.5222
2.1946	0.5246
2.2021	0.5217
2.2096	0.5145
2.2172	0.5099
2.2248	0.503
2.2324	0.4906
2.2401	0.4786
2.2479	0.4645
2.2557	0.4433
2.2636	0.4244
2.2715	0.3998
2.2795	0.3692
2.2876	0.3434
2.2957	0.3316
2.3038	0.3205
2.3121	0.3095
2.3203	0.2967
2.3287	0.2721
2.3371	0.2541
2.3455	0.2617
2.354	0.2991
2.3626	0.3625
2.3712	0.4126
2.38	0.44
2.3887	0.4513
2.3976	0.4443
2.4065	0.4412
2.4154	0.437
2.4245	0.4149
2.4336	0.3899
2.4427	0.3705
2.452	0.3422
2.4613	0.3125
2.4707	0.2748
2.4801	0.2461
2.4896	0.2261
2.4992	0.225
2.5089	0.2164
2.5187	0.1985
2.5285	0.1723
2.5384	0.1674
2.5484	0.2029
2.5584	0.2705
2.5686	0.3265
2.5788	0.3517
2.5891	0.379
2.5995	0.3998
2.6099	0.4095
2.6205	0.4117
2.6311	0.4098
2.6418	0.4039
2.6526	0.3932
2.6635	0.3809
2.6745	0.3582
2.6856	0.3345
2.6968	0.285
2.708	0.237
2.7194	0.1856
2.7309	0.1545
2.7424	0.1292
2.7541	0.1144
2.7658	0.1039
2.7777	0.0959
2.7896	0.086
2.8017	0.0884
2.8138	0.0866
2.8261	0.0824
2.8385	0.0787
2.851	0.0765
2.8636	0.073
2.8763	0.0706
2.8891	0.0694
2.902	0.0688
2.915	0.0677
2.9282	0.0654
2.9415	0.0675
2.9549	0.0649
2.9684	0.0667
2.9821	0.0684
2.9959	0.0673
3.0098	0.0666
3.0238	0.0668
3.038	0.0671
3.0523	0.0675
3.0667	0.0685
3.0813	0.0685
3.096	0.0681
3.1109	0.0683
3.1259	0.071
3.141	0.0715
3.1563	0.0732
3.1718	0.0769
3.1874	0.0795
3.2031	0.0812
3.219	0.0825
3.2351	0.0818
3.2513	0.081
3.2677	0.0794
3.2843	0.0774
3.301	0.0731
3.3179	0.0664
3.3349	0.055
3.3522	0.0457
3.3696	0.0471
3.3872	0.0472
3.405	0.0459
3.423	0.046
3.4412	0.0475
3.4595	0.0445
3.4781	0.0435
3.4968	0.0452
3.5158	0.0487
3.535	0.0616
3.5544	0.0727
3.574	0.0753
3.5938	0.0921
3.6138	0.1017
3.6341	0.1073
3.6545	0.1103
3.6753	0.1114
3.6962	0.1105
3.7174	0.1048
3.7389	0.0972
3.7605	0.0877
3.7825	0.0736
3.8047	0.0532
3.8272	0.0457
3.8499	0.045
3.8729	0.0446
3.8962	0.0436
3.9197	0.0428
3.9436	0.041
3.9677	0.0363
3.9921	0.0391
4.0169	0.0453
4.0419	0.0515
4.0673	0.0591
4.093	0.0653
4.119	0.0719
4.1453	0.0787
4.172	0.0837
4.199	0.0861
4.2264	0.0859
4.2541	0.0775
4.2822	0.0742
4.3107	0.0806
4.3395	0.082
4.3688	0.0857
4.3984	0.0826
4.4285	0.0764
4.4589	0.0684
4.4898	0.0622
4.5211	0.0591
4.5529	0.0581
4.5851	0.0556
4.6177	0.0515
4.6509	0.0453
4.6845	0.0446
4.7186	0.0509
4.7532	0.0567
4.7883	0.0575
4.8239	0.0566
4.8601	0.0556
4.8968	0.0547
4.9341	0.054
4.9719	0.0541
5.0103	0.0547
5.0493	0.0549
5.089	0.0464
5.1292	0.0553
5.1702	0.0564
5.2117	0.0567
5.254	0.0568
5.2969	0.0553
5.3405	0.0526
5.3849	0.0482
5.43	0.0437
5.4759	0.0385
5.5225	0.0295
5.57	0.0217
5.6182	0.0292
5.6673	0.0301
5.7173	0.029
5.7682	0.03
5.82	0.0349
5.8727	0.0406
5.9264	0.0426
5.9811	0.0456
6.0368	0.0473
6.0935	0.0532
6.1513	0.0629
6.2103	0.0794
6.2703	0.0959
6.3316	0.1277
6.394	0.1876
6.4577	0.2223
6.5227	0.232
6.589	0.2084
6.6566	0.177
6.7257	0.1603
6.7962	0.1502
6.8682	0.1453
6.9418	0.1434
7.0169	0.1461
7.0937	0.1421
7.1722	0.1105
7.2524	0.0981
7.3345	0.0989
7.4184	0.0978
7.5043	0.0954
7.5922	0.0932
7.6821	0.0989
7.7743	0.0995
7.8686	0.0991
7.9653	0.1006
8.0644	0.0962
8.166	0.0981
8.2701	0.0925
8.377	0.0811
8.4867	0.0751
8.5992	0.0721
8.7149	0.0837
8.8336	0.09
8.9556	0.0904
9.0811	0.0886
9.2101	0.0769
9.3428	0.0847
9.4795	0.0891
9.6201	0.0827
9.765	0.0775
9.9144	0.0766
10.0684	0.083
10.2272	0.0969
10.3911	0.1104
10.5604	0.108
10.7353	0.1231
10.9161	0.1588
11.103	0.188
11.2965	0.1125
11.4968	0.0855
11.7044	0.0547
11.9196	0.0512
12.1429	0.0525
12.3747	0.053
12.6155	0.053
12.8659	0.0516
13.1264	0.0564
13.3977	0.0565
13.6804	0.0418
13.9753	0.0364
