Name: Purple Quartzite
Type: rock
Class: Metamorphic
Subclass: Quartzite
Particle Size: Coarse
Sample No.: qrtzit4
Owner: JHU
Wavelength Range: All
Origin: Sample No. 378, The Hunt and Salisbury Collection at the U.S.Geological Survey, Denver, Co.
Description: A schistose sample consisting of medium to coarse-grained recrystallized quartz with some muscovite that often contains ferruginous material.  In addition there are scattered opaques present in this sample.  The modal analyses for this rock are 88.2% quartz, 7.2% muscovite, 3.5% opaques and 1.1% other.  Particle size was 500-1500 Micrometer. Original ASTER Spectral Library name was jhu.becknic.rock.metamorphic.quartzite.coarse.qrtzit4.spectrum.txt
Measurement: Directional (10 Degree) Hemispherical Reflectance
X Units: Wavelength (micrometers)
Y Units: Reflectance (percent)
wavelength	value
14.9831	2.5898
14.6445	3.2813
14.3209	2.505
14.0112	2.8742
13.7147	3.1605
13.4304	3.6948
13.1577	4.3953
12.8959	7.4185
12.6443	5.829
12.4023	5.2568
12.1694	1.5078
11.945	2.3175
11.7289	2.7985
11.5203	3.2574
11.3191	3.6238
11.1248	4.0311
10.937	4.5272
10.7555	4.6252
10.5799	4.984
10.4099	5.353
10.2454	6.0009
10.0859	6.9314
9.9313	8.2135
9.7814	9.3298
9.636	11.8818
9.4948	15.3613
9.3577	27.1635
9.2245	33.0334
9.095	32.9427
8.9691	32.0083
8.8467	33.8621
8.7275	31.4941
8.6116	21.7631
8.4986	31.9732
8.3886	31.1995
8.2814	31.1754
8.1769	30.4832
8.075	19.0594
7.9756	10.6588
7.8786	4.9843
7.784	2.6658
7.6916	1.4294
7.6014	0.7685
7.5133	0.548
7.4272	0.45
7.343	0.4346
7.2607	0.4518
7.1803	0.5108
7.1016	0.5376
7.0246	0.6077
6.9493	0.6624
6.8755	0.655
6.8034	0.6799
6.7327	0.75
6.6634	0.8274
6.5956	0.8665
6.5292	0.8753
6.464	0.9653
6.4002	1.0271
6.3376	1.0107
6.2762	1.0058
6.216	0.9565
6.157	1.0022
6.099	1.0969
6.0421	1.1253
5.9863	1.1642
5.9315	1.1625
5.8777	1.2504
5.8249	1.3454
5.773	1.4216
5.722	1.5234
5.6719	1.4867
5.6227	1.3778
5.5744	1.3958
5.5268	1.4157
5.4801	1.4784
5.4341	1.5279
5.3889	1.4495
5.3445	1.4064
5.3008	1.4216
5.2578	1.4687
5.2154	1.5831
5.1738	1.6319
5.1328	1.6688
5.0925	1.662
5.0528	1.6629
5.0137	1.6816
4.9752	1.7259
4.9373	1.8618
4.9	2.3206
4.8632	3.8885
4.827	5.5799
4.7913	7.1353
4.7561	8.5557
4.7215	9.1908
4.6873	7.1421
4.6536	9.1681
4.6205	12.5427
4.5877	14.0557
4.5555	13.4327
4.5237	9.7033
4.4923	6.3244
4.4614	5.8541
4.4309	7.001
4.4008	8.6116
4.3711	11.4278
4.3418	13.9541
4.3129	14.0583
4.2844	13.3867
4.2563	14.7801
4.2285	15.3805
4.2011	15.9259
4.174	17.131
4.1473	18.4101
4.1209	19.9498
4.0949	21.9514
4.0692	23.5224
4.0438	23.7301
4.0187	23.4232
3.994	23.7019
3.9695	24.8837
3.9453	26.3962
3.9214	27.2902
3.8979	26.8954
3.8746	25.7845
3.8515	25.2969
3.8288	25.7748
3.8063	26.4118
3.7841	26.149
3.7621	25.0977
3.7404	24.437
3.7189	25.1302
3.6977	26.7275
3.6767	28.8951
3.656	30.4285
3.6355	31.0165
3.6152	31.2152
3.5951	31.506
3.5753	32.0255
3.5557	32.7381
3.5363	33.3176
3.5171	33.4031
3.4981	33.63
3.4793	34.1432
3.4607	34.1443
3.4423	33.6771
3.4241	33.0455
3.4061	32.5321
3.3883	32.3846
3.3707	32.0398
3.3533	32.0308
3.336	31.7118
3.3189	31.2578
3.302	30.5691
3.2853	29.8255
3.2687	29.0668
3.2523	28.3691
3.2361	27.6004
3.22	26.7929
3.204	25.8752
3.1883	24.962
3.1727	24.1386
3.1572	23.2489
3.1419	22.1023
3.1268	21.1512
3.1117	20.6792
3.0969	20.2657
3.0821	19.7305
3.0675	19.112
3.0531	18.3909
3.0388	17.5916
3.0246	17.0548
3.0105	16.7656
2.9966	16.5056
2.9828	16.1021
2.9692	15.0627
2.9556	14.3203
2.9422	14.8412
2.9289	14.7145
2.9157	14.3738
2.9027	14.3364
2.8897	14.2442
2.8769	14.1232
2.8642	14.1481
2.8516	14.1365
2.8391	14.2703
2.8267	14.2042
2.8144	13.8142
2.8022	13.0642
2.7902	11.9365
2.7782	10.6444
2.7664	7.9852
2.7546	8.3264
2.7429	7.8978
2.7314	7.975
2.7199	8.4174
2.7085	8.5093
2.6973	11.0955
2.6861	16.9522
2.675	21.9957
2.664	25.3495
2.6531	27.5976
2.6423	28.8967
2.6315	30.0249
2.6209	30.7927
2.6103	30.9445
2.5999	31.2282
2.5895	31.7478
2.5792	32.328
2.569	32.7691
2.5588	33.6439
2.5487	34.0025
2.5388	34.3542
2.5289	34.5052
2.519	34.4929
2.5093	34.4141
2.4996	34.5048
2.49	34.4659
2.4805	34.9782
2.471	35.3763
2.4616	35.3838
2.4523	35.3471
2.4431	35.3692
2.4339	35.8527
2.4248	36.6998
2.4157	37.4884
2.4068	38.0577
2.3979	38.1259
2.389	37.63
2.3802	37.564
2.3715	38.4984
2.3629	38.8762
2.3543	38.6813
2.3458	38.942
2.3373	39.6231
2.3289	39.849
2.3206	40.3115
2.3123	41.092
2.3041	42.1812
2.2959	42.9439
2.2878	43.6849
2.2798	44.2632
2.2718	44.7106
2.2638	44.9502
2.2559	45.071
2.2481	44.9931
2.2403	44.5422
2.2326	44.1515
2.225	43.6693
2.2173	41.7383
2.2098	35.1129
2.2023	37.0451
2.1948	37.338
2.1874	38.1449
2.18	39.1172
2.1727	39.8883
2.1655	40.4278
2.1583	42.4355
2.1511	44.2587
2.144	46.1052
2.1369	47.0828
2.1299	47.6428
2.1229	48.0532
2.116	48.1357
2.1091	48.5283
2.1023	49.0554
2.0955	49.1819
2.0887	49.351
2.082	49.6655
2.06	50.4935
2.028	50.8342
1.996	50.8148
1.964	50.5961
1.932	50.0194
1.9	50.4061
1.868	51.9978
1.836	52.3036
1.804	52.5668
1.772	52.1689
1.74	52.963
1.708	52.7497
1.676	52.999
1.644	53.4227
1.612	52.9145
1.58	53.0198
1.548	52.8697
1.516	53.3771
1.484	53.2067
1.452	52.779
1.42	51.5253
1.388	46.3965
1.356	52.499
1.324	53.1208
1.292	53.346
1.26	54.0382
1.228	54.2427
1.196	54.8987
1.164	54.6978
1.132	54.6445
1.1	54.3347
1.068	54.7136
1.036	54.2772
1.004	54.0108
0.972	53.1376
0.94	51.9865
0.908	51.3435
0.876	50.7406
0.844	50.8876
0.812	51.3296
0.795	52.7104
0.787	52.9761
0.779	53.0344
0.771	53.3201
0.763	53.1508
0.755	53.0746
0.747	53.189
0.739	53.1968
0.731	52.7562
0.723	52.8005
0.715	52.5774
0.707	52.234
0.699	51.6174
0.691	50.712
0.683	50.1768
0.675	49.7122
0.667	49.1328
0.659	49.1131
0.651	48.3299
0.643	48.3337
0.635	48.0878
0.627	47.8945
0.619	47.322
0.611	46.8741
0.603	46.2129
0.595	45.7536
0.587	44.3475
0.579	42.7445
0.571	41.9319
0.563	40.367
0.555	39.5416
0.547	38.2497
0.539	37.6152
0.531	37.7842
0.523	36.8473
0.515	37.037
0.507	36.6522
0.499	36.0355
0.491	35.9528
0.483	35.7912
0.475	35.7972
0.467	35.3185
0.459	35.3339
0.451	34.4689
0.443	33.9023
0.435	33.4706
0.427	33.406
0.419	33.1382
0.411	32.7733
0.403	32.2816
