Name: Unaltered volcanic tuff
Type: Rock
Class: Igneous
Subclass: Mafic
Particle Size: Solid
Sample No.: Cup9
Owner: USGS
Wavelength Range: All
Origin: Cuprite, Nevada
Description: Unaltered volcanic tuff, Dark brown gray.Sample was Whole rock chips. Original ASTER Spectral Library name was usgs.perknic.rock.igneous.felsic.solid.cup9.spectrum.txt
Measurement: Directional Hemispherical Reflectance
X Units: Wavelength (micrometers)
Y Units: Reflectance (percent)
wavelength	value
13.9	2.451
13.68	2.317
13.467	2.41
13.261	2.627
13.06	2.627
12.866	2.833
12.677	2.812
12.494	2.771
12.316	3.121
12.143	3.317
11.975	3.646
11.811	3.976
11.652	4.151
11.497	4.594
11.346	4.934
11.199	4.903
11.056	5.191
10.916	5.335
10.78	5.202
10.647	5.511
10.518	5.912
10.391	6.736
10.268	7.663
10.147	8.786
10.029	9.733
9.914	10.97
9.802	11.835
9.692	12.617
9.585	13.174
9.479	12.844
9.377	12.102
9.276	11.443
9.178	11.278
9.081	11.186
8.987	10.98
8.894	10.465
8.804	9.62
8.715	8.631
8.628	7.457
8.543	6.427
8.459	5.418
8.377	4.11
8.297	3.966
8.218	3.79
8.14	3.595
8.064	3.131
7.99	3.409
7.917	3.554
7.845	3.564
7.774	3.492
7.705	3.358
7.637	3.214
7.57	3.193
7.504	3.152
7.44	3.152
7.376	3.172
7.314	3.131
7.252	3.08
7.192	3.018
7.133	3.069
7.074	3.1
7.017	2.915
6.96	2.781
6.905	2.729
6.85	2.884
6.796	2.833
6.743	2.802
6.691	2.853
6.64	2.936
6.589	3.142
6.539	3.131
6.49	3.306
6.442	3.492
6.394	3.44
6.347	3.296
6.301	3.038
6.255	2.822
6.21	2.647
6.166	2.513
6.122	2.493
6.079	2.462
6.037	2.616
5.995	2.802
5.954	3.152
5.913	3.43
5.873	3.626
5.833	3.687
5.794	3.698
5.755	3.656
5.717	3.626
5.68	3.574
5.643	3.636
5.606	3.667
5.57	3.626
5.534	3.914
5.499	4.213
5.464	4.378
5.43	4.501
5.396	4.398
5.363	3.955
5.33	3.801
5.297	3.924
5.265	4.388
5.233	5.222
5.201	6.108
5.17	6.685
5.139	7.097
5.109	7.2
5.079	7.2
5.049	6.963
5.02	6.942
4.991	7.086
4.962	7.292
4.934	7.952
4.906	9.239
4.878	10.454
4.851	11.371
4.824	11.979
4.797	12.525
4.771	12.813
4.744	12.988
4.719	13.184
4.693	13.421
4.668	13.431
4.643	13.472
4.618	13.977
4.593	14.472
4.569	14.791
4.545	15.306
4.521	15.635
4.498	16.068
4.474	16.367
4.451	16.501
4.428	16.521
4.406	16.696
4.384	17.047
4.361	17.572
4.34	18.262
4.318	18.787
4.296	19.436
4.275	19.93
4.254	20.075
4.233	20.528
4.213	20.538
4.192	20.456
4.172	20.631
4.152	20.703
4.132	20.847
4.112	21.033
4.093	20.981
4.074	21.012
4.055	20.899
4.036	20.682
4.017	20.085
3.998	19.22
3.98	18.386
3.962	18.643
3.944	19.385
3.926	19.951
3.908	19.941
3.89	20.157
3.873	20.054
3.856	20.003
3.838	20.044
3.822	20.126
3.805	20.27
3.788	20.363
3.771	20.363
3.755	20.137
3.739	19.951
3.723	19.817
3.707	19.683
3.691	19.518
3.675	19.302
3.66	19.199
3.644	18.962
3.629	18.736
3.614	18.499
3.599	18.241
3.584	17.984
3.569	17.675
3.554	17.335
3.54	16.923
3.525	16.655
3.511	15.903
3.497	15.471
3.483	15.079
3.469	14.925
3.455	14.739
3.441	14.461
3.428	14.059
3.414	13.761
3.401	13.411
3.387	13.215
3.374	12.968
3.361	12.731
3.348	12.36
3.335	12.319
3.322	12.133
3.309	11.783
3.297	11.577
3.284	11.052
3.272	10.846
3.259	10.599
3.247	10.279
3.235	9.991
3.223	9.672
3.211	9.383
3.199	8.961
3.187	8.652
3.176	8.518
3.164	8.137
3.152	7.715
3.141	7.735
3.13	7.354
3.118	7.035
3.107	6.87
3.096	6.674
3.085	6.479
3.074	6.448
3.063	6.345
3.052	6.19
3.042	6.159
3.031	6.005
3.02	5.861
3.01	5.819
2.999	5.83
2.989	5.737
2.979	5.624
2.968	5.562
2.958	5.202
2.948	5.202
2.938	5.511
2.928	5.449
2.918	5.335
2.909	5.397
2.899	5.387
2.889	5.552
2.879	5.335
2.87	5.871
2.86	5.984
2.851	5.861
2.842	5.995
2.832	6.139
2.823	6.19
2.814	5.881
2.805	5.747
2.796	5.984
2.787	5.727
2.778	5.789
2.769	5.686
2.76	5.407
2.751	5.716
2.742	6.633
2.734	7.684
2.725	9.342
2.717	10.939
2.708	11.691
2.7	13.678
2.691	17.5
2.683	19.652
2.675	20.724
2.666	21.311
2.658	21.578
2.65	21.445
2.642	21.671
2.634	22.166
2.626	22.093
2.618	22.001
2.61	21.918
2.602	21.939
2.594	22.402
2.586	22.042
2.579	22.032
2.571	22.32
2.563	22.382
2.556	22.207
2.548	22.217
2.541	21.795
2.533	22.217
2.526	21.815
2.519	22.145
2.511	21.795
2.504	21.898
2.488	22.508
2.464	22.223
2.44	22.57
2.416	22.817
2.392	23.241
2.368	23.04
2.344	22.913
2.32	23.014
2.296	22.967
2.272	22.97
2.248	22.818
2.224	22.909
2.2	23.056
2.176	23.282
2.152	23.372
2.128	23.075
2.104	22.731
2.08	22.658
2.056	22.632
2.032	22.587
2.008	22.547
1.984	22.383
1.96	22.291
1.936	22.057
1.912	21.515
1.888	22.007
1.864	22.176
1.84	22.196
1.816	22.095
1.792	22.177
1.768	22.131
1.744	22.108
1.72	22.074
1.696	22.04
1.672	21.964
1.648	21.867
1.624	21.838
1.6	21.799
1.576	21.695
1.552	21.74
1.528	21.601
1.504	21.567
1.48	21.563
1.456	21.497
1.432	21.413
1.408	21.401
1.384	21.579
1.36	21.452
1.336	21.748
1.312	21.527
1.288	21.542
1.264	21.491
1.24	21.525
1.216	21.578
1.192	21.503
1.168	21.519
1.144	21.485
1.12	21.379
1.096	21.41
1.072	21.314
1.048	21.171
1.024	21.008
1	20.812
0.976	20.59
0.952	20.362
0.928	20.122
0.904	20.31
0.88	20.291
0.856	19.92
0.832	19.996
0.808	19.901
0.784	19.684
0.76	19.488
0.736	19.141
0.712	18.689
0.688	18.168
0.664	17.494
0.64	16.856
0.616	16.18
0.592	15.128
0.568	13.608
0.544	12.239
0.52	11.381
0.496	10.769
0.472	10.297
0.448	9.848
0.424	9.16
0.4	8.681
