Name: Red Slate
Type: Rock
Class: Metamorphic
Subclass: Slate
Particle Size: Solid
Sample No.: Ward91
Owner: JPL
Wavelength Range: VSWIR
Origin: Ward's Collection of American Rocks.  Sample locality - Granville, Washington County, New York.  Collected by - JPL.
Description: A fine, red, fissile rock.  Geologic age - CambrianCollected by:  Ward's Natural Science Original ASTER Spectral Library name was jpl.perkin.rock.metamorphic.slate.solid.ward91.spectrum.txt
Measurement: Hemispherical reflectance
X Units: Wavelength (micrometers)
Y Units: Reflectance (percent)
wavelength	value
2.5	15.5472
2.494	15.3223
2.488	15.5403
2.482	15.4382
2.476	15.3676
2.47	15.3529
2.464	15.2705
2.458	15.3703
2.452	15.4212
2.446	15.4201
2.44	15.4394
2.434	15.455
2.428	15.6284
2.422	15.6253
2.416	15.8048
2.41	15.855
2.404	15.8921
2.398	15.9343
2.392	15.8986
2.386	15.8793
2.38	15.8481
2.374	15.8309
2.368	15.7286
2.362	15.6691
2.356	15.5597
2.35	15.4976
2.344	15.5285
2.338	15.6988
2.332	15.8324
2.326	15.9219
2.32	16.1766
2.314	16.2996
2.308	16.5369
2.302	16.5601
2.296	16.6252
2.29	16.5982
2.284	16.6349
2.278	16.6372
2.272	16.5477
2.266	16.3888
2.26	16.2299
2.254	16.0428
2.248	15.984
2.242	15.8883
2.236	15.7792
2.23	15.608
2.224	15.6167
2.218	15.8513
2.212	16.2532
2.206	16.6035
2.2	16.8299
2.194	17.0231
2.188	17.1743
2.182	17.3392
2.176	17.3642
2.17	17.4235
2.164	17.4625
2.158	17.5474
2.152	17.5025
2.146	17.5065
2.14	17.4739
2.134	17.3992
2.128	17.3173
2.122	17.4025
2.116	17.2639
2.11	17.2412
2.104	17.2335
2.098	17.2014
2.092	17.2847
2.086	17.3615
2.08	17.3987
2.074	17.4157
2.068	17.4615
2.062	17.4705
2.056	17.4594
2.05	17.5158
2.044	17.5732
2.038	17.5565
2.032	17.6498
2.026	17.5839
2.02	17.5493
2.014	17.5774
2.008	17.6157
2.002	17.6041
1.996	17.6028
1.99	17.5974
1.984	17.6465
1.978	17.7017
1.972	17.7856
1.966	17.7582
1.96	17.7067
1.954	17.8055
1.948	17.8385
1.942	17.8557
1.936	17.8472
1.93	17.906
1.924	17.9165
1.918	17.8612
1.912	17.9229
1.906	17.9369
1.9	17.9051
1.894	18.008
1.888	18.1127
1.882	18.1039
1.876	18.1804
1.87	18.1232
1.864	18.1882
1.858	18.2499
1.852	18.2752
1.846	18.2936
1.84	18.3083
1.834	18.3208
1.828	18.3327
1.822	18.3437
1.816	18.365
1.81	18.4039
1.804	18.4451
1.798	18.5248
1.792	18.5137
1.786	18.5352
1.78	18.5659
1.774	18.5914
1.768	18.5939
1.762	18.6336
1.756	18.5978
1.75	18.6994
1.744	18.7189
1.738	18.788
1.732	18.795
1.726	18.7871
1.72	18.8573
1.714	18.8831
1.708	19.0091
1.702	18.8831
1.696	18.9512
1.69	19.0269
1.684	19.0815
1.678	19.0105
1.672	19.1101
1.666	19.1826
1.66	19.1878
1.654	19.2914
1.648	19.2926
1.642	19.3764
1.636	19.2976
1.63	19.2387
1.624	19.3547
1.618	19.4387
1.612	19.4511
1.606	19.4968
1.6	19.5946
1.594	19.5632
1.588	19.6405
1.582	19.5788
1.576	19.6872
1.57	19.6883
1.564	19.7111
1.558	19.7937
1.552	19.8542
1.546	19.9012
1.54	19.9316
1.534	19.9817
1.528	20.0729
1.522	20.0491
1.516	20.1359
1.51	20.1823
1.504	20.1777
1.498	20.2809
1.492	20.3846
1.486	20.3862
1.48	20.432
1.474	20.5009
1.468	20.5789
1.462	20.5882
1.456	20.6491
1.45	20.7045
1.444	20.7307
1.438	20.7051
1.432	20.6819
1.426	20.5978
1.42	20.5964
1.414	20.5959
1.408	20.828
1.402	21.0719
1.396	21.2165
1.39	21.363
1.384	21.6081
1.378	21.6003
1.372	21.6498
1.366	21.7814
1.36	21.7938
1.354	21.9575
1.348	21.96
1.342	22.0351
1.336	22.1578
1.33	22.2859
1.324	22.3505
1.318	22.4059
1.312	22.5319
1.306	22.5827
1.3	22.6594
1.294	22.8009
1.288	22.9074
1.282	22.9825
1.276	23.0457
1.27	23.1589
1.264	23.2954
1.258	23.2877
1.252	23.3907
1.246	23.5195
1.24	23.6711
1.234	23.7388
1.228	23.8816
1.222	23.9601
1.216	24.0607
1.21	24.1824
1.204	24.2905
1.198	24.4202
1.192	24.4974
1.186	24.6305
1.18	24.7427
1.174	24.8443
1.168	25.0067
1.162	25.1513
1.156	25.2723
1.15	25.3764
1.144	25.5716
1.138	25.688
1.132	25.7868
1.126	25.8987
1.12	26.0878
1.114	26.24
1.108	26.4392
1.102	26.5379
1.096	26.7489
1.09	26.8345
1.084	27.0068
1.078	27.1164
1.072	27.3816
1.066	27.5181
1.06	27.5941
1.054	27.7402
1.048	27.9017
1.042	28.0975
1.036	28.2039
1.03	28.3731
1.024	28.3749
1.018	28.6021
1.012	28.5746
1.006	28.6991
1	28.6922
0.994	28.6925
0.988	28.7684
0.982	28.6848
0.976	28.6611
0.97	28.5023
0.964	28.4128
0.958	28.3222
0.952	28.2031
0.946	28.0497
0.94	27.9456
0.934	27.7686
0.928	27.6701
0.922	27.5747
0.916	27.4129
0.91	27.3848
0.904	27.283
0.898	27.2061
0.892	27.2896
0.886	27.1782
0.88	27.2008
0.874	27.216
0.868	27.2682
0.862	27.2644
0.856	27.5173
0.85	27.6011
0.844	27.67
0.838	27.7814
0.832	27.9022
0.826	28.0314
0.82	28.181
0.814	28.2891
0.808	28.4137
0.802	28.4845
0.796	28.5809
0.79	28.6344
0.784	28.6891
0.778	28.7107
0.772	28.6948
0.766	28.6615
0.76	28.6139
0.754	28.5056
0.748	28.3926
0.742	28.223
0.736	28.0316
0.73	27.8171
0.724	27.5805
0.718	27.3082
0.712	27.0321
0.706	26.7628
0.7	26.4805
0.694	26.2162
0.688	25.9342
0.682	25.6862
0.676	25.4412
0.67	25.2191
0.664	25.0121
0.658	24.8133
0.652	24.6333
0.646	24.4515
0.64	24.293
0.634	24.1303
0.628	23.9689
0.622	23.7869
0.616	23.5638
0.61	23.2988
0.604	22.9428
0.598	22.4787
0.592	21.8832
0.586	21.1161
0.58	20.2099
0.574	19.237
0.568	18.2746
0.562	17.4398
0.556	16.6961
0.55	16.1613
0.544	15.7954
0.538	15.5423
0.532	15.3822
0.526	15.2947
0.52	15.2329
0.514	15.2054
0.508	15.177
0.502	15.1401
0.496	15.0917
0.49	15.0438
0.484	14.994
0.478	15.0583
0.472	15.1029
0.466	15.1268
0.46	15.1456
0.454	15.156
0.448	15.1485
0.442	15.1624
0.436	15.2014
0.43	15.2352
0.424	15.2741
0.418	15.3153
0.412	15.3583
0.406	15.4055
0.4	15.4493
