Name: Hornblende Granite
Type: Rock
Class: Igneous
Subclass: Felsic
Particle Size: Solid
Sample No.: Ward14
Owner: JPL
Wavelength Range: VSWIR
Origin: Ward's Collection of American Rocks.  Sample locality - Rockport, Essex County, Massachusetts.
Description: A gray, granular rock consisting of feldspar, quartz andhornblende.Geologic age - Carboniferous (probably Mississippian).Collected by:  Ward's Natural Science Original ASTER Spectral Library name was jpl.perkin.rock.igneous.felsic.solid.ward14.spectrum.txt
Measurement: Hemispherical reflectance
X Units: Wavelength (micrometers)
Y Units: Reflectance (percent)
wavelength	value
2.5	36.6417
2.494	36.6205
2.488	36.901
2.482	37.143
2.476	37.2244
2.47	37.5288
2.464	37.7127
2.458	37.971
2.452	38.3237
2.446	38.3642
2.44	38.6012
2.434	38.7677
2.428	38.9338
2.422	39.0268
2.416	39.1756
2.41	39.4564
2.404	39.6203
2.398	39.8252
2.392	40.0254
2.386	40.2789
2.38	40.4275
2.374	40.5569
2.368	40.7477
2.362	40.8674
2.356	40.9732
2.35	41.0962
2.344	41.2216
2.338	41.422
2.332	41.4975
2.326	41.6042
2.32	41.6942
2.314	41.8862
2.308	42.0318
2.302	42.1532
2.296	42.3665
2.29	42.4879
2.284	42.467
2.278	42.6505
2.272	42.7704
2.266	42.8922
2.26	42.9737
2.254	43.0526
2.248	43.1969
2.242	43.3107
2.236	43.3739
2.23	43.4029
2.224	43.5558
2.218	43.5892
2.212	43.6732
2.206	43.8101
2.2	43.9008
2.194	43.9176
2.188	44.0292
2.182	44.1426
2.176	44.2588
2.17	44.2127
2.164	44.3665
2.158	44.3399
2.152	44.4039
2.146	44.499
2.14	44.4014
2.134	44.3075
2.128	44.203
2.122	44.0341
2.116	43.7828
2.11	43.5315
2.104	43.274
2.098	43.1057
2.092	43.0623
2.086	42.943
2.08	42.8444
2.074	42.7218
2.068	42.6274
2.062	42.4927
2.056	42.3854
2.05	42.2335
2.044	42.0301
2.038	41.8847
2.032	41.7227
2.026	41.5318
2.02	41.3197
2.014	41.0728
2.008	40.83
2.002	40.5554
1.996	40.2509
1.99	40.0211
1.984	39.6418
1.978	39.419
1.972	39.0968
1.966	38.739
1.96	38.5982
1.954	38.3037
1.948	38.1825
1.942	37.9244
1.936	37.8279
1.93	37.7905
1.924	37.7999
1.918	37.9416
1.912	38.1663
1.906	38.6454
1.9	39.4721
1.894	40.4921
1.888	41.5439
1.882	42.2335
1.876	42.7126
1.87	43.3713
1.864	43.353
1.858	43.4171
1.852	43.3804
1.846	43.4108
1.84	43.3976
1.834	43.3937
1.828	43.2454
1.822	43.127
1.816	43.0426
1.81	42.9669
1.804	42.9154
1.798	42.8923
1.792	42.85
1.786	42.7345
1.78	42.6653
1.774	42.797
1.768	42.657
1.762	42.6021
1.756	42.5909
1.75	42.5218
1.744	42.4826
1.738	42.4785
1.732	42.4356
1.726	42.3561
1.72	42.3613
1.714	42.3145
1.708	42.1434
1.702	42.0127
1.696	42.0303
1.69	41.8707
1.684	41.7302
1.678	41.6125
1.672	41.539
1.666	41.4311
1.66	41.2858
1.654	41.2652
1.648	41.0804
1.642	41.0143
1.636	40.8932
1.63	40.8343
1.624	40.7253
1.618	40.6997
1.612	40.5468
1.606	40.3822
1.6	40.3502
1.594	40.2625
1.588	40.1263
1.582	40.0294
1.576	39.9297
1.57	39.7861
1.564	39.6029
1.558	39.5945
1.552	39.4909
1.546	39.3424
1.54	39.1729
1.534	39.0789
1.528	38.9648
1.522	38.8015
1.516	38.731
1.51	38.488
1.504	38.4083
1.498	38.2611
1.492	38.0391
1.486	37.8815
1.48	37.7838
1.474	37.6654
1.468	37.5198
1.462	37.3664
1.456	37.2807
1.45	37.1713
1.444	37.0622
1.438	36.8769
1.432	36.8995
1.426	36.8413
1.42	36.7751
1.414	36.7186
1.408	36.7469
1.402	36.795
1.396	36.8567
1.39	36.8779
1.384	36.9849
1.378	36.9333
1.372	36.8495
1.366	36.7702
1.36	36.7218
1.354	36.6057
1.348	36.5472
1.342	36.3259
1.336	36.3034
1.33	36.1452
1.324	36.0892
1.318	36.0024
1.312	35.8577
1.306	35.7897
1.3	35.723
1.294	35.626
1.288	35.529
1.282	35.4612
1.276	35.3886
1.27	35.2771
1.264	35.1721
1.258	35.0482
1.252	35.0038
1.246	34.898
1.24	34.8363
1.234	34.7326
1.228	34.7023
1.222	34.6088
1.216	34.4892
1.21	34.4334
1.204	34.3553
1.198	34.316
1.192	34.2487
1.186	34.234
1.18	34.107
1.174	33.9555
1.168	33.9983
1.162	33.9221
1.156	33.8961
1.15	33.831
1.144	33.8109
1.138	33.7505
1.132	33.6388
1.126	33.6746
1.12	33.5546
1.114	33.4412
1.108	33.4666
1.102	33.4741
1.096	33.3906
1.09	33.3489
1.084	33.2343
1.078	33.1362
1.072	33.1717
1.066	33.0773
1.06	32.9521
1.054	33.0225
1.048	32.934
1.042	32.827
1.036	32.7902
1.03	32.6707
1.024	32.6607
1.018	32.568
1.012	32.4654
1.006	32.4185
1	32.3251
0.994	32.2598
0.988	32.1243
0.982	32.153
0.976	31.9783
0.97	31.858
0.964	31.7973
0.958	31.713
0.952	31.6054
0.946	31.5853
0.94	31.5047
0.934	31.4176
0.928	31.3414
0.922	31.3075
0.916	31.328
0.91	31.2548
0.904	31.266
0.898	31.3171
0.892	31.309
0.886	31.4188
0.88	31.4039
0.874	31.4422
0.868	31.3322
0.862	31.2587
0.856	31.4813
0.85	31.3661
0.844	31.229
0.838	31.1044
0.832	30.969
0.826	30.7794
0.82	30.6201
0.814	30.4794
0.808	30.3254
0.802	30.1341
0.796	29.976
0.79	29.7824
0.784	29.6049
0.778	29.4135
0.772	29.2294
0.766	29.0369
0.76	28.9034
0.754	28.7356
0.748	28.5801
0.742	28.4358
0.736	28.292
0.73	28.1659
0.724	28.0606
0.718	27.9344
0.712	27.831
0.706	27.7303
0.7	27.643
0.694	27.5742
0.688	27.4776
0.682	27.4243
0.676	27.3531
0.67	27.3105
0.664	27.2543
0.658	27.2156
0.652	27.1771
0.646	27.1312
0.64	27.1078
0.634	27.0764
0.628	27.0478
0.622	27.0153
0.616	26.9833
0.61	26.9543
0.604	26.9048
0.598	26.8661
0.592	26.8226
0.586	26.7431
0.58	26.6473
0.574	26.5419
0.568	26.4225
0.562	26.2769
0.556	26.1993
0.55	26.0478
0.544	25.8772
0.538	25.7053
0.532	25.5086
0.526	25.3112
0.52	25.1115
0.514	24.908
0.508	24.7302
0.502	24.5551
0.496	24.4023
0.49	24.295
0.484	24.2019
0.478	23.9429
0.472	23.765
0.466	23.6045
0.46	23.4653
0.454	23.3362
0.448	23.1955
0.442	23.0556
0.436	22.8819
0.43	22.7268
0.424	22.5626
0.418	22.409
0.412	22.2982
0.406	22.1785
0.4	22.0573
