Name: Grey calcareous silty soil
Type: soil
Class: Aridisol
Subclass: None
Particle Size: Unsorted
Sample No.: fgg024
Owner: University of NSW
Wavelength Range: TIR
Origin: Fowlers Gap, western New South Wales, AustraliaHewson(1998) PhD thesis
Description: Parent material consists of phyllite, some calcrete deposits Physiography: Low relief valley.  Original ASTER Spectral Library name was jpl.nicolet.soil.aridisol.none.unsorted.fgg024.spectrum.txt
Measurement: Directional hemispherical reflectance
X Units: Wavelength (micrometers)
Y Units: Reflectance (percent)
wavelength	value
14.0131	2.0719
13.7895	2.3646
13.5729	2.1658
13.363	2.1636
13.1595	2.4091
12.9621	2.6999
12.7705	2.8171
12.5845	2.538
12.4039	1.9295
12.2284	1.8174
12.0578	2.1441
11.8918	2.6161
11.7304	2.8867
11.5733	3.0339
11.4203	3.0138
11.2714	3.2324
11.1263	3.4131
10.9848	3.3768
10.8469	3.5833
10.7125	3.4159
10.5813	3.4323
10.4533	3.9257
10.3284	4.0895
10.2064	4.7074
10.0872	5.368
9.9708	6.0461
9.8571	6.4342
9.7459	7.1602
9.6372	8.3941
9.5309	8.8278
9.427	9.7194
9.3252	10.7533
9.2257	10.488
9.1282	10.0324
9.0328	9.278
8.9394	9.1935
8.8478	9.7972
8.7582	9.7416
8.6703	8.7972
8.5842	9.0331
8.4997	10.1933
8.4169	10.7433
8.3357	11.2601
8.2561	12.2206
8.178	12.311
8.1013	9.63
8.0261	7.1352
7.9522	5.4586
7.8797	4.1329
7.8085	3.4125
7.7386	3.3769
7.6699	3.2502
7.6024	3.1464
7.5361	3.0826
7.4709	2.9729
7.4069	3.0393
7.344	2.911
7.2821	3.0331
7.2212	3.1242
7.1614	3.0207
7.1025	3.0164
7.0446	3.0036
6.9877	2.9345
6.9316	3.0998
6.8764	3.2191
6.8222	3.3518
6.7687	3.5566
6.7161	3.5563
6.6643	3.7236
6.6133	3.7092
6.5631	3.7235
6.5136	4.0604
6.4649	4.8495
6.4169	5.0811
6.3696	4.6479
6.323	3.935
6.277	3.2598
6.2318	2.8521
6.1872	2.5773
6.1432	2.5749
6.0998	2.8072
6.0571	2.9303
6.0149	3.0598
5.9733	3.2163
5.9323	3.4931
5.8919	4.264
5.852	5.2921
5.8126	6.4684
5.7738	7.082
5.7354	7.8973
5.6976	8.1376
5.6603	7.4037
5.6235	6.1055
5.5871	5.6758
5.5512	5.7801
5.5158	6.5721
5.4808	7.5677
5.4463	8.05
5.4121	7.0126
5.3785	5.3819
5.3452	4.8431
5.3123	5.2207
5.2799	5.6836
5.2478	6.9733
5.2161	8.9211
5.1848	9.6549
5.1539	9.4566
5.1234	9.5701
5.0932	9.4243
5.0633	8.9673
5.0338	8.9525
5.0047	8.9664
4.9759	9.9044
4.9474	11.9031
4.9192	13.1219
4.8914	16.4979
4.8638	19.2588
4.8366	20.7065
4.8097	21.5788
4.7831	22.2435
4.7567	22.9607
4.7307	23.4771
4.7049	23.6265
4.6795	23.1435
4.6543	24.3955
4.6293	25.4424
4.6047	26.2784
4.5802	26.7095
4.5561	27.0454
4.5322	26.7003
4.5086	25.8586
4.4852	25.1302
4.462	25.2354
4.4391	26.1533
4.4164	26.9349
4.3939	27.9476
4.3717	29.1326
4.3497	29.9585
4.3279	30.5084
4.3063	30.8686
4.285	30.8459
4.2638	31.0523
4.2429	31.8372
4.2222	32.2366
4.2017	32.2773
4.1813	32.6018
4.1612	33.0099
4.1412	33.3051
4.1215	33.643
4.1019	34.0574
4.0826	34.2478
4.0634	34.4127
4.0443	34.3379
4.0255	34.1568
4.0068	33.6662
3.9883	33.1357
3.97	32.8167
3.9519	33.0674
3.9339	33.4827
3.916	33.4994
3.8984	33.5417
3.8809	33.363
3.8635	33.1405
3.8463	33.2017
3.8293	32.9332
3.8124	32.7526
3.7956	32.4198
3.779	32.258
3.7626	31.8212
3.7463	31.371
3.7301	30.9618
3.7141	30.6239
3.6982	30.0683
3.6824	29.6882
3.6668	29.2596
3.6513	28.7634
3.6359	28.2091
3.6207	27.5503
3.6056	26.8212
3.5906	26.1693
3.5758	25.3526
3.561	24.5603
3.5464	23.6605
3.5319	22.9638
3.5175	21.9847
3.5033	21.1068
3.4891	20.8017
3.4751	20.3909
3.4612	19.7971
3.4474	19.1648
3.4337	18.3692
3.4201	17.3234
3.4066	16.9441
3.3932	16.7072
3.3799	16.1199
3.3668	15.7144
3.3537	15.2482
3.3407	14.7598
3.3279	14.2297
3.3151	13.7207
3.3024	12.9466
3.2899	12.5736
3.2774	12.0477
3.265	11.5835
3.2527	11.0745
3.2405	10.6096
3.2284	10.2237
3.2164	9.6514
3.2045	9.1196
3.1926	8.7408
3.1809	8.3464
3.1692	7.9714
3.1576	7.5399
3.1461	7.1756
3.1347	6.8223
3.1234	6.5621
3.1121	6.163
3.101	5.9005
3.0899	5.7849
3.0789	5.4044
3.068	5.3301
3.0571	5.2159
3.0463	4.9942
3.0356	4.9146
3.025	4.9269
3.0144	4.7739
3.004	4.6339
2.9936	4.5169
2.9832	4.3535
2.973	4.4115
2.9628	4.2377
2.9526	4.2305
2.9426	4.1364
2.9326	3.9898
2.9227	4.1083
2.9128	4.097
2.903	4.1847
2.8933	4.2977
2.8837	4.1296
2.8741	4.5507
2.8646	4.4593
2.8551	4.754
2.8457	4.6702
2.8363	4.4126
2.8271	4.4859
2.8178	4.426
2.8087	4.3833
2.7996	3.6849
2.7906	3.855
2.7816	3.7656
2.7726	3.3569
2.7638	2.8384
2.755	2.961
2.7462	3.5447
2.7375	3.7344
2.7289	4.9876
2.7203	6.9079
2.7117	7.6563
2.7033	6.5488
2.6948	13.7354
2.6864	23.2062
2.6781	29.3665
2.6698	32.7782
2.6616	34.7746
2.6535	36.201
2.6453	37.4844
2.6373	38.1123
2.6292	38.8029
2.6213	39.1932
2.6133	39.5571
2.6054	39.9779
2.5976	40.0658
2.5898	40.2341
2.5821	40.645
2.5744	40.9066
2.5668	41.1171
2.5592	41.2311
2.5516	41.5595
2.5441	41.5684
2.5366	41.6853
2.5292	41.7823
2.5218	41.7701
2.5145	42.0545
2.5072	41.9645
2.4999	42.4564
2.4927	42.409
2.4855	42.7552
2.4784	42.7236
2.4713	43.046
2.4643	43.3024
2.4573	43.4792
2.4503	43.625
2.4434	43.819
2.4365	44.245
2.4296	44.9185
2.4228	45.2716
2.4161	45.5008
2.4093	46.1076
2.4026	46.2036
2.396	46.1014
2.3893	46.0741
2.3827	46.117
2.3762	46.1397
2.3697	45.9766
2.3632	45.7828
2.3567	45.6402
2.3503	45.6455
2.344	45.8545
2.3376	46.568
2.3313	46.8776
2.325	47.5903
2.3188	47.8017
2.3126	48.4053
2.3064	48.8338
2.3003	49.395
2.2942	49.5253
2.2881	49.9193
2.2821	50.0682
2.2761	50.0513
2.2701	49.8683
2.2641	49.6982
2.2582	49.4172
2.2523	49.2192
2.2465	49.1805
2.2406	49.3004
2.2348	49.392
2.2291	49.1282
2.2233	48.6163
2.2176	48.0488
2.212	47.7073
2.2063	47.9679
2.2007	49.154
2.1951	49.8046
2.1895	50.5393
2.184	51.1672
2.1785	51.5645
2.173	51.8421
2.1676	51.9221
2.1622	52.2639
2.1568	52.6598
2.1514	52.827
2.146	52.9883
2.1407	53.2553
2.1354	53.2144
2.1302	53.2845
2.1249	53.3267
2.1197	53.3405
2.1145	53.1455
2.1094	53.1597
2.1042	53.2464
2.0991	53.2282
2.094	53.5384
2.089	53.4678
2.0839	53.2469
2.0789	53.5375
2.0739	53.648
2.069	53.1503
2.064	53.5557
2.0591	53.6497
2.0542	53.2006
2.0493	53.2796
2.0445	53.5231
2.0397	53.4557
2.0349	52.9959
2.0301	53.1263
2.0253	52.8073
2.0206	52.7553
2.0159	52.7114
2.0112	52.5029
2.0065	52.1784
2.0019	52.173
