Name: Red-orange sandy loam
Type: soil
Class: Entisol
Subclass: None
Particle Size: Unsorted
Sample No.: fgg037
Owner: University of NSW
Wavelength Range: TIR
Origin: Fowlers Gap, western New South Wales, AustraliaHewson(1998) PhD thesis
Description: Parent material consists of aeolian silts/clays within vegetated zone.Physiography: Gilgai (expansive clay) landforms on floodplain. Original ASTER Spectral Library name was jpl.nicolet.soil.entisol.none.unsorted.fgg037.spectrum.txt
Measurement: Directional hemispherical reflectance
X Units: Wavelength (micrometers)
Y Units: Reflectance (percent)
wavelength	value
14.0131	1.3973
13.7895	1.592
13.5729	1.8031
13.363	1.5421
13.1595	1.9853
12.9621	2.0087
12.7705	2.2521
12.5845	2.089
12.4039	1.6606
12.2284	1.5588
12.0578	1.7141
11.8918	1.9379
11.7304	2.2372
11.5733	2.3275
11.4203	2.3785
11.2714	2.2907
11.1263	2.6539
10.9848	2.701
10.8469	2.4657
10.7125	2.6109
10.5813	2.6191
10.4533	2.8772
10.3284	3.3904
10.2064	3.6133
10.0872	4.5017
9.9708	5.1097
9.8571	5.5318
9.7459	6.4312
9.6372	7.344
9.5309	8.1007
9.427	8.4278
9.3252	8.8654
9.2257	8.127
9.1282	7.4758
9.0328	6.7349
8.9394	6.8613
8.8478	7.6568
8.7582	7.5953
8.6703	6.7136
8.5842	6.8599
8.4997	7.776
8.4169	8.3361
8.3357	9.4103
8.2561	10.5501
8.178	10.934
8.1013	8.3584
8.0261	6.0542
7.9522	4.5918
7.8797	3.447
7.8085	2.9537
7.7386	2.6173
7.6699	2.7632
7.6024	2.6892
7.5361	2.6331
7.4709	2.6998
7.4069	2.7798
7.344	2.8537
7.2821	2.8602
7.2212	2.8754
7.1614	2.5634
7.1025	2.5996
7.0446	2.444
6.9877	2.3868
6.9316	2.3239
6.8764	2.4476
6.8222	2.4823
6.7687	2.4003
6.7161	2.5522
6.6643	2.6402
6.6133	2.7611
6.5631	2.7823
6.5136	3.1138
6.4649	3.5499
6.4169	4.1768
6.3696	3.5345
6.323	2.8296
6.277	2.3851
6.2318	2.0396
6.1872	1.7205
6.1432	1.5397
6.0998	1.4083
6.0571	1.5194
6.0149	1.684
5.9733	1.9798
5.9323	2.2294
5.8919	2.9292
5.852	3.6735
5.8126	4.5395
5.7738	5.5789
5.7354	6.1002
5.6976	6.552
5.6603	5.9501
5.6235	5.0516
5.5871	4.8072
5.5512	4.8573
5.5158	5.3666
5.4808	6.0467
5.4463	6.4609
5.4121	5.7041
5.3785	4.5518
5.3452	4.3841
5.3123	4.481
5.2799	4.952
5.2478	5.7576
5.2161	7.2085
5.1848	7.499
5.1539	7.6144
5.1234	7.6283
5.0932	7.4731
5.0633	7.1714
5.0338	7.1773
5.0047	7.385
4.9759	7.9649
4.9474	9.375
4.9192	10.4569
4.8914	13.1543
4.8638	15.3317
4.8366	16.6063
4.8097	17.2197
4.7831	17.9571
4.7567	18.3366
4.7307	18.6459
4.7049	18.4788
4.6795	17.9452
4.6543	18.9654
4.6293	19.8307
4.6047	20.4159
4.5802	20.8269
4.5561	20.842
4.5322	20.4867
4.5086	19.508
4.4852	18.8897
4.462	18.9304
4.4391	19.758
4.4164	20.3591
4.3939	21.1932
4.3717	22.0934
4.3497	22.4757
4.3279	21.6845
4.3063	19.5438
4.285	18.4162
4.2638	18.7911
4.2429	17.5377
4.2222	18.5534
4.2017	24.4146
4.1813	26.5542
4.1612	27.1632
4.1412	27.6482
4.1215	28.0898
4.1019	28.6077
4.0826	29.0433
4.0634	29.4062
4.0443	29.4609
4.0255	29.261
4.0068	28.7727
3.9883	27.6309
3.97	27.7331
3.9519	28.7164
3.9339	29.7206
3.916	29.9087
3.8984	29.82
3.8809	29.5831
3.8635	29.4542
3.8463	29.2815
3.8293	29.1552
3.8124	29.1024
3.7956	28.8692
3.779	28.5027
3.7626	28.0022
3.7463	27.3444
3.7301	26.9144
3.7141	26.413
3.6982	25.9196
3.6824	25.4813
3.6668	25.1246
3.6513	24.501
3.6359	23.9604
3.6207	23.3139
3.6056	22.6239
3.5906	21.9484
3.5758	21.3247
3.561	20.6159
3.5464	19.861
3.5319	19.1062
3.5175	18.1281
3.5033	17.0538
3.4891	16.6108
3.4751	15.9288
3.4612	15.4135
3.4474	14.8029
3.4337	14.0387
3.4201	13.0819
3.4066	12.5655
3.3932	12.2769
3.3799	11.7659
3.3668	11.0762
3.3537	10.7026
3.3407	10.3064
3.3279	9.8034
3.3151	9.3575
3.3024	8.8376
3.2899	8.2387
3.2774	7.8019
3.265	7.281
3.2527	6.8366
3.2405	6.4645
3.2284	6.0805
3.2164	5.6246
3.2045	5.2307
3.1926	5.0365
3.1809	4.6898
3.1692	4.4323
3.1576	4.1783
3.1461	3.9293
3.1347	3.7805
3.1234	3.4887
3.1121	3.378
3.101	3.1866
3.0899	3.1141
3.0789	3.0366
3.068	2.9472
3.0571	2.7887
3.0463	2.9022
3.0356	2.6322
3.025	2.6533
3.0144	2.4567
3.004	2.6233
2.9936	2.4056
2.9832	2.389
2.973	2.4895
2.9628	2.3442
2.9526	2.199
2.9426	2.1956
2.9326	2.3271
2.9227	2.3328
2.9128	2.2101
2.903	2.3498
2.8933	2.2459
2.8837	2.424
2.8741	2.2875
2.8646	2.3964
2.8551	2.4627
2.8457	2.4563
2.8363	2.6469
2.8271	2.5912
2.8178	2.4562
2.8087	2.4762
2.7996	2.5553
2.7906	2.1664
2.7816	2.1116
2.7726	2.0442
2.7638	1.6373
2.755	1.6568
2.7462	1.8175
2.7375	2.0655
2.7289	2.7049
2.7203	3.6288
2.7117	3.8035
2.7033	2.7072
2.6948	7.7555
2.6864	14.8087
2.6781	20.5685
2.6698	25.2758
2.6616	26.0747
2.6535	27.9933
2.6453	29.1438
2.6373	29.8934
2.6292	31.8028
2.6213	32.6416
2.6133	32.3912
2.6054	34.209
2.5976	33.2236
2.5898	33.5193
2.5821	34.0863
2.5744	34.522
2.5668	34.0876
2.5592	34.5418
2.5516	34.7584
2.5441	34.69
2.5366	34.8883
2.5292	35.0031
2.5218	34.9624
2.5145	35.4764
2.5072	35.6508
2.4999	35.9172
2.4927	36.206
2.4855	36.5387
2.4784	37.2172
2.4713	37.369
2.4643	37.9169
2.4573	38.419
2.4503	38.5077
2.4434	39.1431
2.4365	39.6618
2.4296	40.4063
2.4228	41.1029
2.4161	41.7395
2.4093	42.147
2.4026	42.7068
2.396	42.7091
2.3893	42.7889
2.3827	43.0349
2.3762	43.5142
2.3697	43.981
2.3632	44.5703
2.3567	44.6963
2.3503	45.1837
2.344	45.7635
2.3376	46.1336
2.3313	46.8304
2.325	47.3778
2.3188	48.1064
2.3126	48.4622
2.3064	48.988
2.3003	49.1472
2.2942	49.7207
2.2881	49.7227
2.2821	50.1952
2.2761	50.2661
2.2701	50.3766
2.2641	50.3885
2.2582	50.0701
2.2523	49.5235
2.2465	49.255
2.2406	49.1269
2.2348	49.1072
2.2291	48.905
2.2233	48.5209
2.2176	47.6172
2.212	45.622
2.2063	45.4967
2.2007	47.6055
2.1951	48.3122
2.1895	49.5257
2.184	50.1345
2.1785	50.6989
2.173	51.1792
2.1676	51.5549
2.1622	51.87
2.1568	52.3475
2.1514	52.8385
2.146	53.6426
2.1407	54.0411
2.1354	54.244
2.1302	54.3013
2.1249	54.3413
2.1197	54.3523
2.1145	54.4797
2.1094	54.3105
2.1042	54.3106
2.0991	54.123
2.094	54.3704
2.089	54.2759
2.0839	54.1114
2.0789	54.2494
2.0739	54.2454
2.069	54.0663
2.064	53.9964
2.0591	53.8473
2.0542	53.5471
2.0493	53.5037
2.0445	53.3877
2.0397	53.221
2.0349	53.0669
2.0301	52.8411
2.0253	52.4754
2.0206	51.9946
2.0159	51.9302
2.0112	51.2898
2.0065	51.0554
2.0019	50.5487
