Name: 60051.19
Type: Soil
Class: Lunar
Subclass: Highland
Particle Size: Fine
Sample No.: 60051_19
Owner: JHU
Wavelength Range: TIR
Origin: Apollo 16 landing site via the NASA Lunar Sample Repository at JohnsonSpace Center, Houston, TX.
Description: This sample is one of a suite of relatively more aluminous and lower iron and titanium soils at the Apollo 16 site, and has the second oldest exposure age of the four soils of that suite (Is/FeO=57). Original ASTER Spectral Library name was jhu.becknic.soil.lunar.highlands.fine.60051.spectrum.txt
Measurement: Directional (10 degree) hemispherical reflectance
X Units: Wavelength (micrometers)
Y Units: Reflectance (percent)
wavelength	value
14.011	0.7829
13.788	0.8426
13.571	0.9058
13.361	1.1062
13.158	1.0766
12.96	1.2181
12.769	1.5114
12.583	2.0121
12.402	2.4392
12.227	2.6282
12.056	2.5339
11.89	2.4495
11.729	2.3928
11.572	2.3878
11.419	2.3991
11.27	2.2753
11.125	2.3171
10.983	2.3516
10.846	2.4416
10.711	2.4093
10.58	2.3061
10.452	2.1557
10.327	1.9139
10.205	1.6624
10.086	1.5813
9.9695	1.4927
9.8558	1.4815
9.7447	1.5192
9.636	1.4093
9.5297	1.2683
9.4257	1.133
9.324	1.1139
9.2245	1.0915
9.127	1.2035
9.0316	1.2388
8.9382	1.1746
8.8467	1.1483
8.757	1.2241
8.6692	1.2058
8.583	1.1514
8.4986	1.0125
8.4158	0.7699
8.3347	0.5953
8.255	0.4159
8.1769	0.4045
8.1002	0.5274
8.025	0.727
7.9512	1.034
7.8786	1.4487
7.8075	1.8837
7.7375	2.3918
7.6689	2.9766
7.6014	3.5027
7.5351	4.021
7.47	4.5969
7.4059	5.1533
7.343	5.6734
7.2811	6.1939
7.2203	6.6619
7.1604	7.1556
7.1016	7.541
7.0437	7.9896
6.9867	8.3161
6.9307	8.6218
6.8755	8.8659
6.8213	9.042
6.7678	9.3573
6.7152	9.5949
6.6634	9.688
6.6124	9.8495
6.5622	10.099
6.5128	10.283
6.464	10.473
6.416	10.748
6.3687	10.655
6.3221	10.635
6.2762	10.739
6.231	10.862
6.1863	10.997
6.1424	11.098
6.099	11.277
6.0563	11.452
6.0141	11.638
5.9725	12.13
5.9315	12.772
5.8911	13.372
5.8512	13.902
5.8118	14.534
5.773	15.148
5.7347	15.55
5.6969	15.859
5.6596	16.119
5.6227	16.435
5.5864	16.752
5.5505	16.904
5.5151	16.862
5.4801	16.848
5.4455	16.902
5.4114	17.189
5.3778	17.659
5.3445	18.107
5.3116	18.413
5.2792	18.838
5.2471	19.298
5.2154	19.728
5.1842	20.178
5.1532	20.673
5.1227	21.245
5.0925	21.767
5.0627	22.188
5.0332	22.692
5.004	23.244
4.9752	23.769
4.9467	24.271
4.9186	24.775
4.8907	25.262
4.8632	25.743
4.836	26.202
4.809	26.627
4.7824	26.969
4.7561	27.328
4.7301	27.756
4.7043	28.194
4.6788	28.597
4.6536	28.942
4.6287	29.459
4.604	30.005
4.5796	30.5
4.5555	30.86
4.5316	31.208
4.508	31.473
4.4846	31.676
4.4614	31.803
4.4385	31.876
4.4158	31.937
4.3934	32.032
4.3711	32.204
4.3491	32.411
4.3273	32.631
4.3058	32.893
4.2844	33.186
4.2633	33.343
4.2424	33.552
4.2216	33.63
4.2011	33.58
4.1808	33.613
4.1606	33.648
4.1407	33.688
4.1209	33.697
4.1014	33.707
4.082	33.734
4.0628	33.745
4.0438	33.756
4.025	33.76
4.0063	33.764
3.9878	33.804
3.9695	33.791
3.9513	33.804
3.9333	33.771
3.9155	33.75
3.8979	33.71
3.8804	33.714
3.863	33.664
3.8458	33.629
3.8288	33.603
3.8119	33.585
3.7951	33.495
3.7785	33.443
3.7621	33.41
3.7458	33.331
3.7296	33.285
3.7136	33.209
3.6977	33.128
3.6819	33.068
3.6663	32.973
3.6508	32.92
3.6355	32.89
3.6202	32.804
3.6051	32.74
3.5901	32.668
3.5753	32.588
3.5605	32.502
3.5459	32.392
3.5314	32.275
3.5171	31.958
3.5028	31.211
3.4887	31.372
3.4746	31.441
3.4607	31.405
3.4469	31.157
3.4332	30.651
3.4196	29.811
3.4061	30.074
3.3928	30.747
3.3795	30.451
3.3663	30.634
3.3533	31.151
3.3403	31.239
3.3274	31.205
3.3147	31.18
3.302	31.112
3.2894	31.002
3.277	30.957
3.2646	30.816
3.2523	30.77
3.2401	30.674
3.228	30.596
3.216	30.472
3.204	30.367
3.1922	30.259
3.1805	30.203
3.1688	30.098
3.1572	30.007
3.1457	29.929
3.1343	29.838
3.123	29.764
3.1117	29.691
3.1006	29.617
3.0895	29.501
3.0785	29.455
3.0675	29.398
3.0567	29.281
3.0459	29.217
3.0352	29.243
3.0246	29.138
3.014	29.009
3.0036	28.977
2.9932	28.867
2.9828	28.809
2.9726	28.786
2.9624	28.731
2.9523	28.685
2.9422	28.631
2.9322	28.579
2.9223	28.563
2.9124	28.549
2.9027	28.548
2.8929	28.529
2.8833	28.51
2.8737	28.533
2.8642	28.502
2.8547	28.503
2.8453	28.493
2.836	28.526
2.8267	28.581
2.8175	28.674
2.8083	28.708
2.7992	28.86
2.7902	28.98
2.7812	29.157
2.7723	29.377
2.7634	29.699
2.7546	29.969
2.7458	30.132
2.7371	30.345
2.7285	30.515
2.7199	30.782
2.7114	30.955
2.7029	30.938
2.6945	31.091
2.6861	31.069
2.6778	31.123
2.6695	31.256
2.6613	31.048
2.6531	31.063
2.645	31.002
2.6369	30.961
2.6289	30.991
2.6209	31.001
2.613	30.862
2.6051	30.922
2.5973	30.827
2.5895	30.734
2.5817	30.674
2.5741	30.621
2.5664	30.541
2.5588	30.501
2.5513	30.455
2.5437	30.378
2.5363	30.361
2.5289	30.28
2.5215	30.223
2.5141	30.229
2.5068	30.131
2.4996	30.087
2.4924	30.032
2.4852	29.989
2.4781	29.943
2.471	29.9
2.464	29.889
2.4569	29.818
2.45	29.814
2.4431	29.78
2.4362	29.714
2.4293	29.674
2.4225	29.671
2.4157	29.626
2.409	29.584
2.4023	29.572
2.3956	29.491
2.389	29.44
2.3824	29.423
2.3759	29.376
2.3694	29.324
2.3629	29.225
2.3564	29.206
2.35	29.179
2.3436	29.097
2.3373	29.043
2.331	29.023
2.3247	28.964
2.3185	28.99
2.3123	28.923
2.3061	28.877
2.3	28.814
2.2939	28.799
2.2878	28.746
2.2818	28.67
2.2757	28.651
2.2698	28.622
2.2638	28.589
2.2579	28.561
2.252	28.512
2.2462	28.504
2.2403	28.471
2.2345	28.429
2.2288	28.375
2.2231	28.371
2.2173	28.289
2.2117	28.262
2.206	28.213
2.2004	28.181
2.1948	28.117
2.1893	28.075
2.1837	28.023
2.1782	27.98
2.1727	27.981
2.1673	27.891
2.1619	27.826
2.1565	27.79
2.1511	27.706
2.1458	27.71
2.1404	27.69
2.1352	27.629
2.1299	27.668
2.1247	27.499
2.1194	27.581
2.1143	27.418
2.1091	27.403
2.104	27.339
2.0988	27.343
2.0938	27.34
2.0887	27.264
2.0837	27.263
