Name: 12070.405
Type: Soil
Class: Lunar
Subclass: Maria
Particle Size: Fine
Sample No.: 12070_405
Owner: JHU
Wavelength Range: TIR
Origin: Apollo 12 landing site via the NASA Lunar Sample Repository at JohnsonSpace Center, Houston, TX.
Description: This is an extra sample from the Apollo 12 mare site.  This sample has an intermediate exposure age compared to the other three soils from the Apollo 12 site (Is/FeO=47). Original ASTER Spectral Library name was jhu.becknic.soil.lunar.maria.fine.12070.spectrum.txt
Measurement: Directional (10 degree) hemispherical reflectance
X Units: Wavelength (micrometers)
Y Units: Reflectance (percent)
wavelength	value
14.011	1.3461
13.788	1.333
13.571	1.4377
13.361	1.5084
13.158	1.5227
12.96	1.6643
12.769	1.7793
12.583	1.9791
12.402	2.1523
12.227	2.278
12.056	2.226
11.89	2.1932
11.729	2.2569
11.572	2.3131
11.419	2.4259
11.27	2.3729
11.125	2.2989
10.983	2.3031
10.846	2.3253
10.711	2.2802
10.58	2.1667
10.452	2.1092
10.327	2.0299
10.205	1.9261
10.086	1.9067
9.9695	1.8692
9.8558	1.8671
9.7447	1.8462
9.636	1.8057
9.5297	1.8123
9.4257	1.7992
9.324	1.745
9.2245	1.7258
9.127	1.6689
9.0316	1.5496
8.9382	1.3308
8.8467	1.1135
8.757	1.0039
8.6692	0.9726
8.583	0.8626
8.4986	0.836
8.4158	0.7954
8.3347	0.8094
8.255	0.8803
8.1769	1.0312
8.1002	1.2678
8.025	1.7004
7.9512	2.2802
7.8786	2.917
7.8075	3.5704
7.7375	4.1848
7.6689	4.8436
7.6014	5.4359
7.5351	6.0249
7.47	6.6019
7.4059	7.1578
7.343	7.6679
7.2811	8.1534
7.2203	8.5665
7.1604	8.9706
7.1016	9.3498
7.0437	9.7092
6.9867	10.066
6.9307	10.372
6.8755	10.632
6.8213	10.811
6.7678	11.039
6.7152	11.142
6.6634	11.182
6.6124	11.238
6.5622	11.28
6.5128	11.376
6.464	11.454
6.416	11.481
6.3687	11.559
6.3221	11.575
6.2762	11.611
6.231	11.639
6.1863	11.704
6.1424	11.864
6.099	12
6.0563	12.057
6.0141	12.227
5.9725	12.493
5.9315	12.757
5.8911	13.127
5.8512	13.428
5.8118	13.697
5.773	13.925
5.7347	14.108
5.6969	14.162
5.6596	14.248
5.6227	14.42
5.5864	14.595
5.5505	14.785
5.5151	14.863
5.4801	14.885
5.4455	14.866
5.4114	14.869
5.3778	14.874
5.3445	14.824
5.3116	14.885
5.2792	15.011
5.2471	15.2
5.2154	15.417
5.1842	15.689
5.1532	15.907
5.1227	16.191
5.0925	16.44
5.0627	16.677
5.0332	16.957
5.004	17.277
4.9752	17.567
4.9467	17.916
4.9186	18.28
4.8907	18.56
4.8632	18.848
4.836	19.125
4.809	19.382
4.7824	19.593
4.7561	19.837
4.7301	20.092
4.7043	20.326
4.6788	20.547
4.6536	20.755
4.6287	20.953
4.604	21.114
4.5796	21.257
4.5555	21.354
4.5316	21.463
4.508	21.527
4.4846	21.591
4.4614	21.614
4.4385	21.663
4.4158	21.681
4.3934	21.684
4.3711	21.717
4.3491	21.771
4.3273	21.78
4.3058	21.818
4.2844	21.854
4.2633	21.85
4.2424	21.869
4.2216	21.881
4.2011	21.846
4.1808	21.836
4.1606	21.808
4.1407	21.839
4.1209	21.804
4.1014	21.797
4.082	21.806
4.0628	21.774
4.0438	21.756
4.025	21.775
4.0063	21.713
3.9878	21.725
3.9695	21.67
3.9513	21.686
3.9333	21.656
3.9155	21.61
3.8979	21.575
3.8804	21.552
3.863	21.516
3.8458	21.462
3.8288	21.428
3.8119	21.424
3.7951	21.353
3.7785	21.324
3.7621	21.268
3.7458	21.225
3.7296	21.178
3.7136	21.154
3.6977	21.108
3.6819	21.042
3.6663	21
3.6508	20.967
3.6355	20.911
3.6202	20.883
3.6051	20.809
3.5901	20.781
3.5753	20.73
3.5605	20.685
3.5459	20.642
3.5314	20.557
3.5171	20.528
3.5028	20.376
3.4887	20.363
3.4746	20.324
3.4607	20.281
3.4469	20.221
3.4332	20.114
3.4196	19.927
3.4061	19.937
3.3928	20.01
3.3795	19.886
3.3663	19.849
3.3533	19.906
3.3403	19.856
3.3274	19.823
3.3147	19.78
3.302	19.729
3.2894	19.695
3.277	19.636
3.2646	19.553
3.2523	19.507
3.2401	19.437
3.228	19.369
3.216	19.356
3.204	19.253
3.1922	19.173
3.1805	19.165
3.1688	19.124
3.1572	19.059
3.1457	18.985
3.1343	18.953
3.123	18.921
3.1117	18.868
3.1006	18.817
3.0895	18.771
3.0785	18.705
3.0675	18.621
3.0567	18.592
3.0459	18.533
3.0352	18.545
3.0246	18.475
3.014	18.389
3.0036	18.345
2.9932	18.3
2.9828	18.281
2.9726	18.209
2.9624	18.18
2.9523	18.147
2.9422	18.108
2.9322	18.04
2.9223	18.013
2.9124	17.988
2.9027	17.899
2.8929	17.906
2.8833	17.898
2.8737	17.85
2.8642	17.825
2.8547	17.768
2.8453	17.75
2.836	17.731
2.8267	17.676
2.8175	17.706
2.8083	17.66
2.7992	17.756
2.7902	17.759
2.7812	17.784
2.7723	17.839
2.7634	17.934
2.7546	18.029
2.7458	18.126
2.7371	18.146
2.7285	18.256
2.7199	18.262
2.7114	18.281
2.7029	18.319
2.6945	18.275
2.6861	18.248
2.6778	18.199
2.6695	18.119
2.6613	18.171
2.6531	18.077
2.645	18.029
2.6369	17.997
2.6289	17.911
2.6209	17.904
2.613	17.858
2.6051	17.723
2.5973	17.749
2.5895	17.684
2.5817	17.613
2.5741	17.553
2.5664	17.508
2.5588	17.449
2.5513	17.41
2.5437	17.356
2.5363	17.305
2.5289	17.226
2.5215	17.167
2.5141	17.114
2.5068	17.042
2.4996	17
2.4924	16.937
2.4852	16.89
2.4781	16.82
2.471	16.781
2.464	16.722
2.4569	16.653
2.45	16.641
2.4431	16.541
2.4362	16.486
2.4293	16.433
2.4225	16.396
2.4157	16.318
2.409	16.26
2.4023	16.214
2.3956	16.2
2.389	16.151
2.3824	16.128
2.3759	16.062
2.3694	16
2.3629	15.919
2.3564	15.911
2.35	15.9
2.3436	15.836
2.3373	15.782
2.331	15.734
2.3247	15.667
2.3185	15.672
2.3123	15.618
2.3061	15.588
2.3	15.506
2.2939	15.51
2.2878	15.437
2.2818	15.398
2.2757	15.369
2.2698	15.357
2.2638	15.305
2.2579	15.274
2.252	15.23
2.2462	15.158
2.2403	15.116
2.2345	15.109
2.2288	15.065
2.2231	15.036
2.2173	14.969
2.2117	14.987
2.206	14.918
2.2004	14.929
2.1948	14.874
2.1893	14.85
2.1837	14.817
2.1782	14.798
2.1727	14.778
2.1673	14.728
2.1619	14.788
2.1565	14.678
2.1511	14.609
2.1458	14.594
2.1404	14.573
2.1352	14.597
2.1299	14.619
2.1247	14.533
2.1194	14.558
2.1143	14.513
2.1091	14.486
2.104	14.443
2.0988	14.38
2.0938	14.386
2.0887	14.423
2.0837	14.319
