Name: 68501.609
Type: Soil
Class: Lunar
Subclass: Highland
Particle Size: Fine
Sample No.: 68501_609
Owner: JHU
Wavelength Range: TIR
Origin: Apollo 16 landing site via the NASA Lunar Sample Repository at JohnsonSpace Center, Houston, TX.
Description: This sample is one of a suite of relatively less aluminous soils at the Apollo 16 site, and has the oldest exposure age of the three soils of that suite (Is/FeO=85). Original ASTER Spectral Library name was jhu.becknic.soil.lunar.highlands.fine.68501.spectrum.txt
Measurement: Directional (10 degree) hemispherical reflectance
X Units: Wavelength (micrometers)
Y Units: Reflectance (percent)
wavelength	value
14.011	0.6579
13.788	0.8536
13.571	0.8628
13.361	1.0581
13.158	1.0775
12.96	1.1702
12.769	1.4006
12.583	1.8474
12.402	2.1754
12.227	2.3086
12.056	2.2372
11.89	2.1511
11.729	2.1635
11.572	2.1745
11.419	2.182
11.27	2.164
11.125	2.1367
10.983	2.1858
10.846	2.2472
10.711	2.1834
10.58	2.0806
10.452	1.943
10.327	1.76
10.205	1.5719
10.086	1.4975
9.9695	1.4225
9.8558	1.4054
9.7447	1.3856
9.636	1.3222
9.5297	1.2041
9.4257	1.13
9.324	1.0907
9.2245	1.0897
9.127	1.1561
9.0316	1.1465
8.9382	1.13
8.8467	1.0902
8.757	1.0702
8.6692	1.0401
8.583	0.9579
8.4986	0.8296
8.4158	0.6919
8.3347	0.5206
8.255	0.4423
8.1769	0.452
8.1002	0.5563
8.025	0.7685
7.9512	1.0761
7.8786	1.4882
7.8075	1.9655
7.7375	2.4789
7.6689	3.0462
7.6014	3.5762
7.5351	4.1448
7.47	4.6823
7.4059	5.2541
7.343	5.7706
7.2811	6.2763
7.2203	6.7458
7.1604	7.2236
7.1016	7.598
7.0437	7.9734
6.9867	8.3462
6.9307	8.6802
6.8755	8.9018
6.8213	9.1143
6.7678	9.3372
6.7152	9.5142
6.6634	9.6493
6.6124	9.8106
6.5622	10.009
6.5128	10.239
6.464	10.433
6.416	10.614
6.3687	10.639
6.3221	10.667
6.2762	10.789
6.231	10.887
6.1863	10.981
6.1424	11.118
6.099	11.262
6.0563	11.377
6.0141	11.581
5.9725	12.022
5.9315	12.603
5.8911	13.166
5.8512	13.693
5.8118	14.223
5.773	14.729
5.7347	15.115
5.6969	15.378
5.6596	15.599
5.6227	15.885
5.5864	16.196
5.5505	16.346
5.5151	16.351
5.4801	16.357
5.4455	16.436
5.4114	16.733
5.3778	17.116
5.3445	17.5
5.3116	17.788
5.2792	18.126
5.2471	18.507
5.2154	18.915
5.1842	19.301
5.1532	19.797
5.1227	20.316
5.0925	20.787
5.0627	21.213
5.0332	21.7
5.004	22.17
4.9752	22.649
4.9467	23.126
4.9186	23.606
4.8907	24.062
4.8632	24.48
4.836	24.912
4.809	25.306
4.7824	25.652
4.7561	26.008
4.7301	26.361
4.7043	26.778
4.6788	27.152
4.6536	27.508
4.6287	27.919
4.604	28.363
4.5796	28.746
4.5555	29.064
4.5316	29.319
4.508	29.552
4.4846	29.745
4.4614	29.855
4.4385	29.934
4.4158	30.018
4.3934	30.115
4.3711	30.259
4.3491	30.398
4.3273	30.563
4.3058	30.723
4.2844	30.915
4.2633	31.042
4.2424	31.143
4.2216	31.208
4.2011	31.247
4.1808	31.284
4.1606	31.329
4.1407	31.35
4.1209	31.362
4.1014	31.382
4.082	31.393
4.0628	31.392
4.0438	31.409
4.025	31.42
4.0063	31.415
3.9878	31.433
3.9695	31.425
3.9513	31.412
3.9333	31.396
3.9155	31.392
3.8979	31.364
3.8804	31.346
3.863	31.306
3.8458	31.271
3.8288	31.235
3.8119	31.221
3.7951	31.142
3.7785	31.084
3.7621	31.055
3.7458	30.991
3.7296	30.943
3.7136	30.86
3.6977	30.812
3.6819	30.732
3.6663	30.674
3.6508	30.612
3.6355	30.547
3.6202	30.473
3.6051	30.41
3.5901	30.346
3.5753	30.262
3.5605	30.215
3.5459	30.128
3.5314	30.075
3.5171	30.069
3.5028	30.023
3.4887	29.94
3.4746	29.848
3.4607	29.782
3.4469	29.735
3.4332	29.702
3.4196	29.657
3.4061	29.535
3.3928	29.437
3.3795	29.333
3.3663	29.216
3.3533	29.131
3.3403	28.978
3.3274	28.9
3.3147	28.823
3.302	28.735
3.2894	28.636
3.277	28.547
3.2646	28.507
3.2523	28.406
3.2401	28.343
3.228	28.214
3.216	28.133
3.204	28.039
3.1922	27.949
3.1805	27.891
3.1688	27.798
3.1572	27.718
3.1457	27.636
3.1343	27.571
3.123	27.452
3.1117	27.405
3.1006	27.337
3.0895	27.244
3.0785	27.205
3.0675	27.156
3.0567	27.075
3.0459	27.048
3.0352	26.986
3.0246	26.897
3.014	26.859
3.0036	26.775
2.9932	26.684
2.9828	26.658
2.9726	26.6
2.9624	26.568
2.9523	26.508
2.9422	26.492
2.9322	26.484
2.9223	26.416
2.9124	26.446
2.9027	26.373
2.8929	26.35
2.8833	26.341
2.8737	26.366
2.8642	26.309
2.8547	26.303
2.8453	26.34
2.836	26.316
2.8267	26.315
2.8175	26.403
2.8083	26.466
2.7992	26.557
2.7902	26.678
2.7812	26.856
2.7723	27.037
2.7634	27.285
2.7546	27.482
2.7458	27.725
2.7371	27.934
2.7285	28.096
2.7199	28.241
2.7114	28.307
2.7029	28.338
2.6945	28.301
2.6861	28.32
2.6778	28.318
2.6695	28.408
2.6613	28.424
2.6531	28.42
2.645	28.37
2.6369	28.376
2.6289	28.32
2.6209	28.286
2.613	28.234
2.6051	28.187
2.5973	28.178
2.5895	28.117
2.5817	28.059
2.5741	28.063
2.5664	27.952
2.5588	27.942
2.5513	27.893
2.5437	27.84
2.5363	27.814
2.5289	27.751
2.5215	27.712
2.5141	27.663
2.5068	27.601
2.4996	27.582
2.4924	27.516
2.4852	27.483
2.4781	27.408
2.471	27.383
2.464	27.311
2.4569	27.282
2.45	27.273
2.4431	27.214
2.4362	27.184
2.4293	27.13
2.4225	27.078
2.4157	27.045
2.409	26.986
2.4023	26.912
2.3956	26.918
2.389	26.866
2.3824	26.803
2.3759	26.756
2.3694	26.693
2.3629	26.673
2.3564	26.6
2.35	26.59
2.3436	26.547
2.3373	26.5
2.331	26.444
2.3247	26.402
2.3185	26.376
2.3123	26.312
2.3061	26.277
2.3	26.213
2.2939	26.177
2.2878	26.116
2.2818	26.074
2.2757	26.081
2.2698	26
2.2638	25.944
2.2579	25.928
2.252	25.852
2.2462	25.855
2.2403	25.81
2.2345	25.739
2.2288	25.688
2.2231	25.645
2.2173	25.594
2.2117	25.564
2.206	25.558
2.2004	25.482
2.1948	25.491
2.1893	25.414
2.1837	25.37
2.1782	25.345
2.1727	25.268
2.1673	25.197
2.1619	25.213
2.1565	25.152
2.1511	25.13
2.1458	25.049
2.1404	25.042
2.1352	25.01
2.1299	24.95
2.1247	24.885
2.1194	24.912
2.1143	24.902
2.1091	24.816
2.104	24.81
2.0988	24.752
2.0938	24.675
2.0887	24.642
2.0837	24.612
