Name: 67701.36
Type: Soil
Class: Lunar
Subclass: Highland
Particle Size: Fine
Sample No.: 67701_36
Owner: JHU
Wavelength Range: TIR
Origin: Apollo 16 landing site via the NASA Lunar Sample Repository at JohnsonSpace Center, Houston, TX.
Description: This sample is one of a suite of relatively more aluminous and lower iron and titanium soils at the Apollo 16 site, and has an intermediate exposure age of the four soils of that suite (Is/FeO=37). Original ASTER Spectral Library name was jhu.becknic.soil.lunar.highlands.fine.67701.spectrum.txt
Measurement: Directional (10 degree) hemispherical reflectance
X Units: Wavelength (micrometers)
Y Units: Reflectance (percent)
wavelength	value
14.011	0.8758
13.788	0.8236
13.571	1.0259
13.361	1.1832
13.158	1.0696
12.96	1.2165
12.769	1.6452
12.583	2.4472
12.402	3.0447
12.227	3.2394
12.056	3.0326
11.89	2.8669
11.729	2.7278
11.572	2.6658
11.419	2.6066
11.27	2.4899
11.125	2.4738
10.983	2.4949
10.846	2.5917
10.711	2.5264
10.58	2.3945
10.452	2.2278
10.327	1.9449
10.205	1.6819
10.086	1.5888
9.9695	1.5105
9.8558	1.4579
9.7447	1.4771
9.636	1.3489
9.5297	1.1842
9.4257	1.0977
9.324	1.0867
9.2245	1.1076
9.127	1.2615
9.0316	1.2978
8.9382	1.2526
8.8467	1.2627
8.757	1.3245
8.6692	1.3317
8.583	1.2405
8.4986	1.1164
8.4158	0.9054
8.3347	0.681
8.255	0.5115
8.1769	0.4666
8.1002	0.5494
8.025	0.7237
7.9512	0.9958
7.8786	1.3404
7.8075	1.7537
7.7375	2.2214
7.6689	2.7531
7.6014	3.2509
7.5351	3.7554
7.47	4.2831
7.4059	4.8294
7.343	5.3619
7.2811	5.8885
7.2203	6.354
7.1604	6.8433
7.1016	7.2533
7.0437	7.684
6.9867	8.034
6.9307	8.3285
6.8755	8.5644
6.8213	8.6993
6.7678	8.9761
6.7152	9.2036
6.6634	9.2612
6.6124	9.421
6.5622	9.677
6.5128	9.8738
6.464	10.032
6.416	10.304
6.3687	10.181
6.3221	10.137
6.2762	10.262
6.231	10.364
6.1863	10.476
6.1424	10.564
6.099	10.727
6.0563	10.849
6.0141	11.046
5.9725	11.574
5.9315	12.306
5.8911	13.021
5.8512	13.644
5.8118	14.358
5.773	15.061
5.7347	15.511
5.6969	15.845
5.6596	16.112
5.6227	16.511
5.5864	16.865
5.5505	16.986
5.5151	16.862
5.4801	16.802
5.4455	16.847
5.4114	17.203
5.3778	17.766
5.3445	18.29
5.3116	18.648
5.2792	19.125
5.2471	19.69
5.2154	20.2
5.1842	20.732
5.1532	21.319
5.1227	22.016
5.0925	22.615
5.0627	23.123
5.0332	23.757
5.004	24.447
4.9752	25.118
4.9467	25.757
4.9186	26.414
4.8907	27.045
4.8632	27.641
4.836	28.25
4.809	28.815
4.7824	29.264
4.7561	29.742
4.7301	30.326
4.7043	30.967
4.6788	31.544
4.6536	32.052
4.6287	32.815
4.604	33.636
4.5796	34.347
4.5555	34.963
4.5316	35.49
4.508	35.913
4.4846	36.254
4.4614	36.453
4.4385	36.556
4.4158	36.645
4.3934	36.802
4.3711	37.074
4.3491	37.403
4.3273	37.762
4.3058	38.202
4.2844	38.729
4.2633	39.058
4.2424	39.424
4.2216	39.574
4.2011	39.587
4.1808	39.696
4.1606	39.772
4.1407	39.869
4.1209	39.943
4.1014	40.005
4.082	40.083
4.0628	40.129
4.0438	40.178
4.025	40.251
4.0063	40.292
3.9878	40.372
3.9695	40.394
3.9513	40.431
3.9333	40.434
3.9155	40.433
3.8979	40.433
3.8804	40.46
3.863	40.46
3.8458	40.421
3.8288	40.44
3.8119	40.436
3.7951	40.388
3.7785	40.334
3.7621	40.307
3.7458	40.235
3.7296	40.212
3.7136	40.147
3.6977	40.074
3.6819	40.001
3.6663	39.924
3.6508	39.861
3.6355	39.846
3.6202	39.756
3.6051	39.659
3.5901	39.619
3.5753	39.512
3.5605	39.412
3.5459	39.297
3.5314	39.131
3.5171	38.712
3.5028	37.671
3.4887	37.924
3.4746	38.017
3.4607	38.054
3.4469	37.664
3.4332	37.031
3.4196	35.845
3.4061	36.208
3.3928	37.192
3.3795	36.766
3.3663	37.05
3.3533	37.827
3.3403	37.942
3.3274	37.915
3.3147	37.887
3.302	37.808
3.2894	37.7
3.277	37.625
3.2646	37.463
3.2523	37.392
3.2401	37.255
3.228	37.164
3.216	37.061
3.204	36.925
3.1922	36.774
3.1805	36.723
3.1688	36.593
3.1572	36.493
3.1457	36.409
3.1343	36.284
3.123	36.198
3.1117	36.106
3.1006	36.009
3.0895	35.94
3.0785	35.797
3.0675	35.767
3.0567	35.704
3.0459	35.633
3.0352	35.614
3.0246	35.547
3.014	35.408
3.0036	35.364
2.9932	35.264
2.9828	35.203
2.9726	35.17
2.9624	35.15
2.9523	35.086
2.9422	35.045
2.9322	34.992
2.9223	35.003
2.9124	35.017
2.9027	35.023
2.8929	34.996
2.8833	35.06
2.8737	35.07
2.8642	35.11
2.8547	35.073
2.8453	35.147
2.836	35.203
2.8267	35.278
2.8175	35.461
2.8083	35.529
2.7992	35.708
2.7902	35.874
2.7812	36.095
2.7723	36.446
2.7634	36.848
2.7546	37.172
2.7458	37.364
2.7371	37.66
2.7285	37.817
2.7199	38.223
2.7114	38.36
2.7029	38.399
2.6945	38.592
2.6861	38.611
2.6778	38.703
2.6695	38.871
2.6613	38.679
2.6531	38.671
2.645	38.628
2.6369	38.554
2.6289	38.631
2.6209	38.642
2.613	38.49
2.6051	38.537
2.5973	38.396
2.5895	38.367
2.5817	38.329
2.5741	38.236
2.5664	38.153
2.5588	38.047
2.5513	38.067
2.5437	37.954
2.5363	37.919
2.5289	37.831
2.5215	37.751
2.5141	37.726
2.5068	37.648
2.4996	37.61
2.4924	37.54
2.4852	37.465
2.4781	37.444
2.471	37.394
2.464	37.337
2.4569	37.265
2.45	37.231
2.4431	37.178
2.4362	37.093
2.4293	37.043
2.4225	36.981
2.4157	36.954
2.409	36.858
2.4023	36.849
2.3956	36.792
2.389	36.719
2.3824	36.69
2.3759	36.606
2.3694	36.55
2.3629	36.497
2.3564	36.46
2.35	36.44
2.3436	36.329
2.3373	36.284
2.331	36.239
2.3247	36.167
2.3185	36.116
2.3123	36.094
2.3061	35.982
2.3	35.954
2.2939	35.928
2.2878	35.827
2.2818	35.782
2.2757	35.727
2.2698	35.719
2.2638	35.662
2.2579	35.618
2.252	35.515
2.2462	35.451
2.2403	35.448
2.2345	35.384
2.2288	35.289
2.2231	35.283
2.2173	35.204
2.2117	35.175
2.206	35.112
2.2004	35.11
2.1948	34.989
2.1893	34.945
2.1837	34.951
2.1782	34.856
2.1727	34.828
2.1673	34.778
2.1619	34.735
2.1565	34.64
2.1511	34.498
2.1458	34.552
2.1404	34.53
2.1352	34.493
2.1299	34.457
2.1247	34.349
2.1194	34.38
2.1143	34.209
2.1091	34.222
2.104	34.151
2.0988	34.151
2.0938	34.12
2.0887	34.065
2.0837	34.01
