Name: 12024.69
Type: Soil
Class: Lunar
Subclass: Maria
Particle Size: Fine
Sample No.: 12024_69
Owner: JHU
Wavelength Range: TIR
Origin: Apollo 12 landing site via the NASA Lunar Sample Repository at JohnsonSpace Center, Houston, TX.
Description: This sample is one of a suite of soils of similar chemistry, but different exposure ages, from the Apollo 12 mare site.  This sample has the intermediate exposure age of the three soils of that suite (Is/FeO=30). Original ASTER Spectral Library name was jhu.becknic.soil.lunar.maria.fine.12024.spectrum.txt
Measurement: Directional (10 degree) hemispherical reflectance
X Units: Wavelength (micrometers)
Y Units: Reflectance (percent)
wavelength	value
14.011	1.3785
13.788	1.2863
13.571	1.4171
13.361	1.5587
13.158	1.562
12.96	1.7251
12.769	1.84
12.583	2.1068
12.402	2.3331
12.227	2.5004
12.056	2.4443
11.89	2.3763
11.729	2.4383
11.572	2.5181
11.419	2.6153
11.27	2.5523
11.125	2.4583
10.983	2.4205
10.846	2.4864
10.711	2.4575
10.58	2.3169
10.452	2.2613
10.327	2.1415
10.205	2.0122
10.086	2.0059
9.9695	1.9704
9.8558	1.9572
9.7447	1.9765
9.636	1.9319
9.5297	1.9368
9.4257	1.9353
9.324	1.9243
9.2245	1.908
9.127	1.9034
9.0316	1.7407
8.9382	1.5069
8.8467	1.2621
8.757	1.1434
8.6692	1.0749
8.583	0.978
8.4986	0.9691
8.4158	0.9255
8.3347	0.9186
8.255	0.9459
8.1769	1.0857
8.1002	1.3081
8.025	1.6675
7.9512	2.2145
7.8786	2.7778
7.8075	3.3955
7.7375	3.979
7.6689	4.5875
7.6014	5.1767
7.5351	5.7496
7.47	6.3116
7.4059	6.8689
7.343	7.366
7.2811	7.8623
7.2203	8.3018
7.1604	8.7276
7.1016	9.1396
7.0437	9.4437
6.9867	9.839
6.9307	10.14
6.8755	10.417
6.8213	10.621
6.7678	10.807
6.7152	10.897
6.6634	10.991
6.6124	11.029
6.5622	11.073
6.5128	11.206
6.464	11.328
6.416	11.179
6.3687	11.387
6.3221	11.436
6.2762	11.476
6.231	11.516
6.1863	11.478
6.1424	11.731
6.099	11.892
6.0563	11.853
6.0141	12.114
5.9725	12.394
5.9315	12.679
5.8911	13.073
5.8512	13.531
5.8118	13.806
5.773	14.009
5.7347	14.307
5.6969	14.422
5.6596	14.53
5.6227	14.739
5.5864	14.933
5.5505	15.151
5.5151	15.273
5.4801	15.267
5.4455	15.274
5.4114	15.279
5.3778	15.283
5.3445	15.245
5.3116	15.306
5.2792	15.436
5.2471	15.654
5.2154	15.9
5.1842	16.198
5.1532	16.458
5.1227	16.772
5.0925	17.069
5.0627	17.325
5.0332	17.657
5.004	18.004
4.9752	18.35
4.9467	18.738
4.9186	19.146
4.8907	19.477
4.8632	19.821
4.836	20.157
4.809	20.46
4.7824	20.738
4.7561	21.018
4.7301	21.315
4.7043	21.607
4.6788	21.888
4.6536	22.15
4.6287	22.416
4.604	22.638
4.5796	22.834
4.5555	22.997
4.5316	23.144
4.508	23.238
4.4846	23.319
4.4614	23.387
4.4385	23.452
4.4158	23.481
4.3934	23.529
4.3711	23.569
4.3491	23.638
4.3273	23.697
4.3058	23.739
4.2844	23.796
4.2633	23.809
4.2424	23.858
4.2216	23.862
4.2011	23.876
4.1808	23.868
4.1606	23.847
4.1407	23.904
4.1209	23.882
4.1014	23.887
4.082	23.871
4.0628	23.859
4.0438	23.863
4.025	23.874
4.0063	23.843
3.9878	23.845
3.9695	23.819
3.9513	23.829
3.9333	23.807
3.9155	23.763
3.8979	23.742
3.8804	23.729
3.863	23.705
3.8458	23.654
3.8288	23.61
3.8119	23.61
3.7951	23.545
3.7785	23.532
3.7621	23.516
3.7458	23.458
3.7296	23.424
3.7136	23.387
3.6977	23.351
3.6819	23.296
3.6663	23.246
3.6508	23.223
3.6355	23.202
3.6202	23.161
3.6051	23.101
3.5901	23.08
3.5753	23.027
3.5605	22.987
3.5459	22.928
3.5314	22.863
3.5171	22.837
3.5028	22.775
3.4887	22.686
3.4746	22.639
3.4607	22.617
3.4469	22.581
3.4332	22.524
3.4196	22.382
3.4061	22.372
3.3928	22.357
3.3795	22.237
3.3663	22.258
3.3533	22.293
3.3403	22.266
3.3274	22.23
3.3147	22.2
3.302	22.143
3.2894	22.118
3.277	22.053
3.2646	21.995
3.2523	21.93
3.2401	21.899
3.228	21.838
3.216	21.806
3.204	21.724
3.1922	21.648
3.1805	21.642
3.1688	21.568
3.1572	21.554
3.1457	21.45
3.1343	21.448
3.123	21.398
3.1117	21.366
3.1006	21.318
3.0895	21.255
3.0785	21.216
3.0675	21.171
3.0567	21.058
3.0459	21.08
3.0352	21.052
3.0246	20.997
3.014	20.889
3.0036	20.878
2.9932	20.79
2.9828	20.803
2.9726	20.734
2.9624	20.712
2.9523	20.657
2.9422	20.62
2.9322	20.584
2.9223	20.55
2.9124	20.531
2.9027	20.461
2.8929	20.38
2.8833	20.439
2.8737	20.366
2.8642	20.395
2.8547	20.267
2.8453	20.293
2.836	20.193
2.8267	20.202
2.8175	20.185
2.8083	20.181
2.7992	20.244
2.7902	20.279
2.7812	20.247
2.7723	20.271
2.7634	20.329
2.7546	20.307
2.7458	20.582
2.7371	20.615
2.7285	20.709
2.7199	20.567
2.7114	20.611
2.7029	20.818
2.6945	20.633
2.6861	20.746
2.6778	20.551
2.6695	20.411
2.6613	20.592
2.6531	20.501
2.645	20.486
2.6369	20.471
2.6289	20.284
2.6209	20.217
2.613	20.278
2.6051	20.004
2.5973	20.109
2.5895	20.079
2.5817	19.991
2.5741	19.88
2.5664	19.926
2.5588	19.857
2.5513	19.763
2.5437	19.707
2.5363	19.604
2.5289	19.572
2.5215	19.521
2.5141	19.46
2.5068	19.387
2.4996	19.324
2.4924	19.242
2.4852	19.175
2.4781	19.129
2.471	19.056
2.464	19.015
2.4569	18.931
2.45	18.874
2.4431	18.825
2.4362	18.767
2.4293	18.67
2.4225	18.64
2.4157	18.589
2.409	18.517
2.4023	18.464
2.3956	18.415
2.389	18.364
2.3824	18.346
2.3759	18.242
2.3694	18.197
2.3629	18.154
2.3564	18.112
2.35	18.098
2.3436	17.993
2.3373	17.926
2.331	17.911
2.3247	17.836
2.3185	17.824
2.3123	17.795
2.3061	17.771
2.3	17.66
2.2939	17.655
2.2878	17.558
2.2818	17.551
2.2757	17.481
2.2698	17.489
2.2638	17.456
2.2579	17.406
2.252	17.329
2.2462	17.286
2.2403	17.276
2.2345	17.231
2.2288	17.191
2.2231	17.179
2.2173	17.103
2.2117	17.111
2.206	17.066
2.2004	17.052
2.1948	16.962
2.1893	16.946
2.1837	16.883
2.1782	16.902
2.1727	16.895
2.1673	16.843
2.1619	16.841
2.1565	16.816
2.1511	16.738
2.1458	16.714
2.1404	16.717
2.1352	16.667
2.1299	16.66
2.1247	16.639
2.1194	16.645
2.1143	16.524
2.1091	16.535
2.104	16.521
2.0988	16.497
2.0938	16.478
2.0887	16.457
2.0837	16.422
