Name: Sandy Loam/alluvium
Type: soil
Class: Entisol
Subclass: None
Particle Size: Unsorted
Sample No.: fgg008
Owner: University of NSW
Wavelength Range: TIR
Origin: Fowlers Gap, western New South Wales, AustraliaHewson(1998) PhD thesis
Description: Parent material consists of aeolian silts/clays and sandstone debris. Red-orange loam.Physiography: Depositional erosional scald along footslopes of sandstone hillslopes (Nundooka Sandstone). Original ASTER Spectral Library name was jpl.nicolet.soil.entisol.none.unsorted.fgg008.spectrum.txt
Measurement: Directional hemispherical reflectance
X Units: Wavelength (micrometers)
Y Units: Reflectance (percent)
wavelength	value
14.0131	1.4627
13.7895	1.3359
13.5729	1.6173
13.363	1.5503
13.1595	1.6546
12.9621	1.8137
12.7705	2.0473
12.5845	1.7508
12.4039	1.5924
12.2284	1.3516
12.0578	1.6285
11.8918	1.9887
11.7304	2.1005
11.5733	2.2758
11.4203	2.3222
11.2714	2.4455
11.1263	2.7606
10.9848	2.9017
10.8469	2.7497
10.7125	2.6118
10.5813	2.4534
10.4533	2.8872
10.3284	3.6623
10.2064	4.0966
10.0872	4.9725
9.9708	6.236
9.8571	6.5735
9.7459	7.6752
9.6372	9.2042
9.5309	9.8832
9.427	10.5416
9.3252	10.5397
9.2257	9.0622
9.1282	7.663
9.0328	6.827
8.9394	6.9677
8.8478	7.4722
8.7582	6.8584
8.6703	6.1605
8.5842	5.846
8.4997	6.1691
8.4169	6.5257
8.3357	6.9831
8.2561	7.9644
8.178	8.1166
8.1013	6.0857
8.0261	4.3557
7.9522	3.1093
7.8797	2.2476
7.8085	1.8561
7.7386	1.6956
7.6699	1.5935
7.6024	1.4862
7.5361	1.4208
7.4709	1.3718
7.4069	1.3528
7.344	1.4094
7.2821	1.533
7.2212	1.5874
7.1614	1.7811
7.1025	1.727
7.0446	1.9349
6.9877	2.021
6.9316	2.0125
6.8764	2.0968
6.8222	2.1369
6.7687	2.0501
6.7161	2.1325
6.6643	2.1378
6.6133	2.2966
6.5631	2.1983
6.5136	2.3693
6.4649	2.5535
6.4169	3.0288
6.3696	2.4096
6.323	2.066
6.277	1.7324
6.2318	1.5293
6.1872	1.374
6.1432	1.225
6.0998	1.1305
6.0571	1.3636
6.0149	1.3555
5.9733	1.3794
5.9323	1.546
5.8919	2.0701
5.852	2.4476
5.8126	2.9751
5.7738	3.6538
5.7354	4.1112
5.6976	4.3599
5.6603	4.0437
5.6235	3.6142
5.5871	3.4115
5.5512	3.5275
5.5158	3.658
5.4808	4.0373
5.4463	4.2265
5.4121	3.7718
5.3785	3.2314
5.3452	3.0768
5.3123	3.2376
5.2799	3.5014
5.2478	3.9779
5.2161	4.8299
5.1848	5.1252
5.1539	4.915
5.1234	5.1811
5.0932	5.134
5.0633	4.9007
5.0338	5.1317
5.0047	5.1501
4.9759	5.6054
4.9474	6.4906
4.9192	7.108
4.8914	8.8984
4.8638	10.4891
4.8366	11.2087
4.8097	11.8484
4.7831	12.1956
4.7567	12.4612
4.7307	12.6287
4.7049	12.5694
4.6795	12.3151
4.6543	12.8872
4.6293	13.5443
4.6047	13.9669
4.5802	14.1951
4.5561	14.3388
4.5322	14.0547
4.5086	13.6308
4.4852	13.1854
4.462	13.2314
4.4391	13.7514
4.4164	14.1897
4.3939	14.865
4.3717	15.6217
4.3497	15.7501
4.3279	15.439
4.3063	14.2639
4.285	13.6458
4.2638	14.0284
4.2429	13.0865
4.2222	14.0117
4.2017	17.5547
4.1813	19.0296
4.1612	19.3933
4.1412	19.9017
4.1215	20.242
4.1019	20.6848
4.0826	21.2212
4.0634	21.6548
4.0443	21.9373
4.0255	22.1449
4.0068	22.4713
3.9883	22.6131
3.97	22.9094
3.9519	23.1619
3.9339	23.18
3.916	23.2551
3.8984	23.0877
3.8809	22.9742
3.8635	22.7716
3.8463	22.5611
3.8293	22.3328
3.8124	21.9645
3.7956	21.8216
3.779	21.2949
3.7626	20.861
3.7463	20.3523
3.7301	19.7816
3.7141	19.3302
3.6982	18.8444
3.6824	18.544
3.6668	17.9954
3.6513	17.6817
3.6359	17.0031
3.6207	16.4059
3.6056	15.9237
3.5906	15.2447
3.5758	14.7702
3.561	14.2011
3.5464	13.6233
3.5319	12.9819
3.5175	12.3876
3.5033	11.6788
3.4891	11.4498
3.4751	10.8277
3.4612	10.2763
3.4474	9.7243
3.4337	9.2268
3.4201	8.6055
3.4066	8.2442
3.3932	7.8782
3.3799	7.4979
3.3668	6.9504
3.3537	6.6459
3.3407	6.3655
3.3279	6.0088
3.3151	5.6179
3.3024	5.3161
3.2899	5.0443
3.2774	4.8712
3.265	4.5079
3.2527	4.2731
3.2405	4.0668
3.2284	3.7613
3.2164	3.6277
3.2045	3.3876
3.1926	3.2458
3.1809	3.104
3.1692	2.9206
3.1576	2.7324
3.1461	2.6861
3.1347	2.6354
3.1234	2.3503
3.1121	2.3688
3.101	2.314
3.0899	2.071
3.0789	2.1521
3.068	2.2041
3.0571	2.1542
3.0463	2.2762
3.0356	1.9976
3.025	1.8896
3.0144	1.9819
3.004	1.9436
2.9936	2.0861
2.9832	1.8488
2.973	1.8686
2.9628	1.7303
2.9526	1.6966
2.9426	1.7416
2.9326	1.8863
2.9227	1.7438
2.9128	1.768
2.903	1.7508
2.8933	1.7054
2.8837	1.8174
2.8741	1.8227
2.8646	1.7939
2.8551	1.9045
2.8457	2.1537
2.8363	1.9393
2.8271	2.0101
2.8178	1.9398
2.8087	1.8034
2.7996	1.7949
2.7906	1.7996
2.7816	1.8216
2.7726	1.6514
2.7638	1.3077
2.755	1.3877
2.7462	1.3855
2.7375	1.5869
2.7289	1.6947
2.7203	2.2651
2.7117	2.3567
2.7033	1.7787
2.6948	4.1112
2.6864	8.3351
2.6781	12.4036
2.6698	16.2088
2.6616	17.147
2.6535	18.6587
2.6453	19.7728
2.6373	20.5951
2.6292	22.0709
2.6213	22.9016
2.6133	22.9195
2.6054	24.5501
2.5976	23.8469
2.5898	24.1674
2.5821	24.449
2.5744	24.9584
2.5668	24.7691
2.5592	25.0895
2.5516	25.6138
2.5441	25.528
2.5366	25.7093
2.5292	25.716
2.5218	25.8619
2.5145	26.3048
2.5072	26.5316
2.4999	26.9575
2.4927	27.3359
2.4855	27.5441
2.4784	28.1149
2.4713	28.6009
2.4643	29.0864
2.4573	29.348
2.4503	29.8477
2.4434	30.176
2.4365	30.883
2.4296	31.7985
2.4228	32.2698
2.4161	33.1278
2.4093	33.7246
2.4026	33.9293
2.396	34.209
2.3893	34.3055
2.3827	34.4936
2.3762	34.9159
2.3697	35.7358
2.3632	36.1392
2.3567	36.418
2.3503	36.879
2.344	37.9325
2.3376	38.4013
2.3313	39.2144
2.325	39.7999
2.3188	40.2053
2.3126	41.0008
2.3064	41.481
2.3003	42.0004
2.2942	42.4992
2.2881	42.5056
2.2821	43.0536
2.2761	43.1285
2.2701	43.5443
2.2641	43.4299
2.2582	43.0534
2.2523	42.5189
2.2465	42.1627
2.2406	41.9169
2.2348	41.884
2.2291	41.4607
2.2233	40.8775
2.2176	39.7867
2.212	37.1917
2.2063	36.5968
2.2007	38.9688
2.1951	40.229
2.1895	41.3624
2.184	42.1961
2.1785	42.9608
2.173	43.451
2.1676	43.7958
2.1622	44.3486
2.1568	45.0411
2.1514	46.0588
2.146	47.0727
2.1407	47.7676
2.1354	48.2336
2.1302	48.2334
2.1249	48.2748
2.1197	48.3475
2.1145	48.2458
2.1094	48.1096
2.1042	48.3002
2.0991	48.4077
2.094	48.1538
2.089	48.0528
2.0839	48.09
2.0789	48.1535
2.0739	47.9749
2.069	47.5218
2.064	47.7238
2.0591	47.3267
2.0542	47.3479
2.0493	47.0623
2.0445	46.8343
2.0397	46.371
2.0349	46.1631
2.0301	45.8062
2.0253	45.4726
2.0206	44.9744
2.0159	44.4253
2.0112	43.9886
2.0065	43.6462
2.0019	43.0785
