Name: 10084.1939
Type: Soil
Class: Lunar
Subclass: Maria
Particle Size: Fine
Sample No.: 10084_1939
Owner: JHU
Wavelength Range: TIR
Origin: Apollo 11 landing site via the NASA Lunar Sample Repository at JohnsonSpace Center, Houston, TX.
Description: This is the only sample from the Apollo 11 mare site.  This sample has a large exposure age (Is/FeO=78). Original ASTER Spectral Library name was jhu.becknic.soil.lunar.maria.fine.10084.spectrum.txt
Measurement: Directional (10 degree) hemispherical reflectance
X Units: Wavelength (micrometers)
Y Units: Reflectance (percent)
wavelength	value
14.011	1.4886
13.788	1.3128
13.571	1.4348
13.361	1.4889
13.158	1.421
12.96	1.5236
12.769	1.6062
12.583	1.8052
12.402	1.9642
12.227	2.0994
12.056	2.1211
11.89	2.1091
11.729	2.1466
11.572	2.1901
11.419	2.2462
11.27	2.2001
11.125	2.1948
10.983	2.1764
10.846	2.1939
10.711	2.1582
10.58	2.1128
10.452	2.0416
10.327	1.9604
10.205	1.8781
10.086	1.8537
9.9695	1.7679
9.8558	1.7754
9.7447	1.7448
9.636	1.7163
9.5297	1.7145
9.4257	1.7429
9.324	1.7392
9.2245	1.6995
9.127	1.6841
9.0316	1.5786
8.9382	1.4089
8.8467	1.2389
8.757	1.1538
8.6692	1.0928
8.583	1.0796
8.4986	1.0711
8.4158	1.0686
8.3347	1.1752
8.255	1.3408
8.1769	1.6414
8.1002	2.0019
8.025	2.4827
7.9512	3.1124
7.8786	3.7207
7.8075	4.276
7.7375	4.7765
7.6689	5.2815
7.6014	5.7488
7.5351	6.1809
7.47	6.6007
7.4059	7.0016
7.343	7.3551
7.2811	7.683
7.2203	7.9879
7.1604	8.2758
7.1016	8.5582
7.0437	8.7631
6.9867	9.0331
6.9307	9.2803
6.8755	9.464
6.8213	9.6403
6.7678	9.7641
6.7152	9.8377
6.6634	9.9057
6.6124	9.9624
6.5622	9.9817
6.5128	10.066
6.464	10.175
6.416	10.097
6.3687	10.321
6.3221	10.405
6.2762	10.493
6.231	10.556
6.1863	10.549
6.1424	10.723
6.099	10.833
6.0563	10.876
6.0141	11.088
5.9725	11.259
5.9315	11.434
5.8911	11.688
5.8512	11.937
5.8118	12.149
5.773	12.311
5.7347	12.51
5.6969	12.61
5.6596	12.683
5.6227	12.806
5.5864	12.882
5.5505	12.968
5.5151	13.038
5.4801	13.029
5.4455	13.022
5.4114	13.004
5.3778	13.034
5.3445	12.998
5.3116	13.06
5.2792	13.163
5.2471	13.3
5.2154	13.425
5.1842	13.616
5.1532	13.706
5.1227	13.875
5.0925	14.009
5.0627	14.153
5.0332	14.321
5.004	14.517
4.9752	14.676
4.9467	14.871
4.9186	15.07
4.8907	15.229
4.8632	15.369
4.836	15.51
4.809	15.664
4.7824	15.76
4.7561	15.909
4.7301	16.035
4.7043	16.162
4.6788	16.276
4.6536	16.371
4.6287	16.473
4.604	16.561
4.5796	16.626
4.5555	16.697
4.5316	16.739
4.508	16.771
4.4846	16.803
4.4614	16.822
4.4385	16.839
4.4158	16.829
4.3934	16.846
4.3711	16.864
4.3491	16.882
4.3273	16.888
4.3058	16.919
4.2844	16.939
4.2633	16.937
4.2424	16.932
4.2216	16.944
4.2011	16.902
4.1808	16.893
4.1606	16.872
4.1407	16.888
4.1209	16.858
4.1014	16.866
4.082	16.858
4.0628	16.841
4.0438	16.834
4.025	16.823
4.0063	16.808
3.9878	16.822
3.9695	16.783
3.9513	16.791
3.9333	16.769
3.9155	16.756
3.8979	16.72
3.8804	16.688
3.863	16.683
3.8458	16.627
3.8288	16.609
3.8119	16.619
3.7951	16.567
3.7785	16.538
3.7621	16.529
3.7458	16.484
3.7296	16.469
3.7136	16.418
3.6977	16.403
3.6819	16.36
3.6663	16.337
3.6508	16.317
3.6355	16.297
3.6202	16.269
3.6051	16.217
3.5901	16.203
3.5753	16.164
3.5605	16.131
3.5459	16.098
3.5314	16.055
3.5171	16.07
3.5028	16.062
3.4887	15.999
3.4746	15.962
3.4607	15.928
3.4469	15.938
3.4332	15.926
3.4196	15.877
3.4061	15.837
3.3928	15.812
3.3795	15.746
3.3663	15.682
3.3533	15.645
3.3403	15.632
3.3274	15.555
3.3147	15.528
3.302	15.507
3.2894	15.482
3.277	15.441
3.2646	15.406
3.2523	15.358
3.2401	15.283
3.228	15.266
3.216	15.249
3.204	15.197
3.1922	15.14
3.1805	15.143
3.1688	15.103
3.1572	15.062
3.1457	15.024
3.1343	14.973
3.123	14.989
3.1117	14.915
3.1006	14.889
3.0895	14.872
3.0785	14.811
3.0675	14.796
3.0567	14.741
3.0459	14.717
3.0352	14.703
3.0246	14.635
3.014	14.587
3.0036	14.574
2.9932	14.51
2.9828	14.483
2.9726	14.485
2.9624	14.473
2.9523	14.389
2.9422	14.384
2.9322	14.355
2.9223	14.348
2.9124	14.317
2.9027	14.258
2.8929	14.214
2.8833	14.275
2.8737	14.203
2.8642	14.194
2.8547	14.143
2.8453	14.151
2.836	14.037
2.8267	14.079
2.8175	14.048
2.8083	14.075
2.7992	14.085
2.7902	14.114
2.7812	14.106
2.7723	14.129
2.7634	14.189
2.7546	14.196
2.7458	14.297
2.7371	14.337
2.7285	14.355
2.7199	14.291
2.7114	14.318
2.7029	14.374
2.6945	14.28
2.6861	14.338
2.6778	14.177
2.6695	14.137
2.6613	14.216
2.6531	14.167
2.645	14.17
2.6369	14.17
2.6289	14.029
2.6209	14.009
2.613	14.029
2.6051	13.905
2.5973	13.962
2.5895	13.962
2.5817	13.874
2.5741	13.804
2.5664	13.828
2.5588	13.793
2.5513	13.743
2.5437	13.708
2.5363	13.663
2.5289	13.643
2.5215	13.596
2.5141	13.593
2.5068	13.538
2.4996	13.512
2.4924	13.468
2.4852	13.414
2.4781	13.377
2.471	13.36
2.464	13.347
2.4569	13.301
2.45	13.267
2.4431	13.204
2.4362	13.153
2.4293	13.119
2.4225	13.094
2.4157	13.081
2.409	13.011
2.4023	13.014
2.3956	13.003
2.389	12.965
2.3824	12.959
2.3759	12.911
2.3694	12.893
2.3629	12.823
2.3564	12.836
2.35	12.824
2.3436	12.796
2.3373	12.727
2.331	12.722
2.3247	12.693
2.3185	12.661
2.3123	12.668
2.3061	12.58
2.3	12.591
2.2939	12.618
2.2878	12.551
2.2818	12.489
2.2757	12.488
2.2698	12.485
2.2638	12.507
2.2579	12.424
2.252	12.384
2.2462	12.355
2.2403	12.39
2.2345	12.318
2.2288	12.28
2.2231	12.271
2.2173	12.238
2.2117	12.23
2.206	12.231
2.2004	12.227
2.1948	12.162
2.1893	12.183
2.1837	12.134
2.1782	12.163
2.1727	12.122
2.1673	12.1
2.1619	12.07
2.1565	12.084
2.1511	12.032
2.1458	11.995
2.1404	12.03
2.1352	12.011
2.1299	12.003
2.1247	12.001
2.1194	12.008
2.1143	11.927
2.1091	11.924
2.104	11.923
2.0988	11.885
2.0938	11.887
2.0887	11.885
2.0837	11.797
