Name: 62231.15
Type: Soil
Class: Lunar
Subclass: Highland
Particle Size: Fine
Sample No.: 62231_15
Owner: JHU
Wavelength Range: TIR
Origin: Apollo 16 landing site via the NASA Lunar Sample Repository at JohnsonSpace Center, Houston, TX.
Description: Chemistry is not available for this extra sample, but it appears to be one of the relatively less aluminous soils at the Apollo 16 site from its spectrum (i.e., it resembles suite 16b samples, such as 67941, 61241, and 68501), but has a very great exposure age (Is/FeO=91). Original ASTER Spectral Library name was jhu.becknic.soil.lunar.highlands.fine.62231.spectrum.txt
Measurement: Directional (10 degree) hemispherical reflectance
X Units: Wavelength (micrometers)
Y Units: Reflectance (percent)
wavelength	value
14.011	0.7479
13.788	0.7913
13.571	0.9324
13.361	1.0808
13.158	1.0969
12.96	1.1819
12.769	1.4295
12.583	1.8552
12.402	2.1246
12.227	2.3235
12.056	2.2856
11.89	2.218
11.729	2.1888
11.572	2.1962
11.419	2.2557
11.27	2.2001
11.125	2.2308
10.983	2.2206
10.846	2.2722
10.711	2.2386
10.58	2.1344
10.452	1.9918
10.327	1.8252
10.205	1.6208
10.086	1.54
9.9695	1.451
9.8558	1.4093
9.7447	1.4358
9.636	1.2931
9.5297	1.2156
9.4257	1.1308
9.324	1.1105
9.2245	1.1069
9.127	1.1571
9.0316	1.1683
8.9382	1.1112
8.8467	1.085
8.757	1.0922
8.6692	1.0468
8.583	0.9374
8.4986	0.8449
8.4158	0.6827
8.3347	0.5037
8.255	0.3935
8.1769	0.4168
8.1002	0.5363
8.025	0.7365
7.9512	1.0864
7.8786	1.5024
7.8075	1.9847
7.7375	2.4899
7.6689	3.0833
7.6014	3.6369
7.5351	4.1737
7.47	4.7698
7.4059	5.3144
7.343	5.8584
7.2811	6.3864
7.2203	6.8725
7.1604	7.3252
7.1016	7.7245
7.0437	8.1459
6.9867	8.5102
6.9307	8.8287
6.8755	9.1052
6.8213	9.2991
6.7678	9.5523
6.7152	9.7718
6.6634	9.8844
6.6124	10.051
6.5622	10.268
6.5128	10.499
6.464	10.707
6.416	10.893
6.3687	10.935
6.3221	10.992
6.2762	11.133
6.231	11.255
6.1863	11.36
6.1424	11.479
6.099	11.648
6.0563	11.798
6.0141	12.031
5.9725	12.484
5.9315	13.031
5.8911	13.579
5.8512	14.109
5.8118	14.652
5.773	15.133
5.7347	15.555
5.6969	15.792
5.6596	16.024
5.6227	16.341
5.5864	16.626
5.5505	16.8
5.5151	16.8
5.4801	16.844
5.4455	16.964
5.4114	17.208
5.3778	17.619
5.3445	18.007
5.3116	18.299
5.2792	18.66
5.2471	19.072
5.2154	19.479
5.1842	19.912
5.1532	20.386
5.1227	20.927
5.0925	21.396
5.0627	21.829
5.0332	22.31
5.004	22.814
4.9752	23.293
4.9467	23.764
4.9186	24.272
4.8907	24.714
4.8632	25.163
4.836	25.576
4.809	25.991
4.7824	26.322
4.7561	26.671
4.7301	27.052
4.7043	27.44
4.6788	27.829
4.6536	28.163
4.6287	28.606
4.604	29.037
4.5796	29.416
4.5555	29.722
4.5316	30.013
4.508	30.24
4.4846	30.426
4.4614	30.577
4.4385	30.665
4.4158	30.716
4.3934	30.825
4.3711	30.962
4.3491	31.134
4.3273	31.3
4.3058	31.484
4.2844	31.688
4.2633	31.83
4.2424	31.959
4.2216	32.02
4.2011	32.062
4.1808	32.106
4.1606	32.119
4.1407	32.196
4.1209	32.194
4.1014	32.203
4.082	32.232
4.0628	32.238
4.0438	32.266
4.025	32.298
4.0063	32.278
3.9878	32.317
3.9695	32.305
3.9513	32.318
3.9333	32.302
3.9155	32.277
3.8979	32.255
3.8804	32.227
3.863	32.19
3.8458	32.171
3.8288	32.113
3.8119	32.106
3.7951	32.02
3.7785	31.989
3.7621	31.933
3.7458	31.873
3.7296	31.818
3.7136	31.749
3.6977	31.684
3.6819	31.599
3.6663	31.515
3.6508	31.479
3.6355	31.421
3.6202	31.343
3.6051	31.248
3.5901	31.203
3.5753	31.121
3.5605	31.075
3.5459	30.983
3.5314	30.914
3.5171	30.864
3.5028	30.853
3.4887	30.718
3.4746	30.639
3.4607	30.56
3.4469	30.532
3.4332	30.463
3.4196	30.397
3.4061	30.338
3.3928	30.22
3.3795	30.119
3.3663	30.014
3.3533	29.903
3.3403	29.799
3.3274	29.684
3.3147	29.627
3.302	29.526
3.2894	29.47
3.277	29.353
3.2646	29.254
3.2523	29.179
3.2401	29.072
3.228	29.015
3.216	28.903
3.204	28.812
3.1922	28.693
3.1805	28.629
3.1688	28.556
3.1572	28.442
3.1457	28.322
3.1343	28.286
3.123	28.197
3.1117	28.135
3.1006	28.056
3.0895	27.977
3.0785	27.866
3.0675	27.834
3.0567	27.749
3.0459	27.695
3.0352	27.667
3.0246	27.56
3.014	27.484
3.0036	27.447
2.9932	27.357
2.9828	27.314
2.9726	27.239
2.9624	27.236
2.9523	27.149
2.9422	27.111
2.9322	27.065
2.9223	27.061
2.9124	27.068
2.9027	27.01
2.8929	26.975
2.8833	26.99
2.8737	26.961
2.8642	26.968
2.8547	26.933
2.8453	26.961
2.836	26.955
2.8267	26.981
2.8175	27.034
2.8083	27.104
2.7992	27.249
2.7902	27.403
2.7812	27.565
2.7723	27.737
2.7634	28.056
2.7546	28.289
2.7458	28.554
2.7371	28.797
2.7285	28.992
2.7199	29.159
2.7114	29.222
2.7029	29.336
2.6945	29.292
2.6861	29.358
2.6778	29.338
2.6695	29.431
2.6613	29.465
2.6531	29.413
2.645	29.429
2.6369	29.408
2.6289	29.396
2.6209	29.33
2.613	29.315
2.6051	29.264
2.5973	29.224
2.5895	29.205
2.5817	29.137
2.5741	29.095
2.5664	29.086
2.5588	29.006
2.5513	28.954
2.5437	28.913
2.5363	28.84
2.5289	28.846
2.5215	28.781
2.5141	28.775
2.5068	28.713
2.4996	28.625
2.4924	28.585
2.4852	28.569
2.4781	28.502
2.471	28.483
2.464	28.439
2.4569	28.369
2.45	28.32
2.4431	28.271
2.4362	28.221
2.4293	28.18
2.4225	28.173
2.4157	28.111
2.409	28.013
2.4023	28.004
2.3956	27.982
2.389	27.913
2.3824	27.911
2.3759	27.842
2.3694	27.772
2.3629	27.767
2.3564	27.711
2.35	27.721
2.3436	27.612
2.3373	27.511
2.331	27.556
2.3247	27.479
2.3185	27.468
2.3123	27.42
2.3061	27.354
2.3	27.304
2.2939	27.344
2.2878	27.192
2.2818	27.166
2.2757	27.13
2.2698	27.07
2.2638	27.05
2.2579	27.006
2.252	26.922
2.2462	26.881
2.2403	26.866
2.2345	26.809
2.2288	26.769
2.2231	26.739
2.2173	26.65
2.2117	26.684
2.206	26.623
2.2004	26.593
2.1948	26.509
2.1893	26.505
2.1837	26.44
2.1782	26.442
2.1727	26.409
2.1673	26.322
2.1619	26.329
2.1565	26.31
2.1511	26.221
2.1458	26.21
2.1404	26.216
2.1352	26.136
2.1299	26.153
2.1247	26.066
2.1194	26.079
2.1143	25.955
2.1091	25.943
2.104	25.925
2.0988	25.87
2.0938	25.815
2.0887	25.764
2.0837	25.76
