Name: Red-orange sandy loam
Type: soil
Class: Entisol
Subclass: None
Particle Size: Unsorted
Sample No.: fgg033
Owner: University of NSW
Wavelength Range: TIR
Origin: Fowlers Gap, western New South Wales, AustraliaHewson(1998) PhD thesis
Description: Parent material consists of aeolian silts/clays and sandstone debris.Physiography: Floodplain outwash from sandstone hillslopes. Original ASTER Spectral Library name was jpl.nicolet.soil.entisol.none.unsorted.fgg033.spectrum.txt
Measurement: Directional hemispherical reflectance
X Units: Wavelength (micrometers)
Y Units: Reflectance (percent)
wavelength	value
14.0131	1.1895
13.7895	1.5757
13.5729	1.6653
13.363	1.536
13.1595	1.8007
12.9621	1.7944
12.7705	1.9493
12.5845	1.6053
12.4039	1.3951
12.2284	1.5522
12.0578	1.96
11.8918	2.1774
11.7304	2.6009
11.5733	2.4868
11.4203	2.4467
11.2714	2.4956
11.1263	2.5098
10.9848	2.4788
10.8469	2.1136
10.7125	2.2507
10.5813	2.2933
10.4533	2.5657
10.3284	2.8072
10.2064	3.2378
10.0872	3.6679
9.9708	4.4524
9.8571	4.5773
9.7459	5.2442
9.6372	6.121
9.5309	6.6911
9.427	7.1347
9.3252	7.1576
9.2257	6.4023
9.1282	5.6425
9.0328	5.0498
8.9394	5.3072
8.8478	5.8956
8.7582	5.6482
8.6703	5.0259
8.5842	4.9977
8.4997	5.3998
8.4169	5.7183
8.3357	6.5045
8.2561	7.4104
8.178	7.5937
8.1013	5.9519
8.0261	4.3518
7.9522	3.3009
7.8797	2.5666
7.8085	2.1401
7.7386	2.2608
7.6699	2.1824
7.6024	2.0447
7.5361	2.1503
7.4709	2.2723
7.4069	2.3027
7.344	2.3987
7.2821	2.4813
7.2212	2.6819
7.1614	2.895
7.1025	2.8488
7.0446	2.9185
6.9877	3.1634
6.9316	3.331
6.8764	3.4962
6.8222	3.6181
6.7687	3.7094
6.7161	3.929
6.6643	4.1092
6.6133	4.0557
6.5631	3.9495
6.5136	4.1124
6.4649	4.4046
6.4169	4.546
6.3696	4.176
6.323	3.7637
6.277	3.15
6.2318	2.7568
6.1872	2.2329
6.1432	1.9101
6.0998	1.7917
6.0571	1.9001
6.0149	2.0802
5.9733	2.2449
5.9323	2.731
5.8919	3.6148
5.852	4.6295
5.8126	5.5997
5.7738	6.6471
5.7354	7.5237
5.6976	8.0126
5.6603	7.8494
5.6235	7.2421
5.5871	6.983
5.5512	7.1366
5.5158	7.5108
5.4808	7.8655
5.4463	8.3924
5.4121	7.9537
5.3785	6.7713
5.3452	6.5441
5.3123	6.8517
5.2799	7.4279
5.2478	8.4369
5.2161	9.5399
5.1848	10.0745
5.1539	10.1673
5.1234	10.2374
5.0932	10.2767
5.0633	10.1561
5.0338	10.3383
5.0047	10.4837
4.9759	11.1675
4.9474	12.3961
4.9192	13.3207
4.8914	15.4542
4.8638	17.1034
4.8366	17.9874
4.8097	18.581
4.7831	19.0272
4.7567	19.513
4.7307	19.7099
4.7049	19.703
4.6795	19.5011
4.6543	20.0247
4.6293	20.8539
4.6047	21.2818
4.5802	21.6629
4.5561	21.8704
4.5322	21.7104
4.5086	21.1333
4.4852	20.8985
4.462	20.8837
4.4391	21.5426
4.4164	22.1589
4.3939	22.9464
4.3717	23.7164
4.3497	24.4755
4.3279	24.8778
4.3063	25.3015
4.285	25.4774
4.2638	25.7108
4.2429	26.4566
4.2222	26.7738
4.2017	27.1303
4.1813	27.6263
4.1612	28.0732
4.1412	28.5295
4.1215	29.0899
4.1019	29.496
4.0826	29.8989
4.0634	30.2955
4.0443	30.581
4.0255	30.7476
4.0068	30.9542
3.9883	31.2259
3.97	31.3309
3.9519	31.4916
3.9339	31.5618
3.916	31.5267
3.8984	31.4959
3.8809	31.3164
3.8635	30.9574
3.8463	30.7947
3.8293	30.5069
3.8124	30.2126
3.7956	29.9186
3.779	29.3826
3.7626	28.8041
3.7463	28.259
3.7301	27.7955
3.7141	27.2075
3.6982	26.6919
3.6824	26.2205
3.6668	25.5651
3.6513	25.095
3.6359	24.4072
3.6207	23.8921
3.6056	23.1575
3.5906	22.4667
3.5758	21.7049
3.561	21.0222
3.5464	20.2959
3.5319	19.6034
3.5175	18.5265
3.5033	17.3822
3.4891	17.1295
3.4751	16.4727
3.4612	15.9966
3.4474	15.1472
3.4337	14.2361
3.4201	13.3188
3.4066	12.9186
3.3932	12.542
3.3799	11.8476
3.3668	11.4175
3.3537	11.0924
3.3407	10.5175
3.3279	9.9006
3.3151	9.3623
3.3024	8.822
3.2899	8.2697
3.2774	7.8411
3.265	7.446
3.2527	6.9402
3.2405	6.5807
3.2284	6.1747
3.2164	5.8624
3.2045	5.4632
3.1926	5.0348
3.1809	4.6993
3.1692	4.477
3.1576	4.2085
3.1461	3.9886
3.1347	3.8103
3.1234	3.3709
3.1121	3.2843
3.101	3.0531
3.0899	3.1797
3.0789	3.0389
3.068	3.0145
3.0571	3.0436
3.0463	2.7653
3.0356	2.8555
3.025	2.701
3.0144	2.7609
3.004	2.6457
2.9936	2.4112
2.9832	2.4803
2.973	2.3497
2.9628	2.4613
2.9526	2.2369
2.9426	2.2675
2.9326	2.1077
2.9227	2.2082
2.9128	2.3525
2.903	2.2383
2.8933	2.3728
2.8837	2.4522
2.8741	2.5591
2.8646	2.3705
2.8551	2.6902
2.8457	2.6252
2.8363	2.6272
2.8271	2.627
2.8178	2.696
2.8087	2.468
2.7996	2.5528
2.7906	2.4769
2.7816	1.97
2.7726	1.9707
2.7638	1.5139
2.755	1.5601
2.7462	1.89
2.7375	1.8455
2.7289	2.361
2.7203	2.8839
2.7117	2.7526
2.7033	2.1952
2.6948	5.7028
2.6864	12.7237
2.6781	18.4631
2.6698	22.0821
2.6616	24.8912
2.6535	26.726
2.6453	28.2699
2.6373	29.5954
2.6292	30.5059
2.6213	31.2529
2.6133	31.9563
2.6054	32.3624
2.5976	32.8219
2.5898	33.2639
2.5821	33.5072
2.5744	33.8556
2.5668	34.1376
2.5592	34.7144
2.5516	34.8894
2.5441	34.944
2.5366	35.1777
2.5292	35.3134
2.5218	35.6386
2.5145	35.8317
2.5072	36.1138
2.4999	36.3625
2.4927	36.7599
2.4855	37.233
2.4784	37.7978
2.4713	38.259
2.4643	38.6069
2.4573	39.2359
2.4503	39.395
2.4434	39.777
2.4365	40.5369
2.4296	41.4104
2.4228	42.1612
2.4161	42.603
2.4093	43.2456
2.4026	43.3544
2.396	43.5881
2.3893	43.6183
2.3827	43.486
2.3762	44.2985
2.3697	44.9657
2.3632	45.2672
2.3567	45.4975
2.3503	46.1219
2.344	46.6361
2.3376	47.307
2.3313	47.8482
2.325	48.404
2.3188	48.734
2.3126	49.4017
2.3064	49.8361
2.3003	50.3517
2.2942	50.6219
2.2881	50.8504
2.2821	51.3583
2.2761	51.4984
2.2701	51.6676
2.2641	51.6294
2.2582	51.3603
2.2523	50.9612
2.2465	50.7974
2.2406	50.3439
2.2348	50.2305
2.2291	50.2833
2.2233	49.5891
2.2176	48.7001
2.212	45.5808
2.2063	45.1498
2.2007	47.7505
2.1951	48.6204
2.1895	49.5472
2.184	50.3111
2.1785	50.8995
2.173	51.4136
2.1676	51.8162
2.1622	51.9013
2.1568	52.937
2.1514	53.5989
2.146	54.8552
2.1407	55.3814
2.1354	55.9182
2.1302	56.0804
2.1249	55.8805
2.1197	56.0912
2.1145	56.1216
2.1094	55.8506
2.1042	56.1866
2.0991	55.9933
2.094	56.0774
2.089	55.9712
2.0839	55.9388
2.0789	56.0396
2.0739	55.7474
2.069	55.8093
2.064	56.0219
2.0591	55.5666
2.0542	55.3774
2.0493	55.2475
2.0445	55.3743
2.0397	54.8854
2.0349	54.6673
2.0301	54.5266
2.0253	53.9062
2.0206	53.806
2.0159	53.4112
2.0112	52.9401
2.0065	52.5646
2.0019	52.27
