Name: Light yellowish brown loam
Type: soil
Class: Aridisol
Subclass: Calciorthid
Particle Size: none
Sample No.: 84P3721
Owner: JHU
Wavelength Range: All
Origin: 1.5 km NE of Minkher Gharbi, Syria via USDA Soil Conservationservice.
Description: The parent material is igneous-basaltic rock.  Physiography: level to undulating upland plains.  Light yellowish brown loam, (typic xerollic). Original ASTER Spectral Library name was jhu.becknic.soil.aridisol.calciorthid.coarse.84P3721.spectrum.txt
Measurement: Directional (10 degree) hemispherical reflectance
X Units: Wavelength (micrometers)
Y Units: Reflectance (percent)
wavelength	value
14.983	1.4163
14.645	1.4522
14.321	1.4053
14.011	1.4434
13.715	1.7583
13.43	1.7473
13.158	1.7781
12.896	1.8816
12.644	1.7366
12.402	1.8513
12.169	2.2153
11.945	2.4031
11.729	2.6985
11.52	2.7683
11.319	2.6402
11.125	2.4634
10.937	2.2134
10.755	2.2183
10.58	2.3738
10.41	2.3491
10.245	2.3494
10.086	2.4544
9.9313	2.6343
9.7814	2.7974
9.636	3.0672
9.4948	3.114
9.3577	3.1084
9.2245	2.8208
9.095	2.6785
8.9691	2.6629
8.8467	2.801
8.7275	2.8999
8.6116	2.7952
8.4986	3.2249
8.3886	3.5855
8.2814	4.4512
8.1769	5.3125
8.075	5.3296
7.9756	5.4319
7.8786	5.5557
7.784	5.8054
7.6916	6.1155
7.6014	6.0889
7.5133	6.2017
7.4272	6.0523
7.343	5.5195
7.2607	4.4114
7.1803	3.3443
7.1016	3.0916
7.0246	2.6004
6.9493	2.3411
6.8755	2.1504
6.8034	2.1895
6.7327	2.3316
6.6634	2.2979
6.5956	2.6384
6.5292	3.3191
6.464	4.3106
6.4002	4.4529
6.3376	4.1184
6.2762	3.6172
6.216	2.9688
6.157	2.2942
6.099	2.1067
6.0421	2.0904
5.9863	2.521
5.9315	3.1633
5.8777	4.2993
5.8249	5.5247
5.773	6.2346
5.722	6.991
5.6719	7.629
5.6227	7.572
5.5744	5.2925
5.5268	7.827
5.4801	9.26
5.4341	10.184
5.3889	10.17
5.3445	9.812
5.3008	10.521
5.2578	11.616
5.2154	12.786
5.1738	13.505
5.1328	13.795
5.0925	14.029
5.0528	14.278
5.0137	14.522
4.9752	15.177
4.9373	16.093
4.9	17.045
4.8632	17.93
4.827	18.417
4.7913	18.789
4.7561	19.104
4.7215	19.336
4.6873	19.078
4.6536	19.461
4.6205	20.354
4.5877	20.976
4.5555	21.467
4.5237	21.75
4.4923	21.978
4.4614	22.388
4.4309	22.928
4.4008	23.487
4.3711	23.946
4.3418	24.27
4.3129	24.372
4.2844	24.129
4.2563	24.673
4.2285	24.797
4.2011	25.969
4.174	26.278
4.1473	26.348
4.1209	26.324
4.0949	26.096
4.0692	25.493
4.0438	23.748
4.0187	20.074
3.994	15.137
3.9695	13.617
3.9453	16.692
3.9214	19.103
3.8979	19.846
3.8746	20.083
3.8515	20.377
3.8288	21.472
3.8063	22.862
3.7841	24.07
3.7621	24.168
3.7404	23.864
3.7189	23.47
3.6977	22.995
3.6767	22.469
3.656	21.949
3.6355	21.3
3.6152	20.72
3.5951	20.006
3.5753	19.126
3.5557	18.356
3.5363	17.198
3.5171	15.11
3.4981	13.459
3.4793	12.516
3.4607	12.933
3.4423	12.723
3.4241	11.991
3.4061	11.598
3.3883	11.426
3.3707	11.084
3.3533	10.628
3.336	10.934
3.3189	10.812
3.302	10.334
3.2853	9.888
3.2687	9.375
3.2523	8.858
3.2361	8.337
3.22	7.872
3.204	7.434
3.1883	6.967
3.1727	6.5635
3.1572	6.1904
3.1419	5.7649
3.1268	5.4153
3.1117	5.1299
3.0969	4.8054
3.0821	4.6323
3.0675	4.4212
3.0531	4.3335
3.0388	4.2356
3.0246	4.1277
3.0105	3.9351
2.9966	3.8455
2.9828	3.6458
2.9692	3.6026
2.9556	3.4458
2.9422	3.4302
2.9289	3.4268
2.9157	3.3762
2.9027	3.4812
2.8897	3.5464
2.8769	3.6458
2.8642	3.7034
2.8516	3.648
2.8391	3.5059
2.8267	3.2905
2.8144	3.0645
2.8022	3.0742
2.7902	2.9646
2.7782	2.9729
2.7664	2.5906
2.7546	2.9321
2.7429	3.5576
2.7314	4.7349
2.7199	6.0754
2.7085	6.4387
2.6973	10.251
2.6861	19.121
2.675	22.905
2.664	25.199
2.6531	28.592
2.6423	30.116
2.6315	29.435
2.6209	29.873
2.6103	30.499
2.5999	30.493
2.5895	30.492
2.5792	31.185
2.569	31.547
2.5588	31.804
2.5487	32.073
2.5388	32.205
2.5289	32.439
2.519	32.782
2.5093	32.984
2.4996	33.279
2.49	33.539
2.4805	33.894
2.471	34.18
2.4616	34.52
2.4523	34.791
2.4431	35.075
2.4339	35.446
2.4248	35.886
2.4157	36.15
2.4068	36.484
2.3979	36.633
2.389	36.737
2.3802	36.774
2.3715	36.959
2.3629	36.992
2.3543	36.867
2.3458	36.894
2.3373	36.991
2.3289	37.259
2.3206	37.716
2.3123	37.913
2.3041	38.189
2.2959	38.451
2.2878	38.817
2.2798	39.235
2.2718	39.366
2.2638	39.273
2.2559	39.041
2.2481	39.046
2.2403	39.29
2.2326	39.483
2.225	39.342
2.2173	39.329
2.2098	39.151
2.2023	39.77
2.1948	40.258
2.1874	40.638
2.18	40.933
2.1727	41.077
2.1655	41.222
2.1583	41.422
2.1511	41.463
2.144	41.814
2.1369	41.806
2.1299	41.86
2.1229	41.767
2.116	41.941
2.1091	41.689
2.1023	41.999
2.0955	41.862
2.0887	41.946
2.082	41.98
2.06	41.987
2.028	41.028
1.996	39.359
1.964	37.415
1.932	35.363
1.9	34.649
1.868	41.728
1.836	43.339
1.804	44.191
1.772	43.843
1.74	44.047
1.708	44.353
1.676	43.792
1.644	44.142
1.612	43.869
1.58	43.373
1.548	43.517
1.516	42.293
1.484	41.932
1.452	41.775
1.42	40.733
1.388	40.483
1.356	42.57
1.324	41.855
1.292	42.013
1.26	40.855
1.228	41.273
1.196	40.63
1.164	40.225
1.132	39.465
1.1	39.435
1.068	39.107
1.036	38.84
1.004	38.167
0.972	37.865
0.94	37.575
0.908	37.278
0.876	36.778
0.844	37.311
0.812	37.385
0.795	37.527
0.787	38.114
0.779	38.137
0.771	37.018
0.763	37.005
0.755	36.827
0.747	36.262
0.739	35.576
0.731	35.349
0.723	35.216
0.715	34.617
0.707	34.596
0.699	35.01
0.691	32.991
0.683	32.683
0.675	32.319
0.667	31.219
0.659	31.012
0.651	30.586
0.643	29.739
0.635	29.272
0.627	28.736
0.619	27.916
0.611	27.875
0.603	26.304
0.595	25.986
0.587	25.223
0.579	24.034
0.571	22.04
0.563	19.972
0.555	17.371
0.547	16.123
0.539	14.243
0.531	13.19
0.523	11.85
0.515	10.644
0.507	9.349
0.499	8.689
0.491	7.116
0.483	6.6577
0.475	5.7029
0.467	4.8177
0.459	4.2307
0.451	3.299
0.443	2.0709
0.435	1.2387
0.427	0
0.419	0
0.411	0
0.403	0
