Name: Grey calcareous silty soil
Type: soil
Class: Aridisol
Subclass: None
Particle Size: Unsorted
Sample No.: fgt017
Owner: University of NSW
Wavelength Range: TIR
Origin: Fowlers Gap, western New South Wales, AustraliaHewson(1998) PhD thesis
Description: Parent material consists of limestone/calcareous shale.Physiography: Low relief valley.  Original ASTER Spectral Library name was jpl.nicolet.soil.aridisol.none.unsorted.fgt017.spectrum.txt
Measurement: Directional hemispherical reflectance
X Units: Wavelength (micrometers)
Y Units: Reflectance (percent)
wavelength	value
14.0131	1.428
13.7895	2.1921
13.5729	2.3863
13.363	2.3333
13.1595	2.4682
12.9621	2.6969
12.7705	2.5488
12.5845	2.2642
12.4039	2.0136
12.2284	2.2498
12.0578	3.1062
11.8918	3.5659
11.7304	3.8882
11.5733	3.951
11.4203	2.5078
11.2714	3.6471
11.1263	3.4219
10.9848	2.8364
10.8469	2.8553
10.7125	2.9526
10.5813	3.1681
10.4533	3.1486
10.3284	3.1908
10.2064	3.0701
10.0872	3.0045
9.9708	3.0094
9.8571	2.8522
9.7459	3.2773
9.6372	3.5405
9.5309	3.6757
9.427	3.8664
9.3252	4.7097
9.2257	4.8017
9.1282	4.8345
9.0328	4.7087
8.9394	4.8635
8.8478	5.2204
8.7582	5.5299
8.6703	5.4682
8.5842	5.6075
8.4997	6.641
8.4169	7.1815
8.3357	8.1356
8.2561	9.5187
8.178	10.4497
8.1013	9.5847
8.0261	8.8823
7.9522	8.678
7.8797	8.1992
7.8085	8.1
7.7386	8.6075
7.6699	8.5318
7.6024	8.2719
7.5361	8.4281
7.4709	8.4524
7.4069	8.2069
7.344	7.4481
7.2821	6.1977
7.2212	5.2245
7.1614	4.1693
7.1025	4.1531
7.0446	3.5217
6.9877	2.944
6.9316	2.6406
6.8764	2.4704
6.8222	2.3152
6.7687	2.2658
6.7161	2.5705
6.6643	2.5929
6.6133	2.8391
6.5631	3.366
6.5136	4.319
6.4649	5.5941
6.4169	7.0717
6.3696	6.0309
6.323	5.2129
6.277	4.6622
6.2318	4.1496
6.1872	3.9278
6.1432	3.3674
6.0998	3.5009
6.0571	3.8522
6.0149	4.1099
5.9733	4.6253
5.9323	5.5404
5.8919	7.1508
5.852	8.1653
5.8126	9.6308
5.7738	10.7696
5.7354	11.5182
5.6976	12.1905
5.6603	12.1546
5.6235	10.8614
5.5871	8.0105
5.5512	7.9311
5.5158	12.1347
5.4808	13.9409
5.4463	14.9478
5.4121	14.2604
5.3785	12.2259
5.3452	11.6513
5.3123	12.0559
5.2799	13.1964
5.2478	15.2293
5.2161	18.0194
5.1848	18.7751
5.1539	18.8757
5.1234	18.9404
5.0932	18.7944
5.0633	18.5161
5.0338	18.719
5.0047	18.8232
4.9759	20.01
4.9474	22.2066
4.9192	23.474
4.8914	26.6901
4.8638	28.9646
4.8366	29.9789
4.8097	30.6061
4.7831	31.1292
4.7567	31.6771
4.7307	31.8679
4.7049	31.2868
4.6795	30.5103
4.6543	31.393
4.6293	32.9736
4.6047	33.9503
4.5802	34.4519
4.5561	34.7154
4.5322	34.7694
4.5086	34.3876
4.4852	34.126
4.462	34.4374
4.4391	35.2006
4.4164	35.7977
4.3939	36.5126
4.3717	37.2436
4.3497	37.0299
4.3279	35.3264
4.3063	32.0893
4.285	30.1089
4.2638	30.5823
4.2429	28.2013
4.2222	29.7222
4.2017	37.9239
4.1813	40.3771
4.1612	40.5898
4.1412	40.6256
4.1215	40.4823
4.1019	40.2831
4.0826	39.6959
4.0634	38.8613
4.0443	36.6442
4.0255	32.5576
4.0068	27.6262
3.9883	22.3811
3.97	21.9662
3.9519	25.2306
3.9339	29.7738
3.916	31.0092
3.8984	31.3539
3.8809	31.6564
3.8635	31.8607
3.8463	32.2414
3.8293	33.6218
3.8124	35.6426
3.7956	37.6138
3.779	38.4083
3.7626	38.24
3.7463	37.902
3.7301	37.4948
3.7141	37.0551
3.6982	36.6163
3.6824	36.2067
3.6668	35.6441
3.6513	35.005
3.6359	34.4235
3.6207	33.8017
3.6056	32.9325
3.5906	32.148
3.5758	31.0536
3.561	30.1034
3.5464	29.036
3.5319	27.4433
3.5175	24.5397
3.5033	22.1692
3.4891	21.4755
3.4751	20.5814
3.4612	21.8404
3.4474	21.5024
3.4337	20.6208
3.4201	19.4992
3.4066	19.2862
3.3932	19.3839
3.3799	18.8636
3.3668	18.5454
3.3537	17.9011
3.3407	18.5766
3.3279	19.1289
3.3151	18.6239
3.3024	18.0101
3.2899	17.476
3.2774	16.9426
3.265	16.2174
3.2527	15.7226
3.2405	15.1617
3.2284	14.5654
3.2164	13.9744
3.2045	13.3323
3.1926	12.8892
3.1809	12.2696
3.1692	11.6923
3.1576	11.3412
3.1461	10.7026
3.1347	10.1556
3.1234	9.8004
3.1121	9.453
3.101	8.9699
3.0899	8.6977
3.0789	8.3841
3.068	8.1672
3.0571	8.0005
3.0463	7.9224
3.0356	7.5217
3.025	7.537
3.0144	7.3143
3.004	7.2142
2.9936	7.0183
2.9832	6.9245
2.973	6.7372
2.9628	6.5837
2.9526	6.4279
2.9426	6.4554
2.9326	6.4357
2.9227	6.4821
2.9128	6.5707
2.903	6.4373
2.8933	6.6058
2.8837	6.9484
2.8741	6.9606
2.8646	7.163
2.8551	7.2704
2.8457	7.3626
2.8363	7.4046
2.8271	7.489
2.8178	7.0572
2.8087	6.9985
2.7996	6.5794
2.7906	6.3853
2.7816	6.0212
2.7726	5.7201
2.7638	4.7491
2.755	5.793
2.7462	6.2023
2.7375	7.3147
2.7289	9.191
2.7203	13.0032
2.7117	13.2611
2.7033	9.6006
2.6948	21.4715
2.6864	32.7332
2.6781	40.2452
2.6698	45.698
2.6616	45.6679
2.6535	47.3241
2.6453	48.1164
2.6373	48.6182
2.6292	50.4069
2.6213	51.3786
2.6133	50.5677
2.6054	53.076
2.5976	51.3749
2.5898	51.5249
2.5821	51.9705
2.5744	52.397
2.5668	51.5748
2.5592	51.6564
2.5516	51.808
2.5441	51.2793
2.5366	51.0901
2.5292	51.045
2.5218	51.3336
2.5145	51.7309
2.5072	51.9019
2.4999	52.0567
2.4927	52.1833
2.4855	52.4966
2.4784	52.8967
2.4713	53.3125
2.4643	53.549
2.4573	53.7624
2.4503	53.9828
2.4434	54.5991
2.4365	54.8775
2.4296	55.5259
2.4228	56.093
2.4161	56.3222
2.4093	56.6288
2.4026	56.8855
2.396	56.8764
2.3893	56.9851
2.3827	56.9813
2.3762	57.0367
2.3697	57.212
2.3632	57.0476
2.3567	56.6866
2.3503	56.5308
2.344	56.8104
2.3376	57.247
2.3313	57.7299
2.325	58.516
2.3188	58.7685
2.3126	59.1754
2.3064	59.4795
2.3003	59.7816
2.2942	60.0709
2.2881	60.3428
2.2821	60.6922
2.2761	60.6883
2.2701	60.7613
2.2641	60.7868
2.2582	60.4359
2.2523	60.2471
2.2465	60.406
2.2406	60.3807
2.2348	60.4195
2.2291	60.0487
2.2233	59.6866
2.2176	59.2777
2.212	58.7988
2.2063	58.8006
2.2007	60.1967
2.1951	60.9774
2.1895	61.597
2.184	61.7786
2.1785	62.3058
2.173	62.632
2.1676	62.8731
2.1622	62.7908
2.1568	63.2241
2.1514	63.3322
2.146	63.6086
2.1407	63.916
2.1354	63.9617
2.1302	64.0407
2.1249	63.9457
2.1197	63.7747
2.1145	63.9687
2.1094	63.9116
2.1042	64.1446
2.0991	64.1562
2.094	64.109
2.089	64.2118
2.0839	64.0488
2.0789	64.4219
2.0739	64.1217
2.069	64.1776
2.064	64.2059
2.0591	64.1338
2.0542	64.1246
2.0493	64.0837
2.0445	64.0495
2.0397	63.9243
2.0349	63.8917
2.0301	63.7313
2.0253	63.5948
2.0206	63.5388
2.0159	63.3088
2.0112	63.2122
2.0065	62.9879
2.0019	62.7665
