Name: 12023.139
Type: Soil
Class: Lunar
Subclass: Maria
Particle Size: Fine
Sample No.: 12023_139
Owner: JHU
Wavelength Range: TIR
Origin: Apollo 12 landing site via the NASA Lunar Sample Repository at JohnsonSpace Center, Houston, TX.
Description: This sample is one of a suite of soils of similar chemistry, but different exposure ages, from the Apollo 12 mare site.  This sample has the greatest exposure age of the three soils of that suite (Is/FeO=60). Original ASTER Spectral Library name was jhu.becknic.soil.lunar.maria.fine.12023.spectrum.txt
Measurement: Directional (10 degree) hemispherical reflectance
X Units: Wavelength (micrometers)
Y Units: Reflectance (percent)
wavelength	value
14.011	1.3276
13.788	1.3437
13.571	1.3491
13.361	1.3785
13.158	1.4663
12.96	1.5651
12.769	1.6799
12.583	1.8301
12.402	2.058
12.227	2.1633
12.056	2.1709
11.89	2.064
11.729	2.1522
11.572	2.1946
11.419	2.2438
11.27	2.1766
11.125	2.1415
10.983	2.0617
10.846	2.1126
10.711	2.0849
10.58	1.9857
10.452	1.9265
10.327	1.8275
10.205	1.7647
10.086	1.7254
9.9695	1.7181
9.8558	1.6613
9.7447	1.6778
9.636	1.6603
9.5297	1.6645
9.4257	1.6405
9.324	1.6109
9.2245	1.594
9.127	1.527
9.0316	1.4169
8.9382	1.2158
8.8467	1.0223
8.757	0.9333
8.6692	0.8514
8.583	0.7952
8.4986	0.7552
8.4158	0.7502
8.3347	0.7339
8.255	0.7703
8.1769	0.9127
8.1002	1.1395
8.025	1.4988
7.9512	2.0513
7.8786	2.6682
7.8075	3.2378
7.7375	3.8303
7.6689	4.426
7.6014	5.0077
7.5351	5.5401
7.47	6.0957
7.4059	6.6142
7.343	7.0868
7.2811	7.5448
7.2203	7.9518
7.1604	8.3956
7.1016	8.7231
7.0437	9.0758
6.9867	9.3987
6.9307	9.6628
6.8755	9.9266
6.8213	10.143
6.7678	10.299
6.7152	10.416
6.6634	10.447
6.6124	10.509
6.5622	10.58
6.5128	10.693
6.464	10.811
6.416	10.896
6.3687	10.928
6.3221	10.951
6.2762	10.971
6.231	11.004
6.1863	11.126
6.1424	11.201
6.099	11.352
6.0563	11.474
6.0141	11.608
5.9725	11.858
5.9315	12.139
5.8911	12.401
5.8512	12.669
5.8118	12.898
5.773	13.111
5.7347	13.281
5.6969	13.354
5.6596	13.428
5.6227	13.568
5.5864	13.739
5.5505	13.931
5.5151	13.983
5.4801	14.029
5.4455	14.002
5.4114	14.013
5.3778	14.013
5.3445	14.029
5.3116	14.065
5.2792	14.188
5.2471	14.372
5.2154	14.596
5.1842	14.83
5.1532	15.043
5.1227	15.315
5.0925	15.542
5.0627	15.796
5.0332	16.049
5.004	16.319
4.9752	16.607
4.9467	16.917
4.9186	17.251
4.8907	17.518
4.8632	17.772
4.836	18.044
4.809	18.281
4.7824	18.506
4.7561	18.706
4.7301	18.938
4.7043	19.161
4.6788	19.38
4.6536	19.57
4.6287	19.763
4.604	19.9
4.5796	20.042
4.5555	20.143
4.5316	20.247
4.508	20.305
4.4846	20.354
4.4614	20.403
4.4385	20.443
4.4158	20.46
4.3934	20.472
4.3711	20.503
4.3491	20.546
4.3273	20.562
4.3058	20.604
4.2844	20.614
4.2633	20.614
4.2424	20.642
4.2216	20.631
4.2011	20.623
4.1808	20.613
4.1606	20.575
4.1407	20.613
4.1209	20.58
4.1014	20.568
4.082	20.565
4.0628	20.557
4.0438	20.528
4.025	20.553
4.0063	20.501
3.9878	20.504
3.9695	20.484
3.9513	20.474
3.9333	20.466
3.9155	20.395
3.8979	20.36
3.8804	20.359
3.863	20.315
3.8458	20.266
3.8288	20.235
3.8119	20.246
3.7951	20.148
3.7785	20.135
3.7621	20.107
3.7458	20.041
3.7296	20.019
3.7136	19.982
3.6977	19.941
3.6819	19.892
3.6663	19.842
3.6508	19.829
3.6355	19.774
3.6202	19.726
3.6051	19.693
3.5901	19.672
3.5753	19.621
3.5605	19.555
3.5459	19.525
3.5314	19.477
3.5171	19.478
3.5028	19.47
3.4887	19.375
3.4746	19.377
3.4607	19.297
3.4469	19.298
3.4332	19.295
3.4196	19.26
3.4061	19.161
3.3928	19.133
3.3795	19.091
3.3663	19.016
3.3533	18.94
3.3403	18.883
3.3274	18.806
3.3147	18.799
3.302	18.758
3.2894	18.734
3.277	18.688
3.2646	18.642
3.2523	18.606
3.2401	18.511
3.228	18.473
3.216	18.41
3.204	18.381
3.1922	18.302
3.1805	18.29
3.1688	18.209
3.1572	18.167
3.1457	18.147
3.1343	18.075
3.123	18.056
3.1117	18.045
3.1006	18.018
3.0895	17.898
3.0785	17.874
3.0675	17.808
3.0567	17.784
3.0459	17.739
3.0352	17.753
3.0246	17.676
3.014	17.639
3.0036	17.598
2.9932	17.508
2.9828	17.462
2.9726	17.453
2.9624	17.395
2.9523	17.344
2.9422	17.33
2.9322	17.247
2.9223	17.234
2.9124	17.242
2.9027	17.173
2.8929	17.104
2.8833	17.077
2.8737	17.056
2.8642	17.078
2.8547	16.969
2.8453	16.996
2.836	16.935
2.8267	16.929
2.8175	16.891
2.8083	16.839
2.7992	16.93
2.7902	16.96
2.7812	16.982
2.7723	16.979
2.7634	17.113
2.7546	17.157
2.7458	17.217
2.7371	17.269
2.7285	17.282
2.7199	17.295
2.7114	17.301
2.7029	17.281
2.6945	17.244
2.6861	17.241
2.6778	17.172
2.6695	17.176
2.6613	17.163
2.6531	17.068
2.645	17.027
2.6369	17.008
2.6289	16.952
2.6209	16.919
2.613	16.897
2.6051	16.813
2.5973	16.785
2.5895	16.749
2.5817	16.664
2.5741	16.622
2.5664	16.621
2.5588	16.522
2.5513	16.461
2.5437	16.405
2.5363	16.361
2.5289	16.301
2.5215	16.216
2.5141	16.209
2.5068	16.169
2.4996	16.089
2.4924	15.994
2.4852	16.007
2.4781	15.927
2.471	15.895
2.464	15.837
2.4569	15.771
2.45	15.743
2.4431	15.721
2.4362	15.651
2.4293	15.574
2.4225	15.546
2.4157	15.499
2.409	15.411
2.4023	15.409
2.3956	15.404
2.389	15.318
2.3824	15.294
2.3759	15.214
2.3694	15.185
2.3629	15.106
2.3564	15.134
2.35	15.092
2.3436	15.016
2.3373	14.947
2.331	14.913
2.3247	14.856
2.3185	14.924
2.3123	14.831
2.3061	14.832
2.3	14.697
2.2939	14.776
2.2878	14.667
2.2818	14.616
2.2757	14.639
2.2698	14.533
2.2638	14.561
2.2579	14.497
2.252	14.454
2.2462	14.443
2.2403	14.357
2.2345	14.339
2.2288	14.254
2.2231	14.31
2.2173	14.222
2.2117	14.208
2.206	14.22
2.2004	14.143
2.1948	14.177
2.1893	14.149
2.1837	14.128
2.1782	14.092
2.1727	14.087
2.1673	13.987
2.1619	14.022
2.1565	13.919
2.1511	13.911
2.1458	13.894
2.1404	13.894
2.1352	13.873
2.1299	13.914
2.1247	13.848
2.1194	13.797
2.1143	13.705
2.1091	13.69
2.104	13.754
2.0988	13.641
2.0938	13.705
2.0887	13.61
2.0837	13.682
