Name: 14148.183
Type: Soil
Class: Lunar
Subclass: Transitional
Particle Size: Fine
Sample No.: 14148_183
Owner: JHU
Wavelength Range: TIR
Origin: Apollo 14 landing site via the NASA Lunar Sample Repository at JohnsonSpace Center, Houston, TX.
Description: This sample is one of a suite of soils at the Apollo 14 site representing major element chemistry transitional between the highlands and maria.  It has the greatest exposure age of the three soils of that suite (Is/FeO=74). Original ASTER Spectral Library name was jhu.becknic.soil.lunar.transitional.fine.14148.spectrum.txt
Measurement: Directional (10 degree) hemispherical reflectance
X Units: Wavelength (micrometers)
Y Units: Reflectance (percent)
wavelength	value
14.011	0.7643
13.788	0.9443
13.571	1.1052
13.361	1.1426
13.158	1.1882
12.96	1.3368
12.769	1.479
12.583	1.7151
12.402	1.9324
12.227	2.044
12.056	2.0523
11.89	2.0358
11.729	2.0561
11.572	2.0614
11.419	2.0712
11.27	2.032
11.125	1.9951
10.983	1.9994
10.846	2.0063
10.711	2.0155
10.58	1.9328
10.452	1.8508
10.327	1.7308
10.205	1.6829
10.086	1.6145
9.9695	1.5975
9.8558	1.5439
9.7447	1.5823
9.636	1.5318
9.5297	1.5509
9.4257	1.5052
9.324	1.4823
9.2245	1.4328
9.127	1.4176
9.0316	1.2787
8.9382	1.1652
8.8467	1.0002
8.757	0.9373
8.6692	0.8779
8.583	0.812
8.4986	0.7688
8.4158	0.6897
8.3347	0.6206
8.255	0.6174
8.1769	0.6778
8.1002	0.7904
8.025	1.0782
7.9512	1.4904
7.8786	1.9942
7.8075	2.5436
7.7375	3.0999
7.6689	3.7345
7.6014	4.2861
7.5351	4.8428
7.47	5.4304
7.4059	5.9765
7.343	6.5002
7.2811	7.0052
7.2203	7.4722
7.1604	7.8859
7.1016	8.3078
7.0437	8.6854
6.9867	9.0212
6.9307	9.3572
6.8755	9.6865
6.8213	9.8966
6.7678	10.153
6.7152	10.316
6.6634	10.434
6.6124	10.569
6.5622	10.732
6.5128	10.895
6.464	11.059
6.416	11.119
6.3687	11.187
6.3221	11.195
6.2762	11.283
6.231	11.343
6.1863	11.443
6.1424	11.605
6.099	11.776
6.0563	11.932
6.0141	12.132
5.9725	12.395
5.9315	12.768
5.8911	13.185
5.8512	13.47
5.8118	13.784
5.773	14.037
5.7347	14.282
5.6969	14.411
5.6596	14.521
5.6227	14.707
5.5864	14.914
5.5505	15.124
5.5151	15.233
5.4801	15.33
5.4455	15.386
5.4114	15.541
5.3778	15.68
5.3445	15.824
5.3116	15.972
5.2792	16.131
5.2471	16.303
5.2154	16.554
5.1842	16.813
5.1532	17.133
5.1227	17.528
5.0925	17.874
5.0627	18.209
5.0332	18.559
5.004	18.903
4.9752	19.254
4.9467	19.623
4.9186	19.976
4.8907	20.29
4.8632	20.615
4.836	20.919
4.809	21.255
4.7824	21.51
4.7561	21.797
4.7301	22.061
4.7043	22.336
4.6788	22.605
4.6536	22.868
4.6287	23.156
4.604	23.388
4.5796	23.57
4.5555	23.769
4.5316	23.915
4.508	24.046
4.4846	24.126
4.4614	24.243
4.4385	24.309
4.4158	24.35
4.3934	24.419
4.3711	24.476
4.3491	24.555
4.3273	24.631
4.3058	24.682
4.2844	24.745
4.2633	24.753
4.2424	24.825
4.2216	24.846
4.2011	24.856
4.1808	24.849
4.1606	24.849
4.1407	24.878
4.1209	24.868
4.1014	24.87
4.082	24.879
4.0628	24.886
4.0438	24.896
4.025	24.913
4.0063	24.876
3.9878	24.91
3.9695	24.894
3.9513	24.892
3.9333	24.881
3.9155	24.827
3.8979	24.804
3.8804	24.786
3.863	24.776
3.8458	24.727
3.8288	24.712
3.8119	24.656
3.7951	24.637
3.7785	24.619
3.7621	24.58
3.7458	24.503
3.7296	24.489
3.7136	24.443
3.6977	24.399
3.6819	24.332
3.6663	24.285
3.6508	24.264
3.6355	24.193
3.6202	24.165
3.6051	24.113
3.5901	24.063
3.5753	24.014
3.5605	24.003
3.5459	23.925
3.5314	23.852
3.5171	23.859
3.5028	23.859
3.4887	23.769
3.4746	23.693
3.4607	23.643
3.4469	23.631
3.4332	23.566
3.4196	23.537
3.4061	23.514
3.3928	23.413
3.3795	23.335
3.3663	23.284
3.3533	23.18
3.3403	23.067
3.3274	23.061
3.3147	22.971
3.302	22.902
3.2894	22.862
3.277	22.78
3.2646	22.731
3.2523	22.688
3.2401	22.567
3.228	22.503
3.216	22.452
3.204	22.395
3.1922	22.278
3.1805	22.297
3.1688	22.184
3.1572	22.149
3.1457	22.06
3.1343	22.045
3.123	21.981
3.1117	21.913
3.1006	21.858
3.0895	21.816
3.0785	21.727
3.0675	21.694
3.0567	21.603
3.0459	21.577
3.0352	21.577
3.0246	21.483
3.014	21.421
3.0036	21.368
2.9932	21.28
2.9828	21.249
2.9726	21.248
2.9624	21.199
2.9523	21.164
2.9422	21.122
2.9322	21.097
2.9223	21.039
2.9124	20.992
2.9027	20.95
2.8929	20.956
2.8833	20.924
2.8737	20.884
2.8642	20.912
2.8547	20.829
2.8453	20.877
2.836	20.792
2.8267	20.804
2.8175	20.85
2.8083	20.855
2.7992	20.945
2.7902	20.995
2.7812	21.097
2.7723	21.21
2.7634	21.373
2.7546	21.525
2.7458	21.736
2.7371	21.891
2.7285	21.982
2.7199	22.051
2.7114	22.139
2.7029	22.236
2.6945	22.158
2.6861	22.218
2.6778	22.16
2.6695	22.167
2.6613	22.214
2.6531	22.145
2.645	22.101
2.6369	22.133
2.6289	22.033
2.6209	22.027
2.613	21.963
2.6051	21.891
2.5973	21.889
2.5895	21.858
2.5817	21.794
2.5741	21.718
2.5664	21.735
2.5588	21.628
2.5513	21.619
2.5437	21.572
2.5363	21.514
2.5289	21.439
2.5215	21.418
2.5141	21.401
2.5068	21.335
2.4996	21.295
2.4924	21.238
2.4852	21.183
2.4781	21.137
2.471	21.107
2.464	21.033
2.4569	20.929
2.45	20.943
2.4431	20.894
2.4362	20.824
2.4293	20.778
2.4225	20.735
2.4157	20.702
2.409	20.603
2.4023	20.563
2.3956	20.535
2.389	20.479
2.3824	20.474
2.3759	20.39
2.3694	20.316
2.3629	20.262
2.3564	20.251
2.35	20.22
2.3436	20.157
2.3373	20.027
2.331	20.077
2.3247	20
2.3185	19.974
2.3123	19.893
2.3061	19.866
2.3	19.788
2.2939	19.766
2.2878	19.671
2.2818	19.649
2.2757	19.603
2.2698	19.517
2.2638	19.55
2.2579	19.437
2.252	19.381
2.2462	19.318
2.2403	19.283
2.2345	19.303
2.2288	19.195
2.2231	19.136
2.2173	19.112
2.2117	19.11
2.206	19.028
2.2004	19.032
2.1948	18.949
2.1893	18.888
2.1837	18.845
2.1782	18.818
2.1727	18.828
2.1673	18.733
2.1619	18.74
2.1565	18.628
2.1511	18.552
2.1458	18.6
2.1404	18.585
2.1352	18.49
2.1299	18.492
2.1247	18.439
2.1194	18.456
2.1143	18.292
2.1091	18.321
2.104	18.263
2.0988	18.27
2.0938	18.218
2.0887	18.192
2.0837	18.123
