Name: Pale brown dry silty clay loam
Type: soil
Class: Inceptisol
Subclass: Ustocrept
Particle Size: none
Sample No.: 82P2671
Owner: JHU
Wavelength Range: All
Origin: Diar Alla Experiment Station.  Jordon, via USDA Soil Conservationservice
Description: Parent material is irrigated cropland.  Pale brown dry silty clay loam (fine, illitic calcareous hyperthermic fluventic). Original ASTER Spectral Library name was jhu.becknic.soil.inceptisol.ustocrept.coarse.82P2671.spectrum.txt
Measurement: Directional (10 degree) hemispherical reflectance
X Units: Wavelength (micrometers)
Y Units: Reflectance (percent)
wavelength	value
14.77	1.586
14.441	1.581
14.126	1.489
13.824	1.62
13.536	1.718
13.259	1.819
12.993	1.951
12.737	2.062
12.492	1.836
12.256	1.751
12.028	2.023
11.809	2.252
11.598	2.596
11.394	2.456
11.197	2.428
11.007	2.154
10.823	2.22
10.645	2.156
10.473	2.349
10.306	2.63
10.145	2.837
9.989	3.321
9.837	3.602
9.69	4.081
9.547	4.182
9.409	4.293
9.274	4.023
9.143	3.739
9.016	3.402
8.892	3.769
8.772	3.971
8.655	3.852
8.541	4.54
8.43	5.118
8.321	6.202
8.216	7.45
8.113	7.295
8.013	6.854
7.915	6.594
7.819	6.47
7.726	6.593
7.635	6.326
7.546	6.06
7.459	5.809
7.374	5.224
7.291	4.04
7.21	3.168
7.131	2.982
7.053	2.989
6.977	2.689
6.903	2.6
6.83	2.551
6.759	2.633
6.689	2.757
6.621	3.097
6.554	3.67
6.488	3.84
6.424	4.29
6.361	3.667
6.299	2.775
6.239	2.213
6.179	1.657
6.121	1.393
6.063	1.345
6.007	1.554
5.952	1.712
5.898	2.144
5.845	2.869
5.792	3.524
5.741	3.903
5.691	4.443
5.641	4.404
5.592	3.284
5.545	3.205
5.497	5.061
5.451	6.01
5.406	6.164
5.361	5.667
5.317	5.993
5.274	6.593
5.231	7.704
5.189	8.452
5.148	8.625
5.107	8.804
5.068	8.899
5.028	9.05
4.99	9.4
4.951	10.349
4.914	11.145
4.877	12.549
4.84	13.188
4.805	13.56
4.769	13.843
4.734	13.905
4.7	13.352
4.666	13.136
4.633	13.971
4.6	14.639
4.567	15.015
4.536	15.131
4.504	15.055
4.473	15.238
4.442	15.634
4.412	16.186
4.382	16.674
4.353	17.117
4.324	17.27
4.295	17.172
4.267	17
4.239	17.653
4.211	18.35
4.184	18.848
4.157	18.969
4.131	19.001
4.105	18.827
4.079	18.402
4.053	17.075
4.028	13.664
4.003	9.507
3.979	6.791
3.954	7.711
3.93	10.508
3.907	11.585
3.883	12.058
3.86	12.393
3.837	13.158
3.815	14.593
3.792	16.443
3.77	17.311
3.748	17.278
3.727	17.032
3.706	16.597
3.684	16.128
3.664	15.724
3.643	15.092
3.623	14.483
3.603	13.897
3.583	13.157
3.563	12.36
3.543	11.501
3.524	10.079
3.505	8.381
3.486	7.354
3.468	7.195
3.449	7.583
3.431	7.255
3.413	6.893
3.395	6.656
3.377	6.404
3.36	6.038
3.342	5.868
3.325	6.122
3.308	5.821
3.292	5.567
3.275	5.241
3.258	4.915
3.242	4.604
3.226	4.376
3.21	4.061
3.194	3.816
3.179	3.614
3.163	3.335
3.148	3.166
3.132	3.01
3.117	2.821
3.102	2.675
3.088	2.56
3.073	2.542
3.058	2.497
3.044	2.424
3.03	2.401
3.016	2.321
3.002	2.304
2.988	2.229
2.974	2.219
2.961	2.116
2.947	2.162
2.934	2.096
2.921	2.117
2.908	2.102
2.895	2.179
2.882	2.225
2.869	2.216
2.856	2.266
2.844	2.301
2.831	2.298
2.819	2.252
2.807	2.137
2.795	2.111
2.783	2.02
2.771	1.908
2.759	1.708
2.747	2.144
2.736	2.331
2.724	3.108
2.713	3.75
2.701	3.553
2.69	9.283
2.679	14.81
2.668	17.225
2.657	20.983
2.646	22.65
2.636	23.686
2.625	24.022
2.614	24.592
2.604	24.627
2.593	24.268
2.583	25.444
2.573	25.886
2.563	25.833
2.553	26.679
2.542	26.373
2.533	26.395
2.523	26.908
2.513	27.27
2.503	27.6
2.494	27.908
2.484	28.435
2.474	29.003
2.465	29.544
2.456	30.013
2.446	30.476
2.437	31.08
2.428	31.754
2.419	32.358
2.41	32.849
2.401	33.122
2.392	33.161
2.384	33.173
2.375	33.497
2.366	33.816
2.357	33.979
2.349	34.061
2.339	34.577
2.331	35.075
2.323	35.522
2.314	35.986
2.306	36.151
2.298	36.41
2.29	36.794
2.282	37.209
2.274	37.563
2.266	37.613
2.258	37.286
2.25	37.232
2.242	37.171
2.234	37.292
2.226	37.351
2.218	37.082
2.21	35.402
2.202	36.717
2.194	37.623
2.186	38.352
2.178	38.782
2.17	38.991
2.162	39.347
2.154	39.901
2.146	40.469
2.138	40.666
2.13	40.793
2.122	40.81
2.114	40.858
2.106	40.886
2.098	40.818
2.09	40.609
2.082	40.595
2.06	40.471
2.028	39.285
1.996	36.642
1.964	33.749
1.932	31.841
1.9	29.779
1.868	37.432
1.836	40.194
1.804	41.121
1.772	40.786
1.74	40.413
1.708	40.707
1.676	40.663
1.644	39.96
1.612	40.105
1.58	39.597
1.548	39.181
1.516	38.494
1.484	37.782
1.452	36.398
1.42	34.892
1.388	35.592
1.356	37.736
1.324	37.234
1.292	37.143
1.26	36.205
1.228	35.555
1.196	35.053
1.164	34.032
1.132	33.869
1.1	31.425
1.068	31.503
1.036	30.578
1.004	29.09
0.972	28.322
0.94	27.268
0.908	26.21
0.876	25.482
0.844	24.548
0.812	24.187
0.795	23.872
0.787	22.773
0.779	22.768
0.771	22.174
0.763	22.545
0.755	21.742
0.747	21.343
0.739	20.61
0.731	20.446
0.723	19.842
0.715	19.886
0.707	19.182
0.699	19.835
0.691	18.358
0.683	17.844
0.675	17.366
0.667	17.201
0.659	16.286
0.651	16.203
0.643	15.55
0.635	15.468
0.627	14.35
0.619	14.28
0.611	14.166
0.603	13.695
0.595	13.117
0.587	12.944
0.579	11.983
0.571	11.508
0.563	10.464
0.555	9.337
0.547	8.622
0.539	7.593
0.531	6.422
0.523	5.242
0.515	4.307
0.507	3.081
0.499	2.66
0.491	1.294
0.483	0.618
0.475	0
0.467	0
0.459	0
0.451	0
0.443	0
0.435	0
0.427	0
0.419	0
0.411	0
0.403	0
