Name: Fluvial deposit
Type: soil
Class: Entisol
Subclass: None
Particle Size: Unsorted
Sample No.: fgg003
Owner: University of NSW
Wavelength Range: TIR
Origin: Fowlers Gap, western New South Wales, AustraliaHewson(1998) PhD thesis
Description: Parent material consists of phyllite and shale grits with some quartz-rich sands deposited as alluviumPhysiography: Floodplain outwash along ephemeral watercourse. Original ASTER Spectral Library name was jpl.nicolet.soil.entisol.none.unsorted.fgg003.spectrum.txt
Measurement: Directional hemispherical reflectance
X Units: Wavelength (micrometers)
Y Units: Reflectance (percent)
wavelength	value
14.0131	1.8277
13.7895	2.1098
13.5729	2.1786
13.363	2.2206
13.1595	1.9481
12.9621	2.4421
12.7705	2.2364
12.5845	2.0024
12.4039	1.7011
12.2284	1.6297
12.0578	2.0599
11.8918	2.661
11.7304	2.9348
11.5733	3.1545
11.4203	2.6145
11.2714	2.9906
11.1263	2.9324
10.9848	2.6565
10.8469	2.5483
10.7125	2.5614
10.5813	2.9043
10.4533	3.2268
10.3284	3.1726
10.2064	3.6181
10.0872	4.0893
9.9708	4.6761
9.8571	5.0243
9.7459	5.4806
9.6372	6.4734
9.5309	7.1029
9.427	7.4071
9.3252	8.4583
9.2257	8.0834
9.1282	7.7943
9.0328	7.1124
8.9394	7.1587
8.8478	7.7673
8.7582	7.7896
8.6703	6.9666
8.5842	7.2172
8.4997	8.0143
8.4169	8.532
8.3357	9.4036
8.2561	10.4757
8.178	10.6192
8.1013	8.2151
8.0261	6.0429
7.9522	4.7706
7.8797	3.5256
7.8085	3.0179
7.7386	2.8831
7.6699	2.9438
7.6024	2.9208
7.5361	2.8797
7.4709	2.8599
7.4069	2.9087
7.344	2.8776
7.2821	3.1161
7.2212	3.341
7.1614	3.3316
7.1025	3.4611
7.0446	3.4365
6.9877	3.5962
6.9316	3.9206
6.8764	4.136
6.8222	4.306
6.7687	4.5131
6.7161	4.3486
6.6643	4.6404
6.6133	4.6024
6.5631	4.4827
6.5136	5.0008
6.4649	5.5988
6.4169	5.9405
6.3696	5.4383
6.323	4.7184
6.277	3.828
6.2318	3.2363
6.1872	2.8489
6.1432	2.7604
6.0998	2.6839
6.0571	2.8277
6.0149	3.0594
5.9733	3.3627
5.9323	3.7317
5.8919	4.9321
5.852	6.3494
5.8126	7.67
5.7738	8.7861
5.7354	9.7057
5.6976	10.2111
5.6603	9.5652
5.6235	8.0777
5.5871	7.553
5.5512	7.804
5.5158	8.7005
5.4808	9.832
5.4463	10.3346
5.4121	9.2403
5.3785	7.3739
5.3452	6.6786
5.3123	6.8542
5.2799	7.6643
5.2478	9.2766
5.2161	11.5047
5.1848	12.3733
5.1539	12.3031
5.1234	12.2533
5.0932	12.2791
5.0633	11.7302
5.0338	11.7008
5.0047	11.7752
4.9759	12.9057
4.9474	14.9131
4.9192	16.3054
4.8914	19.7449
4.8638	22.3973
4.8366	23.8108
4.8097	24.5447
4.7831	25.0369
4.7567	25.6704
4.7307	26.0125
4.7049	25.9836
4.6795	25.6324
4.6543	26.5731
4.6293	27.4406
4.6047	28.1912
4.5802	28.6331
4.5561	28.866
4.5322	28.5892
4.5086	27.7222
4.4852	27.1957
4.462	27.164
4.4391	28.1568
4.4164	28.792
4.3939	29.7388
4.3717	30.6083
4.3497	31.4869
4.3279	31.8512
4.3063	32.2285
4.285	32.282
4.2638	32.5191
4.2429	33.2468
4.2222	33.5735
4.2017	33.789
4.1813	34.2244
4.1612	34.4572
4.1412	34.9242
4.1215	35.2028
4.1019	35.5441
4.0826	35.8116
4.0634	35.8885
4.0443	35.9863
4.0255	35.628
4.0068	35.2077
3.9883	34.5037
3.97	34.6158
3.9519	35.0308
3.9339	35.4241
3.916	35.4056
3.8984	35.3184
3.8809	35.1214
3.8635	34.725
3.8463	34.6001
3.8293	34.3452
3.8124	34.2383
3.7956	33.9819
3.779	33.4835
3.7626	33.0131
3.7463	32.5184
3.7301	32.0022
3.7141	31.5051
3.6982	31.0078
3.6824	30.6167
3.6668	30.0876
3.6513	29.437
3.6359	28.9249
3.6207	28.251
3.6056	27.6762
3.5906	26.9156
3.5758	26.1747
3.561	25.413
3.5464	24.485
3.5319	23.7066
3.5175	22.5413
3.5033	21.3012
3.4891	20.9036
3.4751	20.211
3.4612	19.7195
3.4474	19.0266
3.4337	18.1604
3.4201	16.9287
3.4066	16.5602
3.3932	16.3097
3.3799	15.7861
3.3668	15.3288
3.3537	14.9919
3.3407	14.6045
3.3279	13.9924
3.3151	13.4524
3.3024	12.705
3.2899	12.099
3.2774	11.4836
3.265	11.0214
3.2527	10.3365
3.2405	9.803
3.2284	9.3626
3.2164	8.8421
3.2045	8.4702
3.1926	7.9228
3.1809	7.4909
3.1692	7.1861
3.1576	6.7755
3.1461	6.3392
3.1347	6.0748
3.1234	5.7563
3.1121	5.3554
3.101	5.2009
3.0899	5.0366
3.0789	4.8284
3.068	4.8244
3.0571	4.642
3.0463	4.5826
3.0356	4.3314
3.025	4.3421
3.0144	4.348
3.004	4.1547
2.9936	4.1171
2.9832	4.0026
2.973	3.9696
2.9628	3.7297
2.9526	3.8021
2.9426	3.642
2.9326	3.8181
2.9227	3.667
2.9128	3.911
2.903	3.8912
2.8933	4.0255
2.8837	3.8035
2.8741	4.1748
2.8646	4.1694
2.8551	4.1023
2.8457	4.2332
2.8363	4.2155
2.8271	4.0739
2.8178	4.1033
2.8087	3.9753
2.7996	3.617
2.7906	3.7222
2.7816	3.2784
2.7726	2.8935
2.7638	2.4698
2.755	2.5583
2.7462	2.8346
2.7375	3.3316
2.7289	4.2144
2.7203	6.0406
2.7117	6.1955
2.7033	4.749
2.6948	11.6176
2.6864	21.2989
2.6781	27.8926
2.6698	31.7987
2.6616	34.2177
2.6535	36.0003
2.6453	37.344
2.6373	38.3788
2.6292	39.3512
2.6213	39.9678
2.6133	40.5071
2.6054	41.0292
2.5976	40.9909
2.5898	41.3721
2.5821	41.6615
2.5744	42.1193
2.5668	42.062
2.5592	42.3832
2.5516	42.6145
2.5441	42.6705
2.5366	42.7032
2.5292	42.7881
2.5218	43.121
2.5145	43.102
2.5072	43.1686
2.4999	43.5201
2.4927	43.6866
2.4855	44.0158
2.4784	44.3898
2.4713	44.7061
2.4643	44.8363
2.4573	45.1533
2.4503	45.3564
2.4434	45.7022
2.4365	46.2111
2.4296	46.9989
2.4228	47.2485
2.4161	47.7487
2.4093	48.2349
2.4026	48.3884
2.396	48.5395
2.3893	48.4692
2.3827	48.6208
2.3762	48.9059
2.3697	49.1548
2.3632	49.1238
2.3567	49.4051
2.3503	49.4502
2.344	49.8917
2.3376	50.44
2.3313	50.9525
2.325	51.5591
2.3188	51.9881
2.3126	52.3895
2.3064	52.6099
2.3003	53.0081
2.2942	53.2564
2.2881	53.5683
2.2821	53.6232
2.2761	54.0619
2.2701	54.0816
2.2641	53.9955
2.2582	53.5433
2.2523	53.4527
2.2465	53.3799
2.2406	53.0742
2.2348	53.1998
2.2291	53.0997
2.2233	52.3969
2.2176	51.7376
2.212	50.2109
2.2063	50.004
2.2007	51.7236
2.1951	52.618
2.1895	53.3695
2.184	54.0484
2.1785	54.5093
2.173	55.0025
2.1676	55.1967
2.1622	55.3189
2.1568	55.7267
2.1514	55.9927
2.146	56.7411
2.1407	57.289
2.1354	57.3538
2.1302	57.2794
2.1249	57.2462
2.1197	57.2625
2.1145	57.349
2.1094	57.1932
2.1042	57.3534
2.0991	57.3638
2.094	57.6264
2.089	57.5798
2.0839	57.3985
2.0789	57.3065
2.0739	57.1226
2.069	57.3633
2.064	57.4393
2.0591	57.3942
2.0542	57.1744
2.0493	57.0681
2.0445	57.2665
2.0397	56.9514
2.0349	56.724
2.0301	56.8322
2.0253	56.7694
2.0206	56.2925
2.0159	56.1761
2.0112	55.7438
2.0065	55.769
2.0019	55.4619
