Name: Red-orange sandy loam/alluvium
Type: soil
Class: Entisol
Subclass: None
Particle Size: Unsorted
Sample No.: fgg007
Owner: University of NSW
Wavelength Range: TIR
Origin: Fowlers Gap, western New South Wales, AustraliaHewson(1998) PhD thesis
Description: Parent material consists of aeolian silts/clays and sandstone debris.Physiography: Alluvium along creek on footslopes of sandstone (Nundooka Sandstone) outcropping hills Original ASTER Spectral Library name was jpl.nicolet.soil.entisol.none.unsorted.fgg007.spectrum.txt
Measurement: Directional hemispherical reflectance
X Units: Wavelength (micrometers)
Y Units: Reflectance (percent)
wavelength	value
14.0131	1.4771
13.7895	1.4601
13.5729	1.7583
13.363	1.7877
13.1595	1.7497
12.9621	2.1894
12.7705	2.1509
12.5845	2.2748
12.4039	1.6871
12.2284	1.5474
12.0578	1.885
11.8918	2.209
11.7304	2.5267
11.5733	2.4488
11.4203	2.6125
11.2714	2.5863
11.1263	2.8256
10.9848	3.1595
10.8469	2.6553
10.7125	2.6173
10.5813	2.6809
10.4533	2.9753
10.3284	3.4668
10.2064	3.968
10.0872	4.8094
9.9708	5.6902
9.8571	6.1133
9.7459	7.1617
9.6372	8.4005
9.5309	9.0804
9.427	10.0222
9.3252	10.4203
9.2257	9.302
9.1282	8.1534
9.0328	7.2789
8.9394	7.452
8.8478	8.3724
8.7582	8.0436
8.6703	7.1733
8.5842	7.1971
8.4997	8.0505
8.4169	8.5771
8.3357	9.4136
8.2561	10.669
8.178	10.906
8.1013	8.3904
8.0261	5.7935
7.9522	4.2026
7.8797	2.887
7.8085	2.4857
7.7386	2.2787
7.6699	1.9604
7.6024	1.8573
7.5361	1.8359
7.4709	1.81
7.4069	1.8641
7.344	1.9081
7.2821	1.9791
7.2212	2.0808
7.1614	2.3401
7.1025	2.3261
7.0446	2.3573
6.9877	2.6147
6.9316	2.7506
6.8764	2.897
6.8222	2.9016
6.7687	2.869
6.7161	2.7706
6.6643	2.9979
6.6133	3.0778
6.5631	2.8781
6.5136	3.2844
6.4649	3.7683
6.4169	3.8163
6.3696	3.4138
6.323	3.0406
6.277	2.4596
6.2318	2.1683
6.1872	1.689
6.1432	1.5297
6.0998	1.5047
6.0571	1.6506
6.0149	1.7465
5.9733	2.0581
5.9323	2.1782
5.8919	2.8112
5.852	3.6247
5.8126	4.6731
5.7738	5.3612
5.7354	6.2133
5.6976	6.6336
5.6603	5.908
5.6235	4.9894
5.5871	4.9072
5.5512	4.9079
5.5158	5.3612
5.4808	5.9023
5.4463	6.1926
5.4121	5.5457
5.3785	4.3618
5.3452	4.0965
5.3123	4.3712
5.2799	4.7736
5.2478	5.5893
5.2161	6.9974
5.1848	7.2815
5.1539	7.237
5.1234	7.2929
5.0932	7.2761
5.0633	7.0232
5.0338	7.003
5.0047	7.034
4.9759	7.8279
4.9474	9.0912
4.9192	10.2045
4.8914	13.0496
4.8638	15.5537
4.8366	16.8069
4.8097	17.6917
4.7831	18.2643
4.7567	18.7733
4.7307	19.0784
4.7049	18.8643
4.6795	18.3408
4.6543	19.4523
4.6293	20.4235
4.6047	21.0599
4.5802	21.4233
4.5561	21.519
4.5322	20.9488
4.5086	19.9415
4.4852	19.1722
4.462	19.1511
4.4391	20.0609
4.4164	20.8285
4.3939	21.7772
4.3717	22.8643
4.3497	23.7327
4.3279	24.395
4.3063	24.5261
4.285	24.6522
4.2638	25.1001
4.2429	25.758
4.2222	26.2062
4.2017	26.4687
4.1813	26.9043
4.1612	27.4136
4.1412	27.8741
4.1215	28.4905
4.1019	29.0538
4.0826	29.461
4.0634	30.1084
4.0443	30.2833
4.0255	30.5764
4.0068	30.7664
3.9883	31.0296
3.97	31.3056
3.9519	31.6363
3.9339	31.6268
3.916	31.7387
3.8984	31.4937
3.8809	31.3641
3.8635	31.0562
3.8463	30.8663
3.8293	30.5444
3.8124	30.4397
3.7956	30.0202
3.779	29.4625
3.7626	28.9259
3.7463	28.3591
3.7301	27.9356
3.7141	27.3912
3.6982	26.8307
3.6824	26.3449
3.6668	25.7544
3.6513	25.2817
3.6359	24.6984
3.6207	23.986
3.6056	23.2455
3.5906	22.5906
3.5758	21.7712
3.561	20.998
3.5464	20.2961
3.5319	19.5286
3.5175	18.6253
3.5033	17.646
3.4891	17.2035
3.4751	16.5902
3.4612	15.8433
3.4474	15.2072
3.4337	14.197
3.4201	13.2163
3.4066	12.7214
3.3932	12.3997
3.3799	11.7949
3.3668	11.0738
3.3537	10.7017
3.3407	10.0533
3.3279	9.5403
3.3151	8.9346
3.3024	8.3772
3.2899	8.1059
3.2774	7.397
3.265	6.9672
3.2527	6.5499
3.2405	6.1375
3.2284	5.8402
3.2164	5.3288
3.2045	5.0124
3.1926	4.7566
3.1809	4.3735
3.1692	4.2391
3.1576	3.8301
3.1461	3.751
3.1347	3.5073
3.1234	3.3525
3.1121	3.2599
3.101	3.1135
3.0899	2.9598
3.0789	2.894
3.068	2.7541
3.0571	2.7106
3.0463	2.7245
3.0356	2.6126
3.025	2.6766
3.0144	2.345
3.004	2.4193
2.9936	2.5648
2.9832	2.2434
2.973	2.3978
2.9628	2.342
2.9526	2.2549
2.9426	2.1528
2.9326	2.0877
2.9227	2.2178
2.9128	2.0903
2.903	2.0113
2.8933	2.2202
2.8837	2.2519
2.8741	2.0826
2.8646	2.2661
2.8551	2.2729
2.8457	2.354
2.8363	2.5605
2.8271	2.6767
2.8178	2.3861
2.8087	2.1633
2.7996	1.9542
2.7906	1.7446
2.7816	2.1854
2.7726	1.979
2.7638	1.6816
2.755	1.5455
2.7462	1.8106
2.7375	1.9468
2.7289	2.1627
2.7203	2.8958
2.7117	2.9344
2.7033	2.3892
2.6948	6.2955
2.6864	13.0577
2.6781	18.5973
2.6698	22.586
2.6616	24.9634
2.6535	26.9309
2.6453	28.4185
2.6373	29.5566
2.6292	30.5985
2.6213	31.3341
2.6133	31.9433
2.6054	32.1997
2.5976	32.7489
2.5898	33.1364
2.5821	33.5026
2.5744	33.7073
2.5668	34.0948
2.5592	34.4651
2.5516	34.4857
2.5441	34.8102
2.5366	34.9691
2.5292	35.1817
2.5218	35.3366
2.5145	35.6198
2.5072	36.0066
2.4999	36.3209
2.4927	36.3245
2.4855	37.0146
2.4784	37.6141
2.4713	38.0157
2.4643	38.4663
2.4573	38.9118
2.4503	39.0841
2.4434	39.6352
2.4365	40.2596
2.4296	40.9906
2.4228	41.671
2.4161	42.276
2.4093	42.917
2.4026	43.1878
2.396	43.1899
2.3893	43.3847
2.3827	43.5376
2.3762	43.8661
2.3697	44.6124
2.3632	44.8922
2.3567	45.3135
2.3503	45.8126
2.344	46.2311
2.3376	47.0279
2.3313	47.5239
2.325	48.0747
2.3188	48.7073
2.3126	49.1768
2.3064	49.5985
2.3003	50.1049
2.2942	50.3899
2.2881	50.5756
2.2821	50.9891
2.2761	51.2957
2.2701	51.3455
2.2641	51.2408
2.2582	50.7693
2.2523	50.5607
2.2465	50.3068
2.2406	49.7939
2.2348	49.84
2.2291	49.62
2.2233	49.0872
2.2176	48.1333
2.212	45.6096
2.2063	45.1063
2.2007	47.4229
2.1951	48.4341
2.1895	49.3597
2.184	50.0659
2.1785	50.8549
2.173	51.2683
2.1676	51.4773
2.1622	51.963
2.1568	52.6187
2.1514	53.3165
2.146	54.3791
2.1407	54.9446
2.1354	55.1447
2.1302	55.2531
2.1249	55.1439
2.1197	55.3885
2.1145	55.2749
2.1094	55.3941
2.1042	55.2889
2.0991	55.3253
2.094	55.3737
2.089	55.0939
2.0839	55.2235
2.0789	55.0395
2.0739	55.1737
2.069	55.1978
2.064	55.2871
2.0591	54.6839
2.0542	54.6661
2.0493	54.424
2.0445	54.3888
2.0397	54.0046
2.0349	53.8732
2.0301	53.6147
2.0253	53.2551
2.0206	52.9212
2.0159	52.5252
2.0112	52.2231
2.0065	51.6803
2.0019	51.3901
