Name: 14149.18
Type: Soil
Class: Lunar
Subclass: Transitional
Particle Size: Fine
Sample No.: 14149_18
Owner: JHU
Wavelength Range: TIR
Origin: Apollo 14 landing site via the NASA Lunar Sample Repository at JohnsonSpace Center, Houston, TX.
Description: This sample is one of a suite of soils at the Apollo 14 site representing major element chemistry transitional between the highlands and maria.  It has an intermediate exposure age of the three soils of that suite (Is/FeO=53). Original ASTER Spectral Library name was jhu.becknic.soil.lunar.transitional.fine.14149.spectrum.txt
Measurement: Directional (10 degree) hemispherical reflectance
X Units: Wavelength (micrometers)
Y Units: Reflectance (percent)
wavelength	value
14.011	0.753
13.788	0.8644
13.571	1.0939
13.361	1.1717
13.158	1.2392
12.96	1.4149
12.769	1.5062
12.583	1.7484
12.402	2.0143
12.227	2.1633
12.056	2.1716
11.89	2.1204
11.729	2.1531
11.572	2.1632
11.419	2.1755
11.27	2.1186
11.125	2.0532
10.983	2.0212
10.846	2.0899
10.711	2.0678
10.58	1.9892
10.452	1.9166
10.327	1.8033
10.205	1.7014
10.086	1.6769
9.9695	1.6422
9.8558	1.6353
9.7447	1.6491
9.636	1.6015
9.5297	1.5925
9.4257	1.5962
9.324	1.5242
9.2245	1.4437
9.127	1.432
9.0316	1.3663
8.9382	1.2198
8.8467	1.0784
8.757	1.0114
8.6692	0.9641
8.583	0.9003
8.4986	0.8206
8.4158	0.7682
8.3347	0.7215
8.255	0.6965
8.1769	0.7393
8.1002	0.8992
8.025	1.1682
7.9512	1.577
7.8786	2.0562
7.8075	2.5516
7.7375	3.1167
7.6689	3.715
7.6014	4.272
7.5351	4.8163
7.47	5.3877
7.4059	5.9115
7.343	6.4391
7.2811	6.9412
7.2203	7.3835
7.1604	7.8555
7.1016	8.2715
7.0437	8.646
6.9867	9.0071
6.9307	9.3461
6.8755	9.6565
6.8213	9.8849
6.7678	10.135
6.7152	10.302
6.6634	10.441
6.6124	10.567
6.5622	10.719
6.5128	10.914
6.464	11.063
6.416	11.093
6.3687	11.157
6.3221	11.173
6.2762	11.238
6.231	11.278
6.1863	11.346
6.1424	11.534
6.099	11.737
6.0563	11.889
6.0141	12.109
5.9725	12.422
5.9315	12.785
5.8911	13.216
5.8512	13.603
5.8118	13.912
5.773	14.207
5.7347	14.47
5.6969	14.619
5.6596	14.738
5.6227	14.951
5.5864	15.179
5.5505	15.406
5.5151	15.528
5.4801	15.639
5.4455	15.707
5.4114	15.862
5.3778	16.045
5.3445	16.169
5.3116	16.334
5.2792	16.503
5.2471	16.701
5.2154	16.939
5.1842	17.223
5.1532	17.539
5.1227	17.937
5.0925	18.326
5.0627	18.676
5.0332	19.035
5.004	19.424
4.9752	19.753
4.9467	20.149
4.9186	20.523
4.8907	20.841
4.8632	21.199
4.836	21.543
4.809	21.881
4.7824	22.186
4.7561	22.474
4.7301	22.764
4.7043	23.053
4.6788	23.365
4.6536	23.679
4.6287	23.995
4.604	24.277
4.5796	24.52
4.5555	24.727
4.5316	24.92
4.508	25.07
4.4846	25.182
4.4614	25.27
4.4385	25.377
4.4158	25.457
4.3934	25.553
4.3711	25.621
4.3491	25.739
4.3273	25.798
4.3058	25.883
4.2844	25.965
4.2633	26.005
4.2424	26.077
4.2216	26.103
4.2011	26.103
4.1808	26.117
4.1606	26.135
4.1407	26.159
4.1209	26.144
4.1014	26.176
4.082	26.181
4.0628	26.193
4.0438	26.204
4.025	26.208
4.0063	26.214
3.9878	26.229
3.9695	26.214
3.9513	26.23
3.9333	26.194
3.9155	26.186
3.8979	26.167
3.8804	26.174
3.863	26.15
3.8458	26.121
3.8288	26.088
3.8119	26.08
3.7951	26.027
3.7785	25.998
3.7621	25.983
3.7458	25.919
3.7296	25.892
3.7136	25.852
3.6977	25.8
3.6819	25.734
3.6663	25.704
3.6508	25.691
3.6355	25.626
3.6202	25.603
3.6051	25.528
3.5901	25.487
3.5753	25.461
3.5605	25.417
3.5459	25.365
3.5314	25.337
3.5171	25.328
3.5028	25.282
3.4887	25.227
3.4746	25.176
3.4607	25.107
3.4469	25.09
3.4332	25.076
3.4196	25.031
3.4061	24.979
3.3928	24.912
3.3795	24.823
3.3663	24.775
3.3533	24.679
3.3403	24.621
3.3274	24.554
3.3147	24.49
3.302	24.467
3.2894	24.407
3.277	24.367
3.2646	24.253
3.2523	24.204
3.2401	24.145
3.228	24.06
3.216	24.031
3.204	23.955
3.1922	23.863
3.1805	23.852
3.1688	23.767
3.1572	23.723
3.1457	23.66
3.1343	23.589
3.123	23.536
3.1117	23.493
3.1006	23.44
3.0895	23.365
3.0785	23.348
3.0675	23.276
3.0567	23.213
3.0459	23.139
3.0352	23.14
3.0246	23.082
3.014	23.03
3.0036	22.969
2.9932	22.881
2.9828	22.824
2.9726	22.806
2.9624	22.737
2.9523	22.693
2.9422	22.674
2.9322	22.633
2.9223	22.575
2.9124	22.5
2.9027	22.463
2.8929	22.439
2.8833	22.437
2.8737	22.417
2.8642	22.337
2.8547	22.335
2.8453	22.293
2.836	22.259
2.8267	22.239
2.8175	22.273
2.8083	22.296
2.7992	22.404
2.7902	22.477
2.7812	22.532
2.7723	22.705
2.7634	22.846
2.7546	23.05
2.7458	23.302
2.7371	23.472
2.7285	23.71
2.7199	23.835
2.7114	23.976
2.7029	24.121
2.6945	24.087
2.6861	24.134
2.6778	24.102
2.6695	24.078
2.6613	24.203
2.6531	24.18
2.645	24.161
2.6369	24.132
2.6289	24.039
2.6209	23.978
2.613	23.982
2.6051	23.827
2.5973	23.875
2.5895	23.841
2.5817	23.758
2.5741	23.694
2.5664	23.696
2.5588	23.631
2.5513	23.558
2.5437	23.506
2.5363	23.445
2.5289	23.382
2.5215	23.325
2.5141	23.32
2.5068	23.243
2.4996	23.2
2.4924	23.099
2.4852	23.069
2.4781	23.023
2.471	22.96
2.464	22.946
2.4569	22.908
2.45	22.879
2.4431	22.826
2.4362	22.761
2.4293	22.733
2.4225	22.698
2.4157	22.645
2.409	22.567
2.4023	22.56
2.3956	22.507
2.389	22.436
2.3824	22.398
2.3759	22.353
2.3694	22.257
2.3629	22.198
2.3564	22.17
2.35	22.144
2.3436	22.095
2.3373	21.974
2.331	21.965
2.3247	21.88
2.3185	21.884
2.3123	21.851
2.3061	21.809
2.3	21.74
2.2939	21.742
2.2878	21.647
2.2818	21.578
2.2757	21.499
2.2698	21.522
2.2638	21.49
2.2579	21.449
2.252	21.352
2.2462	21.339
2.2403	21.288
2.2345	21.279
2.2288	21.18
2.2231	21.174
2.2173	21.108
2.2117	21.066
2.206	20.998
2.2004	20.98
2.1948	20.929
2.1893	20.865
2.1837	20.812
2.1782	20.774
2.1727	20.693
2.1673	20.663
2.1619	20.657
2.1565	20.573
2.1511	20.474
2.1458	20.475
2.1404	20.432
2.1352	20.387
2.1299	20.417
2.1247	20.346
2.1194	20.294
2.1143	20.159
2.1091	20.176
2.104	20.146
2.0988	20.2
2.0938	20.074
2.0887	19.988
2.0837	20.077
