Name: 12030.135
Type: Soil
Class: Lunar
Subclass: Maria
Particle Size: Fine
Sample No.: 12030_135
Owner: JHU
Wavelength Range: TIR
Origin: Apollo 12 landing site via the NASA Lunar Sample Repository at JohnsonSpace Center, Houston, TX.
Description: This sample is one of a suite of soils of similar chemistry, but different exposure ages, from the Apollo 12 mare site.  This sample has the lowest exposure age of the three soils of that suite (Is/FeO=14). Original ASTER Spectral Library name was jhu.becknic.soil.lunar.maria.fine.12030.spectrum.txt
Measurement: Directional (10 degree) hemispherical reflectance
X Units: Wavelength (micrometers)
Y Units: Reflectance (percent)
wavelength	value
14.011	1.2485
13.788	1.2535
13.571	1.3498
13.361	1.4602
13.158	1.5601
12.96	1.7082
12.769	1.8662
12.583	2.1395
12.402	2.4403
12.227	2.641
12.056	2.588
11.89	2.4602
11.729	2.4987
11.572	2.5428
11.419	2.6442
11.27	2.52
11.125	2.3983
10.983	2.3098
10.846	2.3826
10.711	2.3419
10.58	2.2302
10.452	2.1428
10.327	2.0474
10.205	1.9354
10.086	1.9443
9.9695	1.9062
9.8558	1.9297
9.7447	1.9698
9.636	1.9115
9.5297	1.9482
9.4257	1.9406
9.324	1.9707
9.2245	1.9985
9.127	2.0328
9.0316	1.9096
8.9382	1.6453
8.8467	1.3977
8.757	1.2622
8.6692	1.217
8.583	1.1447
8.4986	1.1536
8.4158	1.1173
8.3347	1.1796
8.255	1.2989
8.1769	1.4944
8.1002	1.7657
8.025	2.1463
7.9512	2.6916
7.8786	3.2949
7.8075	3.8498
7.7375	4.3967
7.6689	5.0005
7.6014	5.5222
7.5351	6.0408
7.47	6.5774
7.4059	7.0878
7.343	7.5837
7.2811	8.0312
7.2203	8.4459
7.1604	8.8563
7.1016	9.1739
7.0437	9.5749
6.9867	9.8808
6.9307	10.148
6.8755	10.484
6.8213	10.664
6.7678	10.821
6.7152	10.905
6.6634	10.925
6.6124	10.959
6.5622	11.054
6.5128	11.171
6.464	11.306
6.416	11.476
6.3687	11.424
6.3221	11.371
6.2762	11.39
6.231	11.403
6.1863	11.543
6.1424	11.677
6.099	11.858
6.0563	12.068
6.0141	12.229
5.9725	12.539
5.9315	12.992
5.8911	13.428
5.8512	13.759
5.8118	14.062
5.773	14.386
5.7347	14.59
5.6969	14.689
5.6596	14.799
5.6227	15.014
5.5864	15.279
5.5505	15.531
5.5151	15.605
5.4801	15.633
5.4455	15.558
5.4114	15.528
5.3778	15.43
5.3445	15.296
5.3116	15.292
5.2792	15.421
5.2471	15.68
5.2154	15.994
5.1842	16.282
5.1532	16.567
5.1227	16.88
5.0925	17.154
5.0627	17.43
5.0332	17.727
5.004	18.101
4.9752	18.472
4.9467	18.881
4.9186	19.343
4.8907	19.744
4.8632	20.146
4.836	20.513
4.809	20.887
4.7824	21.212
4.7561	21.534
4.7301	21.885
4.7043	22.25
4.6788	22.58
4.6536	22.881
4.6287	23.191
4.604	23.459
4.5796	23.693
4.5555	23.86
4.5316	24.055
4.508	24.178
4.4846	24.274
4.4614	24.345
4.4385	24.439
4.4158	24.494
4.3934	24.557
4.3711	24.624
4.3491	24.721
4.3273	24.799
4.3058	24.863
4.2844	24.897
4.2633	24.986
4.2424	25.013
4.2216	25.058
4.2011	25.103
4.1808	25.162
4.1606	25.169
4.1407	25.228
4.1209	25.23
4.1014	25.254
4.082	25.27
4.0628	25.287
4.0438	25.328
4.025	25.334
4.0063	25.369
3.9878	25.385
3.9695	25.395
3.9513	25.408
3.9333	25.426
3.9155	25.374
3.8979	25.384
3.8804	25.371
3.863	25.392
3.8458	25.345
3.8288	25.341
3.8119	25.358
3.7951	25.315
3.7785	25.329
3.7621	25.321
3.7458	25.293
3.7296	25.278
3.7136	25.279
3.6977	25.254
3.6819	25.215
3.6663	25.212
3.6508	25.164
3.6355	25.159
3.6202	25.154
3.6051	25.096
3.5901	25.098
3.5753	25.089
3.5605	25.067
3.5459	25.032
3.5314	25.012
3.5171	24.99
3.5028	25.008
3.4887	24.98
3.4746	24.916
3.4607	24.897
3.4469	24.91
3.4332	24.917
3.4196	24.885
3.4061	24.836
3.3928	24.821
3.3795	24.735
3.3663	24.673
3.3533	24.605
3.3403	24.596
3.3274	24.537
3.3147	24.495
3.302	24.464
3.2894	24.471
3.277	24.417
3.2646	24.326
3.2523	24.324
3.2401	24.283
3.228	24.213
3.216	24.2
3.204	24.157
3.1922	24.073
3.1805	24.061
3.1688	24.026
3.1572	23.99
3.1457	23.926
3.1343	23.926
3.123	23.838
3.1117	23.815
3.1006	23.809
3.0895	23.754
3.0785	23.737
3.0675	23.695
3.0567	23.641
3.0459	23.623
3.0352	23.625
3.0246	23.607
3.014	23.506
3.0036	23.453
2.9932	23.389
2.9828	23.369
2.9726	23.411
2.9624	23.327
2.9523	23.275
2.9422	23.244
2.9322	23.224
2.9223	23.179
2.9124	23.176
2.9027	23.152
2.8929	23.117
2.8833	23.144
2.8737	23.058
2.8642	23.094
2.8547	23.083
2.8453	23.048
2.836	23.012
2.8267	23.049
2.8175	23.094
2.8083	23.069
2.7992	23.162
2.7902	23.175
2.7812	23.268
2.7723	23.342
2.7634	23.527
2.7546	23.623
2.7458	23.65
2.7371	23.758
2.7285	23.794
2.7199	23.93
2.7114	23.907
2.7029	23.853
2.6945	23.864
2.6861	23.799
2.6778	23.798
2.6695	23.868
2.6613	23.73
2.6531	23.7
2.645	23.631
2.6369	23.543
2.6289	23.543
2.6209	23.529
2.613	23.371
2.6051	23.387
2.5973	23.32
2.5895	23.225
2.5817	23.153
2.5741	23.043
2.5664	23.005
2.5588	22.903
2.5513	22.835
2.5437	22.763
2.5363	22.676
2.5289	22.622
2.5215	22.516
2.5141	22.48
2.5068	22.41
2.4996	22.341
2.4924	22.244
2.4852	22.127
2.4781	22.076
2.471	22.026
2.464	21.952
2.4569	21.913
2.45	21.81
2.4431	21.736
2.4362	21.644
2.4293	21.589
2.4225	21.544
2.4157	21.503
2.409	21.419
2.4023	21.383
2.3956	21.319
2.389	21.231
2.3824	21.187
2.3759	21.082
2.3694	21.054
2.3629	20.953
2.3564	20.945
2.35	20.899
2.3436	20.812
2.3373	20.767
2.331	20.725
2.3247	20.631
2.3185	20.617
2.3123	20.554
2.3061	20.499
2.3	20.452
2.2939	20.438
2.2878	20.344
2.2818	20.321
2.2757	20.238
2.2698	20.255
2.2638	20.22
2.2579	20.151
2.252	20.072
2.2462	20.04
2.2403	20.006
2.2345	19.987
2.2288	19.882
2.2231	19.883
2.2173	19.833
2.2117	19.823
2.206	19.734
2.2004	19.696
2.1948	19.653
2.1893	19.644
2.1837	19.592
2.1782	19.625
2.1727	19.577
2.1673	19.502
2.1619	19.514
2.1565	19.456
2.1511	19.381
2.1458	19.424
2.1404	19.337
2.1352	19.317
2.1299	19.328
2.1247	19.286
2.1194	19.281
2.1143	19.215
2.1091	19.191
2.104	19.171
2.0988	19.166
2.0938	19.159
2.0887	19.06
2.0837	19.07
