Name: Red-orange sandy soil.
Type: soil
Class: Aridisol
Subclass: None
Particle Size: Unsorted
Sample No.: fgg009
Owner: University of NSW
Wavelength Range: TIR
Origin: Fowlers Gap, western New South Wales, AustraliaHewson(1998) PhD thesis
Description: Parent material consists of aeolian silts/clays and sandstone debris.Physiography: Alluvium along creek on footslopes of sandstone (Nundooka Sandstone) outcropping hills Original ASTER Spectral Library name was jpl.nicolet.soil.aridisol.none.unsorted.fgg009.spectrum.txt
Measurement: Directional hemispherical reflectance
X Units: Wavelength (micrometers)
Y Units: Reflectance (percent)
wavelength	value
14.0131	1.9533
13.7895	2.4595
13.5729	2.5794
13.363	2.3009
13.1595	2.4446
12.9621	2.6948
12.7705	2.759
12.5845	2.5146
12.4039	1.9228
12.2284	1.7901
12.0578	2.3744
11.8918	3.219
11.7304	3.4529
11.5733	3.329
11.4203	3.2762
11.2714	3.4336
11.1263	3.4501
10.9848	3.3165
10.8469	2.9676
10.7125	3.0394
10.5813	3.2022
10.4533	3.3616
10.3284	3.6022
10.2064	4.0734
10.0872	4.6075
9.9708	5.3695
9.8571	5.7284
9.7459	6.1902
9.6372	7.2632
9.5309	7.9605
9.427	9.0356
9.3252	10.2256
9.2257	9.9821
9.1282	9.1748
9.0328	8.2323
8.9394	8.5058
8.8478	9.1971
8.7582	9.1942
8.6703	8.3399
8.5842	8.6981
8.4997	9.8653
8.4169	10.8175
8.3357	11.8061
8.2561	13.4519
8.178	13.559
8.1013	10.3819
8.0261	7.242
7.9522	5.3698
7.8797	3.7713
7.8085	3.0412
7.7386	2.8025
7.6699	2.5125
7.6024	2.3724
7.5361	2.3459
7.4709	2.2942
7.4069	2.3588
7.344	2.3864
7.2821	2.4693
7.2212	2.9163
7.1614	3.0224
7.1025	3.3514
7.0446	3.3641
6.9877	3.4478
6.9316	3.9138
6.8764	3.9899
6.8222	4.0762
6.7687	4.0329
6.7161	3.9048
6.6643	4.1808
6.6133	4.1509
6.5631	3.8526
6.5136	4.4695
6.4649	5.3432
6.4169	5.8023
6.3696	5.1605
6.323	4.5344
6.277	3.6128
6.2318	3.1073
6.1872	2.7932
6.1432	2.7645
6.0998	2.9868
6.0571	3.1509
6.0149	3.4652
5.9733	3.5726
5.9323	3.7432
5.8919	4.7454
5.852	5.9332
5.8126	7.1962
5.7738	8.3429
5.7354	9.1956
5.6976	9.6579
5.6603	8.4452
5.6235	6.7595
5.5871	6.2301
5.5512	6.5932
5.5158	7.333
5.4808	8.3177
5.4463	8.9253
5.4121	7.527
5.3785	5.5609
5.3452	5.033
5.3123	5.2623
5.2799	5.8793
5.2478	7.1525
5.2161	9.309
5.1848	9.9969
5.1539	9.8674
5.1234	9.9291
5.0932	9.6591
5.0633	9.1012
5.0338	9.0759
5.0047	9.2366
4.9759	10.188
4.9474	12.3876
4.9192	13.8219
4.8914	18.1112
4.8638	21.9261
4.8366	23.9005
4.8097	25.1674
4.7831	26.0902
4.7567	26.9283
4.7307	27.359
4.7049	27.1467
4.6795	26.2721
4.6543	27.8369
4.6293	29.2905
4.6047	30.2333
4.5802	30.643
4.5561	30.7018
4.5322	29.816
4.5086	27.9754
4.4852	26.8256
4.462	26.6461
4.4391	27.7149
4.4164	28.6809
4.3939	29.9808
4.3717	31.5063
4.3497	32.5051
4.3279	33.0626
4.3063	33.0136
4.285	32.9156
4.2638	33.1829
4.2429	33.7186
4.2222	34.1058
4.2017	34.4622
4.1813	34.794
4.1612	35.1722
4.1412	35.6299
4.1215	36.079
4.1019	36.4463
4.0826	36.8573
4.0634	37.1001
4.0443	37.2734
4.0255	37.2083
4.0068	37.301
3.9883	37.3521
3.97	37.5248
3.9519	37.5786
3.9339	37.7272
3.916	37.5751
3.8984	37.4346
3.8809	36.9876
3.8635	36.8077
3.8463	36.4767
3.8293	36.2446
3.8124	36.0516
3.7956	35.5819
3.779	35.1083
3.7626	34.633
3.7463	33.9973
3.7301	33.487
3.7141	33.1274
3.6982	32.6921
3.6824	32.2392
3.6668	31.8087
3.6513	31.3326
3.6359	30.8415
3.6207	30.1319
3.6056	29.4923
3.5906	28.6469
3.5758	28.032
3.561	27.3495
3.5464	26.5718
3.5319	25.7545
3.5175	24.6155
3.5033	23.273
3.4891	23.1305
3.4751	22.4423
3.4612	21.8528
3.4474	21.0491
3.4337	20.123
3.4201	18.8516
3.4066	18.4538
3.3932	18.2539
3.3799	17.8299
3.3668	17.3082
3.3537	16.9742
3.3407	16.3759
3.3279	15.7105
3.3151	15.1172
3.3024	14.5542
3.2899	13.9333
3.2774	13.3166
3.265	12.6306
3.2527	12.179
3.2405	11.6034
3.2284	11.1517
3.2164	10.7446
3.2045	10.126
3.1926	9.6327
3.1809	9.1698
3.1692	8.7203
3.1576	8.2506
3.1461	7.8367
3.1347	7.4942
3.1234	6.9881
3.1121	6.8323
3.101	6.612
3.0899	6.3805
3.0789	6.157
3.068	6.1449
3.0571	6.029
3.0463	5.8277
3.0356	5.6191
3.025	5.7928
3.0144	5.6578
3.004	5.2303
2.9936	5.424
2.9832	5.1035
2.973	5.0988
2.9628	4.8093
2.9526	4.9043
2.9426	4.8497
2.9326	4.7667
2.9227	4.7345
2.9128	4.8137
2.903	4.9824
2.8933	4.9494
2.8837	5.0458
2.8741	5.0362
2.8646	5.265
2.8551	5.2168
2.8457	5.5777
2.8363	5.2748
2.8271	5.4218
2.8178	5.3007
2.8087	5.2025
2.7996	4.8435
2.7906	4.433
2.7816	3.8676
2.7726	3.8009
2.7638	2.8736
2.755	2.9879
2.7462	3.3524
2.7375	3.5527
2.7289	4.4351
2.7203	5.9316
2.7117	6.0213
2.7033	4.7871
2.6948	10.9721
2.6864	20.8606
2.6781	28.3061
2.6698	32.8618
2.6616	35.4357
2.6535	37.3232
2.6453	38.7376
2.6373	39.9438
2.6292	40.8555
2.6213	41.7762
2.6133	42.0796
2.6054	42.9341
2.5976	42.9031
2.5898	43.0849
2.5821	43.5922
2.5744	43.7586
2.5668	44.0648
2.5592	44.3615
2.5516	44.7429
2.5441	44.9188
2.5366	44.9676
2.5292	45.1939
2.5218	45.215
2.5145	45.2413
2.5072	45.5101
2.4999	45.7594
2.4927	46.0412
2.4855	46.3207
2.4784	46.7185
2.4713	46.9001
2.4643	47.3543
2.4573	47.736
2.4503	47.7556
2.4434	48.165
2.4365	48.4649
2.4296	49.1098
2.4228	49.5249
2.4161	49.9635
2.4093	50.5518
2.4026	50.5904
2.396	50.6307
2.3893	50.5217
2.3827	50.5833
2.3762	50.9166
2.3697	51.2371
2.3632	51.5439
2.3567	51.5719
2.3503	51.9142
2.344	52.3911
2.3376	52.5561
2.3313	53.069
2.325	53.464
2.3188	53.5704
2.3126	54.0164
2.3064	54.3228
2.3003	54.7573
2.2942	54.8673
2.2881	55.197
2.2821	55.1514
2.2761	55.5639
2.2701	55.4613
2.2641	55.5129
2.2582	55.3706
2.2523	54.9763
2.2465	54.6575
2.2406	54.8248
2.2348	54.6001
2.2291	54.4266
2.2233	54.082
2.2176	53.2806
2.212	51.4032
2.2063	51.1188
2.2007	52.5007
2.1951	53.1246
2.1895	53.756
2.184	54.5225
2.1785	54.8481
2.173	55.3017
2.1676	55.5507
2.1622	55.7931
2.1568	56.4954
2.1514	56.8196
2.146	57.4798
2.1407	57.8689
2.1354	58.1604
2.1302	58.2928
2.1249	58.1078
2.1197	58.2564
2.1145	58.1934
2.1094	58.3059
2.1042	58.3408
2.0991	58.4024
2.094	58.5593
2.089	58.3211
2.0839	58.4075
2.0789	58.1764
2.0739	58.4489
2.069	58.5247
2.064	58.3948
2.0591	58.4952
2.0542	58.1364
2.0493	58.211
2.0445	58.452
2.0397	58.2269
2.0349	58.0008
2.0301	57.8523
2.0253	57.8403
2.0206	57.5966
2.0159	57.5517
2.0112	57.3384
2.0065	56.9586
2.0019	56.9355
