Name: 14259.61
Type: Soil
Class: Lunar
Subclass: Transitional
Particle Size: Fine
Sample No.: 14259_61
Owner: JHU
Wavelength Range: TIR
Origin: Apollo 14 landing site via the NASA Lunar Sample Repository at JohnsonSpace Center, Houston, TX.
Description: The Apollo 14 site represents major element chemistry transitional between the highlands and maria.  This sample is an additional sample to the suite of soils  from this site selected to represent different exposure ages of the same basic soil.  The exposure age of this soil is very great (Is/FeO=85). Original ASTER Spectral Library name was jhu.becknic.soil.lunar.transitional.fine.14259.spectrum.txt
Measurement: Directional (10 degree) hemispherical reflectance
X Units: Wavelength (micrometers)
Y Units: Reflectance (percent)
wavelength	value
14.011	1.0732
13.788	1.0222
13.571	1.1489
13.361	1.1975
13.158	1.2851
12.96	1.3563
12.769	1.4379
12.583	1.6417
12.402	1.8425
12.227	1.9948
12.056	1.9926
11.89	1.9384
11.729	1.9398
11.572	1.9418
11.419	1.9819
11.27	1.9126
11.125	1.8974
10.983	1.8462
10.846	1.88
10.711	1.8556
10.58	1.8166
10.452	1.7154
10.327	1.6696
10.205	1.5876
10.086	1.5645
9.9695	1.532
9.8558	1.5059
9.7447	1.5085
9.636	1.4634
9.5297	1.4654
9.4257	1.4324
9.324	1.3978
9.2245	1.3192
9.127	1.2762
9.0316	1.2238
8.9382	1.0821
8.8467	0.9375
8.757	0.8878
8.6692	0.8092
8.583	0.7139
8.4986	0.6633
8.4158	0.5934
8.3347	0.5515
8.255	0.5344
8.1769	0.5723
8.1002	0.7232
8.025	0.9842
7.9512	1.3923
7.8786	1.8816
7.8075	2.4069
7.7375	2.9594
7.6689	3.5717
7.6014	4.1559
7.5351	4.7255
7.47	5.2982
7.4059	5.8497
7.343	6.3379
7.2811	6.8549
7.2203	7.3303
7.1604	7.7606
7.1016	8.1444
7.0437	8.557
6.9867	8.8623
6.9307	9.1953
6.8755	9.5151
6.8213	9.7541
6.7678	9.9721
6.7152	10.178
6.6634	10.275
6.6124	10.42
6.5622	10.581
6.5128	10.733
6.464	10.884
6.416	11.074
6.3687	11.03
6.3221	11.002
6.2762	11.046
6.231	11.126
6.1863	11.265
6.1424	11.39
6.099	11.567
6.0563	11.781
6.0141	11.917
5.9725	12.189
5.9315	12.586
5.8911	12.972
5.8512	13.181
5.8118	13.478
5.773	13.788
5.7347	13.945
5.6969	14.074
5.6596	14.169
5.6227	14.33
5.5864	14.561
5.5505	14.74
5.5151	14.835
5.4801	14.926
5.4455	14.983
5.4114	15.1
5.3778	15.244
5.3445	15.38
5.3116	15.51
5.2792	15.673
5.2471	15.87
5.2154	16.097
5.1842	16.345
5.1532	16.635
5.1227	16.982
5.0925	17.348
5.0627	17.663
5.0332	17.96
5.004	18.292
4.9752	18.623
4.9467	18.97
4.9186	19.296
4.8907	19.584
4.8632	19.863
4.836	20.149
4.809	20.424
4.7824	20.671
4.7561	20.937
4.7301	21.167
4.7043	21.413
4.6788	21.633
4.6536	21.86
4.6287	22.101
4.604	22.306
4.5796	22.472
4.5555	22.612
4.5316	22.748
4.508	22.844
4.4846	22.918
4.4614	22.979
4.4385	23.061
4.4158	23.108
4.3934	23.148
4.3711	23.207
4.3491	23.266
4.3273	23.322
4.3058	23.389
4.2844	23.452
4.2633	23.435
4.2424	23.513
4.2216	23.502
4.2011	23.444
4.1808	23.437
4.1606	23.429
4.1407	23.434
4.1209	23.404
4.1014	23.408
4.082	23.419
4.0628	23.414
4.0438	23.401
4.025	23.405
4.0063	23.386
3.9878	23.38
3.9695	23.372
3.9513	23.364
3.9333	23.33
3.9155	23.29
3.8979	23.278
3.8804	23.235
3.863	23.201
3.8458	23.154
3.8288	23.118
3.8119	23.105
3.7951	23.04
3.7785	22.987
3.7621	22.964
3.7458	22.903
3.7296	22.858
3.7136	22.801
3.6977	22.749
3.6819	22.687
3.6663	22.623
3.6508	22.576
3.6355	22.544
3.6202	22.493
3.6051	22.427
3.5901	22.399
3.5753	22.323
3.5605	22.264
3.5459	22.21
3.5314	22.156
3.5171	22.131
3.5028	22.107
3.4887	22.009
3.4746	21.948
3.4607	21.885
3.4469	21.841
3.4332	21.813
3.4196	21.733
3.4061	21.678
3.3928	21.615
3.3795	21.526
3.3663	21.469
3.3533	21.391
3.3403	21.333
3.3274	21.239
3.3147	21.2
3.302	21.14
3.2894	21.057
3.277	21.017
3.2646	20.911
3.2523	20.847
3.2401	20.788
3.228	20.724
3.216	20.64
3.204	20.558
3.1922	20.447
3.1805	20.425
3.1688	20.39
3.1572	20.321
3.1457	20.26
3.1343	20.19
3.123	20.129
3.1117	20.051
3.1006	20.005
3.0895	19.947
3.0785	19.858
3.0675	19.855
3.0567	19.777
3.0459	19.693
3.0352	19.693
3.0246	19.65
3.014	19.567
3.0036	19.515
2.9932	19.438
2.9828	19.387
2.9726	19.363
2.9624	19.316
2.9523	19.261
2.9422	19.24
2.9322	19.161
2.9223	19.163
2.9124	19.133
2.9027	19.063
2.8929	19.016
2.8833	19.038
2.8737	19.023
2.8642	18.996
2.8547	18.961
2.8453	18.949
2.836	18.9
2.8267	18.893
2.8175	18.954
2.8083	18.973
2.7992	19.053
2.7902	19.08
2.7812	19.19
2.7723	19.331
2.7634	19.528
2.7546	19.703
2.7458	19.796
2.7371	19.938
2.7285	20.031
2.7199	20.256
2.7114	20.265
2.7029	20.257
2.6945	20.301
2.6861	20.266
2.6778	20.284
2.6695	20.351
2.6613	20.244
2.6531	20.19
2.645	20.185
2.6369	20.134
2.6289	20.123
2.6209	20.131
2.613	20.014
2.6051	20.031
2.5973	19.973
2.5895	19.886
2.5817	19.855
2.5741	19.793
2.5664	19.735
2.5588	19.669
2.5513	19.651
2.5437	19.607
2.5363	19.573
2.5289	19.506
2.5215	19.449
2.5141	19.418
2.5068	19.35
2.4996	19.317
2.4924	19.243
2.4852	19.201
2.4781	19.198
2.471	19.129
2.464	19.093
2.4569	19.011
2.45	19.02
2.4431	18.935
2.4362	18.897
2.4293	18.848
2.4225	18.836
2.4157	18.81
2.409	18.718
2.4023	18.675
2.3956	18.67
2.389	18.592
2.3824	18.58
2.3759	18.511
2.3694	18.492
2.3629	18.409
2.3564	18.354
2.35	18.358
2.3436	18.286
2.3373	18.211
2.331	18.199
2.3247	18.115
2.3185	18.113
2.3123	18.08
2.3061	17.986
2.3	17.973
2.2939	17.942
2.2878	17.879
2.2818	17.839
2.2757	17.813
2.2698	17.763
2.2638	17.747
2.2579	17.692
2.252	17.596
2.2462	17.594
2.2403	17.525
2.2345	17.454
2.2288	17.431
2.2231	17.394
2.2173	17.358
2.2117	17.295
2.206	17.283
2.2004	17.233
2.1948	17.214
2.1893	17.137
2.1837	17.122
2.1782	17.076
2.1727	17.063
2.1673	16.973
2.1619	16.984
2.1565	16.925
2.1511	16.857
2.1458	16.774
2.1404	16.854
2.1352	16.779
2.1299	16.785
2.1247	16.708
2.1194	16.746
2.1143	16.622
2.1091	16.622
2.104	16.557
2.0988	16.52
2.0938	16.498
2.0887	16.403
2.0837	16.477
