Name: 61241.98
Type: Soil
Class: Lunar
Subclass: Highland
Particle Size: Fine
Sample No.: 61241_98
Owner: JHU
Wavelength Range: TIR
Origin: Apollo 16 landing site via the NASA Lunar Sample Repository at JohnsonSpace Center, Houston, TX.
Description: This sample is one of a suite of relatively less aluminous soils at the Apollo 16 site, and has an intermediate exposure age of the three soils of that suite (Is/FeO=47). Original ASTER Spectral Library name was jhu.becknic.soil.lunar.highlands.fine.61242.spectrum.txt
Measurement: Directional (10 degree) hemispherical reflectance
X Units: Wavelength (micrometers)
Y Units: Reflectance (percent)
wavelength	value
14.011	1.0062
13.788	1.1111
13.571	1.2366
13.361	1.3764
13.158	1.3291
12.96	1.4972
12.769	1.6815
12.583	2.0487
12.402	2.3747
12.227	2.5442
12.056	2.4838
11.89	2.3999
11.729	2.4156
11.572	2.4377
11.419	2.471
11.27	2.4202
11.125	2.3521
10.983	2.3282
10.846	2.3914
10.711	2.3735
10.58	2.2348
10.452	2.1555
10.327	1.9814
10.205	1.8169
10.086	1.7913
9.9695	1.6973
9.8558	1.6696
9.7447	1.7181
9.636	1.6371
9.5297	1.6012
9.4257	1.5569
9.324	1.5324
9.2245	1.505
9.127	1.5615
9.0316	1.4878
8.9382	1.3485
8.8467	1.2029
8.757	1.1424
8.6692	1.0961
8.583	1.0043
8.4986	0.9487
8.4158	0.8323
8.3347	0.7506
8.255	0.7028
8.1769	0.7642
8.1002	0.9322
8.025	1.2426
7.9512	1.663
7.8786	2.166
7.8075	2.7162
7.7375	3.2898
7.6689	3.8758
7.6014	4.4792
7.5351	5.0484
7.47	5.6025
7.4059	6.1883
7.343	6.7041
7.2811	7.2299
7.2203	7.6981
7.1604	8.1628
7.1016	8.5794
7.0437	8.9176
6.9867	9.3247
6.9307	9.6434
6.8755	9.8989
6.8213	10.112
6.7678	10.34
6.7152	10.471
6.6634	10.584
6.6124	10.698
6.5622	10.811
6.5128	10.997
6.464	11.187
6.416	11.096
6.3687	11.308
6.3221	11.368
6.2762	11.447
6.231	11.537
6.1863	11.538
6.1424	11.769
6.099	11.921
6.0563	11.932
6.0141	12.228
5.9725	12.601
5.9315	12.99
5.8911	13.483
5.8512	14.035
5.8118	14.441
5.773	14.799
5.7347	15.195
5.6969	15.385
5.6596	15.549
5.6227	15.846
5.5864	16.078
5.5505	16.283
5.5151	16.365
5.4801	16.358
5.4455	16.45
5.4114	16.585
5.3778	16.803
5.3445	16.971
5.3116	17.175
5.2792	17.442
5.2471	17.768
5.2154	18.095
5.1842	18.501
5.1532	18.877
5.1227	19.329
5.0925	19.731
5.0627	20.103
5.0332	20.531
5.004	20.969
4.9752	21.393
4.9467	21.867
4.9186	22.351
4.8907	22.77
4.8632	23.183
4.836	23.59
4.809	23.953
4.7824	24.29
4.7561	24.642
4.7301	24.998
4.7043	25.381
4.6788	25.73
4.6536	26.062
4.6287	26.446
4.604	26.804
4.5796	27.13
4.5555	27.39
4.5316	27.64
4.508	27.83
4.4846	27.976
4.4614	28.101
4.4385	28.215
4.4158	28.254
4.3934	28.356
4.3711	28.445
4.3491	28.588
4.3273	28.73
4.3058	28.864
4.2844	29.016
4.2633	29.102
4.2424	29.225
4.2216	29.263
4.2011	29.303
4.1808	29.315
4.1606	29.321
4.1407	29.389
4.1209	29.373
4.1014	29.398
4.082	29.416
4.0628	29.408
4.0438	29.424
4.025	29.45
4.0063	29.444
3.9878	29.451
3.9695	29.453
3.9513	29.465
3.9333	29.437
3.9155	29.407
3.8979	29.395
3.8804	29.388
3.863	29.344
3.8458	29.315
3.8288	29.277
3.8119	29.277
3.7951	29.2
3.7785	29.181
3.7621	29.164
3.7458	29.114
3.7296	29.056
3.7136	29.01
3.6977	28.968
3.6819	28.913
3.6663	28.865
3.6508	28.82
3.6355	28.778
3.6202	28.732
3.6051	28.648
3.5901	28.626
3.5753	28.571
3.5605	28.508
3.5459	28.452
3.5314	28.387
3.5171	28.377
3.5028	28.342
3.4887	28.229
3.4746	28.198
3.4607	28.135
3.4469	28.099
3.4332	28.053
3.4196	27.983
3.4061	27.917
3.3928	27.846
3.3795	27.728
3.3663	27.682
3.3533	27.661
3.3403	27.583
3.3274	27.528
3.3147	27.458
3.302	27.387
3.2894	27.356
3.277	27.298
3.2646	27.189
3.2523	27.122
3.2401	27.062
3.228	26.999
3.216	26.958
3.204	26.836
3.1922	26.746
3.1805	26.734
3.1688	26.64
3.1572	26.614
3.1457	26.507
3.1343	26.467
3.123	26.412
3.1117	26.343
3.1006	26.29
3.0895	26.227
3.0785	26.178
3.0675	26.136
3.0567	26.011
3.0459	26.011
3.0352	25.952
3.0246	25.911
3.014	25.799
3.0036	25.778
2.9932	25.666
2.9828	25.652
2.9726	25.597
2.9624	25.57
2.9523	25.507
2.9422	25.466
2.9322	25.421
2.9223	25.401
2.9124	25.393
2.9027	25.329
2.8929	25.296
2.8833	25.313
2.8737	25.252
2.8642	25.28
2.8547	25.205
2.8453	25.221
2.836	25.174
2.8267	25.177
2.8175	25.226
2.8083	25.241
2.7992	25.358
2.7902	25.412
2.7812	25.467
2.7723	25.579
2.7634	25.718
2.7546	25.76
2.7458	26.126
2.7371	26.254
2.7285	26.357
2.7199	26.239
2.7114	26.323
2.7029	26.597
2.6945	26.366
2.6861	26.541
2.6778	26.368
2.6695	26.259
2.6613	26.505
2.6531	26.448
2.645	26.461
2.6369	26.475
2.6289	26.264
2.6209	26.195
2.613	26.296
2.6051	26
2.5973	26.137
2.5895	26.112
2.5817	26.028
2.5741	25.943
2.5664	25.993
2.5588	25.96
2.5513	25.878
2.5437	25.833
2.5363	25.748
2.5289	25.73
2.5215	25.676
2.5141	25.647
2.5068	25.567
2.4996	25.492
2.4924	25.432
2.4852	25.385
2.4781	25.344
2.471	25.294
2.464	25.25
2.4569	25.158
2.45	25.102
2.4431	25.075
2.4362	25
2.4293	24.96
2.4225	24.938
2.4157	24.866
2.409	24.807
2.4023	24.763
2.3956	24.717
2.389	24.648
2.3824	24.656
2.3759	24.532
2.3694	24.489
2.3629	24.465
2.3564	24.435
2.35	24.404
2.3436	24.32
2.3373	24.269
2.331	24.235
2.3247	24.185
2.3185	24.153
2.3123	24.12
2.3061	24.058
2.3	24.008
2.2939	24.002
2.2878	23.918
2.2818	23.863
2.2757	23.795
2.2698	23.798
2.2638	23.764
2.2579	23.73
2.252	23.626
2.2462	23.58
2.2403	23.555
2.2345	23.532
2.2288	23.484
2.2231	23.462
2.2173	23.382
2.2117	23.415
2.206	23.314
2.2004	23.339
2.1948	23.248
2.1893	23.248
2.1837	23.185
2.1782	23.209
2.1727	23.136
2.1673	23.101
2.1619	23.138
2.1565	23.067
2.1511	23.005
2.1458	22.953
2.1404	22.928
2.1352	22.884
2.1299	22.906
2.1247	22.828
2.1194	22.868
2.1143	22.751
2.1091	22.754
2.104	22.713
2.0988	22.682
2.0938	22.634
2.0887	22.645
2.0837	22.536
