Name: Brown to dark brown clay
Type: soil
Class: Vertisol
Subclass: Chromoxerert
Particle Size: none
Sample No.: 88P475
Owner: JHU
Wavelength Range: All
Origin: Settat, Morocco, 7 km N of Settat on Casablanca highway, 30 m east offield Rd near cemetary via USDA Soil Conserviation service.
Description: Parent material: unconsolidated sediments from mixed-calcareous material; cropland.  Physiography: backslope crested hills.  Brown to dark brown clay (fine, montmorillonitic, thermic palexerollic chromoxerert). Original ASTER Spectral Library name was jhu.becknic.soil.vertisol.chromoxerert.coarse.88P475.spectrum.txt
Measurement: Directional (10 degree) hemispherical reflectance
X Units: Wavelength (micrometers)
Y Units: Reflectance (percent)
wavelength	value
14.983	1.849
14.645	1.897
14.321	1.67
14.011	1.688
13.715	1.915
13.43	1.935
13.158	2.111
12.896	2.487
12.644	2.224
12.402	1.834
12.169	1.688
11.945	2.023
11.729	2.213
11.52	2.39
11.319	2.396
11.125	2.518
10.937	2.62
10.755	2.564
10.58	2.73
10.41	3.008
10.245	3.452
10.086	4.105
9.9313	4.983
9.7814	5.54
9.636	6.398
9.4948	6.862
9.3577	7.312
9.2245	6.884
9.095	6.532
8.9691	6.282
8.8467	6.546
8.7275	6.254
8.6116	5.272
8.4986	6.44
8.3886	6.599
8.2814	7.35
8.1769	7.712
8.075	5.658
7.9756	4.148
7.8786	3.075
7.784	2.709
7.6916	2.567
7.6014	2.343
7.5133	2.266
7.4272	2.124
7.343	2.032
7.2607	1.95
7.1803	1.778
7.1016	1.763
7.0246	1.751
6.9493	1.728
6.8755	1.766
6.8034	1.781
6.7327	1.877
6.6634	2.032
6.5956	2.073
6.5292	2.024
6.464	2.108
6.4002	1.888
6.3376	1.64
6.2762	1.389
6.216	1.262
6.157	1.157
6.099	1.148
6.0421	1.147
5.9863	1.249
5.9315	1.378
5.8777	1.807
5.8249	2.38
5.773	3.086
5.722	3.71
5.6719	3.947
5.6227	3.603
5.5744	3.354
5.5268	3.698
5.4801	4.155
5.4341	4.433
5.3889	3.753
5.3445	3.436
5.3008	3.672
5.2578	4.181
5.2154	5.139
5.1738	5.402
5.1328	5.36
5.0925	5.367
5.0528	5.177
5.0137	5.237
4.9752	5.659
4.9373	6.492
4.9	7.703
4.8632	9.168
4.827	9.837
4.7913	10.204
4.7561	10.451
4.7215	10.513
4.6873	10.281
4.6536	10.609
4.6205	11.093
4.5877	11.323
4.5555	11.388
4.5237	11.167
4.4923	10.734
4.4614	10.767
4.4309	11.255
4.4008	11.73
4.3711	12.369
4.3418	12.878
4.3129	13.188
4.2844	13.353
4.2563	13.737
4.2285	14.152
4.2011	14.475
4.174	14.933
4.1473	15.247
4.1209	15.661
4.0949	15.996
4.0692	16.283
4.0438	16.317
4.0187	16.106
3.994	15.397
3.9695	14.778
3.9453	15.346
3.9214	15.662
3.8979	15.833
3.8746	15.73
3.8515	15.629
3.8288	15.5
3.8063	15.177
3.7841	14.955
3.7621	14.65
3.7404	14.253
3.7189	13.815
3.6977	13.41
3.6767	12.939
3.656	12.465
3.6355	12.04
3.6152	11.47
3.5951	11.021
3.5753	10.445
3.5557	9.954
3.5363	9.339
3.5171	8.554
3.4981	7.841
3.4793	7.445
3.4607	7.01
3.4423	6.597
3.4241	6.079
3.4061	5.832
3.3883	5.624
3.3707	5.388
3.3533	5.121
3.336	4.953
3.3189	4.636
3.302	4.339
3.2853	4.158
3.2687	3.895
3.2523	3.643
3.2361	3.462
3.22	3.252
3.204	3.068
3.1883	2.87
3.1727	2.728
3.1572	2.617
3.1419	2.45
3.1268	2.322
3.1117	2.277
3.0969	2.169
3.0821	2.134
3.0675	2.049
3.0531	2.052
3.0388	2.029
3.0246	1.965
3.0105	1.912
2.9966	1.853
2.9828	1.848
2.9692	1.794
2.9556	1.758
2.9422	1.79
2.9289	1.73
2.9157	1.755
2.9027	1.733
2.8897	1.727
2.8769	1.811
2.8642	1.781
2.8516	1.839
2.8391	1.847
2.8267	1.91
2.8144	1.921
2.8022	1.84
2.7902	1.856
2.7782	1.797
2.7664	1.692
2.7546	1.676
2.7429	1.8
2.7314	2.157
2.7199	3.054
2.7085	3.647
2.6973	5.542
2.6861	10.329
2.675	13.49
2.664	15.252
2.6531	16.608
2.6423	17.614
2.6315	18.289
2.6209	18.904
2.6103	19.319
2.5999	19.685
2.5895	19.946
2.5792	20.179
2.569	20.356
2.5588	20.529
2.5487	20.646
2.5388	20.76
2.5289	20.794
2.519	21.08
2.5093	21.215
2.4996	21.545
2.49	21.914
2.4805	22.271
2.471	22.654
2.4616	23.02
2.4523	23.499
2.4431	23.853
2.4339	24.367
2.4248	25.041
2.4157	25.706
2.4068	26.216
2.3979	26.76
2.389	27.119
2.3802	27.41
2.3715	27.894
2.3629	28.39
2.3543	28.724
2.3458	29.159
2.3373	29.595
2.3289	30.322
2.3206	30.85
2.3123	31.304
2.3041	31.633
2.2959	32.048
2.2878	32.227
2.2798	32.438
2.2718	32.629
2.2638	32.592
2.2559	32.427
2.2481	32.092
2.2403	31.808
2.2326	31.731
2.225	31.313
2.2173	30.923
2.2098	29.96
2.2023	30.404
2.1948	30.907
2.1874	31.575
2.18	32.24
2.1727	32.798
2.1655	33.36
2.1583	33.77
2.1511	34.078
2.144	34.202
2.1369	34.388
2.1299	34.293
2.1229	34.242
2.116	34.153
2.1091	34.059
2.1023	34.012
2.0955	33.877
2.0887	33.745
2.082	33.787
2.06	33.079
2.028	31.539
1.996	28.712
1.964	25.41
1.932	22.277
1.9	19.685
1.868	30.745
1.836	33.599
1.804	34.17
1.772	33.601
1.74	33.429
1.708	33.487
1.676	33.434
1.644	32.775
1.612	32.189
1.58	31.395
1.548	30.876
1.516	30.106
1.484	29.36
1.452	27.755
1.42	25.981
1.388	26.513
1.356	28.257
1.324	28.291
1.292	27.302
1.26	26.761
1.228	26.466
1.196	25.243
1.164	23.971
1.132	23.352
1.1	20.688
1.068	20.468
1.036	18.817
1.004	17.045
0.972	15.502
0.94	13.743
0.908	11.98
0.876	10.464
0.844	8.929
0.812	7.666
0.795	7.059
0.787	6.313
0.779	6.461
0.771	5.768
0.763	5.74
0.755	5.238
0.747	4.947
0.739	4.578
0.731	4.249
0.723	3.892
0.715	3.789
0.707	3.341
0.699	3.288
0.691	2.538
0.683	2.024
0.675	2.043
0.667	1.687
0.659	1.238
0.651	1.189
0.643	0.7392
0.635	0.4195
0.627	0
0.619	0
0.611	0
0.603	0
0.595	0
0.587	0
0.579	0
0.571	0
0.563	0
0.555	0
0.547	0
0.539	0
0.531	0
0.523	0
0.515	0
0.507	0
0.499	0
0.491	0
0.483	0
0.475	0
0.467	0
0.459	0
0.451	0
0.443	0
0.435	0
0.427	0
0.419	0
0.411	0
0.403	0
