Name: 14141.146
Type: Soil
Class: Lunar
Subclass: Transitional
Particle Size: Fine
Sample No.: 14141_146
Owner: JHU
Wavelength Range: TIR
Origin: Apollo 14 landing site via the NASA Lunar Sample Repository at JohnsonSpace Center, Houston, TX.
Description: This sample is one of a suite of soils at the Apollo 14 site representing major element chemistry transitional between the highlands and maria.  It has the least exposure age of the three soils of that suite ((Is/FeO=6). Original ASTER Spectral Library name was jhu.becknic.soil.lunar.transitional.fine.14141.spectrum.txt
Measurement: Directional (10 degree) hemispherical reflectance
X Units: Wavelength (micrometers)
Y Units: Reflectance (percent)
wavelength	value
14.011	0.8762
13.788	0.912
13.571	1.171
13.361	1.3288
13.158	1.3723
12.96	1.4961
12.769	1.6862
12.583	2.0651
12.402	2.5117
12.227	2.6868
12.056	2.6331
11.89	2.6014
11.729	2.5935
11.572	2.6267
11.419	2.6795
11.27	2.5206
11.125	2.3726
10.983	2.3321
10.846	2.4406
10.711	2.4032
10.58	2.3243
10.452	2.2115
10.327	2.0254
10.205	1.8653
10.086	1.8616
9.9695	1.8377
9.8558	1.8233
9.7447	1.8798
9.636	1.8325
9.5297	1.8446
9.4257	1.8381
9.324	1.7747
9.2245	1.7651
9.127	1.7636
9.0316	1.706
8.9382	1.5351
8.8467	1.3622
8.757	1.273
8.6692	1.2193
8.583	1.1468
8.4986	1.1221
8.4158	1.0451
8.3347	0.9831
8.255	0.9376
8.1769	0.9961
8.1002	1.127
8.025	1.3538
7.9512	1.6795
7.8786	2.0693
7.8075	2.4773
7.7375	2.9158
7.6689	3.3985
7.6014	3.8446
7.5351	4.315
7.47	4.7947
7.4059	5.2476
7.343	5.7173
7.2811	6.1526
7.2203	6.5948
7.1604	6.9921
7.1016	7.364
7.0437	7.7509
6.9867	8.0523
6.9307	8.3889
6.8755	8.6622
6.8213	8.8847
6.7678	9.0912
6.7152	9.2726
6.6634	9.3283
6.6124	9.4416
6.5622	9.5749
6.5128	9.778
6.464	9.892
6.416	10.089
6.3687	9.9852
6.3221	9.8874
6.2762	9.937
6.231	9.9631
6.1863	10.107
6.1424	10.249
6.099	10.449
6.0563	10.689
6.0141	10.842
5.9725	11.184
5.9315	11.654
5.8911	12.153
5.8512	12.485
5.8118	12.828
5.773	13.184
5.7347	13.419
5.6969	13.568
5.6596	13.705
5.6227	13.909
5.5864	14.189
5.5505	14.431
5.5151	14.553
5.4801	14.639
5.4455	14.686
5.4114	14.824
5.3778	14.981
5.3445	15.119
5.3116	15.215
5.2792	15.37
5.2471	15.574
5.2154	15.842
5.1842	16.1
5.1532	16.479
5.1227	16.893
5.0925	17.316
5.0627	17.698
5.0332	18.067
5.004	18.469
4.9752	18.886
4.9467	19.349
4.9186	19.817
4.8907	20.241
4.8632	20.62
4.836	21.048
4.809	21.463
4.7824	21.837
4.7561	22.211
4.7301	22.58
4.7043	22.978
4.6788	23.379
4.6536	23.792
4.6287	24.229
4.604	24.639
4.5796	24.975
4.5555	25.275
4.5316	25.555
4.508	25.762
4.4846	25.938
4.4614	26.093
4.4385	26.237
4.4158	26.341
4.3934	26.47
4.3711	26.609
4.3491	26.797
4.3273	26.933
4.3058	27.111
4.2844	27.304
4.2633	27.379
4.2424	27.555
4.2216	27.627
4.2011	27.641
4.1808	27.684
4.1606	27.744
4.1407	27.806
4.1209	27.852
4.1014	27.912
4.082	27.965
4.0628	28.009
4.0438	28.082
4.025	28.116
4.0063	28.167
3.9878	28.224
3.9695	28.26
3.9513	28.319
3.9333	28.317
3.9155	28.325
3.8979	28.353
3.8804	28.398
3.863	28.416
3.8458	28.428
3.8288	28.459
3.8119	28.484
3.7951	28.469
3.7785	28.471
3.7621	28.504
3.7458	28.487
3.7296	28.507
3.7136	28.496
3.6977	28.488
3.6819	28.475
3.6663	28.473
3.6508	28.484
3.6355	28.509
3.6202	28.477
3.6051	28.473
3.5901	28.477
3.5753	28.477
3.5605	28.464
3.5459	28.449
3.5314	28.447
3.5171	28.467
3.5028	28.495
3.4887	28.438
3.4746	28.439
3.4607	28.405
3.4469	28.415
3.4332	28.451
3.4196	28.44
3.4061	28.408
3.3928	28.358
3.3795	28.314
3.3663	28.266
3.3533	28.181
3.3403	28.172
3.3274	28.119
3.3147	28.111
3.302	28.082
3.2894	28.055
3.277	27.999
3.2646	27.964
3.2523	27.918
3.2401	27.879
3.228	27.825
3.216	27.773
3.204	27.727
3.1922	27.65
3.1805	27.643
3.1688	27.605
3.1572	27.573
3.1457	27.533
3.1343	27.484
3.123	27.459
3.1117	27.399
3.1006	27.377
3.0895	27.304
3.0785	27.276
3.0675	27.237
3.0567	27.208
3.0459	27.202
3.0352	27.175
3.0246	27.137
3.014	27.059
3.0036	27.025
2.9932	26.941
2.9828	26.908
2.9726	26.87
2.9624	26.849
2.9523	26.806
2.9422	26.751
2.9322	26.688
2.9223	26.701
2.9124	26.672
2.9027	26.664
2.8929	26.636
2.8833	26.647
2.8737	26.633
2.8642	26.619
2.8547	26.643
2.8453	26.638
2.836	26.645
2.8267	26.66
2.8175	26.758
2.8083	26.789
2.7992	26.893
2.7902	26.974
2.7812	27.105
2.7723	27.316
2.7634	27.57
2.7546	27.809
2.7458	27.927
2.7371	28.179
2.7285	28.361
2.7199	28.691
2.7114	28.829
2.7029	28.867
2.6945	28.958
2.6861	28.943
2.6778	28.98
2.6695	29.195
2.6613	29.062
2.6531	29.065
2.645	29.04
2.6369	28.988
2.6289	29.054
2.6209	29.042
2.613	28.917
2.6051	28.965
2.5973	28.865
2.5895	28.813
2.5817	28.73
2.5741	28.692
2.5664	28.631
2.5588	28.505
2.5513	28.525
2.5437	28.43
2.5363	28.396
2.5289	28.294
2.5215	28.263
2.5141	28.21
2.5068	28.116
2.4996	28.069
2.4924	27.987
2.4852	27.923
2.4781	27.872
2.471	27.802
2.464	27.789
2.4569	27.69
2.45	27.656
2.4431	27.63
2.4362	27.518
2.4293	27.467
2.4225	27.438
2.4157	27.384
2.409	27.279
2.4023	27.23
2.3956	27.194
2.389	27.078
2.3824	27.034
2.3759	26.986
2.3694	26.894
2.3629	26.82
2.3564	26.793
2.35	26.716
2.3436	26.659
2.3373	26.551
2.331	26.493
2.3247	26.442
2.3185	26.396
2.3123	26.372
2.3061	26.294
2.3	26.179
2.2939	26.151
2.2878	26.121
2.2818	26.03
2.2757	25.94
2.2698	25.91
2.2638	25.844
2.2579	25.792
2.252	25.72
2.2462	25.644
2.2403	25.564
2.2345	25.541
2.2288	25.42
2.2231	25.456
2.2173	25.351
2.2117	25.292
2.206	25.271
2.2004	25.167
2.1948	25.097
2.1893	25.045
2.1837	25.025
2.1782	24.935
2.1727	24.887
2.1673	24.853
2.1619	24.781
2.1565	24.715
2.1511	24.644
2.1458	24.654
2.1404	24.607
2.1352	24.499
2.1299	24.514
2.1247	24.382
2.1194	24.411
2.1143	24.298
2.1091	24.3
2.104	24.249
2.0988	24.207
2.0938	24.166
2.0887	24.079
2.0837	24.03
