Name: Brown to dark brown silt loam
Type: soil
Class: Entisol
Subclass: Ustifluvent
Particle Size: none
Sample No.: 82P2230
Owner: JHU
Wavelength Range: All
Origin: Near Bait Radam, Yemen via USDA Soil Conservation service.
Description: Parent material: alluvium.  Brown to dark brown silt loam (fine-loamy, mixed-calcareous, isothermic typic ustifluvent). Original ASTER Spectral Library name was jhu.becknic.soil.entisol.ustifluvent.coarse.82P2230.spectrum.txt
Measurement: Directional (10 degree) hemispherical reflectance
X Units: Wavelength (micrometers)
Y Units: Reflectance (percent)
wavelength	value
14.983	1.6128
14.645	1.6907
14.321	1.4167
14.011	1.6348
13.715	1.6103
13.43	1.6553
13.158	1.708
12.896	1.7436
12.644	1.7834
12.402	1.6199
12.169	1.7241
11.945	2.071
11.729	2.1645
11.52	2.2832
11.319	2.3999
11.125	2.5342
10.937	2.5283
10.755	2.581
10.58	2.7234
10.41	3.1577
10.245	3.6221
10.086	4.4744
9.9313	5.2881
9.7814	5.9431
9.636	7.021
9.4948	7.53
9.3577	6.787
9.2245	5.6526
9.095	4.9267
8.9691	4.6272
8.8467	4.8374
8.7275	4.5239
8.6116	3.9187
8.4986	4.2851
8.3886	4.3159
8.2814	4.6067
8.1769	4.5322
8.075	3.5356
7.9756	2.7559
7.8786	2.3013
7.784	2.2239
7.6916	2.2007
7.6014	2.1811
7.5133	2.2561
7.4272	2.2422
7.343	2.2498
7.2607	2.3376
7.1803	2.4001
7.1016	2.4795
7.0246	2.501
6.9493	2.6262
6.8755	2.7517
6.8034	2.876
6.7327	2.998
6.6634	2.9976
6.5956	2.938
6.5292	2.9602
6.464	3.0176
6.4002	2.8313
6.3376	2.6099
6.2762	2.3052
6.216	1.8899
6.157	1.5811
6.099	1.4648
6.0421	1.4836
5.9863	1.689
5.9315	2.0522
5.8777	2.717
5.8249	3.4497
5.773	4.0332
5.722	4.5393
5.6719	4.7488
5.6227	4.5928
5.5744	4.5513
5.5268	4.8625
5.4801	5.2742
5.4341	5.4546
5.3889	5.1123
5.3445	4.8879
5.3008	5.164
5.2578	5.7178
5.2154	6.4968
5.1738	6.821
5.1328	6.973
5.0925	7.117
5.0528	7.167
5.0137	7.195
4.9752	7.658
4.9373	8.224
4.9	8.909
4.8632	9.567
4.827	9.898
4.7913	10.132
4.7561	10.337
4.7215	10.462
4.6873	10.51
4.6536	10.778
4.6205	11.115
4.5877	11.317
4.5555	11.574
4.5237	11.674
4.4923	11.713
4.4614	11.913
4.4309	12.238
4.4008	12.561
4.3711	12.984
4.3418	13.336
4.3129	13.598
4.2844	13.804
4.2563	14.154
4.2285	14.435
4.2011	14.884
4.174	15.165
4.1473	15.495
4.1209	15.764
4.0949	16.008
4.0692	16.252
4.0438	16.439
4.0187	16.467
3.994	16.418
3.9695	16.426
3.9453	16.599
3.9214	16.613
3.8979	16.532
3.8746	16.396
3.8515	16.209
3.8288	16.065
3.8063	15.797
3.7841	15.525
3.7621	15.165
3.7404	14.786
3.7189	14.391
3.6977	13.965
3.6767	13.575
3.656	13.149
3.6355	12.682
3.6152	12.245
3.5951	11.773
3.5753	11.334
3.5557	10.742
3.5363	10.263
3.5171	9.706
3.4981	9.119
3.4793	8.68
3.4607	8.308
3.4423	7.837
3.4241	7.289
3.4061	6.853
3.3883	6.5827
3.3707	6.2165
3.3533	5.8379
3.336	5.4526
3.3189	5.1858
3.302	4.8364
3.2853	4.4824
3.2687	4.2297
3.2523	3.8977
3.2361	3.6877
3.22	3.4434
3.2041	3.2082
3.1883	3.0129
3.1727	2.8852
3.1572	2.676
3.1419	2.4778
3.1268	2.3643
3.1117	2.2383
3.0969	2.1934
3.0821	2.0652
3.0675	2.0288
3.0531	1.9998
3.0388	1.9727
3.0246	1.9441
3.0105	1.8909
2.9966	1.8538
2.9828	1.7764
2.9692	1.7549
2.9556	1.7395
2.9422	1.7014
2.9289	1.7773
2.9157	1.6921
2.9027	1.7053
2.8897	1.7664
2.8769	1.8152
2.8642	1.7461
2.8516	1.7812
2.8391	1.7707
2.8267	1.7422
2.8144	1.7253
2.8022	1.7222
2.7902	1.6763
2.7782	1.6436
2.7664	1.5327
2.7546	1.5349
2.7429	1.6892
2.7314	2.0725
2.7199	2.5925
2.7085	2.9082
2.6973	3.9856
2.6861	8.368
2.675	11.039
2.664	12.541
2.6531	14.05
2.6423	14.855
2.6315	15.084
2.6209	15.456
2.6103	15.892
2.5999	15.934
2.5895	16.131
2.5792	16.451
2.569	16.61
2.5588	16.773
2.5487	17.028
2.5388	17.114
2.5289	17.263
2.519	17.457
2.5093	17.592
2.4996	17.718
2.49	18.013
2.4805	18.152
2.471	18.494
2.4616	18.596
2.4523	18.859
2.4431	19.019
2.4339	19.239
2.4248	19.561
2.4157	19.892
2.4068	20.066
2.3979	20.201
2.389	20.275
2.3802	20.472
2.3715	20.746
2.3629	20.941
2.3543	20.984
2.3458	21.215
2.3373	21.369
2.3289	21.56
2.3206	21.78
2.3123	21.838
2.3041	22.027
2.2959	22.107
2.2878	22.176
2.2798	22.324
2.2718	22.508
2.2638	22.593
2.2559	22.325
2.2481	22.289
2.2403	22.22
2.2326	22.361
2.225	22.245
2.2173	22.124
2.2098	21.673
2.2023	21.985
2.1948	22.253
2.1874	22.424
2.18	22.823
2.1727	22.931
2.1655	23.132
2.1583	23.175
2.1511	23.404
2.144	23.414
2.1369	23.503
2.1299	23.542
2.1229	23.485
2.116	23.286
2.1091	23.416
2.1023	23.245
2.0955	23.358
2.0887	23.451
2.082	23.195
2.06	23.099
2.028	22.333
1.996	21.184
1.964	19.771
1.932	18.318
1.9	17.05
1.868	21.207
1.836	22.156
1.804	22.663
1.772	22.258
1.74	22.208
1.708	22.273
1.676	22.391
1.644	22.173
1.612	21.508
1.58	21.81
1.548	21.464
1.516	20.984
1.484	20.916
1.452	20.221
1.42	19.669
1.388	20.037
1.356	20.942
1.324	20.926
1.292	20.615
1.26	20.576
1.228	20.639
1.196	20.198
1.164	20.05
1.132	20.102
1.1	19.18
1.068	19.19
1.036	18.678
1.004	18.059
0.972	17.819
0.94	17.466
0.908	16.917
0.876	16.707
0.844	16.132
0.812	15.886
0.795	15.7
0.787	15.242
0.779	15.378
0.771	15.082
0.763	15.202
0.755	14.901
0.747	14.682
0.739	14.621
0.731	14.382
0.723	13.941
0.715	14.011
0.707	13.547
0.699	13.987
0.691	12.624
0.683	12.418
0.675	12.237
0.667	11.804
0.659	11.339
0.651	11.208
0.643	10.799
0.635	10.521
0.627	10.158
0.619	9.871
0.611	9.839
0.603	9.253
0.595	8.817
0.587	8.646
0.579	7.612
0.571	6.996
0.563	6.4228
0.555	6.0592
0.547	5.2421
0.539	4.6231
0.531	3.7211
0.523	3.4986
0.515	2.8173
0.507	2.043
0.499	1.9323
0.491	1.4566
0.483	1.0118
0.475	0.5952
0.467	0.3596
0.459	0
0.451	0
0.443	0
0.435	0
0.427	0
0.419	0
0.411	0
0.403	0
