Name: 67941.72
Type: Soil
Class: Lunar
Subclass: Highland
Particle Size: Fine
Sample No.: 67941_72
Owner: JHU
Wavelength Range: TIR
Origin: Apollo 16 landing site via the NASA Lunar Sample Repository at JohnsonSpace Center, Houston, TX.
Description: This sample is one of a suite of relatively less aluminous soils at the Apollo 16 site, and has the least exposure age of the three soils of that suite (Is/FeO=29). Original ASTER Spectral Library name was jhu.becknic.soil.lunar.highlands.fine.67941.spectrum.txt
Measurement: Directional (10 degree) hemispherical reflectance
X Units: Wavelength (micrometers)
Y Units: Reflectance (percent)
wavelength	value
14.011	0.8824
13.788	1.0264
13.571	1.0737
13.361	1.243
13.158	1.2243
12.96	1.33
12.769	1.6676
12.583	2.2663
12.402	2.7386
12.227	2.9029
12.056	2.7783
11.89	2.6343
11.729	2.6166
11.572	2.6762
11.419	2.7771
11.27	2.762
11.125	2.7809
10.983	2.8067
10.846	2.9249
10.711	2.8787
10.58	2.7269
10.452	2.5285
10.327	2.2389
10.205	1.9876
10.086	1.8772
9.9695	1.7699
9.8558	1.716
9.7447	1.7223
9.636	1.6193
9.5297	1.485
9.4257	1.4008
9.324	1.3212
9.2245	1.324
9.127	1.4373
9.0316	1.4863
8.9382	1.447
8.8467	1.3735
8.757	1.4332
8.6692	1.4283
8.583	1.3285
8.4986	1.1651
8.4158	1.0247
8.3347	0.8108
8.255	0.6453
8.1769	0.66
8.1002	0.7334
8.025	0.9146
7.9512	1.1943
7.8786	1.5273
7.8075	1.9126
7.7375	2.3315
7.6689	2.8102
7.6014	3.2797
7.5351	3.7173
7.47	4.2092
7.4059	4.6894
7.343	5.1783
7.2811	5.6216
7.2203	6.0499
7.1604	6.4852
7.1016	6.8362
7.0437	7.2142
6.9867	7.5447
6.9307	7.8138
6.8755	8.0595
6.8213	8.2199
6.7678	8.4325
6.7152	8.5935
6.6634	8.6729
6.6124	8.8304
6.5622	9.0417
6.5128	9.2434
6.464	9.4063
6.416	9.614
6.3687	9.5695
6.3221	9.5387
6.2762	9.6391
6.231	9.7419
6.1863	9.7879
6.1424	9.8906
6.099	10.021
6.0563	10.102
6.0141	10.233
5.9725	10.733
5.9315	11.33
5.8911	11.979
5.8512	12.505
5.8118	13.111
5.773	13.668
5.7347	14.045
5.6969	14.287
5.6596	14.477
5.6227	14.793
5.5864	15.126
5.5505	15.331
5.5151	15.281
5.4801	15.271
5.4455	15.328
5.4114	15.627
5.3778	16.092
5.3445	16.489
5.3116	16.819
5.2792	17.204
5.2471	17.657
5.2154	18.121
5.1842	18.604
5.1532	19.108
5.1227	19.713
5.0925	20.25
5.0627	20.716
5.0332	21.23
5.004	21.794
4.9752	22.34
4.9467	22.921
4.9186	23.561
4.8907	24.187
4.8632	24.784
4.836	25.341
4.809	25.862
4.7824	26.293
4.7561	26.754
4.7301	27.249
4.7043	27.8
4.6788	28.309
4.6536	28.821
4.6287	29.46
4.604	30.127
4.5796	30.737
4.5555	31.239
4.5316	31.704
4.508	32.06
4.4846	32.327
4.4614	32.55
4.4385	32.694
4.4158	32.79
4.3934	32.941
4.3711	33.186
4.3491	33.471
4.3273	33.763
4.3058	34.16
4.2844	34.569
4.2633	34.798
4.2424	35.099
4.2216	35.229
4.2011	35.233
4.1808	35.316
4.1606	35.391
4.1407	35.476
4.1209	35.533
4.1014	35.577
4.082	35.653
4.0628	35.69
4.0438	35.742
4.025	35.788
4.0063	35.822
3.9878	35.893
3.9695	35.921
3.9513	35.964
3.9333	35.96
3.9155	35.965
3.8979	35.973
3.8804	35.996
3.863	36.004
3.8458	35.973
3.8288	35.982
3.8119	36.001
3.7951	35.94
3.7785	35.933
3.7621	35.916
3.7458	35.884
3.7296	35.841
3.7136	35.807
3.6977	35.759
3.6819	35.7
3.6663	35.656
3.6508	35.621
3.6355	35.605
3.6202	35.535
3.6051	35.478
3.5901	35.433
3.5753	35.373
3.5605	35.333
3.5459	35.268
3.5314	35.217
3.5171	35.19
3.5028	35.167
3.4887	35.083
3.4746	35.001
3.4607	34.928
3.4469	34.891
3.4332	34.866
3.4196	34.791
3.4061	34.705
3.3928	34.62
3.3795	34.51
3.3663	34.402
3.3533	34.281
3.3403	34.194
3.3274	34.085
3.3147	34.013
3.302	33.928
3.2894	33.846
3.277	33.771
3.2646	33.641
3.2523	33.56
3.2401	33.453
3.228	33.325
3.216	33.256
3.204	33.135
3.1922	33.023
3.1805	32.965
3.1688	32.859
3.1572	32.761
3.1457	32.666
3.1343	32.574
3.123	32.509
3.1117	32.421
3.1006	32.358
3.0895	32.287
3.0785	32.199
3.0675	32.162
3.0567	32.08
3.0459	32.032
3.0352	32.002
3.0246	31.922
3.014	31.831
3.0036	31.772
2.9932	31.644
2.9828	31.628
2.9726	31.594
2.9624	31.558
2.9523	31.493
2.9422	31.488
2.9322	31.402
2.9223	31.43
2.9124	31.408
2.9027	31.383
2.8929	31.375
2.8833	31.423
2.8737	31.444
2.8642	31.47
2.8547	31.476
2.8453	31.505
2.836	31.532
2.8267	31.568
2.8175	31.705
2.8083	31.777
2.7992	31.963
2.7902	32.103
2.7812	32.301
2.7723	32.559
2.7634	32.864
2.7546	33.143
2.7458	33.378
2.7371	33.679
2.7285	33.86
2.7199	34.11
2.7114	34.168
2.7029	34.219
2.6945	34.203
2.6861	34.189
2.6778	34.266
2.6695	34.525
2.6613	34.526
2.6531	34.538
2.645	34.478
2.6369	34.456
2.6289	34.502
2.6209	34.453
2.613	34.374
2.6051	34.373
2.5973	34.396
2.5895	34.288
2.5817	34.202
2.5741	34.143
2.5664	34.086
2.5588	34.009
2.5513	33.999
2.5437	33.9
2.5363	33.84
2.5289	33.807
2.5215	33.717
2.5141	33.715
2.5068	33.613
2.4996	33.586
2.4924	33.525
2.4852	33.468
2.4781	33.412
2.471	33.375
2.464	33.328
2.4569	33.29
2.45	33.244
2.4431	33.184
2.4362	33.114
2.4293	33.076
2.4225	33.041
2.4157	33
2.409	32.919
2.4023	32.892
2.3956	32.844
2.389	32.814
2.3824	32.768
2.3759	32.689
2.3694	32.65
2.3629	32.549
2.3564	32.531
2.35	32.509
2.3436	32.437
2.3373	32.388
2.331	32.345
2.3247	32.312
2.3185	32.283
2.3123	32.229
2.3061	32.158
2.3	32.079
2.2939	32.093
2.2878	32.011
2.2818	31.977
2.2757	31.908
2.2698	31.898
2.2638	31.887
2.2579	31.804
2.252	31.746
2.2462	31.727
2.2403	31.658
2.2345	31.66
2.2288	31.54
2.2231	31.547
2.2173	31.502
2.2117	31.491
2.206	31.481
2.2004	31.391
2.1948	31.305
2.1893	31.271
2.1837	31.235
2.1782	31.201
2.1727	31.182
2.1673	31.104
2.1619	31.077
2.1565	31.019
2.1511	30.952
2.1458	30.945
2.1404	30.882
2.1352	30.832
2.1299	30.871
2.1247	30.774
2.1194	30.769
2.1143	30.651
2.1091	30.685
2.104	30.59
2.0988	30.591
2.0938	30.556
2.0887	30.47
2.0837	30.494
