Name: 64801.34
Type: Soil
Class: Lunar
Subclass: Highland
Particle Size: Fine
Sample No.: 64801_34
Owner: JHU
Wavelength Range: TIR
Origin: Apollo 16 landing site via the NASA Lunar Sample Repository at JohnsonSpace Center, Houston, TX.
Description: This sample is one of a suite of relatively more aluminous soils at the Apollo 16 site, and has the oldest exposure age of the four soils of that suite (Is/FeO=78). Original ASTER Spectral Library name was jhu.becknic.soil.lunar.highlands.fine.64801.spectrum.txt
Measurement: Directional (10 degree) hemispherical reflectance
X Units: Wavelength (micrometers)
Y Units: Reflectance (percent)
wavelength	value
14.011	0.6361
13.788	0.6989
13.571	0.8464
13.361	0.9891
13.158	1.0133
12.96	1.1238
12.769	1.3401
12.583	1.7234
12.402	2.0765
12.227	2.2069
12.056	2.1389
11.89	2.0478
11.729	2.0169
11.572	2.0175
11.419	2.0222
11.27	1.977
11.125	1.9727
10.983	1.9571
10.846	1.9881
10.711	1.9225
10.58	1.8343
10.452	1.7278
10.327	1.5682
10.205	1.4069
10.086	1.3382
9.9695	1.2767
9.8558	1.2391
9.7447	1.229
9.636	1.1566
9.5297	1.0893
9.4257	1.0231
9.324	0.9897
9.2245	0.9987
9.127	1.0281
9.0316	1.0425
8.9382	0.9704
8.8467	0.9399
8.757	0.9312
8.6692	0.8832
8.583	0.7875
8.4986	0.696
8.4158	0.5835
8.3347	0.4471
8.255	0.3504
8.1769	0.4002
8.1002	0.4785
8.025	0.7363
7.9512	1.0891
7.8786	1.5674
7.8075	2.0975
7.7375	2.6813
7.6689	3.3597
7.6014	3.9866
7.5351	4.614
7.47	5.2488
7.4059	5.8701
7.343	6.4737
7.2811	7.0322
7.2203	7.5633
7.1604	8.0835
7.1016	8.5183
7.0437	8.9441
6.9867	9.3646
6.9307	9.7107
6.8755	9.9689
6.8213	10.173
6.7678	10.542
6.7152	10.754
6.6634	10.925
6.6124	11.11
6.5622	11.332
6.5128	11.59
6.464	11.794
6.416	11.882
6.3687	12.032
6.3221	12.108
6.2762	12.247
6.231	12.361
6.1863	12.452
6.1424	12.669
6.099	12.853
6.0563	12.964
6.0141	13.276
5.9725	13.788
5.9315	14.322
5.8911	14.926
5.8512	15.583
5.8118	16.178
5.773	16.698
5.7347	17.176
5.6969	17.463
5.6596	17.724
5.6227	18.074
5.5864	18.358
5.5505	18.531
5.5151	18.584
5.4801	18.604
5.4455	18.739
5.4114	19.042
5.3778	19.468
5.3445	19.865
5.3116	20.214
5.2792	20.592
5.2471	21.025
5.2154	21.437
5.1842	21.911
5.1532	22.408
5.1227	22.981
5.0925	23.515
5.0627	23.98
5.0332	24.48
5.004	25.023
4.9752	25.522
4.9467	26.011
4.9186	26.544
4.8907	26.987
4.8632	27.441
4.836	27.874
4.809	28.293
4.7824	28.63
4.7561	28.991
4.7301	29.38
4.7043	29.79
4.6788	30.162
4.6536	30.497
4.6287	30.926
4.604	31.363
4.5796	31.706
4.5555	32.007
4.5316	32.286
4.508	32.509
4.4846	32.676
4.4614	32.821
4.4385	32.915
4.4158	32.982
4.3934	33.091
4.3711	33.215
4.3491	33.386
4.3273	33.517
4.3058	33.663
4.2844	33.824
4.2633	33.942
4.2424	34.038
4.2216	34.114
4.2011	34.165
4.1808	34.206
4.1606	34.232
4.1407	34.253
4.1209	34.272
4.1014	34.28
4.082	34.298
4.0628	34.317
4.0438	34.317
4.025	34.354
4.0063	34.36
3.9878	34.366
3.9695	34.36
3.9513	34.358
3.9333	34.323
3.9155	34.278
3.8979	34.245
3.8804	34.223
3.863	34.197
3.8458	34.137
3.8288	34.079
3.8119	34.053
3.7951	33.974
3.7785	33.921
3.7621	33.846
3.7458	33.753
3.7296	33.682
3.7136	33.617
3.6977	33.54
3.6819	33.405
3.6663	33.338
3.6508	33.264
3.6355	33.196
3.6202	33.123
3.6051	32.992
3.5901	32.921
3.5753	32.801
3.5605	32.725
3.5459	32.58
3.5314	32.445
3.5171	32.136
3.5028	31.411
3.4887	31.568
3.4746	31.558
3.4607	31.557
3.4469	31.261
3.4332	30.791
3.4196	29.969
3.4061	30.207
3.3928	30.829
3.3795	30.5
3.3663	30.657
3.3533	31.057
3.3403	31.106
3.3274	31.023
3.3147	30.946
3.302	30.858
3.2894	30.76
3.277	30.666
3.2646	30.533
3.2523	30.427
3.2401	30.324
3.228	30.206
3.216	30.11
3.204	29.984
3.1922	29.823
3.1805	29.79
3.1688	29.65
3.1572	29.526
3.1457	29.449
3.1343	29.342
3.123	29.238
3.1117	29.163
3.1006	29.054
3.0895	28.94
3.0785	28.866
3.0675	28.763
3.0567	28.69
3.0459	28.651
3.0352	28.612
3.0246	28.507
3.014	28.417
3.0036	28.334
2.9932	28.255
2.9828	28.201
2.9726	28.181
2.9624	28.087
2.9523	28.034
2.9422	28.005
2.9322	27.99
2.9223	27.943
2.9124	27.894
2.9027	27.898
2.8929	27.87
2.8833	27.913
2.8737	27.897
2.8642	27.918
2.8547	27.878
2.8453	27.873
2.836	27.917
2.8267	27.942
2.8175	28.014
2.8083	28.084
2.7992	28.264
2.7902	28.459
2.7812	28.653
2.7723	28.833
2.7634	29.172
2.7546	29.43
2.7458	29.873
2.7371	30.118
2.7285	30.372
2.7199	30.489
2.7114	30.633
2.7029	30.902
2.6945	30.9
2.6861	30.993
2.6778	30.927
2.6695	30.854
2.6613	31.005
2.6531	30.967
2.645	30.978
2.6369	30.947
2.6289	30.821
2.6209	30.764
2.613	30.826
2.6051	30.579
2.5973	30.689
2.5895	30.679
2.5817	30.574
2.5741	30.522
2.5664	30.529
2.5588	30.464
2.5513	30.429
2.5437	30.373
2.5363	30.302
2.5289	30.286
2.5215	30.223
2.5141	30.196
2.5068	30.127
2.4996	30.1
2.4924	30.017
2.4852	29.995
2.4781	29.915
2.471	29.891
2.464	29.84
2.4569	29.796
2.45	29.778
2.4431	29.676
2.4362	29.621
2.4293	29.584
2.4225	29.574
2.4157	29.491
2.409	29.448
2.4023	29.38
2.3956	29.386
2.389	29.283
2.3824	29.28
2.3759	29.199
2.3694	29.162
2.3629	29.073
2.3564	29.055
2.35	29.028
2.3436	28.969
2.3373	28.875
2.331	28.85
2.3247	28.746
2.3185	28.787
2.3123	28.731
2.3061	28.637
2.3	28.603
2.2939	28.58
2.2878	28.488
2.2818	28.422
2.2757	28.407
2.2698	28.396
2.2638	28.342
2.2579	28.273
2.252	28.207
2.2462	28.178
2.2403	28.118
2.2345	28.073
2.2288	28.002
2.2231	28.036
2.2173	27.908
2.2117	27.905
2.206	27.857
2.2004	27.824
2.1948	27.77
2.1893	27.714
2.1837	27.702
2.1782	27.61
2.1727	27.614
2.1673	27.569
2.1619	27.575
2.1565	27.482
2.1511	27.441
2.1458	27.399
2.1404	27.327
2.1352	27.323
2.1299	27.29
2.1247	27.241
2.1194	27.184
2.1143	27.087
2.1091	27.111
2.104	27.092
2.0988	27.024
2.0938	27.011
2.0887	26.897
2.0837	26.946
