Name: Red-orange sandy soil
Type: soil
Class: Aridisol
Subclass: None
Particle Size: Unsorted
Sample No.: fgg018
Owner: University of NSW
Wavelength Range: TIR
Origin: Fowlers Gap, western New South Wales, AustraliaHewson(1998) PhD thesis
Description: Parent material consists of chiefly aeolian silts/clays. Physiography: Resistant quartzite ridges/hilltops. Original ASTER Spectral Library name was jpl.nicolet.soil.aridisol.none.unsorted.fgg018.spectrum.txt
Measurement: Directional hemispherical reflectance
X Units: Wavelength (micrometers)
Y Units: Reflectance (percent)
wavelength	value
14.0131	1.1374
13.7895	1.4406
13.5729	1.5539
13.363	1.5403
13.1595	1.6726
12.9621	1.7777
12.7705	1.9764
12.5845	1.8429
12.4039	1.3889
12.2284	1.5884
12.0578	1.8246
11.8918	2.0258
11.7304	2.3196
11.5733	2.3049
11.4203	2.4319
11.2714	2.2401
11.1263	2.4642
10.9848	2.4612
10.8469	2.2363
10.7125	2.1139
10.5813	2.3989
10.4533	2.6688
10.3284	3.2275
10.2064	3.3221
10.0872	3.8634
9.9708	4.6253
9.8571	5.0788
9.7459	5.7348
9.6372	6.7395
9.5309	7.3234
9.427	7.4831
9.3252	7.759
9.2257	6.8708
9.1282	5.8946
9.0328	5.3617
8.9394	5.4566
8.8478	6.2104
8.7582	6.0378
8.6703	5.4769
8.5842	5.5938
8.4997	6.2095
8.4169	6.73
8.3357	7.4899
8.2561	8.2642
8.178	8.495
8.1013	6.4787
8.0261	4.6996
7.9522	3.5603
7.8797	2.6724
7.8085	2.3281
7.7386	2.2219
7.6699	2.0993
7.6024	1.9721
7.5361	1.9668
7.4709	2.0288
7.4069	2.1088
7.344	2.1486
7.2821	2.086
7.2212	2.236
7.1614	2.1927
7.1025	2.4895
7.0446	2.2995
6.9877	2.481
6.9316	2.7189
6.8764	3.0058
6.8222	2.9805
6.7687	3.1544
6.7161	3.1853
6.6643	3.3083
6.6133	3.175
6.5631	2.8548
6.5136	3.0819
6.4649	3.431
6.4169	3.6164
6.3696	3.2999
6.323	2.7888
6.277	2.384
6.2318	1.9819
6.1872	1.7192
6.1432	1.5527
6.0998	1.7133
6.0571	1.5584
6.0149	1.6912
5.9733	1.8495
5.9323	2.2032
5.8919	2.8878
5.852	3.8575
5.8126	4.8819
5.7738	5.7631
5.7354	6.5245
5.6976	7.0894
5.6603	6.7791
5.6235	5.8453
5.5871	5.6287
5.5512	5.8156
5.5158	6.3806
5.4808	7.0686
5.4463	7.5244
5.4121	6.7305
5.3785	5.3479
5.3452	4.9341
5.3123	5.2209
5.2799	5.6855
5.2478	6.8564
5.2161	8.394
5.1848	9.0118
5.1539	8.9832
5.1234	8.9639
5.0932	8.7948
5.0633	8.5515
5.0338	8.5578
5.0047	8.7369
4.9759	9.5375
4.9474	11.0619
4.9192	11.9154
4.8914	14.4789
4.8638	16.3938
4.8366	17.2463
4.8097	17.8602
4.7831	18.3297
4.7567	18.6065
4.7307	18.941
4.7049	18.7552
4.6795	18.4461
4.6543	19.202
4.6293	19.905
4.6047	20.3581
4.5802	20.6187
4.5561	20.9075
4.5322	20.8366
4.5086	20.1597
4.4852	19.8171
4.462	19.836
4.4391	20.526
4.4164	21.0339
4.3939	21.7915
4.3717	22.5834
4.3497	23.2054
4.3279	23.4991
4.3063	23.8731
4.285	23.9954
4.2638	24.1152
4.2429	24.6866
4.2222	25.0445
4.2017	25.2877
4.1813	25.6998
4.1612	26.0721
4.1412	26.4172
4.1215	26.6983
4.1019	26.9864
4.0826	27.3445
4.0634	27.5934
4.0443	27.7792
4.0255	27.913
4.0068	28.0283
3.9883	28.0371
3.97	28.1876
3.9519	28.255
3.9339	28.2174
3.916	28.2208
3.8984	27.9638
3.8809	27.8871
3.8635	27.4659
3.8463	27.3455
3.8293	27.0237
3.8124	26.5683
3.7956	26.3148
3.779	25.813
3.7626	25.3896
3.7463	24.7936
3.7301	24.3223
3.7141	23.709
3.6982	23.3762
3.6824	22.7859
3.6668	22.416
3.6513	21.9038
3.6359	21.3169
3.6207	20.767
3.6056	20.0158
3.5906	19.4646
3.5758	18.8342
3.561	18.1118
3.5464	17.5362
3.5319	16.6469
3.5175	15.5813
3.5033	14.4383
3.4891	14.48
3.4751	13.6812
3.4612	13.2711
3.4474	12.5154
3.4337	11.632
3.4201	10.7927
3.4066	10.5775
3.3932	10.4288
3.3799	10.1266
3.3668	9.6844
3.3537	9.5981
3.3407	9.1457
3.3279	8.6776
3.3151	8.3064
3.3024	7.8315
3.2899	7.3862
3.2774	6.8884
3.265	6.4255
3.2527	6.1082
3.2405	5.6384
3.2284	5.4414
3.2164	4.9959
3.2045	4.8108
3.1926	4.4654
3.1809	4.1861
3.1692	3.8695
3.1576	3.725
3.1461	3.4707
3.1347	3.4146
3.1234	2.9792
3.1121	2.9176
3.101	2.8179
3.0899	2.7182
3.0789	2.5903
3.068	2.408
3.0571	2.4345
3.0463	2.5645
3.0356	2.4504
3.025	2.3073
3.0144	2.3508
3.004	2.311
2.9936	2.1853
2.9832	2.1013
2.973	2.2315
2.9628	2.0383
2.9526	2.0679
2.9426	1.9905
2.9326	1.9079
2.9227	2.0064
2.9128	2.0155
2.903	2.3089
2.8933	2.1097
2.8837	2.1931
2.8741	2.105
2.8646	2.1323
2.8551	2.3132
2.8457	2.2327
2.8363	2.2924
2.8271	2.273
2.8178	2.3151
2.8087	2.3414
2.7996	2.3464
2.7906	1.7869
2.7816	2.0702
2.7726	1.6327
2.7638	1.6014
2.755	1.48
2.7462	1.7929
2.7375	1.9054
2.7289	2.4737
2.7203	3.4344
2.7117	3.6225
2.7033	2.6304
2.6948	7.253
2.6864	14.5733
2.6781	19.7346
2.6698	23.3924
2.6616	25.5402
2.6535	27.0473
2.6453	28.4394
2.6373	29.3315
2.6292	30.414
2.6213	31.1466
2.6133	31.63
2.6054	32.1691
2.5976	32.3646
2.5898	32.5745
2.5821	32.7965
2.5744	33.1228
2.5668	33.2075
2.5592	33.5994
2.5516	33.6729
2.5441	33.7361
2.5366	33.7181
2.5292	33.9095
2.5218	34.1044
2.5145	34.3331
2.5072	34.3993
2.4999	34.7767
2.4927	34.9356
2.4855	35.3604
2.4784	35.7118
2.4713	35.9871
2.4643	36.4016
2.4573	36.8102
2.4503	37.1633
2.4434	37.5186
2.4365	38.2298
2.4296	38.7243
2.4228	39.3731
2.4161	40.0396
2.4093	40.422
2.4026	40.5936
2.396	40.8701
2.3893	40.9592
2.3827	40.8616
2.3762	41.2706
2.3697	41.7211
2.3632	42.0857
2.3567	42.1033
2.3503	42.4261
2.344	43.0492
2.3376	43.4351
2.3313	44.013
2.325	44.5851
2.3188	45.2133
2.3126	45.2252
2.3064	45.719
2.3003	46.1416
2.2942	46.2547
2.2881	46.5208
2.2821	46.8257
2.2761	46.9568
2.2701	47.1105
2.2641	46.9844
2.2582	46.8395
2.2523	46.575
2.2465	46.3844
2.2406	46.1072
2.2348	46.2978
2.2291	46.1961
2.2233	45.5652
2.2176	44.9069
2.212	43.3561
2.2063	43.1352
2.2007	44.7568
2.1951	45.715
2.1895	46.2741
2.184	47.0968
2.1785	47.5549
2.173	47.8285
2.1676	48.1485
2.1622	48.5211
2.1568	48.7771
2.1514	49.3125
2.146	49.8637
2.1407	50.3497
2.1354	50.6774
2.1302	50.696
2.1249	50.7591
2.1197	50.76
2.1145	50.7385
2.1094	50.4558
2.1042	50.8346
2.0991	50.5827
2.094	50.8565
2.089	50.5209
2.0839	50.7445
2.0789	50.4112
2.0739	50.4579
2.069	50.6104
2.064	50.3054
2.0591	49.9949
2.0542	49.6474
2.0493	50.03
2.0445	50.1728
2.0397	49.815
2.0349	49.4268
2.0301	49.415
2.0253	49.1118
2.0206	48.9973
2.0159	48.6216
2.0112	48.5031
2.0065	47.9104
2.0019	47.6409
