Name: 61221.79
Type: Soil
Class: Lunar
Subclass: Highland
Particle Size: Fine
Sample No.: 61221_79
Owner: JHU
Wavelength Range: TIR
Origin: Apollo 16 landing site via the NASA Lunar Sample Repository at JohnsonSpace Center, Houston, TX.
Description: This sample is one of a suite of relatively more aluminous and lower iron and titanium soils at the Apollo 16 site, and has the lowest exposure age of the four soils of that suite (Is/FeO=10). Original ASTER Spectral Library name was jhu.becknic.soil.lunar.highlands.fine.61221.spectrum.txt
Measurement: Directional (10 degree) hemispherical reflectance
X Units: Wavelength (micrometers)
Y Units: Reflectance (percent)
wavelength	value
14.011	1.0756
13.788	1.0614
13.571	1.0512
13.361	1.3295
13.158	1.2441
12.96	1.4065
12.769	1.8491
12.583	2.5824
12.402	3.1917
12.227	3.4077
12.056	3.3022
11.89	3.1482
11.729	3.1156
11.572	2.9981
11.419	2.8824
11.27	2.6637
11.125	2.582
10.983	2.5592
10.846	2.6128
10.711	2.5741
10.58	2.4752
10.452	2.3033
10.327	2.0424
10.205	1.832
10.086	1.6988
9.9695	1.6027
9.8558	1.5611
9.7447	1.6152
9.636	1.5182
9.5297	1.3882
9.4257	1.2506
9.324	1.2225
9.2245	1.246
9.127	1.3608
9.0316	1.4217
8.9382	1.3194
8.8467	1.2937
8.757	1.3385
8.6692	1.3693
8.583	1.3079
8.4986	1.1998
8.4158	1.0227
8.3347	0.7844
8.255	0.5944
8.1769	0.5782
8.1002	0.6442
8.025	0.8575
7.9512	1.1948
7.8786	1.5873
7.8075	2.031
7.7375	2.5489
7.6689	3.1373
7.6014	3.6985
7.5351	4.2329
7.47	4.7866
7.4059	5.3731
7.343	5.9297
7.2811	6.4645
7.2203	6.974
7.1604	7.4306
7.1016	7.8573
7.0437	8.1975
6.9867	8.6124
6.9307	8.9469
6.8755	9.1719
6.8213	9.4248
6.7678	9.6953
6.7152	9.8785
6.6634	9.9948
6.6124	10.174
6.5622	10.398
6.5128	10.683
6.464	10.91
6.416	10.988
6.3687	11.109
6.3221	11.149
6.2762	11.285
6.231	11.402
6.1863	11.415
6.1424	11.612
6.099	11.778
6.0563	11.808
6.0141	12.137
5.9725	12.703
5.9315	13.335
5.8911	14.059
5.8512	14.827
5.8118	15.524
5.773	16.133
5.7347	16.7
5.6969	17.049
5.6596	17.316
5.6227	17.738
5.5864	18.071
5.5505	18.277
5.5151	18.247
5.4801	18.199
5.4455	18.308
5.4114	18.647
5.3778	19.187
5.3445	19.655
5.3116	20.048
5.2792	20.531
5.2471	21.067
5.2154	21.552
5.1842	22.132
5.1532	22.741
5.1227	23.439
5.0925	24.049
5.0627	24.585
5.0332	25.203
5.004	25.918
4.9752	26.557
4.9467	27.19
4.9186	27.885
4.8907	28.531
4.8632	29.165
4.836	29.781
4.809	30.35
4.7824	30.857
4.7561	31.358
4.7301	31.981
4.7043	32.6
4.6788	33.204
4.6536	33.749
4.6287	34.466
4.604	35.243
4.5796	35.929
4.5555	36.501
4.5316	37.019
4.508	37.458
4.4846	37.845
4.4614	38.083
4.4385	38.292
4.4158	38.436
4.3934	38.605
4.3711	38.907
4.3491	39.266
4.3273	39.611
4.3058	40.027
4.2844	40.47
4.2633	40.815
4.2424	41.122
4.2216	41.313
4.2011	41.393
4.1808	41.537
4.1606	41.63
4.1407	41.76
4.1209	41.817
4.1014	41.9
4.082	41.978
4.0628	42.049
4.0438	42.107
4.025	42.189
4.0063	42.208
3.9878	42.279
3.9695	42.313
3.9513	42.387
3.9333	42.41
3.9155	42.428
3.8979	42.457
3.8804	42.475
3.863	42.491
3.8458	42.462
3.8288	42.493
3.8119	42.509
3.7951	42.473
3.7785	42.47
3.7621	42.437
3.7458	42.387
3.7296	42.371
3.7136	42.31
3.6977	42.267
3.6819	42.203
3.6663	42.161
3.6508	42.114
3.6355	42.066
3.6202	42.038
3.6051	41.964
3.5901	41.909
3.5753	41.836
3.5605	41.802
3.5459	41.722
3.5314	41.653
3.5171	41.63
3.5028	41.591
3.4887	41.463
3.4746	41.385
3.4607	41.271
3.4469	41.264
3.4332	41.201
3.4196	41.085
3.4061	40.977
3.3928	40.872
3.3795	40.718
3.3663	40.595
3.3533	40.408
3.3403	40.297
3.3274	40.2
3.3147	40.057
3.302	39.965
3.2894	39.848
3.277	39.733
3.2646	39.563
3.2523	39.451
3.2401	39.32
3.228	39.173
3.216	39.042
3.204	38.883
3.1922	38.703
3.1805	38.647
3.1688	38.488
3.1572	38.343
3.1457	38.243
3.1343	38.122
3.123	38.05
3.1117	37.885
3.1006	37.815
3.0895	37.712
3.0785	37.64
3.0675	37.546
3.0567	37.502
3.0459	37.403
3.0352	37.38
3.0246	37.253
3.014	37.156
3.0036	37.057
2.9932	36.95
2.9828	36.893
2.9726	36.855
2.9624	36.792
2.9523	36.732
2.9422	36.721
2.9322	36.726
2.9223	36.679
2.9124	36.696
2.9027	36.706
2.8929	36.715
2.8833	36.79
2.8737	36.828
2.8642	36.918
2.8547	36.976
2.8453	37.086
2.836	37.173
2.8267	37.232
2.8175	37.442
2.8083	37.619
2.7992	37.851
2.7902	38.112
2.7812	38.385
2.7723	38.713
2.7634	39.143
2.7546	39.437
2.7458	40.077
2.7371	40.393
2.7285	40.82
2.7199	40.786
2.7114	40.99
2.7029	41.28
2.6945	41.177
2.6861	41.396
2.6778	41.354
2.6695	41.365
2.6613	41.813
2.6531	41.756
2.645	41.821
2.6369	41.855
2.6289	41.672
2.6209	41.581
2.613	41.715
2.6051	41.38
2.5973	41.611
2.5895	41.563
2.5817	41.479
2.5741	41.394
2.5664	41.484
2.5588	41.399
2.5513	41.345
2.5437	41.282
2.5363	41.252
2.5289	41.231
2.5215	41.139
2.5141	41.126
2.5068	41.095
2.4996	41.021
2.4924	40.961
2.4852	40.922
2.4781	40.842
2.471	40.82
2.464	40.767
2.4569	40.727
2.45	40.673
2.4431	40.641
2.4362	40.553
2.4293	40.51
2.4225	40.476
2.4157	40.417
2.409	40.366
2.4023	40.286
2.3956	40.293
2.389	40.216
2.3824	40.19
2.3759	40.124
2.3694	40.111
2.3629	40.013
2.3564	40.012
2.35	39.972
2.3436	39.887
2.3373	39.796
2.331	39.811
2.3247	39.673
2.3185	39.71
2.3123	39.671
2.3061	39.588
2.3	39.539
2.2939	39.523
2.2878	39.447
2.2818	39.355
2.2757	39.326
2.2698	39.309
2.2638	39.275
2.2579	39.206
2.252	39.134
2.2462	39.119
2.2403	39.061
2.2345	39.075
2.2288	38.952
2.2231	38.953
2.2173	38.842
2.2117	38.872
2.206	38.8
2.2004	38.766
2.1948	38.719
2.1893	38.677
2.1837	38.616
2.1782	38.592
2.1727	38.538
2.1673	38.506
2.1619	38.519
2.1565	38.4
2.1511	38.365
2.1458	38.339
2.1404	38.274
2.1352	38.243
2.1299	38.285
2.1247	38.163
2.1194	38.183
2.1143	38.077
2.1091	38.082
2.104	38.017
2.0988	37.989
2.0938	37.945
2.0887	37.921
2.0837	37.894
