Name: Medium Granular Snow
Type: Water
Class: Snow
Subclass: Medium Granular
Particle Size: Medium
Sample No.: MEDGRAN_SNW_
Owner: Dept. of Earth and Planetary Science, John Hopkins University
Wavelength Range: All
Origin: John Hopkins University IR Spectroscopy Lab.
Description: Medium granular snow.  The spectrum from 0.3 to 2.08 micrometers was modeled, while that from 2.08 to 14 micrometers was measured (see Introductory text for details).  Particle size was 82 micrometers effective size. Original filename MEDGRAN.SNW. Original ASTER Spectral Library name was jhu.becknic.water.snow.granular.82um.medium.spectrum.txt
Measurement: Directional (10 Degree) Hemispherical Reflectance
X Units: Wavelength (micrometers)
Y Units: Reflectance (percent)
wavelength	value
0.34	97.381
0.37	97.636
0.4	97.974
0.43	98.29
0.46	98.536
0.49	98.522
0.52	98.324
0.55	98.151
0.58	97.901
0.61	97.297
0.64	96.585
0.67	95.793
0.7	94.949
0.73	93.972
0.76	92.499
0.79	90.389
0.84	89.767
0.9	83.987
0.96	79.774
1.02	68.659
1.08	72.433
1.14	70.017
1.2	55.03
1.26	44.501
1.32	45.158
1.38	42.635
1.44	6.447
1.5	1.634
1.56	2.554
1.62	4.257
1.68	8.106
1.74	11.706
1.8	15.585
1.86	16.508
1.92	1.74
1.98	0.558
2.04	0.656
2.1	1.373
2.16	4.414
2.22	8.666
2.26	9.144
2.29	6.205
2.32	3.71
2.35	2.533
2.38	2.117
2.41	1.951
2.44	1.809
2.47	1.625
2.5	1.503
2.53	1.46
2.56	1.443
2.59	1.419
2.62	1.315
2.65	1.102
2.68	0.849
2.71	0.58
2.74	0.447
2.77	0.388
2.8	0.331
2.83	0.291
2.86	0.291
2.89	0.436
2.92	0.811
2.95	1.163
2.98	1.442
3.01	1.837
3.04	2.655
3.07	3.657
3.1	3.644
3.13	3.129
3.16	3
3.19	2.858
3.22	2.533
3.25	2.243
3.28	2.032
3.31	1.906
3.34	1.818
3.37	1.762
3.4	1.724
3.43	1.707
3.46	1.659
3.49	1.64
3.52	1.62
3.55	1.584
3.58	1.569
3.61	1.543
3.64	1.511
3.67	1.506
3.7	1.466
3.73	1.46
3.76	1.417
3.79	1.397
3.82	1.374
3.85	1.346
3.88	1.317
3.91	1.306
3.94	1.29
3.97	1.264
4	1.246
4.03	1.228
4.06	1.21
4.09	1.202
4.12	1.191
4.15	1.188
4.18	1.175
4.21	1.146
4.24	1.146
4.27	1.142
4.3	1.138
4.33	1.121
4.36	1.112
4.39	1.107
4.42	1.108
4.45	1.127
4.48	1.125
4.51	1.128
4.54	1.143
4.57	1.162
4.6	1.17
4.63	1.183
4.66	1.184
4.69	1.178
4.72	1.185
4.75	1.195
4.78	1.183
4.81	1.181
4.84	1.171
4.87	1.19
4.9	1.182
4.93	1.181
4.96	1.187
4.99	1.175
5.02	1.171
5.05	1.17
5.08	1.162
5.11	1.147
5.14	1.137
5.17	1.118
5.2	1.114
5.23	1.104
5.26	1.102
5.29	1.09
5.32	1.076
5.35	1.072
5.38	1.072
5.41	1.058
5.44	1.049
5.47	1.046
5.5	1.032
5.53	1.013
5.56	1.004
5.59	1.008
5.62	1.002
5.65	0.975
5.68	0.963
5.71	0.951
5.74	0.934
5.77	0.936
5.8	0.93
5.83	0.922
5.86	0.935
5.89	0.928
5.92	0.904
5.95	0.896
5.98	0.898
6.01	0.909
6.04	0.9
6.07	0.882
6.1	0.893
6.13	0.901
6.16	0.905
6.19	0.908
6.22	0.911
6.25	0.914
6.28	0.917
6.31	0.92
6.34	0.924
6.37	0.929
6.4	0.934
6.43	0.954
6.46	0.969
6.49	0.977
6.52	0.985
6.55	0.993
6.58	0.997
6.61	0.997
6.64	0.996
6.67	0.998
6.7	1.001
6.73	1
6.76	0.995
6.79	0.992
6.82	0.988
6.85	0.984
6.88	0.993
6.91	1.006
6.94	1.01
6.97	1.011
7	1.017
7.03	1.02
7.06	1.013
7.09	1.012
7.12	1.023
7.15	1.03
7.18	1.024
7.21	1.014
7.24	1.008
7.27	1.001
7.3	0.991
7.33	0.984
7.36	0.979
7.4	0.975
7.43	0.971
7.46	0.969
7.49	0.967
7.52	0.965
7.56	0.958
7.59	0.952
7.62	0.95
7.66	0.95
7.69	0.952
7.73	0.952
7.76	0.947
7.8	0.944
7.83	0.947
7.87	0.953
7.9	0.954
7.94	0.949
7.98	0.944
8.01	0.941
8.05	0.941
8.09	0.939
8.13	0.936
8.16	0.939
8.2	0.949
8.24	0.961
8.28	0.963
8.32	0.95
8.36	0.928
8.4	0.916
8.44	0.92
8.48	0.927
8.53	0.919
8.57	0.906
8.61	0.899
8.65	0.898
8.7	0.901
8.74	0.903
8.79	0.899
8.83	0.894
8.88	0.891
8.92	0.888
8.97	0.886
9.02	0.882
9.06	0.863
9.11	0.84
9.16	0.835
9.21	0.85
9.26	0.867
9.31	0.864
9.36	0.841
9.41	0.811
9.46	0.79
9.51	0.775
9.56	0.76
9.62	0.737
9.67	0.706
9.73	0.686
9.78	0.68
9.84	0.665
9.89	0.632
9.95	0.598
10.01	0.579
10.07	0.567
10.13	0.542
10.18	0.511
10.25	0.491
10.31	0.482
10.37	0.473
10.43	0.471
10.49	0.486
10.56	0.523
10.62	0.579
10.69	0.641
10.76	0.711
10.82	0.799
10.89	0.901
10.96	1.001
11.03	1.097
11.1	1.194
11.17	1.291
11.25	1.386
11.32	1.473
11.39	1.544
11.47	1.606
11.55	1.668
11.62	1.735
11.7	1.804
11.78	1.87
11.86	1.929
11.95	1.981
12.03	2.031
12.11	2.085
12.2	2.139
12.28	2.187
12.37	2.233
12.46	2.274
12.55	2.304
12.64	2.322
12.74	2.334
12.83	2.354
12.93	2.38
13.03	2.389
13.12	2.375
13.22	2.356
13.33	2.342
13.43	2.334
13.54	2.329
13.64	2.318
13.75	2.309
13.86	2.308
13.97	2.281
