Name: Distilled Water
Type: Water
Class: Distilled Water
Subclass: none
Particle Size: Liquid
Sample No.: distwatr
Owner: Dept. of Earth and Planetary Science, John Hopkins University
Wavelength Range: TIR
Origin: JHU IR Spectroscopy Lab. Original filename DISTWATER
Description: Distilled water obtained using distill apparatus in the JHU IR Spectroscopy Lab. Original ASTER Spectral Library name was jhu.becknic.water.distilled.none.liquid.distwatr.spectrum.txt
Measurement: Directional (10 Degree) Hemispherical Reflectance
X Units: Wavelength (micrometers)
Y Units: Reflectance (percent)
wavelength	value
14.0112	3.8716
13.7876	3.6185
13.5711	3.3529
13.3612	3.1136
13.1577	2.8555
12.9604	2.6
12.7688	2.3643
12.5829	2.1119
12.4023	1.8786
12.2268	1.6664
12.0562	1.4929
11.8903	1.3274
11.7289	1.1934
11.5718	1.0735
11.4188	0.9871
11.2699	0.928
11.1248	0.9008
10.9834	0.8857
10.8455	0.8893
10.7111	0.9147
10.5799	0.941
10.4519	0.9869
10.327	1.0323
10.205	1.084
10.0859	1.1274
9.9695	1.1714
9.8558	1.2242
9.7447	1.262
9.636	1.2965
9.5297	1.3386
9.4257	1.3912
9.324	1.4138
9.2245	1.453
9.127	1.4743
9.0316	1.5264
8.9382	1.5518
8.8467	1.5666
8.757	1.5997
8.6692	1.6159
8.583	1.6346
8.4986	1.6434
8.4158	1.6803
8.3347	1.6877
8.255	1.7092
8.1769	1.7173
8.1002	1.7365
8.025	1.7389
7.9512	1.7405
7.8786	1.7465
7.8075	1.7633
7.7375	1.7776
7.6689	1.7848
7.6014	1.7647
7.5351	1.8253
7.47	1.7355
7.4059	1.8362
7.343	1.7523
7.2811	1.7794
7.2203	1.8382
7.1604	1.7169
7.1016	1.9006
7.0437	1.6767
6.9867	1.8195
6.9307	1.9171
6.8755	1.5877
6.8213	1.8963
6.7678	1.7791
6.7152	1.7581
6.6634	1.749
6.6124	1.6559
6.5622	1.5281
6.5128	1.6458
6.464	1.8449
6.416	1.3855
6.3687	1.9604
6.3221	2.2164
6.2762	2.3471
6.231	2.3804
6.1863	2.1672
6.1424	2.2327
6.099	1.9105
6.0563	1.2747
6.0141	1.6606
5.9725	1.2955
5.9315	1.1247
5.8911	1.0008
5.8512	1.3623
5.8118	1.2738
5.773	1.246
5.7347	1.4111
5.6969	1.4872
5.6596	1.5051
5.6227	1.6224
5.5864	1.5894
5.5505	1.704
5.5151	1.7764
5.4801	1.7255
5.4455	1.8729
5.4114	1.7758
5.3778	1.9375
5.3445	1.8171
5.3116	1.9586
5.2792	1.9332
5.2471	1.9734
5.2154	1.9248
5.1842	2.0234
5.1532	1.9831
5.1227	2.054
5.0925	2.048
5.0627	2.0884
5.0332	2.072
5.004	2.0915
4.9752	2.1092
4.9467	2.1014
4.9186	2.1169
4.8907	2.116
4.8632	2.1222
4.836	2.1217
4.809	2.1258
4.7824	2.1296
4.7561	2.1287
4.7301	2.1287
4.7043	2.1351
4.6788	2.1282
4.6536	2.1308
4.6287	2.1339
4.604	2.1356
4.5796	2.1356
4.5555	2.1334
4.5316	2.1353
4.508	2.1442
4.4846	2.1471
4.4614	2.1564
4.4385	2.1571
4.4158	2.1662
4.3934	2.1641
4.3711	2.175
4.3491	2.1801
4.3273	2.189
4.3058	2.1942
4.2844	2.2016
4.2633	2.2052
4.2424	2.2083
4.2216	2.2189
4.2011	2.2255
4.1808	2.2385
4.1606	2.2466
4.1407	2.2526
4.1209	2.2583
4.1014	2.2674
4.082	2.2751
4.0628	2.2904
4.0438	2.2978
4.025	2.3081
4.0063	2.3217
3.9878	2.3294
3.9695	2.3358
3.9513	2.348
3.9333	2.3631
3.9155	2.3684
3.8979	2.3804
3.8804	2.395
3.863	2.4078
3.8458	2.4177
3.8288	2.4208
3.8119	2.4421
3.7951	2.4548
3.7785	2.4667
3.7621	2.4767
3.7458	2.4935
3.7296	2.5064
3.7136	2.5121
3.6977	2.5349
3.6819	2.5474
3.6663	2.56
3.6508	2.5804
3.6355	2.5846
3.6202	2.606
3.6051	2.6237
3.5901	2.6351
3.5753	2.6605
3.5605	2.678
3.5459	2.7076
3.5314	2.7256
3.5171	2.7502
3.5028	2.7658
3.4887	2.7926
3.4746	2.8242
3.4607	2.8572
3.4469	2.8792
3.4332	2.9242
3.4196	2.9474
3.4061	2.9852
3.3928	3.0179
3.3795	3.0378
3.3663	3.0868
3.3533	3.1268
3.3403	3.1682
3.3274	3.2118
3.3147	3.256
3.302	3.3032
3.2894	3.3622
3.277	3.396
3.2646	3.4467
3.2523	3.5168
3.2401	3.5644
3.228	3.6194
3.216	3.6852
3.204	3.7209
3.1922	3.7898
3.1805	3.8551
3.1688	3.9008
3.1572	3.9479
3.1457	3.9618
3.1343	3.9972
3.123	4.0097
3.1117	3.9903
3.1006	3.9874
3.0895	3.9683
3.0785	3.9365
3.0675	3.9042
3.0567	3.8487
3.0459	3.823
3.0352	3.7752
3.0246	3.7328
3.014	3.6927
3.0036	3.6661
2.9932	3.6099
2.9828	3.5685
2.9726	3.4907
2.9624	3.4094
2.9523	3.2953
2.9422	3.1639
2.9322	3.0184
2.9223	2.8048
2.9124	2.6504
2.9027	2.4107
2.8929	2.2892
2.8833	2.0844
2.8737	1.8968
2.8642	1.7375
2.8547	1.5355
2.8453	1.4274
2.836	1.2197
2.8267	1.142
2.8175	0.9836
2.8083	0.8996
2.7992	0.811
2.7902	0.7299
2.7812	0.6871
2.7723	0.6311
2.7634	0.5668
2.7546	0.5201
2.7458	0.6086
2.7371	0.4931
2.7285	0.6113
2.7199	0.5299
2.7114	0.6268
2.7029	0.8022
2.6945	0.7558
2.6861	0.8862
2.6778	0.806
2.6695	0.7675
2.6617	1.0005
2.6531	1.0807
2.645	1.1623
2.6369	1.235
2.6289	1.0398
2.6209	1.1364
2.613	1.2049
2.6051	1.0424
2.5973	1.1022
2.5895	1.2659
2.5817	1.2183
2.5741	1.2328
2.5664	1.3051
2.5588	1.3812
2.5513	1.3755
2.5437	1.4281
2.5363	1.4719
2.5289	1.5063
2.5215	1.536
2.5141	1.5441
2.5068	1.569
2.4996	1.587
2.4924	1.5927
2.4852	1.6018
2.4781	1.6271
2.471	1.6279
2.464	1.6427
2.4569	1.653
2.45	1.6599
2.4431	1.6752
2.4362	1.6863
2.4293	1.7001
2.4225	1.6968
2.4157	1.7106
2.409	1.7114
2.4023	1.7233
2.3956	1.7305
2.389	1.7315
2.3824	1.753
2.3759	1.7552
2.3694	1.7542
2.3629	1.7698
2.3564	1.7635
2.35	1.776
2.3436	1.788
2.3373	1.7851
2.331	1.7935
2.3247	1.793
2.3185	1.8025
2.3123	1.8126
2.3061	1.8006
2.3	1.8097
2.2939	1.8272
2.2878	1.8183
2.2818	1.8272
2.2757	1.843
2.2698	1.8389
2.2638	1.8604
2.2579	1.8549
2.252	1.8602
2.2462	1.8652
2.2403	1.8729
2.2345	1.86
2.2288	1.8724
2.2231	1.8808
2.2173	1.882
2.2117	1.8822
2.206	1.8712
2.2004	1.887
2.1948	1.8932
2.1893	1.8837
2.1837	1.8872
2.1782	1.9066
2.1718	1.9078
2.1664	1.9078
2.161	1.9267
2.1556	1.9169
2.1502	1.9186
2.1449	1.9241
2.1396	1.9313
2.1343	1.9324
2.129	1.9432
2.1238	1.931
2.1186	1.955
2.1134	1.9678
2.1082	1.9566
2.1031	1.9581
2.098	1.96
2.0929	1.9734
2.0879	1.9623
2.0828	1.9499
