Name: Frost
Type: Water
Class: Frost
Subclass: None
Particle Size: Fine
Sample No.: FROST_SNW_
Owner: Dept. of Earth and Planetary Science, John Hopkins University
Wavelength Range: All
Origin: Collected at John Hopkins University IR Spectroscopy Lab.
Description: Frost.  The spectrum from 0.3 to 2.08 micrometers was modeled, while that from 2.08 to 14 micrometers was measured.  The effective particle size was 10 micrometers (see Introductory text for details). Original filename FROST.SNW. Original ASTER Spectral Library name was jhu.becknic.water.frost.none.10um.frost.spectrum.txt
Measurement: Directional (10 Degree) Hemispherical Reflectance
X Units: Wavelength (micrometers)
Y Units: Reflectance (percent)
wavelength	value
0.34	99.038
0.37	99.208
0.4	99.244
0.43	99.418
0.46	99.482
0.49	99.446
0.52	99.394
0.55	99.38
0.58	99.31
0.61	99.11
0.64	98.84
0.67	98.568
0.7	98.176
0.73	97.938
0.76	97.432
0.79	96.776
0.84	96.45
0.9	94.43
0.96	92.77
1.02	88.75
1.08	89.68
1.14	89.13
1.2	82.35
1.26	76.86
1.32	77.47
1.38	75.86
1.44	37.84
1.5	21.54
1.56	26.41
1.62	29.81
1.68	44.55
1.74	47.6
1.8	54.32
1.86	54.39
1.92	21.8
1.98	11.57
2.04	13.1
2.1	19.27
2.16	33.64
2.22	45.29
2.26	44.367
2.29	42.402
2.32	39.514
2.35	36.73
2.38	34.833
2.41	33.494
2.44	32.212
2.47	30.793
2.5	29.46
2.53	28.317
2.56	27.289
2.59	25.546
2.62	24.282
2.65	22.299
2.68	17.04
2.71	11.016
2.74	5.029
2.77	1.678
2.8	0.628
2.83	0.399
2.86	0.317
2.89	0.423
2.92	0.518
2.95	0.697
2.98	0.688
3.01	0.927
3.04	1.225
3.07	1.407
3.1	1.332
3.13	1.198
3.16	1.173
3.19	1.142
3.22	1.098
3.25	1.018
3.28	1.01
3.31	1.116
3.34	1.27
3.37	1.508
3.4	1.92
3.43	2.52
3.46	3.362
3.49	4.515
3.52	5.798
3.55	7.215
3.58	8.635
3.61	9.93
3.64	10.995
3.67	11.717
3.7	11.982
3.73	11.852
3.76	11.35
3.79	10.677
3.82	9.887
3.85	9.107
3.88	8.35
3.91	7.71
3.94	7.14
3.97	6.57
4	6.073
4.03	5.64
4.06	5.27
4.09	4.88
4.12	4.62
4.15	4.427
4.18	4.15
4.21	3.87
4.24	3.64
4.27	3.34
4.3	3.1
4.33	2.77
4.36	2.583
4.39	2.38
4.42	2.22
4.45	2.147
4.48	2.08
4.51	2.135
4.54	2.237
4.57	2.385
4.6	2.64
4.63	2.985
4.66	3.305
4.69	3.7
4.72	4.11
4.75	4.525
4.78	4.925
4.81	5.29
4.84	5.615
4.87	5.945
4.9	6.24
4.93	6.47
4.96	6.655
4.99	6.84
5.02	6.915
5.05	6.985
5.08	6.96
5.11	6.895
5.14	6.745
5.17	6.595
5.2	6.37
5.23	6.19
5.26	5.945
5.29	5.65
5.32	5.405
5.35	5.05
5.38	4.81
5.41	4.555
5.44	4.26
5.47	3.965
5.5	3.75
5.53	3.49
5.56	3.19
5.59	2.965
5.62	2.74
5.65	2.425
5.68	2.24
5.71	2.05
5.74	1.84
5.77	1.655
5.8	1.55
5.83	1.4
5.86	1.29
5.89	1.13
5.92	1.07
5.95	1.025
5.98	1
6.01	0.995
6.04	0.91
6.07	0.86
6.1	0.91
6.13	0.97
6.16	0.98
6.19	0.96
6.22	0.975
6.25	1.025
6.28	1.065
6.31	1.065
6.34	1.05
6.37	1.06
6.4	1.03
6.43	1.02
6.46	1.065
6.49	1.09
6.52	1.17
6.55	1.21
6.58	1.19
6.61	1.15
6.64	1.16
6.67	1.24
6.7	1.3
6.73	1.35
6.76	1.36
6.79	1.34
6.82	1.35
6.85	1.36
6.88	1.38
6.91	1.45
6.94	1.49
6.97	1.49
7	1.48
7.03	1.47
7.06	1.51
7.09	1.57
7.12	1.58
7.15	1.57
7.18	1.59
7.21	1.66
7.24	1.72
7.27	1.73
7.3	1.74
7.33	1.78
7.36	1.85
7.4	1.91
7.43	1.93
7.46	1.96
7.49	2
7.52	2.03
7.56	2.06
7.59	2.13
7.62	2.19
7.66	2.2
7.69	2.2
7.73	2.23
7.76	2.28
7.8	2.33
7.83	2.37
7.87	2.39
7.9	2.41
7.94	2.45
7.98	2.48
8.01	2.49
8.05	2.5
8.09	2.52
8.13	2.55
8.16	2.57
8.2	2.57
8.24	2.57
8.28	2.58
8.32	2.58
8.36	2.57
8.4	2.55
8.44	2.56
8.48	2.56
8.53	2.55
8.57	2.54
8.61	2.52
8.65	2.47
8.7	2.44
8.74	2.44
8.79	2.45
8.83	2.43
8.88	2.38
8.92	2.34
8.97	2.32
9.02	2.31
9.06	2.3
9.11	2.29
9.16	2.29
9.21	2.31
9.26	2.36
9.31	2.4
9.36	2.42
9.41	2.43
9.46	2.51
9.51	2.63
9.56	2.74
9.62	2.8
9.67	2.76
9.73	2.67
9.78	2.58
9.84	2.44
9.89	2.28
9.95	2.12
10.01	1.93
10.07	1.71
10.13	1.52
10.18	1.36
10.25	1.21
10.31	1.04
10.37	0.88
10.43	0.74
10.49	0.67
10.56	0.64
10.62	0.62
10.69	0.58
10.76	0.56
10.82	0.57
10.89	0.6
10.96	0.63
11.03	0.67
11.1	0.7
11.17	0.72
11.25	0.71
11.32	0.71
11.39	0.73
11.47	0.77
11.55	0.78
11.62	0.81
11.7	0.85
11.78	0.88
11.86	0.88
11.95	0.88
12.03	0.9
12.11	0.92
12.2	0.94
12.28	0.97
12.37	1
12.46	0.99
12.55	0.99
12.64	1.02
12.74	1.05
12.83	1.05
12.93	1.09
13.03	1.14
13.12	1.13
13.22	1.08
13.33	1.09
13.43	1.13
13.54	1.16
13.64	1.18
13.75	1.18
13.86	1.2
13.97	1.25
