Name: Sea water
Type: Water
Class: Sea Water
Subclass: none
Particle Size: Liquid
Sample No.: seawater
Owner: Dept. of Earth and Planetary Science, John Hopkins University
Wavelength Range: TIR
Origin: JHU IR Spectroscopy Lab. Original filename SEAWATER.
Description: Sea water. Original ASTER Spectral Library name was jhu.becknic.water.sea.none.liquid.seawater.spectrum.txt
Measurement: Directional (10 Degree) Hemispherical Reflectance
X Units: Wavelength (micrometers)
Y Units: Reflectance (percent)
wavelength	value
14.0112	3.6548
13.7876	3.479
13.5711	3.1958
13.3612	2.9548
13.1577	2.7224
12.9604	2.4548
12.7688	2.2561
12.5829	2.0034
12.4023	1.7827
12.2268	1.6111
12.0562	1.4604
11.8903	1.262
11.7289	1.1675
11.5718	1.0547
11.4188	0.9763
11.2699	0.9556
11.1248	0.908
10.9834	0.9053
10.8455	0.9243
10.7111	0.9436
10.5799	0.99
10.4519	1.0207
10.327	1.0627
10.205	1.1248
10.0859	1.1421
9.9695	1.2168
9.8558	1.2488
9.7447	1.2998
9.636	1.3647
9.5297	1.3765
9.4257	1.4468
9.324	1.49
9.2245	1.4998
9.127	1.51
9.0316	1.5347
8.9382	1.5461
8.8467	1.5764
8.757	1.6018
8.6692	1.6074
8.583	1.6238
8.4986	1.6543
8.4158	1.679
8.3347	1.696
8.255	1.7112
8.1769	1.73
8.1002	1.7427
8.025	1.7544
7.9512	1.7622
7.8786	1.7576
7.8075	1.7817
7.7375	1.7905
7.6689	1.7947
7.6014	1.7886
7.5351	1.8386
7.47	1.7068
7.4059	1.8621
7.343	1.7065
7.2811	1.7461
7.2203	1.8704
7.1604	1.7212
7.1016	1.9543
7.0437	1.5666
6.9867	1.875
6.9307	2.0112
6.8755	1.7322
6.8213	1.8064
6.7678	1.8831
6.7152	1.6191
6.6634	1.925
6.6124	1.8359
6.5622	1.6128
6.5128	1.854
6.464	1.988
6.416	1.0708
6.3687	1.8503
6.3221	2.3391
6.2762	2.3599
6.231	2.4482
6.1863	1.9304
6.1424	2.2248
6.099	2.1125
6.0563	1.4512
6.0141	1.519
5.9725	1.3066
5.9315	1.0918
5.8911	1.0317
5.8512	1.3931
5.8118	1.3896
5.773	1.2395
5.7347	1.4624
5.6969	1.5752
5.6596	1.5908
5.6227	1.697
5.5864	1.6284
5.5505	1.6724
5.5151	1.8142
5.4801	1.7197
5.4455	1.8835
5.4114	1.8628
5.3778	1.9531
5.3445	1.8506
5.3116	1.9873
5.2792	1.9795
5.2471	2.0188
5.2154	1.9065
5.1842	2.0554
5.1532	2.0237
5.1227	2.0776
5.0925	2.0933
5.0627	2.113
5.0332	2.1103
5.004	2.125
4.9752	2.1411
4.9467	2.1318
4.9186	2.1455
4.8907	2.1462
4.8632	2.1479
4.836	2.1553
4.809	2.1497
4.7824	2.147
4.7561	2.1543
4.7301	2.1536
4.7043	2.1567
4.6788	2.1482
4.6536	2.1582
4.6287	2.154
4.604	2.1626
4.5796	2.165
4.5555	2.157
4.5316	2.1538
4.508	2.1716
4.4846	2.1699
4.4614	2.1826
4.4385	2.1846
4.4158	2.1912
4.3934	2.2009
4.3711	2.1982
4.3491	2.2102
4.3273	2.2143
4.3058	2.218
4.2844	2.2248
4.2633	2.2202
4.2424	2.2395
4.2216	2.2441
4.2011	2.2498
4.1808	2.2598
4.1606	2.2717
4.1407	2.2815
4.1209	2.29
4.1014	2.3035
4.082	2.3098
4.0628	2.3154
4.0438	2.3303
4.025	2.3328
4.0063	2.3376
3.9878	2.3498
3.9695	2.3545
3.9513	2.3669
3.9333	2.3694
3.9155	2.3916
3.8979	2.405
3.8804	2.4202
3.863	2.4172
3.8458	2.4434
3.8288	2.4473
3.8119	2.4626
3.7951	2.4817
3.7785	2.488
3.7621	2.4995
3.7458	2.5159
3.7296	2.5227
3.7136	2.5373
3.6977	2.5478
3.6819	2.5703
3.6663	2.5823
3.6508	2.5937
3.6355	2.6125
3.6202	2.6326
3.6051	2.6523
3.5901	2.6626
3.5753	2.6663
3.5605	2.6872
3.5459	2.7002
3.5314	2.7231
3.5171	2.7541
3.5028	2.7781
3.4887	2.7991
3.4746	2.8274
3.4607	2.855
3.4469	2.874
3.4332	2.9101
3.4196	2.9416
3.4061	2.9868
3.3928	3.0078
3.3795	3.0395
3.3663	3.0801
3.3533	3.1287
3.3403	3.1492
3.3274	3.2121
3.3147	3.2524
3.302	3.283
3.2894	3.3562
3.277	3.3999
3.2646	3.4531
3.2523	3.5088
3.2401	3.5637
3.228	3.5935
3.216	3.6724
3.204	3.706
3.1922	3.769
3.1805	3.822
3.1688	3.8708
3.1572	3.9106
3.1457	3.9407
3.1343	3.9661
3.123	3.9722
3.1117	3.9653
3.1006	3.9675
3.0895	3.9277
3.0785	3.9048
3.0675	3.8794
3.0567	3.8191
3.0459	3.8074
3.0352	3.7429
3.0246	3.7475
3.014	3.7075
3.0036	3.6523
2.9932	3.6047
2.9828	3.5784
2.9726	3.5051
2.9624	3.4158
2.9523	3.3235
2.9422	3.1562
2.9322	3.0351
2.9223	2.8186
2.9124	2.6775
2.9027	2.4517
2.8929	2.3076
2.8833	2.1033
2.8737	1.9326
2.8642	1.7502
2.8547	1.5366
2.8453	1.4468
2.836	1.2529
2.8267	1.1475
2.8175	1.0156
2.8083	0.9084
2.7992	0.8765
2.7902	0.771
2.7812	0.6943
2.7723	0.6255
2.7634	0.5815
2.7546	0.5105
2.7458	0.6252
2.7371	0.5652
2.7285	0.6606
2.7199	0.5266
2.7114	0.6128
2.7029	0.8228
2.6945	0.7415
2.6861	0.9075
2.6778	0.7898
2.6695	0.79
2.6613	1.0518
2.6531	1.0898
2.645	1.1763
2.6369	1.3064
2.6289	1.1167
2.6209	1.0977
2.613	1.2581
2.6051	1.0359
2.5973	1.2375
2.5895	1.2881
2.5817	1.2771
2.5741	1.2578
2.5664	1.4397
2.5588	1.4636
2.5513	1.4141
2.5437	1.4465
2.5363	1.4685
2.5289	1.5493
2.5215	1.5864
2.5141	1.5876
2.5068	1.6147
2.4996	1.6121
2.4924	1.6189
2.4852	1.6411
2.4781	1.6611
2.471	1.6645
2.464	1.6636
2.4569	1.6929
2.45	1.6916
2.4431	1.7185
2.4362	1.7095
2.4293	1.7266
2.4225	1.7395
2.4157	1.7317
2.409	1.7468
2.4023	1.762
2.3956	1.7856
2.389	1.7778
2.3824	1.7895
2.3759	1.7878
2.3694	1.8118
2.3629	1.8083
2.3564	1.8318
2.35	1.8203
2.3436	1.8428
2.3373	1.8101
2.331	1.854
2.3247	1.8357
2.3185	1.8413
2.3123	1.845
2.3061	1.8445
2.3	1.8645
2.2939	1.8376
2.2878	1.8708
2.2818	1.8603
2.2757	1.8735
2.2698	1.874
2.2638	1.876
2.2579	1.8938
2.252	1.8962
2.2462	1.9204
2.2403	1.9038
2.2345	1.9048
2.2288	1.9028
2.2231	1.9143
2.2173	1.9211
2.2117	1.9431
2.206	1.9426
2.2004	1.9338
2.1948	1.9602
2.1893	1.9224
2.1837	1.9258
2.1782	1.9639
2.1727	1.9653
2.1673	1.9673
2.1619	1.9338
2.1565	1.9646
2.1511	1.9465
2.1458	1.9695
2.1404	1.9998
2.1352	1.978
2.1299	1.9595
2.1247	1.9954
2.1194	1.9824
2.1143	2.0112
2.1091	2.0098
2.104	1.999
2.0988	1.9939
2.0938	1.9976
2.0887	1.9907
2.0837	1.9922
