Name: Coarse Granular Snow
Type: Water
Class: Snow
Subclass: Coarse Granular
Particle Size: Coarse
Sample No.: COARSE_SNW_
Owner: Dept. of Earth and Planetary Science, John Hopkins University
Wavelength Range: All
Origin: Collected at John Hopkins University IR Spectroscopy Lab.
Description: Coarse snow.   The spectrum from 0.3 to 2.08 micrometers was modeled, while that from 2.08 to 14 micrometers was measured (see introductory text). Sample particle size was 178 micrometers effective size. Original filename COARSE.SNW. Original ASTER Spectral Library name was jhu.becknic.water.snow.granular.178um.coarse.spectrum.txt
Measurement: Directional (10 Degree) Hemispherical Reflectance
X Units: Wavelength (micrometers)
Y Units: Reflectance (percent)
wavelength	value
0.34	96.098
0.37	96.549
0.4	96.987
0.43	97.445
0.46	97.908
0.49	97.736
0.52	97.528
0.55	97.163
0.58	96.898
0.61	95.508
0.64	94.9
0.67	93.611
0.7	92.505
0.73	91.213
0.76	89.135
0.79	86.482
0.84	85.236
0.9	77.393
0.96	71.699
1.02	57.494
1.08	62.226
1.14	59.047
1.2	41.539
1.26	30.33
1.32	31.136
1.38	28.719
1.44	2.312
1.5	0.509
1.56	0.801
1.62	1.425
1.68	3.095
1.74	4.794
1.8	7.092
1.86	7.599
1.92	0.535
1.98	0.204
2.04	0.226
2.1	0.421
2.16	1.471
2.22	3.317
2.26	3.58
2.29	2.798
2.32	2.137
2.35	1.811
2.38	1.682
2.41	1.603
2.44	1.508
2.47	1.466
2.5	1.38
2.53	1.351
2.56	1.329
2.59	1.292
2.62	1.215
2.65	1.088
2.68	0.925
2.71	0.762
2.74	0.605
2.77	0.525
2.8	0.43
2.83	0.399
2.86	0.442
2.89	0.648
2.92	1.195
2.95	1.903
2.98	2.428
3.01	3.229
3.04	4.689
3.07	6.465
3.1	6.688
3.13	5.894
3.16	5.673
3.19	5.441
3.22	4.893
3.25	4.304
3.28	3.877
3.31	3.563
3.34	3.302
3.37	3.145
3.4	2.959
3.43	2.833
3.46	2.703
3.49	2.586
3.52	2.478
3.55	2.429
3.58	2.381
3.61	2.314
3.64	2.27
3.67	2.215
3.7	2.184
3.73	2.158
3.76	2.115
3.79	2.08
3.82	2.046
3.85	2.037
3.88	2.009
3.91	1.962
3.94	1.96
3.97	1.928
4	1.924
4.03	1.9
4.06	1.867
4.09	1.852
4.12	1.848
4.15	1.834
4.18	1.823
4.21	1.812
4.24	1.809
4.27	1.799
4.3	1.8
4.33	1.783
4.36	1.785
4.39	1.783
4.42	1.798
4.45	1.807
4.48	1.815
4.51	1.816
4.54	1.832
4.57	1.842
4.6	1.843
4.63	1.87
4.66	1.857
4.69	1.849
4.72	1.837
4.75	1.823
4.78	1.819
4.81	1.809
4.84	1.799
4.87	1.792
4.9	1.788
4.93	1.781
4.96	1.774
4.99	1.745
5.02	1.747
5.05	1.736
5.08	1.73
5.11	1.701
5.14	1.71
5.17	1.683
5.2	1.663
5.23	1.651
5.26	1.658
5.29	1.644
5.32	1.627
5.35	1.636
5.38	1.626
5.41	1.592
5.44	1.58
5.47	1.56
5.5	1.567
5.53	1.553
5.56	1.536
5.59	1.528
5.62	1.514
5.65	1.504
5.68	1.494
5.71	1.459
5.74	1.47
5.77	1.46
5.8	1.482
5.83	1.472
5.86	1.47
5.89	1.437
5.92	1.452
5.95	1.466
5.98	1.494
6.01	1.494
6.04	1.497
6.07	1.52
6.1	1.556
6.13	1.554
6.16	1.55
6.19	1.566
6.22	1.575
6.25	1.57
6.28	1.597
6.31	1.605
6.34	1.605
6.37	1.622
6.4	1.598
6.43	1.624
6.46	1.664
6.49	1.664
6.52	1.661
6.55	1.654
6.58	1.677
6.61	1.681
6.64	1.678
6.67	1.69
6.7	1.699
6.73	1.699
6.76	1.682
6.79	1.669
6.82	1.658
6.85	1.665
6.88	1.69
6.91	1.687
6.94	1.68
6.97	1.686
7	1.695
7.03	1.69
7.06	1.689
7.09	1.676
7.12	1.662
7.15	1.673
7.18	1.671
7.21	1.658
7.24	1.649
7.27	1.647
7.3	1.639
7.33	1.621
7.36	1.614
7.4	1.619
7.43	1.63
7.46	1.598
7.49	1.562
7.52	1.59
7.56	1.596
7.59	1.562
7.62	1.553
7.66	1.559
7.69	1.549
7.73	1.545
7.76	1.547
7.8	1.545
7.83	1.543
7.87	1.526
7.9	1.523
7.94	1.534
7.98	1.529
8.01	1.536
8.05	1.538
8.09	1.529
8.13	1.525
8.16	1.545
8.2	1.55
8.24	1.532
8.28	1.512
8.32	1.514
8.36	1.526
8.4	1.523
8.44	1.528
8.48	1.511
8.53	1.472
8.57	1.468
8.61	1.485
8.65	1.49
8.7	1.488
8.74	1.472
8.79	1.462
8.83	1.475
8.88	1.456
8.92	1.451
8.97	1.47
9.02	1.426
9.06	1.406
9.11	1.423
9.16	1.418
9.21	1.404
9.26	1.384
9.31	1.369
9.36	1.342
9.41	1.323
9.46	1.308
9.51	1.266
9.56	1.216
9.62	1.211
9.67	1.211
9.73	1.161
9.78	1.097
9.84	1.049
9.89	1.019
9.95	0.981
10.01	0.943
10.07	0.922
10.13	0.909
10.18	0.866
10.25	0.79
10.31	0.773
10.37	0.776
10.43	0.752
10.49	0.763
10.56	0.802
10.62	0.873
10.69	0.984
10.76	1.129
10.82	1.265
10.89	1.418
10.96	1.588
11.03	1.771
11.1	1.966
11.17	2.139
11.25	2.32
11.32	2.495
11.39	2.658
11.47	2.831
11.55	3.003
11.62	3.121
11.7	3.22
11.78	3.348
11.86	3.482
11.95	3.629
12.03	3.795
12.11	3.94
12.2	4.064
12.28	4.184
12.37	4.275
12.46	4.33
12.55	4.389
12.64	4.463
12.74	4.523
12.83	4.54
12.93	4.519
13.03	4.523
13.12	4.519
13.22	4.485
13.33	4.426
13.43	4.445
13.54	4.477
13.64	4.431
13.75	4.354
13.86	4.226
13.97	4.174
