Name: Fine Snow
Type: Water
Class: Snow
Subclass: Fine Granular
Particle Size: Fine
Sample No.: FINE_SNW_
Owner: Dept. of Earth and Planetary Science, John Hopkins University
Wavelength Range: All
Origin: Collected at John Hopkins University IR Spectroscopy Lab.
Description: Fine snow. The spectrum from 0.3 to 2.08 micrometers was modeled, while that from 2.08 to 14 micrometers was measured (see Introductory text for details).  Particle size was 24 micrometers effective size. Original filename FINE.SNW. Original ASTER Spectral Library name was jhu.becknic.water.snow.fine.24um.fine.spectrum.txt
Measurement: Directional (10 Degree) Hemispherical Reflectance
X Units: Wavelength (micrometers)
Y Units: Reflectance (percent)
wavelength	value
0.34	98.521
0.37	98.712
0.4	98.845
0.43	99.05
0.46	99.282
0.49	99.237
0.52	99.102
0.55	98.969
0.58	98.879
0.61	98.573
0.64	98.106
0.67	97.746
0.7	96.77
0.73	96.63
0.76	95.49
0.79	94.611
0.84	94.31
0.9	91.234
0.96	88.478
1.02	82.069
1.08	82.101
1.14	82.929
1.2	65.015
1.26	64.811
1.32	63.254
1.38	64.219
1.44	20.633
1.5	8.527
1.56	11.91
1.62	16.531
1.68	24.522
1.74	29.456
1.8	36.986
1.86	37.548
1.92	9.095
1.98	3.627
2.04	4.215
2.1	8.169
2.16	17.541
2.22	26.319
2.26	26.848
2.29	19.956
2.32	13.37
2.35	9.52
2.38	8.024
2.41	7.44
2.44	6.789
2.47	6.136
2.5	5.556
2.53	5.272
2.56	5.3
2.59	5.274
2.62	4.932
2.65	4.022
2.68	2.34
2.71	0.954
2.74	0.378
2.77	0.24
2.8	0.19
2.83	0.166
2.86	0.21
2.89	0.246
2.92	0.428
2.95	0.663
2.98	0.797
3.01	1.029
3.04	1.492
3.07	2.316
3.1	2.746
3.13	2.149
3.16	2.003
3.19	2.051
3.22	1.864
3.25	1.637
3.28	1.478
3.31	1.334
3.34	1.266
3.37	1.223
3.4	1.173
3.43	1.153
3.46	1.131
3.49	1.149
3.52	1.167
3.55	1.203
3.58	1.224
3.61	1.284
3.64	1.281
3.67	1.283
3.7	1.236
3.73	1.178
3.76	1.132
3.79	1.048
3.82	0.978
3.85	0.939
3.88	0.892
3.91	0.873
3.94	0.839
3.97	0.795
4	0.784
4.03	0.759
4.06	0.754
4.09	0.725
4.12	0.721
4.15	0.72
4.18	0.705
4.21	0.681
4.24	0.669
4.27	0.672
4.3	0.655
4.33	0.646
4.36	0.64
4.39	0.638
4.42	0.635
4.45	0.647
4.48	0.635
4.51	0.64
4.54	0.654
4.57	0.663
4.6	0.656
4.63	0.668
4.66	0.67
4.69	0.676
4.72	0.688
4.75	0.687
4.78	0.693
4.81	0.703
4.84	0.7
4.87	0.719
4.9	0.733
4.93	0.733
4.96	0.744
4.99	0.722
5.02	0.738
5.05	0.734
5.08	0.735
5.11	0.719
5.14	0.711
5.17	0.697
5.2	0.682
5.23	0.666
5.26	0.643
5.29	0.649
5.32	0.625
5.35	0.614
5.38	0.613
5.41	0.586
5.44	0.582
5.47	0.559
5.5	0.573
5.53	0.56
5.56	0.541
5.59	0.536
5.62	0.519
5.65	0.506
5.68	0.503
5.71	0.498
5.74	0.491
5.77	0.475
5.8	0.489
5.83	0.464
5.86	0.474
5.89	0.446
5.92	0.462
5.95	0.454
5.98	0.456
6.01	0.461
6.04	0.435
6.07	0.458
6.1	0.456
6.13	0.45
6.16	0.442
6.19	0.435
6.22	0.463
6.25	0.474
6.28	0.477
6.31	0.472
6.34	0.471
6.37	0.466
6.4	0.446
6.43	0.458
6.46	0.474
6.49	0.473
6.52	0.479
6.55	0.485
6.58	0.492
6.61	0.486
6.64	0.486
6.67	0.514
6.7	0.511
6.73	0.516
6.76	0.512
6.79	0.495
6.82	0.504
6.85	0.493
6.88	0.498
6.91	0.516
6.94	0.519
6.97	0.521
7	0.53
7.03	0.515
7.06	0.495
7.09	0.506
7.12	0.516
7.15	0.509
7.18	0.509
7.21	0.508
7.24	0.486
7.27	0.486
7.3	0.496
7.33	0.482
7.36	0.476
7.4	0.476
7.43	0.481
7.46	0.482
7.49	0.474
7.52	0.465
7.56	0.458
7.59	0.455
7.62	0.477
7.66	0.492
7.69	0.475
7.73	0.465
7.76	0.476
7.8	0.482
7.83	0.476
7.87	0.475
7.9	0.474
7.94	0.47
7.98	0.472
8.01	0.466
8.05	0.457
8.09	0.46
8.13	0.476
8.16	0.482
8.2	0.477
8.24	0.474
8.28	0.477
8.32	0.476
8.36	0.459
8.4	0.457
8.44	0.452
8.48	0.455
8.53	0.47
8.57	0.468
8.61	0.458
8.65	0.449
8.7	0.455
8.74	0.48
8.79	0.482
8.83	0.449
8.88	0.443
8.92	0.443
8.97	0.446
9.02	0.456
9.06	0.444
9.11	0.451
9.16	0.475
9.21	0.483
9.26	0.472
9.31	0.456
9.36	0.468
9.41	0.486
9.46	0.499
9.51	0.492
9.56	0.473
9.62	0.444
9.67	0.398
9.73	0.383
9.78	0.358
9.84	0.313
9.89	0.309
9.95	0.298
10.01	0.268
10.07	0.247
10.13	0.242
10.18	0.249
10.25	0.246
10.31	0.228
10.37	0.219
10.43	0.214
10.49	0.231
10.56	0.256
10.62	0.29
10.69	0.351
10.76	0.397
10.82	0.422
10.89	0.464
10.96	0.522
11.03	0.593
11.1	0.65
11.17	0.671
11.25	0.689
11.32	0.751
11.39	0.814
11.47	0.831
11.55	0.866
11.62	0.915
11.7	0.942
11.78	0.979
11.86	1.021
11.95	1.044
12.03	1.059
12.11	1.099
12.2	1.132
12.28	1.135
12.37	1.17
12.46	1.178
12.55	1.149
12.64	1.161
12.74	1.196
12.83	1.163
12.93	1.112
13.03	1.128
13.12	1.127
13.22	1.092
13.33	1.12
13.43	1.117
13.54	1.058
13.64	1.044
13.75	1.076
13.86	1.052
13.97	1.01
