Name: Sea Foam
Type: Water
Class: Sea Water
Subclass: none
Particle Size: Liquid
Sample No.: seafoam
Owner: Dept. of Earth and Planetary Science, John Hopkins University
Wavelength Range: TIR
Origin: JHU IR Spectroscopy Lab.
Description: Sea foam water. Original filename FOAM Original ASTER Spectral Library name was jhu.becknic.water.sea.none.liquid.seafoam.spectrum.txt
Measurement: Directional (10 Degree) Hemispherical Reflectance
X Units: Wavelength (micrometers)
Y Units: Reflectance (percent)
wavelength	value
14.0112	3.2236
13.7876	3.0439
13.5711	2.7976
13.3612	2.6743
13.1577	2.4211
12.9604	2.3362
12.7688	2.0735
12.5829	1.8618
12.4023	1.637
12.2268	1.4949
12.0562	1.3484
11.8903	1.2744
11.7289	1.0486
11.5718	1.0063
11.4188	0.9744
11.2699	0.9248
11.1248	0.926
10.9834	0.8633
10.8455	0.8928
10.7111	0.9614
10.5799	1.0359
10.4519	1.0525
10.327	1.0928
10.205	1.1201
10.0859	1.2261
9.9695	1.2393
9.8558	1.3003
9.7447	1.4036
9.636	1.4265
9.5297	1.3953
9.4257	1.4617
9.324	1.561
9.2245	1.5342
9.127	1.5957
9.0316	1.5662
8.9382	1.5911
8.8467	1.6384
8.757	1.6709
8.6692	1.6919
8.583	1.6904
8.4986	1.7324
8.4158	1.7581
8.3347	1.8101
8.255	1.7927
8.1769	1.7915
8.1002	1.8271
8.025	1.832
7.9512	1.8596
7.8786	1.8957
7.8075	1.8926
7.7375	1.9023
7.6689	1.917
7.6014	1.9111
7.5351	1.9456
7.47	1.9487
7.4059	1.9285
7.343	1.9141
7.2811	1.9556
7.2203	2.0352
7.1604	1.9531
7.1016	2.0671
7.0437	1.9033
6.9867	2.0903
6.9307	2.1445
6.8755	2.0037
6.8213	2.0693
6.7678	2.1179
6.7152	2.0417
6.6634	2.1746
6.6124	2.1443
6.5622	2.1003
6.5128	2.2246
6.464	2.2783
6.416	1.7866
6.3687	2.2112
6.3221	2.4436
6.2762	2.5347
6.231	2.5325
6.1863	2.2871
6.1424	2.3657
6.099	2.1873
6.0563	1.7214
6.0141	1.6987
5.9725	1.5227
5.9315	1.3789
5.8911	1.3286
5.8512	1.5305
5.8118	1.5686
5.773	1.5613
5.7347	1.7097
5.6969	1.7771
5.6596	1.8498
5.6227	1.9311
5.5864	1.9751
5.5505	1.9817
5.5151	2.0815
5.4801	2.0791
5.4455	2.167
5.4114	2.1824
5.3778	2.2615
5.339	2.2685
5.3062	2.3259
5.2738	2.2939
5.2418	2.3472
5.2102	2.3306
5.179	2.3538
5.143	2.3293
5.1126	2.3826
5.0825	2.3794
5.0528	2.3533
5.0234	2.4089
4.9944	2.4241
4.9609	2.3733
4.9326	2.4131
4.9046	2.4206
4.8769	2.3962
4.8495	2.4099
4.8225	2.3997
4.7957	2.4226
4.7692	2.4075
4.7431	2.3896
4.7172	2.4311
4.6915	2.4031
4.6662	2.4399
4.6411	2.4429
4.6163	2.4482
4.5918	2.4294
4.5675	2.4509
4.5435	2.4353
4.5197	2.4485
4.4962	2.4348
4.473	2.4988
4.4499	2.4822
4.4271	2.5032
4.4045	2.5249
4.3822	2.5366
4.3601	2.5439
4.3382	2.5732
4.3165	2.5947
4.2951	2.6206
4.2738	2.6086
4.2528	2.6294
4.232	2.6416
4.2113	2.6641
4.1909	2.7385
4.1707	2.7602
4.1506	2.7615
4.1308	2.7849
4.1111	2.8257
4.0917	2.854
4.0724	2.9036
4.0533	2.9058
4.0344	2.9665
4.0156	2.9722
3.997	3.0356
3.9756	3.0701
3.9574	3.1118
3.9393	3.1321
3.9214	3.1924
3.9037	3.2319
3.8862	3.2964
3.8659	3.3157
3.8487	3.3332
3.8316	3.3574
3.8147	3.3933
3.7979	3.4226
3.7813	3.4429
3.7648	3.4092
3.7458	3.4641
3.7296	3.4531
3.7136	3.4211
3.6977	3.4114
3.6819	3.365
3.6663	3.3845
3.6508	3.3635
3.6355	3.344
3.6202	3.3213
3.6051	3.3452
3.5901	3.3013
3.5753	3.3252
3.5605	3.2517
3.5459	3.3184
3.5314	3.2495
3.5171	3.3157
3.5028	3.3096
3.4887	3.3721
3.4746	3.3354
3.4607	3.3249
3.4469	3.3674
3.4332	3.4231
3.4196	3.4114
3.4061	3.3892
3.3928	3.4329
3.3795	3.4653
3.3663	3.4809
3.3533	3.5674
3.3403	3.595
3.3274	3.5803
3.3147	3.6072
3.302	3.6775
3.2894	3.6667
3.277	3.7419
3.2646	3.7851
3.2523	3.8279
3.2401	3.8537
3.228	3.9116
3.216	3.9609
3.204	4.0032
3.1922	4.0425
3.1805	4.1142
3.1688	4.0969
3.1553	4.1538
3.1438	4.115
3.1324	4.1614
3.1211	4.123
3.1099	4.1333
3.0987	4.0835
3.0858	4.0662
3.0748	4.0024
3.0639	3.9753
3.0531	3.8774
3.0423	3.8826
3.0317	3.7991
3.0211	3.7502
3.0105	3.7087
3.0001	3.6089
2.9897	3.5644
2.9794	3.5908
2.9692	3.4045
2.959	3.4011
2.9489	3.2331
2.9389	3.124
2.9289	2.9543
2.919	2.6921
2.9092	2.5796
2.8994	2.3267
2.8897	2.2161
2.8801	2.0298
2.8705	1.7988
2.861	1.6863
2.8516	1.48
2.8422	1.3718
2.8329	1.2314
2.8236	1.0774
2.8144	0.9946
2.8053	0.8943
2.7962	0.8179
2.7872	0.6765
2.7782	0.7629
2.7693	0.6936
2.7605	0.6875
2.7517	0.73
2.7429	0.6077
2.7343	0.6728
2.7256	0.7234
2.7171	0.7927
2.7085	0.9119
2.7001	0.9895
2.6917	1.1289
2.6833	1.2234
2.675	1.2353
2.6667	1.1943
2.6585	1.5022
2.6504	1.5366
2.6423	1.6184
2.6342	1.6116
2.6262	1.6509
2.6183	1.6497
2.6103	1.7805
2.6025	1.7515
2.5947	1.4712
2.5869	1.8186
2.5792	2.0071
2.5715	1.9553
2.5639	1.8567
2.5563	2.0566
2.5487	2.0969
2.5413	2.1201
2.5338	2.1567
2.5252	2.2314
2.5178	2.1704
2.5105	2.2307
2.5032	2.2485
2.496	2.269
2.4888	2.3528
2.4805	2.4053
2.4734	2.4648
2.4663	2.5225
2.4593	2.5898
2.4523	2.6455
2.4454	2.748
2.4385	2.7436
2.4316	2.8442
2.4248	2.9421
2.418	3.0256
2.4112	3.0957
2.4045	3.2126
2.3979	3.3325
2.3912	3.3994
2.3846	3.5188
2.3781	3.6477
2.3715	3.71
2.365	3.8877
2.3586	4.0234
2.3522	4.0793
2.3458	4.2705
2.3394	4.2915
2.3331	4.5561
2.3268	4.6658
2.3206	4.8457
2.3144	5.0425
2.3082	5.1706
2.302	5.334
2.2959	5.447
2.2898	5.6152
2.2838	5.7148
2.2777	5.9553
2.2718	6.0027
2.2658	6.1557
2.2599	6.229
2.254	6.3235
2.2481	6.3789
2.2413	6.5691
2.2355	6.6111
2.2297	6.5742
2.224	6.646
2.2183	6.7663
2.2126	6.8047
2.206	6.7588
2.2004	6.7143
2.1948	6.759
2.1893	6.6477
2.1837	6.6225
2.1782	6.6579
2.1718	6.4751
2.1664	6.4431
2.161	6.3764
2.1556	6.292
2.1502	6.2764
2.1449	6.0803
2.1387	6.1743
2.1334	5.8606
2.1281	5.7761
2.1229	5.6748
2.1177	5.6203
2.1125	5.5947
2.1074	5.3459
2.1023	5.2505
2.0971	5.1169
2.0921	4.8894
2.087	4.8955
2.082	4.7344
